0:0
     RDKit          3D

 46 48  0  0  0  0  0  0  0  0999 V2000
  145.2640  156.2820  133.5600 C   0  0  0  0  0  0  0  0  0  0  0  0
  145.8900  157.5760  133.8810 N   0  0  0  0  0  0  0  0  0  0  0  0
  147.3580  157.5340  133.6800 C   0  0  0  0  0  0  0  0  0  0  0  0
  145.1920  158.7040  133.2030 C   0  0  2  0  0  0  0  0  0  0  0  0
  145.6400  160.1070  133.6600 C   0  0  0  0  0  0  0  0  0  0  0  0
  144.3690  160.9320  133.8200 C   0  0  0  0  0  0  0  0  0  0  0  0
  143.2530  160.0090  133.6880 N   0  0  0  0  0  0  0  0  0  0  0  0
  141.8970  160.4120  133.9800 C   0  0  0  0  0  0  0  0  0  0  0  0
  141.5320  161.5850  133.6970 O   0  0  0  0  0  0  0  0  0  0  0  0
  140.9130  159.5090  134.6200 C   0  0  0  0  0  0  0  0  0  0  0  0
  140.5040  159.7260  135.7910 O   0  0  0  0  0  0  0  0  0  0  0  0
  140.4600  158.3340  133.9280 N   0  0  0  0  0  0  0  0  0  0  0  0
  139.6220  158.2630  132.8530 C   0  0  0  0  0  0  0  0  0  0  0  0
  138.8840  159.3950  132.2520 C   0  0  0  0  0  0  0  0  0  0  0  0
  139.4940  160.6740  132.1030 N   0  0  0  0  0  0  0  0  0  0  0  0
  137.6840  159.2400  131.8990 O   0  0  0  0  0  0  0  0  0  0  0  0
  139.4850  156.9410  132.4320 C   0  0  0  0  0  0  0  0  0  0  0  0
  140.2620  156.2000  133.2950 C   0  0  0  0  0  0  0  0  0  0  0  0
  140.4940  154.8290  133.3430 C   0  0  0  0  0  0  0  0  0  0  0  0
  141.3580  154.3400  134.3380 C   0  0  0  0  0  0  0  0  0  0  0  0
  141.9910  155.2260  135.2490 C   0  0  0  0  0  0  0  0  0  0  0  0
  142.8860  154.6800  136.3340 C   0  0  0  0  0  0  0  0  0  0  0  0
  142.6810  153.3200  136.4910 F   0  0  0  0  0  0  0  0  0  0  0  0
  144.2200  154.8830  136.0230 F   0  0  0  0  0  0  0  0  0  0  0  0
  142.5980  155.3200  137.5250 F   0  0  0  0  0  0  0  0  0  0  0  0
  141.7110  156.6110  135.1830 C   0  0  0  0  0  0  0  0  0  0  0  0
  140.8380  157.0650  134.1880 C   0  0  0  0  0  0  0  0  0  0  0  0
  143.6660  158.6540  133.3620 C   0  0  0  0  0  0  0  0  0  0  0  0
  145.0097  155.7564  134.4922 H   0  0  0  0  0  0  0  0  0  0  0  0
  144.3489  156.4527  132.9740 H   0  0  0  0  0  0  0  0  0  0  0  0
  145.9659  155.6705  132.9740 H   0  0  0  0  0  0  0  0  0  0  0  0
  147.8617  157.5196  134.6578 H   0  0  0  0  0  0  0  0  0  0  0  0
  147.6252  156.6278  133.1165 H   0  0  0  0  0  0  0  0  0  0  0  0
  147.6765  158.4234  133.1165 H   0  0  0  0  0  0  0  0  0  0  0  0
  145.4809  158.5564  132.1519 H   0  0  0  0  0  0  0  0  0  0  0  0
  146.1750  160.0422  134.6189 H   0  0  0  0  0  0  0  0  0  0  0  0
  146.3242  160.5650  132.9306 H   0  0  0  0  0  0  0  0  0  0  0  0
  144.3499  161.4109  134.8101 H   0  0  0  0  0  0  0  0  0  0  0  0
  144.3159  161.7283  133.0629 H   0  0  0  0  0  0  0  0  0  0  0  0
  139.5360  161.3470  132.9000 H   0  0  0  0  0  0  0  0  0  0  0  0
  138.8839  156.5686  131.5894 H   0  0  0  0  0  0  0  0  0  0  0  0
  140.0155  154.1480  132.6237 H   0  0  0  0  0  0  0  0  0  0  0  0
  141.5458  153.2587  134.4117 H   0  0  0  0  0  0  0  0  0  0  0  0
  142.1679  157.3133  135.8957 H   0  0  0  0  0  0  0  0  0  0  0  0
  143.3885  157.9643  134.1727 H   0  0  0  0  0  0  0  0  0  0  0  0
  143.1768  158.2930  132.4453 H   0  0  0  0  0  0  0  0  0  0  0  0
  1  2  1  0
  2  3  1  0
  2  4  1  0
  4  5  1  0
  5  6  1  0
  6  7  1  0
  7  8  1  0
  8  9  2  0
  8 10  1  0
 10 11  2  0
 10 12  1  0
 12 13  1  0
 13 14  1  0
 14 15  1  0
 14 16  2  0
 13 17  2  0
 17 18  1  0
 18 19  2  0
 19 20  1  0
 20 21  2  0
 21 22  1  0
 22 23  1  0
 22 24  1  0
 22 25  1  0
 21 26  1  0
 26 27  2  0
  7 28  1  0
 28  4  1  0
 27 12  1  0
 27 18  1  0
  1 29  1  0
  1 30  1  0
  1 31  1  0
  3 32  1  0
  3 33  1  0
  3 34  1  0
  4 35  1  6
  5 36  1  0
  5 37  1  0
  6 38  1  0
  6 39  1  0
 15 40  1  0
 17 41  1  0
 19 42  1  0
 20 43  1  0
 26 44  1  0
 28 45  1  0
 28 46  1  0
M  CHG  1  15  -1
M  END
>  <UniqueID>  (1) 
1

>  <SMILES>  (1) 
CN(C)[C@@H]1CCN(C(=O)C(=O)n2c(C([NH-])=O)cc3ccc(C(F)(F)F)cc32)C1

>  <Energy>  (1) 
97.58490051258588

>  <Genealogy>  (1) 
CN(C)[C@@H]1CCN(C(=O)C(=O)n2c(C([NH-])=O)cc3ccc(C(F)(F)F)cc32)C1 (protonated)
CN(C)[C@@H]1CCN(C(=O)C(=O)n2c(C([NH-])=O)cc3ccc(C(F)(F)F)cc32)C1 (3D coordinates assigned)
CN(C)[C@@H]1CCN(C(=O)C(=O)n2c(C([NH-])=O)cc3ccc(C(F)(F)F)cc32)C1 (nonaromatic ring conformer: 97.58490051258588 kcal/mol)

>  <smiles>  (1) 
CN(C)[C@@H]1CCN(C(=O)C(=O)n2c(C(N)=O)cc3ccc(C(F)(F)F)cc32)C1

>  <score_type>  (1) 
oracle

>  <origin>  (1) 
adg

>  <m_score__min__energy>  (1) 
-7.5199999999999996

>  <m_primary>  (1) 
energy

$$$$
1:0
     RDKit          3D

 47 49  0  0  0  0  0  0  0  0999 V2000
  137.8490  158.9500  131.6350 C   0  0  0  0  0  0  0  0  0  0  0  0
  138.8540  158.4880  132.5980 N   0  0  0  0  0  0  0  0  0  0  0  0
  138.4960  157.4840  133.6070 C   0  0  0  0  0  0  0  0  0  0  0  0
  140.1760  159.0670  132.5630 C   0  0  0  0  0  0  0  0  0  0  0  0
  140.3810  160.1000  131.8650 O   0  0  0  0  0  0  0  0  0  0  0  0
  141.3000  158.5250  133.4190 C   0  0  0  0  0  0  0  0  0  0  0  0
  142.6110  159.0220  132.9880 N   0  0  0  0  0  0  0  0  0  0  0  0
  143.8510  158.3820  133.3490 C   0  0  0  0  0  0  0  0  0  0  0  0
  145.1000  159.0540  133.2310 C   0  0  0  0  0  0  0  0  0  0  0  0
  146.2960  158.4220  133.6100 C   0  0  0  0  0  0  0  0  0  0  0  0
  146.2190  157.1200  134.0960 C   0  0  0  0  0  0  0  0  0  0  0  0
  147.2120  156.2840  134.5550 C   0  0  0  0  0  0  0  0  0  0  0  0
  146.5620  155.1090  134.9260 C   0  0  0  0  0  0  0  0  0  0  0  0
  147.2580  153.9040  135.4200 C   0  0  0  0  0  0  0  0  0  0  0  0
  146.9360  153.3750  136.7060 N   0  0  0  0  0  0  0  0  0  0  0  0
  148.1500  153.3460  134.7290 O   0  0  0  0  0  0  0  0  0  0  0  0
  145.2220  155.2200  134.7120 N   0  0  0  0  0  0  0  0  0  0  0  0
  144.1980  154.2520  134.9950 C   0  0  0  0  0  0  0  0  0  0  0  0
  144.2150  153.6490  136.1000 O   0  0  0  0  0  0  0  0  0  0  0  0
  143.1920  153.9370  134.0100 N   0  0  0  0  0  0  0  0  0  0  0  0
  141.8500  154.4560  134.1270 C   0  0  0  0  0  0  0  0  0  0  0  0
  141.5510  155.2700  135.0420 O   0  0  0  0  0  0  0  0  0  0  0  0
  140.8680  154.0730  133.2210 O   0  0  0  0  0  0  0  0  0  0  0  0
  143.5730  153.2290  132.7830 C   0  0  0  0  0  0  0  0  0  0  0  0
  145.0760  153.0460  132.6140 C   0  0  0  0  0  0  0  0  0  0  0  0
  144.3420  154.0770  131.7770 C   0  0  0  0  0  0  0  0  0  0  0  0
  145.0290  156.4510  134.1980 C   0  0  0  0  0  0  0  0  0  0  0  0
  143.8220  157.0570  133.8390 C   0  0  0  0  0  0  0  0  0  0  0  0
  136.9790  159.3499  132.1764 H   0  0  0  0  0  0  0  0  0  0  0  0
  138.2822  159.7393  131.0031 H   0  0  0  0  0  0  0  0  0  0  0  0
  137.5320  158.1072  131.0031 H   0  0  0  0  0  0  0  0  0  0  0  0
  138.6460  157.9047  134.6122 H   0  0  0  0  0  0  0  0  0  0  0  0
  137.4409  157.1991  133.4825 H   0  0  0  0  0  0  0  0  0  0  0  0
  139.1328  156.5958  133.4825 H   0  0  0  0  0  0  0  0  0  0  0  0
  141.1304  158.8303  134.4621 H   0  0  0  0  0  0  0  0  0  0  0  0
  141.3036  157.4295  133.3193 H   0  0  0  0  0  0  0  0  0  0  0  0
  142.6630  159.8550  132.3580 H   0  0  0  0  0  0  0  0  0  0  0  0
  145.1292  160.0810  132.8382 H   0  0  0  0  0  0  0  0  0  0  0  0
  147.2628  158.9397  133.5254 H   0  0  0  0  0  0  0  0  0  0  0  0
  148.2892  156.4982  134.6158 H   0  0  0  0  0  0  0  0  0  0  0  0
  146.0580  153.6540  137.1960 H   0  0  0  0  0  0  0  0  0  0  0  0
  142.6922  152.5717  132.7362 H   0  0  0  0  0  0  0  0  0  0  0  0
  145.7622  153.3717  133.4097 H   0  0  0  0  0  0  0  0  0  0  0  0
  145.7349  152.1931  132.3940 H   0  0  0  0  0  0  0  0  0  0  0  0
  144.4963  155.1495  131.9664 H   0  0  0  0  0  0  0  0  0  0  0  0
  144.2490  154.2800  130.6999 H   0  0  0  0  0  0  0  0  0  0  0  0
  142.8701  156.5143  133.9358 H   0  0  0  0  0  0  0  0  0  0  0  0
  1  2  1  0
  2  3  1  0
  2  4  1  0
  4  5  2  0
  4  6  1  0
  6  7  1  0
  7  8  1  0
  8  9  2  0
  9 10  1  0
 10 11  2  0
 11 12  1  0
 12 13  2  0
 13 14  1  0
 14 15  1  0
 14 16  2  0
 13 17  1  0
 17 18  1  0
 18 19  2  0
 18 20  1  0
 20 21  1  0
 21 22  2  0
 21 23  1  0
 20 24  1  0
 24 25  1  0
 25 26  1  0
 17 27  1  0
 27 28  2  0
 28  8  1  0
 27 11  1  0
 26 24  1  0
  1 29  1  0
  1 30  1  0
  1 31  1  0
  3 32  1  0
  3 33  1  0
  3 34  1  0
  6 35  1  0
  6 36  1  0
  7 37  1  0
  9 38  1  0
 10 39  1  0
 12 40  1  0
 15 41  1  0
 24 42  1  0
 25 43  1  0
 25 44  1  0
 26 45  1  0
 26 46  1  0
 28 47  1  0
M  CHG  2  15  -1  23  -1
M  END
>  <UniqueID>  (2) 
2

>  <SMILES>  (2) 
CN(C)C(=O)CNc1ccc2cc(C([NH-])=O)n(C(=O)N(C(=O)[O-])C3CC3)c2c1

>  <Energy>  (2) 
351.17620979826756

>  <Genealogy>  (2) 
CN(C)C(=O)CNc1ccc2cc(C([NH-])=O)n(C(=O)N(C(=O)[O-])C3CC3)c2c1 (protonated)
CN(C)C(=O)CNc1ccc2cc(C([NH-])=O)n(C(=O)N(C(=O)[O-])C3CC3)c2c1 (3D coordinates assigned)
CN(C)C(=O)CNc1ccc2cc(C([NH-])=O)n(C(=O)N(C(=O)[O-])C3CC3)c2c1 (nonaromatic ring conformer: 351.17620979826756 kcal/mol)

>  <smiles>  (2) 
CN(C)C(=O)CNc1ccc2cc(C(N)=O)n(C(=O)N(C(=O)O)C3CC3)c2c1

>  <score_type>  (2) 
oracle

>  <origin>  (2) 
adg

>  <m_score__min__energy>  (2) 
-7.9699999999999998

>  <m_primary>  (2) 
energy

$$$$
2:0
     RDKit          3D

 39 40  0  0  0  0  0  0  0  0999 V2000
  148.8280  153.9380  132.7770 C   0  0  0  0  0  0  0  0  0  0  0  0
  148.4300  155.0740  132.8400 C   0  0  0  0  0  0  0  0  0  0  0  0
  147.9600  156.4330  132.9200 C   0  0  0  0  0  0  0  0  0  0  0  0
  148.8590  157.4970  132.6820 C   0  0  0  0  0  0  0  0  0  0  0  0
  148.4240  158.8290  132.7780 C   0  0  0  0  0  0  0  0  0  0  0  0
  147.0950  159.0590  133.1230 C   0  0  0  0  0  0  0  0  0  0  0  0
  146.4210  160.2460  133.2780 C   0  0  0  0  0  0  0  0  0  0  0  0
  145.1250  159.8890  133.6340 C   0  0  0  0  0  0  0  0  0  0  0  0
  144.0840  160.8790  133.9730 C   0  0  0  0  0  0  0  0  0  0  0  0
  142.8140  160.4700  134.4850 N   0  0  0  0  0  0  0  0  0  0  0  0
  144.3410  162.1070  133.8690 O   0  0  0  0  0  0  0  0  0  0  0  0
  144.9890  158.5320  133.6800 N   0  0  0  0  0  0  0  0  0  0  0  0
  143.7770  157.7860  133.8910 C   0  0  0  0  0  0  0  0  0  0  0  0
  143.4630  157.4070  135.0520 O   0  0  0  0  0  0  0  0  0  0  0  0
  142.9280  157.5050  132.8150 O   0  0  0  0  0  0  0  0  0  0  0  0
  141.5670  157.1020  132.9640 C   0  0  0  0  0  0  0  0  0  0  0  0
  140.7010  158.2020  133.5250 C   0  0  0  0  0  0  0  0  0  0  0  0
  140.9920  159.3640  133.2890 O   0  0  0  0  0  0  0  0  0  0  0  0
  139.2330  157.8560  134.5140 S   0  0  0  0  0  0  0  0  0  0  0  0
  140.1080  157.7790  136.1230 C   0  0  1  0  0  0  0  0  0  0  0  0
  140.9010  156.4770  136.2390 C   0  0  0  0  0  0  0  0  0  0  0  0
  141.0360  158.9530  136.2590 C   0  0  0  0  0  0  0  0  0  0  0  0
  142.1600  158.8250  136.8120 O   0  0  0  0  0  0  0  0  0  0  0  0
  140.6200  160.2100  135.8420 O   0  0  0  0  0  0  0  0  0  0  0  0
  146.2110  158.0350  133.3680 C   0  0  0  0  0  0  0  0  0  0  0  0
  146.6150  156.6960  133.2530 C   0  0  0  0  0  0  0  0  0  0  0  0
  149.1912  152.9013  132.7195 H   0  0  0  0  0  0  0  0  0  0  0  0
  149.9053  157.2808  132.4201 H   0  0  0  0  0  0  0  0  0  0  0  0
  149.1126  159.6652  132.5864 H   0  0  0  0  0  0  0  0  0  0  0  0
  146.8212  161.2623  133.1482 H   0  0  0  0  0  0  0  0  0  0  0  0
  142.6350  159.4740  134.7450 H   0  0  0  0  0  0  0  0  0  0  0  0
  142.0750  161.1830  134.6810 H   0  0  0  0  0  0  0  0  0  0  0  0
  141.1746  156.8111  131.9784 H   0  0  0  0  0  0  0  0  0  0  0  0
  141.5415  156.2604  133.6718 H   0  0  0  0  0  0  0  0  0  0  0  0
  139.3608  157.8111  136.9296 H   0  0  0  0  0  0  0  0  0  0  0  0
  141.0503  156.2320  137.3009 H   0  0  0  0  0  0  0  0  0  0  0  0
  140.3446  155.6640  135.7498 H   0  0  0  0  0  0  0  0  0  0  0  0
  141.8787  156.5983  135.7498 H   0  0  0  0  0  0  0  0  0  0  0  0
  145.9025  155.8744  133.4180 H   0  0  0  0  0  0  0  0  0  0  0  0
  1  2  3  0
  2  3  1  0
  3  4  2  0
  4  5  1  0
  5  6  2  0
  6  7  1  0
  7  8  2  0
  8  9  1  0
  9 10  1  0
  9 11  2  0
  8 12  1  0
 12 13  1  0
 13 14  2  0
 13 15  1  0
 15 16  1  0
 16 17  1  0
 17 18  2  0
 17 19  1  0
 19 20  1  0
 20 21  1  0
 20 22  1  0
 22 23  2  0
 22 24  1  0
 12 25  1  0
 25 26  2  0
 26  3  1  0
 25  6  1  0
  1 27  1  0
  4 28  1  0
  5 29  1  0
  7 30  1  0
 10 31  1  0
 10 32  1  0
 16 33  1  0
 16 34  1  0
 20 35  1  1
 21 36  1  0
 21 37  1  0
 21 38  1  0
 26 39  1  0
M  CHG  1  24  -1
M  END
>  <UniqueID>  (3) 
3

>  <SMILES>  (3) 
C#Cc1ccc2cc(C(N)=O)n(C(=O)OCC(=O)S[C@@H](C)C(=O)[O-])c2c1

>  <Energy>  (3) 
67.92349626608457

>  <Genealogy>  (3) 
C#Cc1ccc2cc(C(N)=O)n(C(=O)OCC(=O)S[C@@H](C)C(=O)[O-])c2c1 (protonated)
C#Cc1ccc2cc(C(N)=O)n(C(=O)OCC(=O)S[C@@H](C)C(=O)[O-])c2c1 (3D coordinates assigned)
C#Cc1ccc2cc(C(N)=O)n(C(=O)OCC(=O)S[C@@H](C)C(=O)[O-])c2c1 (optimized conformer: 67.92349626608457 kcal/mol)

>  <smiles>  (3) 
C#Cc1ccc2cc(C(N)=O)n(C(=O)OCC(=O)S[C@@H](C)C(=O)O)c2c1

>  <score_type>  (3) 
oracle

>  <origin>  (3) 
adg

>  <m_score__min__energy>  (3) 
-7.5899999999999999

>  <m_primary>  (3) 
energy

$$$$
3:0
     RDKit          3D

 49 51  0  0  0  0  0  0  0  0999 V2000
  146.8710  153.3800  133.5760 N   0  0  0  0  0  0  0  0  0  0  0  0
  147.8540  154.2560  133.0230 C   0  0  0  0  0  0  0  0  0  0  0  0
  148.9290  153.7720  132.5780 O   0  0  0  0  0  0  0  0  0  0  0  0
  147.6220  155.7090  132.9290 C   0  0  0  0  0  0  0  0  0  0  0  0
  148.6240  156.6330  132.6390 C   0  0  0  0  0  0  0  0  0  0  0  0
  148.0400  157.8710  132.8020 C   0  0  0  0  0  0  0  0  0  0  0  0
  148.5890  159.1450  132.6930 C   0  0  0  0  0  0  0  0  0  0  0  0
  147.7630  160.2450  132.9870 C   0  0  0  0  0  0  0  0  0  0  0  0
  146.4140  160.0510  133.3840 C   0  0  0  0  0  0  0  0  0  0  0  0
  145.5490  161.2260  133.7370 C   0  0  0  0  0  0  0  0  0  0  0  0
  144.5010  160.8160  134.5420 F   0  0  0  0  0  0  0  0  0  0  0  0
  146.3030  162.1670  134.4150 F   0  0  0  0  0  0  0  0  0  0  0  0
  145.8980  158.7420  133.4910 C   0  0  0  0  0  0  0  0  0  0  0  0
  146.7420  157.6700  133.1860 C   0  0  0  0  0  0  0  0  0  0  0  0
  146.4700  156.3520  133.2690 N   0  0  0  0  0  0  0  0  0  0  0  0
  145.2700  155.7850  133.8150 C   0  0  0  0  0  0  0  0  0  0  0  0
  145.2890  155.2860  134.9710 O   0  0  0  0  0  0  0  0  0  0  0  0
  144.0800  155.6780  133.0190 N   0  0  0  0  0  0  0  0  0  0  0  0
  143.1190  156.6610  133.1760 O   0  0  0  0  0  0  0  0  0  0  0  0
  142.7840  157.1960  134.4260 C   0  0  0  0  0  0  0  0  0  0  0  0
  143.0020  158.4120  134.6790 O   0  0  0  0  0  0  0  0  0  0  0  0
  142.0850  156.3480  135.4440 C   0  0  0  0  0  0  0  0  0  0  0  0
  142.4380  154.9980  135.3010 O   0  0  0  0  0  0  0  0  0  0  0  0
  143.9740  154.6930  131.9690 C   0  0  0  0  0  0  0  0  0  0  0  0
  144.6160  154.8380  130.8920 O   0  0  0  0  0  0  0  0  0  0  0  0
  143.0730  153.5030  132.1170 C   0  0  0  0  0  0  0  0  0  0  0  0
  143.7920  152.3180  133.2390 S   0  0  0  0  0  0  0  0  0  0  0  0
  144.0360  152.9830  134.5640 O   0  0  0  0  0  0  0  0  0  0  0  0
  145.1030  151.8350  132.6870 O   0  0  0  0  0  0  0  0  0  0  0  0
  142.6830  150.9190  133.4070 C   0  0  0  0  0  0  0  0  0  0  0  0
  141.4930  150.9080  132.4630 C   0  0  0  0  0  0  0  0  0  0  0  0
  142.6750  149.9830  132.2090 C   0  0  0  0  0  0  0  0  0  0  0  0
  145.8660  153.6530  133.5840 H   0  0  0  0  0  0  0  0  0  0  0  0
  147.1170  152.3910  133.7960 H   0  0  0  0  0  0  0  0  0  0  0  0
  149.6616  156.4196  132.3427 H   0  0  0  0  0  0  0  0  0  0  0  0
  149.6358  159.2874  132.3866 H   0  0  0  0  0  0  0  0  0  0  0  0
  148.1663  161.2654  132.9085 H   0  0  0  0  0  0  0  0  0  0  0  0
  145.1471  161.6666  132.8127 H   0  0  0  0  0  0  0  0  0  0  0  0
  144.8584  158.5695  133.8063 H   0  0  0  0  0  0  0  0  0  0  0  0
  142.3671  156.6889  136.4511 H   0  0  0  0  0  0  0  0  0  0  0  0
  140.9994  156.4443  135.2948 H   0  0  0  0  0  0  0  0  0  0  0  0
  143.1850  154.9670  134.6490 H   0  0  0  0  0  0  0  0  0  0  0  0
  142.0998  153.8314  132.5108 H   0  0  0  0  0  0  0  0  0  0  0  0
  142.9410  153.0296  131.1329 H   0  0  0  0  0  0  0  0  0  0  0  0
  142.8061  150.8052  134.4942 H   0  0  0  0  0  0  0  0  0  0  0  0
  140.5306  150.4920  132.7959 H   0  0  0  0  0  0  0  0  0  0  0  0
  140.9602  151.6691  131.8740 H   0  0  0  0  0  0  0  0  0  0  0  0
  142.5672  148.8986  132.3587 H   0  0  0  0  0  0  0  0  0  0  0  0
  143.3508  149.7984  131.3609 H   0  0  0  0  0  0  0  0  0  0  0  0
  1  2  1  0
  2  3  2  0
  2  4  1  0
  4  5  2  0
  5  6  1  0
  6  7  2  0
  7  8  1  0
  8  9  2  0
  9 10  1  0
 10 11  1  0
 10 12  1  0
  9 13  1  0
 13 14  2  0
 14 15  1  0
 15 16  1  0
 16 17  2  0
 16 18  1  0
 18 19  1  0
 19 20  1  0
 20 21  2  0
 20 22  1  0
 22 23  1  0
 18 24  1  0
 24 25  2  0
 24 26  1  0
 26 27  1  0
 27 28  2  0
 27 29  2  0
 27 30  1  0
 30 31  1  0
 31 32  1  0
 15  4  1  0
 32 30  1  0
 14  6  1  0
  1 33  1  0
  1 34  1  0
  5 35  1  0
  7 36  1  0
  8 37  1  0
 10 38  1  0
 13 39  1  0
 22 40  1  0
 22 41  1  0
 23 42  1  0
 26 43  1  0
 26 44  1  0
 30 45  1  0
 31 46  1  0
 31 47  1  0
 32 48  1  0
 32 49  1  0
M  END
>  <UniqueID>  (4) 
4

>  <SMILES>  (4) 
NC(=O)c1cc2ccc(C(F)F)cc2n1C(=O)N(OC(=O)CO)C(=O)CS(=O)(=O)C1CC1

>  <Energy>  (4) 
354.97465853822337

>  <Genealogy>  (4) 
NC(=O)c1cc2ccc(C(F)F)cc2n1C(=O)N(OC(=O)CO)C(=O)CS(=O)(=O)C1CC1 (3D coordinates assigned)
NC(=O)c1cc2ccc(C(F)F)cc2n1C(=O)N(OC(=O)CO)C(=O)CS(=O)(=O)C1CC1 (nonaromatic ring conformer: 354.97465853822337 kcal/mol)

>  <smiles>  (4) 
NC(=O)c1cc2ccc(C(F)F)cc2n1C(=O)N(OC(=O)CO)C(=O)CS(=O)(=O)C1CC1

>  <score_type>  (4) 
oracle

>  <origin>  (4) 
adg

>  <m_score__min__energy>  (4) 
-7.5999999999999996

>  <m_primary>  (4) 
energy

$$$$
4:0
     RDKit          3D

 39 40  0  0  0  0  0  0  0  0999 V2000
  144.4650  161.0160  133.9390 C   0  0  0  0  0  0  0  0  0  0  0  0
  145.3260  160.2090  133.6970 C   0  0  0  0  0  0  0  0  0  0  0  0
  146.3540  159.2420  133.4080 C   0  0  0  0  0  0  0  0  0  0  0  0
  147.6110  159.6760  132.9270 C   0  0  0  0  0  0  0  0  0  0  0  0
  148.6190  158.7420  132.6300 C   0  0  0  0  0  0  0  0  0  0  0  0
  148.3390  157.3930  132.8320 C   0  0  0  0  0  0  0  0  0  0  0  0
  149.1190  156.2830  132.6030 C   0  0  0  0  0  0  0  0  0  0  0  0
  148.3300  155.1940  132.9730 C   0  0  0  0  0  0  0  0  0  0  0  0
  148.8190  153.8000  132.9660 C   0  0  0  0  0  0  0  0  0  0  0  0
  148.1080  152.7690  133.6480 N   0  0  0  0  0  0  0  0  0  0  0  0
  149.9050  153.5220  132.3910 O   0  0  0  0  0  0  0  0  0  0  0  0
  147.1070  155.6150  133.4040 N   0  0  0  0  0  0  0  0  0  0  0  0
  145.9830  154.8090  133.7930 C   0  0  0  0  0  0  0  0  0  0  0  0
  145.0790  154.5490  132.9530 O   0  0  0  0  0  0  0  0  0  0  0  0
  145.8940  154.3420  135.1120 O   0  0  0  0  0  0  0  0  0  0  0  0
  146.9770  154.1740  135.9840 C   0  0  0  0  0  0  0  0  0  0  0  0
  147.8750  155.0550  136.0730 O   0  0  0  0  0  0  0  0  0  0  0  0
  147.0360  153.0040  136.7530 O   0  0  0  0  0  0  0  0  0  0  0  0
  148.1540  152.5530  137.5320 C   0  0  0  0  0  0  0  0  0  0  0  0
  149.2310  152.0750  136.5470 C   0  0  0  0  0  0  0  0  0  0  0  0
  148.7290  153.7080  138.3750 C   0  0  0  0  0  0  0  0  0  0  0  0
  147.7470  151.3730  138.4350 C   0  0  0  0  0  0  0  0  0  0  0  0
  147.1290  156.9620  133.3150 C   0  0  0  0  0  0  0  0  0  0  0  0
  146.1010  157.8700  133.6020 C   0  0  0  0  0  0  0  0  0  0  0  0
  143.6788  161.7529  134.1600 H   0  0  0  0  0  0  0  0  0  0  0  0
  147.8011  160.7500  132.7845 H   0  0  0  0  0  0  0  0  0  0  0  0
  149.5987  159.0669  132.2498 H   0  0  0  0  0  0  0  0  0  0  0  0
  150.1466  156.2594  132.2113 H   0  0  0  0  0  0  0  0  0  0  0  0
  147.5100  152.9850  134.4760 H   0  0  0  0  0  0  0  0  0  0  0  0
  150.0961  151.6910  137.1075 H   0  0  0  0  0  0  0  0  0  0  0  0
  148.8198  151.2749  135.9140 H   0  0  0  0  0  0  0  0  0  0  0  0
  149.5485  152.9167  135.9140 H   0  0  0  0  0  0  0  0  0  0  0  0
  148.6130  153.4750  139.4438 H   0  0  0  0  0  0  0  0  0  0  0  0
  149.7962  153.8364  138.1415 H   0  0  0  0  0  0  0  0  0  0  0  0
  148.1882  154.6370  138.1415 H   0  0  0  0  0  0  0  0  0  0  0  0
  147.8483  151.6668  139.4902 H   0  0  0  0  0  0  0  0  0  0  0  0
  146.7020  151.0977  138.2298 H   0  0  0  0  0  0  0  0  0  0  0  0
  148.4001  150.5120  138.2298 H   0  0  0  0  0  0  0  0  0  0  0  0
  145.1242  157.5212  133.9684 H   0  0  0  0  0  0  0  0  0  0  0  0
  1  2  3  0
  2  3  1  0
  3  4  2  0
  4  5  1  0
  5  6  2  0
  6  7  1  0
  7  8  2  0
  8  9  1  0
  9 10  1  0
  9 11  2  0
  8 12  1  0
 12 13  1  0
 13 14  2  0
 13 15  1  0
 15 16  1  0
 16 17  2  0
 16 18  1  0
 18 19  1  0
 19 20  1  0
 19 21  1  0
 19 22  1  0
 12 23  1  0
 23 24  2  0
 24  3  1  0
 23  6  1  0
  1 25  1  0
  4 26  1  0
  5 27  1  0
  7 28  1  0
 10 29  1  0
 20 30  1  0
 20 31  1  0
 20 32  1  0
 21 33  1  0
 21 34  1  0
 21 35  1  0
 22 36  1  0
 22 37  1  0
 22 38  1  0
 24 39  1  0
M  CHG  1  10  -1
M  END
>  <UniqueID>  (5) 
5

>  <SMILES>  (5) 
C#Cc1ccc2cc(C([NH-])=O)n(C(=O)OC(=O)OC(C)(C)C)c2c1

>  <Energy>  (5) 
73.40779965814191

>  <Genealogy>  (5) 
C#Cc1ccc2cc(C([NH-])=O)n(C(=O)OC(=O)OC(C)(C)C)c2c1 (protonated)
C#Cc1ccc2cc(C([NH-])=O)n(C(=O)OC(=O)OC(C)(C)C)c2c1 (3D coordinates assigned)
C#Cc1ccc2cc(C([NH-])=O)n(C(=O)OC(=O)OC(C)(C)C)c2c1 (optimized conformer: 73.40779965814191 kcal/mol)

>  <smiles>  (5) 
C#Cc1ccc2cc(C(N)=O)n(C(=O)OC(=O)OC(C)(C)C)c2c1

>  <score_type>  (5) 
oracle

>  <origin>  (5) 
adg

>  <m_score__min__energy>  (5) 
-7.29

>  <m_primary>  (5) 
energy

$$$$
5:0
     RDKit          3D

 45 46  0  0  0  0  0  0  0  0999 V2000
  141.4700  158.8530  135.1310 H   0  0  0  0  0  0  0  0  0  0  0  0
  141.7230  159.8650  135.1810 N   0  0  0  0  0  0  0  0  0  0  0  0
  142.4520  160.4910  134.1280 C   0  0  0  0  0  0  0  0  0  0  0  0
  141.9420  161.4750  133.5260 O   0  0  0  0  0  0  0  0  0  0  0  0
  143.8150  160.0440  133.7750 C   0  0  0  0  0  0  0  0  0  0  0  0
  144.9080  160.9060  133.7090 C   0  0  0  0  0  0  0  0  0  0  0  0
  144.9045  161.9986  133.8362 H   0  0  0  0  0  0  0  0  0  0  0  0
  145.9920  160.1000  133.4510 C   0  0  0  0  0  0  0  0  0  0  0  0
  147.3340  160.4310  133.2860 C   0  0  0  0  0  0  0  0  0  0  0  0
  147.6758  161.4729  133.3736 H   0  0  0  0  0  0  0  0  0  0  0  0
  148.2390  159.3930  133.0040 C   0  0  0  0  0  0  0  0  0  0  0  0
  149.3077  159.6217  132.8790 H   0  0  0  0  0  0  0  0  0  0  0  0
  147.7890  158.0550  132.8790 C   0  0  0  0  0  0  0  0  0  0  0  0
  148.7230  156.9960  132.5920 N   0  0  0  0  0  0  0  0  0  0  0  0
  149.6300  157.1680  133.0850 H   0  0  0  0  0  0  0  0  0  0  0  0
  148.9170  156.9610  131.5650 H   0  0  0  0  0  0  0  0  0  0  0  0
  148.1780  155.7080  133.0270 C   0  0  0  0  0  0  0  0  0  0  0  0
  148.1616  155.6692  134.1262 H   0  0  0  0  0  0  0  0  0  0  0  0
  147.1544  155.5937  132.6407 H   0  0  0  0  0  0  0  0  0  0  0  0
  148.8087  154.8937  132.6407 H   0  0  0  0  0  0  0  0  0  0  0  0
  146.4190  157.7570  133.0700 C   0  0  0  0  0  0  0  0  0  0  0  0
  146.0511  156.7235  132.9891 H   0  0  0  0  0  0  0  0  0  0  0  0
  145.5440  158.8070  133.3640 C   0  0  0  0  0  0  0  0  0  0  0  0
  144.2060  158.7560  133.5560 N   0  0  0  0  0  0  0  0  0  0  0  0
  143.3750  157.5880  133.4640 C   0  0  0  0  0  0  0  0  0  0  0  0
  143.2810  156.9690  132.3690 O   0  0  0  0  0  0  0  0  0  0  0  0
  142.6770  157.1360  134.5910 O   0  0  0  0  0  0  0  0  0  0  0  0
  141.8280  155.9900  134.5720 C   0  0  0  0  0  0  0  0  0  0  0  0
  141.7450  155.5901  135.5934 H   0  0  0  0  0  0  0  0  0  0  0  0
  142.2698  155.2453  133.8936 H   0  0  0  0  0  0  0  0  0  0  0  0
  140.4410  156.3320  134.0630 C   0  0  0  0  0  0  0  0  0  0  0  0
  139.8680  157.6190  134.3440 N   0  0  0  0  0  0  0  0  0  0  0  0
  139.5570  158.5290  133.4670 C   0  0  0  0  0  0  0  0  0  0  0  0
  139.2076  159.5068  133.8299 H   0  0  0  0  0  0  0  0  0  0  0  0
  139.6500  158.3140  132.0080 C   0  0  0  0  0  0  0  0  0  0  0  0
  139.8782  157.3096  131.6219 H   0  0  0  0  0  0  0  0  0  0  0  0
  139.4620  159.3160  131.1550 C   0  0  0  0  0  0  0  0  0  0  0  0
  139.5351  159.1374  130.0721 H   0  0  0  0  0  0  0  0  0  0  0  0
  139.2333  160.3237  131.5321 H   0  0  0  0  0  0  0  0  0  0  0  0
  139.7050  155.4560  133.3620 C   0  0  0  0  0  0  0  0  0  0  0  0
  138.6943  155.7592  133.0513 H   0  0  0  0  0  0  0  0  0  0  0  0
  140.1820  154.0870  132.9780 C   0  0  0  0  0  0  0  0  0  0  0  0
  140.3860  153.5015  133.8866 H   0  0  0  0  0  0  0  0  0  0  0  0
  139.4068  153.5822  132.3829 H   0  0  0  0  0  0  0  0  0  0  0  0
  141.1031  154.1732  132.3829 H   0  0  0  0  0  0  0  0  0  0  0  0
  1  2  1  0
  2  3  1  0
  3  4  2  0
  3  5  1  0
  5  6  2  0
  6  7  1  0
  6  8  1  0
  8  9  2  0
  9 10  1  0
  9 11  1  0
 11 12  1  0
 11 13  2  0
 13 14  1  0
 14 15  1  0
 14 16  1  0
 14 17  1  0
 17 18  1  0
 17 19  1  0
 17 20  1  0
 13 21  1  0
 21 22  1  0
 21 23  2  0
 23 24  1  0
 24 25  1  0
 25 26  2  0
 25 27  1  0
 27 28  1  0
 28 29  1  0
 28 30  1  0
 28 31  1  0
 31 32  1  0
 32 33  2  0
 33 34  1  0
 33 35  1  0
 35 36  1  0
 35 37  2  0
 37 38  1  0
 37 39  1  0
 31 40  2  0
 40 41  1  0
 40 42  1  0
 42 43  1  0
 42 44  1  0
 42 45  1  0
 24  5  1  0
 23  8  1  0
M  CHG  2   2  -1  14   1
M  END
>  <UniqueID>  (6) 
6

>  <SMILES>  (6) 
C=C/C=N\C(=C\C)COC(=O)n1c(C([NH-])=O)cc2ccc([NH2+]C)cc21

>  <Energy>  (6) 
84.36380085837497

>  <Genealogy>  (6) 
C=C/C=N\C(=C\C)COC(=O)n1c(C([NH-])=O)cc2ccc([NH2+]C)cc21 (protonated)
C=C/C=N\C(=C\C)COC(=O)n1c(C([NH-])=O)cc2ccc([NH2+]C)cc21 (cis-trans isomerization)
C=C/C=N\C(=C\C)COC(=O)n1c(C([NH-])=O)cc2ccc([NH2+]C)cc21 (3D coordinates assigned)
C=C/C=N\C(=C\C)COC(=O)n1c(C([NH-])=O)cc2ccc([NH2+]C)cc21 (optimized conformer: 84.36380085837497 kcal/mol)

>  <smiles>  (6) 
C=C/C=N\C(=C\C)COC(=O)n1c(C(N)=O)cc2ccc(NC)cc21

>  <score_type>  (6) 
oracle

>  <origin>  (6) 
adg

>  <m_score__min__energy>  (6) 
-7.3099999999999996

>  <m_primary>  (6) 
energy

$$$$
6:0
     RDKit          3D

 45 46  0  0  0  0  0  0  0  0999 V2000
  140.5640  156.3400  134.0950 C   0  0  0  0  0  0  0  0  0  0  0  0
  141.0050  157.2740  135.1470 N   0  0  0  0  0  0  0  0  0  0  0  0
  140.9590  156.5950  136.4510 C   0  0  0  0  0  0  0  0  0  0  0  0
  140.1540  158.4830  135.1810 C   0  0  0  0  0  0  0  0  0  0  0  0
  140.9740  159.7650  134.9760 C   0  0  0  0  0  0  0  0  0  0  0  0
  142.3320  159.4590  134.5270 N   0  0  0  0  0  0  0  0  0  0  0  0
  143.1820  160.4320  133.9040 C   0  0  0  0  0  0  0  0  0  0  0  0
  142.7850  161.6190  133.7490 O   0  0  0  0  0  0  0  0  0  0  0  0
  144.5610  160.0530  133.4650 C   0  0  0  0  0  0  0  0  0  0  0  0
  144.5980  158.6040  133.0800 C   0  0  0  0  0  0  0  0  0  0  0  0
  143.5480  158.0430  132.6670 O   0  0  0  0  0  0  0  0  0  0  0  0
  145.7970  157.8320  133.2510 N   0  0  0  0  0  0  0  0  0  0  0  0
  145.9430  156.6410  133.8980 C   0  0  0  0  0  0  0  0  0  0  0  0
  144.9070  155.9630  134.7030 C   0  0  0  0  0  0  0  0  0  0  0  0
  143.7670  156.6910  135.1540 N   0  0  0  0  0  0  0  0  0  0  0  0
  145.0030  154.7360  134.9740 O   0  0  0  0  0  0  0  0  0  0  0  0
  147.2520  156.1780  133.7740 C   0  0  0  0  0  0  0  0  0  0  0  0
  147.9100  157.1370  133.0370 C   0  0  0  0  0  0  0  0  0  0  0  0
  149.2320  157.1870  132.6080 C   0  0  0  0  0  0  0  0  0  0  0  0
  149.6360  158.2960  131.8470 C   0  0  0  0  0  0  0  0  0  0  0  0
  148.7220  159.3410  131.5420 C   0  0  0  0  0  0  0  0  0  0  0  0
  149.1480  160.5110  130.6940 C   0  0  0  0  0  0  0  0  0  0  0  0
  148.8800  161.7000  131.3480 F   0  0  0  0  0  0  0  0  0  0  0  0
  148.4550  160.4840  129.4980 F   0  0  0  0  0  0  0  0  0  0  0  0
  150.5060  160.4640  130.4260 F   0  0  0  0  0  0  0  0  0  0  0  0
  147.3800  159.2380  131.9770 C   0  0  0  0  0  0  0  0  0  0  0  0
  147.0100  158.1260  132.7400 C   0  0  0  0  0  0  0  0  0  0  0  0
  140.1383  155.4385  134.5599 H   0  0  0  0  0  0  0  0  0  0  0  0
  139.8001  156.8258  133.4701 H   0  0  0  0  0  0  0  0  0  0  0  0
  141.4245  156.0588  133.4701 H   0  0  0  0  0  0  0  0  0  0  0  0
  141.0097  157.3430  137.2559 H   0  0  0  0  0  0  0  0  0  0  0  0
  140.0204  156.0278  136.5361 H   0  0  0  0  0  0  0  0  0  0  0  0
  141.8125  155.9064  136.5361 H   0  0  0  0  0  0  0  0  0  0  0  0
  139.4010  158.4107  134.3824 H   0  0  0  0  0  0  0  0  0  0  0  0
  139.6774  158.5373  136.1709 H   0  0  0  0  0  0  0  0  0  0  0  0
  140.4784  160.3906  134.2190 H   0  0  0  0  0  0  0  0  0  0  0  0
  141.0367  160.2955  135.9376 H   0  0  0  0  0  0  0  0  0  0  0  0
  142.6730  158.4760  134.6210 H   0  0  0  0  0  0  0  0  0  0  0  0
  144.8491  160.6672  132.5991 H   0  0  0  0  0  0  0  0  0  0  0  0
  145.2631  160.2237  134.2944 H   0  0  0  0  0  0  0  0  0  0  0  0
  143.0420  157.0240  134.4800 H   0  0  0  0  0  0  0  0  0  0  0  0
  147.6704  155.2447  134.1789 H   0  0  0  0  0  0  0  0  0  0  0  0
  149.9396  156.3825  132.8572 H   0  0  0  0  0  0  0  0  0  0  0  0
  150.6721  158.3567  131.4826 H   0  0  0  0  0  0  0  0  0  0  0  0
  146.6444  160.0147  131.7210 H   0  0  0  0  0  0  0  0  0  0  0  0
  1  2  1  0
  2  3  1  0
  2  4  1  0
  4  5  1  0
  5  6  1  0
  6  7  1  0
  7  8  2  0
  7  9  1  0
  9 10  1  0
 10 11  2  0
 10 12  1  0
 12 13  1  0
 13 14  1  0
 14 15  1  0
 14 16  2  0
 13 17  2  0
 17 18  1  0
 18 19  2  0
 19 20  1  0
 20 21  2  0
 21 22  1  0
 22 23  1  0
 22 24  1  0
 22 25  1  0
 21 26  1  0
 26 27  2  0
 27 12  1  0
 27 18  1  0
  1 28  1  0
  1 29  1  0
  1 30  1  0
  3 31  1  0
  3 32  1  0
  3 33  1  0
  4 34  1  0
  4 35  1  0
  5 36  1  0
  5 37  1  0
  6 38  1  0
  9 39  1  0
  9 40  1  0
 15 41  1  0
 17 42  1  0
 19 43  1  0
 20 44  1  0
 26 45  1  0
M  CHG  1  15  -1
M  END
>  <UniqueID>  (7) 
7

>  <SMILES>  (7) 
CN(C)CCNC(=O)CC(=O)n1c(C([NH-])=O)cc2ccc(C(F)(F)F)cc21

>  <Energy>  (7) 
77.12312202486527

>  <Genealogy>  (7) 
CN(C)CCNC(=O)CC(=O)n1c(C([NH-])=O)cc2ccc(C(F)(F)F)cc21 (protonated)
CN(C)CCNC(=O)CC(=O)n1c(C([NH-])=O)cc2ccc(C(F)(F)F)cc21 (3D coordinates assigned)
CN(C)CCNC(=O)CC(=O)n1c(C([NH-])=O)cc2ccc(C(F)(F)F)cc21 (optimized conformer: 77.12312202486527 kcal/mol)

>  <smiles>  (7) 
CN(C)CCNC(=O)CC(=O)n1c(C(N)=O)cc2ccc(C(F)(F)F)cc21

>  <score_type>  (7) 
oracle

>  <origin>  (7) 
adg

>  <m_score__min__energy>  (7) 
-7.0700000000000003

>  <m_primary>  (7) 
energy

$$$$
7:0
     RDKit          3D

 31 32  0  0  0  0  0  0  0  0999 V2000
  139.1110  156.4030  132.4600 N   0  0  0  0  0  0  0  0  0  0  0  0
  140.3830  156.0320  132.9910 C   0  0  0  0  0  0  0  0  0  0  0  0
  140.5750  154.8450  133.3660 O   0  0  0  0  0  0  0  0  0  0  0  0
  141.4580  157.0300  133.1710 C   0  0  0  0  0  0  0  0  0  0  0  0
  142.8120  156.7200  133.0930 C   0  0  0  0  0  0  0  0  0  0  0  0
  143.4700  157.8930  133.3800 C   0  0  0  0  0  0  0  0  0  0  0  0
  144.8350  158.1630  133.4290 C   0  0  0  0  0  0  0  0  0  0  0  0
  145.2370  159.4790  133.7140 C   0  0  0  0  0  0  0  0  0  0  0  0
  144.2740  160.4950  133.9340 C   0  0  0  0  0  0  0  0  0  0  0  0
  144.7080  161.9060  134.2140 C   0  0  0  0  0  0  0  0  0  0  0  0
  144.0610  162.7740  133.3530 F   0  0  0  0  0  0  0  0  0  0  0  0
  146.0750  162.0170  134.0330 F   0  0  0  0  0  0  0  0  0  0  0  0
  142.8990  160.1850  133.8690 C   0  0  0  0  0  0  0  0  0  0  0  0
  142.5250  158.8620  133.6070 C   0  0  0  0  0  0  0  0  0  0  0  0
  141.2810  158.3470  133.4790 N   0  0  0  0  0  0  0  0  0  0  0  0
  140.0430  159.0730  133.5400 C   0  0  0  0  0  0  0  0  0  0  0  0
  139.0470  158.5730  134.1320 O   0  0  0  0  0  0  0  0  0  0  0  0
  139.9430  160.3310  132.9390 O   0  0  0  0  0  0  0  0  0  0  0  0
  139.0970  160.5880  131.8260 C   0  0  0  0  0  0  0  0  0  0  0  0
  138.5710  159.2940  131.3010 C   0  0  0  0  0  0  0  0  0  0  0  0
  139.2670  158.5990  130.5150 O   0  0  0  0  0  0  0  0  0  0  0  0
  137.3340  158.8250  131.7250 O   0  0  0  0  0  0  0  0  0  0  0  0
  138.3770  155.6770  132.3050 H   0  0  0  0  0  0  0  0  0  0  0  0
  138.8630  157.4040  132.3010 H   0  0  0  0  0  0  0  0  0  0  0  0
  143.2606  155.7447  132.8530 H   0  0  0  0  0  0  0  0  0  0  0  0
  145.5763  157.3702  133.2500 H   0  0  0  0  0  0  0  0  0  0  0  0
  146.3084  159.7226  133.7668 H   0  0  0  0  0  0  0  0  0  0  0  0
  144.4520  162.1617  135.2528 H   0  0  0  0  0  0  0  0  0  0  0  0
  142.1385  160.9652  134.0208 H   0  0  0  0  0  0  0  0  0  0  0  0
  138.2579  161.2256  132.1411 H   0  0  0  0  0  0  0  0  0  0  0  0
  139.6678  161.1019  131.0385 H   0  0  0  0  0  0  0  0  0  0  0  0
  1  2  1  0
  2  3  2  0
  2  4  1  0
  4  5  2  0
  5  6  1  0
  6  7  2  0
  7  8  1  0
  8  9  2  0
  9 10  1  0
 10 11  1  0
 10 12  1  0
  9 13  1  0
 13 14  2  0
 14 15  1  0
 15 16  1  0
 16 17  2  0
 16 18  1  0
 18 19  1  0
 19 20  1  0
 20 21  2  0
 20 22  1  0
 15  4  1  0
 14  6  1  0
  1 23  1  0
  1 24  1  0
  5 25  1  0
  7 26  1  0
  8 27  1  0
 10 28  1  0
 13 29  1  0
 19 30  1  0
 19 31  1  0
M  CHG  1  22  -1
M  END
>  <UniqueID>  (8) 
8

>  <SMILES>  (8) 
NC(=O)c1cc2ccc(C(F)F)cc2n1C(=O)OCC(=O)[O-]

>  <Energy>  (8) 
67.18293754627084

>  <Genealogy>  (8) 
NC(=O)c1cc2ccc(C(F)F)cc2n1C(=O)OCC(=O)[O-] (protonated)
NC(=O)c1cc2ccc(C(F)F)cc2n1C(=O)OCC(=O)[O-] (3D coordinates assigned)
NC(=O)c1cc2ccc(C(F)F)cc2n1C(=O)OCC(=O)[O-] (optimized conformer: 67.18293754627084 kcal/mol)

>  <smiles>  (8) 
NC(=O)c1cc2ccc(C(F)F)cc2n1C(=O)OCC(=O)O

>  <score_type>  (8) 
oracle

>  <origin>  (8) 
adg

>  <m_score__min__energy>  (8) 
-5.8200000000000003

>  <m_primary>  (8) 
energy

$$$$
8:0
     RDKit          3D

 42 43  0  0  0  0  0  0  0  0999 V2000
  142.1060  156.4720  136.2170 C   0  0  0  0  0  0  0  0  0  0  0  0
  142.1670  155.0490  135.8780 N   0  0  0  0  0  0  0  0  0  0  0  0
  142.3900  154.6410  134.4820 C   0  0  0  0  0  0  0  0  0  0  0  0
  143.8760  154.3470  134.2170 C   0  0  0  0  0  0  0  0  0  0  0  0
  144.3820  155.1010  133.0560 N   0  0  0  0  0  0  0  0  0  0  0  0
  144.3540  154.4770  131.7280 C   0  0  0  0  0  0  0  0  0  0  0  0
  144.9490  156.4240  133.2100 C   0  0  0  0  0  0  0  0  0  0  0  0
  146.3330  156.6510  132.9880 C   0  0  0  0  0  0  0  0  0  0  0  0
  146.8770  157.9430  133.0790 C   0  0  0  0  0  0  0  0  0  0  0  0
  146.0210  158.9900  133.4040 C   0  0  0  0  0  0  0  0  0  0  0  0
  146.2740  160.3360  133.5130 C   0  0  0  0  0  0  0  0  0  0  0  0
  145.0500  160.9190  133.8310 C   0  0  0  0  0  0  0  0  0  0  0  0
  144.8840  162.3590  134.1150 C   0  0  0  0  0  0  0  0  0  0  0  0
  143.9530  163.1300  133.3580 N   0  0  0  0  0  0  0  0  0  0  0  0
  145.5850  162.9290  134.9940 O   0  0  0  0  0  0  0  0  0  0  0  0
  144.0740  159.9690  133.9100 N   0  0  0  0  0  0  0  0  0  0  0  0
  142.6690  160.1620  134.1420 C   0  0  0  0  0  0  0  0  0  0  0  0
  141.9830  160.8580  133.3490 O   0  0  0  0  0  0  0  0  0  0  0  0
  142.0470  159.5630  135.2310 O   0  0  0  0  0  0  0  0  0  0  0  0
  144.6870  158.7920  133.6500 C   0  0  0  0  0  0  0  0  0  0  0  0
  144.1170  157.5190  133.5520 C   0  0  0  0  0  0  0  0  0  0  0  0
  141.9430  154.0730  136.9140 C   0  0  0  0  0  0  0  0  0  0  0  0
  141.8410  154.4390  138.1170 O   0  0  0  0  0  0  0  0  0  0  0  0
  141.8330  152.7160  136.5730 O   0  0  0  0  0  0  0  0  0  0  0  0
  141.2480  151.7330  137.3800 C   0  0  0  0  0  0  0  0  0  0  0  0
  140.6140  150.7630  136.8870 O   0  0  0  0  0  0  0  0  0  0  0  0
  142.1010  156.5885  137.3108 H   0  0  0  0  0  0  0  0  0  0  0  0
  142.9829  156.9868  135.7974 H   0  0  0  0  0  0  0  0  0  0  0  0
  141.1883  156.9099  135.7974 H   0  0  0  0  0  0  0  0  0  0  0  0
  141.8028  153.7341  134.2755 H   0  0  0  0  0  0  0  0  0  0  0  0
  142.0763  155.4654  133.8247 H   0  0  0  0  0  0  0  0  0  0  0  0
  144.4592  154.6281  135.1063 H   0  0  0  0  0  0  0  0  0  0  0  0
  143.9800  153.2735  134.0007 H   0  0  0  0  0  0  0  0  0  0  0  0
  144.3049  153.3836  131.8376 H   0  0  0  0  0  0  0  0  0  0  0  0
  143.4708  154.8301  131.1755 H   0  0  0  0  0  0  0  0  0  0  0  0
  145.2653  154.7496  131.1755 H   0  0  0  0  0  0  0  0  0  0  0  0
  146.9886  155.8029  132.7412 H   0  0  0  0  0  0  0  0  0  0  0  0
  147.9474  158.1212  132.8987 H   0  0  0  0  0  0  0  0  0  0  0  0
  147.2395  160.8455  133.3777 H   0  0  0  0  0  0  0  0  0  0  0  0
  143.0720  162.7020  132.9950 H   0  0  0  0  0  0  0  0  0  0  0  0
  143.0429  157.3703  133.7369 H   0  0  0  0  0  0  0  0  0  0  0  0
  141.3446  151.8099  138.4731 H   0  0  0  0  0  0  0  0  0  0  0  0
  1  2  1  0
  2  3  1  0
  3  4  1  0
  4  5  1  0
  5  6  1  0
  5  7  1  0
  7  8  2  0
  8  9  1  0
  9 10  2  0
 10 11  1  0
 11 12  2  0
 12 13  1  0
 13 14  1  0
 13 15  2  0
 12 16  1  0
 16 17  1  0
 17 18  2  0
 17 19  1  0
 16 20  1  0
 20 21  2  0
  2 22  1  0
 22 23  2  0
 22 24  1  0
 24 25  1  0
 25 26  2  0
 21  7  1  0
 20 10  1  0
  1 27  1  0
  1 28  1  0
  1 29  1  0
  3 30  1  0
  3 31  1  0
  4 32  1  0
  4 33  1  0
  6 34  1  0
  6 35  1  0
  6 36  1  0
  8 37  1  0
  9 38  1  0
 11 39  1  0
 14 40  1  0
 21 41  1  0
 25 42  1  0
M  CHG  2  14  -1  19  -1
M  END
>  <UniqueID>  (9) 
9

>  <SMILES>  (9) 
CN(CCN(C)c1ccc2cc(C([NH-])=O)n(C(=O)[O-])c2c1)C(=O)OC=O

>  <Energy>  (9) 
78.06836591055473

>  <Genealogy>  (9) 
CN(CCN(C)c1ccc2cc(C([NH-])=O)n(C(=O)[O-])c2c1)C(=O)OC=O (protonated)
CN(CCN(C)c1ccc2cc(C([NH-])=O)n(C(=O)[O-])c2c1)C(=O)OC=O (3D coordinates assigned)
CN(CCN(C)c1ccc2cc(C([NH-])=O)n(C(=O)[O-])c2c1)C(=O)OC=O (optimized conformer: 78.06836591055473 kcal/mol)

>  <smiles>  (9) 
CN(CCN(C)c1ccc2cc(C(N)=O)n(C(=O)O)c2c1)C(=O)OC=O

>  <score_type>  (9) 
oracle

>  <origin>  (9) 
adg

>  <m_score__min__energy>  (9) 
-6.29

>  <m_primary>  (9) 
energy

$$$$
9:0
     RDKit          3D

 39 40  0  0  0  0  0  0  0  0999 V2000
  143.0770  154.1610  132.9360 C   0  0  0  0  0  0  0  0  0  0  0  0
  141.8950  153.9410  133.7720 N   0  0  0  0  0  0  0  0  0  0  0  0
  140.6170  154.4540  133.3520 C   0  0  0  0  0  0  0  0  0  0  0  0
  139.8660  153.7530  132.6200 O   0  0  0  0  0  0  0  0  0  0  0  0
  140.2170  155.7400  133.7340 O   0  0  0  0  0  0  0  0  0  0  0  0
  139.4770  156.5980  132.8740 C   0  0  0  0  0  0  0  0  0  0  0  0
  139.2780  157.9170  133.5400 C   0  0  0  0  0  0  0  0  0  0  0  0
  138.7250  157.9770  134.6710 O   0  0  0  0  0  0  0  0  0  0  0  0
  139.6630  159.0870  132.8990 O   0  0  0  0  0  0  0  0  0  0  0  0
  142.0760  153.4350  135.1060 C   0  0  0  0  0  0  0  0  0  0  0  0
  141.7390  152.2500  135.3700 O   0  0  0  0  0  0  0  0  0  0  0  0
  142.6070  154.2940  136.1830 C   0  0  0  0  0  0  0  0  0  0  0  0
  143.7520  154.0720  136.6610 O   0  0  0  0  0  0  0  0  0  0  0  0
  141.8430  155.4060  136.6750 N   0  0  0  0  0  0  0  0  0  0  0  0
  141.0170  155.4340  137.7570 C   0  0  0  0  0  0  0  0  0  0  0  0
  140.6630  154.2740  138.6000 C   0  0  0  0  0  0  0  0  0  0  0  0
  141.1950  152.9870  138.3000 N   0  0  0  0  0  0  0  0  0  0  0  0
  139.9040  154.4100  139.5960 O   0  0  0  0  0  0  0  0  0  0  0  0
  140.5000  156.7150  137.9420 C   0  0  0  0  0  0  0  0  0  0  0  0
  141.0490  157.4790  136.9360 C   0  0  0  0  0  0  0  0  0  0  0  0
  140.8960  158.8330  136.6520 C   0  0  0  0  0  0  0  0  0  0  0  0
  141.6090  159.3620  135.5630 C   0  0  0  0  0  0  0  0  0  0  0  0
  142.4630  158.5360  134.7880 C   0  0  0  0  0  0  0  0  0  0  0  0
  143.2290  159.1060  133.6290 C   0  0  0  0  0  0  0  0  0  0  0  0
  144.4630  158.4890  133.5380 F   0  0  0  0  0  0  0  0  0  0  0  0
  143.4110  160.4650  133.8130 F   0  0  0  0  0  0  0  0  0  0  0  0
  142.5940  157.1670  135.1100 C   0  0  0  0  0  0  0  0  0  0  0  0
  141.8570  156.6650  136.1880 C   0  0  0  0  0  0  0  0  0  0  0  0
  143.9550  154.3244  133.5782 H   0  0  0  0  0  0  0  0  0  0  0  0
  143.2463  153.2789  132.3009 H   0  0  0  0  0  0  0  0  0  0  0  0
  142.9176  155.0449  132.3009 H   0  0  0  0  0  0  0  0  0  0  0  0
  140.0305  156.7414  131.9342 H   0  0  0  0  0  0  0  0  0  0  0  0
  138.4983  156.1450  132.6574 H   0  0  0  0  0  0  0  0  0  0  0  0
  141.8370  152.8470  137.4880 H   0  0  0  0  0  0  0  0  0  0  0  0
  139.8018  157.0456  138.7251 H   0  0  0  0  0  0  0  0  0  0  0  0
  140.2372  159.4692  137.2613 H   0  0  0  0  0  0  0  0  0  0  0  0
  141.5039  160.4271  135.3089 H   0  0  0  0  0  0  0  0  0  0  0  0
  142.6616  158.9332  132.7026 H   0  0  0  0  0  0  0  0  0  0  0  0
  143.2588  156.5120  134.5278 H   0  0  0  0  0  0  0  0  0  0  0  0
  1  2  1  0
  2  3  1  0
  3  4  2  0
  3  5  1  0
  5  6  1  0
  6  7  1  0
  7  8  2  0
  7  9  1  0
  2 10  1  0
 10 11  2  0
 10 12  1  0
 12 13  2  0
 12 14  1  0
 14 15  1  0
 15 16  1  0
 16 17  1  0
 16 18  2  0
 15 19  2  0
 19 20  1  0
 20 21  2  0
 21 22  1  0
 22 23  2  0
 23 24  1  0
 24 25  1  0
 24 26  1  0
 23 27  1  0
 27 28  2  0
 28 14  1  0
 28 20  1  0
  1 29  1  0
  1 30  1  0
  1 31  1  0
  6 32  1  0
  6 33  1  0
 17 34  1  0
 19 35  1  0
 21 36  1  0
 22 37  1  0
 24 38  1  0
 27 39  1  0
M  CHG  2   9  -1  17  -1
M  END
>  <UniqueID>  (10) 
10

>  <SMILES>  (10) 
CN(C(=O)OCC(=O)[O-])C(=O)C(=O)n1c(C([NH-])=O)cc2ccc(C(F)F)cc21

>  <Energy>  (10) 
77.9983136815447

>  <Genealogy>  (10) 
CN(C(=O)OCC(=O)[O-])C(=O)C(=O)n1c(C([NH-])=O)cc2ccc(C(F)F)cc21 (protonated)
CN(C(=O)OCC(=O)[O-])C(=O)C(=O)n1c(C([NH-])=O)cc2ccc(C(F)F)cc21 (3D coordinates assigned)
CN(C(=O)OCC(=O)[O-])C(=O)C(=O)n1c(C([NH-])=O)cc2ccc(C(F)F)cc21 (optimized conformer: 77.9983136815447 kcal/mol)

>  <smiles>  (10) 
CN(C(=O)OCC(=O)O)C(=O)C(=O)n1c(C(N)=O)cc2ccc(C(F)F)cc21

>  <score_type>  (10) 
oracle

>  <origin>  (10) 
adg

>  <m_score__min__energy>  (10) 
-6.5099999999999998

>  <m_primary>  (10) 
energy

$$$$
10:0
     RDKit          3D

 44 45  0  0  0  0  0  0  0  0999 V2000
  142.5570  156.4820  135.4560 C   0  0  0  0  0  0  0  0  0  0  0  0
  142.4320  156.2890  134.0070 N   0  0  0  0  0  0  0  0  0  0  0  0
  141.8690  155.0440  133.5370 C   0  0  0  0  0  0  0  0  0  0  0  0
  142.5900  154.1880  132.9540 O   0  0  0  0  0  0  0  0  0  0  0  0
  140.5100  154.7730  133.7440 O   0  0  0  0  0  0  0  0  0  0  0  0
  139.5070  155.7840  133.7110 C   0  0  0  0  0  0  0  0  0  0  0  0
  139.7310  156.6490  132.6010 O   0  0  0  0  0  0  0  0  0  0  0  0
  139.1250  157.9040  132.4850 C   0  0  0  0  0  0  0  0  0  0  0  0
  138.9470  158.6310  133.5010 O   0  0  0  0  0  0  0  0  0  0  0  0
  138.7190  158.4020  131.1350 C   0  0  0  0  0  0  0  0  0  0  0  0
  138.2240  159.8120  131.2190 C   0  0  0  0  0  0  0  0  0  0  0  0
  137.0080  160.0740  131.0190 O   0  0  0  0  0  0  0  0  0  0  0  0
  139.0930  160.8320  131.5820 O   0  0  0  0  0  0  0  0  0  0  0  0
  142.7820  157.3750  133.1150 C   0  0  0  0  0  0  0  0  0  0  0  0
  142.1600  157.5270  132.0290 O   0  0  0  0  0  0  0  0  0  0  0  0
  143.8210  158.3080  133.4400 N   0  0  0  0  0  0  0  0  0  0  0  0
  143.7120  159.6600  133.5600 C   0  0  0  0  0  0  0  0  0  0  0  0
  142.4530  160.4340  133.5290 C   0  0  0  0  0  0  0  0  0  0  0  0
  141.1850  159.7970  133.3600 N   0  0  0  0  0  0  0  0  0  0  0  0
  142.4950  161.6810  133.6970 O   0  0  0  0  0  0  0  0  0  0  0  0
  144.9740  160.2420  133.6700 C   0  0  0  0  0  0  0  0  0  0  0  0
  145.8660  159.1950  133.6070 C   0  0  0  0  0  0  0  0  0  0  0  0
  147.2560  159.1910  133.6700 C   0  0  0  0  0  0  0  0  0  0  0  0
  147.9170  157.9560  133.5620 C   0  0  0  0  0  0  0  0  0  0  0  0
  147.1850  156.7540  133.3660 C   0  0  0  0  0  0  0  0  0  0  0  0
  147.9020  155.4290  133.3060 C   0  0  0  0  0  0  0  0  0  0  0  0
  147.1410  154.5340  132.5770 F   0  0  0  0  0  0  0  0  0  0  0  0
  149.1370  155.5740  132.7000 F   0  0  0  0  0  0  0  0  0  0  0  0
  148.1010  154.9210  134.5770 F   0  0  0  0  0  0  0  0  0  0  0  0
  145.7710  156.7990  133.3240 C   0  0  0  0  0  0  0  0  0  0  0  0
  145.1430  158.0410  133.4510 C   0  0  0  0  0  0  0  0  0  0  0  0
  142.0314  155.6705  135.9807 H   0  0  0  0  0  0  0  0  0  0  0  0
  143.6205  156.4718  135.7369 H   0  0  0  0  0  0  0  0  0  0  0  0
  142.1128  157.4483  135.7369 H   0  0  0  0  0  0  0  0  0  0  0  0
  138.5173  155.3138  133.6138 H   0  0  0  0  0  0  0  0  0  0  0  0
  139.5493  156.3686  134.6418 H   0  0  0  0  0  0  0  0  0  0  0  0
  139.5865  158.3633  130.4598 H   0  0  0  0  0  0  0  0  0  0  0  0
  137.9087  157.7646  130.7515 H   0  0  0  0  0  0  0  0  0  0  0  0
  141.0800  158.7640  133.4440 H   0  0  0  0  0  0  0  0  0  0  0  0
  140.3200  160.3740  133.2600 H   0  0  0  0  0  0  0  0  0  0  0  0
  145.2076  161.3109  133.7831 H   0  0  0  0  0  0  0  0  0  0  0  0
  147.8201  160.1263  133.8004 H   0  0  0  0  0  0  0  0  0  0  0  0
  149.0143  157.9191  133.6300 H   0  0  0  0  0  0  0  0  0  0  0  0
  145.1812  155.8795  133.1947 H   0  0  0  0  0  0  0  0  0  0  0  0
  1  2  1  0
  2  3  1  0
  3  4  2  0
  3  5  1  0
  5  6  1  0
  6  7  1  0
  7  8  1  0
  8  9  2  0
  8 10  1  0
 10 11  1  0
 11 12  2  0
 11 13  1  0
  2 14  1  0
 14 15  2  0
 14 16  1  0
 16 17  1  0
 17 18  1  0
 18 19  1  0
 18 20  2  0
 17 21  2  0
 21 22  1  0
 22 23  2  0
 23 24  1  0
 24 25  2  0
 25 26  1  0
 26 27  1  0
 26 28  1  0
 26 29  1  0
 25 30  1  0
 30 31  2  0
 31 16  1  0
 31 22  1  0
  1 32  1  0
  1 33  1  0
  1 34  1  0
  6 35  1  0
  6 36  1  0
 10 37  1  0
 10 38  1  0
 19 39  1  0
 19 40  1  0
 21 41  1  0
 23 42  1  0
 24 43  1  0
 30 44  1  0
M  CHG  1  13  -1
M  END
>  <UniqueID>  (11) 
11

>  <SMILES>  (11) 
CN(C(=O)OCOC(=O)CC(=O)[O-])C(=O)n1c(C(N)=O)cc2ccc(C(F)(F)F)cc21

>  <Energy>  (11) 
82.25672505933622

>  <Genealogy>  (11) 
CN(C(=O)OCOC(=O)CC(=O)[O-])C(=O)n1c(C(N)=O)cc2ccc(C(F)(F)F)cc21 (protonated)
CN(C(=O)OCOC(=O)CC(=O)[O-])C(=O)n1c(C(N)=O)cc2ccc(C(F)(F)F)cc21 (3D coordinates assigned)
CN(C(=O)OCOC(=O)CC(=O)[O-])C(=O)n1c(C(N)=O)cc2ccc(C(F)(F)F)cc21 (optimized conformer: 82.25672505933622 kcal/mol)

>  <smiles>  (11) 
CN(C(=O)OCOC(=O)CC(=O)O)C(=O)n1c(C(N)=O)cc2ccc(C(F)(F)F)cc21

>  <score_type>  (11) 
oracle

>  <origin>  (11) 
adg

>  <m_score__min__energy>  (11) 
-5.7999999999999998

>  <m_primary>  (11) 
energy

$$$$
11:0
     RDKit          3D

 38 40  0  0  0  0  0  0  0  0999 V2000
  149.8380  158.5600  131.8420 C   0  0  0  0  0  0  0  0  0  0  0  0
  148.6360  159.3700  132.0660 N   0  0  0  0  0  0  0  0  0  0  0  0
  148.0690  159.4860  133.3860 C   0  0  0  0  0  0  0  0  0  0  0  0
  148.8400  159.5620  134.3830 O   0  0  0  0  0  0  0  0  0  0  0  0
  146.6060  159.4910  133.6120 C   0  0  0  0  0  0  0  0  0  0  0  0
  145.9900  160.5770  133.7800 O   0  0  0  0  0  0  0  0  0  0  0  0
  145.8690  158.2610  133.5940 N   0  0  0  0  0  0  0  0  0  0  0  0
  146.3540  156.9900  133.5480 C   0  0  0  0  0  0  0  0  0  0  0  0
  147.7760  156.6060  133.6730 C   0  0  0  0  0  0  0  0  0  0  0  0
  148.4830  156.8080  134.8930 N   0  0  0  0  0  0  0  0  0  0  0  0
  148.3680  156.0730  132.6980 O   0  0  0  0  0  0  0  0  0  0  0  0
  145.3120  156.0740  133.4210 C   0  0  0  0  0  0  0  0  0  0  0  0
  144.1620  156.8340  133.4020 C   0  0  0  0  0  0  0  0  0  0  0  0
  142.8320  156.4470  133.2690 C   0  0  0  0  0  0  0  0  0  0  0  0
  141.8510  157.4550  133.2510 C   0  0  0  0  0  0  0  0  0  0  0  0
  142.2110  158.8220  133.3790 C   0  0  0  0  0  0  0  0  0  0  0  0
  141.1510  159.8910  133.3040 C   0  0  0  0  0  0  0  0  0  0  0  0
  140.2290  159.7310  134.3260 F   0  0  0  0  0  0  0  0  0  0  0  0
  140.4990  159.8000  132.0880 F   0  0  0  0  0  0  0  0  0  0  0  0
  141.7120  161.1520  133.4230 F   0  0  0  0  0  0  0  0  0  0  0  0
  143.5770  159.1740  133.4860 C   0  0  0  0  0  0  0  0  0  0  0  0
  144.5270  158.1490  133.5100 C   0  0  0  0  0  0  0  0  0  0  0  0
  148.2020  160.3060  131.0250 C   0  0  0  0  0  0  0  0  0  0  0  0
  148.9520  160.1340  129.7110 C   0  0  0  0  0  0  0  0  0  0  0  0
  149.2570  161.3210  130.6110 C   0  0  0  0  0  0  0  0  0  0  0  0
  150.2698  158.2690  132.8109 H   0  0  0  0  0  0  0  0  0  0  0  0
  149.5709  157.6569  131.2735 H   0  0  0  0  0  0  0  0  0  0  0  0
  150.5747  159.1466  131.2735 H   0  0  0  0  0  0  0  0  0  0  0  0
  149.2420  157.5220  134.9640 H   0  0  0  0  0  0  0  0  0  0  0  0
  145.3901  154.9790  133.3509 H   0  0  0  0  0  0  0  0  0  0  0  0
  142.5563  155.3858  133.1807 H   0  0  0  0  0  0  0  0  0  0  0  0
  140.7920  157.1805  133.1364 H   0  0  0  0  0  0  0  0  0  0  0  0
  143.8840  160.2284  133.5488 H   0  0  0  0  0  0  0  0  0  0  0  0
  147.1462  160.3661  131.3276 H   0  0  0  0  0  0  0  0  0  0  0  0
  149.6884  159.3245  129.5999 H   0  0  0  0  0  0  0  0  0  0  0  0
  148.6584  160.0114  128.6580 H   0  0  0  0  0  0  0  0  0  0  0  0
  150.2143  161.3702  131.1506 H   0  0  0  0  0  0  0  0  0  0  0  0
  149.2755  162.4128  130.4781 H   0  0  0  0  0  0  0  0  0  0  0  0
  1  2  1  0
  2  3  1  0
  3  4  2  0
  3  5  1  0
  5  6  2  0
  5  7  1  0
  7  8  1  0
  8  9  1  0
  9 10  1  0
  9 11  2  0
  8 12  2  0
 12 13  1  0
 13 14  2  0
 14 15  1  0
 15 16  2  0
 16 17  1  0
 17 18  1  0
 17 19  1  0
 17 20  1  0
 16 21  1  0
 21 22  2  0
  2 23  1  0
 23 24  1  0
 24 25  1  0
 22  7  1  0
 25 23  1  0
 22 13  1  0
  1 26  1  0
  1 27  1  0
  1 28  1  0
 10 29  1  0
 12 30  1  0
 14 31  1  0
 15 32  1  0
 21 33  1  0
 23 34  1  0
 24 35  1  0
 24 36  1  0
 25 37  1  0
 25 38  1  0
M  CHG  1  10  -1
M  END
>  <UniqueID>  (12) 
12

>  <SMILES>  (12) 
CN(C(=O)C(=O)n1c(C([NH-])=O)cc2ccc(C(F)(F)F)cc21)C1CC1

>  <Energy>  (12) 
345.23880956361285

>  <Genealogy>  (12) 
CN(C(=O)C(=O)n1c(C([NH-])=O)cc2ccc(C(F)(F)F)cc21)C1CC1 (protonated)
CN(C(=O)C(=O)n1c(C([NH-])=O)cc2ccc(C(F)(F)F)cc21)C1CC1 (3D coordinates assigned)
CN(C(=O)C(=O)n1c(C([NH-])=O)cc2ccc(C(F)(F)F)cc21)C1CC1 (nonaromatic ring conformer: 345.23880956361285 kcal/mol)

>  <smiles>  (12) 
CN(C(=O)C(=O)n1c(C(N)=O)cc2ccc(C(F)(F)F)cc21)C1CC1

>  <score_type>  (12) 
oracle

>  <origin>  (12) 
adg

>  <m_score__min__energy>  (12) 
-6.5199999999999996

>  <m_primary>  (12) 
energy

$$$$
12:0
     RDKit          3D

 34 35  0  0  0  0  0  0  0  0999 V2000
  141.6910  156.4770  136.6270 C   0  0  0  0  0  0  0  0  0  0  0  0
  142.2150  157.4460  135.6570 N   0  0  0  0  0  0  0  0  0  0  0  0
  141.6700  158.8080  135.6320 C   0  0  0  0  0  0  0  0  0  0  0  0
  143.3210  157.0500  134.8120 C   0  0  0  0  0  0  0  0  0  0  0  0
  143.9990  156.0350  135.1290 O   0  0  0  0  0  0  0  0  0  0  0  0
  143.7010  157.7840  133.5810 C   0  0  0  0  0  0  0  0  0  0  0  0
  142.9510  157.7910  132.5690 O   0  0  0  0  0  0  0  0  0  0  0  0
  144.9490  158.4920  133.5220 N   0  0  0  0  0  0  0  0  0  0  0  0
  145.1420  159.8400  133.5120 C   0  0  0  0  0  0  0  0  0  0  0  0
  144.0880  160.8650  133.6690 C   0  0  0  0  0  0  0  0  0  0  0  0
  142.7280  160.5770  133.3540 N   0  0  0  0  0  0  0  0  0  0  0  0
  144.3890  162.0060  134.1110 O   0  0  0  0  0  0  0  0  0  0  0  0
  146.4960  160.1360  133.3650 C   0  0  0  0  0  0  0  0  0  0  0  0
  147.1300  158.9160  133.2810 C   0  0  0  0  0  0  0  0  0  0  0  0
  148.4750  158.6140  133.0980 C   0  0  0  0  0  0  0  0  0  0  0  0
  148.8400  157.2590  133.0080 C   0  0  0  0  0  0  0  0  0  0  0  0
  147.8630  156.2350  133.1120 C   0  0  0  0  0  0  0  0  0  0  0  0
  148.2600  154.7890  132.9550 C   0  0  0  0  0  0  0  0  0  0  0  0
  148.4470  154.1970  134.1930 F   0  0  0  0  0  0  0  0  0  0  0  0
  147.2620  154.1140  132.2780 F   0  0  0  0  0  0  0  0  0  0  0  0
  149.4410  154.6830  132.2410 F   0  0  0  0  0  0  0  0  0  0  0  0
  146.5020  156.5850  133.2720 C   0  0  0  0  0  0  0  0  0  0  0  0
  146.1720  157.9400  133.3750 C   0  0  0  0  0  0  0  0  0  0  0  0
  141.8861  156.8378  137.6477 H   0  0  0  0  0  0  0  0  0  0  0  0
  140.6071  156.3607  136.4801 H   0  0  0  0  0  0  0  0  0  0  0  0
  142.1871  155.5063  136.4801 H   0  0  0  0  0  0  0  0  0  0  0  0
  141.5272  159.1648  136.6627 H   0  0  0  0  0  0  0  0  0  0  0  0
  142.3709  159.4738  135.1073 H   0  0  0  0  0  0  0  0  0  0  0  0
  140.7032  158.8065  135.1073 H   0  0  0  0  0  0  0  0  0  0  0  0
  142.4820  159.9110  132.5890 H   0  0  0  0  0  0  0  0  0  0  0  0
  146.9600  161.1326  133.3246 H   0  0  0  0  0  0  0  0  0  0  0  0
  149.2302  159.4106  133.0259 H   0  0  0  0  0  0  0  0  0  0  0  0
  149.8955  156.9895  132.8551 H   0  0  0  0  0  0  0  0  0  0  0  0
  145.7222  155.8103  133.3144 H   0  0  0  0  0  0  0  0  0  0  0  0
  1  2  1  0
  2  3  1  0
  2  4  1  0
  4  5  2  0
  4  6  1  0
  6  7  2  0
  6  8  1  0
  8  9  1  0
  9 10  1  0
 10 11  1  0
 10 12  2  0
  9 13  2  0
 13 14  1  0
 14 15  2  0
 15 16  1  0
 16 17  2  0
 17 18  1  0
 18 19  1  0
 18 20  1  0
 18 21  1  0
 17 22  1  0
 22 23  2  0
 23  8  1  0
 23 14  1  0
  1 24  1  0
  1 25  1  0
  1 26  1  0
  3 27  1  0
  3 28  1  0
  3 29  1  0
 11 30  1  0
 13 31  1  0
 15 32  1  0
 16 33  1  0
 22 34  1  0
M  CHG  1  11  -1
M  END
>  <UniqueID>  (13) 
13

>  <SMILES>  (13) 
CN(C)C(=O)C(=O)n1c(C([NH-])=O)cc2ccc(C(F)(F)F)cc21

>  <Energy>  (13) 
74.98751552837454

>  <Genealogy>  (13) 
CN(C)C(=O)C(=O)n1c(C([NH-])=O)cc2ccc(C(F)(F)F)cc21 (protonated)
CN(C)C(=O)C(=O)n1c(C([NH-])=O)cc2ccc(C(F)(F)F)cc21 (3D coordinates assigned)
CN(C)C(=O)C(=O)n1c(C([NH-])=O)cc2ccc(C(F)(F)F)cc21 (optimized conformer: 74.98751552837454 kcal/mol)

>  <smiles>  (13) 
CN(C)C(=O)C(=O)n1c(C(N)=O)cc2ccc(C(F)(F)F)cc21

>  <score_type>  (13) 
oracle

>  <origin>  (13) 
adg

>  <m_score__min__energy>  (13) 
-6.3399999999999999

>  <m_primary>  (13) 
energy

$$$$
13:0
     RDKit          3D

 37 38  0  0  0  0  0  0  0  0999 V2000
  148.8320  160.1390  130.6220 C   0  0  0  0  0  0  0  0  0  0  0  0
  149.0400  159.0620  131.3770 C   0  0  0  0  0  0  0  0  0  0  0  0
  148.5230  158.9370  132.7520 C   0  0  0  0  0  0  0  0  0  0  0  0
  149.2070  159.3970  133.7050 O   0  0  0  0  0  0  0  0  0  0  0  0
  147.2520  158.3240  133.0280 N   0  0  0  0  0  0  0  0  0  0  0  0
  146.0850  158.9330  133.3820 C   0  0  0  0  0  0  0  0  0  0  0  0
  145.8820  160.3970  133.4730 C   0  0  0  0  0  0  0  0  0  0  0  0
  146.9790  161.2770  133.7230 N   0  0  0  0  0  0  0  0  0  0  0  0
  144.7260  160.8830  133.3430 O   0  0  0  0  0  0  0  0  0  0  0  0
  145.0840  157.9830  133.5760 C   0  0  0  0  0  0  0  0  0  0  0  0
  145.6790  156.7660  133.3200 C   0  0  0  0  0  0  0  0  0  0  0  0
  145.1480  155.4810  133.3560 C   0  0  0  0  0  0  0  0  0  0  0  0
  146.0010  154.4060  133.0480 C   0  0  0  0  0  0  0  0  0  0  0  0
  147.3640  154.6330  132.7130 C   0  0  0  0  0  0  0  0  0  0  0  0
  148.2590  153.5470  132.3990 N   0  0  0  0  0  0  0  0  0  0  0  0
  148.8530  152.6510  133.3920 C   0  0  0  0  0  0  0  0  0  0  0  0
  149.6900  151.6070  132.7210 C   0  0  0  0  0  0  0  0  0  0  0  0
  150.3560  150.7940  133.4160 O   0  0  0  0  0  0  0  0  0  0  0  0
  149.7100  151.5250  131.2930 N   0  0  0  0  0  0  0  0  0  0  0  0
  150.3050  150.4060  130.5790 C   0  0  0  0  0  0  0  0  0  0  0  0
  147.8600  155.9550  132.6830 C   0  0  0  0  0  0  0  0  0  0  0  0
  146.9850  157.0030  132.9870 C   0  0  0  0  0  0  0  0  0  0  0  0
  149.2399  160.1823  129.6013 H   0  0  0  0  0  0  0  0  0  0  0  0
  148.2523  160.9854  131.0190 H   0  0  0  0  0  0  0  0  0  0  0  0
  149.6229  158.2293  130.9564 H   0  0  0  0  0  0  0  0  0  0  0  0
  147.9610  160.9270  133.7690 H   0  0  0  0  0  0  0  0  0  0  0  0
  146.8140  162.3040  133.8190 H   0  0  0  0  0  0  0  0  0  0  0  0
  144.0401  158.1655  133.8710 H   0  0  0  0  0  0  0  0  0  0  0  0
  144.0932  155.3107  133.6174 H   0  0  0  0  0  0  0  0  0  0  0  0
  145.6093  153.3783  133.0665 H   0  0  0  0  0  0  0  0  0  0  0  0
  148.5170  153.3870  131.3990 H   0  0  0  0  0  0  0  0  0  0  0  0
  149.4844  153.2366  134.0763 H   0  0  0  0  0  0  0  0  0  0  0  0
  148.0463  152.1550  133.9517 H   0  0  0  0  0  0  0  0  0  0  0  0
  150.6940  149.6745  131.3026 H   0  0  0  0  0  0  0  0  0  0  0  0
  149.5425  149.9270  129.9472 H   0  0  0  0  0  0  0  0  0  0  0  0
  151.1285  150.7703  129.9472 H   0  0  0  0  0  0  0  0  0  0  0  0
  148.9106  156.1559  132.4264 H   0  0  0  0  0  0  0  0  0  0  0  0
  1  2  2  0
  2  3  1  0
  3  4  2  0
  3  5  1  0
  5  6  1  0
  6  7  1  0
  7  8  1  0
  7  9  2  0
  6 10  2  0
 10 11  1  0
 11 12  2  0
 12 13  1  0
 13 14  2  0
 14 15  1  0
 15 16  1  0
 16 17  1  0
 17 18  2  0
 17 19  1  0
 19 20  1  0
 14 21  1  0
 21 22  2  0
 22  5  1  0
 22 11  1  0
  1 23  1  0
  1 24  1  0
  2 25  1  0
  8 26  1  0
  8 27  1  0
 10 28  1  0
 12 29  1  0
 13 30  1  0
 15 31  1  0
 16 32  1  0
 16 33  1  0
 20 34  1  0
 20 35  1  0
 20 36  1  0
 21 37  1  0
M  CHG  1  19  -1
M  END
>  <UniqueID>  (14) 
14

>  <SMILES>  (14) 
C=CC(=O)n1c(C(N)=O)cc2ccc(NCC(=O)[N-]C)cc21

>  <Energy>  (14) 
71.45299941364514

>  <Genealogy>  (14) 
C=CC(=O)n1c(C(N)=O)cc2ccc(NCC(=O)[N-]C)cc21 (protonated)
C=CC(=O)n1c(C(N)=O)cc2ccc(NCC(=O)[N-]C)cc21 (3D coordinates assigned)
C=CC(=O)n1c(C(N)=O)cc2ccc(NCC(=O)[N-]C)cc21 (optimized conformer: 71.45299941364514 kcal/mol)

>  <smiles>  (14) 
C=CC(=O)n1c(C(N)=O)cc2ccc(NCC(=O)NC)cc21

>  <score_type>  (14) 
oracle

>  <origin>  (14) 
adg

>  <m_score__min__energy>  (14) 
-6.5599999999999996

>  <m_primary>  (14) 
energy

$$$$
14:0
     RDKit          3D

 44 45  0  0  0  0  0  0  0  0999 V2000
  145.2110  153.4520  134.0680 C   0  0  0  0  0  0  0  0  0  0  0  0
  146.3480  153.9950  134.8830 C   0  0  0  0  0  0  0  0  0  0  0  0
  146.3050  153.8630  136.1360 O   0  0  0  0  0  0  0  0  0  0  0  0
  147.4710  154.6640  134.2700 N   0  0  0  0  0  0  0  0  0  0  0  0
  148.4350  153.8870  133.4890 C   0  0  0  0  0  0  0  0  0  0  0  0
  147.5520  156.0990  134.2270 C   0  0  0  0  0  0  0  0  0  0  0  0
  148.1280  156.7150  135.1630 O   0  0  0  0  0  0  0  0  0  0  0  0
  146.9520  156.8560  133.1110 C   0  0  0  0  0  0  0  0  0  0  0  0
  146.9800  156.3790  131.9460 O   0  0  0  0  0  0  0  0  0  0  0  0
  146.3510  158.1400  133.3310 N   0  0  0  0  0  0  0  0  0  0  0  0
  146.8950  159.3730  133.1250 C   0  0  0  0  0  0  0  0  0  0  0  0
  148.2960  159.6520  132.7450 C   0  0  0  0  0  0  0  0  0  0  0  0
  149.3790  158.8840  133.2720 N   0  0  0  0  0  0  0  0  0  0  0  0
  148.5450  160.6110  131.9680 O   0  0  0  0  0  0  0  0  0  0  0  0
  145.9460  160.3690  133.3540 C   0  0  0  0  0  0  0  0  0  0  0  0
  144.8000  159.7010  133.7240 C   0  0  0  0  0  0  0  0  0  0  0  0
  143.5430  160.1930  134.0630 C   0  0  0  0  0  0  0  0  0  0  0  0
  142.5360  159.2650  134.3790 C   0  0  0  0  0  0  0  0  0  0  0  0
  142.7990  157.8730  134.3420 C   0  0  0  0  0  0  0  0  0  0  0  0
  141.7170  156.8840  134.6970 C   0  0  0  0  0  0  0  0  0  0  0  0
  142.2880  155.4910  135.0080 C   0  0  0  0  0  0  0  0  0  0  0  0
  142.8400  155.3700  136.4320 C   0  0  0  0  0  0  0  0  0  0  0  0
  143.8510  154.4020  136.4790 O   0  0  0  0  0  0  0  0  0  0  0  0
  144.0880  157.4110  133.9990 C   0  0  0  0  0  0  0  0  0  0  0  0
  145.0730  158.3580  133.7030 C   0  0  0  0  0  0  0  0  0  0  0  0
  144.4249  153.0766  134.7397 H   0  0  0  0  0  0  0  0  0  0  0  0
  144.8003  154.2511  133.4334 H   0  0  0  0  0  0  0  0  0  0  0  0
  145.5744  152.6302  133.4334 H   0  0  0  0  0  0  0  0  0  0  0  0
  149.1072  153.3452  134.1705 H   0  0  0  0  0  0  0  0  0  0  0  0
  147.8974  153.1667  132.8548 H   0  0  0  0  0  0  0  0  0  0  0  0
  149.0247  154.5653  132.8548 H   0  0  0  0  0  0  0  0  0  0  0  0
  150.3530  159.0560  132.9380 H   0  0  0  0  0  0  0  0  0  0  0  0
  149.2370  158.2140  134.0600 H   0  0  0  0  0  0  0  0  0  0  0  0
  146.0836  161.4563  133.2593 H   0  0  0  0  0  0  0  0  0  0  0  0
  143.3439  161.2746  134.0830 H   0  0  0  0  0  0  0  0  0  0  0  0
  141.5338  159.6227  134.6578 H   0  0  0  0  0  0  0  0  0  0  0  0
  141.1765  157.2516  135.5817 H   0  0  0  0  0  0  0  0  0  0  0  0
  141.0458  156.7899  133.8306 H   0  0  0  0  0  0  0  0  0  0  0  0
  141.4872  154.7480  134.8790 H   0  0  0  0  0  0  0  0  0  0  0  0
  143.1260  155.3190  134.3165 H   0  0  0  0  0  0  0  0  0  0  0  0
  143.2517  156.3406  136.7457 H   0  0  0  0  0  0  0  0  0  0  0  0
  142.0255  155.0709  137.1081 H   0  0  0  0  0  0  0  0  0  0  0  0
  144.5570  154.7690  137.0720 H   0  0  0  0  0  0  0  0  0  0  0  0
  144.3115  156.3345  133.9655 H   0  0  0  0  0  0  0  0  0  0  0  0
  1  2  1  0
  2  3  2  0
  2  4  1  0
  4  5  1  0
  4  6  1  0
  6  7  2  0
  6  8  1  0
  8  9  2  0
  8 10  1  0
 10 11  1  0
 11 12  1  0
 12 13  1  0
 12 14  2  0
 11 15  2  0
 15 16  1  0
 16 17  2  0
 17 18  1  0
 18 19  2  0
 19 20  1  0
 20 21  1  0
 21 22  1  0
 22 23  1  0
 19 24  1  0
 24 25  2  0
 25 10  1  0
 25 16  1  0
  1 26  1  0
  1 27  1  0
  1 28  1  0
  5 29  1  0
  5 30  1  0
  5 31  1  0
 13 32  1  0
 13 33  1  0
 15 34  1  0
 17 35  1  0
 18 36  1  0
 20 37  1  0
 20 38  1  0
 21 39  1  0
 21 40  1  0
 22 41  1  0
 22 42  1  0
 23 43  1  0
 24 44  1  0
M  END
>  <UniqueID>  (15) 
15

>  <SMILES>  (15) 
CC(=O)N(C)C(=O)C(=O)n1c(C(N)=O)cc2ccc(CCCO)cc21

>  <Energy>  (15) 
82.88809005765722

>  <Genealogy>  (15) 
CC(=O)N(C)C(=O)C(=O)n1c(C(N)=O)cc2ccc(CCCO)cc21 (3D coordinates assigned)
CC(=O)N(C)C(=O)C(=O)n1c(C(N)=O)cc2ccc(CCCO)cc21 (optimized conformer: 82.88809005765722 kcal/mol)

>  <smiles>  (15) 
CC(=O)N(C)C(=O)C(=O)n1c(C(N)=O)cc2ccc(CCCO)cc21

>  <score_type>  (15) 
oracle

>  <origin>  (15) 
adg

>  <m_score__min__energy>  (15) 
-7.3399999999999999

>  <m_primary>  (15) 
energy

$$$$
15:0
     RDKit          3D

 42 43  0  0  0  0  0  0  0  0999 V2000
  142.8420  152.5350  133.0100 C   0  0  0  0  0  0  0  0  0  0  0  0
  144.5540  152.9820  132.8170 S   0  0  0  0  0  0  0  0  0  0  0  0
  145.2560  151.9280  132.0090 O   0  0  0  0  0  0  0  0  0  0  0  0
  145.1920  153.0650  134.1750 O   0  0  0  0  0  0  0  0  0  0  0  0
  144.7080  154.5730  132.0100 C   0  0  0  0  0  0  0  0  0  0  0  0
  143.7390  155.6050  132.5840 C   0  0  0  0  0  0  0  0  0  0  0  0
  144.2840  156.1740  133.7680 O   0  0  0  0  0  0  0  0  0  0  0  0
  144.2950  157.5480  134.0230 C   0  0  0  0  0  0  0  0  0  0  0  0
  143.3350  158.0870  134.6380 O   0  0  0  0  0  0  0  0  0  0  0  0
  145.4210  158.3370  133.6050 N   0  0  0  0  0  0  0  0  0  0  0  0
  145.5110  159.6950  133.5180 C   0  0  0  0  0  0  0  0  0  0  0  0
  144.4090  160.6570  133.7290 C   0  0  0  0  0  0  0  0  0  0  0  0
  143.0780  160.3020  133.3620 N   0  0  0  0  0  0  0  0  0  0  0  0
  144.6220  161.7750  134.2680 O   0  0  0  0  0  0  0  0  0  0  0  0
  146.7850  160.0740  133.0990 C   0  0  0  0  0  0  0  0  0  0  0  0
  147.4750  158.8980  132.9180 C   0  0  0  0  0  0  0  0  0  0  0  0
  148.7830  158.6840  132.4900 C   0  0  0  0  0  0  0  0  0  0  0  0
  149.2350  157.3570  132.3950 C   0  0  0  0  0  0  0  0  0  0  0  0
  148.3860  156.2780  132.7470 C   0  0  0  0  0  0  0  0  0  0  0  0
  148.8730  154.8570  132.6170 C   0  0  0  0  0  0  0  0  0  0  0  0
  148.0520  153.9040  133.4920 C   0  0  0  0  0  0  0  0  0  0  0  0
  147.6240  152.7340  132.7290 N   0  0  0  0  0  0  0  0  0  0  0  0
  147.0650  156.5350  133.1730 C   0  0  0  0  0  0  0  0  0  0  0  0
  146.6310  157.8650  133.2320 C   0  0  0  0  0  0  0  0  0  0  0  0
  142.5981  152.4713  134.0807 H   0  0  0  0  0  0  0  0  0  0  0  0
  142.2080  153.2977  132.5343 H   0  0  0  0  0  0  0  0  0  0  0  0
  142.6618  151.5597  132.5343 H   0  0  0  0  0  0  0  0  0  0  0  0
  145.7365  154.9399  132.1427 H   0  0  0  0  0  0  0  0  0  0  0  0
  144.4667  154.4374  130.9454 H   0  0  0  0  0  0  0  0  0  0  0  0
  143.5701  156.3992  131.8419 H   0  0  0  0  0  0  0  0  0  0  0  0
  142.7854  155.1122  132.8245 H   0  0  0  0  0  0  0  0  0  0  0  0
  142.8730  159.3760  132.9240 H   0  0  0  0  0  0  0  0  0  0  0  0
  147.1594  161.0969  132.9456 H   0  0  0  0  0  0  0  0  0  0  0  0
  149.4414  159.5273  132.2344 H   0  0  0  0  0  0  0  0  0  0  0  0
  150.2575  157.1536  132.0441 H   0  0  0  0  0  0  0  0  0  0  0  0
  148.7859  154.5432  131.5663 H   0  0  0  0  0  0  0  0  0  0  0  0
  149.9207  154.8176  132.9498 H   0  0  0  0  0  0  0  0  0  0  0  0
  148.6680  153.5743  134.3416 H   0  0  0  0  0  0  0  0  0  0  0  0
  147.1584  154.4368  133.8492 H   0  0  0  0  0  0  0  0  0  0  0  0
  147.0740  153.0620  131.9030 H   0  0  0  0  0  0  0  0  0  0  0  0
  146.9650  152.1860  133.3280 H   0  0  0  0  0  0  0  0  0  0  0  0
  146.3927  155.7103  133.4519 H   0  0  0  0  0  0  0  0  0  0  0  0
  1  2  1  0
  2  3  2  0
  2  4  2  0
  2  5  1  0
  5  6  1  0
  6  7  1  0
  7  8  1  0
  8  9  2  0
  8 10  1  0
 10 11  1  0
 11 12  1  0
 12 13  1  0
 12 14  2  0
 11 15  2  0
 15 16  1  0
 16 17  2  0
 17 18  1  0
 18 19  2  0
 19 20  1  0
 20 21  1  0
 21 22  1  0
 19 23  1  0
 23 24  2  0
 24 10  1  0
 24 16  1  0
  1 25  1  0
  1 26  1  0
  1 27  1  0
  5 28  1  0
  5 29  1  0
  6 30  1  0
  6 31  1  0
 13 32  1  0
 15 33  1  0
 17 34  1  0
 18 35  1  0
 20 36  1  0
 20 37  1  0
 21 38  1  0
 21 39  1  0
 22 40  1  0
 22 41  1  0
 23 42  1  0
M  CHG  1  13  -1
M  END
>  <UniqueID>  (16) 
16

>  <SMILES>  (16) 
CS(=O)(=O)CCOC(=O)n1c(C([NH-])=O)cc2ccc(CCN)cc21

>  <Energy>  (16) 
64.06821060685512

>  <Genealogy>  (16) 
CS(=O)(=O)CCOC(=O)n1c(C([NH-])=O)cc2ccc(CCN)cc21 (protonated)
CS(=O)(=O)CCOC(=O)n1c(C([NH-])=O)cc2ccc(CCN)cc21 (3D coordinates assigned)
CS(=O)(=O)CCOC(=O)n1c(C([NH-])=O)cc2ccc(CCN)cc21 (optimized conformer: 64.06821060685512 kcal/mol)

>  <smiles>  (16) 
CS(=O)(=O)CCOC(=O)n1c(C(N)=O)cc2ccc(CCN)cc21

>  <score_type>  (16) 
oracle

>  <origin>  (16) 
adg

>  <m_score__min__energy>  (16) 
-6.3700000000000001

>  <m_primary>  (16) 
energy

$$$$
16:0
     RDKit          3D

 36 37  0  0  0  0  0  0  0  0999 V2000
  141.8970  156.1510  136.4910 C   0  0  0  0  0  0  0  0  0  0  0  0
  142.2570  157.1420  135.4730 N   0  0  0  0  0  0  0  0  0  0  0  0
  141.5920  158.4500  135.4620 C   0  0  0  0  0  0  0  0  0  0  0  0
  140.6640  158.5640  136.6290 C   0  0  0  0  0  0  0  0  0  0  0  0
  141.0090  159.2150  137.6510 O   0  0  0  0  0  0  0  0  0  0  0  0
  139.4330  157.9180  136.6060 O   0  0  0  0  0  0  0  0  0  0  0  0
  143.4320  156.9120  134.6730 C   0  0  0  0  0  0  0  0  0  0  0  0
  144.2070  155.9630  134.9700 O   0  0  0  0  0  0  0  0  0  0  0  0
  143.7400  157.7520  133.4980 C   0  0  0  0  0  0  0  0  0  0  0  0
  142.9180  157.8420  132.5460 O   0  0  0  0  0  0  0  0  0  0  0  0
  144.9860  158.4570  133.4180 N   0  0  0  0  0  0  0  0  0  0  0  0
  145.1850  159.8050  133.4670 C   0  0  0  0  0  0  0  0  0  0  0  0
  144.1430  160.8250  133.7040 C   0  0  0  0  0  0  0  0  0  0  0  0
  142.7780  160.5730  133.3770 N   0  0  0  0  0  0  0  0  0  0  0  0
  144.4580  161.9300  134.2200 O   0  0  0  0  0  0  0  0  0  0  0  0
  146.5390  160.1020  133.3050 C   0  0  0  0  0  0  0  0  0  0  0  0
  147.1640  158.8840  133.1490 C   0  0  0  0  0  0  0  0  0  0  0  0
  148.5080  158.5840  132.9440 C   0  0  0  0  0  0  0  0  0  0  0  0
  148.8640  157.2310  132.8020 C   0  0  0  0  0  0  0  0  0  0  0  0
  147.8780  156.2110  132.8580 C   0  0  0  0  0  0  0  0  0  0  0  0
  148.2660  154.7650  132.7160 C   0  0  0  0  0  0  0  0  0  0  0  0
  149.6000  154.6760  132.3640 F   0  0  0  0  0  0  0  0  0  0  0  0
  148.0640  154.1050  133.9150 F   0  0  0  0  0  0  0  0  0  0  0  0
  146.5250  156.5550  133.0680 C   0  0  0  0  0  0  0  0  0  0  0  0
  146.2030  157.9080  133.2200 C   0  0  0  0  0  0  0  0  0  0  0  0
  142.0529  156.5801  137.4918 H   0  0  0  0  0  0  0  0  0  0  0  0
  140.8398  155.8712  136.3726 H   0  0  0  0  0  0  0  0  0  0  0  0
  142.5281  155.2579  136.3726 H   0  0  0  0  0  0  0  0  0  0  0  0
  142.3505  159.2444  135.5213 H   0  0  0  0  0  0  0  0  0  0  0  0
  141.0147  158.5528  134.5313 H   0  0  0  0  0  0  0  0  0  0  0  0
  142.5220  159.9680  132.5660 H   0  0  0  0  0  0  0  0  0  0  0  0
  147.0077  161.0972  133.3024 H   0  0  0  0  0  0  0  0  0  0  0  0
  149.2665  159.3792  132.8947 H   0  0  0  0  0  0  0  0  0  0  0  0
  149.9185  156.9598  132.6457 H   0  0  0  0  0  0  0  0  0  0  0  0
  147.6460  154.3006  131.9350 H   0  0  0  0  0  0  0  0  0  0  0  0
  145.7452  155.7804  133.1109 H   0  0  0  0  0  0  0  0  0  0  0  0
  1  2  1  0
  2  3  1  0
  3  4  1  0
  4  5  2  0
  4  6  1  0
  2  7  1  0
  7  8  2  0
  7  9  1  0
  9 10  2  0
  9 11  1  0
 11 12  1  0
 12 13  1  0
 13 14  1  0
 13 15  2  0
 12 16  2  0
 16 17  1  0
 17 18  2  0
 18 19  1  0
 19 20  2  0
 20 21  1  0
 21 22  1  0
 21 23  1  0
 20 24  1  0
 24 25  2  0
 25 11  1  0
 25 17  1  0
  1 26  1  0
  1 27  1  0
  1 28  1  0
  3 29  1  0
  3 30  1  0
 14 31  1  0
 16 32  1  0
 18 33  1  0
 19 34  1  0
 21 35  1  0
 24 36  1  0
M  CHG  2   6  -1  14  -1
M  END
>  <UniqueID>  (17) 
17

>  <SMILES>  (17) 
CN(CC(=O)[O-])C(=O)C(=O)n1c(C([NH-])=O)cc2ccc(C(F)F)cc21

>  <Energy>  (17) 
76.72368313295702

>  <Genealogy>  (17) 
CN(CC(=O)[O-])C(=O)C(=O)n1c(C([NH-])=O)cc2ccc(C(F)F)cc21 (protonated)
CN(CC(=O)[O-])C(=O)C(=O)n1c(C([NH-])=O)cc2ccc(C(F)F)cc21 (3D coordinates assigned)
CN(CC(=O)[O-])C(=O)C(=O)n1c(C([NH-])=O)cc2ccc(C(F)F)cc21 (optimized conformer: 76.72368313295702 kcal/mol)

>  <smiles>  (17) 
CN(CC(=O)O)C(=O)C(=O)n1c(C(N)=O)cc2ccc(C(F)F)cc21

>  <score_type>  (17) 
oracle

>  <origin>  (17) 
adg

>  <m_score__min__energy>  (17) 
-6.2400000000000002

>  <m_primary>  (17) 
energy

$$$$
17:0
     RDKit          3D

 46 48  0  0  0  0  0  0  0  0999 V2000
  139.4890  145.8390  129.6180 C   0  0  0  0  0  0  0  0  0  0  0  0
  138.7790  147.0400  129.3370 O   0  0  0  0  0  0  0  0  0  0  0  0
  139.1740  148.2820  129.8390 C   0  0  0  0  0  0  0  0  0  0  0  0
  138.5190  149.3230  129.5570 O   0  0  0  0  0  0  0  0  0  0  0  0
  140.3360  148.3620  130.6740 N   0  0  0  0  0  0  0  0  0  0  0  0
  140.7990  149.6250  131.2600 C   0  0  0  0  0  0  0  0  0  0  0  0
  142.0800  149.4080  132.1100 C   0  0  0  0  0  0  0  0  0  0  0  0
  142.1970  150.3850  133.2950 C   0  0  0  0  0  0  0  0  0  0  0  0
  141.5330  151.6590  132.9910 N   0  0  0  0  0  0  0  0  0  0  0  0
  142.2470  152.9080  133.0890 C   0  0  0  0  0  0  0  0  0  0  0  0
  143.6240  152.9720  132.7520 C   0  0  0  0  0  0  0  0  0  0  0  0
  144.3260  154.1870  132.8250 C   0  0  0  0  0  0  0  0  0  0  0  0
  143.6290  155.3190  133.2320 C   0  0  0  0  0  0  0  0  0  0  0  0
  144.0550  156.6210  133.3790 C   0  0  0  0  0  0  0  0  0  0  0  0
  142.9360  157.3300  133.8090 C   0  0  0  0  0  0  0  0  0  0  0  0
  142.9590  158.7620  134.1720 C   0  0  0  0  0  0  0  0  0  0  0  0
  142.4590  159.1810  135.4400 N   0  0  0  0  0  0  0  0  0  0  0  0
  143.3930  159.6250  133.3640 O   0  0  0  0  0  0  0  0  0  0  0  0
  141.8580  156.5010  133.9110 N   0  0  0  0  0  0  0  0  0  0  0  0
  140.5120  156.8380  134.2800 C   0  0  0  0  0  0  0  0  0  0  0  0
  140.2590  157.1810  135.4650 O   0  0  0  0  0  0  0  0  0  0  0  0
  139.4150  156.7370  133.3060 C   0  0  0  0  0  0  0  0  0  0  0  0
  139.1180  155.6270  132.7920 O   0  0  0  0  0  0  0  0  0  0  0  0
  138.6890  157.8690  132.9570 O   0  0  0  0  0  0  0  0  0  0  0  0
  142.3010  155.2750  133.5620 C   0  0  0  0  0  0  0  0  0  0  0  0
  141.5740  154.0830  133.4920 C   0  0  0  0  0  0  0  0  0  0  0  0
  140.1160  151.6530  132.5920 C   0  0  0  0  0  0  0  0  0  0  0  0
  139.6780  150.2660  132.0950 C   0  0  0  0  0  0  0  0  0  0  0  0
  139.5677  145.7059  130.7071 H   0  0  0  0  0  0  0  0  0  0  0  0
  138.9509  144.9844  129.1821 H   0  0  0  0  0  0  0  0  0  0  0  0
  140.4972  145.8985  129.1821 H   0  0  0  0  0  0  0  0  0  0  0  0
  140.8640  147.4760  130.8480 H   0  0  0  0  0  0  0  0  0  0  0  0
  141.0583  150.3148  130.4433 H   0  0  0  0  0  0  0  0  0  0  0  0
  142.0679  148.3810  132.5040 H   0  0  0  0  0  0  0  0  0  0  0  0
  142.9426  149.5891  131.4518 H   0  0  0  0  0  0  0  0  0  0  0  0
  141.7248  149.9351  134.1808 H   0  0  0  0  0  0  0  0  0  0  0  0
  143.2626  150.5806  133.4855 H   0  0  0  0  0  0  0  0  0  0  0  0
  144.1478  152.0599  132.4299 H   0  0  0  0  0  0  0  0  0  0  0  0
  145.3942  154.2409  132.5680 H   0  0  0  0  0  0  0  0  0  0  0  0
  145.0649  157.0167  133.1956 H   0  0  0  0  0  0  0  0  0  0  0  0
  141.4950  158.9240  135.7480 H   0  0  0  0  0  0  0  0  0  0  0  0
  140.5036  154.0605  133.7446 H   0  0  0  0  0  0  0  0  0  0  0  0
  139.4992  151.9337  133.4585 H   0  0  0  0  0  0  0  0  0  0  0  0
  139.9853  152.3720  131.7698 H   0  0  0  0  0  0  0  0  0  0  0  0
  139.4556  149.6234  132.9596 H   0  0  0  0  0  0  0  0  0  0  0  0
  138.7803  150.3752  131.4687 H   0  0  0  0  0  0  0  0  0  0  0  0
  1  2  1  0
  2  3  1  0
  3  4  2  0
  3  5  1  0
  5  6  1  0
  6  7  1  0
  7  8  1  0
  8  9  1  0
  9 10  1  0
 10 11  2  0
 11 12  1  0
 12 13  2  0
 13 14  1  0
 14 15  2  0
 15 16  1  0
 16 17  1  0
 16 18  2  0
 15 19  1  0
 19 20  1  0
 20 21  2  0
 20 22  1  0
 22 23  2  0
 22 24  1  0
 19 25  1  0
 25 26  2  0
  9 27  1  0
 27 28  1  0
 28  6  1  0
 26 10  1  0
 25 13  1  0
  1 29  1  0
  1 30  1  0
  1 31  1  0
  5 32  1  0
  6 33  1  0
  7 34  1  0
  7 35  1  0
  8 36  1  0
  8 37  1  0
 11 38  1  0
 12 39  1  0
 14 40  1  0
 17 41  1  0
 26 42  1  0
 27 43  1  0
 27 44  1  0
 28 45  1  0
 28 46  1  0
M  CHG  2  17  -1  24  -1
M  END
>  <UniqueID>  (18) 
18

>  <SMILES>  (18) 
COC(=O)NC1CCN(c2ccc3cc(C([NH-])=O)n(C(=O)C(=O)[O-])c3c2)CC1

>  <Energy>  (18) 
89.04487670204097

>  <Genealogy>  (18) 
COC(=O)NC1CCN(c2ccc3cc(C([NH-])=O)n(C(=O)C(=O)[O-])c3c2)CC1 (protonated)
COC(=O)NC1CCN(c2ccc3cc(C([NH-])=O)n(C(=O)C(=O)[O-])c3c2)CC1 (3D coordinates assigned)
COC(=O)NC1CCN(c2ccc3cc(C([NH-])=O)n(C(=O)C(=O)[O-])c3c2)CC1 (nonaromatic ring conformer: 89.04487670204097 kcal/mol)

>  <smiles>  (18) 
COC(=O)NC1CCN(c2ccc3cc(C(N)=O)n(C(=O)C(=O)O)c3c2)CC1

>  <score_type>  (18) 
oracle

>  <origin>  (18) 
adg

>  <m_score__min__energy>  (18) 
-8.1400000000000006

>  <m_primary>  (18) 
energy

$$$$
18:0
     RDKit          3D

 31 32  0  0  0  0  0  0  0  0999 V2000
  147.3360  155.3050  131.9960 N   0  0  0  0  0  0  0  0  0  0  0  0
  146.1620  155.6100  132.7500 C   0  0  0  0  0  0  0  0  0  0  0  0
  146.1260  156.6670  133.4340 O   0  0  0  0  0  0  0  0  0  0  0  0
  145.0160  154.6800  132.7920 C   0  0  0  0  0  0  0  0  0  0  0  0
  143.6930  155.1000  132.8900 C   0  0  0  0  0  0  0  0  0  0  0  0
  142.9490  153.9440  132.9610 C   0  0  0  0  0  0  0  0  0  0  0  0
  141.5710  153.7740  133.0420 C   0  0  0  0  0  0  0  0  0  0  0  0
  141.0690  152.4630  133.0520 C   0  0  0  0  0  0  0  0  0  0  0  0
  141.9460  151.3490  132.9910 C   0  0  0  0  0  0  0  0  0  0  0  0
  141.3890  149.9480  132.9370 C   0  0  0  0  0  0  0  0  0  0  0  0
  140.4260  149.8430  131.9490 F   0  0  0  0  0  0  0  0  0  0  0  0
  140.8070  149.6090  134.1460 F   0  0  0  0  0  0  0  0  0  0  0  0
  142.4140  149.0620  132.6640 F   0  0  0  0  0  0  0  0  0  0  0  0
  143.3400  151.5650  132.8820 C   0  0  0  0  0  0  0  0  0  0  0  0
  143.8150  152.8820  132.8960 C   0  0  0  0  0  0  0  0  0  0  0  0
  145.0920  153.3190  132.7880 N   0  0  0  0  0  0  0  0  0  0  0  0
  146.2650  152.5150  132.5800 C   0  0  0  0  0  0  0  0  0  0  0  0
  146.1980  151.4830  131.8580 O   0  0  0  0  0  0  0  0  0  0  0  0
  147.4740  152.8910  133.1820 O   0  0  0  0  0  0  0  0  0  0  0  0
  148.7420  152.7420  132.6070 C   0  0  0  0  0  0  0  0  0  0  0  0
  149.4100  153.7430  132.2300 O   0  0  0  0  0  0  0  0  0  0  0  0
  149.2810  151.3670  132.3760 C   0  0  0  0  0  0  0  0  0  0  0  0
  150.5270  151.2410  132.9620 F   0  0  0  0  0  0  0  0  0  0  0  0
  148.4280  150.4280  132.9240 F   0  0  0  0  0  0  0  0  0  0  0  0
  149.3910  151.1430  131.0170 F   0  0  0  0  0  0  0  0  0  0  0  0
  147.4650  154.3680  131.5540 H   0  0  0  0  0  0  0  0  0  0  0  0
  148.1180  155.9950  131.9410 H   0  0  0  0  0  0  0  0  0  0  0  0
  143.3210  156.1351  132.9071 H   0  0  0  0  0  0  0  0  0  0  0  0
  140.8952  154.6402  133.0966 H   0  0  0  0  0  0  0  0  0  0  0  0
  139.9830  152.2973  133.1078 H   0  0  0  0  0  0  0  0  0  0  0  0
  144.0349  150.7174  132.7884 H   0  0  0  0  0  0  0  0  0  0  0  0
  1  2  1  0
  2  3  2  0
  2  4  1  0
  4  5  2  0
  5  6  1  0
  6  7  2  0
  7  8  1  0
  8  9  2  0
  9 10  1  0
 10 11  1  0
 10 12  1  0
 10 13  1  0
  9 14  1  0
 14 15  2  0
 15 16  1  0
 16 17  1  0
 17 18  2  0
 17 19  1  0
 19 20  1  0
 20 21  2  0
 20 22  1  0
 22 23  1  0
 22 24  1  0
 22 25  1  0
 16  4  1  0
 15  6  1  0
  1 26  1  0
  1 27  1  0
  5 28  1  0
  7 29  1  0
  8 30  1  0
 14 31  1  0
M  END
>  <UniqueID>  (19) 
19

>  <SMILES>  (19) 
NC(=O)c1cc2ccc(C(F)(F)F)cc2n1C(=O)OC(=O)C(F)(F)F

>  <Energy>  (19) 
70.90854506190031

>  <Genealogy>  (19) 
NC(=O)c1cc2ccc(C(F)(F)F)cc2n1C(=O)OC(=O)C(F)(F)F (3D coordinates assigned)
NC(=O)c1cc2ccc(C(F)(F)F)cc2n1C(=O)OC(=O)C(F)(F)F (optimized conformer: 70.90854506190031 kcal/mol)

>  <smiles>  (19) 
NC(=O)c1cc2ccc(C(F)(F)F)cc2n1C(=O)OC(=O)C(F)(F)F

>  <score_type>  (19) 
oracle

>  <origin>  (19) 
adg

>  <m_score__min__energy>  (19) 
-5.9299999999999997

>  <m_primary>  (19) 
energy

$$$$
19:0
     RDKit          3D

 39 40  0  0  0  0  0  0  0  0999 V2000
  149.5840  158.5800  131.8280 C   0  0  0  0  0  0  0  0  0  0  0  0
  148.4380  159.4830  131.9730 N   0  0  0  0  0  0  0  0  0  0  0  0
  148.4430  160.7910  131.3080 C   0  0  0  0  0  0  0  0  0  0  0  0
  147.3150  159.0650  132.7800 C   0  0  0  0  0  0  0  0  0  0  0  0
  147.3510  157.9540  133.3780 O   0  0  0  0  0  0  0  0  0  0  0  0
  146.0750  159.9090  132.9150 C   0  0  0  0  0  0  0  0  0  0  0  0
  144.9110  159.1400  132.6260 O   0  0  0  0  0  0  0  0  0  0  0  0
  143.7200  159.2420  133.3540 C   0  0  0  0  0  0  0  0  0  0  0  0
  143.4990  160.2530  134.0750 O   0  0  0  0  0  0  0  0  0  0  0  0
  142.7540  158.1800  133.2920 N   0  0  0  0  0  0  0  0  0  0  0  0
  142.8880  156.9110  133.7690 C   0  0  0  0  0  0  0  0  0  0  0  0
  144.1360  156.3230  134.3050 C   0  0  0  0  0  0  0  0  0  0  0  0
  145.3870  156.5470  133.6520 N   0  0  0  0  0  0  0  0  0  0  0  0
  144.1110  155.6420  135.3640 O   0  0  0  0  0  0  0  0  0  0  0  0
  141.7010  156.1990  133.6020 C   0  0  0  0  0  0  0  0  0  0  0  0
  140.8300  157.0790  133.0030 C   0  0  0  0  0  0  0  0  0  0  0  0
  139.4990  156.9070  132.6350 C   0  0  0  0  0  0  0  0  0  0  0  0
  138.8240  158.0020  132.0710 C   0  0  0  0  0  0  0  0  0  0  0  0
  139.4880  159.2420  131.8770 C   0  0  0  0  0  0  0  0  0  0  0  0
  138.7340  160.4290  131.3320 C   0  0  0  0  0  0  0  0  0  0  0  0
  138.9760  160.5810  129.9770 F   0  0  0  0  0  0  0  0  0  0  0  0
  139.1240  161.5910  131.9730 F   0  0  0  0  0  0  0  0  0  0  0  0
  137.3800  160.2370  131.5290 F   0  0  0  0  0  0  0  0  0  0  0  0
  140.8340  159.3820  132.2870 C   0  0  0  0  0  0  0  0  0  0  0  0
  141.4870  158.2690  132.8280 C   0  0  0  0  0  0  0  0  0  0  0  0
  149.9511  158.2907  132.8237 H   0  0  0  0  0  0  0  0  0  0  0  0
  149.2744  157.6805  131.2757 H   0  0  0  0  0  0  0  0  0  0  0  0
  150.3862  159.0914  131.2757 H   0  0  0  0  0  0  0  0  0  0  0  0
  148.4460  161.5879  132.0663 H   0  0  0  0  0  0  0  0  0  0  0  0
  149.3415  160.8794  130.6796 H   0  0  0  0  0  0  0  0  0  0  0  0
  147.5452  160.8863  130.6796 H   0  0  0  0  0  0  0  0  0  0  0  0
  146.0088  160.2922  133.9440 H   0  0  0  0  0  0  0  0  0  0  0  0
  146.1348  160.7437  132.2011 H   0  0  0  0  0  0  0  0  0  0  0  0
  145.4410  157.0590  132.7440 H   0  0  0  0  0  0  0  0  0  0  0  0
  146.2660  156.1590  134.0590 H   0  0  0  0  0  0  0  0  0  0  0  0
  141.5032  155.1555  133.8884 H   0  0  0  0  0  0  0  0  0  0  0  0
  138.9908  155.9425  132.7814 H   0  0  0  0  0  0  0  0  0  0  0  0
  137.7693  157.8978  131.7763 H   0  0  0  0  0  0  0  0  0  0  0  0
  141.3562  160.3446  132.1830 H   0  0  0  0  0  0  0  0  0  0  0  0
  1  2  1  0
  2  3  1  0
  2  4  1  0
  4  5  2  0
  4  6  1  0
  6  7  1  0
  7  8  1  0
  8  9  2  0
  8 10  1  0
 10 11  1  0
 11 12  1  0
 12 13  1  0
 12 14  2  0
 11 15  2  0
 15 16  1  0
 16 17  2  0
 17 18  1  0
 18 19  2  0
 19 20  1  0
 20 21  1  0
 20 22  1  0
 20 23  1  0
 19 24  1  0
 24 25  2  0
 25 10  1  0
 25 16  1  0
  1 26  1  0
  1 27  1  0
  1 28  1  0
  3 29  1  0
  3 30  1  0
  3 31  1  0
  6 32  1  0
  6 33  1  0
 13 34  1  0
 13 35  1  0
 15 36  1  0
 17 37  1  0
 18 38  1  0
 24 39  1  0
M  END
>  <UniqueID>  (20) 
20

>  <SMILES>  (20) 
CN(C)C(=O)COC(=O)n1c(C(N)=O)cc2ccc(C(F)(F)F)cc21

>  <Energy>  (20) 
73.18762140510108

>  <Genealogy>  (20) 
CN(C)C(=O)COC(=O)n1c(C(N)=O)cc2ccc(C(F)(F)F)cc21 (3D coordinates assigned)
CN(C)C(=O)COC(=O)n1c(C(N)=O)cc2ccc(C(F)(F)F)cc21 (optimized conformer: 73.18762140510108 kcal/mol)

>  <smiles>  (20) 
CN(C)C(=O)COC(=O)n1c(C(N)=O)cc2ccc(C(F)(F)F)cc21

>  <score_type>  (20) 
oracle

>  <origin>  (20) 
adg

>  <m_score__min__energy>  (20) 
-6.4400000000000004

>  <m_primary>  (20) 
energy

$$$$
20:0
     RDKit          3D

 43 45  0  0  0  0  0  0  0  0999 V2000
  138.5860  157.9950  131.1230 N   0  0  0  0  0  0  0  0  0  0  0  0
  139.7470  158.6090  131.6850 C   0  0  0  0  0  0  0  0  0  0  0  0
  140.4640  159.3420  130.9540 O   0  0  0  0  0  0  0  0  0  0  0  0
  140.1060  158.4050  133.1090 C   0  0  0  0  0  0  0  0  0  0  0  0
  140.3360  159.4320  134.0250 C   0  0  0  0  0  0  0  0  0  0  0  0
  140.6740  158.8030  135.2030 C   0  0  0  0  0  0  0  0  0  0  0  0
  140.9980  159.3390  136.4450 C   0  0  0  0  0  0  0  0  0  0  0  0
  141.2830  158.4460  137.4930 C   0  0  0  0  0  0  0  0  0  0  0  0
  141.2160  157.0430  137.2910 C   0  0  0  0  0  0  0  0  0  0  0  0
  141.5630  156.0970  138.4120 C   0  0  0  0  0  0  0  0  0  0  0  0
  142.4070  155.1130  137.9320 F   0  0  0  0  0  0  0  0  0  0  0  0
  140.4220  155.5010  138.9210 F   0  0  0  0  0  0  0  0  0  0  0  0
  142.1940  156.7710  139.4430 F   0  0  0  0  0  0  0  0  0  0  0  0
  140.9040  156.5400  136.0070 C   0  0  0  0  0  0  0  0  0  0  0  0
  140.6440  157.4520  134.9790 C   0  0  0  0  0  0  0  0  0  0  0  0
  140.3080  157.1930  133.6980 N   0  0  0  0  0  0  0  0  0  0  0  0
  140.1200  155.8980  133.1100 C   0  0  0  0  0  0  0  0  0  0  0  0
  139.1100  155.6960  132.3860 O   0  0  0  0  0  0  0  0  0  0  0  0
  141.0980  154.8150  133.3590 C   0  0  0  0  0  0  0  0  0  0  0  0
  140.6730  153.7090  133.7900 O   0  0  0  0  0  0  0  0  0  0  0  0
  142.5150  154.9900  133.1380 N   0  0  0  0  0  0  0  0  0  0  0  0
  143.3550  153.8260  132.8310 C   0  0  0  0  0  0  0  0  0  0  0  0
  144.3710  153.6220  133.9570 C   0  0  0  0  0  0  0  0  0  0  0  0
  145.0290  154.8870  134.3190 N   0  0  0  0  0  0  0  0  0  0  0  0
  146.0860  154.8630  135.2960 C   0  0  0  0  0  0  0  0  0  0  0  0
  146.7510  155.9040  135.5520 O   0  0  0  0  0  0  0  0  0  0  0  0
  146.3910  153.6860  135.9700 O   0  0  0  0  0  0  0  0  0  0  0  0
  144.6910  156.1250  133.5990 C   0  0  0  0  0  0  0  0  0  0  0  0
  143.1680  156.2720  133.4580 C   0  0  0  0  0  0  0  0  0  0  0  0
  137.9990  157.3280  131.6690 H   0  0  0  0  0  0  0  0  0  0  0  0
  138.3300  158.1770  130.1270 H   0  0  0  0  0  0  0  0  0  0  0  0
  140.2629  160.5147  133.8447 H   0  0  0  0  0  0  0  0  0  0  0  0
  141.0302  160.4272  136.6023 H   0  0  0  0  0  0  0  0  0  0  0  0
  141.5613  158.8398  138.4817 H   0  0  0  0  0  0  0  0  0  0  0  0
  140.8666  155.4565  135.8209 H   0  0  0  0  0  0  0  0  0  0  0  0
  142.7226  152.9305  132.7405 H   0  0  0  0  0  0  0  0  0  0  0  0
  143.8861  153.9957  131.8828 H   0  0  0  0  0  0  0  0  0  0  0  0
  143.8514  153.2228  134.8405 H   0  0  0  0  0  0  0  0  0  0  0  0
  145.1405  152.9182  133.6070 H   0  0  0  0  0  0  0  0  0  0  0  0
  145.0870  156.9866  134.1565 H   0  0  0  0  0  0  0  0  0  0  0  0
  145.1370  156.0832  132.5944 H   0  0  0  0  0  0  0  0  0  0  0  0
  142.7589  156.6516  134.4059 H   0  0  0  0  0  0  0  0  0  0  0  0
  142.9699  156.9691  132.6305 H   0  0  0  0  0  0  0  0  0  0  0  0
  1  2  1  0
  2  3  2  0
  2  4  1  0
  4  5  2  0
  5  6  1  0
  6  7  2  0
  7  8  1  0
  8  9  2  0
  9 10  1  0
 10 11  1  0
 10 12  1  0
 10 13  1  0
  9 14  1  0
 14 15  2  0
 15 16  1  0
 16 17  1  0
 17 18  2  0
 17 19  1  0
 19 20  2  0
 19 21  1  0
 21 22  1  0
 22 23  1  0
 23 24  1  0
 24 25  1  0
 25 26  2  0
 25 27  1  0
 24 28  1  0
 28 29  1  0
 16  4  1  0
 29 21  1  0
 15  6  1  0
  1 30  1  0
  1 31  1  0
  5 32  1  0
  7 33  1  0
  8 34  1  0
 14 35  1  0
 22 36  1  0
 22 37  1  0
 23 38  1  0
 23 39  1  0
 28 40  1  0
 28 41  1  0
 29 42  1  0
 29 43  1  0
M  CHG  1  27  -1
M  END
>  <UniqueID>  (21) 
21

>  <SMILES>  (21) 
NC(=O)c1cc2ccc(C(F)(F)F)cc2n1C(=O)C(=O)N1CCN(C(=O)[O-])CC1

>  <Energy>  (21) 
87.88419555344129

>  <Genealogy>  (21) 
NC(=O)c1cc2ccc(C(F)(F)F)cc2n1C(=O)C(=O)N1CCN(C(=O)[O-])CC1 (protonated)
NC(=O)c1cc2ccc(C(F)(F)F)cc2n1C(=O)C(=O)N1CCN(C(=O)[O-])CC1 (3D coordinates assigned)
NC(=O)c1cc2ccc(C(F)(F)F)cc2n1C(=O)C(=O)N1CCN(C(=O)[O-])CC1 (nonaromatic ring conformer: 87.88419555344129 kcal/mol)

>  <smiles>  (21) 
NC(=O)c1cc2ccc(C(F)(F)F)cc2n1C(=O)C(=O)N1CCN(C(=O)O)CC1

>  <score_type>  (21) 
oracle

>  <origin>  (21) 
adg

>  <m_score__min__energy>  (21) 
-7.5700000000000003

>  <m_primary>  (21) 
energy

$$$$
21:0
     RDKit          3D

 33 34  0  0  0  0  0  0  0  0999 V2000
  147.3620  161.1210  134.1510 H   0  0  0  0  0  0  0  0  0  0  0  0
  146.3520  161.3600  134.0410 N   0  0  0  0  0  0  0  0  0  0  0  0
  145.4080  160.3770  133.6200 C   0  0  0  0  0  0  0  0  0  0  0  0
  144.2280  160.7270  133.3580 O   0  0  0  0  0  0  0  0  0  0  0  0
  145.8160  158.9600  133.5220 C   0  0  0  0  0  0  0  0  0  0  0  0
  144.9180  157.8930  133.5160 C   0  0  0  0  0  0  0  0  0  0  0  0
  143.8248  157.9406  133.6287 H   0  0  0  0  0  0  0  0  0  0  0  0
  145.6910  156.7670  133.3390 C   0  0  0  0  0  0  0  0  0  0  0  0
  145.3220  155.4290  133.2510 C   0  0  0  0  0  0  0  0  0  0  0  0
  144.2662  155.1270  133.3156 H   0  0  0  0  0  0  0  0  0  0  0  0
  146.3390  154.4740  133.0770 C   0  0  0  0  0  0  0  0  0  0  0  0
  146.0784  153.4086  132.9937 H   0  0  0  0  0  0  0  0  0  0  0  0
  147.6980  154.8730  133.0080 C   0  0  0  0  0  0  0  0  0  0  0  0
  148.7700  153.8480  132.7900 C   0  0  0  0  0  0  0  0  0  0  0  0
  149.1412  153.4931  133.7627 H   0  0  0  0  0  0  0  0  0  0  0  0
  148.3570  153.0003  132.2236 H   0  0  0  0  0  0  0  0  0  0  0  0
  149.5984  154.2986  132.2236 H   0  0  0  0  0  0  0  0  0  0  0  0
  148.0330  156.2420  133.0850 C   0  0  0  0  0  0  0  0  0  0  0  0
  149.0803  156.5717  133.0177 H   0  0  0  0  0  0  0  0  0  0  0  0
  146.9990  157.1670  133.2490 C   0  0  0  0  0  0  0  0  0  0  0  0
  147.0930  158.5080  133.3670 N   0  0  0  0  0  0  0  0  0  0  0  0
  148.3080  159.2730  133.3570 C   0  0  0  0  0  0  0  0  0  0  0  0
  148.8090  159.6350  134.4560 O   0  0  0  0  0  0  0  0  0  0  0  0
  148.9560  159.6650  132.0760 C   0  0  0  0  0  0  0  0  0  0  0  0
  148.6290  160.8480  131.5060 C   0  0  0  0  0  0  0  0  0  0  0  0
  147.8553  161.4453  132.0106 H   0  0  0  0  0  0  0  0  0  0  0  0
  149.2110  161.4160  130.2700 C   0  0  0  0  0  0  0  0  0  0  0  0
  149.5270  162.6300  130.1740 O   0  0  0  0  0  0  0  0  0  0  0  0
  149.3850  160.5870  129.1690 O   0  0  0  0  0  0  0  0  0  0  0  0
  149.9650  158.7290  131.4560 C   0  0  0  0  0  0  0  0  0  0  0  0
  150.5224  158.2119  132.2510 H   0  0  0  0  0  0  0  0  0  0  0  0
  149.4431  157.9880  130.8326 H   0  0  0  0  0  0  0  0  0  0  0  0
  150.6648  159.3050  130.8326 H   0  0  0  0  0  0  0  0  0  0  0  0
  1  2  1  0
  2  3  1  0
  3  4  2  0
  3  5  1  0
  5  6  2  0
  6  7  1  0
  6  8  1  0
  8  9  2  0
  9 10  1  0
  9 11  1  0
 11 12  1  0
 11 13  2  0
 13 14  1  0
 14 15  1  0
 14 16  1  0
 14 17  1  0
 13 18  1  0
 18 19  1  0
 18 20  2  0
 20 21  1  0
 21 22  1  0
 22 23  2  0
 22 24  1  0
 24 25  2  0
 25 26  1  0
 25 27  1  0
 27 28  2  0
 27 29  1  0
 24 30  1  0
 30 31  1  0
 30 32  1  0
 30 33  1  0
 21  5  1  0
 20  8  1  0
M  CHG  2   2  -1  29  -1
M  END
>  <UniqueID>  (22) 
22

>  <SMILES>  (22) 
C/C(=C\C(=O)[O-])C(=O)n1c(C([NH-])=O)cc2ccc(C)cc21

>  <Energy>  (22) 
75.36045574653669

>  <Genealogy>  (22) 
C/C(=C\C(=O)[O-])C(=O)n1c(C([NH-])=O)cc2ccc(C)cc21 (protonated)
C/C(=C\C(=O)[O-])C(=O)n1c(C([NH-])=O)cc2ccc(C)cc21 (cis-trans isomerization)
C/C(=C\C(=O)[O-])C(=O)n1c(C([NH-])=O)cc2ccc(C)cc21 (3D coordinates assigned)
C/C(=C\C(=O)[O-])C(=O)n1c(C([NH-])=O)cc2ccc(C)cc21 (optimized conformer: 75.36045574653669 kcal/mol)

>  <smiles>  (22) 
C/C(=C\C(=O)O)C(=O)n1c(C(N)=O)cc2ccc(C)cc21

>  <score_type>  (22) 
oracle

>  <origin>  (22) 
adg

>  <m_score__min__energy>  (22) 
-7.1600000000000001

>  <m_primary>  (22) 
energy

$$$$
22:0
     RDKit          3D

 39 40  0  0  0  0  0  0  0  0999 V2000
  140.8730  151.0050  132.7870 C   0  0  0  0  0  0  0  0  0  0  0  0
  141.4920  152.2410  133.4710 C   0  0  0  0  0  0  0  0  0  0  0  0
  142.9200  152.4420  132.9310 C   0  0  0  0  0  0  0  0  0  0  0  0
  140.6780  153.4320  133.1590 N   0  0  0  0  0  0  0  0  0  0  0  0
  141.0350  154.7710  133.5510 C   0  0  0  0  0  0  0  0  0  0  0  0
  142.1580  155.0020  134.0770 O   0  0  0  0  0  0  0  0  0  0  0  0
  140.1010  155.8910  133.3320 C   0  0  0  0  0  0  0  0  0  0  0  0
  139.1080  155.7430  132.5720 O   0  0  0  0  0  0  0  0  0  0  0  0
  140.3130  157.1540  133.9820 N   0  0  0  0  0  0  0  0  0  0  0  0
  140.1450  158.3990  133.4550 C   0  0  0  0  0  0  0  0  0  0  0  0
  139.8000  158.7010  132.0490 C   0  0  0  0  0  0  0  0  0  0  0  0
  138.5340  158.3010  131.5270 N   0  0  0  0  0  0  0  0  0  0  0  0
  140.6030  159.3250  131.3070 O   0  0  0  0  0  0  0  0  0  0  0  0
  140.3970  159.3740  134.4180 C   0  0  0  0  0  0  0  0  0  0  0  0
  140.7220  158.6810  135.5620 C   0  0  0  0  0  0  0  0  0  0  0  0
  141.0620  159.1470  136.8290 C   0  0  0  0  0  0  0  0  0  0  0  0
  141.3310  158.1980  137.8300 C   0  0  0  0  0  0  0  0  0  0  0  0
  141.2310  156.8090  137.5600 C   0  0  0  0  0  0  0  0  0  0  0  0
  141.5620  155.8000  138.6310 C   0  0  0  0  0  0  0  0  0  0  0  0
  140.4150  155.1640  139.0750 F   0  0  0  0  0  0  0  0  0  0  0  0
  142.4300  154.8380  138.1450 F   0  0  0  0  0  0  0  0  0  0  0  0
  142.1580  156.4480  139.6960 F   0  0  0  0  0  0  0  0  0  0  0  0
  140.9030  156.3760  136.2540 C   0  0  0  0  0  0  0  0  0  0  0  0
  140.6600  157.3430  135.2730 C   0  0  0  0  0  0  0  0  0  0  0  0
  141.5800  152.0450  134.9700 C   0  0  0  0  0  0  0  0  0  0  0  0
  140.9820  151.0810  135.5180 O   0  0  0  0  0  0  0  0  0  0  0  0
  142.2540  152.9640  135.7660 O   0  0  0  0  0  0  0  0  0  0  0  0
  140.5199  150.2999  133.5539 H   0  0  0  0  0  0  0  0  0  0  0  0
  140.0258  151.3190  132.1596 H   0  0  0  0  0  0  0  0  0  0  0  0
  141.6319  150.5146  132.1596 H   0  0  0  0  0  0  0  0  0  0  0  0
  143.6202  152.5406  133.7737 H   0  0  0  0  0  0  0  0  0  0  0  0
  143.2052  151.5751  132.3168 H   0  0  0  0  0  0  0  0  0  0  0  0
  142.9548  153.3539  132.3168 H   0  0  0  0  0  0  0  0  0  0  0  0
  139.7710  153.2990  132.6560 H   0  0  0  0  0  0  0  0  0  0  0  0
  138.0000  157.5140  131.9600 H   0  0  0  0  0  0  0  0  0  0  0  0
  140.3469  160.4655  134.2910 H   0  0  0  0  0  0  0  0  0  0  0  0
  141.1184  160.2251  137.0401 H   0  0  0  0  0  0  0  0  0  0  0  0
  141.6227  158.5364  138.8352 H   0  0  0  0  0  0  0  0  0  0  0  0
  140.8405  155.3040  136.0154 H   0  0  0  0  0  0  0  0  0  0  0  0
  1  2  1  0
  2  3  1  0
  2  4  1  0
  4  5  1  0
  5  6  2  0
  5  7  1  0
  7  8  2  0
  7  9  1  0
  9 10  1  0
 10 11  1  0
 11 12  1  0
 11 13  2  0
 10 14  2  0
 14 15  1  0
 15 16  2  0
 16 17  1  0
 17 18  2  0
 18 19  1  0
 19 20  1  0
 19 21  1  0
 19 22  1  0
 18 23  1  0
 23 24  2  0
  2 25  1  0
 25 26  2  0
 25 27  1  0
 24  9  1  0
 24 15  1  0
  1 28  1  0
  1 29  1  0
  1 30  1  0
  3 31  1  0
  3 32  1  0
  3 33  1  0
  4 34  1  0
 12 35  1  0
 14 36  1  0
 16 37  1  0
 17 38  1  0
 23 39  1  0
M  CHG  2  12  -1  27  -1
M  END
>  <UniqueID>  (23) 
23

>  <SMILES>  (23) 
CC(C)(NC(=O)C(=O)n1c(C([NH-])=O)cc2ccc(C(F)(F)F)cc21)C(=O)[O-]

>  <Energy>  (23) 
76.28844364350013

>  <Genealogy>  (23) 
CC(C)(NC(=O)C(=O)n1c(C([NH-])=O)cc2ccc(C(F)(F)F)cc21)C(=O)[O-] (protonated)
CC(C)(NC(=O)C(=O)n1c(C([NH-])=O)cc2ccc(C(F)(F)F)cc21)C(=O)[O-] (3D coordinates assigned)
CC(C)(NC(=O)C(=O)n1c(C([NH-])=O)cc2ccc(C(F)(F)F)cc21)C(=O)[O-] (optimized conformer: 76.28844364350013 kcal/mol)

>  <smiles>  (23) 
CC(C)(NC(=O)C(=O)n1c(C(N)=O)cc2ccc(C(F)(F)F)cc21)C(=O)O

>  <score_type>  (23) 
oracle

>  <origin>  (23) 
adg

>  <m_score__min__energy>  (23) 
-7.0700000000000003

>  <m_primary>  (23) 
energy

$$$$
23:0
     RDKit          3D

 46 47  0  0  0  0  0  0  0  0999 V2000
  146.8960  155.3220  132.5190 C   0  0  0  0  0  0  0  0  0  0  0  0
  146.1390  154.5710  133.6410 C   0  0  0  0  0  0  0  0  0  0  0  0
  147.1750  153.7910  134.4720 C   0  0  0  0  0  0  0  0  0  0  0  0
  145.4600  155.5380  134.5400 N   0  0  0  0  0  0  0  0  0  0  0  0
  145.5200  156.9450  134.1010 C   0  0  0  0  0  0  0  0  0  0  0  0
  144.2630  157.3030  133.3730 C   0  0  0  0  0  0  0  0  0  0  0  0
  143.4040  156.4190  133.1170 O   0  0  0  0  0  0  0  0  0  0  0  0
  144.0260  158.6200  132.9990 O   0  0  0  0  0  0  0  0  0  0  0  0
  145.1500  153.5680  133.0710 C   0  0  0  0  0  0  0  0  0  0  0  0
  145.5350  152.6710  132.2680 O   0  0  0  0  0  0  0  0  0  0  0  0
  143.8190  153.6040  133.4960 O   0  0  0  0  0  0  0  0  0  0  0  0
  142.7210  153.5570  132.5940 C   0  0  0  0  0  0  0  0  0  0  0  0
  141.4470  153.7600  133.3520 C   0  0  0  0  0  0  0  0  0  0  0  0
  140.4890  152.9610  133.1740 O   0  0  0  0  0  0  0  0  0  0  0  0
  141.3050  154.8510  134.2790 N   0  0  0  0  0  0  0  0  0  0  0  0
  141.7290  154.8990  135.5730 C   0  0  0  0  0  0  0  0  0  0  0  0
  142.5150  153.8550  136.2660 C   0  0  0  0  0  0  0  0  0  0  0  0
  143.9320  153.9780  136.3540 N   0  0  0  0  0  0  0  0  0  0  0  0
  141.9530  152.8420  136.7590 O   0  0  0  0  0  0  0  0  0  0  0  0
  141.3770  156.1160  136.1570 C   0  0  0  0  0  0  0  0  0  0  0  0
  140.7170  156.8160  135.1730 C   0  0  0  0  0  0  0  0  0  0  0  0
  140.1310  158.0780  135.2120 C   0  0  0  0  0  0  0  0  0  0  0  0
  139.4820  158.5390  134.0530 C   0  0  0  0  0  0  0  0  0  0  0  0
  139.4260  157.7330  132.8880 C   0  0  0  0  0  0  0  0  0  0  0  0
  138.7150  158.2180  131.6580 C   0  0  0  0  0  0  0  0  0  0  0  0
  139.5830  158.9660  130.8840 F   0  0  0  0  0  0  0  0  0  0  0  0
  137.6360  159.0030  132.0210 F   0  0  0  0  0  0  0  0  0  0  0  0
  140.0290  156.4570  132.8900 C   0  0  0  0  0  0  0  0  0  0  0  0
  140.6840  156.0310  134.0500 C   0  0  0  0  0  0  0  0  0  0  0  0
  147.6090  156.0294  132.9677 H   0  0  0  0  0  0  0  0  0  0  0  0
  147.4410  154.5976  131.8960 H   0  0  0  0  0  0  0  0  0  0  0  0
  146.1759  155.8728  131.8960 H   0  0  0  0  0  0  0  0  0  0  0  0
  146.9746  153.9419  135.5430 H   0  0  0  0  0  0  0  0  0  0  0  0
  147.1049  152.7195  134.2332 H   0  0  0  0  0  0  0  0  0  0  0  0
  148.1854  154.1545  134.2332 H   0  0  0  0  0  0  0  0  0  0  0  0
  144.4530  155.2670  134.6430 H   0  0  0  0  0  0  0  0  0  0  0  0
  145.6314  157.5972  134.9797 H   0  0  0  0  0  0  0  0  0  0  0  0
  146.3799  157.0791  133.4283 H   0  0  0  0  0  0  0  0  0  0  0  0
  142.8305  154.3511  131.8407 H   0  0  0  0  0  0  0  0  0  0  0  0
  142.6986  152.5782  132.0926 H   0  0  0  0  0  0  0  0  0  0  0  0
  144.5340  153.8730  135.5060 H   0  0  0  0  0  0  0  0  0  0  0  0
  141.5832  156.4461  137.1858 H   0  0  0  0  0  0  0  0  0  0  0  0
  140.1743  158.6955  136.1213 H   0  0  0  0  0  0  0  0  0  0  0  0
  139.0134  159.5342  134.0501 H   0  0  0  0  0  0  0  0  0  0  0  0
  138.3605  157.3507  131.0816 H   0  0  0  0  0  0  0  0  0  0  0  0
  139.9849  155.8124  131.9998 H   0  0  0  0  0  0  0  0  0  0  0  0
  1  2  1  0
  2  3  1  0
  2  4  1  0
  4  5  1  0
  5  6  1  0
  6  7  2  0
  6  8  1  0
  2  9  1  0
  9 10  2  0
  9 11  1  0
 11 12  1  0
 12 13  1  0
 13 14  2  0
 13 15  1  0
 15 16  1  0
 16 17  1  0
 17 18  1  0
 17 19  2  0
 16 20  2  0
 20 21  1  0
 21 22  2  0
 22 23  1  0
 23 24  2  0
 24 25  1  0
 25 26  1  0
 25 27  1  0
 24 28  1  0
 28 29  2  0
 29 15  1  0
 29 21  1  0
  1 30  1  0
  1 31  1  0
  1 32  1  0
  3 33  1  0
  3 34  1  0
  3 35  1  0
  4 36  1  0
  5 37  1  0
  5 38  1  0
 12 39  1  0
 12 40  1  0
 18 41  1  0
 20 42  1  0
 22 43  1  0
 23 44  1  0
 25 45  1  0
 28 46  1  0
M  CHG  2   8  -1  18  -1
M  END
>  <UniqueID>  (24) 
24

>  <SMILES>  (24) 
CC(C)(NCC(=O)[O-])C(=O)OCC(=O)n1c(C([NH-])=O)cc2ccc(C(F)F)cc21

>  <Energy>  (24) 
81.66229807833746

>  <Genealogy>  (24) 
CC(C)(NCC(=O)[O-])C(=O)OCC(=O)n1c(C([NH-])=O)cc2ccc(C(F)F)cc21 (protonated)
CC(C)(NCC(=O)[O-])C(=O)OCC(=O)n1c(C([NH-])=O)cc2ccc(C(F)F)cc21 (3D coordinates assigned)
CC(C)(NCC(=O)[O-])C(=O)OCC(=O)n1c(C([NH-])=O)cc2ccc(C(F)F)cc21 (optimized conformer: 81.66229807833746 kcal/mol)

>  <smiles>  (24) 
CC(C)(NCC(=O)O)C(=O)OCC(=O)n1c(C(N)=O)cc2ccc(C(F)F)cc21

>  <score_type>  (24) 
oracle

>  <origin>  (24) 
adg

>  <m_score__min__energy>  (24) 
-6.8600000000000003

>  <m_primary>  (24) 
energy

$$$$
24:0
     RDKit          3D

 34 35  0  0  0  0  0  0  0  0999 V2000
  143.9240  153.7260  137.1560 C   0  0  0  0  0  0  0  0  0  0  0  0
  144.9980  154.0680  136.2210 N   0  0  0  0  0  0  0  0  0  0  0  0
  146.3590  153.7280  136.5430 C   0  0  0  0  0  0  0  0  0  0  0  0
  147.3150  154.2990  135.9530 O   0  0  0  0  0  0  0  0  0  0  0  0
  146.6390  152.7480  137.4870 O   0  0  0  0  0  0  0  0  0  0  0  0
  144.7050  154.9480  135.1230 C   0  0  0  0  0  0  0  0  0  0  0  0
  143.7690  155.7870  135.2350 O   0  0  0  0  0  0  0  0  0  0  0  0
  145.4520  154.8620  133.8510 C   0  0  0  0  0  0  0  0  0  0  0  0
  145.1480  153.9840  132.9990 O   0  0  0  0  0  0  0  0  0  0  0  0
  146.5220  155.7770  133.5660 N   0  0  0  0  0  0  0  0  0  0  0  0
  147.7760  155.4690  133.1340 C   0  0  0  0  0  0  0  0  0  0  0  0
  148.3390  154.1080  133.0260 C   0  0  0  0  0  0  0  0  0  0  0  0
  147.6480  152.9750  133.5540 N   0  0  0  0  0  0  0  0  0  0  0  0
  149.4700  153.9470  132.4930 O   0  0  0  0  0  0  0  0  0  0  0  0
  148.4780  156.6250  132.8010 C   0  0  0  0  0  0  0  0  0  0  0  0
  147.6050  157.6620  133.0410 C   0  0  0  0  0  0  0  0  0  0  0  0
  147.7620  159.0290  132.8380 C   0  0  0  0  0  0  0  0  0  0  0  0
  146.6660  159.8660  133.1100 C   0  0  0  0  0  0  0  0  0  0  0  0
  145.4400  159.3270  133.5790 C   0  0  0  0  0  0  0  0  0  0  0  0
  144.2510  160.2270  133.8010 C   0  0  0  0  0  0  0  0  0  0  0  0
  144.6000  161.5260  133.4820 F   0  0  0  0  0  0  0  0  0  0  0  0
  143.1880  159.8380  133.0040 F   0  0  0  0  0  0  0  0  0  0  0  0
  143.8420  160.1820  135.1220 F   0  0  0  0  0  0  0  0  0  0  0  0
  145.3120  157.9290  133.7440 C   0  0  0  0  0  0  0  0  0  0  0  0
  146.4290  157.1230  133.4940 C   0  0  0  0  0  0  0  0  0  0  0  0
  144.2860  153.8413  138.1883 H   0  0  0  0  0  0  0  0  0  0  0  0
  143.0671  154.3957  136.9910 H   0  0  0  0  0  0  0  0  0  0  0  0
  143.6121  152.6841  136.9910 H   0  0  0  0  0  0  0  0  0  0  0  0
  146.8200  153.0920  134.1760 H   0  0  0  0  0  0  0  0  0  0  0  0
  148.0330  152.0160  133.4110 H   0  0  0  0  0  0  0  0  0  0  0  0
  149.5098  156.6945  132.4262 H   0  0  0  0  0  0  0  0  0  0  0  0
  148.7148  159.4425  132.4757 H   0  0  0  0  0  0  0  0  0  0  0  0
  146.7598  160.9513  132.9575 H   0  0  0  0  0  0  0  0  0  0  0  0
  144.3571  157.4848  134.0614 H   0  0  0  0  0  0  0  0  0  0  0  0
  1  2  1  0
  2  3  1  0
  3  4  2  0
  3  5  1  0
  2  6  1  0
  6  7  2  0
  6  8  1  0
  8  9  2  0
  8 10  1  0
 10 11  1  0
 11 12  1  0
 12 13  1  0
 12 14  2  0
 11 15  2  0
 15 16  1  0
 16 17  2  0
 17 18  1  0
 18 19  2  0
 19 20  1  0
 20 21  1  0
 20 22  1  0
 20 23  1  0
 19 24  1  0
 24 25  2  0
 25 10  1  0
 25 16  1  0
  1 26  1  0
  1 27  1  0
  1 28  1  0
 13 29  1  0
 13 30  1  0
 15 31  1  0
 17 32  1  0
 18 33  1  0
 24 34  1  0
M  CHG  1   5  -1
M  END
>  <UniqueID>  (25) 
25

>  <SMILES>  (25) 
CN(C(=O)[O-])C(=O)C(=O)n1c(C(N)=O)cc2ccc(C(F)(F)F)cc21

>  <Energy>  (25) 
79.44940316424288

>  <Genealogy>  (25) 
CN(C(=O)[O-])C(=O)C(=O)n1c(C(N)=O)cc2ccc(C(F)(F)F)cc21 (protonated)
CN(C(=O)[O-])C(=O)C(=O)n1c(C(N)=O)cc2ccc(C(F)(F)F)cc21 (3D coordinates assigned)
CN(C(=O)[O-])C(=O)C(=O)n1c(C(N)=O)cc2ccc(C(F)(F)F)cc21 (optimized conformer: 79.44940316424288 kcal/mol)

>  <smiles>  (25) 
CN(C(=O)O)C(=O)C(=O)n1c(C(N)=O)cc2ccc(C(F)(F)F)cc21

>  <score_type>  (25) 
oracle

>  <origin>  (25) 
adg

>  <m_score__min__energy>  (25) 
-6.5099999999999998

>  <m_primary>  (25) 
energy

$$$$
25:0
     RDKit          3D

 45 46  0  0  0  0  0  0  0  0999 V2000
  140.0440  159.6450  131.9570 C   0  0  0  0  0  0  0  0  0  0  0  0
  139.8790  158.4530  132.7950 N   0  0  0  0  0  0  0  0  0  0  0  0
  138.5490  157.8630  132.9770 C   0  0  0  0  0  0  0  0  0  0  0  0
  141.0090  157.8670  133.4780 C   0  0  0  0  0  0  0  0  0  0  0  0
  140.8140  156.9260  134.2970 O   0  0  0  0  0  0  0  0  0  0  0  0
  142.3470  158.3380  133.2370 N   0  0  0  0  0  0  0  0  0  0  0  0
  143.4790  157.9770  134.0440 C   0  0  0  0  0  0  0  0  0  0  0  0
  143.3500  157.1840  135.0150 O   0  0  0  0  0  0  0  0  0  0  0  0
  144.7700  158.5380  133.7590 N   0  0  0  0  0  0  0  0  0  0  0  0
  145.0860  159.8470  133.5530 C   0  0  0  0  0  0  0  0  0  0  0  0
  144.1710  160.9970  133.7130 C   0  0  0  0  0  0  0  0  0  0  0  0
  142.7940  160.8970  133.3560 N   0  0  0  0  0  0  0  0  0  0  0  0
  144.6030  162.0740  134.2060 O   0  0  0  0  0  0  0  0  0  0  0  0
  146.4360  159.9760  133.2300 C   0  0  0  0  0  0  0  0  0  0  0  0
  146.9390  158.6940  133.2480 C   0  0  0  0  0  0  0  0  0  0  0  0
  148.2230  158.2350  132.9900 C   0  0  0  0  0  0  0  0  0  0  0  0
  148.4570  156.8520  133.0540 C   0  0  0  0  0  0  0  0  0  0  0  0
  147.4060  155.9360  133.3660 C   0  0  0  0  0  0  0  0  0  0  0  0
  147.6270  154.4110  133.4380 C   0  0  0  0  0  0  0  0  0  0  0  0
  146.4300  153.5970  132.8910 C   0  0  0  0  0  0  0  0  0  0  0  0
  147.8470  153.9920  134.9080 C   0  0  0  0  0  0  0  0  0  0  0  0
  148.8720  154.0320  132.6060 C   0  0  0  0  0  0  0  0  0  0  0  0
  146.1090  156.4630  133.6160 C   0  0  0  0  0  0  0  0  0  0  0  0
  145.9150  157.8460  133.5670 C   0  0  0  0  0  0  0  0  0  0  0  0
  140.1665  160.5301  132.5985 H   0  0  0  0  0  0  0  0  0  0  0  0
  140.9343  159.5264  131.3219 H   0  0  0  0  0  0  0  0  0  0  0  0
  139.1550  159.7727  131.3219 H   0  0  0  0  0  0  0  0  0  0  0  0
  138.3341  157.7677  134.0516 H   0  0  0  0  0  0  0  0  0  0  0  0
  137.7934  158.5104  132.5080 H   0  0  0  0  0  0  0  0  0  0  0  0
  138.5218  156.8684  132.5080 H   0  0  0  0  0  0  0  0  0  0  0  0
  142.5270  158.9660  132.4240 H   0  0  0  0  0  0  0  0  0  0  0  0
  142.5030  160.4420  132.4630 H   0  0  0  0  0  0  0  0  0  0  0  0
  146.9831  160.9041  133.0080 H   0  0  0  0  0  0  0  0  0  0  0  0
  149.0346  158.9350  132.7423 H   0  0  0  0  0  0  0  0  0  0  0  0
  149.4688  156.4665  132.8602 H   0  0  0  0  0  0  0  0  0  0  0  0
  145.8432  153.1980  133.7315 H   0  0  0  0  0  0  0  0  0  0  0  0
  145.7929  154.2499  132.2763 H   0  0  0  0  0  0  0  0  0  0  0  0
  146.8030  152.7645  132.2763 H   0  0  0  0  0  0  0  0  0  0  0  0
  147.4403  154.7666  135.5748 H   0  0  0  0  0  0  0  0  0  0  0  0
  147.3335  153.0380  135.0981 H   0  0  0  0  0  0  0  0  0  0  0  0
  148.9239  153.8730  135.0981 H   0  0  0  0  0  0  0  0  0  0  0  0
  149.7019  153.7793  133.2823 H   0  0  0  0  0  0  0  0  0  0  0  0
  148.6388  153.1642  131.9716 H   0  0  0  0  0  0  0  0  0  0  0  0
  149.1619  154.8826  131.9716 H   0  0  0  0  0  0  0  0  0  0  0  0
  145.2692  155.7905  133.8450 H   0  0  0  0  0  0  0  0  0  0  0  0
  1  2  1  0
  2  3  1  0
  2  4  1  0
  4  5  2  0
  4  6  1  0
  6  7  1  0
  7  8  2  0
  7  9  1  0
  9 10  1  0
 10 11  1  0
 11 12  1  0
 11 13  2  0
 10 14  2  0
 14 15  1  0
 15 16  2  0
 16 17  1  0
 17 18  2  0
 18 19  1  0
 19 20  1  0
 19 21  1  0
 19 22  1  0
 18 23  1  0
 23 24  2  0
 24  9  1  0
 24 15  1  0
  1 25  1  0
  1 26  1  0
  1 27  1  0
  3 28  1  0
  3 29  1  0
  3 30  1  0
  6 31  1  0
 12 32  1  0
 14 33  1  0
 16 34  1  0
 17 35  1  0
 20 36  1  0
 20 37  1  0
 20 38  1  0
 21 39  1  0
 21 40  1  0
 21 41  1  0
 22 42  1  0
 22 43  1  0
 22 44  1  0
 23 45  1  0
M  CHG  1  12  -1
M  END
>  <UniqueID>  (26) 
26

>  <SMILES>  (26) 
CN(C)C(=O)NC(=O)n1c(C([NH-])=O)cc2ccc(C(C)(C)C)cc21

>  <Energy>  (26) 
82.6172949462699

>  <Genealogy>  (26) 
CN(C)C(=O)NC(=O)n1c(C([NH-])=O)cc2ccc(C(C)(C)C)cc21 (protonated)
CN(C)C(=O)NC(=O)n1c(C([NH-])=O)cc2ccc(C(C)(C)C)cc21 (3D coordinates assigned)
CN(C)C(=O)NC(=O)n1c(C([NH-])=O)cc2ccc(C(C)(C)C)cc21 (optimized conformer: 82.6172949462699 kcal/mol)

>  <smiles>  (26) 
CN(C)C(=O)NC(=O)n1c(C(N)=O)cc2ccc(C(C)(C)C)cc21

>  <score_type>  (26) 
oracle

>  <origin>  (26) 
adg

>  <m_score__min__energy>  (26) 
-7.8700000000000001

>  <m_primary>  (26) 
energy

$$$$
26:0
     RDKit          3D

 41 42  0  0  0  0  0  0  0  0999 V2000
  140.6720  158.7980  134.7670 H   0  0  0  0  0  0  0  0  0  0  0  0
  140.1880  159.3340  135.4480 O   0  0  0  0  0  0  0  0  0  0  0  0
  140.2770  158.6090  136.6430 C   0  0  0  0  0  0  0  0  0  0  0  0
  139.3358  158.7094  137.2035 H   0  0  0  0  0  0  0  0  0  0  0  0
  141.1082  159.0006  137.2478 H   0  0  0  0  0  0  0  0  0  0  0  0
  140.5270  157.1370  136.3290 C   0  0  0  0  0  0  0  0  0  0  0  0
  140.2108  156.5251  137.1867 H   0  0  0  0  0  0  0  0  0  0  0  0
  141.5999  156.9918  136.1347 H   0  0  0  0  0  0  0  0  0  0  0  0
  139.7910  156.7410  135.1730 O   0  0  0  0  0  0  0  0  0  0  0  0
  140.3670  156.5960  133.9060 C   0  0  0  0  0  0  0  0  0  0  0  0
  140.3080  157.5290  133.0590 O   0  0  0  0  0  0  0  0  0  0  0  0
  141.1060  155.3390  133.5770 C   0  0  0  0  0  0  0  0  0  0  0  0
  140.8138  154.9989  132.5726 H   0  0  0  0  0  0  0  0  0  0  0  0
  140.8548  154.5711  134.3235 H   0  0  0  0  0  0  0  0  0  0  0  0
  142.5860  155.5810  133.6060 C   0  0  0  0  0  0  0  0  0  0  0  0
  143.2730  154.7344  133.7523 H   0  0  0  0  0  0  0  0  0  0  0  0
  143.0790  156.8140  133.4560 C   0  0  0  0  0  0  0  0  0  0  0  0
  142.3787  157.6497  133.3106 H   0  0  0  0  0  0  0  0  0  0  0  0
  144.5270  157.0970  133.4780 C   0  0  0  0  0  0  0  0  0  0  0  0
  145.3350  156.1330  133.5440 O   0  0  0  0  0  0  0  0  0  0  0  0
  145.0360  158.4410  133.4280 N   0  0  0  0  0  0  0  0  0  0  0  0
  144.3770  159.5870  133.7580 C   0  0  0  0  0  0  0  0  0  0  0  0
  142.9450  159.6690  134.1310 C   0  0  0  0  0  0  0  0  0  0  0  0
  142.6140  159.7930  135.3390 O   0  0  0  0  0  0  0  0  0  0  0  0
  141.9200  159.5950  133.1370 N   0  0  0  0  0  0  0  0  0  0  0  0
  140.9160  159.6190  133.4200 H   0  0  0  0  0  0  0  0  0  0  0  0
  142.1470  159.5610  132.1190 H   0  0  0  0  0  0  0  0  0  0  0  0
  145.2280  160.6870  133.6380 C   0  0  0  0  0  0  0  0  0  0  0  0
  144.9845  161.7426  133.8286 H   0  0  0  0  0  0  0  0  0  0  0  0
  146.4380  160.1690  133.2300 C   0  0  0  0  0  0  0  0  0  0  0  0
  147.6440  160.8110  132.9630 C   0  0  0  0  0  0  0  0  0  0  0  0
  147.7367  161.9035  133.0512 H   0  0  0  0  0  0  0  0  0  0  0  0
  148.7400  160.0190  132.5770 C   0  0  0  0  0  0  0  0  0  0  0  0
  149.7060  160.4956  132.3541 H   0  0  0  0  0  0  0  0  0  0  0  0
  148.6100  158.6130  132.4730 C   0  0  0  0  0  0  0  0  0  0  0  0
  149.7330  157.8180  132.0850 N   0  0  0  0  0  0  0  0  0  0  0  0
  150.6950  158.0580  132.4130 H   0  0  0  0  0  0  0  0  0  0  0  0
  149.6110  156.9840  131.4680 H   0  0  0  0  0  0  0  0  0  0  0  0
  147.3730  157.9970  132.7530 C   0  0  0  0  0  0  0  0  0  0  0  0
  147.2578  156.9051  132.6863 H   0  0  0  0  0  0  0  0  0  0  0  0
  146.2960  158.8120  133.1180 C   0  0  0  0  0  0  0  0  0  0  0  0
  1  2  1  0
  2  3  1  0
  3  4  1  0
  3  5  1  0
  3  6  1  0
  6  7  1  0
  6  8  1  0
  6  9  1  0
  9 10  1  0
 10 11  2  0
 10 12  1  0
 12 13  1  0
 12 14  1  0
 12 15  1  0
 15 16  1  0
 15 17  2  0
 17 18  1  0
 17 19  1  0
 19 20  2  0
 19 21  1  0
 21 22  1  0
 22 23  1  0
 23 24  2  0
 23 25  1  0
 25 26  1  0
 25 27  1  0
 22 28  2  0
 28 29  1  0
 28 30  1  0
 30 31  2  0
 31 32  1  0
 31 33  1  0
 33 34  1  0
 33 35  2  0
 35 36  1  0
 36 37  1  0
 36 38  1  0
 35 39  1  0
 39 40  1  0
 39 41  2  0
 41 21  1  0
 41 30  1  0
M  END
>  <UniqueID>  (27) 
27

>  <SMILES>  (27) 
NC(=O)c1cc2ccc(N)cc2n1C(=O)/C=C/CC(=O)OCCO

>  <Energy>  (27) 
70.95036578611438

>  <Genealogy>  (27) 
NC(=O)c1cc2ccc(N)cc2n1C(=O)/C=C/CC(=O)OCCO (cis-trans isomerization)
NC(=O)c1cc2ccc(N)cc2n1C(=O)/C=C/CC(=O)OCCO (3D coordinates assigned)
NC(=O)c1cc2ccc(N)cc2n1C(=O)/C=C/CC(=O)OCCO (optimized conformer: 70.95036578611438 kcal/mol)

>  <smiles>  (27) 
NC(=O)c1cc2ccc(N)cc2n1C(=O)/C=C/CC(=O)OCCO

>  <score_type>  (27) 
oracle

>  <origin>  (27) 
adg

>  <m_score__min__energy>  (27) 
-6.3899999999999997

>  <m_primary>  (27) 
energy

$$$$
27:0
     RDKit          3D

 32 34  0  0  0  0  0  0  0  0999 V2000
  148.8150  157.8600  131.8820 N   0  0  0  0  0  0  0  0  0  0  0  0
  148.3720  158.6280  133.0000 C   0  0  0  0  0  0  0  0  0  0  0  0
  149.2240  159.1260  133.7810 O   0  0  0  0  0  0  0  0  0  0  0  0
  146.9280  158.8660  133.2030 C   0  0  0  0  0  0  0  0  0  0  0  0
  146.3640  160.1370  133.2940 C   0  0  0  0  0  0  0  0  0  0  0  0
  145.0310  159.9270  133.5650 C   0  0  0  0  0  0  0  0  0  0  0  0
  144.0010  160.8430  133.7400 C   0  0  0  0  0  0  0  0  0  0  0  0
  142.7090  160.3430  133.9780 C   0  0  0  0  0  0  0  0  0  0  0  0
  142.4640  158.9450  134.0320 C   0  0  0  0  0  0  0  0  0  0  0  0
  141.0830  158.4490  134.2710 C   0  0  0  0  0  0  0  0  0  0  0  0
  140.2380  157.9550  133.2700 C   0  0  0  0  0  0  0  0  0  0  0  0
  138.8400  157.5340  134.0720 S   0  0  0  0  0  0  0  0  0  0  0  0
  139.2990  157.9610  135.6040 N   0  0  0  0  0  0  0  0  0  0  0  0
  140.5380  158.4350  135.5290 N   0  0  0  0  0  0  0  0  0  0  0  0
  143.5460  158.0470  133.8430 C   0  0  0  0  0  0  0  0  0  0  0  0
  144.8240  158.5750  133.6260 C   0  0  0  0  0  0  0  0  0  0  0  0
  145.9800  157.9080  133.4040 N   0  0  0  0  0  0  0  0  0  0  0  0
  146.1400  156.4840  133.3190 C   0  0  0  0  0  0  0  0  0  0  0  0
  146.5230  155.9580  132.2380 O   0  0  0  0  0  0  0  0  0  0  0  0
  145.8900  155.6880  134.4440 O   0  0  0  0  0  0  0  0  0  0  0  0
  146.8730  154.8480  135.0420 C   0  0  0  0  0  0  0  0  0  0  0  0
  146.2310  153.9060  136.0110 C   0  0  0  0  0  0  0  0  0  0  0  0
  146.9400  153.1600  136.7360 O   0  0  0  0  0  0  0  0  0  0  0  0
  144.8480  153.8730  136.1330 O   0  0  0  0  0  0  0  0  0  0  0  0
  148.2260  157.0890  131.4950 H   0  0  0  0  0  0  0  0  0  0  0  0
  146.8757  161.1034  133.1746 H   0  0  0  0  0  0  0  0  0  0  0  0
  144.1907  161.9255  133.6938 H   0  0  0  0  0  0  0  0  0  0  0  0
  141.8750  161.0451  134.1246 H   0  0  0  0  0  0  0  0  0  0  0  0
  140.4499  157.8650  132.1944 H   0  0  0  0  0  0  0  0  0  0  0  0
  143.3840  156.9592  133.8665 H   0  0  0  0  0  0  0  0  0  0  0  0
  147.3823  154.2698  134.2570 H   0  0  0  0  0  0  0  0  0  0  0  0
  147.5997  155.4745  135.5800 H   0  0  0  0  0  0  0  0  0  0  0  0
  1  2  1  0
  2  3  2  0
  2  4  1  0
  4  5  2  0
  5  6  1  0
  6  7  2  0
  7  8  1  0
  8  9  2  0
  9 10  1  0
 10 11  2  0
 11 12  1  0
 12 13  1  0
 13 14  2  0
  9 15  1  0
 15 16  2  0
 16 17  1  0
 17 18  1  0
 18 19  2  0
 18 20  1  0
 20 21  1  0
 21 22  1  0
 22 23  2  0
 22 24  1  0
 17  4  1  0
 16  6  1  0
 14 10  1  0
  1 25  1  0
  5 26  1  0
  7 27  1  0
  8 28  1  0
 11 29  1  0
 15 30  1  0
 21 31  1  0
 21 32  1  0
M  CHG  2   1  -1  24  -1
M  END
>  <UniqueID>  (28) 
28

>  <SMILES>  (28) 
[NH-]C(=O)c1cc2ccc(-c3csnn3)cc2n1C(=O)OCC(=O)[O-]

>  <Energy>  (28) 
110.14570103441376

>  <Genealogy>  (28) 
[NH-]C(=O)c1cc2ccc(-c3csnn3)cc2n1C(=O)OCC(=O)[O-] (protonated)
[NH-]C(=O)c1cc2ccc(-c3csnn3)cc2n1C(=O)OCC(=O)[O-] (3D coordinates assigned)
[NH-]C(=O)c1cc2ccc(-c3csnn3)cc2n1C(=O)OCC(=O)[O-] (optimized conformer: 110.14570103441376 kcal/mol)

>  <smiles>  (28) 
NC(=O)c1cc2ccc(-c3csnn3)cc2n1C(=O)OCC(=O)O

>  <score_type>  (28) 
oracle

>  <origin>  (28) 
adg

>  <m_score__min__energy>  (28) 
-7.25

>  <m_primary>  (28) 
energy

$$$$
28:0
     RDKit          3D

 38 39  0  0  0  0  0  0  0  0999 V2000
  142.6670  160.5140  133.9410 N   0  0  0  0  0  0  0  0  0  0  0  0
  144.0230  160.9060  133.7520 C   0  0  0  0  0  0  0  0  0  0  0  0
  144.3140  162.1330  133.7400 O   0  0  0  0  0  0  0  0  0  0  0  0
  145.0860  159.9000  133.5400 C   0  0  0  0  0  0  0  0  0  0  0  0
  146.4410  160.2150  133.4440 C   0  0  0  0  0  0  0  0  0  0  0  0
  147.0790  159.0190  133.2090 C   0  0  0  0  0  0  0  0  0  0  0  0
  148.4340  158.7390  133.0530 C   0  0  0  0  0  0  0  0  0  0  0  0
  148.8120  157.3990  132.8610 C   0  0  0  0  0  0  0  0  0  0  0  0
  147.8380  156.3700  132.8350 C   0  0  0  0  0  0  0  0  0  0  0  0
  148.2660  154.9420  132.6490 C   0  0  0  0  0  0  0  0  0  0  0  0
  148.0810  154.2440  133.8290 F   0  0  0  0  0  0  0  0  0  0  0  0
  149.6020  154.8970  132.2960 F   0  0  0  0  0  0  0  0  0  0  0  0
  146.4720  156.6920  133.0000 C   0  0  0  0  0  0  0  0  0  0  0  0
  146.1240  158.0360  133.1720 C   0  0  0  0  0  0  0  0  0  0  0  0
  144.8970  158.5620  133.3680 N   0  0  0  0  0  0  0  0  0  0  0  0
  143.6650  157.8300  133.4700 C   0  0  0  0  0  0  0  0  0  0  0  0
  142.7580  158.0140  132.6140 O   0  0  0  0  0  0  0  0  0  0  0  0
  143.4500  156.8690  134.5610 C   0  0  0  0  0  0  0  0  0  0  0  0
  144.0850  155.7790  134.5750 O   0  0  0  0  0  0  0  0  0  0  0  0
  142.5090  157.1670  135.5960 N   0  0  0  0  0  0  0  0  0  0  0  0
  141.1310  156.6950  135.5680 C   0  0  0  0  0  0  0  0  0  0  0  0
  140.1880  157.8600  135.2510 C   0  0  2  0  0  0  0  0  0  0  0  0
  140.5430  158.4170  134.0120 O   0  0  0  0  0  0  0  0  0  0  0  0
  140.2700  158.9300  136.3470 C   0  0  0  0  0  0  0  0  0  0  0  0
  141.3870  159.7460  136.1310 O   0  0  0  0  0  0  0  0  0  0  0  0
  142.4210  159.5310  134.1940 H   0  0  0  0  0  0  0  0  0  0  0  0
  146.9022  161.2094  133.5366 H   0  0  0  0  0  0  0  0  0  0  0  0
  149.1855  159.5419  133.0792 H   0  0  0  0  0  0  0  0  0  0  0  0
  149.8745  157.1465  132.7296 H   0  0  0  0  0  0  0  0  0  0  0  0
  147.6609  154.4853  131.8520 H   0  0  0  0  0  0  0  0  0  0  0  0
  145.7023  155.9062  132.9934 H   0  0  0  0  0  0  0  0  0  0  0  0
  141.0264  155.9200  134.7944 H   0  0  0  0  0  0  0  0  0  0  0  0
  140.8714  156.2757  136.5513 H   0  0  0  0  0  0  0  0  0  0  0  0
  139.1545  157.4858  135.2073 H   0  0  0  0  0  0  0  0  0  0  0  0
  141.4770  158.7460  134.0990 H   0  0  0  0  0  0  0  0  0  0  0  0
  139.3586  159.5454  136.3253 H   0  0  0  0  0  0  0  0  0  0  0  0
  140.3629  158.4394  137.3271 H   0  0  0  0  0  0  0  0  0  0  0  0
  141.9460  159.2760  135.4570 H   0  0  0  0  0  0  0  0  0  0  0  0
  1  2  1  0
  2  3  2  0
  2  4  1  0
  4  5  2  0
  5  6  1  0
  6  7  2  0
  7  8  1  0
  8  9  2  0
  9 10  1  0
 10 11  1  0
 10 12  1  0
  9 13  1  0
 13 14  2  0
 14 15  1  0
 15 16  1  0
 16 17  2  0
 16 18  1  0
 18 19  2  0
 18 20  1  0
 20 21  1  0
 21 22  1  0
 22 23  1  0
 22 24  1  0
 24 25  1  0
 15  4  1  0
 14  6  1  0
  1 26  1  0
  5 27  1  0
  7 28  1  0
  8 29  1  0
 10 30  1  0
 13 31  1  0
 21 32  1  0
 21 33  1  0
 22 34  1  6
 23 35  1  0
 24 36  1  0
 24 37  1  0
 25 38  1  0
M  CHG  2   1  -1  20  -1
M  END
>  <UniqueID>  (29) 
29

>  <SMILES>  (29) 
[NH-]C(=O)c1cc2ccc(C(F)F)cc2n1C(=O)C(=O)[N-]C[C@H](O)CO

>  <Energy>  (29) 
70.51024031504498

>  <Genealogy>  (29) 
[NH-]C(=O)c1cc2ccc(C(F)F)cc2n1C(=O)C(=O)[N-]CC(O)CO (protonated)
[NH-]C(=O)c1cc2ccc(C(F)F)cc2n1C(=O)C(=O)[N-]C[C@H](O)CO (chirality)
[NH-]C(=O)c1cc2ccc(C(F)F)cc2n1C(=O)C(=O)[N-]C[C@H](O)CO (3D coordinates assigned)
[NH-]C(=O)c1cc2ccc(C(F)F)cc2n1C(=O)C(=O)[N-]C[C@H](O)CO (optimized conformer: 70.51024031504498 kcal/mol)

>  <smiles>  (29) 
NC(=O)c1cc2ccc(C(F)F)cc2n1C(=O)C(=O)NCC(O)CO

>  <score_type>  (29) 
oracle

>  <origin>  (29) 
adg

>  <m_score__min__energy>  (29) 
-4.9000000000000004

>  <m_primary>  (29) 
energy

$$$$
29:0
     RDKit          3D

 45 46  0  0  0  0  0  0  0  0999 V2000
  145.2310  154.4320  137.0790 H   0  0  0  0  0  0  0  0  0  0  0  0
  144.5240  153.7010  137.3170 N   0  0  0  0  0  0  0  0  0  0  0  0
  143.2040  154.0580  137.7200 C   0  0  0  0  0  0  0  0  0  0  0  0
  142.7070  153.5180  138.7460 O   0  0  0  0  0  0  0  0  0  0  0  0
  142.4000  155.0260  136.9400 C   0  0  0  0  0  0  0  0  0  0  0  0
  141.6510  156.0510  137.5200 C   0  0  0  0  0  0  0  0  0  0  0  0
  141.6150  156.3303  138.5833 H   0  0  0  0  0  0  0  0  0  0  0  0
  140.9650  156.6400  136.4770 C   0  0  0  0  0  0  0  0  0  0  0  0
  140.0300  157.6700  136.4860 C   0  0  0  0  0  0  0  0  0  0  0  0
  139.7474  158.1716  137.4233 H   0  0  0  0  0  0  0  0  0  0  0  0
  139.4570  158.0500  135.2580 C   0  0  0  0  0  0  0  0  0  0  0  0
  138.7105  158.8576  135.2344 H   0  0  0  0  0  0  0  0  0  0  0  0
  139.8290  157.4060  134.0510 C   0  0  0  0  0  0  0  0  0  0  0  0
  139.1740  157.8070  132.7530 C   0  0  0  0  0  0  0  0  0  0  0  0
  139.1430  156.7290  131.8850 F   0  0  0  0  0  0  0  0  0  0  0  0
  137.8730  158.2320  132.9600 F   0  0  0  0  0  0  0  0  0  0  0  0
  139.8960  158.8330  132.1710 F   0  0  0  0  0  0  0  0  0  0  0  0
  140.7560  156.3370  134.0920 C   0  0  0  0  0  0  0  0  0  0  0  0
  141.0325  155.7960  133.1750 H   0  0  0  0  0  0  0  0  0  0  0  0
  141.3120  155.9850  135.3260 C   0  0  0  0  0  0  0  0  0  0  0  0
  142.1970  155.0010  135.5920 N   0  0  0  0  0  0  0  0  0  0  0  0
  142.7100  154.0560  134.6470 C   0  0  0  0  0  0  0  0  0  0  0  0
  141.9130  153.4260  133.8970 O   0  0  0  0  0  0  0  0  0  0  0  0
  144.1230  153.8580  134.5440 N   0  0  0  0  0  0  0  0  0  0  0  0
  144.7310  154.3440  135.2410 H   0  0  0  0  0  0  0  0  0  0  0  0
  144.7520  153.1390  133.4750 C   0  0  0  0  0  0  0  0  0  0  0  0
  144.1380  152.2080  132.8880 O   0  0  0  0  0  0  0  0  0  0  0  0
  146.1480  153.4250  133.0920 C   0  0  0  0  0  0  0  0  0  0  0  0
  146.4379  153.2650  132.0430 H   0  0  0  0  0  0  0  0  0  0  0  0
  147.0860  153.8680  133.9430 C   0  0  0  0  0  0  0  0  0  0  0  0
  148.1191  153.9624  133.5774 H   0  0  0  0  0  0  0  0  0  0  0  0
  146.8050  154.2330  135.3360 C   0  0  0  0  0  0  0  0  0  0  0  0
  146.9230  153.3570  136.2360 O   0  0  0  0  0  0  0  0  0  0  0  0
  146.4320  155.5500  135.6430 O   0  0  0  0  0  0  0  0  0  0  0  0
  145.8260  156.4400  134.7430 C   0  0  0  0  0  0  0  0  0  0  0  0
  144.5730  156.4390  134.5850 O   0  0  0  0  0  0  0  0  0  0  0  0
  146.6400  157.3630  133.9990 N   0  0  0  0  0  0  0  0  0  0  0  0
  146.0070  158.3540  133.1240 C   0  0  0  0  0  0  0  0  0  0  0  0
  145.5154  159.1237  133.7371 H   0  0  0  0  0  0  0  0  0  0  0  0
  146.7722  158.8245  132.4891 H   0  0  0  0  0  0  0  0  0  0  0  0
  145.2584  157.8576  132.4891 H   0  0  0  0  0  0  0  0  0  0  0  0
  148.0970  157.3310  134.1640 C   0  0  0  0  0  0  0  0  0  0  0  0
  148.3446  157.3256  135.2358 H   0  0  0  0  0  0  0  0  0  0  0  0
  148.4998  156.4238  133.6900 H   0  0  0  0  0  0  0  0  0  0  0  0
  148.5393  158.2196  133.6900 H   0  0  0  0  0  0  0  0  0  0  0  0
  1  2  1  0
  2  3  1  0
  3  4  2  0
  3  5  1  0
  5  6  2  0
  6  7  1  0
  6  8  1  0
  8  9  2  0
  9 10  1  0
  9 11  1  0
 11 12  1  0
 11 13  2  0
 13 14  1  0
 14 15  1  0
 14 16  1  0
 14 17  1  0
 13 18  1  0
 18 19  1  0
 18 20  2  0
 20 21  1  0
 21 22  1  0
 22 23  2  0
 22 24  1  0
 24 25  1  0
 24 26  1  0
 26 27  2  0
 26 28  1  0
 28 29  1  0
 28 30  2  0
 30 31  1  0
 30 32  1  0
 32 33  2  0
 32 34  1  0
 34 35  1  0
 35 36  2  0
 35 37  1  0
 37 38  1  0
 38 39  1  0
 38 40  1  0
 38 41  1  0
 37 42  1  0
 42 43  1  0
 42 44  1  0
 42 45  1  0
 21  5  1  0
 20  8  1  0
M  CHG  1   2  -1
M  END
>  <UniqueID>  (30) 
30

>  <SMILES>  (30) 
CN(C)C(=O)OC(=O)/C=C\C(=O)NC(=O)n1c(C([NH-])=O)cc2ccc(C(F)(F)F)cc21

>  <Energy>  (30) 
89.49667785939648

>  <Genealogy>  (30) 
CN(C)C(=O)OC(=O)C=CC(=O)NC(=O)n1c(C([NH-])=O)cc2ccc(C(F)(F)F)cc21 (protonated)
CN(C)C(=O)OC(=O)/C=C\C(=O)NC(=O)n1c(C([NH-])=O)cc2ccc(C(F)(F)F)cc21 (cis-trans isomerization)
CN(C)C(=O)OC(=O)/C=C\C(=O)NC(=O)n1c(C([NH-])=O)cc2ccc(C(F)(F)F)cc21 (3D coordinates assigned)
CN(C)C(=O)OC(=O)/C=C\C(=O)NC(=O)n1c(C([NH-])=O)cc2ccc(C(F)(F)F)cc21 (optimized conformer: 89.49667785939648 kcal/mol)

>  <smiles>  (30) 
CN(C)C(=O)OC(=O)C=CC(=O)NC(=O)n1c(C(N)=O)cc2ccc(C(F)(F)F)cc21

>  <score_type>  (30) 
oracle

>  <origin>  (30) 
adg

>  <m_score__min__energy>  (30) 
-6.9900000000000002

>  <m_primary>  (30) 
energy

$$$$
30:0
     RDKit          3D

 43 44  0  0  0  0  0  0  0  0999 V2000
  144.5670  160.9690  134.1010 C   0  0  0  0  0  0  0  0  0  0  0  0
  144.4310  159.5540  133.7360 N   0  0  0  0  0  0  0  0  0  0  0  0
  143.0820  158.9690  133.6920 C   0  0  0  0  0  0  0  0  0  0  0  0
  142.0580  159.9650  134.1410 C   0  0  0  0  0  0  0  0  0  0  0  0
  141.6680  160.8700  133.3550 O   0  0  0  0  0  0  0  0  0  0  0  0
  141.5070  159.8770  135.4150 O   0  0  0  0  0  0  0  0  0  0  0  0
  145.6070  158.7620  133.4230 C   0  0  0  0  0  0  0  0  0  0  0  0
  146.7950  159.3810  132.9410 C   0  0  0  0  0  0  0  0  0  0  0  0
  147.9440  158.6240  132.6550 C   0  0  0  0  0  0  0  0  0  0  0  0
  147.8820  157.2480  132.8440 C   0  0  0  0  0  0  0  0  0  0  0  0
  148.8500  156.2860  132.6640 C   0  0  0  0  0  0  0  0  0  0  0  0
  148.2400  155.0810  133.0070 C   0  0  0  0  0  0  0  0  0  0  0  0
  148.9040  153.7670  132.8830 C   0  0  0  0  0  0  0  0  0  0  0  0
  148.3450  152.6250  133.5280 N   0  0  0  0  0  0  0  0  0  0  0  0
  149.9800  153.6470  132.2400 O   0  0  0  0  0  0  0  0  0  0  0  0
  146.9480  155.2930  133.3890 N   0  0  0  0  0  0  0  0  0  0  0  0
  145.9920  154.3270  133.8490 C   0  0  0  0  0  0  0  0  0  0  0  0
  145.0390  153.9770  133.1010 O   0  0  0  0  0  0  0  0  0  0  0  0
  146.1360  153.7620  135.1190 O   0  0  0  0  0  0  0  0  0  0  0  0
  146.6680  154.4820  136.2270 C   0  0  0  0  0  0  0  0  0  0  0  0
  148.0920  154.0090  136.5260 C   0  0  0  0  0  0  0  0  0  0  0  0
  148.1510  153.1570  137.7990 C   0  0  0  0  0  0  0  0  0  0  0  0
  148.4320  154.0160  138.9910 C   0  0  0  0  0  0  0  0  0  0  0  0
  149.6110  154.3710  139.2540 O   0  0  0  0  0  0  0  0  0  0  0  0
  147.3860  154.4500  139.7960 O   0  0  0  0  0  0  0  0  0  0  0  0
  146.7460  156.6240  133.2840 C   0  0  0  0  0  0  0  0  0  0  0  0
  145.5960  157.3550  133.6030 C   0  0  0  0  0  0  0  0  0  0  0  0
  144.5763  161.0658  135.1967 H   0  0  0  0  0  0  0  0  0  0  0  0
  145.5073  161.3650  133.6899 H   0  0  0  0  0  0  0  0  0  0  0  0
  143.7193  161.5368  133.6899 H   0  0  0  0  0  0  0  0  0  0  0  0
  142.8564  158.6590  132.6610 H   0  0  0  0  0  0  0  0  0  0  0  0
  143.0508  158.1011  134.3671 H   0  0  0  0  0  0  0  0  0  0  0  0
  146.8139  160.4704  132.7898 H   0  0  0  0  0  0  0  0  0  0  0  0
  148.8643  159.1055  132.2927 H   0  0  0  0  0  0  0  0  0  0  0  0
  149.8847  156.4364  132.3222 H   0  0  0  0  0  0  0  0  0  0  0  0
  147.3230  152.5760  133.7390 H   0  0  0  0  0  0  0  0  0  0  0  0
  146.6836  155.5559  135.9895 H   0  0  0  0  0  0  0  0  0  0  0  0
  146.0363  154.3032  137.1096 H   0  0  0  0  0  0  0  0  0  0  0  0
  148.4536  153.4086  135.6782 H   0  0  0  0  0  0  0  0  0  0  0  0
  148.7233  154.8968  136.6781 H   0  0  0  0  0  0  0  0  0  0  0  0
  147.1861  152.6478  137.9390 H   0  0  0  0  0  0  0  0  0  0  0  0
  148.9583  152.4171  137.6951 H   0  0  0  0  0  0  0  0  0  0  0  0
  144.6989  156.8471  133.9868 H   0  0  0  0  0  0  0  0  0  0  0  0
  1  2  1  0
  2  3  1  0
  3  4  1  0
  4  5  2  0
  4  6  1  0
  2  7  1  0
  7  8  2  0
  8  9  1  0
  9 10  2  0
 10 11  1  0
 11 12  2  0
 12 13  1  0
 13 14  1  0
 13 15  2  0
 12 16  1  0
 16 17  1  0
 17 18  2  0
 17 19  1  0
 19 20  1  0
 20 21  1  0
 21 22  1  0
 22 23  1  0
 23 24  2  0
 23 25  1  0
 16 26  1  0
 26 27  2  0
 27  7  1  0
 26 10  1  0
  1 28  1  0
  1 29  1  0
  1 30  1  0
  3 31  1  0
  3 32  1  0
  8 33  1  0
  9 34  1  0
 11 35  1  0
 14 36  1  0
 20 37  1  0
 20 38  1  0
 21 39  1  0
 21 40  1  0
 22 41  1  0
 22 42  1  0
 27 43  1  0
M  CHG  3   6  -1  14  -1  25  -1
M  END
>  <UniqueID>  (31) 
31

>  <SMILES>  (31) 
CN(CC(=O)[O-])c1ccc2cc(C([NH-])=O)n(C(=O)OCCCC(=O)[O-])c2c1

>  <Energy>  (31) 
74.86990968246367

>  <Genealogy>  (31) 
CN(CC(=O)[O-])c1ccc2cc(C([NH-])=O)n(C(=O)OCCCC(=O)[O-])c2c1 (protonated)
CN(CC(=O)[O-])c1ccc2cc(C([NH-])=O)n(C(=O)OCCCC(=O)[O-])c2c1 (3D coordinates assigned)
CN(CC(=O)[O-])c1ccc2cc(C([NH-])=O)n(C(=O)OCCCC(=O)[O-])c2c1 (optimized conformer: 74.86990968246367 kcal/mol)

>  <smiles>  (31) 
CN(CC(=O)O)c1ccc2cc(C(N)=O)n(C(=O)OCCCC(=O)O)c2c1

>  <score_type>  (31) 
oracle

>  <origin>  (31) 
adg

>  <m_score__min__energy>  (31) 
-7.0800000000000001

>  <m_primary>  (31) 
energy

$$$$
31:0
     RDKit          3D

 44 46  0  0  0  0  0  0  0  0999 V2000
  148.6570  160.2930  131.2950 C   0  0  0  0  0  0  0  0  0  0  0  0
  149.3590  159.4760  132.2240 O   0  0  0  0  0  0  0  0  0  0  0  0
  148.7490  158.9250  133.3540 C   0  0  0  0  0  0  0  0  0  0  0  0
  148.8660  159.4860  134.4790 O   0  0  0  0  0  0  0  0  0  0  0  0
  147.9690  157.6830  133.2190 C   0  0  0  0  0  0  0  0  0  0  0  0
  148.2740  156.7240  132.2440 C   0  0  0  0  0  0  0  0  0  0  0  0
  147.5300  155.5880  132.1600 N   0  0  0  0  0  0  0  0  0  0  0  0
  146.4820  155.3590  133.0060 C   0  0  0  0  0  0  0  0  0  0  0  0
  145.6920  154.1080  132.9050 C   0  0  0  0  0  0  0  0  0  0  0  0
  146.3280  152.8720  132.6080 C   0  0  0  0  0  0  0  0  0  0  0  0
  145.5840  151.6840  132.5140 C   0  0  0  0  0  0  0  0  0  0  0  0
  144.2100  151.7570  132.7250 C   0  0  0  0  0  0  0  0  0  0  0  0
  143.2470  150.7740  132.6680 C   0  0  0  0  0  0  0  0  0  0  0  0
  142.0410  151.4210  132.9360 C   0  0  0  0  0  0  0  0  0  0  0  0
  140.7320  150.7370  132.9940 C   0  0  0  0  0  0  0  0  0  0  0  0
  139.6820  151.0850  132.0960 N   0  0  0  0  0  0  0  0  0  0  0  0
  140.5320  149.8440  133.8600 O   0  0  0  0  0  0  0  0  0  0  0  0
  142.2560  152.7470  133.1570 N   0  0  0  0  0  0  0  0  0  0  0  0
  141.2760  153.7710  133.3750 C   0  0  0  0  0  0  0  0  0  0  0  0
  140.2710  153.8300  132.6160 O   0  0  0  0  0  0  0  0  0  0  0  0
  141.4320  154.7260  134.4430 N   0  0  0  0  0  0  0  0  0  0  0  0
  142.4270  154.4930  135.4940 C   0  0  0  0  0  0  0  0  0  0  0  0
  140.5390  155.8850  134.5060 C   0  0  0  0  0  0  0  0  0  0  0  0
  143.5830  152.9380  133.0190 C   0  0  0  0  0  0  0  0  0  0  0  0
  144.2930  154.1390  133.1050 C   0  0  0  0  0  0  0  0  0  0  0  0
  146.1780  156.3240  133.9780 C   0  0  0  0  0  0  0  0  0  0  0  0
  146.9260  157.4530  134.0610 N   0  0  0  0  0  0  0  0  0  0  0  0
  148.0346  161.0173  131.8409 H   0  0  0  0  0  0  0  0  0  0  0  0
  149.3780  160.8321  130.6628 H   0  0  0  0  0  0  0  0  0  0  0  0
  148.0155  159.6614  130.6628 H   0  0  0  0  0  0  0  0  0  0  0  0
  149.1111  156.8888  131.5497 H   0  0  0  0  0  0  0  0  0  0  0  0
  147.7680  154.8970  131.4140 H   0  0  0  0  0  0  0  0  0  0  0  0
  147.4162  152.8453  132.4498 H   0  0  0  0  0  0  0  0  0  0  0  0
  146.0720  150.7261  132.2810 H   0  0  0  0  0  0  0  0  0  0  0  0
  143.3973  149.7051  132.4560 H   0  0  0  0  0  0  0  0  0  0  0  0
  139.6680  152.0150  131.6210 H   0  0  0  0  0  0  0  0  0  0  0  0
  141.9519  154.6043  136.4799 H   0  0  0  0  0  0  0  0  0  0  0  0
  142.8331  153.4755  135.3954 H   0  0  0  0  0  0  0  0  0  0  0  0
  143.2426  155.2244  135.3954 H   0  0  0  0  0  0  0  0  0  0  0  0
  140.3427  156.1398  135.5579 H   0  0  0  0  0  0  0  0  0  0  0  0
  141.0133  156.7410  134.0037 H   0  0  0  0  0  0  0  0  0  0  0  0
  139.5903  155.6447  134.0037 H   0  0  0  0  0  0  0  0  0  0  0  0
  143.7758  155.0850  133.3230 H   0  0  0  0  0  0  0  0  0  0  0  0
  145.3372  156.1661  134.6695 H   0  0  0  0  0  0  0  0  0  0  0  0
  1  2  1  0
  2  3  1  0
  3  4  2  0
  3  5  1  0
  5  6  2  0
  6  7  1  0
  7  8  2  0
  8  9  1  0
  9 10  2  0
 10 11  1  0
 11 12  2  0
 12 13  1  0
 13 14  2  0
 14 15  1  0
 15 16  1  0
 15 17  2  0
 14 18  1  0
 18 19  1  0
 19 20  2  0
 19 21  1  0
 21 22  1  0
 21 23  1  0
 18 24  1  0
 24 25  2  0
  8 26  1  0
 26 27  2  0
 27  5  1  0
 25  9  1  0
 24 12  1  0
  1 28  1  0
  1 29  1  0
  1 30  1  0
  6 31  1  0
  7 32  1  0
 10 33  1  0
 11 34  1  0
 13 35  1  0
 16 36  1  0
 22 37  1  0
 22 38  1  0
 22 39  1  0
 23 40  1  0
 23 41  1  0
 23 42  1  0
 25 43  1  0
 26 44  1  0
M  CHG  2   7   1  16  -1
M  END
>  <UniqueID>  (32) 
32

>  <SMILES>  (32) 
COC(=O)c1c[nH+]c(-c2ccc3cc(C([NH-])=O)n(C(=O)N(C)C)c3c2)cn1

>  <Energy>  (32) 
86.68271271004754

>  <Genealogy>  (32) 
COC(=O)c1c[nH+]c(-c2ccc3cc(C([NH-])=O)n(C(=O)N(C)C)c3c2)cn1 (protonated)
COC(=O)c1c[nH+]c(-c2ccc3cc(C([NH-])=O)n(C(=O)N(C)C)c3c2)cn1 (3D coordinates assigned)
COC(=O)c1c[nH+]c(-c2ccc3cc(C([NH-])=O)n(C(=O)N(C)C)c3c2)cn1 (optimized conformer: 86.68271271004754 kcal/mol)

>  <smiles>  (32) 
COC(=O)c1cnc(-c2ccc3cc(C(N)=O)n(C(=O)N(C)C)c3c2)cn1

>  <score_type>  (32) 
oracle

>  <origin>  (32) 
adg

>  <m_score__min__energy>  (32) 
-7.1900000000000004

>  <m_primary>  (32) 
energy

$$$$
32:0
     RDKit          3D

 66 68  0  0  0  0  0  0  0  0999 V2000
  141.0010  152.7200  133.6980 C   0  0  0  0  0  0  0  0  0  0  0  0
  142.3200  152.1680  133.3750 N   0  0  0  0  0  0  0  0  0  0  0  0
  143.5450  152.8200  133.8680 C   0  0  0  0  0  0  0  0  0  0  0  0
  143.8720  154.0850  133.0600 C   0  0  0  0  0  0  0  0  0  0  0  0
  145.3660  154.2230  132.7580 C   0  0  0  0  0  0  0  0  0  0  0  0
  145.6550  155.5290  132.2680 O   0  0  0  0  0  0  0  0  0  0  0  0
  146.5500  156.3890  132.9130 C   0  0  0  0  0  0  0  0  0  0  0  0
  147.6330  155.9400  133.3740 O   0  0  0  0  0  0  0  0  0  0  0  0
  146.2400  157.7880  133.0360 N   0  0  0  0  0  0  0  0  0  0  0  0
  147.1120  158.8320  132.9760 C   0  0  0  0  0  0  0  0  0  0  0  0
  148.5200  158.7540  132.5510 C   0  0  0  0  0  0  0  0  0  0  0  0
  149.0090  157.6120  131.8480 N   0  0  0  0  0  0  0  0  0  0  0  0
  149.2880  159.7300  132.7580 O   0  0  0  0  0  0  0  0  0  0  0  0
  146.4700  160.0300  133.2800 C   0  0  0  0  0  0  0  0  0  0  0  0
  145.1580  159.6890  133.5210 C   0  0  0  0  0  0  0  0  0  0  0  0
  144.0760  160.4880  133.8740 C   0  0  0  0  0  0  0  0  0  0  0  0
  142.8360  159.8640  134.0900 C   0  0  0  0  0  0  0  0  0  0  0  0
  142.7040  158.4570  133.9700 C   0  0  0  0  0  0  0  0  0  0  0  0
  141.4310  157.8230  134.2010 N   0  0  0  0  0  0  0  0  0  0  0  0
  140.2420  158.6360  134.4890 C   0  0  0  0  0  0  0  0  0  0  0  0
  138.9640  157.8320  134.2290 C   0  0  0  0  0  0  0  0  0  0  0  0
  139.1340  157.0260  133.0160 N   0  0  0  0  0  0  0  0  0  0  0  0
  140.1530  155.9680  133.1840 C   0  0  0  0  0  0  0  0  0  0  0  0
  141.2890  156.3640  134.1500 C   0  0  0  0  0  0  0  0  0  0  0  0
  143.8260  157.6800  133.6030 C   0  0  0  0  0  0  0  0  0  0  0  0
  145.0450  158.3300  133.3710 C   0  0  0  0  0  0  0  0  0  0  0  0
  142.3970  150.9820  132.5630 C   0  0  0  0  0  0  0  0  0  0  0  0
  143.4220  150.2470  132.6170 O   0  0  0  0  0  0  0  0  0  0  0  0
  141.3240  150.6550  131.7160 O   0  0  0  0  0  0  0  0  0  0  0  0
  140.3500  149.6230  131.9340 C   0  0  0  0  0  0  0  0  0  0  0  0
  138.9210  150.1950  131.8220 C   0  0  0  0  0  0  0  0  0  0  0  0
  140.5640  149.0940  133.3630 C   0  0  0  0  0  0  0  0  0  0  0  0
  140.5540  148.4620  130.9380 C   0  0  0  0  0  0  0  0  0  0  0  0
  140.8819  152.7699  134.7904 H   0  0  0  0  0  0  0  0  0  0  0  0
  140.9124  153.7307  133.2730 H   0  0  0  0  0  0  0  0  0  0  0  0
  140.2189  152.0737  133.2730 H   0  0  0  0  0  0  0  0  0  0  0  0
  143.4033  153.0963  134.9233 H   0  0  0  0  0  0  0  0  0  0  0  0
  144.3810  152.1136  133.7578 H   0  0  0  0  0  0  0  0  0  0  0  0
  143.3226  154.0462  132.1078 H   0  0  0  0  0  0  0  0  0  0  0  0
  143.5740  154.9530  133.6665 H   0  0  0  0  0  0  0  0  0  0  0  0
  145.9399  154.0465  133.6797 H   0  0  0  0  0  0  0  0  0  0  0  0
  145.6448  153.4846  131.9918 H   0  0  0  0  0  0  0  0  0  0  0  0
  150.0080  157.5670  131.5510 H   0  0  0  0  0  0  0  0  0  0  0  0
  148.3610  156.8520  131.5480 H   0  0  0  0  0  0  0  0  0  0  0  0
  146.9161  161.0347  133.3192 H   0  0  0  0  0  0  0  0  0  0  0  0
  144.1878  161.5771  133.9810 H   0  0  0  0  0  0  0  0  0  0  0  0
  141.9588  160.4727  134.3548 H   0  0  0  0  0  0  0  0  0  0  0  0
  140.2644  158.9486  135.5434 H   0  0  0  0  0  0  0  0  0  0  0  0
  140.2468  159.5175  133.8310 H   0  0  0  0  0  0  0  0  0  0  0  0
  138.7665  157.1699  135.0849 H   0  0  0  0  0  0  0  0  0  0  0  0
  138.1169  158.5211  134.0965 H   0  0  0  0  0  0  0  0  0  0  0  0
  138.2170  156.5700  132.7960 H   0  0  0  0  0  0  0  0  0  0  0  0
  139.6593  155.0666  133.5762 H   0  0  0  0  0  0  0  0  0  0  0  0
  140.6088  155.7946  132.1980 H   0  0  0  0  0  0  0  0  0  0  0  0
  141.0566  155.9870  135.1569 H   0  0  0  0  0  0  0  0  0  0  0  0
  142.2319  155.9259  133.7909 H   0  0  0  0  0  0  0  0  0  0  0  0
  143.7438  156.5878  133.5017 H   0  0  0  0  0  0  0  0  0  0  0  0
  138.5116  150.3589  132.8298 H   0  0  0  0  0  0  0  0  0  0  0  0
  138.9502  151.1507  131.2782 H   0  0  0  0  0  0  0  0  0  0  0  0
  138.2827  149.4831  131.2782 H   0  0  0  0  0  0  0  0  0  0  0  0
  140.2538  149.8608  134.0881 H   0  0  0  0  0  0  0  0  0  0  0  0
  139.9630  148.1847  133.5112 H   0  0  0  0  0  0  0  0  0  0  0  0
  141.6282  148.8583  133.5112 H   0  0  0  0  0  0  0  0  0  0  0  0
  140.7183  147.5269  131.4935 H   0  0  0  0  0  0  0  0  0  0  0  0
  139.6600  148.3603  130.3053 H   0  0  0  0  0  0  0  0  0  0  0  0
  141.4291  148.6712  130.3053 H   0  0  0  0  0  0  0  0  0  0  0  0
  1  2  1  0
  2  3  1  0
  3  4  1  0
  4  5  1  0
  5  6  1  0
  6  7  1  0
  7  8  2  0
  7  9  1  0
  9 10  1  0
 10 11  1  0
 11 12  1  0
 11 13  2  0
 10 14  2  0
 14 15  1  0
 15 16  2  0
 16 17  1  0
 17 18  2  0
 18 19  1  0
 19 20  1  0
 20 21  1  0
 21 22  1  0
 22 23  1  0
 23 24  1  0
 18 25  1  0
 25 26  2  0
  2 27  1  0
 27 28  2  0
 27 29  1  0
 29 30  1  0
 30 31  1  0
 30 32  1  0
 30 33  1  0
 26  9  1  0
 26 15  1  0
 24 19  1  0
  1 34  1  0
  1 35  1  0
  1 36  1  0
  3 37  1  0
  3 38  1  0
  4 39  1  0
  4 40  1  0
  5 41  1  0
  5 42  1  0
 12 43  1  0
 12 44  1  0
 14 45  1  0
 16 46  1  0
 17 47  1  0
 20 48  1  0
 20 49  1  0
 21 50  1  0
 21 51  1  0
 22 52  1  0
 23 53  1  0
 23 54  1  0
 24 55  1  0
 24 56  1  0
 25 57  1  0
 31 58  1  0
 31 59  1  0
 31 60  1  0
 32 61  1  0
 32 62  1  0
 32 63  1  0
 33 64  1  0
 33 65  1  0
 33 66  1  0
M  END
>  <UniqueID>  (33) 
33

>  <SMILES>  (33) 
CN(CCCOC(=O)n1c(C(N)=O)cc2ccc(N3CCNCC3)cc21)C(=O)OC(C)(C)C

>  <Energy>  (33) 
99.66973013209095

>  <Genealogy>  (33) 
CN(CCCOC(=O)n1c(C(N)=O)cc2ccc(N3CCNCC3)cc21)C(=O)OC(C)(C)C (3D coordinates assigned)
CN(CCCOC(=O)n1c(C(N)=O)cc2ccc(N3CCNCC3)cc21)C(=O)OC(C)(C)C (nonaromatic ring conformer: 99.66973013209095 kcal/mol)

>  <smiles>  (33) 
CN(CCCOC(=O)n1c(C(N)=O)cc2ccc(N3CCNCC3)cc21)C(=O)OC(C)(C)C

>  <score_type>  (33) 
oracle

>  <origin>  (33) 
adg

>  <m_score__min__energy>  (33) 
-9.3499999999999996

>  <m_primary>  (33) 
energy

$$$$
33:0
     RDKit          3D

 35 36  0  0  0  0  0  0  0  0999 V2000
  147.9940  154.0240  136.7130 C   0  0  0  0  0  0  0  0  0  0  0  0
  146.7440  153.3270  136.4460 N   0  0  0  0  0  0  0  0  0  0  0  0
  145.8060  153.7720  135.4620 C   0  0  0  0  0  0  0  0  0  0  0  0
  144.7050  154.2760  135.8180 O   0  0  0  0  0  0  0  0  0  0  0  0
  146.1230  153.6300  134.0340 C   0  0  0  0  0  0  0  0  0  0  0  0
  145.4300  152.8600  133.3150 O   0  0  0  0  0  0  0  0  0  0  0  0
  147.2120  154.3590  133.4470 N   0  0  0  0  0  0  0  0  0  0  0  0
  148.4220  153.8710  133.0540 C   0  0  0  0  0  0  0  0  0  0  0  0
  148.8220  152.4480  133.0400 C   0  0  0  0  0  0  0  0  0  0  0  0
  147.9180  151.4340  132.6080 N   0  0  0  0  0  0  0  0  0  0  0  0
  149.9880  152.1240  133.3900 O   0  0  0  0  0  0  0  0  0  0  0  0
  149.2400  154.9080  132.6060 C   0  0  0  0  0  0  0  0  0  0  0  0
  148.4870  156.0520  132.7430 C   0  0  0  0  0  0  0  0  0  0  0  0
  148.8100  157.3750  132.4670 C   0  0  0  0  0  0  0  0  0  0  0  0
  147.8450  158.3600  132.7350 C   0  0  0  0  0  0  0  0  0  0  0  0
  146.5760  158.0170  133.2840 C   0  0  0  0  0  0  0  0  0  0  0  0
  145.5880  159.0440  133.5650 N   0  0  0  0  0  0  0  0  0  0  0  0
  144.1700  158.6940  133.7100 C   0  0  0  0  0  0  0  0  0  0  0  0
  145.9900  160.4480  133.7090 C   0  0  0  0  0  0  0  0  0  0  0  0
  146.2970  156.6520  133.5520 C   0  0  0  0  0  0  0  0  0  0  0  0
  147.2700  155.6940  133.2540 C   0  0  0  0  0  0  0  0  0  0  0  0
  148.1427  154.1069  137.7997 H   0  0  0  0  0  0  0  0  0  0  0  0
  148.8293  153.4614  136.2705 H   0  0  0  0  0  0  0  0  0  0  0  0
  147.9545  155.0303  136.2705 H   0  0  0  0  0  0  0  0  0  0  0  0
  146.9630  151.3540  133.0210 H   0  0  0  0  0  0  0  0  0  0  0  0
  150.2686  154.8285  132.2242 H   0  0  0  0  0  0  0  0  0  0  0  0
  149.7923  157.6431  132.0509 H   0  0  0  0  0  0  0  0  0  0  0  0
  148.0730  159.4139  132.5173 H   0  0  0  0  0  0  0  0  0  0  0  0
  143.9152  158.6311  134.7782 H   0  0  0  0  0  0  0  0  0  0  0  0
  143.5508  159.4663  133.2302 H   0  0  0  0  0  0  0  0  0  0  0  0
  143.9812  157.7223  133.2302 H   0  0  0  0  0  0  0  0  0  0  0  0
  146.0624  160.7010  134.7771 H   0  0  0  0  0  0  0  0  0  0  0  0
  146.9679  160.6005  133.2289 H   0  0  0  0  0  0  0  0  0  0  0  0
  145.2410  161.0949  133.2289 H   0  0  0  0  0  0  0  0  0  0  0  0
  145.3318  156.3529  133.9867 H   0  0  0  0  0  0  0  0  0  0  0  0
  1  2  1  0
  2  3  1  0
  3  4  2  0
  3  5  1  0
  5  6  2  0
  5  7  1  0
  7  8  1  0
  8  9  1  0
  9 10  1  0
  9 11  2  0
  8 12  2  0
 12 13  1  0
 13 14  2  0
 14 15  1  0
 15 16  2  0
 16 17  1  0
 17 18  1  0
 17 19  1  0
 16 20  1  0
 20 21  2  0
 21  7  1  0
 21 13  1  0
  1 22  1  0
  1 23  1  0
  1 24  1  0
 10 25  1  0
 12 26  1  0
 14 27  1  0
 15 28  1  0
 18 29  1  0
 18 30  1  0
 18 31  1  0
 19 32  1  0
 19 33  1  0
 19 34  1  0
 20 35  1  0
M  CHG  2   2  -1  10  -1
M  END
>  <UniqueID>  (34) 
34

>  <SMILES>  (34) 
C[N-]C(=O)C(=O)n1c(C([NH-])=O)cc2ccc(N(C)C)cc21

>  <Energy>  (34) 
72.9397752791399

>  <Genealogy>  (34) 
C[N-]C(=O)C(=O)n1c(C([NH-])=O)cc2ccc(N(C)C)cc21 (protonated)
C[N-]C(=O)C(=O)n1c(C([NH-])=O)cc2ccc(N(C)C)cc21 (3D coordinates assigned)
C[N-]C(=O)C(=O)n1c(C([NH-])=O)cc2ccc(N(C)C)cc21 (optimized conformer: 72.9397752791399 kcal/mol)

>  <smiles>  (34) 
CNC(=O)C(=O)n1c(C(N)=O)cc2ccc(N(C)C)cc21

>  <score_type>  (34) 
oracle

>  <origin>  (34) 
adg

>  <m_score__min__energy>  (34) 
-5.8399999999999999

>  <m_primary>  (34) 
energy

$$$$
34:0
     RDKit          3D

 37 39  0  0  0  0  0  0  0  0999 V2000
  138.4260  158.2840  132.1430 N   0  0  0  0  0  0  0  0  0  0  0  0
  139.5970  158.7860  132.7800 C   0  0  0  0  0  0  0  0  0  0  0  0
  140.2700  159.6870  132.2110 O   0  0  0  0  0  0  0  0  0  0  0  0
  140.0640  158.2270  134.0660 C   0  0  0  0  0  0  0  0  0  0  0  0
  140.2100  158.9880  135.2240 C   0  0  0  0  0  0  0  0  0  0  0  0
  140.7450  158.1320  136.1580 C   0  0  0  0  0  0  0  0  0  0  0  0
  141.0790  158.3580  137.4910 C   0  0  0  0  0  0  0  0  0  0  0  0
  141.5830  157.2800  138.2360 C   0  0  0  0  0  0  0  0  0  0  0  0
  141.7450  156.0010  137.6410 C   0  0  0  0  0  0  0  0  0  0  0  0
  142.2210  154.8920  138.4280 N   0  0  0  0  0  0  0  0  0  0  0  0
  141.6190  154.9590  139.7670 C   0  0  0  0  0  0  0  0  0  0  0  0
  140.1200  154.6960  139.7830 C   0  0  0  0  0  0  0  0  0  0  0  0
  141.0840  153.6400  140.3070 C   0  0  0  0  0  0  0  0  0  0  0  0
  141.3840  155.8110  136.2870 C   0  0  0  0  0  0  0  0  0  0  0  0
  140.9030  156.9080  135.5640 C   0  0  0  0  0  0  0  0  0  0  0  0
  140.4840  156.9470  134.2790 N   0  0  0  0  0  0  0  0  0  0  0  0
  140.4240  155.8350  133.3730 C   0  0  0  0  0  0  0  0  0  0  0  0
  139.3910  155.6560  132.6730 O   0  0  0  0  0  0  0  0  0  0  0  0
  141.5060  154.9470  133.2990 O   0  0  0  0  0  0  0  0  0  0  0  0
  141.4780  153.6050  133.7030 C   0  0  0  0  0  0  0  0  0  0  0  0
  140.5300  152.8470  133.3590 O   0  0  0  0  0  0  0  0  0  0  0  0
  142.5290  153.1290  134.4950 O   0  0  0  0  0  0  0  0  0  0  0  0
  142.5130  153.0590  135.8940 C   0  0  0  0  0  0  0  0  0  0  0  0
  141.5980  152.4500  136.5120 O   0  0  0  0  0  0  0  0  0  0  0  0
  143.5250  153.6770  136.6150 O   0  0  0  0  0  0  0  0  0  0  0  0
  138.0510  157.3370  132.3770 H   0  0  0  0  0  0  0  0  0  0  0  0
  139.9521  160.0484  135.3619 H   0  0  0  0  0  0  0  0  0  0  0  0
  140.9518  159.3512  137.9464 H   0  0  0  0  0  0  0  0  0  0  0  0
  141.8552  157.4278  139.2915 H   0  0  0  0  0  0  0  0  0  0  0  0
  141.9280  153.9930  137.9790 H   0  0  0  0  0  0  0  0  0  0  0  0
  143.2680  154.9010  138.4560 H   0  0  0  0  0  0  0  0  0  0  0  0
  142.2863  155.7401  140.1601 H   0  0  0  0  0  0  0  0  0  0  0  0
  139.4727  155.2453  140.4825 H   0  0  0  0  0  0  0  0  0  0  0  0
  139.3193  154.7126  139.0290 H   0  0  0  0  0  0  0  0  0  0  0  0
  141.1331  153.4265  141.3850 H   0  0  0  0  0  0  0  0  0  0  0  0
  141.2683  152.5778  140.0883 H   0  0  0  0  0  0  0  0  0  0  0  0
  141.4792  154.8230  135.8129 H   0  0  0  0  0  0  0  0  0  0  0  0
  1  2  1  0
  2  3  2  0
  2  4  1  0
  4  5  2  0
  5  6  1  0
  6  7  2  0
  7  8  1  0
  8  9  2  0
  9 10  1  0
 10 11  1  0
 11 12  1  0
 12 13  1  0
  9 14  1  0
 14 15  2  0
 15 16  1  0
 16 17  1  0
 17 18  2  0
 17 19  1  0
 19 20  1  0
 20 21  2  0
 20 22  1  0
 22 23  1  0
 23 24  2  0
 23 25  1  0
 16  4  1  0
 15  6  1  0
 13 11  1  0
  1 26  1  0
  5 27  1  0
  7 28  1  0
  8 29  1  0
 10 30  1  0
 10 31  1  0
 11 32  1  0
 12 33  1  0
 12 34  1  0
 13 35  1  0
 13 36  1  0
 14 37  1  0
M  CHG  3   1  -1  10   1  25  -1
M  END
>  <UniqueID>  (35) 
35

>  <SMILES>  (35) 
[NH-]C(=O)c1cc2ccc([NH2+]C3CC3)cc2n1C(=O)OC(=O)OC(=O)[O-]

>  <Energy>  (35) 
345.7278415894659

>  <Genealogy>  (35) 
[NH-]C(=O)c1cc2ccc([NH2+]C3CC3)cc2n1C(=O)OC(=O)OC(=O)[O-] (protonated)
[NH-]C(=O)c1cc2ccc([NH2+]C3CC3)cc2n1C(=O)OC(=O)OC(=O)[O-] (3D coordinates assigned)
[NH-]C(=O)c1cc2ccc([NH2+]C3CC3)cc2n1C(=O)OC(=O)OC(=O)[O-] (nonaromatic ring conformer: 345.7278415894659 kcal/mol)

>  <smiles>  (35) 
NC(=O)c1cc2ccc(NC3CC3)cc2n1C(=O)OC(=O)OC(=O)O

>  <score_type>  (35) 
oracle

>  <origin>  (35) 
adg

>  <m_score__min__energy>  (35) 
-5.7300000000000004

>  <m_primary>  (35) 
energy

$$$$
35:0
     RDKit          3D

 38 39  0  0  0  0  0  0  0  0999 V2000
  144.1610  154.0840  132.7790 C   0  0  0  0  0  0  0  0  0  0  0  0
  143.2570  155.2240  132.9400 N   0  0  0  0  0  0  0  0  0  0  0  0
  144.0150  156.4370  133.1230 C   0  0  0  0  0  0  0  0  0  0  0  0
  145.4260  156.4260  132.9740 C   0  0  0  0  0  0  0  0  0  0  0  0
  146.1730  157.6040  133.1340 C   0  0  0  0  0  0  0  0  0  0  0  0
  145.4860  158.7790  133.4250 C   0  0  0  0  0  0  0  0  0  0  0  0
  145.9620  160.0490  133.6530 C   0  0  0  0  0  0  0  0  0  0  0  0
  144.8330  160.8270  133.9020 C   0  0  0  0  0  0  0  0  0  0  0  0
  144.8860  162.2880  134.1110 C   0  0  0  0  0  0  0  0  0  0  0  0
  143.9870  163.1570  133.4280 N   0  0  0  0  0  0  0  0  0  0  0  0
  145.7690  162.7800  134.8630 O   0  0  0  0  0  0  0  0  0  0  0  0
  143.7040  160.0670  133.8400 N   0  0  0  0  0  0  0  0  0  0  0  0
  142.3580  160.4700  134.1370 C   0  0  0  0  0  0  0  0  0  0  0  0
  141.7530  161.2540  133.3560 O   0  0  0  0  0  0  0  0  0  0  0  0
  141.7240  159.9680  135.2820 O   0  0  0  0  0  0  0  0  0  0  0  0
  140.5760  159.1650  135.2790 C   0  0  0  0  0  0  0  0  0  0  0  0
  139.9140  158.9670  136.3340 O   0  0  0  0  0  0  0  0  0  0  0  0
  140.1240  158.5390  133.9950 C   0  0  0  0  0  0  0  0  0  0  0  0
  139.5640  157.1290  134.2110 C   0  0  0  0  0  0  0  0  0  0  0  0
  140.6180  156.0810  134.0270 C   0  0  0  0  0  0  0  0  0  0  0  0
  140.6840  155.4310  132.9520 O   0  0  0  0  0  0  0  0  0  0  0  0
  141.5520  155.8500  135.0300 O   0  0  0  0  0  0  0  0  0  0  0  0
  144.1200  158.8150  133.5450 C   0  0  0  0  0  0  0  0  0  0  0  0
  143.3520  157.6520  133.4100 C   0  0  0  0  0  0  0  0  0  0  0  0
  144.4583  153.7091  133.7695 H   0  0  0  0  0  0  0  0  0  0  0  0
  143.6483  153.2851  132.2233 H   0  0  0  0  0  0  0  0  0  0  0  0
  145.0557  154.4012  132.2233 H   0  0  0  0  0  0  0  0  0  0  0  0
  142.6390  155.0580  133.7680 H   0  0  0  0  0  0  0  0  0  0  0  0
  142.6480  155.3040  132.0940 H   0  0  0  0  0  0  0  0  0  0  0  0
  145.9401  155.4845  132.7305 H   0  0  0  0  0  0  0  0  0  0  0  0
  147.2683  157.5985  133.0324 H   0  0  0  0  0  0  0  0  0  0  0  0
  147.0109  160.3802  133.6413 H   0  0  0  0  0  0  0  0  0  0  0  0
  143.1330  162.7820  132.9590 H   0  0  0  0  0  0  0  0  0  0  0  0
  139.3396  159.1685  133.5496 H   0  0  0  0  0  0  0  0  0  0  0  0
  140.9961  158.4604  133.3292 H   0  0  0  0  0  0  0  0  0  0  0  0
  139.1640  157.0569  135.2331 H   0  0  0  0  0  0  0  0  0  0  0  0
  138.7738  156.9556  133.4657 H   0  0  0  0  0  0  0  0  0  0  0  0
  142.2584  157.6831  133.5246 H   0  0  0  0  0  0  0  0  0  0  0  0
  1  2  1  0
  2  3  1  0
  3  4  2  0
  4  5  1  0
  5  6  2  0
  6  7  1  0
  7  8  2  0
  8  9  1  0
  9 10  1  0
  9 11  2  0
  8 12  1  0
 12 13  1  0
 13 14  2  0
 13 15  1  0
 15 16  1  0
 16 17  2  0
 16 18  1  0
 18 19  1  0
 19 20  1  0
 20 21  2  0
 20 22  1  0
 12 23  1  0
 23 24  2  0
 24  3  1  0
 23  6  1  0
  1 25  1  0
  1 26  1  0
  1 27  1  0
  2 28  1  0
  2 29  1  0
  4 30  1  0
  5 31  1  0
  7 32  1  0
 10 33  1  0
 18 34  1  0
 18 35  1  0
 19 36  1  0
 19 37  1  0
 24 38  1  0
M  CHG  3   2   1  10  -1  22  -1
M  END
>  <UniqueID>  (36) 
36

>  <SMILES>  (36) 
C[NH2+]c1ccc2cc(C([NH-])=O)n(C(=O)OC(=O)CCC(=O)[O-])c2c1

>  <Energy>  (36) 
73.7547587761283

>  <Genealogy>  (36) 
C[NH2+]c1ccc2cc(C([NH-])=O)n(C(=O)OC(=O)CCC(=O)[O-])c2c1 (protonated)
C[NH2+]c1ccc2cc(C([NH-])=O)n(C(=O)OC(=O)CCC(=O)[O-])c2c1 (3D coordinates assigned)
C[NH2+]c1ccc2cc(C([NH-])=O)n(C(=O)OC(=O)CCC(=O)[O-])c2c1 (optimized conformer: 73.7547587761283 kcal/mol)

>  <smiles>  (36) 
CNc1ccc2cc(C(N)=O)n(C(=O)OC(=O)CCC(=O)O)c2c1

>  <score_type>  (36) 
oracle

>  <origin>  (36) 
adg

>  <m_score__min__energy>  (36) 
-5.25

>  <m_primary>  (36) 
energy

$$$$
36:0
     RDKit          3D

 43 44  0  0  0  0  0  0  0  0999 V2000
  141.3510  160.2030  133.5140 C   0  0  0  0  0  0  0  0  0  0  0  0
  142.5760  159.7100  134.2150 C   0  0  0  0  0  0  0  0  0  0  0  0
  143.5770  160.4690  134.3180 O   0  0  0  0  0  0  0  0  0  0  0  0
  142.6160  158.3920  134.7810 N   0  0  0  0  0  0  0  0  0  0  0  0
  141.7780  157.8660  135.7180 C   0  0  0  0  0  0  0  0  0  0  0  0
  140.7100  158.5940  136.4350 C   0  0  0  0  0  0  0  0  0  0  0  0
  139.3500  158.1770  136.3500 N   0  0  0  0  0  0  0  0  0  0  0  0
  140.9980  159.6200  137.1100 O   0  0  0  0  0  0  0  0  0  0  0  0
  142.0970  156.5300  135.9610 C   0  0  0  0  0  0  0  0  0  0  0  0
  143.1650  156.2540  135.1370 C   0  0  0  0  0  0  0  0  0  0  0  0
  143.8690  155.0700  134.9530 C   0  0  0  0  0  0  0  0  0  0  0  0
  144.9020  155.0590  134.0010 C   0  0  0  0  0  0  0  0  0  0  0  0
  145.2080  156.2230  133.2480 C   0  0  0  0  0  0  0  0  0  0  0  0
  146.2590  156.1900  132.2590 N   0  0  0  0  0  0  0  0  0  0  0  0
  147.4780  155.5420  132.7770 C   0  0  0  0  0  0  0  0  0  0  0  0
  148.7080  156.4710  132.7990 C   0  0  0  0  0  0  0  0  0  0  0  0
  148.4620  157.7690  133.5810 C   0  0  0  0  0  0  0  0  0  0  0  0
  148.4530  158.9190  132.6690 N   0  0  0  0  0  0  0  0  0  0  0  0
  149.6110  159.2150  131.8230 C   0  0  0  0  0  0  0  0  0  0  0  0
  147.2840  159.7500  132.5990 C   0  0  0  0  0  0  0  0  0  0  0  0
  146.1750  159.2770  132.2340 O   0  0  0  0  0  0  0  0  0  0  0  0
  144.4710  157.4100  133.4690 C   0  0  0  0  0  0  0  0  0  0  0  0
  143.4580  157.3940  134.4340 C   0  0  0  0  0  0  0  0  0  0  0  0
  140.5994  160.5055  134.2581 H   0  0  0  0  0  0  0  0  0  0  0  0
  141.6114  161.0663  132.8841 H   0  0  0  0  0  0  0  0  0  0  0  0
  140.9408  159.3999  132.8841 H   0  0  0  0  0  0  0  0  0  0  0  0
  138.6180  158.6060  136.9590 H   0  0  0  0  0  0  0  0  0  0  0  0
  141.6007  155.8428  136.6621 H   0  0  0  0  0  0  0  0  0  0  0  0
  143.6249  154.1691  135.5350 H   0  0  0  0  0  0  0  0  0  0  0  0
  145.4805  154.1379  133.8371 H   0  0  0  0  0  0  0  0  0  0  0  0
  146.4730  157.1510  131.9070 H   0  0  0  0  0  0  0  0  0  0  0  0
  145.9210  155.6410  131.4350 H   0  0  0  0  0  0  0  0  0  0  0  0
  147.2811  155.2010  133.8041 H   0  0  0  0  0  0  0  0  0  0  0  0
  147.7144  154.7093  132.0983 H   0  0  0  0  0  0  0  0  0  0  0  0
  149.5459  155.9330  133.2664 H   0  0  0  0  0  0  0  0  0  0  0  0
  148.9301  156.7495  131.7583 H   0  0  0  0  0  0  0  0  0  0  0  0
  147.4911  157.7051  134.0941 H   0  0  0  0  0  0  0  0  0  0  0  0
  149.2689  157.9020  134.3167 H   0  0  0  0  0  0  0  0  0  0  0  0
  150.4815  159.4375  132.4577 H   0  0  0  0  0  0  0  0  0  0  0  0
  149.8331  158.3448  131.1879 H   0  0  0  0  0  0  0  0  0  0  0  0
  149.3883  160.0851  131.1879 H   0  0  0  0  0  0  0  0  0  0  0  0
  147.3579  160.8141  132.8678 H   0  0  0  0  0  0  0  0  0  0  0  0
  144.6890  158.3234  132.8961 H   0  0  0  0  0  0  0  0  0  0  0  0
  1  2  1  0
  2  3  2  0
  2  4  1  0
  4  5  1  0
  5  6  1  0
  6  7  1  0
  6  8  2  0
  5  9  2  0
  9 10  1  0
 10 11  2  0
 11 12  1  0
 12 13  2  0
 13 14  1  0
 14 15  1  0
 15 16  1  0
 16 17  1  0
 17 18  1  0
 18 19  1  0
 18 20  1  0
 20 21  2  0
 13 22  1  0
 22 23  2  0
 23  4  1  0
 23 10  1  0
  1 24  1  0
  1 25  1  0
  1 26  1  0
  7 27  1  0
  9 28  1  0
 11 29  1  0
 12 30  1  0
 14 31  1  0
 14 32  1  0
 15 33  1  0
 15 34  1  0
 16 35  1  0
 16 36  1  0
 17 37  1  0
 17 38  1  0
 19 39  1  0
 19 40  1  0
 19 41  1  0
 20 42  1  0
 22 43  1  0
M  CHG  2   7  -1  14   1
M  END
>  <UniqueID>  (37) 
37

>  <SMILES>  (37) 
CC(=O)n1c(C([NH-])=O)cc2ccc([NH2+]CCCN(C)C=O)cc21

>  <Energy>  (37) 
75.38611755645789

>  <Genealogy>  (37) 
CC(=O)n1c(C([NH-])=O)cc2ccc([NH2+]CCCN(C)C=O)cc21 (protonated)
CC(=O)n1c(C([NH-])=O)cc2ccc([NH2+]CCCN(C)C=O)cc21 (3D coordinates assigned)
CC(=O)n1c(C([NH-])=O)cc2ccc([NH2+]CCCN(C)C=O)cc21 (optimized conformer: 75.38611755645789 kcal/mol)

>  <smiles>  (37) 
CC(=O)n1c(C(N)=O)cc2ccc(NCCCN(C)C=O)cc21

>  <score_type>  (37) 
oracle

>  <origin>  (37) 
adg

>  <m_score__min__energy>  (37) 
-6.3499999999999996

>  <m_primary>  (37) 
energy

$$$$
37:0
     RDKit          3D

 43 45  0  0  0  0  0  0  0  0999 V2000
  143.2260  153.6900  132.3320 C   0  0  0  0  0  0  0  0  0  0  0  0
  144.5500  153.6940  132.1830 C   0  0  0  0  0  0  0  0  0  0  0  0
  145.4720  153.9930  133.2950 C   0  0  0  0  0  0  0  0  0  0  0  0
  145.4840  153.2680  134.3270 O   0  0  0  0  0  0  0  0  0  0  0  0
  146.3760  155.1060  133.2020 N   0  0  0  0  0  0  0  0  0  0  0  0
  147.7370  155.0610  133.1410 C   0  0  0  0  0  0  0  0  0  0  0  0
  148.5480  153.8260  133.0360 C   0  0  0  0  0  0  0  0  0  0  0  0
  148.0840  152.5950  133.5950 N   0  0  0  0  0  0  0  0  0  0  0  0
  149.6700  153.8540  132.4660 O   0  0  0  0  0  0  0  0  0  0  0  0
  148.2650  156.3530  133.1190 C   0  0  0  0  0  0  0  0  0  0  0  0
  147.1750  157.1920  133.1760 C   0  0  0  0  0  0  0  0  0  0  0  0
  147.1180  158.5800  133.2010 C   0  0  0  0  0  0  0  0  0  0  0  0
  145.8550  159.1880  133.2950 C   0  0  0  0  0  0  0  0  0  0  0  0
  144.6720  158.4030  133.3740 C   0  0  0  0  0  0  0  0  0  0  0  0
  143.3410  159.0550  133.4870 C   0  0  0  0  0  0  0  0  0  0  0  0
  143.0330  160.2530  134.1170 C   0  0  0  0  0  0  0  0  0  0  0  0
  141.7140  160.4980  133.9930 N   0  0  0  0  0  0  0  0  0  0  0  0
  141.1820  159.4970  133.3100 N   0  0  0  0  0  0  0  0  0  0  0  0
  139.7930  159.4050  132.9800 C   0  0  0  0  0  0  0  0  0  0  0  0
  139.3360  160.0620  132.0030 O   0  0  0  0  0  0  0  0  0  0  0  0
  138.9490  158.5910  133.7430 O   0  0  0  0  0  0  0  0  0  0  0  0
  139.4310  157.6620  134.7090 C   0  0  0  0  0  0  0  0  0  0  0  0
  139.3310  158.2340  135.9920 O   0  0  0  0  0  0  0  0  0  0  0  0
  140.7910  157.9410  136.8210 P   0  0  0  0  0  0  0  0  0  0  0  0
  141.8300  157.4620  135.8340 O   0  0  0  0  0  0  0  0  0  0  0  0
  141.3420  159.3630  137.5560 O   0  0  0  0  0  0  0  0  0  0  0  0
  140.5620  156.7490  138.0000 O   0  0  0  0  0  0  0  0  0  0  0  0
  142.1330  158.6030  132.9840 C   0  0  0  0  0  0  0  0  0  0  0  0
  144.7790  156.9910  133.3480 C   0  0  0  0  0  0  0  0  0  0  0  0
  146.0490  156.4170  133.2300 C   0  0  0  0  0  0  0  0  0  0  0  0
  142.5767  153.4612  131.4741 H   0  0  0  0  0  0  0  0  0  0  0  0
  142.7822  153.9155  133.3129 H   0  0  0  0  0  0  0  0  0  0  0  0
  144.9716  153.4656  131.1930 H   0  0  0  0  0  0  0  0  0  0  0  0
  147.1350  152.5100  134.0180 H   0  0  0  0  0  0  0  0  0  0  0  0
  148.6840  151.7410  133.5460 H   0  0  0  0  0  0  0  0  0  0  0  0
  149.3257  156.6396  133.0672 H   0  0  0  0  0  0  0  0  0  0  0  0
  148.0351  159.1852  133.1487 H   0  0  0  0  0  0  0  0  0  0  0  0
  145.7803  160.2854  133.3076 H   0  0  0  0  0  0  0  0  0  0  0  0
  143.7538  160.9014  134.6367 H   0  0  0  0  0  0  0  0  0  0  0  0
  138.8283  156.7427  134.6681 H   0  0  0  0  0  0  0  0  0  0  0  0
  140.4818  157.4175  134.4943 H   0  0  0  0  0  0  0  0  0  0  0  0
  141.9776  157.6738  132.4161 H   0  0  0  0  0  0  0  0  0  0  0  0
  143.8817  156.3587  133.4192 H   0  0  0  0  0  0  0  0  0  0  0  0
  1  2  2  0
  2  3  1  0
  3  4  2  0
  3  5  1  0
  5  6  1  0
  6  7  1  0
  7  8  1  0
  7  9  2  0
  6 10  2  0
 10 11  1  0
 11 12  2  0
 12 13  1  0
 13 14  2  0
 14 15  1  0
 15 16  1  0
 16 17  2  0
 17 18  1  0
 18 19  1  0
 19 20  2  0
 19 21  1  0
 21 22  1  0
 22 23  1  0
 23 24  1  0
 24 25  2  0
 24 26  1  0
 24 27  1  0
 18 28  1  0
 14 29  1  0
 29 30  2  0
 30  5  1  0
 30 11  1  0
 28 15  2  0
  1 31  1  0
  1 32  1  0
  2 33  1  0
  8 34  1  0
  8 35  1  0
 10 36  1  0
 12 37  1  0
 13 38  1  0
 16 39  1  0
 22 40  1  0
 22 41  1  0
 28 42  1  0
 29 43  1  0
M  CHG  2  26  -1  27  -1
M  END
>  <UniqueID>  (38) 
38

>  <SMILES>  (38) 
C=CC(=O)n1c(C(N)=O)cc2ccc(-c3cnn(C(=O)OCOP(=O)([O-])[O-])c3)cc21

>  <Energy>  (38) 
111.761997013575

>  <Genealogy>  (38) 
C=CC(=O)n1c(C(N)=O)cc2ccc(-c3cnn(C(=O)OCOP(=O)([O-])[O-])c3)cc21 (protonated)
C=CC(=O)n1c(C(N)=O)cc2ccc(-c3cnn(C(=O)OCOP(=O)([O-])[O-])c3)cc21 (3D coordinates assigned)
C=CC(=O)n1c(C(N)=O)cc2ccc(-c3cnn(C(=O)OCOP(=O)([O-])[O-])c3)cc21 (optimized conformer: 111.761997013575 kcal/mol)

>  <smiles>  (38) 
C=CC(=O)n1c(C(N)=O)cc2ccc(-c3cnn(C(=O)OCOP(=O)(O)O)c3)cc21

>  <score_type>  (38) 
oracle

>  <origin>  (38) 
adg

>  <m_score__min__energy>  (38) 
-8.6999999999999993

>  <m_primary>  (38) 
energy

$$$$
38:0
     RDKit          3D

 40 41  0  0  0  0  0  0  0  0999 V2000
  141.4200  158.8450  137.5720 C   0  0  0  0  0  0  0  0  0  0  0  0
  141.1960  159.4150  136.2890 O   0  0  0  0  0  0  0  0  0  0  0  0
  140.4000  158.7970  135.3200 C   0  0  0  0  0  0  0  0  0  0  0  0
  139.3720  158.1450  135.6500 O   0  0  0  0  0  0  0  0  0  0  0  0
  140.7460  158.9570  133.8760 C   0  0  0  0  0  0  0  0  0  0  0  0
  142.1800  159.3820  133.7350 C   0  0  0  0  0  0  0  0  0  0  0  0
  142.5310  160.7530  133.8260 C   0  0  0  0  0  0  0  0  0  0  0  0
  143.8750  161.1540  133.7410 C   0  0  0  0  0  0  0  0  0  0  0  0
  144.8410  160.1680  133.5670 C   0  0  0  0  0  0  0  0  0  0  0  0
  146.2120  160.2720  133.4880 C   0  0  0  0  0  0  0  0  0  0  0  0
  146.6750  158.9660  133.3440 C   0  0  0  0  0  0  0  0  0  0  0  0
  148.1010  158.6140  133.1740 C   0  0  0  0  0  0  0  0  0  0  0  0
  148.6040  158.1690  131.9160 N   0  0  0  0  0  0  0  0  0  0  0  0
  148.8940  158.7380  134.1450 O   0  0  0  0  0  0  0  0  0  0  0  0
  145.6310  158.0900  133.3330 N   0  0  0  0  0  0  0  0  0  0  0  0
  145.6870  156.6560  133.2860 C   0  0  0  0  0  0  0  0  0  0  0  0
  144.7180  155.9830  133.7290 O   0  0  0  0  0  0  0  0  0  0  0  0
  146.8730  155.9700  132.7300 C   0  0  0  0  0  0  0  0  0  0  0  0
  146.8540  155.6090  131.5200 O   0  0  0  0  0  0  0  0  0  0  0  0
  148.0630  155.7770  133.5290 N   0  0  1  0  0  0  0  0  0  0  0  0
  147.7400  155.6950  134.9630 C   0  0  0  0  0  0  0  0  0  0  0  0
  148.7490  154.5880  133.0930 C   0  0  0  0  0  0  0  0  0  0  0  0
  149.7080  154.6590  132.2740 O   0  0  0  0  0  0  0  0  0  0  0  0
  148.3680  153.3460  133.5850 O   0  0  0  0  0  0  0  0  0  0  0  0
  144.5170  158.8400  133.4730 C   0  0  0  0  0  0  0  0  0  0  0  0
  143.1900  158.4080  133.5720 C   0  0  0  0  0  0  0  0  0  0  0  0
  141.1354  159.5691  138.3497 H   0  0  0  0  0  0  0  0  0  0  0  0
  140.8130  157.9340  137.6795 H   0  0  0  0  0  0  0  0  0  0  0  0
  142.4848  158.5910  137.6795 H   0  0  0  0  0  0  0  0  0  0  0  0
  140.5976  157.9983  133.3575 H   0  0  0  0  0  0  0  0  0  0  0  0
  140.0964  159.7258  133.4322 H   0  0  0  0  0  0  0  0  0  0  0  0
  141.7442  161.5092  133.9644 H   0  0  0  0  0  0  0  0  0  0  0  0
  144.1550  162.2155  133.8099 H   0  0  0  0  0  0  0  0  0  0  0  0
  146.8141  161.1917  133.5298 H   0  0  0  0  0  0  0  0  0  0  0  0
  148.3540  157.2280  131.5410 H   0  0  0  0  0  0  0  0  0  0  0  0
  148.7030  156.5960  133.4090 H   0  0  0  0  0  0  0  0  0  0  0  0
  148.6387  155.9231  135.5549 H   0  0  0  0  0  0  0  0  0  0  0  0
  146.9490  156.4209  135.2028 H   0  0  0  0  0  0  0  0  0  0  0  0
  147.3910  154.6798  135.2028 H   0  0  0  0  0  0  0  0  0  0  0  0
  142.9397  157.3379  133.5242 H   0  0  0  0  0  0  0  0  0  0  0  0
  1  2  1  0
  2  3  1  0
  3  4  2  0
  3  5  1  0
  5  6  1  0
  6  7  2  0
  7  8  1  0
  8  9  2  0
  9 10  1  0
 10 11  2  0
 11 12  1  0
 12 13  1  0
 12 14  2  0
 11 15  1  0
 15 16  1  0
 16 17  2  0
 16 18  1  0
 18 19  2  0
 18 20  1  0
 20 21  1  0
 20 22  1  0
 22 23  2  0
 22 24  1  0
 15 25  1  0
 25 26  2  0
 26  6  1  0
 25  9  1  0
  1 27  1  0
  1 28  1  0
  1 29  1  0
  5 30  1  0
  5 31  1  0
  7 32  1  0
  8 33  1  0
 10 34  1  0
 13 35  1  0
 20 36  1  1
 21 37  1  0
 21 38  1  0
 21 39  1  0
 26 40  1  0
M  CHG  3  13  -1  20   1  24  -1
M  END
>  <UniqueID>  (39) 
39

>  <SMILES>  (39) 
COC(=O)Cc1ccc2cc(C([NH-])=O)n(C(=O)C(=O)[NH+](C)C(=O)[O-])c2c1

>  <Energy>  (39) 
78.14418662572561

>  <Genealogy>  (39) 
COC(=O)Cc1ccc2cc(C([NH-])=O)n(C(=O)C(=O)[NH+](C)C(=O)[O-])c2c1 (protonated)
COC(=O)Cc1ccc2cc(C([NH-])=O)n(C(=O)C(=O)[NH+](C)C(=O)[O-])c2c1 (3D coordinates assigned)
COC(=O)Cc1ccc2cc(C([NH-])=O)n(C(=O)C(=O)[NH+](C)C(=O)[O-])c2c1 (optimized conformer: 78.14418662572561 kcal/mol)

>  <smiles>  (39) 
COC(=O)Cc1ccc2cc(C(N)=O)n(C(=O)C(=O)N(C)C(=O)O)c2c1

>  <score_type>  (39) 
oracle

>  <origin>  (39) 
adg

>  <m_score__min__energy>  (39) 
-6.1799999999999997

>  <m_primary>  (39) 
energy

$$$$
39:0
     RDKit          3D

 41 42  0  0  0  0  0  0  0  0999 V2000
  142.4570  160.8570  133.9780 C   0  0  0  0  0  0  0  0  0  0  0  0
  143.5190  159.8970  133.6640 N   0  0  0  0  0  0  0  0  0  0  0  0
  144.9050  160.3110  133.6330 C   0  0  0  0  0  0  0  0  0  0  0  0
  145.2170  161.4930  133.9480 O   0  0  0  0  0  0  0  0  0  0  0  0
  146.0060  159.3750  133.1980 C   0  0  0  0  0  0  0  0  0  0  0  0
  147.2480  160.1150  132.9330 N   0  0  0  0  0  0  0  0  0  0  0  0
  148.0400  159.4620  131.8820 C   0  0  0  0  0  0  0  0  0  0  0  0
  148.7170  160.4970  131.0400 C   0  0  0  0  0  0  0  0  0  0  0  0
  148.5110  161.7220  131.2510 O   0  0  0  0  0  0  0  0  0  0  0  0
  149.5580  160.1090  130.0040 O   0  0  0  0  0  0  0  0  0  0  0  0
  143.1500  158.5500  133.3040 C   0  0  0  0  0  0  0  0  0  0  0  0
  143.9160  157.8510  132.5860 O   0  0  0  0  0  0  0  0  0  0  0  0
  141.9000  157.9980  133.7440 N   0  0  0  0  0  0  0  0  0  0  0  0
  141.6960  157.0040  134.6530 C   0  0  0  0  0  0  0  0  0  0  0  0
  142.7350  156.3710  135.4890 C   0  0  0  0  0  0  0  0  0  0  0  0
  144.0430  156.1350  134.9790 N   0  0  0  0  0  0  0  0  0  0  0  0
  142.4750  156.0690  136.6840 O   0  0  0  0  0  0  0  0  0  0  0  0
  140.3390  156.6930  134.7380 C   0  0  0  0  0  0  0  0  0  0  0  0
  139.7160  157.5330  133.8430 C   0  0  0  0  0  0  0  0  0  0  0  0
  138.3690  157.6520  133.5110 C   0  0  0  0  0  0  0  0  0  0  0  0
  138.0130  158.5920  132.5270 C   0  0  0  0  0  0  0  0  0  0  0  0
  139.0040  159.3730  131.8770 C   0  0  0  0  0  0  0  0  0  0  0  0
  138.6130  160.4050  130.8510 C   0  0  0  0  0  0  0  0  0  0  0  0
  139.1160  161.6360  131.2260 F   0  0  0  0  0  0  0  0  0  0  0  0
  139.1220  160.0710  129.6080 F   0  0  0  0  0  0  0  0  0  0  0  0
  137.2360  160.4940  130.7440 F   0  0  0  0  0  0  0  0  0  0  0  0
  140.3580  159.2370  132.2610 C   0  0  0  0  0  0  0  0  0  0  0  0
  140.6800  158.3070  133.2550 C   0  0  0  0  0  0  0  0  0  0  0  0
  142.3561  160.9482  135.0696 H   0  0  0  0  0  0  0  0  0  0  0  0
  142.7112  161.8379  133.5500 H   0  0  0  0  0  0  0  0  0  0  0  0
  141.5066  160.5054  133.5500 H   0  0  0  0  0  0  0  0  0  0  0  0
  146.1883  158.6384  133.9944 H   0  0  0  0  0  0  0  0  0  0  0  0
  145.6931  158.8698  132.2723 H   0  0  0  0  0  0  0  0  0  0  0  0
  146.9770  161.0650  132.5860 H   0  0  0  0  0  0  0  0  0  0  0  0
  148.7991  158.8150  132.3457 H   0  0  0  0  0  0  0  0  0  0  0  0
  147.3742  158.8574  131.2486 H   0  0  0  0  0  0  0  0  0  0  0  0
  144.5330  156.8510  134.3970 H   0  0  0  0  0  0  0  0  0  0  0  0
  139.8671  155.9372  135.3830 H   0  0  0  0  0  0  0  0  0  0  0  0
  137.6067  157.0300  134.0031 H   0  0  0  0  0  0  0  0  0  0  0  0
  136.9545  158.7233  132.2582 H   0  0  0  0  0  0  0  0  0  0  0  0
  141.1406  159.8488  131.7886 H   0  0  0  0  0  0  0  0  0  0  0  0
  1  2  1  0
  2  3  1  0
  3  4  2  0
  3  5  1  0
  5  6  1  0
  6  7  1  0
  7  8  1  0
  8  9  2  0
  8 10  1  0
  2 11  1  0
 11 12  2  0
 11 13  1  0
 13 14  1  0
 14 15  1  0
 15 16  1  0
 15 17  2  0
 14 18  2  0
 18 19  1  0
 19 20  2  0
 20 21  1  0
 21 22  2  0
 22 23  1  0
 23 24  1  0
 23 25  1  0
 23 26  1  0
 22 27  1  0
 27 28  2  0
 28 13  1  0
 28 19  1  0
  1 29  1  0
  1 30  1  0
  1 31  1  0
  5 32  1  0
  5 33  1  0
  6 34  1  0
  7 35  1  0
  7 36  1  0
 16 37  1  0
 18 38  1  0
 20 39  1  0
 21 40  1  0
 27 41  1  0
M  CHG  2  10  -1  16  -1
M  END
>  <UniqueID>  (40) 
40

>  <SMILES>  (40) 
CN(C(=O)CNCC(=O)[O-])C(=O)n1c(C([NH-])=O)cc2ccc(C(F)(F)F)cc21

>  <Energy>  (40) 
81.06945977068565

>  <Genealogy>  (40) 
CN(C(=O)CNCC(=O)[O-])C(=O)n1c(C([NH-])=O)cc2ccc(C(F)(F)F)cc21 (protonated)
CN(C(=O)CNCC(=O)[O-])C(=O)n1c(C([NH-])=O)cc2ccc(C(F)(F)F)cc21 (3D coordinates assigned)
CN(C(=O)CNCC(=O)[O-])C(=O)n1c(C([NH-])=O)cc2ccc(C(F)(F)F)cc21 (optimized conformer: 81.06945977068565 kcal/mol)

>  <smiles>  (40) 
CN(C(=O)CNCC(=O)O)C(=O)n1c(C(N)=O)cc2ccc(C(F)(F)F)cc21

>  <score_type>  (40) 
oracle

>  <origin>  (40) 
adg

>  <m_score__min__energy>  (40) 
-6.2000000000000002

>  <m_primary>  (40) 
energy

$$$$
40:0
     RDKit          3D

 33 35  0  0  0  0  0  0  0  0999 V2000
  142.9460  161.5490  133.7010 N   0  0  0  0  0  0  0  0  0  0  0  0
  144.3450  161.7630  133.8630 C   0  0  0  0  0  0  0  0  0  0  0  0
  144.7710  162.9310  134.0700 O   0  0  0  0  0  0  0  0  0  0  0  0
  145.3060  160.6470  133.7310 C   0  0  0  0  0  0  0  0  0  0  0  0
  146.6840  160.8310  133.6540 C   0  0  0  0  0  0  0  0  0  0  0  0
  147.2090  159.5770  133.4410 C   0  0  0  0  0  0  0  0  0  0  0  0
  148.5330  159.1730  133.3040 C   0  0  0  0  0  0  0  0  0  0  0  0
  148.7890  157.8050  133.1230 C   0  0  0  0  0  0  0  0  0  0  0  0
  147.7250  156.8670  133.0730 C   0  0  0  0  0  0  0  0  0  0  0  0
  148.0150  155.3940  132.9390 C   0  0  0  0  0  0  0  0  0  0  0  0
  149.2120  155.2250  132.2700 F   0  0  0  0  0  0  0  0  0  0  0  0
  148.1080  154.7990  134.1860 F   0  0  0  0  0  0  0  0  0  0  0  0
  147.0090  154.7600  132.2310 F   0  0  0  0  0  0  0  0  0  0  0  0
  146.3950  157.3150  133.2440 C   0  0  0  0  0  0  0  0  0  0  0  0
  146.1670  158.6870  133.4020 C   0  0  0  0  0  0  0  0  0  0  0  0
  144.9900  159.3290  133.5830 N   0  0  0  0  0  0  0  0  0  0  0  0
  143.6950  158.7150  133.6760 C   0  0  0  0  0  0  0  0  0  0  0  0
  143.2080  158.1230  132.6750 O   0  0  0  0  0  0  0  0  0  0  0  0
  142.9720  158.8120  134.8720 O   0  0  0  0  0  0  0  0  0  0  0  0
  141.6280  159.1920  134.9740 C   0  0  0  0  0  0  0  0  0  0  0  0
  141.1620  159.6700  136.0430 O   0  0  0  0  0  0  0  0  0  0  0  0
  140.7480  159.0310  133.8130 C   0  0  0  0  0  0  0  0  0  0  0  0
  139.7830  158.0670  133.6380 C   0  0  0  0  0  0  0  0  0  0  0  0
  139.1920  158.2610  132.4440 N   0  0  0  0  0  0  0  0  0  0  0  0
  139.8290  159.3420  131.9440 C   0  0  0  0  0  0  0  0  0  0  0  0
  140.7550  159.8020  132.7560 O   0  0  0  0  0  0  0  0  0  0  0  0
  142.5540  160.5840  133.6370 H   0  0  0  0  0  0  0  0  0  0  0  0
  147.2360  161.7781  133.7443 H   0  0  0  0  0  0  0  0  0  0  0  0
  149.3546  159.9037  133.3365 H   0  0  0  0  0  0  0  0  0  0  0  0
  149.8268  157.4555  133.0186 H   0  0  0  0  0  0  0  0  0  0  0  0
  145.5580  156.6013  133.2527 H   0  0  0  0  0  0  0  0  0  0  0  0
  139.5352  157.2699  134.3544 H   0  0  0  0  0  0  0  0  0  0  0  0
  139.5984  159.7882  130.9654 H   0  0  0  0  0  0  0  0  0  0  0  0
  1  2  1  0
  2  3  2  0
  2  4  1  0
  4  5  2  0
  5  6  1  0
  6  7  2  0
  7  8  1  0
  8  9  2  0
  9 10  1  0
 10 11  1  0
 10 12  1  0
 10 13  1  0
  9 14  1  0
 14 15  2  0
 15 16  1  0
 16 17  1  0
 17 18  2  0
 17 19  1  0
 19 20  1  0
 20 21  2  0
 20 22  1  0
 22 23  2  0
 23 24  1  0
 24 25  2  0
 25 26  1  0
 16  4  1  0
 26 22  1  0
 15  6  1  0
  1 27  1  0
  5 28  1  0
  7 29  1  0
  8 30  1  0
 14 31  1  0
 23 32  1  0
 25 33  1  0
M  CHG  1   1  -1
M  END
>  <UniqueID>  (41) 
41

>  <SMILES>  (41) 
[NH-]C(=O)c1cc2ccc(C(F)(F)F)cc2n1C(=O)OC(=O)c1cnco1

>  <Energy>  (41) 
104.58074174268249

>  <Genealogy>  (41) 
[NH-]C(=O)c1cc2ccc(C(F)(F)F)cc2n1C(=O)OC(=O)c1cnco1 (protonated)
[NH-]C(=O)c1cc2ccc(C(F)(F)F)cc2n1C(=O)OC(=O)c1cnco1 (3D coordinates assigned)
[NH-]C(=O)c1cc2ccc(C(F)(F)F)cc2n1C(=O)OC(=O)c1cnco1 (optimized conformer: 104.58074174268249 kcal/mol)

>  <smiles>  (41) 
NC(=O)c1cc2ccc(C(F)(F)F)cc2n1C(=O)OC(=O)c1cnco1

>  <score_type>  (41) 
oracle

>  <origin>  (41) 
adg

>  <m_score__min__energy>  (41) 
-6.2800000000000002

>  <m_primary>  (41) 
energy

$$$$
41:0
     RDKit          3D

 27 28  0  0  0  0  0  0  0  0999 V2000
  144.0190  163.6320  133.6860 C   0  0  0  0  0  0  0  0  0  0  0  0
  144.1070  162.4830  133.7240 N   0  0  0  0  0  0  0  0  0  0  0  0
  144.2110  161.1090  133.7540 C   0  0  0  0  0  0  0  0  0  0  0  0
  143.1040  160.3560  134.0310 C   0  0  0  0  0  0  0  0  0  0  0  0
  143.2390  158.9910  134.0530 C   0  0  0  0  0  0  0  0  0  0  0  0
  144.4620  158.4100  133.8030 C   0  0  0  0  0  0  0  0  0  0  0  0
  144.8410  157.1010  133.7690 C   0  0  0  0  0  0  0  0  0  0  0  0
  146.2160  157.0100  133.4650 C   0  0  0  0  0  0  0  0  0  0  0  0
  146.8540  155.7210  133.3710 C   0  0  0  0  0  0  0  0  0  0  0  0
  147.7090  155.4190  132.2230 N   0  0  0  0  0  0  0  0  0  0  0  0
  146.7830  154.7640  134.1690 O   0  0  0  0  0  0  0  0  0  0  0  0
  146.6580  158.2820  133.3160 N   0  0  0  0  0  0  0  0  0  0  0  0
  147.9760  158.6230  133.0080 C   0  0  0  0  0  0  0  0  0  0  0  0
  148.8630  157.7100  133.2300 O   0  0  0  0  0  0  0  0  0  0  0  0
  148.5560  159.8240  132.4770 C   0  0  0  0  0  0  0  0  0  0  0  0
  149.0000  159.7020  131.1890 C   0  0  0  0  0  0  0  0  0  0  0  0
  145.6080  159.1350  133.5180 C   0  0  0  0  0  0  0  0  0  0  0  0
  145.4440  160.5010  133.5010 C   0  0  0  0  0  0  0  0  0  0  0  0
  142.1323  160.8314  134.2307 H   0  0  0  0  0  0  0  0  0  0  0  0
  142.3664  158.3579  134.2713 H   0  0  0  0  0  0  0  0  0  0  0  0
  144.1752  156.2445  133.9511 H   0  0  0  0  0  0  0  0  0  0  0  0
  148.3700  156.1310  131.8540 H   0  0  0  0  0  0  0  0  0  0  0  0
  147.6680  154.4910  131.7610 H   0  0  0  0  0  0  0  0  0  0  0  0
  148.6361  160.7574  133.0535 H   0  0  0  0  0  0  0  0  0  0  0  0
  149.4626  160.5622  130.6829 H   0  0  0  0  0  0  0  0  0  0  0  0
  148.8945  158.7437  130.6593 H   0  0  0  0  0  0  0  0  0  0  0  0
  146.3139  161.1371  133.2805 H   0  0  0  0  0  0  0  0  0  0  0  0
  1  2  3  0
  2  3  1  0
  3  4  2  0
  4  5  1  0
  5  6  2  0
  6  7  1  0
  7  8  2  0
  8  9  1  0
  9 10  1  0
  9 11  2  0
  8 12  1  0
 12 13  1  0
 13 14  2  0
 13 15  1  0
 15 16  2  0
 12 17  1  0
 17 18  2  0
 18  3  1  0
 17  6  1  0
  4 19  1  0
  5 20  1  0
  7 21  1  0
 10 22  1  0
 10 23  1  0
 15 24  1  0
 16 25  1  0
 16 26  1  0
 18 27  1  0
M  CHG  2   1  -1   2   1
M  END
>  <smiles>  (42) 
[C-]#[N+]c1ccc2cc(C(N)=O)n(C(=O)C=C)c2c1

>  <score_type>  (42) 
oracle

>  <origin>  (42) 
adg

>  <m_score__min__energy>  (42) 
-6.8099999999999996

>  <m_primary>  (42) 
energy

$$$$
42:0
     RDKit          3D

 49 51  0  0  0  0  0  0  0  0999 V2000
  147.1070  152.2710  140.4090 C   0  0  0  0  0  0  0  0  0  0  0  0
  148.5740  152.2670  140.2250 N   0  0  0  0  0  0  0  0  0  0  0  0
  149.1890  153.2630  141.1150 C   0  0  0  0  0  0  0  0  0  0  0  0
  149.2950  154.5770  140.3440 C   0  0  0  0  0  0  0  0  0  0  0  0
  149.0890  154.2120  138.8850 C   0  0  0  0  0  0  0  0  0  0  0  0
  149.0090  152.6880  138.8760 C   0  0  2  0  0  0  0  0  0  0  0  0
  148.1660  152.1420  137.7010 C   0  0  0  0  0  0  0  0  0  0  0  0
  147.0160  153.0000  137.4450 N   0  0  0  0  0  0  0  0  0  0  0  0
  147.0170  154.0810  136.5080 C   0  0  0  0  0  0  0  0  0  0  0  0
  148.0870  154.6870  136.2290 O   0  0  0  0  0  0  0  0  0  0  0  0
  145.7350  154.4780  135.8390 C   0  0  0  0  0  0  0  0  0  0  0  0
  145.8070  154.3270  134.3120 C   0  0  0  0  0  0  0  0  0  0  0  0
  146.8590  155.2150  133.6890 C   0  0  0  0  0  0  0  0  0  0  0  0
  148.0750  154.6550  133.2220 C   0  0  0  0  0  0  0  0  0  0  0  0
  149.0550  155.4660  132.6310 C   0  0  0  0  0  0  0  0  0  0  0  0
  148.7870  156.8250  132.5010 C   0  0  0  0  0  0  0  0  0  0  0  0
  149.5510  157.8250  131.9450 C   0  0  0  0  0  0  0  0  0  0  0  0
  148.7720  158.9760  132.0420 C   0  0  0  0  0  0  0  0  0  0  0  0
  149.1670  160.2700  131.4540 C   0  0  0  0  0  0  0  0  0  0  0  0
  148.3440  161.4280  131.5990 N   0  0  0  0  0  0  0  0  0  0  0  0
  150.2140  160.3410  130.7580 O   0  0  0  0  0  0  0  0  0  0  0  0
  147.5840  158.7060  132.6520 N   0  0  0  0  0  0  0  0  0  0  0  0
  146.5600  159.6460  133.0150 C   0  0  0  0  0  0  0  0  0  0  0  0
  146.8370  160.6560  133.7150 O   0  0  0  0  0  0  0  0  0  0  0  0
  145.2490  159.4520  132.5940 O   0  0  0  0  0  0  0  0  0  0  0  0
  147.6060  157.3800  132.9240 C   0  0  0  0  0  0  0  0  0  0  0  0
  146.6270  156.6020  133.5510 C   0  0  0  0  0  0  0  0  0  0  0  0
  146.8722  152.2716  141.4837 H   0  0  0  0  0  0  0  0  0  0  0  0
  146.6811  153.1703  139.9401 H   0  0  0  0  0  0  0  0  0  0  0  0
  146.6762  151.3740  139.9401 H   0  0  0  0  0  0  0  0  0  0  0  0
  148.5631  153.4031  142.0087 H   0  0  0  0  0  0  0  0  0  0  0  0
  150.1850  152.9261  141.4381 H   0  0  0  0  0  0  0  0  0  0  0  0
  148.5184  155.2813  140.6770 H   0  0  0  0  0  0  0  0  0  0  0  0
  150.2658  155.0677  140.5076 H   0  0  0  0  0  0  0  0  0  0  0  0
  148.1561  154.6519  138.5028 H   0  0  0  0  0  0  0  0  0  0  0  0
  149.8976  154.5907  138.2425 H   0  0  0  0  0  0  0  0  0  0  0  0
  149.9928  152.2373  138.6784 H   0  0  0  0  0  0  0  0  0  0  0  0
  148.7920  152.0993  136.7975 H   0  0  0  0  0  0  0  0  0  0  0  0
  147.8039  151.1373  137.9645 H   0  0  0  0  0  0  0  0  0  0  0  0
  144.9240  153.8401  136.2203 H   0  0  0  0  0  0  0  0  0  0  0  0
  145.5500  155.5384  136.0654 H   0  0  0  0  0  0  0  0  0  0  0  0
  146.0431  153.2797  134.0723 H   0  0  0  0  0  0  0  0  0  0  0  0
  144.8318  154.6274  133.9013 H   0  0  0  0  0  0  0  0  0  0  0  0
  148.2515  153.5741  133.3242 H   0  0  0  0  0  0  0  0  0  0  0  0
  150.0069  155.0403  132.2808 H   0  0  0  0  0  0  0  0  0  0  0  0
  150.5599  157.7351  131.5161 H   0  0  0  0  0  0  0  0  0  0  0  0
  147.3880  161.3620  132.0150 H   0  0  0  0  0  0  0  0  0  0  0  0
  148.6460  162.3410  131.1930 H   0  0  0  0  0  0  0  0  0  0  0  0
  145.6997  157.0586  133.9272 H   0  0  0  0  0  0  0  0  0  0  0  0
  1  2  1  0
  2  3  1  0
  3  4  1  0
  4  5  1  0
  5  6  1  0
  6  7  1  0
  7  8  1  0
  8  9  1  0
  9 10  2  0
  9 11  1  0
 11 12  1  0
 12 13  1  0
 13 14  2  0
 14 15  1  0
 15 16  2  0
 16 17  1  0
 17 18  2  0
 18 19  1  0
 19 20  1  0
 19 21  2  0
 18 22  1  0
 22 23  1  0
 23 24  2  0
 23 25  1  0
 22 26  1  0
 26 27  2  0
  6  2  1  0
 27 13  1  0
 26 16  1  0
  1 28  1  0
  1 29  1  0
  1 30  1  0
  3 31  1  0
  3 32  1  0
  4 33  1  0
  4 34  1  0
  5 35  1  0
  5 36  1  0
  6 37  1  6
  7 38  1  0
  7 39  1  0
 11 40  1  0
 11 41  1  0
 12 42  1  0
 12 43  1  0
 14 44  1  0
 15 45  1  0
 17 46  1  0
 20 47  1  0
 20 48  1  0
 27 49  1  0
M  CHG  2   8  -1  25  -1
M  END
>  <UniqueID>  (43) 
42

>  <SMILES>  (43) 
CN1CCC[C@@H]1C[N-]C(=O)CCc1ccc2cc(C(N)=O)n(C(=O)[O-])c2c1

>  <Energy>  (43) 
84.65349930426753

>  <Genealogy>  (43) 
CN1CCC[C@@H]1C[N-]C(=O)CCc1ccc2cc(C(N)=O)n(C(=O)[O-])c2c1 (protonated)
CN1CCC[C@@H]1C[N-]C(=O)CCc1ccc2cc(C(N)=O)n(C(=O)[O-])c2c1 (3D coordinates assigned)
CN1CCC[C@@H]1C[N-]C(=O)CCc1ccc2cc(C(N)=O)n(C(=O)[O-])c2c1 (nonaromatic ring conformer: 84.65349930426753 kcal/mol)

>  <smiles>  (43) 
CN1CCC[C@@H]1CNC(=O)CCc1ccc2cc(C(N)=O)n(C(=O)O)c2c1

>  <score_type>  (43) 
oracle

>  <origin>  (43) 
adg

>  <m_score__min__energy>  (43) 
-8.5600000000000005

>  <m_primary>  (43) 
energy

$$$$
43:0
     RDKit          3D

 59 60  0  0  0  0  0  0  0  0999 V2000
  139.4730  157.8690  136.2550 C   0  0  0  0  0  0  0  0  0  0  0  0
  139.3040  158.0190  134.8510 O   0  0  0  0  0  0  0  0  0  0  0  0
  140.0250  157.2620  133.9220 C   0  0  0  0  0  0  0  0  0  0  0  0
  139.6200  156.1180  133.5760 O   0  0  0  0  0  0  0  0  0  0  0  0
  141.3360  157.7920  133.4000 C   0  0  2  0  0  0  0  0  0  0  0  0
  142.0370  156.7620  132.6230 N   0  0  0  0  0  0  0  0  0  0  0  0
  142.2230  158.2900  134.5620 C   0  0  0  0  0  0  0  0  0  0  0  0
  143.5020  158.9130  134.0600 C   0  0  0  0  0  0  0  0  0  0  0  0
  143.6080  160.3200  133.9300 C   0  0  0  0  0  0  0  0  0  0  0  0
  144.8110  160.9120  133.5110 C   0  0  0  0  0  0  0  0  0  0  0  0
  145.8890  160.0740  133.2360 C   0  0  0  0  0  0  0  0  0  0  0  0
  147.1800  160.3840  132.8690 C   0  0  0  0  0  0  0  0  0  0  0  0
  147.8420  159.1590  132.7820 C   0  0  0  0  0  0  0  0  0  0  0  0
  149.2520  159.0200  132.3630 C   0  0  0  0  0  0  0  0  0  0  0  0
  149.8210  157.7230  132.2050 N   0  0  0  0  0  0  0  0  0  0  0  0
  149.9690  160.0370  132.1680 O   0  0  0  0  0  0  0  0  0  0  0  0
  146.9940  158.1350  133.0810 N   0  0  0  0  0  0  0  0  0  0  0  0
  147.3140  156.7410  133.2150 C   0  0  0  0  0  0  0  0  0  0  0  0
  148.2530  156.3900  133.9790 O   0  0  0  0  0  0  0  0  0  0  0  0
  146.5440  155.7570  132.5060 N   0  0  0  0  0  0  0  0  0  0  0  0
  146.7020  154.3380  132.6880 C   0  0  0  0  0  0  0  0  0  0  0  0
  147.7680  153.8860  133.1890 O   0  0  0  0  0  0  0  0  0  0  0  0
  145.6560  153.4240  132.2930 N   0  0  0  0  0  0  0  0  0  0  0  0
  145.9160  151.9820  132.2430 C   0  0  0  0  0  0  0  0  0  0  0  0
  144.3710  153.9390  131.8010 C   0  0  0  0  0  0  0  0  0  0  0  0
  143.2210  153.4420  132.6860 C   0  0  0  0  0  0  0  0  0  0  0  0
  142.8070  154.4930  133.6410 N   0  0  0  0  0  0  0  0  0  0  0  0
  143.9190  154.8610  134.5370 C   0  0  0  0  0  0  0  0  0  0  0  0
  141.6640  154.0310  134.4460 C   0  0  0  0  0  0  0  0  0  0  0  0
  145.8030  158.7120  133.3540 C   0  0  0  0  0  0  0  0  0  0  0  0
  144.6190  158.0970  133.7760 C   0  0  0  0  0  0  0  0  0  0  0  0
  138.7508  158.5100  136.7818 H   0  0  0  0  0  0  0  0  0  0  0  0
  139.3033  156.8188  136.5346 H   0  0  0  0  0  0  0  0  0  0  0  0
  140.4957  158.1622  136.5346 H   0  0  0  0  0  0  0  0  0  0  0  0
  141.1239  158.6433  132.7364 H   0  0  0  0  0  0  0  0  0  0  0  0
  142.2040  157.1050  131.6480 H   0  0  0  0  0  0  0  0  0  0  0  0
  141.4780  155.8790  132.5870 H   0  0  0  0  0  0  0  0  0  0  0  0
  142.9660  156.5600  133.0600 H   0  0  0  0  0  0  0  0  0  0  0  0
  141.6643  159.0402  135.1409 H   0  0  0  0  0  0  0  0  0  0  0  0
  142.4857  157.4246  135.1882 H   0  0  0  0  0  0  0  0  0  0  0  0
  142.7396  160.9550  134.1595 H   0  0  0  0  0  0  0  0  0  0  0  0
  144.8989  162.0032  133.4035 H   0  0  0  0  0  0  0  0  0  0  0  0
  147.5994  161.3839  132.6840 H   0  0  0  0  0  0  0  0  0  0  0  0
  149.9240  157.0790  133.0210 H   0  0  0  0  0  0  0  0  0  0  0  0
  145.8290  156.1000  131.8290 H   0  0  0  0  0  0  0  0  0  0  0  0
  145.9873  151.5866  133.2670 H   0  0  0  0  0  0  0  0  0  0  0  0
  145.0940  151.4794  131.7122 H   0  0  0  0  0  0  0  0  0  0  0  0
  146.8618  151.7981  131.7122 H   0  0  0  0  0  0  0  0  0  0  0  0
  144.3913  155.0387  131.8170 H   0  0  0  0  0  0  0  0  0  0  0  0
  144.2120  153.5785  130.7740 H   0  0  0  0  0  0  0  0  0  0  0  0
  142.3647  153.1744  132.0495 H   0  0  0  0  0  0  0  0  0  0  0  0
  143.5636  152.5634  133.2523 H   0  0  0  0  0  0  0  0  0  0  0  0
  143.5973  154.7545  135.5835 H   0  0  0  0  0  0  0  0  0  0  0  0
  144.7768  154.1988  134.3479 H   0  0  0  0  0  0  0  0  0  0  0  0
  144.2124  155.9041  134.3479 H   0  0  0  0  0  0  0  0  0  0  0  0
  141.9051  154.1284  135.5148 H   0  0  0  0  0  0  0  0  0  0  0  0
  140.7799  154.6424  134.2123 H   0  0  0  0  0  0  0  0  0  0  0  0
  141.4531  152.9770  134.2123 H   0  0  0  0  0  0  0  0  0  0  0  0
  144.5598  157.0039  133.8839 H   0  0  0  0  0  0  0  0  0  0  0  0
  1  2  1  0
  2  3  1  0
  3  4  2  0
  3  5  1  0
  5  6  1  0
  5  7  1  0
  7  8  1  0
  8  9  2  0
  9 10  1  0
 10 11  2  0
 11 12  1  0
 12 13  2  0
 13 14  1  0
 14 15  1  0
 14 16  2  0
 13 17  1  0
 17 18  1  0
 18 19  2  0
 18 20  1  0
 20 21  1  0
 21 22  2  0
 21 23  1  0
 23 24  1  0
 23 25  1  0
 25 26  1  0
 26 27  1  0
 27 28  1  0
 27 29  1  0
 17 30  1  0
 30 31  2  0
 31  8  1  0
 30 11  1  0
  1 32  1  0
  1 33  1  0
  1 34  1  0
  5 35  1  6
  6 36  1  0
  6 37  1  0
  6 38  1  0
  7 39  1  0
  7 40  1  0
  9 41  1  0
 10 42  1  0
 12 43  1  0
 15 44  1  0
 20 45  1  0
 24 46  1  0
 24 47  1  0
 24 48  1  0
 25 49  1  0
 25 50  1  0
 26 51  1  0
 26 52  1  0
 28 53  1  0
 28 54  1  0
 28 55  1  0
 29 56  1  0
 29 57  1  0
 29 58  1  0
 31 59  1  0
M  CHG  2   6   1  15  -1
M  END
>  <UniqueID>  (44) 
43

>  <SMILES>  (44) 
COC(=O)[C@H]([NH3+])Cc1ccc2cc(C([NH-])=O)n(C(=O)NC(=O)N(C)CCN(C)C)c2c1

>  <Energy>  (44) 
88.03983679362052

>  <Genealogy>  (44) 
COC(=O)C([NH3+])Cc1ccc2cc(C([NH-])=O)n(C(=O)NC(=O)N(C)CCN(C)C)c2c1 (protonated)
COC(=O)[C@H]([NH3+])Cc1ccc2cc(C([NH-])=O)n(C(=O)NC(=O)N(C)CCN(C)C)c2c1 (chirality)
COC(=O)[C@H]([NH3+])Cc1ccc2cc(C([NH-])=O)n(C(=O)NC(=O)N(C)CCN(C)C)c2c1 (3D coordinates assigned)
COC(=O)[C@H]([NH3+])Cc1ccc2cc(C([NH-])=O)n(C(=O)NC(=O)N(C)CCN(C)C)c2c1 (optimized conformer: 88.03983679362052 kcal/mol)

>  <smiles>  (44) 
COC(=O)C(N)Cc1ccc2cc(C(N)=O)n(C(=O)NC(=O)N(C)CCN(C)C)c2c1

>  <score_type>  (44) 
oracle

>  <origin>  (44) 
adg

>  <m_score__min__energy>  (44) 
-8.1699999999999999

>  <m_primary>  (44) 
energy

$$$$
44:0
     RDKit          3D

 41 42  0  0  0  0  0  0  0  0999 V2000
  148.4920  161.2210  131.2750 C   0  0  0  0  0  0  0  0  0  0  0  0
  148.4530  159.8920  131.4290 C   0  0  0  0  0  0  0  0  0  0  0  0
  149.1890  159.0160  130.4550 C   0  0  0  0  0  0  0  0  0  0  0  0
  147.5920  159.2670  132.4630 C   0  0  0  0  0  0  0  0  0  0  0  0
  148.0570  158.3230  133.1560 O   0  0  0  0  0  0  0  0  0  0  0  0
  146.2540  159.7430  132.7000 N   0  0  0  0  0  0  0  0  0  0  0  0
  145.2690  159.0170  133.4520 C   0  0  0  0  0  0  0  0  0  0  0  0
  145.5700  157.9390  134.0340 O   0  0  0  0  0  0  0  0  0  0  0  0
  143.9230  159.5140  133.5370 N   0  0  0  0  0  0  0  0  0  0  0  0
  143.5240  160.8030  133.7280 C   0  0  0  0  0  0  0  0  0  0  0  0
  144.4230  161.9800  133.7660 C   0  0  0  0  0  0  0  0  0  0  0  0
  143.9560  163.2720  133.3730 N   0  0  0  0  0  0  0  0  0  0  0  0
  145.6220  161.8470  134.1280 O   0  0  0  0  0  0  0  0  0  0  0  0
  142.1340  160.8740  133.8070 C   0  0  0  0  0  0  0  0  0  0  0  0
  141.6940  159.5780  133.6620 C   0  0  0  0  0  0  0  0  0  0  0  0
  140.4030  159.0650  133.6770 C   0  0  0  0  0  0  0  0  0  0  0  0
  140.2410  157.6770  133.5350 C   0  0  0  0  0  0  0  0  0  0  0  0
  141.3680  156.8160  133.3900 C   0  0  0  0  0  0  0  0  0  0  0  0
  141.1920  155.3830  133.2530 N   0  0  0  0  0  0  0  0  0  0  0  0
  142.3430  154.4790  133.3660 C   0  0  0  0  0  0  0  0  0  0  0  0
  139.8650  154.8160  132.9870 C   0  0  0  0  0  0  0  0  0  0  0  0
  142.6660  157.3880  133.3860 C   0  0  0  0  0  0  0  0  0  0  0  0
  142.7920  158.7760  133.5040 C   0  0  0  0  0  0  0  0  0  0  0  0
  147.9571  161.8725  131.9817 H   0  0  0  0  0  0  0  0  0  0  0  0
  149.0589  161.6617  130.4417 H   0  0  0  0  0  0  0  0  0  0  0  0
  149.8010  158.2875  131.0070 H   0  0  0  0  0  0  0  0  0  0  0  0
  148.4647  158.4818  129.8225 H   0  0  0  0  0  0  0  0  0  0  0  0
  149.8400  159.6373  129.8225 H   0  0  0  0  0  0  0  0  0  0  0  0
  145.9830  160.6800  132.3310 H   0  0  0  0  0  0  0  0  0  0  0  0
  144.6120  164.0850  133.3690 H   0  0  0  0  0  0  0  0  0  0  0  0
  142.9570  163.4390  133.1280 H   0  0  0  0  0  0  0  0  0  0  0  0
  141.5195  161.7744  133.9540 H   0  0  0  0  0  0  0  0  0  0  0  0
  139.5326  159.7269  133.7967 H   0  0  0  0  0  0  0  0  0  0  0  0
  139.2283  157.2475  133.5357 H   0  0  0  0  0  0  0  0  0  0  0  0
  142.5677  154.3025  134.4282 H   0  0  0  0  0  0  0  0  0  0  0  0
  142.1071  153.5222  132.8772 H   0  0  0  0  0  0  0  0  0  0  0  0
  143.2167  154.9349  132.8772 H   0  0  0  0  0  0  0  0  0  0  0  0
  139.3605  154.6004  133.9404 H   0  0  0  0  0  0  0  0  0  0  0  0
  139.2670  155.5372  132.4106 H   0  0  0  0  0  0  0  0  0  0  0  0
  139.9728  153.8853  132.4106 H   0  0  0  0  0  0  0  0  0  0  0  0
  143.5579  156.7511  133.2918 H   0  0  0  0  0  0  0  0  0  0  0  0
  1  2  2  0
  2  3  1  0
  2  4  1  0
  4  5  2  0
  4  6  1  0
  6  7  1  0
  7  8  2  0
  7  9  1  0
  9 10  1  0
 10 11  1  0
 11 12  1  0
 11 13  2  0
 10 14  2  0
 14 15  1  0
 15 16  2  0
 16 17  1  0
 17 18  2  0
 18 19  1  0
 19 20  1  0
 19 21  1  0
 18 22  1  0
 22 23  2  0
 23  9  1  0
 23 15  1  0
  1 24  1  0
  1 25  1  0
  3 26  1  0
  3 27  1  0
  3 28  1  0
  6 29  1  0
 12 30  1  0
 12 31  1  0
 14 32  1  0
 16 33  1  0
 17 34  1  0
 20 35  1  0
 20 36  1  0
 20 37  1  0
 21 38  1  0
 21 39  1  0
 21 40  1  0
 22 41  1  0
M  END
>  <UniqueID>  (45) 
44

>  <SMILES>  (45) 
C=C(C)C(=O)NC(=O)n1c(C(N)=O)cc2ccc(N(C)C)cc21

>  <Energy>  (45) 
80.81510453227472

>  <Genealogy>  (45) 
C=C(C)C(=O)NC(=O)n1c(C(N)=O)cc2ccc(N(C)C)cc21 (3D coordinates assigned)
C=C(C)C(=O)NC(=O)n1c(C(N)=O)cc2ccc(N(C)C)cc21 (optimized conformer: 80.81510453227472 kcal/mol)

>  <smiles>  (45) 
C=C(C)C(=O)NC(=O)n1c(C(N)=O)cc2ccc(N(C)C)cc21

>  <score_type>  (45) 
oracle

>  <origin>  (45) 
adg

>  <m_score__min__energy>  (45) 
-8.1999999999999993

>  <m_primary>  (45) 
energy

$$$$
45:0
     RDKit          3D

 47 49  0  0  0  0  0  0  0  0999 V2000
  140.6360  158.6650  136.5810 C   0  0  0  0  0  0  0  0  0  0  0  0
  141.7180  158.4840  135.6930 O   0  0  0  0  0  0  0  0  0  0  0  0
  141.7300  159.5050  134.7140 C   0  0  0  0  0  0  0  0  0  0  0  0
  141.1240  158.9920  133.4050 C   0  0  0  0  0  0  0  0  0  0  0  0
  140.7350  157.5860  133.5260 N   0  0  0  0  0  0  0  0  0  0  0  0
  139.4730  157.1150  133.0360 C   0  0  0  0  0  0  0  0  0  0  0  0
  138.5910  157.9340  132.6610 O   0  0  0  0  0  0  0  0  0  0  0  0
  139.1900  155.6430  132.9750 C   0  0  0  0  0  0  0  0  0  0  0  0
  140.4050  154.9030  132.8730 O   0  0  0  0  0  0  0  0  0  0  0  0
  141.2620  154.6910  133.9590 C   0  0  0  0  0  0  0  0  0  0  0  0
  140.9980  155.1860  135.0890 O   0  0  0  0  0  0  0  0  0  0  0  0
  142.4120  153.8500  133.8000 N   0  0  0  0  0  0  0  0  0  0  0  0
  143.7160  154.1610  134.0410 C   0  0  0  0  0  0  0  0  0  0  0  0
  144.2060  155.4130  134.6540 C   0  0  0  0  0  0  0  0  0  0  0  0
  143.4820  156.6270  134.4660 N   0  0  0  0  0  0  0  0  0  0  0  0
  145.2710  155.4290  135.3250 O   0  0  0  0  0  0  0  0  0  0  0  0
  144.5440  153.1010  133.6710 C   0  0  0  0  0  0  0  0  0  0  0  0
  143.6970  152.1310  133.1830 C   0  0  0  0  0  0  0  0  0  0  0  0
  143.9820  150.8820  132.6420 C   0  0  0  0  0  0  0  0  0  0  0  0
  142.9100  150.1080  132.1680 C   0  0  0  0  0  0  0  0  0  0  0  0
  141.5760  150.5940  132.2320 C   0  0  0  0  0  0  0  0  0  0  0  0
  140.4520  149.7780  131.7040 C   0  0  0  0  0  0  0  0  0  0  0  0
  140.6860  148.5420  131.0840 C   0  0  0  0  0  0  0  0  0  0  0  0
  139.6110  147.8010  130.5990 C   0  0  0  0  0  0  0  0  0  0  0  0
  138.3490  148.2840  130.7300 N   0  0  0  0  0  0  0  0  0  0  0  0
  138.1140  149.4580  131.3170 N   0  0  0  0  0  0  0  0  0  0  0  0
  139.1240  150.2210  131.8100 C   0  0  0  0  0  0  0  0  0  0  0  0
  141.3300  151.8700  132.7930 C   0  0  0  0  0  0  0  0  0  0  0  0
  142.4170  152.6090  133.2720 C   0  0  0  0  0  0  0  0  0  0  0  0
  140.9985  158.6044  137.6178 H   0  0  0  0  0  0  0  0  0  0  0  0
  140.1813  159.6517  136.4086 H   0  0  0  0  0  0  0  0  0  0  0  0
  139.8849  157.8800  136.4086 H   0  0  0  0  0  0  0  0  0  0  0  0
  141.1417  160.3613  135.0753 H   0  0  0  0  0  0  0  0  0  0  0  0
  142.7699  159.8132  134.5307 H   0  0  0  0  0  0  0  0  0  0  0  0
  140.2351  159.5919  133.1600 H   0  0  0  0  0  0  0  0  0  0  0  0
  141.8784  159.0811  132.6094 H   0  0  0  0  0  0  0  0  0  0  0  0
  141.4060  156.8940  133.9310 H   0  0  0  0  0  0  0  0  0  0  0  0
  138.6569  155.3390  133.8879 H   0  0  0  0  0  0  0  0  0  0  0  0
  138.5730  155.4365  132.0881 H   0  0  0  0  0  0  0  0  0  0  0  0
  142.4860  156.7100  134.7720 H   0  0  0  0  0  0  0  0  0  0  0  0
  145.6399  153.0507  133.7518 H   0  0  0  0  0  0  0  0  0  0  0  0
  145.0162  150.5112  132.5869 H   0  0  0  0  0  0  0  0  0  0  0  0
  143.1055  149.1129  131.7418 H   0  0  0  0  0  0  0  0  0  0  0  0
  141.7124  148.1601  130.9814 H   0  0  0  0  0  0  0  0  0  0  0  0
  139.7836  146.8297  130.1125 H   0  0  0  0  0  0  0  0  0  0  0  0
  138.9017  151.1846  132.2916 H   0  0  0  0  0  0  0  0  0  0  0  0
  140.3075  152.2714  132.8510 H   0  0  0  0  0  0  0  0  0  0  0  0
  1  2  1  0
  2  3  1  0
  3  4  1  0
  4  5  1  0
  5  6  1  0
  6  7  2  0
  6  8  1  0
  8  9  1  0
  9 10  1  0
 10 11  2  0
 10 12  1  0
 12 13  1  0
 13 14  1  0
 14 15  1  0
 14 16  2  0
 13 17  2  0
 17 18  1  0
 18 19  2  0
 19 20  1  0
 20 21  2  0
 21 22  1  0
 22 23  2  0
 23 24  1  0
 24 25  2  0
 25 26  1  0
 26 27  2  0
 21 28  1  0
 28 29  2  0
 29 12  1  0
 29 18  1  0
 27 22  1  0
  1 30  1  0
  1 31  1  0
  1 32  1  0
  3 33  1  0
  3 34  1  0
  4 35  1  0
  4 36  1  0
  5 37  1  0
  8 38  1  0
  8 39  1  0
 15 40  1  0
 17 41  1  0
 19 42  1  0
 20 43  1  0
 23 44  1  0
 24 45  1  0
 27 46  1  0
 28 47  1  0
M  CHG  1  15  -1
M  END
>  <UniqueID>  (46) 
45

>  <SMILES>  (46) 
COCCNC(=O)COC(=O)n1c(C([NH-])=O)cc2ccc(-c3ccnnc3)cc21

>  <Energy>  (46) 
88.5369709304222

>  <Genealogy>  (46) 
COCCNC(=O)COC(=O)n1c(C([NH-])=O)cc2ccc(-c3ccnnc3)cc21 (protonated)
COCCNC(=O)COC(=O)n1c(C([NH-])=O)cc2ccc(-c3ccnnc3)cc21 (3D coordinates assigned)
COCCNC(=O)COC(=O)n1c(C([NH-])=O)cc2ccc(-c3ccnnc3)cc21 (optimized conformer: 88.5369709304222 kcal/mol)

>  <smiles>  (46) 
COCCNC(=O)COC(=O)n1c(C(N)=O)cc2ccc(-c3ccnnc3)cc21

>  <score_type>  (46) 
oracle

>  <origin>  (46) 
adg

>  <m_score__min__energy>  (46) 
-7.4900000000000002

>  <m_primary>  (46) 
energy

$$$$
46:0
     RDKit          3D

 59 60  0  0  0  0  0  0  0  0999 V2000
  149.6300  151.1460  131.4220 C   0  0  0  0  0  0  0  0  0  0  0  0
  149.4860  152.0520  132.6530 C   0  0  0  0  0  0  0  0  0  0  0  0
  149.5850  151.2290  133.9430 C   0  0  0  0  0  0  0  0  0  0  0  0
  148.1900  152.8890  132.6140 C   0  0  0  0  0  0  0  0  0  0  0  0
  148.4490  154.2860  132.7630 O   0  0  0  0  0  0  0  0  0  0  0  0
  147.7330  155.1320  133.6160 C   0  0  0  0  0  0  0  0  0  0  0  0
  147.7250  154.9290  134.8650 O   0  0  0  0  0  0  0  0  0  0  0  0
  146.9960  156.1810  133.0560 O   0  0  0  0  0  0  0  0  0  0  0  0
  145.7890  156.6650  133.5740 C   0  0  0  0  0  0  0  0  0  0  0  0
  144.9310  155.8710  134.0440 O   0  0  0  0  0  0  0  0  0  0  0  0
  145.5420  158.0820  133.5990 N   0  0  0  0  0  0  0  0  0  0  0  0
  146.4640  159.0870  133.6210 C   0  0  0  0  0  0  0  0  0  0  0  0
  147.9310  158.9110  133.7380 C   0  0  0  0  0  0  0  0  0  0  0  0
  148.4770  157.7720  134.4060 N   0  0  0  0  0  0  0  0  0  0  0  0
  148.7130  159.7480  133.2110 O   0  0  0  0  0  0  0  0  0  0  0  0
  145.8300  160.3290  133.6540 C   0  0  0  0  0  0  0  0  0  0  0  0
  144.4840  160.0490  133.6630 C   0  0  0  0  0  0  0  0  0  0  0  0
  143.3960  160.9100  133.7290 C   0  0  0  0  0  0  0  0  0  0  0  0
  142.1100  160.3480  133.7530 C   0  0  0  0  0  0  0  0  0  0  0  0
  141.9160  158.9350  133.6830 C   0  0  0  0  0  0  0  0  0  0  0  0
  140.5720  158.3670  133.7100 N   0  0  0  0  0  0  0  0  0  0  0  0
  139.5820  158.7730  132.6940 C   0  0  0  0  0  0  0  0  0  0  0  0
  140.1750  157.3660  134.7180 C   0  0  0  0  0  0  0  0  0  0  0  0
  139.4840  158.0330  135.9130 C   0  0  0  0  0  0  0  0  0  0  0  0
  140.5100  158.4990  136.9130 C   0  0  0  0  0  0  0  0  0  0  0  0
  140.9150  159.6930  136.8270 O   0  0  0  0  0  0  0  0  0  0  0  0
  141.0710  157.6240  137.9200 N   0  0  0  0  0  0  0  0  0  0  0  0
  140.6920  156.2050  138.0040 C   0  0  0  0  0  0  0  0  0  0  0  0
  142.0400  158.1870  138.8710 C   0  0  0  0  0  0  0  0  0  0  0  0
  143.0640  158.1000  133.5940 C   0  0  0  0  0  0  0  0  0  0  0  0
  144.3350  158.6900  133.6210 C   0  0  0  0  0  0  0  0  0  0  0  0
  149.7949  150.1084  131.7477 H   0  0  0  0  0  0  0  0  0  0  0  0
  148.7121  151.1992  130.8181 H   0  0  0  0  0  0  0  0  0  0  0  0
  150.4861  151.4812  130.8181 H   0  0  0  0  0  0  0  0  0  0  0  0
  150.3208  152.7681  132.6356 H   0  0  0  0  0  0  0  0  0  0  0  0
  149.5045  151.8984  134.8121 H   0  0  0  0  0  0  0  0  0  0  0  0
  148.7691  150.4918  133.9711 H   0  0  0  0  0  0  0  0  0  0  0  0
  150.5525  150.7064  133.9711 H   0  0  0  0  0  0  0  0  0  0  0  0
  147.6885  152.7220  131.6493 H   0  0  0  0  0  0  0  0  0  0  0  0
  147.5550  152.5703  133.4538 H   0  0  0  0  0  0  0  0  0  0  0  0
  149.5130  157.6300  134.4370 H   0  0  0  0  0  0  0  0  0  0  0  0
  147.8650  157.0720  134.8820 H   0  0  0  0  0  0  0  0  0  0  0  0
  146.3055  161.3208  133.6695 H   0  0  0  0  0  0  0  0  0  0  0  0
  143.5380  162.0003  133.7615 H   0  0  0  0  0  0  0  0  0  0  0  0
  141.2341  161.0093  133.8272 H   0  0  0  0  0  0  0  0  0  0  0  0
  138.6753  159.1448  133.1936 H   0  0  0  0  0  0  0  0  0  0  0  0
  140.0071  159.5694  132.0655 H   0  0  0  0  0  0  0  0  0  0  0  0
  139.3256  157.9074  132.0655 H   0  0  0  0  0  0  0  0  0  0  0  0
  139.4818  156.6469  134.2571 H   0  0  0  0  0  0  0  0  0  0  0  0
  141.0794  156.8535  135.0777 H   0  0  0  0  0  0  0  0  0  0  0  0
  138.9017  158.8970  135.5603 H   0  0  0  0  0  0  0  0  0  0  0  0
  138.8175  157.3031  136.3958 H   0  0  0  0  0  0  0  0  0  0  0  0
  140.6128  155.9085  139.0603 H   0  0  0  0  0  0  0  0  0  0  0  0
  139.7222  156.0545  137.5072 H   0  0  0  0  0  0  0  0  0  0  0  0
  141.4576  155.5910  137.5072 H   0  0  0  0  0  0  0  0  0  0  0  0
  141.7015  157.9903  139.8990 H   0  0  0  0  0  0  0  0  0  0  0  0
  143.0230  157.7194  138.7129 H   0  0  0  0  0  0  0  0  0  0  0  0
  142.1206  159.2726  138.7129 H   0  0  0  0  0  0  0  0  0  0  0  0
  142.9560  157.0089  133.5054 H   0  0  0  0  0  0  0  0  0  0  0  0
  1  2  1  0
  2  3  1  0
  2  4  1  0
  4  5  1  0
  5  6  1  0
  6  7  2  0
  6  8  1  0
  8  9  1  0
  9 10  2  0
  9 11  1  0
 11 12  1  0
 12 13  1  0
 13 14  1  0
 13 15  2  0
 12 16  2  0
 16 17  1  0
 17 18  2  0
 18 19  1  0
 19 20  2  0
 20 21  1  0
 21 22  1  0
 21 23  1  0
 23 24  1  0
 24 25  1  0
 25 26  2  0
 25 27  1  0
 27 28  1  0
 27 29  1  0
 20 30  1  0
 30 31  2  0
 31 11  1  0
 31 17  1  0
  1 32  1  0
  1 33  1  0
  1 34  1  0
  2 35  1  0
  3 36  1  0
  3 37  1  0
  3 38  1  0
  4 39  1  0
  4 40  1  0
 14 41  1  0
 14 42  1  0
 16 43  1  0
 18 44  1  0
 19 45  1  0
 22 46  1  0
 22 47  1  0
 22 48  1  0
 23 49  1  0
 23 50  1  0
 24 51  1  0
 24 52  1  0
 28 53  1  0
 28 54  1  0
 28 55  1  0
 29 56  1  0
 29 57  1  0
 29 58  1  0
 30 59  1  0
M  END
>  <UniqueID>  (47) 
46

>  <SMILES>  (47) 
CC(C)COC(=O)OC(=O)n1c(C(N)=O)cc2ccc(N(C)CCC(=O)N(C)C)cc21

>  <Energy>  (47) 
88.95645191019055

>  <Genealogy>  (47) 
CC(C)COC(=O)OC(=O)n1c(C(N)=O)cc2ccc(N(C)CCC(=O)N(C)C)cc21 (3D coordinates assigned)
CC(C)COC(=O)OC(=O)n1c(C(N)=O)cc2ccc(N(C)CCC(=O)N(C)C)cc21 (optimized conformer: 88.95645191019055 kcal/mol)

>  <smiles>  (47) 
CC(C)COC(=O)OC(=O)n1c(C(N)=O)cc2ccc(N(C)CCC(=O)N(C)C)cc21

>  <score_type>  (47) 
oracle

>  <origin>  (47) 
adg

>  <m_score__min__energy>  (47) 
-8.1400000000000006

>  <m_primary>  (47) 
energy

$$$$
47:0
     RDKit          3D

 46 47  0  0  0  0  0  0  0  0999 V2000
  149.3490  152.3290  132.2770 C   0  0  0  0  0  0  0  0  0  0  0  0
  148.9540  153.7290  132.4330 C   0  0  0  0  0  0  0  0  0  0  0  0
  148.6280  154.8820  132.5620 C   0  0  0  0  0  0  0  0  0  0  0  0
  148.2370  156.2580  132.7160 C   0  0  0  0  0  0  0  0  0  0  0  0
  149.2080  157.2810  132.6160 C   0  0  0  0  0  0  0  0  0  0  0  0
  148.8420  158.6280  132.7790 C   0  0  0  0  0  0  0  0  0  0  0  0
  147.5020  158.9140  133.0300 C   0  0  0  0  0  0  0  0  0  0  0  0
  146.8840  160.1210  133.2600 C   0  0  0  0  0  0  0  0  0  0  0  0
  145.5420  159.8150  133.4650 C   0  0  0  0  0  0  0  0  0  0  0  0
  144.4980  160.8350  133.6830 C   0  0  0  0  0  0  0  0  0  0  0  0
  143.1340  160.5850  133.3380 N   0  0  0  0  0  0  0  0  0  0  0  0
  144.8240  161.9680  134.1280 O   0  0  0  0  0  0  0  0  0  0  0  0
  145.3380  158.4690  133.3820 N   0  0  0  0  0  0  0  0  0  0  0  0
  144.1200  157.7530  133.6420 C   0  0  0  0  0  0  0  0  0  0  0  0
  143.9750  157.1330  134.7310 O   0  0  0  0  0  0  0  0  0  0  0  0
  143.0990  157.7470  132.6840 O   0  0  0  0  0  0  0  0  0  0  0  0
  141.7150  157.6610  133.0160 C   0  0  0  0  0  0  0  0  0  0  0  0
  141.4230  158.4600  134.2460 C   0  0  0  0  0  0  0  0  0  0  0  0
  141.0280  159.6510  134.1310 O   0  0  0  0  0  0  0  0  0  0  0  0
  141.6150  157.8710  135.5050 O   0  0  0  0  0  0  0  0  0  0  0  0
  140.7590  158.0150  136.6480 C   0  0  0  0  0  0  0  0  0  0  0  0
  139.3110  157.8910  136.1520 C   0  0  0  0  0  0  0  0  0  0  0  0
  141.0310  156.8940  137.6690 C   0  0  0  0  0  0  0  0  0  0  0  0
  140.9460  159.4000  137.2980 C   0  0  0  0  0  0  0  0  0  0  0  0
  146.5470  157.9310  133.1110 C   0  0  0  0  0  0  0  0  0  0  0  0
  146.8890  156.5790  132.9740 C   0  0  0  0  0  0  0  0  0  0  0  0
  149.4780  151.8717  133.2691 H   0  0  0  0  0  0  0  0  0  0  0  0
  148.5686  151.7874  131.7223 H   0  0  0  0  0  0  0  0  0  0  0  0
  150.2974  152.2752  131.7223 H   0  0  0  0  0  0  0  0  0  0  0  0
  150.2566  157.0208  132.4093 H   0  0  0  0  0  0  0  0  0  0  0  0
  149.5903  159.4314  132.7105 H   0  0  0  0  0  0  0  0  0  0  0  0
  147.3512  161.1167  133.2781 H   0  0  0  0  0  0  0  0  0  0  0  0
  142.4050  161.3070  133.5320 H   0  0  0  0  0  0  0  0  0  0  0  0
  142.8590  159.7270  132.8130 H   0  0  0  0  0  0  0  0  0  0  0  0
  141.1167  158.0516  132.1796 H   0  0  0  0  0  0  0  0  0  0  0  0
  141.4583  156.6082  133.2053 H   0  0  0  0  0  0  0  0  0  0  0  0
  138.6315  157.8328  137.0151 H   0  0  0  0  0  0  0  0  0  0  0  0
  139.0555  158.7706  135.5428 H   0  0  0  0  0  0  0  0  0  0  0  0
  139.2088  156.9808  135.5428 H   0  0  0  0  0  0  0  0  0  0  0  0
  140.9337  157.2952  138.6886 H   0  0  0  0  0  0  0  0  0  0  0  0
  140.3040  156.0814  137.5237 H   0  0  0  0  0  0  0  0  0  0  0  0
  142.0496  156.5050  137.5237 H   0  0  0  0  0  0  0  0  0  0  0  0
  140.9320  159.2960  138.3930 H   0  0  0  0  0  0  0  0  0  0  0  0
  141.9098  159.8260  136.9825 H   0  0  0  0  0  0  0  0  0  0  0  0
  140.1297  160.0664  136.9825 H   0  0  0  0  0  0  0  0  0  0  0  0
  146.1272  155.7907  133.0652 H   0  0  0  0  0  0  0  0  0  0  0  0
  1  2  1  0
  2  3  3  0
  3  4  1  0
  4  5  2  0
  5  6  1  0
  6  7  2  0
  7  8  1  0
  8  9  2  0
  9 10  1  0
 10 11  1  0
 10 12  2  0
  9 13  1  0
 13 14  1  0
 14 15  2  0
 14 16  1  0
 16 17  1  0
 17 18  1  0
 18 19  2  0
 18 20  1  0
 20 21  1  0
 21 22  1  0
 21 23  1  0
 21 24  1  0
 13 25  1  0
 25 26  2  0
 26  4  1  0
 25  7  1  0
  1 27  1  0
  1 28  1  0
  1 29  1  0
  5 30  1  0
  6 31  1  0
  8 32  1  0
 11 33  1  0
 11 34  1  0
 17 35  1  0
 17 36  1  0
 22 37  1  0
 22 38  1  0
 22 39  1  0
 23 40  1  0
 23 41  1  0
 23 42  1  0
 24 43  1  0
 24 44  1  0
 24 45  1  0
 26 46  1  0
M  END
>  <UniqueID>  (48) 
47

>  <SMILES>  (48) 
CC#Cc1ccc2cc(C(N)=O)n(C(=O)OCC(=O)OC(C)(C)C)c2c1

>  <Energy>  (48) 
71.87147000438682

>  <Genealogy>  (48) 
CC#Cc1ccc2cc(C(N)=O)n(C(=O)OCC(=O)OC(C)(C)C)c2c1 (3D coordinates assigned)
CC#Cc1ccc2cc(C(N)=O)n(C(=O)OCC(=O)OC(C)(C)C)c2c1 (optimized conformer: 71.87147000438682 kcal/mol)

>  <smiles>  (48) 
CC#Cc1ccc2cc(C(N)=O)n(C(=O)OCC(=O)OC(C)(C)C)c2c1

>  <score_type>  (48) 
oracle

>  <origin>  (48) 
adg

>  <m_score__min__energy>  (48) 
-7.2999999999999998

>  <m_primary>  (48) 
energy

$$$$
48:0
     RDKit          3D

 34 35  0  0  0  0  0  0  0  0999 V2000
  138.3990  158.1590  131.1860 N   0  0  0  0  0  0  0  0  0  0  0  0
  139.6280  158.6810  131.6960 C   0  0  0  0  0  0  0  0  0  0  0  0
  140.4050  159.2970  130.9180 O   0  0  0  0  0  0  0  0  0  0  0  0
  140.0300  158.4650  133.1000 C   0  0  0  0  0  0  0  0  0  0  0  0
  140.2620  159.5010  134.0020 C   0  0  0  0  0  0  0  0  0  0  0  0
  140.6460  158.8850  135.1710 C   0  0  0  0  0  0  0  0  0  0  0  0
  140.9860  159.4360  136.4030 C   0  0  0  0  0  0  0  0  0  0  0  0
  141.3030  158.5580  137.4530 C   0  0  0  0  0  0  0  0  0  0  0  0
  141.2420  157.1520  137.2670 C   0  0  0  0  0  0  0  0  0  0  0  0
  141.6160  156.2200  138.3910 C   0  0  0  0  0  0  0  0  0  0  0  0
  140.4970  155.5640  138.8760 F   0  0  0  0  0  0  0  0  0  0  0  0
  142.1890  156.9490  139.4160 F   0  0  0  0  0  0  0  0  0  0  0  0
  142.5200  155.2670  137.9540 F   0  0  0  0  0  0  0  0  0  0  0  0
  140.9090  156.6330  135.9940 C   0  0  0  0  0  0  0  0  0  0  0  0
  140.6270  157.5310  134.9590 C   0  0  0  0  0  0  0  0  0  0  0  0
  140.2550  157.2580  133.6880 N   0  0  0  0  0  0  0  0  0  0  0  0
  140.0160  155.9550  133.1320 C   0  0  0  0  0  0  0  0  0  0  0  0
  139.0810  155.7960  132.3010 O   0  0  0  0  0  0  0  0  0  0  0  0
  140.8560  154.8520  133.5050 N   0  0  0  0  0  0  0  0  0  0  0  0
  140.5490  153.4780  133.2190 C   0  0  0  0  0  0  0  0  0  0  0  0
  139.4940  153.1680  132.6040 O   0  0  0  0  0  0  0  0  0  0  0  0
  141.4590  152.3950  133.7080 C   0  0  0  0  0  0  0  0  0  0  0  0
  141.7240  152.5750  135.1680 C   0  0  0  0  0  0  0  0  0  0  0  0
  141.3500  151.6990  135.9930 O   0  0  0  0  0  0  0  0  0  0  0  0
  142.4260  153.6870  135.6160 O   0  0  0  0  0  0  0  0  0  0  0  0
  138.1100  158.3660  130.2040 H   0  0  0  0  0  0  0  0  0  0  0  0
  137.8230  157.4920  131.7440 H   0  0  0  0  0  0  0  0  0  0  0  0
  140.1600  160.5808  133.8188 H   0  0  0  0  0  0  0  0  0  0  0  0
  141.0059  160.5259  136.5502 H   0  0  0  0  0  0  0  0  0  0  0  0
  141.6019  158.9647  138.4304 H   0  0  0  0  0  0  0  0  0  0  0  0
  140.8726  155.5472  135.8216 H   0  0  0  0  0  0  0  0  0  0  0  0
  141.7310  155.0620  134.0360 H   0  0  0  0  0  0  0  0  0  0  0  0
  140.9845  151.4167  133.5411 H   0  0  0  0  0  0  0  0  0  0  0  0
  142.4103  152.4450  133.1580 H   0  0  0  0  0  0  0  0  0  0  0  0
  1  2  1  0
  2  3  2  0
  2  4  1  0
  4  5  2  0
  5  6  1  0
  6  7  2  0
  7  8  1  0
  8  9  2  0
  9 10  1  0
 10 11  1  0
 10 12  1  0
 10 13  1  0
  9 14  1  0
 14 15  2  0
 15 16  1  0
 16 17  1  0
 17 18  2  0
 17 19  1  0
 19 20  1  0
 20 21  2  0
 20 22  1  0
 22 23  1  0
 23 24  2  0
 23 25  1  0
 16  4  1  0
 15  6  1  0
  1 26  1  0
  1 27  1  0
  5 28  1  0
  7 29  1  0
  8 30  1  0
 14 31  1  0
 19 32  1  0
 22 33  1  0
 22 34  1  0
M  CHG  1  25  -1
M  END
>  <UniqueID>  (49) 
48

>  <SMILES>  (49) 
NC(=O)c1cc2ccc(C(F)(F)F)cc2n1C(=O)NC(=O)CC(=O)[O-]

>  <Energy>  (49) 
71.93739636485007

>  <Genealogy>  (49) 
NC(=O)c1cc2ccc(C(F)(F)F)cc2n1C(=O)NC(=O)CC(=O)[O-] (protonated)
NC(=O)c1cc2ccc(C(F)(F)F)cc2n1C(=O)NC(=O)CC(=O)[O-] (3D coordinates assigned)
NC(=O)c1cc2ccc(C(F)(F)F)cc2n1C(=O)NC(=O)CC(=O)[O-] (optimized conformer: 71.93739636485007 kcal/mol)

>  <smiles>  (49) 
NC(=O)c1cc2ccc(C(F)(F)F)cc2n1C(=O)NC(=O)CC(=O)O

>  <score_type>  (49) 
oracle

>  <origin>  (49) 
adg

>  <m_score__min__energy>  (49) 
-6.7599999999999998

>  <m_primary>  (49) 
energy

$$$$
49:0
     RDKit          3D

 40 41  0  0  0  0  0  0  0  0999 V2000
  148.7820  154.1750  132.6120 C   0  0  0  0  0  0  0  0  0  0  0  0
  147.7240  154.8030  133.4180 N   0  0  0  0  0  0  0  0  0  0  0  0
  146.9330  153.9480  134.3230 C   0  0  0  0  0  0  0  0  0  0  0  0
  147.3440  154.1580  135.7490 C   0  0  0  0  0  0  0  0  0  0  0  0
  148.0550  155.1490  136.0660 O   0  0  0  0  0  0  0  0  0  0  0  0
  146.9650  153.2460  136.7280 O   0  0  0  0  0  0  0  0  0  0  0  0
  147.4890  156.2340  133.3380 C   0  0  0  0  0  0  0  0  0  0  0  0
  148.5820  157.1420  133.2560 C   0  0  0  0  0  0  0  0  0  0  0  0
  148.3720  158.5280  133.2360 C   0  0  0  0  0  0  0  0  0  0  0  0
  147.0650  158.9940  133.2990 C   0  0  0  0  0  0  0  0  0  0  0  0
  146.6020  160.2840  133.3640 C   0  0  0  0  0  0  0  0  0  0  0  0
  145.2230  160.1740  133.4830 C   0  0  0  0  0  0  0  0  0  0  0  0
  144.3540  161.3390  133.7360 C   0  0  0  0  0  0  0  0  0  0  0  0
  142.9740  161.3150  133.3560 N   0  0  0  0  0  0  0  0  0  0  0  0
  144.8130  162.3360  134.3610 O   0  0  0  0  0  0  0  0  0  0  0  0
  144.8270  158.8670  133.4500 N   0  0  0  0  0  0  0  0  0  0  0  0
  143.4660  158.3770  133.4030 C   0  0  0  0  0  0  0  0  0  0  0  0
  143.1300  157.5010  132.5540 O   0  0  0  0  0  0  0  0  0  0  0  0
  142.4980  158.9130  134.2700 O   0  0  0  0  0  0  0  0  0  0  0  0
  141.1730  158.3950  134.4060 C   0  0  0  0  0  0  0  0  0  0  0  0
  140.2510  158.9610  133.3240 C   0  0  0  0  0  0  0  0  0  0  0  0
  140.9890  159.7050  132.3940 O   0  0  0  0  0  0  0  0  0  0  0  0
  145.9830  158.1510  133.3600 C   0  0  0  0  0  0  0  0  0  0  0  0
  146.1690  156.7580  133.3730 C   0  0  0  0  0  0  0  0  0  0  0  0
  149.5344  153.7284  133.2786 H   0  0  0  0  0  0  0  0  0  0  0  0
  148.3430  153.3912  131.9773 H   0  0  0  0  0  0  0  0  0  0  0  0
  149.2598  154.9358  131.9773 H   0  0  0  0  0  0  0  0  0  0  0  0
  145.8671  154.1973  134.2145 H   0  0  0  0  0  0  0  0  0  0  0  0
  147.1093  152.8953  134.0569 H   0  0  0  0  0  0  0  0  0  0  0  0
  149.6085  156.7497  133.2075 H   0  0  0  0  0  0  0  0  0  0  0  0
  149.2189  159.2271  133.1722 H   0  0  0  0  0  0  0  0  0  0  0  0
  147.1968  161.2087  133.3292 H   0  0  0  0  0  0  0  0  0  0  0  0
  142.3540  162.1340  133.5560 H   0  0  0  0  0  0  0  0  0  0  0  0
  142.5580  160.4620  132.9070 H   0  0  0  0  0  0  0  0  0  0  0  0
  141.2038  157.2992  134.3156 H   0  0  0  0  0  0  0  0  0  0  0  0
  140.7805  158.6888  135.3907 H   0  0  0  0  0  0  0  0  0  0  0  0
  139.7473  158.1312  132.8066 H   0  0  0  0  0  0  0  0  0  0  0  0
  139.5069  159.6185  133.7973 H   0  0  0  0  0  0  0  0  0  0  0  0
  141.8090  159.1760  132.2050 H   0  0  0  0  0  0  0  0  0  0  0  0
  145.3026  156.0813  133.4099 H   0  0  0  0  0  0  0  0  0  0  0  0
  1  2  1  0
  2  3  1  0
  3  4  1  0
  4  5  2  0
  4  6  1  0
  2  7  1  0
  7  8  2  0
  8  9  1  0
  9 10  2  0
 10 11  1  0
 11 12  2  0
 12 13  1  0
 13 14  1  0
 13 15  2  0
 12 16  1  0
 16 17  1  0
 17 18  2  0
 17 19  1  0
 19 20  1  0
 20 21  1  0
 21 22  1  0
 16 23  1  0
 23 24  2  0
 24  7  1  0
 23 10  1  0
  1 25  1  0
  1 26  1  0
  1 27  1  0
  3 28  1  0
  3 29  1  0
  8 30  1  0
  9 31  1  0
 11 32  1  0
 14 33  1  0
 14 34  1  0
 20 35  1  0
 20 36  1  0
 21 37  1  0
 21 38  1  0
 22 39  1  0
 24 40  1  0
M  CHG  1   6  -1
M  END
>  <UniqueID>  (50) 
49

>  <SMILES>  (50) 
CN(CC(=O)[O-])c1ccc2cc(C(N)=O)n(C(=O)OCCO)c2c1

>  <Energy>  (50) 
79.62451970451329

>  <Genealogy>  (50) 
CN(CC(=O)[O-])c1ccc2cc(C(N)=O)n(C(=O)OCCO)c2c1 (protonated)
CN(CC(=O)[O-])c1ccc2cc(C(N)=O)n(C(=O)OCCO)c2c1 (3D coordinates assigned)
CN(CC(=O)[O-])c1ccc2cc(C(N)=O)n(C(=O)OCCO)c2c1 (optimized conformer: 79.62451970451329 kcal/mol)

>  <smiles>  (50) 
CN(CC(=O)O)c1ccc2cc(C(N)=O)n(C(=O)OCCO)c2c1

>  <score_type>  (50) 
oracle

>  <origin>  (50) 
adg

>  <m_score__min__energy>  (50) 
-6.1600000000000001

>  <m_primary>  (50) 
energy

$$$$
50:0
     RDKit          3D

 44 46  0  0  0  0  0  0  0  0999 V2000
  139.9880  157.3470  133.7140 C   0  0  0  0  0  0  0  0  0  0  0  0
  141.1180  157.5220  134.6480 N   0  0  2  0  0  0  0  0  0  0  0  0
  141.9800  156.3540  134.6290 C   0  0  0  0  0  0  0  0  0  0  0  0
  141.5130  155.2380  134.8130 O   0  0  0  0  0  0  0  0  0  0  0  0
  143.4610  156.4910  134.3930 C   0  0  0  0  0  0  0  0  0  0  0  0
  143.7220  157.5430  133.3570 C   0  0  0  0  0  0  0  0  0  0  0  0
  142.8310  157.8170  132.5080 O   0  0  0  0  0  0  0  0  0  0  0  0
  144.9270  158.3200  133.3980 N   0  0  0  0  0  0  0  0  0  0  0  0
  145.0520  159.6750  133.4560 C   0  0  0  0  0  0  0  0  0  0  0  0
  143.9550  160.6280  133.7200 C   0  0  0  0  0  0  0  0  0  0  0  0
  142.5940  160.2290  133.5880 N   0  0  0  0  0  0  0  0  0  0  0  0
  144.2230  161.7980  134.1050 O   0  0  0  0  0  0  0  0  0  0  0  0
  146.3850  160.0490  133.3120 C   0  0  0  0  0  0  0  0  0  0  0  0
  147.0810  158.8690  133.1700 C   0  0  0  0  0  0  0  0  0  0  0  0
  148.4390  158.6470  132.9630 C   0  0  0  0  0  0  0  0  0  0  0  0
  148.8720  157.3180  132.8060 C   0  0  0  0  0  0  0  0  0  0  0  0
  147.9470  156.2450  132.8590 C   0  0  0  0  0  0  0  0  0  0  0  0
  148.4250  154.8360  132.6560 C   0  0  0  0  0  0  0  0  0  0  0  0
  148.2810  154.1160  133.8290 F   0  0  0  0  0  0  0  0  0  0  0  0
  149.7580  154.8480  132.2890 F   0  0  0  0  0  0  0  0  0  0  0  0
  146.5740  156.5110  133.0670 C   0  0  0  0  0  0  0  0  0  0  0  0
  146.1770  157.8410  133.2310 C   0  0  0  0  0  0  0  0  0  0  0  0
  140.7730  157.8750  136.0570 C   0  0  0  0  0  0  0  0  0  0  0  0
  141.6540  158.8880  136.7300 C   0  0  0  0  0  0  0  0  0  0  0  0
  142.6460  159.3700  136.1230 O   0  0  0  0  0  0  0  0  0  0  0  0
  141.3400  159.3380  138.0060 O   0  0  0  0  0  0  0  0  0  0  0  0
  139.3090  157.8710  136.5140 C   0  0  0  0  0  0  0  0  0  0  0  0
  140.2500  156.7540  136.9560 C   0  0  0  0  0  0  0  0  0  0  0  0
  139.0590  157.2031  134.2853 H   0  0  0  0  0  0  0  0  0  0  0  0
  139.8941  158.2413  133.0804 H   0  0  0  0  0  0  0  0  0  0  0  0
  140.1690  156.4662  133.0804 H   0  0  0  0  0  0  0  0  0  0  0  0
  141.6610  158.3320  134.2650 H   0  0  0  0  0  0  0  0  0  0  0  0
  143.9546  156.7763  135.3337 H   0  0  0  0  0  0  0  0  0  0  0  0
  143.8597  155.5292  134.0382 H   0  0  0  0  0  0  0  0  0  0  0  0
  142.2630  159.3140  133.9700 H   0  0  0  0  0  0  0  0  0  0  0  0
  146.7952  161.0696  133.3117 H   0  0  0  0  0  0  0  0  0  0  0  0
  149.1513  159.4843  132.9234 H   0  0  0  0  0  0  0  0  0  0  0  0
  149.9392  157.1091  132.6404 H   0  0  0  0  0  0  0  0  0  0  0  0
  147.8262  154.3643  131.8630 H   0  0  0  0  0  0  0  0  0  0  0  0
  145.8385  155.6937  133.0989 H   0  0  0  0  0  0  0  0  0  0  0  0
  138.9585  158.6159  137.2436 H   0  0  0  0  0  0  0  0  0  0  0  0
  138.3349  157.9116  136.0047 H   0  0  0  0  0  0  0  0  0  0  0  0
  140.5763  156.6935  138.0047 H   0  0  0  0  0  0  0  0  0  0  0  0
  140.2329  155.6557  136.8969 H   0  0  0  0  0  0  0  0  0  0  0  0
  1  2  1  0
  2  3  1  0
  3  4  2  0
  3  5  1  0
  5  6  1  0
  6  7  2  0
  6  8  1  0
  8  9  1  0
  9 10  1  0
 10 11  1  0
 10 12  2  0
  9 13  2  0
 13 14  1  0
 14 15  2  0
 15 16  1  0
 16 17  2  0
 17 18  1  0
 18 19  1  0
 18 20  1  0
 17 21  1  0
 21 22  2  0
  2 23  1  0
 23 24  1  0
 24 25  2  0
 24 26  1  0
 23 27  1  0
 27 28  1  0
 22  8  1  0
 28 23  1  0
 22 14  1  0
  1 29  1  0
  1 30  1  0
  1 31  1  0
  2 32  1  6
  5 33  1  0
  5 34  1  0
 11 35  1  0
 13 36  1  0
 15 37  1  0
 16 38  1  0
 18 39  1  0
 21 40  1  0
 27 41  1  0
 27 42  1  0
 28 43  1  0
 28 44  1  0
M  CHG  3   2   1  11  -1  26  -1
M  END
>  <UniqueID>  (51) 
50

>  <SMILES>  (51) 
C[N@H+](C(=O)CC(=O)n1c(C([NH-])=O)cc2ccc(C(F)F)cc21)C1(C(=O)[O-])CC1

>  <Energy>  (51) 
358.16435144710624

>  <Genealogy>  (51) 
C[NH+](C(=O)CC(=O)n1c(C([NH-])=O)cc2ccc(C(F)F)cc21)C1(C(=O)[O-])CC1 (protonated)
C[N@H+](C(=O)CC(=O)n1c(C([NH-])=O)cc2ccc(C(F)F)cc21)C1(C(=O)[O-])CC1 (chirality)
C[N@H+](C(=O)CC(=O)n1c(C([NH-])=O)cc2ccc(C(F)F)cc21)C1(C(=O)[O-])CC1 (3D coordinates assigned)
C[N@H+](C(=O)CC(=O)n1c(C([NH-])=O)cc2ccc(C(F)F)cc21)C1(C(=O)[O-])CC1 (nonaromatic ring conformer: 358.16435144710624 kcal/mol)

>  <smiles>  (51) 
CN(C(=O)CC(=O)n1c(C(N)=O)cc2ccc(C(F)F)cc21)C1(C(=O)O)CC1

>  <score_type>  (51) 
oracle

>  <origin>  (51) 
adg

>  <m_score__min__energy>  (51) 
-6.7199999999999998

>  <m_primary>  (51) 
energy

$$$$
51:0
     RDKit          3D

 41 42  0  0  0  0  0  0  0  0999 V2000
  148.5740  152.8430  137.1660 C   0  0  0  0  0  0  0  0  0  0  0  0
  147.3820  153.0650  136.4180 O   0  0  0  0  0  0  0  0  0  0  0  0
  146.9130  154.3450  136.1200 C   0  0  0  0  0  0  0  0  0  0  0  0
  147.7110  155.3180  136.0270 O   0  0  0  0  0  0  0  0  0  0  0  0
  145.4460  154.5740  135.9470 C   0  0  0  0  0  0  0  0  0  0  0  0
  145.1470  155.0460  134.6340 O   0  0  0  0  0  0  0  0  0  0  0  0
  145.9310  154.7560  133.5120 C   0  0  0  0  0  0  0  0  0  0  0  0
  145.6080  153.8130  132.7400 O   0  0  0  0  0  0  0  0  0  0  0  0
  147.1230  155.5210  133.2560 N   0  0  0  0  0  0  0  0  0  0  0  0
  148.3610  155.0370  132.9510 C   0  0  0  0  0  0  0  0  0  0  0  0
  148.7870  153.6280  133.0420 C   0  0  0  0  0  0  0  0  0  0  0  0
  147.9670  152.6510  133.6870 N   0  0  0  0  0  0  0  0  0  0  0  0
  149.9220  153.2930  132.6090 O   0  0  0  0  0  0  0  0  0  0  0  0
  149.2240  156.0710  132.6040 C   0  0  0  0  0  0  0  0  0  0  0  0
  148.4800  157.2220  132.7240 C   0  0  0  0  0  0  0  0  0  0  0  0
  148.8390  158.5450  132.4920 C   0  0  0  0  0  0  0  0  0  0  0  0
  147.8620  159.5360  132.6780 C   0  0  0  0  0  0  0  0  0  0  0  0
  146.5470  159.1950  133.0760 C   0  0  0  0  0  0  0  0  0  0  0  0
  145.5800  160.2440  133.2690 N   0  0  0  0  0  0  0  0  0  0  0  0
  144.2490  160.0100  133.8360 C   0  0  0  0  0  0  0  0  0  0  0  0
  143.3720  161.2590  133.7450 C   0  0  0  0  0  0  0  0  0  0  0  0
  144.1600  162.4020  133.5390 O   0  0  0  0  0  0  0  0  0  0  0  0
  146.2140  157.8340  133.2840 C   0  0  0  0  0  0  0  0  0  0  0  0
  147.2140  156.8650  133.1180 C   0  0  0  0  0  0  0  0  0  0  0  0
  148.3455  152.8856  138.2412 H   0  0  0  0  0  0  0  0  0  0  0  0
  148.9840  151.8531  136.9172 H   0  0  0  0  0  0  0  0  0  0  0  0
  149.3129  153.6190  136.9172 H   0  0  0  0  0  0  0  0  0  0  0  0
  144.9128  153.6271  136.1176 H   0  0  0  0  0  0  0  0  0  0  0  0
  145.1254  155.3367  136.6719 H   0  0  0  0  0  0  0  0  0  0  0  0
  148.2750  151.6570  133.7350 H   0  0  0  0  0  0  0  0  0  0  0  0
  147.1060  152.9330  134.2060 H   0  0  0  0  0  0  0  0  0  0  0  0
  150.2774  155.9865  132.2986 H   0  0  0  0  0  0  0  0  0  0  0  0
  149.8582  158.8075  132.1722 H   0  0  0  0  0  0  0  0  0  0  0  0
  148.1219  160.5919  132.5122 H   0  0  0  0  0  0  0  0  0  0  0  0
  145.8600  161.2180  133.0120 H   0  0  0  0  0  0  0  0  0  0  0  0
  143.7640  159.1920  133.2831 H   0  0  0  0  0  0  0  0  0  0  0  0
  144.3680  159.7493  134.8980 H   0  0  0  0  0  0  0  0  0  0  0  0
  142.6702  161.1476  132.9053 H   0  0  0  0  0  0  0  0  0  0  0  0
  142.8200  161.3743  134.6895 H   0  0  0  0  0  0  0  0  0  0  0  0
  144.7340  162.2230  132.7470 H   0  0  0  0  0  0  0  0  0  0  0  0
  145.1923  157.5433  133.5698 H   0  0  0  0  0  0  0  0  0  0  0  0
  1  2  1  0
  2  3  1  0
  3  4  2  0
  3  5  1  0
  5  6  1  0
  6  7  1  0
  7  8  2  0
  7  9  1  0
  9 10  1  0
 10 11  1  0
 11 12  1  0
 11 13  2  0
 10 14  2  0
 14 15  1  0
 15 16  2  0
 16 17  1  0
 17 18  2  0
 18 19  1  0
 19 20  1  0
 20 21  1  0
 21 22  1  0
 18 23  1  0
 23 24  2  0
 24  9  1  0
 24 15  1  0
  1 25  1  0
  1 26  1  0
  1 27  1  0
  5 28  1  0
  5 29  1  0
 12 30  1  0
 12 31  1  0
 14 32  1  0
 16 33  1  0
 17 34  1  0
 19 35  1  0
 20 36  1  0
 20 37  1  0
 21 38  1  0
 21 39  1  0
 22 40  1  0
 23 41  1  0
M  END
>  <UniqueID>  (52) 
51

>  <SMILES>  (52) 
COC(=O)COC(=O)n1c(C(N)=O)cc2ccc(NCCO)cc21

>  <Energy>  (52) 
73.20442207117875

>  <Genealogy>  (52) 
COC(=O)COC(=O)n1c(C(N)=O)cc2ccc(NCCO)cc21 (3D coordinates assigned)
COC(=O)COC(=O)n1c(C(N)=O)cc2ccc(NCCO)cc21 (optimized conformer: 73.20442207117875 kcal/mol)

>  <smiles>  (52) 
COC(=O)COC(=O)n1c(C(N)=O)cc2ccc(NCCO)cc21

>  <score_type>  (52) 
oracle

>  <origin>  (52) 
adg

>  <m_score__min__energy>  (52) 
-6.5099999999999998

>  <m_primary>  (52) 
energy

$$$$
52:0
     RDKit          3D

 51 54  0  0  0  0  0  0  0  0999 V2000
  138.4000  159.8660  130.3940 C   0  0  0  0  0  0  0  0  0  0  0  0
  139.4190  159.3000  131.0420 C   0  0  0  0  0  0  0  0  0  0  0  0
  139.7550  159.6520  132.4440 C   0  0  0  0  0  0  0  0  0  0  0  0
  139.9460  160.8660  132.7380 O   0  0  0  0  0  0  0  0  0  0  0  0
  139.8710  158.6360  133.4700 N   0  0  0  0  0  0  0  0  0  0  0  0
  140.0940  159.0120  134.8730 C   0  0  0  0  0  0  0  0  0  0  0  0
  141.4040  158.3890  135.3550 C   0  0  0  0  0  0  0  0  0  0  0  0
  141.4290  156.8420  135.1470 C   0  0  0  0  0  0  0  0  0  0  0  0
  141.5730  156.1030  136.3860 C   0  0  0  0  0  0  0  0  0  0  0  0
  142.9350  155.6780  135.9630 C   0  0  0  0  0  0  0  0  0  0  0  0
  142.7980  156.3310  134.7420 C   0  0  0  0  0  0  0  0  0  0  0  0
  143.6930  156.4090  133.5700 C   0  0  0  0  0  0  0  0  0  0  0  0
  143.3640  155.8190  132.5090 O   0  0  0  0  0  0  0  0  0  0  0  0
  144.8960  157.1850  133.5960 N   0  0  0  0  0  0  0  0  0  0  0  0
  145.0230  158.5430  133.6470 C   0  0  0  0  0  0  0  0  0  0  0  0
  143.9320  159.5560  133.7310 C   0  0  0  0  0  0  0  0  0  0  0  0
  142.7160  159.4670  132.9820 N   0  0  0  0  0  0  0  0  0  0  0  0
  144.0750  160.5270  134.5240 O   0  0  0  0  0  0  0  0  0  0  0  0
  146.3710  158.8980  133.5580 C   0  0  0  0  0  0  0  0  0  0  0  0
  147.0600  157.7150  133.4220 C   0  0  0  0  0  0  0  0  0  0  0  0
  148.4210  157.4870  133.2420 C   0  0  0  0  0  0  0  0  0  0  0  0
  148.8470  156.1610  133.0640 C   0  0  0  0  0  0  0  0  0  0  0  0
  147.9150  155.0970  133.0570 C   0  0  0  0  0  0  0  0  0  0  0  0
  148.4010  153.6900  132.8260 C   0  0  0  0  0  0  0  0  0  0  0  0
  147.3480  152.9080  132.3870 F   0  0  0  0  0  0  0  0  0  0  0  0
  148.9150  153.1430  133.9900 F   0  0  0  0  0  0  0  0  0  0  0  0
  149.3980  153.6870  131.8640 F   0  0  0  0  0  0  0  0  0  0  0  0
  146.5360  155.3750  133.2030 C   0  0  0  0  0  0  0  0  0  0  0  0
  146.1450  156.6980  133.4270 C   0  0  0  0  0  0  0  0  0  0  0  0
  140.2590  156.2890  134.2790 C   0  0  0  0  0  0  0  0  0  0  0  0
  139.8680  157.2070  133.1090 C   0  0  0  0  0  0  0  0  0  0  0  0
  138.1817  159.5791  129.3547 H   0  0  0  0  0  0  0  0  0  0  0  0
  137.7778  160.6197  130.8988 H   0  0  0  0  0  0  0  0  0  0  0  0
  140.0299  158.5483  130.5207 H   0  0  0  0  0  0  0  0  0  0  0  0
  140.1544  160.1072  134.9558 H   0  0  0  0  0  0  0  0  0  0  0  0
  139.2605  158.6477  135.4915 H   0  0  0  0  0  0  0  0  0  0  0  0
  142.2374  158.8361  134.7932 H   0  0  0  0  0  0  0  0  0  0  0  0
  141.4977  158.5878  136.4328 H   0  0  0  0  0  0  0  0  0  0  0  0
  141.5571  156.7305  137.2893 H   0  0  0  0  0  0  0  0  0  0  0  0
  140.8211  155.3575  136.6840 H   0  0  0  0  0  0  0  0  0  0  0  0
  143.7336  155.0832  136.4304 H   0  0  0  0  0  0  0  0  0  0  0  0
  141.9920  160.2130  133.0940 H   0  0  0  0  0  0  0  0  0  0  0  0
  142.4630  158.6500  132.3950 H   0  0  0  0  0  0  0  0  0  0  0  0
  146.7940  159.9129  133.5900 H   0  0  0  0  0  0  0  0  0  0  0  0
  149.1403  158.3193  133.2393 H   0  0  0  0  0  0  0  0  0  0  0  0
  149.9175  155.9472  132.9285 H   0  0  0  0  0  0  0  0  0  0  0  0
  145.7893  154.5696  133.1417 H   0  0  0  0  0  0  0  0  0  0  0  0
  140.5617  155.3142  133.8690 H   0  0  0  0  0  0  0  0  0  0  0  0
  139.3798  156.2142  134.9358 H   0  0  0  0  0  0  0  0  0  0  0  0
  140.5833  157.0517  132.2879 H   0  0  0  0  0  0  0  0  0  0  0  0
  138.8409  156.9448  132.8152 H   0  0  0  0  0  0  0  0  0  0  0  0
  1  2  2  0
  2  3  1  0
  3  4  2  0
  3  5  1  0
  5  6  1  0
  6  7  1  0
  7  8  1  0
  8  9  1  0
  9 10  1  0
 10 11  2  0
 11 12  1  0
 12 13  2  0
 12 14  1  0
 14 15  1  0
 15 16  1  0
 16 17  1  0
 16 18  2  0
 15 19  2  0
 19 20  1  0
 20 21  2  0
 21 22  1  0
 22 23  2  0
 23 24  1  0
 24 25  1  0
 24 26  1  0
 24 27  1  0
 23 28  1  0
 28 29  2  0
  8 30  1  0
 30 31  1  0
 31  5  1  0
 11  8  1  0
 29 14  1  0
 29 20  1  0
  1 32  1  0
  1 33  1  0
  2 34  1  0
  6 35  1  0
  6 36  1  0
  7 37  1  0
  7 38  1  0
  9 39  1  0
  9 40  1  0
 10 41  1  0
 17 42  1  0
 17 43  1  0
 19 44  1  0
 21 45  1  0
 22 46  1  0
 28 47  1  0
 30 48  1  0
 30 49  1  0
 31 50  1  0
 31 51  1  0
M  END
>  <UniqueID>  (53) 
52

>  <SMILES>  (53) 
C=CC(=O)N1CCC2(CC=C2C(=O)n2c(C(N)=O)cc3ccc(C(F)(F)F)cc32)CC1

>  <Energy>  (53) 
132.23093211667015

>  <Genealogy>  (53) 
C=CC(=O)N1CCC2(CC=C2C(=O)n2c(C(N)=O)cc3ccc(C(F)(F)F)cc32)CC1 (3D coordinates assigned)
C=CC(=O)N1CCC2(CC=C2C(=O)n2c(C(N)=O)cc3ccc(C(F)(F)F)cc32)CC1 (nonaromatic ring conformer: 132.23093211667015 kcal/mol)

>  <smiles>  (53) 
C=CC(=O)N1CCC2(CC=C2C(=O)n2c(C(N)=O)cc3ccc(C(F)(F)F)cc32)CC1

>  <score_type>  (53) 
oracle

>  <origin>  (53) 
adg

>  <m_score__min__energy>  (53) 
-9.3100000000000005

>  <m_primary>  (53) 
energy

$$$$
53:0
     RDKit          3D

 42 43  0  0  0  0  0  0  0  0999 V2000
  148.6440  153.6900  132.6500 C   0  0  0  0  0  0  0  0  0  0  0  0
  148.5920  155.0210  132.6200 C   0  0  0  0  0  0  0  0  0  0  0  0
  147.3380  155.7690  132.8510 C   0  0  0  0  0  0  0  0  0  0  0  0
  146.2860  155.4440  132.2380 O   0  0  0  0  0  0  0  0  0  0  0  0
  147.3010  156.8970  133.8030 C   0  0  0  0  0  0  0  0  0  0  0  0
  147.9720  156.8430  134.8700 O   0  0  0  0  0  0  0  0  0  0  0  0
  146.4990  158.0580  133.5330 N   0  0  0  0  0  0  0  0  0  0  0  0
  146.8970  159.2220  132.9480 C   0  0  0  0  0  0  0  0  0  0  0  0
  148.2940  159.5640  132.5930 C   0  0  0  0  0  0  0  0  0  0  0  0
  149.3940  158.9170  133.2340 N   0  0  0  0  0  0  0  0  0  0  0  0
  148.5270  160.4220  131.7000 O   0  0  0  0  0  0  0  0  0  0  0  0
  145.8090  160.0810  132.7870 C   0  0  0  0  0  0  0  0  0  0  0  0
  144.7260  159.3950  133.2880 C   0  0  0  0  0  0  0  0  0  0  0  0
  143.3880  159.7660  133.3640 C   0  0  0  0  0  0  0  0  0  0  0  0
  142.4760  158.8410  133.9020 C   0  0  0  0  0  0  0  0  0  0  0  0
  142.9070  157.5610  134.3490 C   0  0  0  0  0  0  0  0  0  0  0  0
  141.9570  156.6140  134.8980 N   0  0  0  0  0  0  0  0  0  0  0  0
  141.4970  155.4770  134.0910 C   0  0  0  0  0  0  0  0  0  0  0  0
  141.4560  156.7520  136.2740 C   0  0  0  0  0  0  0  0  0  0  0  0
  140.9640  158.1440  136.5220 C   0  0  0  0  0  0  0  0  0  0  0  0
  141.5890  158.8950  137.3190 O   0  0  0  0  0  0  0  0  0  0  0  0
  139.8340  158.6110  135.8430 O   0  0  0  0  0  0  0  0  0  0  0  0
  139.1600  157.8410  134.8560 C   0  0  0  0  0  0  0  0  0  0  0  0
  144.2810  157.2280  134.2450 C   0  0  0  0  0  0  0  0  0  0  0  0
  145.1670  158.1770  133.7270 C   0  0  0  0  0  0  0  0  0  0  0  0
  149.5984  153.1727  132.4726 H   0  0  0  0  0  0  0  0  0  0  0  0
  147.7325  153.1084  132.8522 H   0  0  0  0  0  0  0  0  0  0  0  0
  149.5151  155.5834  132.4161 H   0  0  0  0  0  0  0  0  0  0  0  0
  149.2510  158.2540  134.0270 H   0  0  0  0  0  0  0  0  0  0  0  0
  150.3720  159.1350  132.9410 H   0  0  0  0  0  0  0  0  0  0  0  0
  145.8155  161.0914  132.3522 H   0  0  0  0  0  0  0  0  0  0  0  0
  143.0532  160.7535  133.0137 H   0  0  0  0  0  0  0  0  0  0  0  0
  141.4125  159.1113  133.9785 H   0  0  0  0  0  0  0  0  0  0  0  0
  141.1683  154.6646  134.7558 H   0  0  0  0  0  0  0  0  0  0  0  0
  140.6564  155.7941  133.4563 H   0  0  0  0  0  0  0  0  0  0  0  0
  142.3216  155.1204  133.4563 H   0  0  0  0  0  0  0  0  0  0  0  0
  140.6288  156.0438  136.4296 H   0  0  0  0  0  0  0  0  0  0  0  0
  142.2785  156.5384  136.9725 H   0  0  0  0  0  0  0  0  0  0  0  0
  138.5120  157.1007  135.3479 H   0  0  0  0  0  0  0  0  0  0  0  0
  138.5475  158.5049  134.2282 H   0  0  0  0  0  0  0  0  0  0  0  0
  139.8991  157.3217  134.2282 H   0  0  0  0  0  0  0  0  0  0  0  0
  144.6435  156.2404  134.5662 H   0  0  0  0  0  0  0  0  0  0  0  0
  1  2  2  0
  2  3  1  0
  3  4  2  0
  3  5  1  0
  5  6  2  0
  5  7  1  0
  7  8  1  0
  8  9  1  0
  9 10  1  0
  9 11  2  0
  8 12  2  0
 12 13  1  0
 13 14  2  0
 14 15  1  0
 15 16  2  0
 16 17  1  0
 17 18  1  0
 17 19  1  0
 19 20  1  0
 20 21  2  0
 20 22  1  0
 22 23  1  0
 16 24  1  0
 24 25  2  0
 25  7  1  0
 25 13  1  0
  1 26  1  0
  1 27  1  0
  2 28  1  0
 10 29  1  0
 10 30  1  0
 12 31  1  0
 14 32  1  0
 15 33  1  0
 18 34  1  0
 18 35  1  0
 18 36  1  0
 19 37  1  0
 19 38  1  0
 23 39  1  0
 23 40  1  0
 23 41  1  0
 24 42  1  0
M  END
>  <UniqueID>  (54) 
53

>  <SMILES>  (54) 
C=CC(=O)C(=O)n1c(C(N)=O)cc2ccc(N(C)CC(=O)OC)cc21

>  <Energy>  (54) 
77.97171474537706

>  <Genealogy>  (54) 
C=CC(=O)C(=O)n1c(C(N)=O)cc2ccc(N(C)CC(=O)OC)cc21 (3D coordinates assigned)
C=CC(=O)C(=O)n1c(C(N)=O)cc2ccc(N(C)CC(=O)OC)cc21 (optimized conformer: 77.97171474537706 kcal/mol)

>  <smiles>  (54) 
C=CC(=O)C(=O)n1c(C(N)=O)cc2ccc(N(C)CC(=O)OC)cc21

>  <score_type>  (54) 
oracle

>  <origin>  (54) 
adg

>  <m_score__min__energy>  (54) 
-6.8300000000000001

>  <m_primary>  (54) 
energy

$$$$
54:0
     RDKit          3D

 44 45  0  0  0  0  0  0  0  0999 V2000
  141.3520  148.8640  130.9500 C   0  0  0  0  0  0  0  0  0  0  0  0
  140.0330  148.9600  131.5840 N   0  0  0  0  0  0  0  0  0  0  0  0
  139.8910  149.5530  132.9190 C   0  0  0  0  0  0  0  0  0  0  0  0
  140.5990  150.8350  132.9780 C   0  0  0  0  0  0  0  0  0  0  0  0
  141.1810  151.8900  133.0180 C   0  0  0  0  0  0  0  0  0  0  0  0
  141.8680  153.1530  133.0660 C   0  0  0  0  0  0  0  0  0  0  0  0
  143.2660  153.2060  132.8550 C   0  0  0  0  0  0  0  0  0  0  0  0
  143.9470  154.4350  132.9110 C   0  0  0  0  0  0  0  0  0  0  0  0
  143.2020  155.5820  133.1680 C   0  0  0  0  0  0  0  0  0  0  0  0
  143.6080  156.8920  133.3060 C   0  0  0  0  0  0  0  0  0  0  0  0
  142.4450  157.6130  133.5800 C   0  0  0  0  0  0  0  0  0  0  0  0
  142.3940  159.0830  133.7560 C   0  0  0  0  0  0  0  0  0  0  0  0
  141.7370  159.9150  132.7980 N   0  0  0  0  0  0  0  0  0  0  0  0
  142.9170  159.6150  134.7700 O   0  0  0  0  0  0  0  0  0  0  0  0
  141.3660  156.7820  133.6000 N   0  0  0  0  0  0  0  0  0  0  0  0
  140.0050  157.1250  133.9080 C   0  0  0  0  0  0  0  0  0  0  0  0
  139.5210  156.7790  135.0170 O   0  0  0  0  0  0  0  0  0  0  0  0
  139.1950  157.9030  132.9420 C   0  0  0  0  0  0  0  0  0  0  0  0
  138.0390  158.2710  133.2810 O   0  0  0  0  0  0  0  0  0  0  0  0
  139.6640  158.2590  131.6350 N   0  0  0  0  0  0  0  0  0  0  0  0
  138.9100  158.9920  130.6250 C   0  0  0  0  0  0  0  0  0  0  0  0
  139.0980  160.4950  130.8240 C   0  0  0  0  0  0  0  0  0  0  0  0
  139.5440  160.7700  132.1240 O   0  0  0  0  0  0  0  0  0  0  0  0
  141.8450  155.5430  133.3550 C   0  0  0  0  0  0  0  0  0  0  0  0
  141.1430  154.3320  133.3250 C   0  0  0  0  0  0  0  0  0  0  0  0
  138.8760  148.4450  130.8970 C   0  0  0  0  0  0  0  0  0  0  0  0
  137.9120  149.2050  130.6140 O   0  0  0  0  0  0  0  0  0  0  0  0
  138.8090  147.1040  130.5390 O   0  0  0  0  0  0  0  0  0  0  0  0
  142.1289  148.8074  131.7267 H   0  0  0  0  0  0  0  0  0  0  0  0
  141.3930  147.9605  130.3239 H   0  0  0  0  0  0  0  0  0  0  0  0
  141.5234  149.7520  130.3239 H   0  0  0  0  0  0  0  0  0  0  0  0
  138.8245  149.7161  133.1332 H   0  0  0  0  0  0  0  0  0  0  0  0
  140.3219  148.8688  133.6648 H   0  0  0  0  0  0  0  0  0  0  0  0
  143.8232  152.2809  132.6460 H   0  0  0  0  0  0  0  0  0  0  0  0
  145.0348  154.4881  132.7565 H   0  0  0  0  0  0  0  0  0  0  0  0
  144.6315  157.2856  133.2187 H   0  0  0  0  0  0  0  0  0  0  0  0
  141.6790  160.9450  132.9550 H   0  0  0  0  0  0  0  0  0  0  0  0
  141.3470  159.5260  131.9130 H   0  0  0  0  0  0  0  0  0  0  0  0
  139.2695  158.7088  129.6247 H   0  0  0  0  0  0  0  0  0  0  0  0
  137.8423  158.7451  130.7204 H   0  0  0  0  0  0  0  0  0  0  0  0
  139.8405  160.8649  130.1016 H   0  0  0  0  0  0  0  0  0  0  0  0
  138.1314  160.9963  130.6680 H   0  0  0  0  0  0  0  0  0  0  0  0
  139.1730  160.0580  132.7090 H   0  0  0  0  0  0  0  0  0  0  0  0
  140.0572  154.3025  133.4986 H   0  0  0  0  0  0  0  0  0  0  0  0
  1  2  1  0
  2  3  1  0
  3  4  1  0
  4  5  3  0
  5  6  1  0
  6  7  2  0
  7  8  1  0
  8  9  2  0
  9 10  1  0
 10 11  2  0
 11 12  1  0
 12 13  1  0
 12 14  2  0
 11 15  1  0
 15 16  1  0
 16 17  2  0
 16 18  1  0
 18 19  2  0
 18 20  1  0
 20 21  1  0
 21 22  1  0
 22 23  1  0
 15 24  1  0
 24 25  2  0
  2 26  1  0
 26 27  2  0
 26 28  1  0
 25  6  1  0
 24  9  1  0
  1 29  1  0
  1 30  1  0
  1 31  1  0
  3 32  1  0
  3 33  1  0
  7 34  1  0
  8 35  1  0
 10 36  1  0
 13 37  1  0
 13 38  1  0
 21 39  1  0
 21 40  1  0
 22 41  1  0
 22 42  1  0
 23 43  1  0
 25 44  1  0
M  CHG  2  20  -1  28  -1
M  END
>  <UniqueID>  (55) 
54

>  <SMILES>  (55) 
CN(CC#Cc1ccc2cc(C(N)=O)n(C(=O)C(=O)[N-]CCO)c2c1)C(=O)[O-]

>  <Energy>  (55) 
73.2695583463795

>  <Genealogy>  (55) 
CN(CC#Cc1ccc2cc(C(N)=O)n(C(=O)C(=O)[N-]CCO)c2c1)C(=O)[O-] (protonated)
CN(CC#Cc1ccc2cc(C(N)=O)n(C(=O)C(=O)[N-]CCO)c2c1)C(=O)[O-] (3D coordinates assigned)
CN(CC#Cc1ccc2cc(C(N)=O)n(C(=O)C(=O)[N-]CCO)c2c1)C(=O)[O-] (optimized conformer: 73.2695583463795 kcal/mol)

>  <smiles>  (55) 
CN(CC#Cc1ccc2cc(C(N)=O)n(C(=O)C(=O)NCCO)c2c1)C(=O)O

>  <score_type>  (55) 
oracle

>  <origin>  (55) 
adg

>  <m_score__min__energy>  (55) 
-7.1900000000000004

>  <m_primary>  (55) 
energy

$$$$
55:0
     RDKit          3D

 57 59  0  0  0  0  0  0  0  0999 V2000
  141.0670  148.8430  132.3650 C   0  0  0  0  0  0  0  0  0  0  0  0
  141.6140  150.0470  131.8430 O   0  0  0  0  0  0  0  0  0  0  0  0
  142.5260  150.8350  132.5540 C   0  0  0  0  0  0  0  0  0  0  0  0
  143.7410  150.4980  132.6090 O   0  0  0  0  0  0  0  0  0  0  0  0
  142.0810  152.0280  133.2260 N   0  0  0  0  0  0  0  0  0  0  0  0
  140.6780  152.4630  133.1190 C   0  0  0  0  0  0  0  0  0  0  0  0
  140.5910  153.9940  133.0230 C   0  0  0  0  0  0  0  0  0  0  0  0
  141.4950  154.6540  133.9750 N   0  0  0  0  0  0  0  0  0  0  0  0
  141.6280  156.0880  133.9530 C   0  0  0  0  0  0  0  0  0  0  0  0
  140.4760  156.9150  133.9850 C   0  0  0  0  0  0  0  0  0  0  0  0
  140.5950  158.3130  133.9460 C   0  0  0  0  0  0  0  0  0  0  0  0
  141.8730  158.8590  133.8820 C   0  0  0  0  0  0  0  0  0  0  0  0
  142.2710  160.1730  133.8060 C   0  0  0  0  0  0  0  0  0  0  0  0
  143.6620  160.1360  133.7500 C   0  0  0  0  0  0  0  0  0  0  0  0
  144.5080  161.3460  133.7410 C   0  0  0  0  0  0  0  0  0  0  0  0
  145.9250  161.2210  133.8500 N   0  0  0  0  0  0  0  0  0  0  0  0
  143.9980  162.4880  133.5960 O   0  0  0  0  0  0  0  0  0  0  0  0
  144.1090  158.8480  133.7810 N   0  0  0  0  0  0  0  0  0  0  0  0
  145.4640  158.3880  133.6430 C   0  0  0  0  0  0  0  0  0  0  0  0
  145.9010  157.4830  134.4050 O   0  0  0  0  0  0  0  0  0  0  0  0
  146.2870  158.9450  132.6530 O   0  0  0  0  0  0  0  0  0  0  0  0
  147.7190  158.8700  132.6200 C   0  0  0  0  0  0  0  0  0  0  0  0
  148.1010  157.4370  132.2280 C   0  0  0  0  0  0  0  0  0  0  0  0
  148.2860  159.1800  134.0190 C   0  0  0  0  0  0  0  0  0  0  0  0
  148.2810  159.8140  131.5800 C   0  0  0  0  0  0  0  0  0  0  0  0
  148.1540  161.0600  131.7340 O   0  0  0  0  0  0  0  0  0  0  0  0
  148.8740  159.3050  130.4200 O   0  0  0  0  0  0  0  0  0  0  0  0
  149.7650  160.0700  129.6140 C   0  0  0  0  0  0  0  0  0  0  0  0
  143.0000  158.0780  133.8640 C   0  0  0  0  0  0  0  0  0  0  0  0
  142.9100  156.6800  133.8790 C   0  0  0  0  0  0  0  0  0  0  0  0
  142.2950  153.8470  134.9030 C   0  0  0  0  0  0  0  0  0  0  0  0
  143.0040  152.7300  134.1330 C   0  0  0  0  0  0  0  0  0  0  0  0
  141.0834  148.8792  133.4643 H   0  0  0  0  0  0  0  0  0  0  0  0
  140.0295  148.7306  132.0173 H   0  0  0  0  0  0  0  0  0  0  0  0
  141.6649  147.9876  132.0173 H   0  0  0  0  0  0  0  0  0  0  0  0
  140.2296  152.0185  132.2183 H   0  0  0  0  0  0  0  0  0  0  0  0
  140.1355  152.1331  134.0173 H   0  0  0  0  0  0  0  0  0  0  0  0
  140.8621  154.3025  132.0025 H   0  0  0  0  0  0  0  0  0  0  0  0
  139.5610  154.2933  133.2668 H   0  0  0  0  0  0  0  0  0  0  0  0
  139.4781  156.4555  134.0410 H   0  0  0  0  0  0  0  0  0  0  0  0
  139.7041  158.9579  133.9655 H   0  0  0  0  0  0  0  0  0  0  0  0
  141.6270  161.0647  133.7923 H   0  0  0  0  0  0  0  0  0  0  0  0
  146.5170  161.0740  133.0030 H   0  0  0  0  0  0  0  0  0  0  0  0
  148.2606  156.8384  133.1370 H   0  0  0  0  0  0  0  0  0  0  0  0
  147.2903  156.9912  131.6330 H   0  0  0  0  0  0  0  0  0  0  0  0
  149.0260  157.4538  131.6330 H   0  0  0  0  0  0  0  0  0  0  0  0
  147.5948  158.8021  134.7868 H   0  0  0  0  0  0  0  0  0  0  0  0
  149.2648  158.6915  134.1344 H   0  0  0  0  0  0  0  0  0  0  0  0
  148.4031  160.2676  134.1344 H   0  0  0  0  0  0  0  0  0  0  0  0
  150.4396  160.6492  130.2616 H   0  0  0  0  0  0  0  0  0  0  0  0
  150.3568  159.3944  128.9790 H   0  0  0  0  0  0  0  0  0  0  0  0
  149.1867  160.7572  128.9790 H   0  0  0  0  0  0  0  0  0  0  0  0
  143.8157  156.0573  133.8342 H   0  0  0  0  0  0  0  0  0  0  0  0
  143.0442  154.4869  135.3922 H   0  0  0  0  0  0  0  0  0  0  0  0
  141.6354  153.4042  135.6638 H   0  0  0  0  0  0  0  0  0  0  0  0
  143.8220  153.1673  133.5418 H   0  0  0  0  0  0  0  0  0  0  0  0
  143.3917  152.0021  134.8610 H   0  0  0  0  0  0  0  0  0  0  0  0
  1  2  1  0
  2  3  1  0
  3  4  2  0
  3  5  1  0
  5  6  1  0
  6  7  1  0
  7  8  1  0
  8  9  1  0
  9 10  2  0
 10 11  1  0
 11 12  2  0
 12 13  1  0
 13 14  2  0
 14 15  1  0
 15 16  1  0
 15 17  2  0
 14 18  1  0
 18 19  1  0
 19 20  2  0
 19 21  1  0
 21 22  1  0
 22 23  1  0
 22 24  1  0
 22 25  1  0
 25 26  2  0
 25 27  1  0
 27 28  1  0
 18 29  1  0
 29 30  2  0
  8 31  1  0
 31 32  1  0
 32  5  1  0
 30  9  1  0
 29 12  1  0
  1 33  1  0
  1 34  1  0
  1 35  1  0
  6 36  1  0
  6 37  1  0
  7 38  1  0
  7 39  1  0
 10 40  1  0
 11 41  1  0
 13 42  1  0
 16 43  1  0
 23 44  1  0
 23 45  1  0
 23 46  1  0
 24 47  1  0
 24 48  1  0
 24 49  1  0
 28 50  1  0
 28 51  1  0
 28 52  1  0
 30 53  1  0
 31 54  1  0
 31 55  1  0
 32 56  1  0
 32 57  1  0
M  CHG  1  16  -1
M  END
>  <UniqueID>  (56) 
55

>  <SMILES>  (56) 
COC(=O)N1CCN(c2ccc3cc(C([NH-])=O)n(C(=O)OC(C)(C)C(=O)OC)c3c2)CC1

>  <Energy>  (56) 
92.45284001215933

>  <Genealogy>  (56) 
COC(=O)N1CCN(c2ccc3cc(C([NH-])=O)n(C(=O)OC(C)(C)C(=O)OC)c3c2)CC1 (protonated)
COC(=O)N1CCN(c2ccc3cc(C([NH-])=O)n(C(=O)OC(C)(C)C(=O)OC)c3c2)CC1 (3D coordinates assigned)
COC(=O)N1CCN(c2ccc3cc(C([NH-])=O)n(C(=O)OC(C)(C)C(=O)OC)c3c2)CC1 (nonaromatic ring conformer: 92.45284001215933 kcal/mol)

>  <smiles>  (56) 
COC(=O)N1CCN(c2ccc3cc(C(N)=O)n(C(=O)OC(C)(C)C(=O)OC)c3c2)CC1

>  <score_type>  (56) 
oracle

>  <origin>  (56) 
adg

>  <m_score__min__energy>  (56) 
-7.9000000000000004

>  <m_primary>  (56) 
energy

$$$$
56:0
     RDKit          3D

 36 37  0  0  0  0  0  0  0  0999 V2000
  148.8530  153.4200  132.2950 C   0  0  0  0  0  0  0  0  0  0  0  0
  148.5380  154.5720  132.4600 C   0  0  0  0  0  0  0  0  0  0  0  0
  148.1610  155.9470  132.6570 C   0  0  0  0  0  0  0  0  0  0  0  0
  149.1450  156.9620  132.6050 C   0  0  0  0  0  0  0  0  0  0  0  0
  148.7890  158.3090  132.7860 C   0  0  0  0  0  0  0  0  0  0  0  0
  147.4480  158.6030  133.0220 C   0  0  0  0  0  0  0  0  0  0  0  0
  146.8270  159.8170  133.2100 C   0  0  0  0  0  0  0  0  0  0  0  0
  145.4780  159.5160  133.3930 C   0  0  0  0  0  0  0  0  0  0  0  0
  144.4530  160.5320  133.7160 C   0  0  0  0  0  0  0  0  0  0  0  0
  143.0880  160.3350  133.3600 N   0  0  0  0  0  0  0  0  0  0  0  0
  144.7820  161.5690  134.3530 O   0  0  0  0  0  0  0  0  0  0  0  0
  145.2730  158.1710  133.3110 N   0  0  0  0  0  0  0  0  0  0  0  0
  144.0240  157.4630  133.3600 C   0  0  0  0  0  0  0  0  0  0  0  0
  143.0680  157.8280  132.6230 O   0  0  0  0  0  0  0  0  0  0  0  0
  143.8540  156.3670  134.2670 N   0  0  0  0  0  0  0  0  0  0  0  0
  142.6430  155.5490  134.2610 C   0  0  0  0  0  0  0  0  0  0  0  0
  142.8170  154.3570  135.1480 C   0  0  0  0  0  0  0  0  0  0  0  0
  141.8450  153.5810  135.3540 O   0  0  0  0  0  0  0  0  0  0  0  0
  144.0720  154.1420  135.8000 N   0  0  0  0  0  0  0  0  0  0  0  0
  145.2730  153.6950  135.1060 C   0  0  0  0  0  0  0  0  0  0  0  0
  146.4820  154.3290  135.7110 C   0  0  0  0  0  0  0  0  0  0  0  0
  147.3230  153.6300  136.3350 O   0  0  0  0  0  0  0  0  0  0  0  0
  146.6680  155.7030  135.6150 O   0  0  0  0  0  0  0  0  0  0  0  0
  146.4880  157.6260  133.0890 C   0  0  0  0  0  0  0  0  0  0  0  0
  146.8120  156.2780  132.8970 C   0  0  0  0  0  0  0  0  0  0  0  0
  149.1404  152.3689  132.1444 H   0  0  0  0  0  0  0  0  0  0  0  0
  150.1962  156.6948  132.4216 H   0  0  0  0  0  0  0  0  0  0  0  0
  149.5455  159.1064  132.7427 H   0  0  0  0  0  0  0  0  0  0  0  0
  147.2952  160.8124  133.2148 H   0  0  0  0  0  0  0  0  0  0  0  0
  142.8270  159.8540  132.4710 H   0  0  0  0  0  0  0  0  0  0  0  0
  144.6220  156.1590  134.9450 H   0  0  0  0  0  0  0  0  0  0  0  0
  141.7968  156.1509  134.6239 H   0  0  0  0  0  0  0  0  0  0  0  0
  142.4484  155.2055  133.2343 H   0  0  0  0  0  0  0  0  0  0  0  0
  145.3555  152.6013  135.1895 H   0  0  0  0  0  0  0  0  0  0  0  0
  145.2060  153.9858  134.0473 H   0  0  0  0  0  0  0  0  0  0  0  0
  146.0361  155.4991  132.9324 H   0  0  0  0  0  0  0  0  0  0  0  0
  1  2  3  0
  2  3  1  0
  3  4  2  0
  4  5  1  0
  5  6  2  0
  6  7  1  0
  7  8  2  0
  8  9  1  0
  9 10  1  0
  9 11  2  0
  8 12  1  0
 12 13  1  0
 13 14  2  0
 13 15  1  0
 15 16  1  0
 16 17  1  0
 17 18  2  0
 17 19  1  0
 19 20  1  0
 20 21  1  0
 21 22  2  0
 21 23  1  0
 12 24  1  0
 24 25  2  0
 25  3  1  0
 24  6  1  0
  1 26  1  0
  4 27  1  0
  5 28  1  0
  7 29  1  0
 10 30  1  0
 15 31  1  0
 16 32  1  0
 16 33  1  0
 20 34  1  0
 20 35  1  0
 25 36  1  0
M  CHG  3  10  -1  19  -1  23  -1
M  END
>  <UniqueID>  (57) 
56

>  <SMILES>  (57) 
C#Cc1ccc2cc(C([NH-])=O)n(C(=O)NCC(=O)[N-]CC(=O)[O-])c2c1

>  <Energy>  (57) 
67.58899357865872

>  <Genealogy>  (57) 
C#Cc1ccc2cc(C([NH-])=O)n(C(=O)NCC(=O)[N-]CC(=O)[O-])c2c1 (protonated)
C#Cc1ccc2cc(C([NH-])=O)n(C(=O)NCC(=O)[N-]CC(=O)[O-])c2c1 (3D coordinates assigned)
C#Cc1ccc2cc(C([NH-])=O)n(C(=O)NCC(=O)[N-]CC(=O)[O-])c2c1 (optimized conformer: 67.58899357865872 kcal/mol)

>  <smiles>  (57) 
C#Cc1ccc2cc(C(N)=O)n(C(=O)NCC(=O)NCC(=O)O)c2c1

>  <score_type>  (57) 
oracle

>  <origin>  (57) 
adg

>  <m_score__min__energy>  (57) 
-7.6399999999999997

>  <m_primary>  (57) 
energy

$$$$
57:0
     RDKit          3D

 47 49  0  0  0  0  0  0  0  0999 V2000
  146.6930  155.2790  135.1320 C   0  0  0  0  0  0  0  0  0  0  0  0
  147.4920  155.3060  133.8210 C   0  0  1  0  0  0  0  0  0  0  0  0
  147.7520  153.9960  133.3880 O   0  0  0  0  0  0  0  0  0  0  0  0
  146.8050  156.0890  132.7230 C   0  0  0  0  0  0  0  0  0  0  0  0
  146.7320  155.5980  131.5630 O   0  0  0  0  0  0  0  0  0  0  0  0
  146.2270  157.3780  132.9740 N   0  0  0  0  0  0  0  0  0  0  0  0
  146.8480  158.5890  132.9830 C   0  0  0  0  0  0  0  0  0  0  0  0
  148.2580  158.8290  132.6090 C   0  0  0  0  0  0  0  0  0  0  0  0
  148.9620  157.8620  131.8340 N   0  0  0  0  0  0  0  0  0  0  0  0
  148.8580  159.8720  132.9920 O   0  0  0  0  0  0  0  0  0  0  0  0
  145.9580  159.5860  133.3830 C   0  0  0  0  0  0  0  0  0  0  0  0
  144.7630  158.9370  133.6170 C   0  0  0  0  0  0  0  0  0  0  0  0
  143.5420  159.4290  134.0700 C   0  0  0  0  0  0  0  0  0  0  0  0
  142.4920  158.5110  134.2620 C   0  0  0  0  0  0  0  0  0  0  0  0
  142.6790  157.1320  133.9910 C   0  0  0  0  0  0  0  0  0  0  0  0
  141.5710  156.1440  134.2610 C   0  0  0  0  0  0  0  0  0  0  0  0
  142.0900  154.7000  134.2910 C   0  0  0  0  0  0  0  0  0  0  0  0
  141.7690  153.9680  133.0130 C   0  0  0  0  0  0  0  0  0  0  0  0
  140.6110  153.9430  132.6170 O   0  0  0  0  0  0  0  0  0  0  0  0
  142.8210  153.2870  132.2810 N   0  0  2  0  0  0  0  0  0  0  0  0
  143.7310  152.5040  133.1300 C   0  0  0  0  0  0  0  0  0  0  0  0
  144.9290  153.3720  132.7680 C   0  0  1  0  0  0  0  0  0  0  0  0
  145.8680  152.6750  131.9980 O   0  0  0  0  0  0  0  0  0  0  0  0
  143.9450  154.1580  131.9090 C   0  0  0  0  0  0  0  0  0  0  0  0
  143.9280  156.6730  133.5270 C   0  0  0  0  0  0  0  0  0  0  0  0
  144.9550  157.6070  133.3560 C   0  0  0  0  0  0  0  0  0  0  0  0
  147.3871  155.3025  135.9850 H   0  0  0  0  0  0  0  0  0  0  0  0
  146.0294  156.1552  135.1751 H   0  0  0  0  0  0  0  0  0  0  0  0
  146.0901  154.3600  135.1751 H   0  0  0  0  0  0  0  0  0  0  0  0
  148.4375  155.8252  134.0368 H   0  0  0  0  0  0  0  0  0  0  0  0
  147.5940  153.9670  132.4050 H   0  0  0  0  0  0  0  0  0  0  0  0
  148.4740  157.0100  131.4700 H   0  0  0  0  0  0  0  0  0  0  0  0
  146.1649  160.6611  133.4893 H   0  0  0  0  0  0  0  0  0  0  0  0
  143.4020  160.5013  134.2716 H   0  0  0  0  0  0  0  0  0  0  0  0
  141.5169  158.8672  134.6258 H   0  0  0  0  0  0  0  0  0  0  0  0
  141.1141  156.3784  135.2338 H   0  0  0  0  0  0  0  0  0  0  0  0
  140.8343  156.2258  133.4482 H   0  0  0  0  0  0  0  0  0  0  0  0
  143.1812  154.7157  134.4289 H   0  0  0  0  0  0  0  0  0  0  0  0
  141.5964  154.1743  135.1217 H   0  0  0  0  0  0  0  0  0  0  0  0
  142.4750  152.7340  131.4610 H   0  0  0  0  0  0  0  0  0  0  0  0
  143.4718  152.5377  134.1985 H   0  0  0  0  0  0  0  0  0  0  0  0
  143.7962  151.4162  132.9800 H   0  0  0  0  0  0  0  0  0  0  0  0
  145.5807  153.8446  133.5176 H   0  0  0  0  0  0  0  0  0  0  0  0
  146.5160  153.3560  131.6810 H   0  0  0  0  0  0  0  0  0  0  0  0
  143.8169  155.2017  132.2320 H   0  0  0  0  0  0  0  0  0  0  0  0
  144.1712  154.3110  130.8434 H   0  0  0  0  0  0  0  0  0  0  0  0
  144.0910  155.6080  133.3051 H   0  0  0  0  0  0  0  0  0  0  0  0
  1  2  1  0
  2  3  1  0
  2  4  1  0
  4  5  2  0
  4  6  1  0
  6  7  1  0
  7  8  1  0
  8  9  1  0
  8 10  2  0
  7 11  2  0
 11 12  1  0
 12 13  2  0
 13 14  1  0
 14 15  2  0
 15 16  1  0
 16 17  1  0
 17 18  1  0
 18 19  2  0
 18 20  1  0
 20 21  1  0
 21 22  1  0
 22 23  1  0
 22 24  1  0
 15 25  1  0
 25 26  2  0
 26  6  1  0
 26 12  1  0
 24 20  1  0
  1 27  1  0
  1 28  1  0
  1 29  1  0
  2 30  1  1
  3 31  1  0
  9 32  1  0
 11 33  1  0
 13 34  1  0
 14 35  1  0
 16 36  1  0
 16 37  1  0
 17 38  1  0
 17 39  1  0
 20 40  1  6
 21 41  1  0
 21 42  1  0
 22 43  1  1
 23 44  1  0
 24 45  1  0
 24 46  1  0
 25 47  1  0
M  CHG  2   9  -1  20   1
M  END
>  <UniqueID>  (58) 
57

>  <SMILES>  (58) 
C[C@@H](O)C(=O)n1c(C([NH-])=O)cc2ccc(CCC(=O)[NH+]3CC(O)C3)cc21

>  <Energy>  (58) 
153.94941182626735

>  <Genealogy>  (58) 
C[C@@H](O)C(=O)n1c(C([NH-])=O)cc2ccc(CCC(=O)[NH+]3CC(O)C3)cc21 (protonated)
C[C@@H](O)C(=O)n1c(C([NH-])=O)cc2ccc(CCC(=O)[NH+]3CC(O)C3)cc21 (3D coordinates assigned)
C[C@@H](O)C(=O)n1c(C([NH-])=O)cc2ccc(CCC(=O)[NH+]3CC(O)C3)cc21 (nonaromatic ring conformer: 153.94941182626735 kcal/mol)

>  <smiles>  (58) 
C[C@@H](O)C(=O)n1c(C(N)=O)cc2ccc(CCC(=O)N3CC(O)C3)cc21

>  <score_type>  (58) 
oracle

>  <origin>  (58) 
adg

>  <m_score__min__energy>  (58) 
-7.2400000000000002

>  <m_primary>  (58) 
energy

$$$$
58:0
     RDKit          3D

 44 45  0  0  0  0  0  0  0  0999 V2000
  140.8410  156.3010  138.0420 C   0  0  0  0  0  0  0  0  0  0  0  0
  141.2860  157.6600  137.4770 C   0  0  0  0  0  0  0  0  0  0  0  0
  141.7280  158.5850  138.6190 C   0  0  0  0  0  0  0  0  0  0  0  0
  140.2010  158.3160  136.6590 C   0  0  0  0  0  0  0  0  0  0  0  0
  139.0240  157.8590  136.6660 O   0  0  0  0  0  0  0  0  0  0  0  0
  140.5250  159.4090  135.8430 O   0  0  0  0  0  0  0  0  0  0  0  0
  141.8450  159.6630  135.3680 C   0  0  0  0  0  0  0  0  0  0  0  0
  142.0460  159.0070  134.0350 C   0  0  0  0  0  0  0  0  0  0  0  0
  142.7420  159.5880  133.1590 O   0  0  0  0  0  0  0  0  0  0  0  0
  141.5030  157.7060  133.7660 N   0  0  0  0  0  0  0  0  0  0  0  0
  140.4280  157.3960  132.9860 C   0  0  0  0  0  0  0  0  0  0  0  0
  139.6500  158.3440  132.1600 C   0  0  0  0  0  0  0  0  0  0  0  0
  140.2960  159.3600  131.3980 N   0  0  0  0  0  0  0  0  0  0  0  0
  138.3950  158.2370  132.1040 O   0  0  0  0  0  0  0  0  0  0  0  0
  140.1740  156.0260  133.0310 C   0  0  0  0  0  0  0  0  0  0  0  0
  141.1310  155.5030  133.8700 C   0  0  0  0  0  0  0  0  0  0  0  0
  141.3380  154.1920  134.2870 C   0  0  0  0  0  0  0  0  0  0  0  0
  142.3860  153.9450  135.1890 C   0  0  0  0  0  0  0  0  0  0  0  0
  143.1970  155.0080  135.6670 C   0  0  0  0  0  0  0  0  0  0  0  0
  144.2850  154.7420  136.5790 N   0  0  0  0  0  0  0  0  0  0  0  0
  145.1380  153.6490  136.0850 C   0  0  0  0  0  0  0  0  0  0  0  0
  146.5950  153.9820  136.2170 C   0  0  0  0  0  0  0  0  0  0  0  0
  146.9960  155.1590  136.0200 O   0  0  0  0  0  0  0  0  0  0  0  0
  147.5000  153.0050  136.6150 O   0  0  0  0  0  0  0  0  0  0  0  0
  142.9530  156.3270  135.2210 C   0  0  0  0  0  0  0  0  0  0  0  0
  141.9170  156.5380  134.3040 C   0  0  0  0  0  0  0  0  0  0  0  0
  140.8535  156.3391  139.1413 H   0  0  0  0  0  0  0  0  0  0  0  0
  139.8220  156.0753  137.6945 H   0  0  0  0  0  0  0  0  0  0  0  0
  141.5291  155.5163  137.6945 H   0  0  0  0  0  0  0  0  0  0  0  0
  142.1371  157.4785  136.8043 H   0  0  0  0  0  0  0  0  0  0  0  0
  141.5009  158.1097  139.5847 H   0  0  0  0  0  0  0  0  0  0  0  0
  142.8103  158.7669  138.5455 H   0  0  0  0  0  0  0  0  0  0  0  0
  141.1896  159.5414  138.5455 H   0  0  0  0  0  0  0  0  0  0  0  0
  141.9927  160.7482  135.2658 H   0  0  0  0  0  0  0  0  0  0  0  0
  142.5716  159.2532  136.0850 H   0  0  0  0  0  0  0  0  0  0  0  0
  141.3170  159.5500  131.5150 H   0  0  0  0  0  0  0  0  0  0  0  0
  139.3769  155.4787  132.5066 H   0  0  0  0  0  0  0  0  0  0  0  0
  140.7003  153.3737  133.9214 H   0  0  0  0  0  0  0  0  0  0  0  0
  142.5805  152.9170  135.5287 H   0  0  0  0  0  0  0  0  0  0  0  0
  144.8680  155.6060  136.6750 H   0  0  0  0  0  0  0  0  0  0  0  0
  143.9190  154.5090  137.5330 H   0  0  0  0  0  0  0  0  0  0  0  0
  144.9256  152.7398  136.6666 H   0  0  0  0  0  0  0  0  0  0  0  0
  144.9158  153.4945  135.0188 H   0  0  0  0  0  0  0  0  0  0  0  0
  143.5625  157.1670  135.5857 H   0  0  0  0  0  0  0  0  0  0  0  0
  1  2  1  0
  2  3  1  0
  2  4  1  0
  4  5  2  0
  4  6  1  0
  6  7  1  0
  7  8  1  0
  8  9  2  0
  8 10  1  0
 10 11  1  0
 11 12  1  0
 12 13  1  0
 12 14  2  0
 11 15  2  0
 15 16  1  0
 16 17  2  0
 17 18  1  0
 18 19  2  0
 19 20  1  0
 20 21  1  0
 21 22  1  0
 22 23  2  0
 22 24  1  0
 19 25  1  0
 25 26  2  0
 26 10  1  0
 26 16  1  0
  1 27  1  0
  1 28  1  0
  1 29  1  0
  2 30  1  0
  3 31  1  0
  3 32  1  0
  3 33  1  0
  7 34  1  0
  7 35  1  0
 13 36  1  0
 15 37  1  0
 17 38  1  0
 18 39  1  0
 20 40  1  0
 20 41  1  0
 21 42  1  0
 21 43  1  0
 25 44  1  0
M  CHG  3  13  -1  20   1  24  -1
M  END
>  <UniqueID>  (59) 
58

>  <SMILES>  (59) 
CC(C)C(=O)OCC(=O)n1c(C([NH-])=O)cc2ccc([NH2+]CC(=O)[O-])cc21

>  <Energy>  (59) 
77.32499021221113

>  <Genealogy>  (59) 
CC(C)C(=O)OCC(=O)n1c(C([NH-])=O)cc2ccc([NH2+]CC(=O)[O-])cc21 (protonated)
CC(C)C(=O)OCC(=O)n1c(C([NH-])=O)cc2ccc([NH2+]CC(=O)[O-])cc21 (3D coordinates assigned)
CC(C)C(=O)OCC(=O)n1c(C([NH-])=O)cc2ccc([NH2+]CC(=O)[O-])cc21 (optimized conformer: 77.32499021221113 kcal/mol)

>  <smiles>  (59) 
CC(C)C(=O)OCC(=O)n1c(C(N)=O)cc2ccc(NCC(=O)O)cc21

>  <score_type>  (59) 
oracle

>  <origin>  (59) 
adg

>  <m_score__min__energy>  (59) 
-6.7400000000000002

>  <m_primary>  (59) 
energy

$$$$
59:0
     RDKit          3D

 40 41  0  0  0  0  0  0  0  0999 V2000
  137.9900  149.0940  131.0670 C   0  0  0  0  0  0  0  0  0  0  0  0
  139.2040  148.3550  130.4850 C   0  0  0  0  0  0  0  0  0  0  0  0
  139.8300  149.2200  129.3750 C   0  0  0  0  0  0  0  0  0  0  0  0
  138.7370  147.0000  129.9210 C   0  0  0  0  0  0  0  0  0  0  0  0
  140.1360  148.1610  131.5600 O   0  0  0  0  0  0  0  0  0  0  0  0
  141.1730  149.0330  131.9260 C   0  0  0  0  0  0  0  0  0  0  0  0
  142.1910  149.1880  131.1980 O   0  0  0  0  0  0  0  0  0  0  0  0
  141.0880  149.7450  133.2360 C   0  0  0  0  0  0  0  0  0  0  0  0
  141.9170  150.9980  133.1870 C   0  0  0  0  0  0  0  0  0  0  0  0
  143.3190  150.9130  133.0040 C   0  0  0  0  0  0  0  0  0  0  0  0
  144.0980  152.0760  132.8940 C   0  0  0  0  0  0  0  0  0  0  0  0
  143.4500  153.3060  132.9720 C   0  0  0  0  0  0  0  0  0  0  0  0
  143.9550  154.5790  132.8530 C   0  0  0  0  0  0  0  0  0  0  0  0
  142.8580  155.4240  132.9860 C   0  0  0  0  0  0  0  0  0  0  0  0
  142.9620  156.8970  132.9790 C   0  0  0  0  0  0  0  0  0  0  0  0
  142.0140  157.7010  132.2770 N   0  0  0  0  0  0  0  0  0  0  0  0
  143.8740  157.4560  133.6460 O   0  0  0  0  0  0  0  0  0  0  0  0
  141.7140  154.7050  133.1670 N   0  0  0  0  0  0  0  0  0  0  0  0
  140.3670  155.2060  133.2330 C   0  0  0  0  0  0  0  0  0  0  0  0
  140.1480  156.3980  133.5760 O   0  0  0  0  0  0  0  0  0  0  0  0
  139.2940  154.3840  132.9160 O   0  0  0  0  0  0  0  0  0  0  0  0
  142.0940  153.4080  133.1590 C   0  0  0  0  0  0  0  0  0  0  0  0
  141.2910  152.2630  133.2480 C   0  0  0  0  0  0  0  0  0  0  0  0
  138.0359  149.0661  132.1657 H   0  0  0  0  0  0  0  0  0  0  0  0
  137.9993  150.1398  130.7261 H   0  0  0  0  0  0  0  0  0  0  0  0
  137.0653  148.6054  130.7261 H   0  0  0  0  0  0  0  0  0  0  0  0
  140.4172  150.0314  129.8297 H   0  0  0  0  0  0  0  0  0  0  0  0
  140.4875  148.5966  128.7513 H   0  0  0  0  0  0  0  0  0  0  0  0
  139.0323  149.6497  128.7513 H   0  0  0  0  0  0  0  0  0  0  0  0
  138.5021  146.3184  130.7518 H   0  0  0  0  0  0  0  0  0  0  0  0
  137.8386  147.1496  129.3042 H   0  0  0  0  0  0  0  0  0  0  0  0
  139.5368  146.5643  129.3042 H   0  0  0  0  0  0  0  0  0  0  0  0
  140.0399  150.0079  133.4418 H   0  0  0  0  0  0  0  0  0  0  0  0
  141.4676  149.0882  134.0326 H   0  0  0  0  0  0  0  0  0  0  0  0
  143.8021  149.9264  132.9475 H   0  0  0  0  0  0  0  0  0  0  0  0
  145.1870  152.0172  132.7506 H   0  0  0  0  0  0  0  0  0  0  0  0
  145.0034  154.8680  132.6878 H   0  0  0  0  0  0  0  0  0  0  0  0
  141.1570  157.2800  131.8570 H   0  0  0  0  0  0  0  0  0  0  0  0
  142.1250  158.7390  132.2520 H   0  0  0  0  0  0  0  0  0  0  0  0
  140.2002  152.3471  133.3625 H   0  0  0  0  0  0  0  0  0  0  0  0
  1  2  1  0
  2  3  1  0
  2  4  1  0
  2  5  1  0
  5  6  1  0
  6  7  2  0
  6  8  1  0
  8  9  1  0
  9 10  2  0
 10 11  1  0
 11 12  2  0
 12 13  1  0
 13 14  2  0
 14 15  1  0
 15 16  1  0
 15 17  2  0
 14 18  1  0
 18 19  1  0
 19 20  2  0
 19 21  1  0
 18 22  1  0
 22 23  2  0
 23  9  1  0
 22 12  1  0
  1 24  1  0
  1 25  1  0
  1 26  1  0
  3 27  1  0
  3 28  1  0
  3 29  1  0
  4 30  1  0
  4 31  1  0
  4 32  1  0
  8 33  1  0
  8 34  1  0
 10 35  1  0
 11 36  1  0
 13 37  1  0
 16 38  1  0
 16 39  1  0
 23 40  1  0
M  CHG  1  21  -1
M  END
>  <UniqueID>  (60) 
59

>  <SMILES>  (60) 
CC(C)(C)OC(=O)Cc1ccc2cc(C(N)=O)n(C(=O)[O-])c2c1

>  <Energy>  (60) 
73.08349444569858

>  <Genealogy>  (60) 
CC(C)(C)OC(=O)Cc1ccc2cc(C(N)=O)n(C(=O)[O-])c2c1 (protonated)
CC(C)(C)OC(=O)Cc1ccc2cc(C(N)=O)n(C(=O)[O-])c2c1 (3D coordinates assigned)
CC(C)(C)OC(=O)Cc1ccc2cc(C(N)=O)n(C(=O)[O-])c2c1 (optimized conformer: 73.08349444569858 kcal/mol)

>  <smiles>  (60) 
CC(C)(C)OC(=O)Cc1ccc2cc(C(N)=O)n(C(=O)O)c2c1

>  <score_type>  (60) 
oracle

>  <origin>  (60) 
adg

>  <m_score__min__energy>  (60) 
-7.2199999999999998

>  <m_primary>  (60) 
energy

$$$$
60:0
     RDKit          3D

 58 60  0  0  0  0  0  0  0  0999 V2000
  137.9810  159.1240  131.8550 C   0  0  0  0  0  0  0  0  0  0  0  0
  139.3640  158.6810  132.0860 N   0  0  0  0  0  0  0  0  0  0  0  0
  140.0580  159.6060  133.0030 C   0  0  0  0  0  0  0  0  0  0  0  0
  141.5690  159.3080  133.0210 C   0  0  0  0  0  0  0  0  0  0  0  0
  141.8700  157.8250  132.7100 C   0  0  0  0  0  0  0  0  0  0  0  0
  143.1990  157.4150  133.2220 N   0  0  0  0  0  0  0  0  0  0  0  0
  144.2440  158.4350  133.3730 C   0  0  0  0  0  0  0  0  0  0  0  0
  143.4900  156.0430  133.5940 C   0  0  0  0  0  0  0  0  0  0  0  0
  143.7620  155.7570  134.7920 O   0  0  0  0  0  0  0  0  0  0  0  0
  143.4780  154.9910  132.6120 N   0  0  0  0  0  0  0  0  0  0  0  0
  143.8660  153.6190  132.9360 C   0  0  0  0  0  0  0  0  0  0  0  0
  142.7890  152.9300  133.7220 C   0  0  0  0  0  0  0  0  0  0  0  0
  141.9550  152.1960  133.1250 O   0  0  0  0  0  0  0  0  0  0  0  0
  142.6600  153.1830  135.1290 N   0  0  0  0  0  0  0  0  0  0  0  0
  141.7080  152.5190  135.9750 C   0  0  0  0  0  0  0  0  0  0  0  0
  141.1200  151.4770  135.5790 O   0  0  0  0  0  0  0  0  0  0  0  0
  141.4520  153.0210  137.2950 N   0  0  0  0  0  0  0  0  0  0  0  0
  141.2030  152.3040  138.4270 C   0  0  0  0  0  0  0  0  0  0  0  0
  141.2940  150.8360  138.5620 C   0  0  0  0  0  0  0  0  0  0  0  0
  140.3620  149.9800  137.9050 N   0  0  0  0  0  0  0  0  0  0  0  0
  142.2330  150.3270  139.2310 O   0  0  0  0  0  0  0  0  0  0  0  0
  140.9280  153.1580  139.4940 C   0  0  0  0  0  0  0  0  0  0  0  0
  141.0250  154.4310  138.9780 C   0  0  0  0  0  0  0  0  0  0  0  0
  140.8550  155.6650  139.5970 C   0  0  0  0  0  0  0  0  0  0  0  0
  141.0000  156.8210  138.8130 C   0  0  0  0  0  0  0  0  0  0  0  0
  141.2890  156.7260  137.4250 C   0  0  0  0  0  0  0  0  0  0  0  0
  141.4740  157.9760  136.6010 C   0  0  0  0  0  0  0  0  0  0  0  0
  140.3170  158.2250  135.8860 F   0  0  0  0  0  0  0  0  0  0  0  0
  141.7460  159.0610  137.4160 F   0  0  0  0  0  0  0  0  0  0  0  0
  142.5280  157.8260  135.7160 F   0  0  0  0  0  0  0  0  0  0  0  0
  141.4800  155.4530  136.8390 C   0  0  0  0  0  0  0  0  0  0  0  0
  141.3430  154.3200  137.6490 C   0  0  0  0  0  0  0  0  0  0  0  0
  140.7470  156.8990  133.2140 C   0  0  0  0  0  0  0  0  0  0  0  0
  139.3800  157.2950  132.6100 C   0  0  0  0  0  0  0  0  0  0  0  0
  137.4810  159.2842  132.8216 H   0  0  0  0  0  0  0  0  0  0  0  0
  137.9877  160.0649  131.2853 H   0  0  0  0  0  0  0  0  0  0  0  0
  137.4397  158.3543  131.2853 H   0  0  0  0  0  0  0  0  0  0  0  0
  139.8962  160.6405  132.6659 H   0  0  0  0  0  0  0  0  0  0  0  0
  139.6551  159.4729  134.0179 H   0  0  0  0  0  0  0  0  0  0  0  0
  142.0640  159.9367  132.2662 H   0  0  0  0  0  0  0  0  0  0  0  0
  141.9465  159.5269  134.0307 H   0  0  0  0  0  0  0  0  0  0  0  0
  141.9040  157.7221  131.6154 H   0  0  0  0  0  0  0  0  0  0  0  0
  144.4287  158.6152  134.4423 H   0  0  0  0  0  0  0  0  0  0  0  0
  145.1705  158.0843  132.8949 H   0  0  0  0  0  0  0  0  0  0  0  0
  143.9158  159.3697  132.8949 H   0  0  0  0  0  0  0  0  0  0  0  0
  143.1420  155.1780  131.6430 H   0  0  0  0  0  0  0  0  0  0  0  0
  144.0416  153.0643  132.0025 H   0  0  0  0  0  0  0  0  0  0  0  0
  144.7822  153.6469  133.5442 H   0  0  0  0  0  0  0  0  0  0  0  0
  143.2690  153.9150  135.5600 H   0  0  0  0  0  0  0  0  0  0  0  0
  140.3070  149.9450  136.8630 H   0  0  0  0  0  0  0  0  0  0  0  0
  140.6850  152.8749  140.5288 H   0  0  0  0  0  0  0  0  0  0  0  0
  140.6143  155.7333  140.6682 H   0  0  0  0  0  0  0  0  0  0  0  0
  140.8886  157.8113  139.2787 H   0  0  0  0  0  0  0  0  0  0  0  0
  141.7302  155.3558  135.7723 H   0  0  0  0  0  0  0  0  0  0  0  0
  140.9798  155.8633  132.9256 H   0  0  0  0  0  0  0  0  0  0  0  0
  140.6838  156.9930  134.3082 H   0  0  0  0  0  0  0  0  0  0  0  0
  139.1467  156.6049  131.7858 H   0  0  0  0  0  0  0  0  0  0  0  0
  138.6326  157.2364  133.4150 H   0  0  0  0  0  0  0  0  0  0  0  0
  1  2  1  0
  2  3  1  0
  3  4  1  0
  4  5  1  0
  5  6  1  0
  6  7  1  0
  6  8  1  0
  8  9  2  0
  8 10  1  0
 10 11  1  0
 11 12  1  0
 12 13  2  0
 12 14  1  0
 14 15  1  0
 15 16  2  0
 15 17  1  0
 17 18  1  0
 18 19  1  0
 19 20  1  0
 19 21  2  0
 18 22  2  0
 22 23  1  0
 23 24  2  0
 24 25  1  0
 25 26  2  0
 26 27  1  0
 27 28  1  0
 27 29  1  0
 27 30  1  0
 26 31  1  0
 31 32  2  0
  5 33  1  0
 33 34  1  0
 34  2  1  0
 32 17  1  0
 32 23  1  0
  1 35  1  0
  1 36  1  0
  1 37  1  0
  3 38  1  0
  3 39  1  0
  4 40  1  0
  4 41  1  0
  5 42  1  0
  7 43  1  0
  7 44  1  0
  7 45  1  0
 10 46  1  0
 11 47  1  0
 11 48  1  0
 14 49  1  0
 20 50  1  0
 22 51  1  0
 24 52  1  0
 25 53  1  0
 31 54  1  0
 33 55  1  0
 33 56  1  0
 34 57  1  0
 34 58  1  0
M  CHG  1  20  -1
M  END
>  <UniqueID>  (61) 
60

>  <SMILES>  (61) 
CN1CCC(N(C)C(=O)NCC(=O)NC(=O)n2c(C([NH-])=O)cc3ccc(C(F)(F)F)cc32)CC1

>  <Energy>  (61) 
102.41739602472622

>  <Genealogy>  (61) 
CN1CCC(N(C)C(=O)NCC(=O)NC(=O)n2c(C([NH-])=O)cc3ccc(C(F)(F)F)cc32)CC1 (protonated)
CN1CCC(N(C)C(=O)NCC(=O)NC(=O)n2c(C([NH-])=O)cc3ccc(C(F)(F)F)cc32)CC1 (3D coordinates assigned)
CN1CCC(N(C)C(=O)NCC(=O)NC(=O)n2c(C([NH-])=O)cc3ccc(C(F)(F)F)cc32)CC1 (nonaromatic ring conformer: 102.41739602472622 kcal/mol)

>  <smiles>  (61) 
CN1CCC(N(C)C(=O)NCC(=O)NC(=O)n2c(C(N)=O)cc3ccc(C(F)(F)F)cc32)CC1

>  <score_type>  (61) 
oracle

>  <origin>  (61) 
adg

>  <m_score__min__energy>  (61) 
-8.8300000000000001

>  <m_primary>  (61) 
energy

$$$$
61:0
     RDKit          3D

 33 34  0  0  0  0  0  0  0  0999 V2000
  149.1430  157.2670  131.8570 N   0  0  0  0  0  0  0  0  0  0  0  0
  148.7580  158.5540  132.3430 C   0  0  0  0  0  0  0  0  0  0  0  0
  149.6170  159.4730  132.3920 O   0  0  0  0  0  0  0  0  0  0  0  0
  147.3610  158.8210  132.7520 C   0  0  0  0  0  0  0  0  0  0  0  0
  146.8270  160.0990  132.9070 C   0  0  0  0  0  0  0  0  0  0  0  0
  145.5500  159.9070  133.3800 C   0  0  0  0  0  0  0  0  0  0  0  0
  144.5610  160.8360  133.6870 C   0  0  0  0  0  0  0  0  0  0  0  0
  143.3150  160.3530  134.1200 C   0  0  0  0  0  0  0  0  0  0  0  0
  143.0810  158.9590  134.2500 C   0  0  0  0  0  0  0  0  0  0  0  0
  141.7200  158.4520  134.6550 C   0  0  0  0  0  0  0  0  0  0  0  0
  141.3070  157.4350  133.8110 F   0  0  0  0  0  0  0  0  0  0  0  0
  141.7820  157.9670  135.9470 F   0  0  0  0  0  0  0  0  0  0  0  0
  140.7840  159.4700  134.5980 F   0  0  0  0  0  0  0  0  0  0  0  0
  144.1060  158.0470  133.9050 C   0  0  0  0  0  0  0  0  0  0  0  0
  145.3430  158.5560  133.4950 C   0  0  0  0  0  0  0  0  0  0  0  0
  146.4470  157.8760  133.1120 N   0  0  0  0  0  0  0  0  0  0  0  0
  146.5870  156.4490  133.0230 C   0  0  0  0  0  0  0  0  0  0  0  0
  145.8140  155.7860  132.2790 O   0  0  0  0  0  0  0  0  0  0  0  0
  147.5870  155.8010  133.7590 O   0  0  0  0  0  0  0  0  0  0  0  0
  147.5560  154.4110  134.0730 C   0  0  0  0  0  0  0  0  0  0  0  0
  148.3720  153.6020  133.0630 C   0  0  0  0  0  0  0  0  0  0  0  0
  148.5350  154.3240  131.8730 O   0  0  0  0  0  0  0  0  0  0  0  0
  148.4730  156.4660  131.8540 H   0  0  0  0  0  0  0  0  0  0  0  0
  150.1220  157.1000  131.5360 H   0  0  0  0  0  0  0  0  0  0  0  0
  147.3222  161.0583  132.6957 H   0  0  0  0  0  0  0  0  0  0  0  0
  144.7490  161.9158  133.5935 H   0  0  0  0  0  0  0  0  0  0  0  0
  142.5108  161.0637  134.3613 H   0  0  0  0  0  0  0  0  0  0  0  0
  143.9342  156.9618  133.9579 H   0  0  0  0  0  0  0  0  0  0  0  0
  147.9762  154.2599  135.0783 H   0  0  0  0  0  0  0  0  0  0  0  0
  146.5119  154.0667  134.0358 H   0  0  0  0  0  0  0  0  0  0  0  0
  149.3610  153.3811  133.4907 H   0  0  0  0  0  0  0  0  0  0  0  0
  147.8372  152.6667  132.8412 H   0  0  0  0  0  0  0  0  0  0  0  0
  147.7020  154.8500  131.7430 H   0  0  0  0  0  0  0  0  0  0  0  0
  1  2  1  0
  2  3  2  0
  2  4  1  0
  4  5  2  0
  5  6  1  0
  6  7  2  0
  7  8  1  0
  8  9  2  0
  9 10  1  0
 10 11  1  0
 10 12  1  0
 10 13  1  0
  9 14  1  0
 14 15  2  0
 15 16  1  0
 16 17  1  0
 17 18  2  0
 17 19  1  0
 19 20  1  0
 20 21  1  0
 21 22  1  0
 16  4  1  0
 15  6  1  0
  1 23  1  0
  1 24  1  0
  5 25  1  0
  7 26  1  0
  8 27  1  0
 14 28  1  0
 20 29  1  0
 20 30  1  0
 21 31  1  0
 21 32  1  0
 22 33  1  0
M  END
>  <UniqueID>  (62) 
61

>  <SMILES>  (62) 
NC(=O)c1cc2ccc(C(F)(F)F)cc2n1C(=O)OCCO

>  <Energy>  (62) 
68.78002930208964

>  <Genealogy>  (62) 
NC(=O)c1cc2ccc(C(F)(F)F)cc2n1C(=O)OCCO (3D coordinates assigned)
NC(=O)c1cc2ccc(C(F)(F)F)cc2n1C(=O)OCCO (optimized conformer: 68.78002930208964 kcal/mol)

>  <smiles>  (62) 
NC(=O)c1cc2ccc(C(F)(F)F)cc2n1C(=O)OCCO

>  <score_type>  (62) 
oracle

>  <origin>  (62) 
adg

>  <m_score__min__energy>  (62) 
-5.7699999999999996

>  <m_primary>  (62) 
energy

$$$$
62:0
     RDKit          3D

 42 43  0  0  0  0  0  0  0  0999 V2000
  143.5318  155.8752  134.9888 H   0  0  0  0  0  0  0  0  0  0  0  0
  143.5240  156.3020  133.9750 C   0  0  0  0  0  0  0  0  0  0  0  0
  144.3470  157.4870  133.6970 C   0  0  0  0  0  0  0  0  0  0  0  0
  145.5590  157.4880  134.0470 O   0  0  0  0  0  0  0  0  0  0  0  0
  143.7930  158.5990  133.0490 O   0  0  0  0  0  0  0  0  0  0  0  0
  143.6880  159.8880  133.6500 C   0  0  0  0  0  0  0  0  0  0  0  0
  143.2663  159.7822  134.6604 H   0  0  0  0  0  0  0  0  0  0  0  0
  143.0339  160.5165  133.0278 H   0  0  0  0  0  0  0  0  0  0  0  0
  145.0580  160.5500  133.7460 C   0  0  0  0  0  0  0  0  0  0  0  0
  145.3287  160.6808  134.8041 H   0  0  0  0  0  0  0  0  0  0  0  0
  145.8077  159.9147  133.2516 H   0  0  0  0  0  0  0  0  0  0  0  0
  145.0261  161.5321  133.2516 H   0  0  0  0  0  0  0  0  0  0  0  0
  142.7670  155.7260  133.0380 C   0  0  0  0  0  0  0  0  0  0  0  0
  142.7602  156.1391  132.0185 H   0  0  0  0  0  0  0  0  0  0  0  0
  141.9280  154.5280  133.3520 C   0  0  0  0  0  0  0  0  0  0  0  0
  141.8093  153.9157  132.4459 H   0  0  0  0  0  0  0  0  0  0  0  0
  142.4185  153.9317  134.1355 H   0  0  0  0  0  0  0  0  0  0  0  0
  140.6490  154.9520  133.8090 O   0  0  0  0  0  0  0  0  0  0  0  0
  139.9600  156.0310  133.2450 C   0  0  0  0  0  0  0  0  0  0  0  0
  139.1060  155.8340  132.3380 O   0  0  0  0  0  0  0  0  0  0  0  0
  140.2220  157.3650  133.7090 N   0  0  0  0  0  0  0  0  0  0  0  0
  140.0290  158.5330  133.0320 C   0  0  0  0  0  0  0  0  0  0  0  0
  139.6580  158.6560  131.6080 C   0  0  0  0  0  0  0  0  0  0  0  0
  140.4580  159.2080  130.8060 O   0  0  0  0  0  0  0  0  0  0  0  0
  138.4370  158.1060  131.1120 N   0  0  0  0  0  0  0  0  0  0  0  0
  138.1740  158.2360  130.1100 H   0  0  0  0  0  0  0  0  0  0  0  0
  137.8370  157.4970  131.7100 H   0  0  0  0  0  0  0  0  0  0  0  0
  140.2840  159.6270  133.8530 C   0  0  0  0  0  0  0  0  0  0  0  0
  140.2043  160.6921  133.5898 H   0  0  0  0  0  0  0  0  0  0  0  0
  140.6570  159.0920  135.0640 C   0  0  0  0  0  0  0  0  0  0  0  0
  141.0200  159.7280  136.2480 C   0  0  0  0  0  0  0  0  0  0  0  0
  141.0622  160.8253  136.3121 H   0  0  0  0  0  0  0  0  0  0  0  0
  141.3310  158.9250  137.3590 C   0  0  0  0  0  0  0  0  0  0  0  0
  141.6383  159.3968  138.3040 H   0  0  0  0  0  0  0  0  0  0  0  0
  141.2520  157.5140  137.2720 C   0  0  0  0  0  0  0  0  0  0  0  0
  141.6120  156.6670  138.4570 C   0  0  0  0  0  0  0  0  0  0  0  0
  141.3796  157.2138  139.3827 H   0  0  0  0  0  0  0  0  0  0  0  0
  141.0336  155.7318  138.4285 H   0  0  0  0  0  0  0  0  0  0  0  0
  142.6868  156.4344  138.4285 H   0  0  0  0  0  0  0  0  0  0  0  0
  140.8930  156.9030  136.0520 C   0  0  0  0  0  0  0  0  0  0  0  0
  140.8368  155.8079  135.9654 H   0  0  0  0  0  0  0  0  0  0  0  0
  140.6100  157.7250  134.9540 C   0  0  0  0  0  0  0  0  0  0  0  0
  1  2  1  0
  2  3  1  0
  3  4  2  0
  3  5  1  0
  5  6  1  0
  6  7  1  0
  6  8  1  0
  6  9  1  0
  9 10  1  0
  9 11  1  0
  9 12  1  0
  2 13  2  0
 13 14  1  0
 13 15  1  0
 15 16  1  0
 15 17  1  0
 15 18  1  0
 18 19  1  0
 19 20  2  0
 19 21  1  0
 21 22  1  0
 22 23  1  0
 23 24  2  0
 23 25  1  0
 25 26  1  0
 25 27  1  0
 22 28  2  0
 28 29  1  0
 28 30  1  0
 30 31  2  0
 31 32  1  0
 31 33  1  0
 33 34  1  0
 33 35  2  0
 35 36  1  0
 36 37  1  0
 36 38  1  0
 36 39  1  0
 35 40  1  0
 40 41  1  0
 40 42  2  0
 42 21  1  0
 42 30  1  0
M  END
>  <UniqueID>  (63) 
62

>  <SMILES>  (63) 
CCOC(=O)/C=C/COC(=O)n1c(C(N)=O)cc2ccc(C)cc21

>  <Energy>  (63) 
70.30053007925223

>  <Genealogy>  (63) 
CCOC(=O)/C=C/COC(=O)n1c(C(N)=O)cc2ccc(C)cc21 (cis-trans isomerization)
CCOC(=O)/C=C/COC(=O)n1c(C(N)=O)cc2ccc(C)cc21 (3D coordinates assigned)
CCOC(=O)/C=C/COC(=O)n1c(C(N)=O)cc2ccc(C)cc21 (optimized conformer: 70.30053007925223 kcal/mol)

>  <smiles>  (63) 
CCOC(=O)/C=C/COC(=O)n1c(C(N)=O)cc2ccc(C)cc21

>  <score_type>  (63) 
oracle

>  <origin>  (63) 
adg

>  <m_score__min__energy>  (63) 
-6.5300000000000002

>  <m_primary>  (63) 
energy

$$$$
63:0
     RDKit          3D

 36 37  0  0  0  0  0  0  0  0999 V2000
  149.8740  160.1450  129.2190 C   0  0  0  0  0  0  0  0  0  0  0  0
  149.6540  160.2200  130.7270 C   0  0  2  0  0  0  0  0  0  0  0  0
  148.8460  159.0820  131.1570 N   0  0  0  0  0  0  0  0  0  0  0  0
  149.2420  158.1850  132.1990 C   0  0  0  0  0  0  0  0  0  0  0  0
  150.3540  157.5950  132.1430 O   0  0  0  0  0  0  0  0  0  0  0  0
  148.3380  157.9400  133.3340 C   0  0  0  0  0  0  0  0  0  0  0  0
  148.6160  158.4230  134.4640 O   0  0  0  0  0  0  0  0  0  0  0  0
  147.1330  157.1770  133.1650 N   0  0  0  0  0  0  0  0  0  0  0  0
  145.8520  157.6380  133.2100 C   0  0  0  0  0  0  0  0  0  0  0  0
  145.4470  159.0560  133.2960 C   0  0  0  0  0  0  0  0  0  0  0  0
  146.2560  160.0960  132.7440 N   0  0  0  0  0  0  0  0  0  0  0  0
  144.3440  159.3520  133.8280 O   0  0  0  0  0  0  0  0  0  0  0  0
  144.9480  156.5790  133.1590 C   0  0  0  0  0  0  0  0  0  0  0  0
  145.7230  155.4430  133.0780 C   0  0  0  0  0  0  0  0  0  0  0  0
  145.3470  154.1050  133.0460 C   0  0  0  0  0  0  0  0  0  0  0  0
  146.3630  153.1350  133.0290 C   0  0  0  0  0  0  0  0  0  0  0  0
  147.7310  153.5160  133.0420 C   0  0  0  0  0  0  0  0  0  0  0  0
  148.8110  152.4660  133.0930 C   0  0  0  0  0  0  0  0  0  0  0  0
  149.9330  152.8850  132.3980 F   0  0  0  0  0  0  0  0  0  0  0  0
  149.1590  152.2320  134.4100 F   0  0  0  0  0  0  0  0  0  0  0  0
  148.3690  151.2820  132.5260 F   0  0  0  0  0  0  0  0  0  0  0  0
  148.0700  154.8870  133.1060 C   0  0  0  0  0  0  0  0  0  0  0  0
  147.0380  155.8310  133.0920 C   0  0  0  0  0  0  0  0  0  0  0  0
  148.9660  161.5060  131.0840 C   0  0  0  0  0  0  0  0  0  0  0  0
  149.1350  162.5310  130.3720 O   0  0  0  0  0  0  0  0  0  0  0  0
  148.1130  161.5640  132.1790 O   0  0  0  0  0  0  0  0  0  0  0  0
  150.8970  159.7962  129.0146 H   0  0  0  0  0  0  0  0  0  0  0  0
  149.1520  159.4423  128.7776 H   0  0  0  0  0  0  0  0  0  0  0  0
  149.7316  161.1425  128.7776 H   0  0  0  0  0  0  0  0  0  0  0  0
  150.6272  160.1885  131.2388 H   0  0  0  0  0  0  0  0  0  0  0  0
  147.0710  159.8800  132.1290 H   0  0  0  0  0  0  0  0  0  0  0  0
  145.9780  161.0950  132.8670 H   0  0  0  0  0  0  0  0  0  0  0  0
  143.8497  156.6375  133.1791 H   0  0  0  0  0  0  0  0  0  0  0  0
  144.2861  153.8146  133.0344 H   0  0  0  0  0  0  0  0  0  0  0  0
  146.0959  152.0682  133.0054 H   0  0  0  0  0  0  0  0  0  0  0  0
  149.1216  155.2042  133.1655 H   0  0  0  0  0  0  0  0  0  0  0  0
  1  2  1  0
  2  3  1  0
  3  4  1  0
  4  5  2  0
  4  6  1  0
  6  7  2  0
  6  8  1  0
  8  9  1  0
  9 10  1  0
 10 11  1  0
 10 12  2  0
  9 13  2  0
 13 14  1  0
 14 15  2  0
 15 16  1  0
 16 17  2  0
 17 18  1  0
 18 19  1  0
 18 20  1  0
 18 21  1  0
 17 22  1  0
 22 23  2  0
  2 24  1  0
 24 25  2  0
 24 26  1  0
 23  8  1  0
 23 14  1  0
  1 27  1  0
  1 28  1  0
  1 29  1  0
  2 30  1  1
 11 31  1  0
 11 32  1  0
 13 33  1  0
 15 34  1  0
 16 35  1  0
 22 36  1  0
M  CHG  2   3  -1  26  -1
M  END
>  <UniqueID>  (64) 
63

>  <SMILES>  (64) 
C[C@H]([N-]C(=O)C(=O)n1c(C(N)=O)cc2ccc(C(F)(F)F)cc21)C(=O)[O-]

>  <Energy>  (64) 
71.54800939883273

>  <Genealogy>  (64) 
CC([N-]C(=O)C(=O)n1c(C(N)=O)cc2ccc(C(F)(F)F)cc21)C(=O)[O-] (protonated)
C[C@H]([N-]C(=O)C(=O)n1c(C(N)=O)cc2ccc(C(F)(F)F)cc21)C(=O)[O-] (chirality)
C[C@H]([N-]C(=O)C(=O)n1c(C(N)=O)cc2ccc(C(F)(F)F)cc21)C(=O)[O-] (3D coordinates assigned)
C[C@H]([N-]C(=O)C(=O)n1c(C(N)=O)cc2ccc(C(F)(F)F)cc21)C(=O)[O-] (optimized conformer: 71.54800939883273 kcal/mol)

>  <smiles>  (64) 
CC(NC(=O)C(=O)n1c(C(N)=O)cc2ccc(C(F)(F)F)cc21)C(=O)O

>  <score_type>  (64) 
oracle

>  <origin>  (64) 
adg

>  <m_score__min__energy>  (64) 
-6.3300000000000001

>  <m_primary>  (64) 
energy

$$$$
64:0
     RDKit          3D

 39 40  0  0  0  0  0  0  0  0999 V2000
  142.6390  155.8000  135.7390 C   0  0  0  0  0  0  0  0  0  0  0  0
  141.4260  156.4970  135.3060 N   0  0  0  0  0  0  0  0  0  0  0  0
  140.6830  155.9740  134.1580 C   0  0  0  0  0  0  0  0  0  0  0  0
  141.0870  157.7720  135.8960 C   0  0  0  0  0  0  0  0  0  0  0  0
  141.3680  158.0420  137.4920 S   0  0  0  0  0  0  0  0  0  0  0  0
  140.4510  158.8720  135.0800 C   0  0  0  0  0  0  0  0  0  0  0  0
  141.1440  159.0530  133.7930 N   0  0  0  0  0  0  0  0  0  0  0  0
  140.3910  158.8880  132.5430 C   0  0  0  0  0  0  0  0  0  0  0  0
  142.5290  159.4690  133.7400 C   0  0  0  0  0  0  0  0  0  0  0  0
  142.8660  160.8480  133.8060 C   0  0  0  0  0  0  0  0  0  0  0  0
  144.2010  161.2690  133.7100 C   0  0  0  0  0  0  0  0  0  0  0  0
  145.1830  160.2980  133.5560 C   0  0  0  0  0  0  0  0  0  0  0  0
  146.5440  160.4310  133.4020 C   0  0  0  0  0  0  0  0  0  0  0  0
  147.0300  159.1330  133.2710 C   0  0  0  0  0  0  0  0  0  0  0  0
  148.4690  158.8130  133.1650 C   0  0  0  0  0  0  0  0  0  0  0  0
  149.0110  158.2530  131.9720 N   0  0  0  0  0  0  0  0  0  0  0  0
  149.2220  158.9920  134.1600 O   0  0  0  0  0  0  0  0  0  0  0  0
  146.0090  158.2310  133.3340 N   0  0  0  0  0  0  0  0  0  0  0  0
  146.0770  156.8080  133.1480 C   0  0  0  0  0  0  0  0  0  0  0  0
  146.8610  156.3140  132.2950 O   0  0  0  0  0  0  0  0  0  0  0  0
  145.2590  155.9640  133.8900 O   0  0  0  0  0  0  0  0  0  0  0  0
  144.8850  158.9610  133.5110 C   0  0  0  0  0  0  0  0  0  0  0  0
  143.5620  158.5130  133.5900 C   0  0  0  0  0  0  0  0  0  0  0  0
  142.6768  155.7783  136.8381 H   0  0  0  0  0  0  0  0  0  0  0  0
  142.6282  154.7704  135.3520 H   0  0  0  0  0  0  0  0  0  0  0  0
  143.5231  156.3279  135.3520 H   0  0  0  0  0  0  0  0  0  0  0  0
  139.8319  155.3749  134.5141 H   0  0  0  0  0  0  0  0  0  0  0  0
  140.3124  156.8115  133.5487 H   0  0  0  0  0  0  0  0  0  0  0  0
  141.3464  155.3426  133.5487 H   0  0  0  0  0  0  0  0  0  0  0  0
  139.3994  158.6129  134.8874 H   0  0  0  0  0  0  0  0  0  0  0  0
  140.5228  159.8113  135.6480 H   0  0  0  0  0  0  0  0  0  0  0  0
  139.3407  158.6579  132.7753 H   0  0  0  0  0  0  0  0  0  0  0  0
  140.4419  159.8186  131.9587 H   0  0  0  0  0  0  0  0  0  0  0  0
  140.8264  158.0639  131.9587 H   0  0  0  0  0  0  0  0  0  0  0  0
  142.0693  161.5956  133.9341 H   0  0  0  0  0  0  0  0  0  0  0  0
  144.4626  162.3365  133.7553 H   0  0  0  0  0  0  0  0  0  0  0  0
  147.1248  161.3650  133.3858 H   0  0  0  0  0  0  0  0  0  0  0  0
  148.5530  157.4390  131.5050 H   0  0  0  0  0  0  0  0  0  0  0  0
  143.3292  157.4392  133.5366 H   0  0  0  0  0  0  0  0  0  0  0  0
  1  2  1  0
  2  3  1  0
  2  4  1  0
  4  5  2  0
  4  6  1  0
  6  7  1  0
  7  8  1  0
  7  9  1  0
  9 10  2  0
 10 11  1  0
 11 12  2  0
 12 13  1  0
 13 14  2  0
 14 15  1  0
 15 16  1  0
 15 17  2  0
 14 18  1  0
 18 19  1  0
 19 20  2  0
 19 21  1  0
 18 22  1  0
 22 23  2  0
 23  9  1  0
 22 12  1  0
  1 24  1  0
  1 25  1  0
  1 26  1  0
  3 27  1  0
  3 28  1  0
  3 29  1  0
  6 30  1  0
  6 31  1  0
  8 32  1  0
  8 33  1  0
  8 34  1  0
 10 35  1  0
 11 36  1  0
 13 37  1  0
 16 38  1  0
 23 39  1  0
M  CHG  2  16  -1  21  -1
M  END
>  <UniqueID>  (65) 
64

>  <SMILES>  (65) 
CN(C)C(=S)CN(C)c1ccc2cc(C([NH-])=O)n(C(=O)[O-])c2c1

>  <Energy>  (65) 
79.24451486772946

>  <Genealogy>  (65) 
CN(C)C(=S)CN(C)c1ccc2cc(C([NH-])=O)n(C(=O)[O-])c2c1 (protonated)
CN(C)C(=S)CN(C)c1ccc2cc(C([NH-])=O)n(C(=O)[O-])c2c1 (3D coordinates assigned)
CN(C)C(=S)CN(C)c1ccc2cc(C([NH-])=O)n(C(=O)[O-])c2c1 (optimized conformer: 79.24451486772946 kcal/mol)

>  <smiles>  (65) 
CN(C)C(=S)CN(C)c1ccc2cc(C(N)=O)n(C(=O)O)c2c1

>  <score_type>  (65) 
oracle

>  <origin>  (65) 
adg

>  <m_score__min__energy>  (65) 
-6.71

>  <m_primary>  (65) 
energy

$$$$
65:0
     RDKit          3D

 41 43  0  0  0  0  0  0  0  0999 V2000
  148.2840  160.4840  132.2380 C   0  0  0  0  0  0  0  0  0  0  0  0
  147.7380  159.2020  132.7900 C   0  0  0  0  0  0  0  0  0  0  0  0
  148.6150  158.2380  133.3470 C   0  0  0  0  0  0  0  0  0  0  0  0
  148.1120  157.0430  133.8890 C   0  0  0  0  0  0  0  0  0  0  0  0
  146.7330  156.8520  133.8810 C   0  0  0  0  0  0  0  0  0  0  0  0
  145.9840  155.7860  134.3240 C   0  0  0  0  0  0  0  0  0  0  0  0
  144.6590  156.1330  134.0660 C   0  0  0  0  0  0  0  0  0  0  0  0
  143.5040  155.2930  134.4510 C   0  0  0  0  0  0  0  0  0  0  0  0
  142.5980  154.8330  133.4500 N   0  0  0  0  0  0  0  0  0  0  0  0
  143.3200  154.9570  135.6500 O   0  0  0  0  0  0  0  0  0  0  0  0
  144.5930  157.3630  133.4850 N   0  0  0  0  0  0  0  0  0  0  0  0
  143.4170  158.0660  133.0550 C   0  0  0  0  0  0  0  0  0  0  0  0
  142.6280  157.5340  132.2290 O   0  0  0  0  0  0  0  0  0  0  0  0
  143.0430  159.6950  133.7030 S   0  0  0  0  0  0  0  0  0  0  0  0
  142.1690  159.0350  135.1760 C   0  0  0  0  0  0  0  0  0  0  0  0
  140.7700  158.6550  134.8910 N   0  0  0  0  0  0  0  0  0  0  0  0
  140.2100  159.3480  133.7200 C   0  0  0  0  0  0  0  0  0  0  0  0
  139.9590  158.3100  132.6400 C   0  0  0  0  0  0  0  0  0  0  0  0
  139.7920  157.0120  133.4060 C   0  0  1  0  0  0  0  0  0  0  0  0
  140.2200  155.8950  132.6660 O   0  0  0  0  0  0  0  0  0  0  0  0
  140.5920  157.2060  134.6920 C   0  0  0  0  0  0  0  0  0  0  0  0
  145.8700  157.7900  133.3770 C   0  0  0  0  0  0  0  0  0  0  0  0
  146.3440  158.9800  132.8120 C   0  0  0  0  0  0  0  0  0  0  0  0
  148.5672  161.1490  133.0672 H   0  0  0  0  0  0  0  0  0  0  0  0
  149.1691  160.2700  131.6209 H   0  0  0  0  0  0  0  0  0  0  0  0
  147.5164  160.9738  131.6209 H   0  0  0  0  0  0  0  0  0  0  0  0
  149.6986  158.4268  133.3551 H   0  0  0  0  0  0  0  0  0  0  0  0
  148.7872  156.2818  134.3068 H   0  0  0  0  0  0  0  0  0  0  0  0
  146.3527  154.8573  134.7840 H   0  0  0  0  0  0  0  0  0  0  0  0
  142.3540  155.4320  132.6300 H   0  0  0  0  0  0  0  0  0  0  0  0
  142.7082  158.1460  135.5351 H   0  0  0  0  0  0  0  0  0  0  0  0
  142.1471  159.8333  135.9325 H   0  0  0  0  0  0  0  0  0  0  0  0
  139.2646  159.8394  133.9932 H   0  0  0  0  0  0  0  0  0  0  0  0
  140.9093  160.1162  133.3584 H   0  0  0  0  0  0  0  0  0  0  0  0
  139.0471  158.5490  132.0732 H   0  0  0  0  0  0  0  0  0  0  0  0
  140.7736  158.2630  131.9022 H   0  0  0  0  0  0  0  0  0  0  0  0
  138.7341  156.7990  133.6191 H   0  0  0  0  0  0  0  0  0  0  0  0
  141.2060  155.9530  132.5640 H   0  0  0  0  0  0  0  0  0  0  0  0
  140.0445  156.7749  135.5431 H   0  0  0  0  0  0  0  0  0  0  0  0
  141.5676  156.7030  134.6199 H   0  0  0  0  0  0  0  0  0  0  0  0
  145.6479  159.7231  132.3958 H   0  0  0  0  0  0  0  0  0  0  0  0
  1  2  1  0
  2  3  2  0
  3  4  1  0
  4  5  2  0
  5  6  1  0
  6  7  2  0
  7  8  1  0
  8  9  1  0
  8 10  2  0
  7 11  1  0
 11 12  1  0
 12 13  2  0
 12 14  1  0
 14 15  1  0
 15 16  1  0
 16 17  1  0
 17 18  1  0
 18 19  1  0
 19 20  1  0
 19 21  1  0
 11 22  1  0
 22 23  2  0
 23  2  1  0
 22  5  1  0
 21 16  1  0
  1 24  1  0
  1 25  1  0
  1 26  1  0
  3 27  1  0
  4 28  1  0
  6 29  1  0
  9 30  1  0
 15 31  1  0
 15 32  1  0
 17 33  1  0
 17 34  1  0
 18 35  1  0
 18 36  1  0
 19 37  1  1
 20 38  1  0
 21 39  1  0
 21 40  1  0
 23 41  1  0
M  CHG  1   9  -1
M  END
>  <UniqueID>  (66) 
65

>  <SMILES>  (66) 
Cc1ccc2cc(C([NH-])=O)n(C(=O)SCN3CC[C@@H](O)C3)c2c1

>  <Energy>  (66) 
83.38195870088516

>  <Genealogy>  (66) 
Cc1ccc2cc(C([NH-])=O)n(C(=O)SCN3CCC(O)C3)c2c1 (protonated)
Cc1ccc2cc(C([NH-])=O)n(C(=O)SCN3CC[C@@H](O)C3)c2c1 (chirality)
Cc1ccc2cc(C([NH-])=O)n(C(=O)SCN3CC[C@@H](O)C3)c2c1 (3D coordinates assigned)
Cc1ccc2cc(C([NH-])=O)n(C(=O)SCN3CC[C@@H](O)C3)c2c1 (nonaromatic ring conformer: 83.38195870088516 kcal/mol)

>  <smiles>  (66) 
Cc1ccc2cc(C(N)=O)n(C(=O)SCN3CCC(O)C3)c2c1

>  <score_type>  (66) 
oracle

>  <origin>  (66) 
adg

>  <m_score__min__energy>  (66) 
-6.96

>  <m_primary>  (66) 
energy

$$$$
66:0
     RDKit          3D

 43 44  0  0  0  0  0  0  0  0999 V2000
  139.9440  158.6630  132.3000 C   0  0  0  0  0  0  0  0  0  0  0  0
  140.8710  159.2980  133.1440 O   0  0  0  0  0  0  0  0  0  0  0  0
  140.6800  158.6790  134.7220 P   0  0  0  0  0  0  0  0  0  0  0  0
  139.2600  158.1760  134.8580 O   0  0  0  0  0  0  0  0  0  0  0  0
  141.8340  157.2860  134.9800 C   0  0  0  0  0  0  0  0  0  0  0  0
  143.1800  157.7270  134.8290 O   0  0  0  0  0  0  0  0  0  0  0  0
  143.7700  157.9960  133.5890 C   0  0  0  0  0  0  0  0  0  0  0  0
  143.1700  157.7020  132.5190 O   0  0  0  0  0  0  0  0  0  0  0  0
  145.0540  158.6330  133.5360 N   0  0  0  0  0  0  0  0  0  0  0  0
  145.3320  159.9640  133.6450 C   0  0  0  0  0  0  0  0  0  0  0  0
  144.3690  161.0220  134.0150 C   0  0  0  0  0  0  0  0  0  0  0  0
  142.9710  160.7550  134.0740 N   0  0  0  0  0  0  0  0  0  0  0  0
  144.7920  162.1670  134.3290 O   0  0  0  0  0  0  0  0  0  0  0  0
  146.6880  160.1980  133.4310 C   0  0  0  0  0  0  0  0  0  0  0  0
  147.2390  158.9610  133.1890 C   0  0  0  0  0  0  0  0  0  0  0  0
  148.5520  158.6060  132.8960 C   0  0  0  0  0  0  0  0  0  0  0  0
  148.8300  157.2510  132.6560 C   0  0  0  0  0  0  0  0  0  0  0  0
  147.8020  156.2760  132.7010 C   0  0  0  0  0  0  0  0  0  0  0  0
  148.1320  154.8990  132.4360 N   0  0  0  0  0  0  0  0  0  0  0  0
  148.4880  153.9200  133.4620 C   0  0  0  0  0  0  0  0  0  0  0  0
  149.2310  152.7710  132.8560 C   0  0  0  0  0  0  0  0  0  0  0  0
  149.4120  152.7190  131.6120 O   0  0  0  0  0  0  0  0  0  0  0  0
  149.7520  151.7720  133.6700 O   0  0  0  0  0  0  0  0  0  0  0  0
  146.4760  156.6790  132.9990 C   0  0  0  0  0  0  0  0  0  0  0  0
  146.2320  158.0340  133.2560 C   0  0  0  0  0  0  0  0  0  0  0  0
  140.9580  159.9230  135.8600 O   0  0  0  0  0  0  0  0  0  0  0  0
  141.3720  159.3410  137.0720 C   0  0  0  0  0  0  0  0  0  0  0  0
  139.1883  158.1453  132.9090 H   0  0  0  0  0  0  0  0  0  0  0  0
  139.4515  159.4143  131.6652 H   0  0  0  0  0  0  0  0  0  0  0  0
  140.4666  157.9323  131.6652 H   0  0  0  0  0  0  0  0  0  0  0  0
  141.6955  156.8826  135.9940 H   0  0  0  0  0  0  0  0  0  0  0  0
  141.6265  156.5054  134.2333 H   0  0  0  0  0  0  0  0  0  0  0  0
  142.6150  159.8190  134.3720 H   0  0  0  0  0  0  0  0  0  0  0  0
  147.2084  161.1669  133.4512 H   0  0  0  0  0  0  0  0  0  0  0  0
  149.3480  159.3640  132.8537 H   0  0  0  0  0  0  0  0  0  0  0  0
  149.8609  156.9413  132.4297 H   0  0  0  0  0  0  0  0  0  0  0  0
  148.1120  154.5640  131.4450 H   0  0  0  0  0  0  0  0  0  0  0  0
  149.1238  154.4035  134.2184 H   0  0  0  0  0  0  0  0  0  0  0  0
  147.5659  153.5413  133.9270 H   0  0  0  0  0  0  0  0  0  0  0  0
  145.6576  155.9445  133.0277 H   0  0  0  0  0  0  0  0  0  0  0  0
  140.9620  159.9174  137.9144 H   0  0  0  0  0  0  0  0  0  0  0  0
  141.0070  158.3047  137.1246 H   0  0  0  0  0  0  0  0  0  0  0  0
  142.4707  159.3459  137.1246 H   0  0  0  0  0  0  0  0  0  0  0  0
  1  2  1  0
  2  3  1  0
  3  4  2  0
  3  5  1  0
  5  6  1  0
  6  7  1  0
  7  8  2  0
  7  9  1  0
  9 10  1  0
 10 11  1  0
 11 12  1  0
 11 13  2  0
 10 14  2  0
 14 15  1  0
 15 16  2  0
 16 17  1  0
 17 18  2  0
 18 19  1  0
 19 20  1  0
 20 21  1  0
 21 22  2  0
 21 23  1  0
 18 24  1  0
 24 25  2  0
  3 26  1  0
 26 27  1  0
 25  9  1  0
 25 15  1  0
  1 28  1  0
  1 29  1  0
  1 30  1  0
  5 31  1  0
  5 32  1  0
 12 33  1  0
 14 34  1  0
 16 35  1  0
 17 36  1  0
 19 37  1  0
 20 38  1  0
 20 39  1  0
 24 40  1  0
 27 41  1  0
 27 42  1  0
 27 43  1  0
M  CHG  2  12  -1  23  -1
M  END
>  <UniqueID>  (67) 
66

>  <SMILES>  (67) 
COP(=O)(COC(=O)n1c(C([NH-])=O)cc2ccc(NCC(=O)[O-])cc21)OC

>  <Energy>  (67) 
74.57024749124032

>  <Genealogy>  (67) 
COP(=O)(COC(=O)n1c(C([NH-])=O)cc2ccc(NCC(=O)[O-])cc21)OC (protonated)
COP(=O)(COC(=O)n1c(C([NH-])=O)cc2ccc(NCC(=O)[O-])cc21)OC (3D coordinates assigned)
COP(=O)(COC(=O)n1c(C([NH-])=O)cc2ccc(NCC(=O)[O-])cc21)OC (optimized conformer: 74.57024749124032 kcal/mol)

>  <smiles>  (67) 
COP(=O)(COC(=O)n1c(C(N)=O)cc2ccc(NCC(=O)O)cc21)OC

>  <score_type>  (67) 
oracle

>  <origin>  (67) 
adg

>  <m_score__min__energy>  (67) 
-6.3899999999999997

>  <m_primary>  (67) 
energy

$$$$
67:0
     RDKit          3D

 35 36  0  0  0  0  0  0  0  0999 V2000
  141.0590  155.3200  133.4030 C   0  0  0  0  0  0  0  0  0  0  0  0
  141.2220  156.8080  133.4850 C   0  0  0  0  0  0  0  0  0  0  0  0
  140.0900  157.6380  133.6750 C   0  0  0  0  0  0  0  0  0  0  0  0
  140.2330  159.0320  133.7780 C   0  0  0  0  0  0  0  0  0  0  0  0
  141.5180  159.5620  133.7090 C   0  0  0  0  0  0  0  0  0  0  0  0
  141.9410  160.8710  133.7610 C   0  0  0  0  0  0  0  0  0  0  0  0
  143.3280  160.8170  133.6430 C   0  0  0  0  0  0  0  0  0  0  0  0
  144.2000  162.0080  133.7360 C   0  0  0  0  0  0  0  0  0  0  0  0
  145.5540  161.8640  134.1570 N   0  0  0  0  0  0  0  0  0  0  0  0
  143.7710  163.1480  133.4150 O   0  0  0  0  0  0  0  0  0  0  0  0
  143.7460  159.5260  133.5160 N   0  0  0  0  0  0  0  0  0  0  0  0
  145.0840  159.0420  133.3190 C   0  0  0  0  0  0  0  0  0  0  0  0
  145.4650  157.9930  133.9100 O   0  0  0  0  0  0  0  0  0  0  0  0
  145.9580  159.7560  132.4900 O   0  0  0  0  0  0  0  0  0  0  0  0
  147.3520  159.7830  132.6210 C   0  0  0  0  0  0  0  0  0  0  0  0
  147.9020  160.1750  133.6870 O   0  0  0  0  0  0  0  0  0  0  0  0
  148.2030  159.3520  131.4650 C   0  0  0  0  0  0  0  0  0  0  0  0
  149.5360  160.1110  131.4250 C   0  0  0  0  0  0  0  0  0  0  0  0
  149.6210  161.0140  130.2330 C   0  0  0  0  0  0  0  0  0  0  0  0
  149.3660  162.2430  130.3500 O   0  0  0  0  0  0  0  0  0  0  0  0
  149.9440  160.4940  128.9870 O   0  0  0  0  0  0  0  0  0  0  0  0
  142.6270  158.7700  133.5600 C   0  0  0  0  0  0  0  0  0  0  0  0
  142.5120  157.3810  133.4340 C   0  0  0  0  0  0  0  0  0  0  0  0
  141.0130  154.8997  134.4185 H   0  0  0  0  0  0  0  0  0  0  0  0
  140.1294  155.0821  132.8652 H   0  0  0  0  0  0  0  0  0  0  0  0
  141.9150  154.8865  132.8652 H   0  0  0  0  0  0  0  0  0  0  0  0
  139.0891  157.1868  133.7426 H   0  0  0  0  0  0  0  0  0  0  0  0
  139.3568  159.6840  133.9091 H   0  0  0  0  0  0  0  0  0  0  0  0
  141.3161  161.7694  133.8722 H   0  0  0  0  0  0  0  0  0  0  0  0
  146.3090  161.6450  133.4710 H   0  0  0  0  0  0  0  0  0  0  0  0
  148.4089  158.2753  131.5562 H   0  0  0  0  0  0  0  0  0  0  0  0
  147.6559  159.5724  130.5365 H   0  0  0  0  0  0  0  0  0  0  0  0
  149.6297  160.7163  132.3387 H   0  0  0  0  0  0  0  0  0  0  0  0
  150.3496  159.3739  131.3568 H   0  0  0  0  0  0  0  0  0  0  0  0
  143.4037  156.7513  133.2987 H   0  0  0  0  0  0  0  0  0  0  0  0
  1  2  1  0
  2  3  2  0
  3  4  1  0
  4  5  2  0
  5  6  1  0
  6  7  2  0
  7  8  1  0
  8  9  1  0
  8 10  2  0
  7 11  1  0
 11 12  1  0
 12 13  2  0
 12 14  1  0
 14 15  1  0
 15 16  2  0
 15 17  1  0
 17 18  1  0
 18 19  1  0
 19 20  2  0
 19 21  1  0
 11 22  1  0
 22 23  2  0
 23  2  1  0
 22  5  1  0
  1 24  1  0
  1 25  1  0
  1 26  1  0
  3 27  1  0
  4 28  1  0
  6 29  1  0
  9 30  1  0
 17 31  1  0
 17 32  1  0
 18 33  1  0
 18 34  1  0
 23 35  1  0
M  CHG  2   9  -1  21  -1
M  END
>  <UniqueID>  (68) 
67

>  <SMILES>  (68) 
Cc1ccc2cc(C([NH-])=O)n(C(=O)OC(=O)CCC(=O)[O-])c2c1

>  <Energy>  (68) 
69.59767680547459

>  <Genealogy>  (68) 
Cc1ccc2cc(C([NH-])=O)n(C(=O)OC(=O)CCC(=O)[O-])c2c1 (protonated)
Cc1ccc2cc(C([NH-])=O)n(C(=O)OC(=O)CCC(=O)[O-])c2c1 (3D coordinates assigned)
Cc1ccc2cc(C([NH-])=O)n(C(=O)OC(=O)CCC(=O)[O-])c2c1 (optimized conformer: 69.59767680547459 kcal/mol)

>  <smiles>  (68) 
Cc1ccc2cc(C(N)=O)n(C(=O)OC(=O)CCC(=O)O)c2c1

>  <score_type>  (68) 
oracle

>  <origin>  (68) 
adg

>  <m_score__min__energy>  (68) 
-6.6900000000000004

>  <m_primary>  (68) 
energy

$$$$
68:0
     RDKit          3D

 45 47  0  0  0  0  0  0  0  0999 V2000
  142.5790  160.6300  133.3550 N   0  0  0  0  0  0  0  0  0  0  0  0
  143.9570  160.8730  133.6260 C   0  0  0  0  0  0  0  0  0  0  0  0
  144.3120  162.0070  134.0460 O   0  0  0  0  0  0  0  0  0  0  0  0
  144.9650  159.8040  133.4610 C   0  0  0  0  0  0  0  0  0  0  0  0
  146.3370  160.0430  133.3780 C   0  0  0  0  0  0  0  0  0  0  0  0
  146.9210  158.7980  133.3190 C   0  0  0  0  0  0  0  0  0  0  0  0
  148.2610  158.4390  133.2140 C   0  0  0  0  0  0  0  0  0  0  0  0
  148.5740  157.0700  133.1500 C   0  0  0  0  0  0  0  0  0  0  0  0
  147.5500  156.0880  133.2100 C   0  0  0  0  0  0  0  0  0  0  0  0
  147.8890  154.6230  133.0900 C   0  0  0  0  0  0  0  0  0  0  0  0
  146.7900  153.9390  132.6050 F   0  0  0  0  0  0  0  0  0  0  0  0
  148.2350  154.1040  134.3250 F   0  0  0  0  0  0  0  0  0  0  0  0
  148.9540  154.4330  132.2260 F   0  0  0  0  0  0  0  0  0  0  0  0
  146.1990  156.4960  133.2920 C   0  0  0  0  0  0  0  0  0  0  0  0
  145.9200  157.8640  133.3630 C   0  0  0  0  0  0  0  0  0  0  0  0
  144.7140  158.4650  133.4410 N   0  0  0  0  0  0  0  0  0  0  0  0
  143.4420  157.8020  133.4460 C   0  0  0  0  0  0  0  0  0  0  0  0
  142.7500  157.7980  132.3930 O   0  0  0  0  0  0  0  0  0  0  0  0
  142.9250  157.1890  134.6920 C   0  0  0  0  0  0  0  0  0  0  0  0
  143.6010  156.2820  135.2440 O   0  0  0  0  0  0  0  0  0  0  0  0
  141.6860  157.5780  135.3000 N   0  0  0  0  0  0  0  0  0  0  0  0
  140.3670  157.5120  134.6830 C   0  0  0  0  0  0  0  0  0  0  0  0
  139.9340  158.8900  134.1790 C   0  0  0  0  0  0  0  0  0  0  0  0
  140.2510  159.0390  132.7360 N   0  0  0  0  0  0  0  0  0  0  0  0
  139.5090  158.0760  131.9110 C   0  0  0  0  0  0  0  0  0  0  0  0
  138.1900  158.7230  131.5290 C   0  0  0  0  0  0  0  0  0  0  0  0
  138.4510  160.2150  131.6070 C   0  0  0  0  0  0  0  0  0  0  0  0
  139.8410  160.3570  132.2210 C   0  0  0  0  0  0  0  0  0  0  0  0
  142.2880  159.8970  132.6720 H   0  0  0  0  0  0  0  0  0  0  0  0
  146.8442  161.0190  133.3629 H   0  0  0  0  0  0  0  0  0  0  0  0
  149.0516  159.2032  133.1820 H   0  0  0  0  0  0  0  0  0  0  0  0
  149.6237  156.7560  133.0523 H   0  0  0  0  0  0  0  0  0  0  0  0
  145.3865  155.7546  133.2998 H   0  0  0  0  0  0  0  0  0  0  0  0
  140.4000  156.8118  133.8353 H   0  0  0  0  0  0  0  0  0  0  0  0
  139.6423  157.1678  135.4356 H   0  0  0  0  0  0  0  0  0  0  0  0
  138.8498  159.0047  134.3252 H   0  0  0  0  0  0  0  0  0  0  0  0
  140.4766  159.6622  134.7441 H   0  0  0  0  0  0  0  0  0  0  0  0
  140.0851  157.8349  131.0055 H   0  0  0  0  0  0  0  0  0  0  0  0
  139.3359  157.1425  132.4665 H   0  0  0  0  0  0  0  0  0  0  0  0
  137.8981  158.4339  130.5086 H   0  0  0  0  0  0  0  0  0  0  0  0
  137.3684  158.4109  132.1905 H   0  0  0  0  0  0  0  0  0  0  0  0
  138.4276  160.6619  130.6022 H   0  0  0  0  0  0  0  0  0  0  0  0
  137.6866  160.7311  132.2064 H   0  0  0  0  0  0  0  0  0  0  0  0
  140.5540  160.6962  131.4551 H   0  0  0  0  0  0  0  0  0  0  0  0
  139.8239  161.0959  133.0357 H   0  0  0  0  0  0  0  0  0  0  0  0
  1  2  1  0
  2  3  2  0
  2  4  1  0
  4  5  2  0
  5  6  1  0
  6  7  2  0
  7  8  1  0
  8  9  2  0
  9 10  1  0
 10 11  1  0
 10 12  1  0
 10 13  1  0
  9 14  1  0
 14 15  2  0
 15 16  1  0
 16 17  1  0
 17 18  2  0
 17 19  1  0
 19 20  2  0
 19 21  1  0
 21 22  1  0
 22 23  1  0
 23 24  1  0
 24 25  1  0
 25 26  1  0
 26 27  1  0
 27 28  1  0
 16  4  1  0
 28 24  1  0
 15  6  1  0
  1 29  1  0
  5 30  1  0
  7 31  1  0
  8 32  1  0
 14 33  1  0
 22 34  1  0
 22 35  1  0
 23 36  1  0
 23 37  1  0
 25 38  1  0
 25 39  1  0
 26 40  1  0
 26 41  1  0
 27 42  1  0
 27 43  1  0
 28 44  1  0
 28 45  1  0
M  CHG  2   1  -1  21  -1
M  END
>  <UniqueID>  (69) 
68

>  <SMILES>  (69) 
[NH-]C(=O)c1cc2ccc(C(F)(F)F)cc2n1C(=O)C(=O)[N-]CCN1CCCC1

>  <Energy>  (69) 
89.45947920745823

>  <Genealogy>  (69) 
[NH-]C(=O)c1cc2ccc(C(F)(F)F)cc2n1C(=O)C(=O)[N-]CCN1CCCC1 (protonated)
[NH-]C(=O)c1cc2ccc(C(F)(F)F)cc2n1C(=O)C(=O)[N-]CCN1CCCC1 (3D coordinates assigned)
[NH-]C(=O)c1cc2ccc(C(F)(F)F)cc2n1C(=O)C(=O)[N-]CCN1CCCC1 (nonaromatic ring conformer: 89.45947920745823 kcal/mol)

>  <smiles>  (69) 
NC(=O)c1cc2ccc(C(F)(F)F)cc2n1C(=O)C(=O)NCCN1CCCC1

>  <score_type>  (69) 
oracle

>  <origin>  (69) 
adg

>  <m_score__min__energy>  (69) 
-7.6299999999999999

>  <m_primary>  (69) 
energy

$$$$
69:0
     RDKit          3D

 44 45  0  0  0  0  0  0  0  0999 V2000
  147.5230  151.4280  132.2500 C   0  0  0  0  0  0  0  0  0  0  0  0
  148.5440  152.4720  132.3880 N   0  0  0  0  0  0  0  0  0  0  0  0
  149.9650  152.1300  132.2700 C   0  0  0  0  0  0  0  0  0  0  0  0
  148.1730  153.8450  132.6430 C   0  0  0  0  0  0  0  0  0  0  0  0
  149.0710  154.7240  132.7640 O   0  0  0  0  0  0  0  0  0  0  0  0
  146.7360  154.2700  132.7850 C   0  0  0  0  0  0  0  0  0  0  0  0
  146.6050  155.6820  132.6370 O   0  0  0  0  0  0  0  0  0  0  0  0
  146.3140  156.5460  133.6960 C   0  0  0  0  0  0  0  0  0  0  0  0
  146.1240  156.0800  134.8530 O   0  0  0  0  0  0  0  0  0  0  0  0
  146.2590  157.9690  133.4760 N   0  0  0  0  0  0  0  0  0  0  0  0
  147.2890  158.7860  133.1150 C   0  0  0  0  0  0  0  0  0  0  0  0
  148.6560  158.3540  132.7880 C   0  0  0  0  0  0  0  0  0  0  0  0
  148.8920  157.0810  132.1860 N   0  0  0  0  0  0  0  0  0  0  0  0
  149.6200  159.1400  132.9800 O   0  0  0  0  0  0  0  0  0  0  0  0
  146.9050  160.1210  133.1580 C   0  0  0  0  0  0  0  0  0  0  0  0
  145.5830  160.1040  133.5340 C   0  0  0  0  0  0  0  0  0  0  0  0
  144.6960  161.1570  133.7180 C   0  0  0  0  0  0  0  0  0  0  0  0
  143.3790  160.8520  134.0980 C   0  0  0  0  0  0  0  0  0  0  0  0
  142.9600  159.5050  134.2830 C   0  0  0  0  0  0  0  0  0  0  0  0
  141.5910  159.2020  134.6620 N   0  0  0  0  0  0  0  0  0  0  0  0
  141.2240  159.0570  136.0760 C   0  0  0  0  0  0  0  0  0  0  0  0
  140.5520  159.0330  133.6390 C   0  0  0  0  0  0  0  0  0  0  0  0
  143.9040  158.4630  134.0840 C   0  0  0  0  0  0  0  0  0  0  0  0
  145.2140  158.7970  133.7200 C   0  0  0  0  0  0  0  0  0  0  0  0
  147.1995  151.0973  133.2480 H   0  0  0  0  0  0  0  0  0  0  0  0
  146.6598  151.8299  131.6993 H   0  0  0  0  0  0  0  0  0  0  0  0
  147.9440  150.5739  131.6993 H   0  0  0  0  0  0  0  0  0  0  0  0
  150.4015  152.0250  133.2742 H   0  0  0  0  0  0  0  0  0  0  0  0
  150.0696  151.1810  131.7236 H   0  0  0  0  0  0  0  0  0  0  0  0
  150.4899  152.9275  131.7236 H   0  0  0  0  0  0  0  0  0  0  0  0
  146.1346  153.7697  132.0117 H   0  0  0  0  0  0  0  0  0  0  0  0
  146.3841  153.9881  133.7884 H   0  0  0  0  0  0  0  0  0  0  0  0
  148.0930  156.4700  131.9080 H   0  0  0  0  0  0  0  0  0  0  0  0
  149.8650  156.7710  131.9720 H   0  0  0  0  0  0  0  0  0  0  0  0
  147.5258  161.0021  132.9383 H   0  0  0  0  0  0  0  0  0  0  0  0
  145.0158  162.1991  133.5704 H   0  0  0  0  0  0  0  0  0  0  0  0
  142.6589  161.6685  134.2553 H   0  0  0  0  0  0  0  0  0  0  0  0
  142.0614  159.3878  136.7079 H   0  0  0  0  0  0  0  0  0  0  0  0
  140.3378  159.6726  136.2898 H   0  0  0  0  0  0  0  0  0  0  0  0
  140.9978  158.0020  136.2898 H   0  0  0  0  0  0  0  0  0  0  0  0
  139.5791  158.8748  134.1272 H   0  0  0  0  0  0  0  0  0  0  0  0
  140.5050  159.9353  133.0116 H   0  0  0  0  0  0  0  0  0  0  0  0
  140.7934  158.1623  133.0116 H   0  0  0  0  0  0  0  0  0  0  0  0
  143.6108  157.4107  134.2137 H   0  0  0  0  0  0  0  0  0  0  0  0
  1  2  1  0
  2  3  1  0
  2  4  1  0
  4  5  2  0
  4  6  1  0
  6  7  1  0
  7  8  1  0
  8  9  2  0
  8 10  1  0
 10 11  1  0
 11 12  1  0
 12 13  1  0
 12 14  2  0
 11 15  2  0
 15 16  1  0
 16 17  2  0
 17 18  1  0
 18 19  2  0
 19 20  1  0
 20 21  1  0
 20 22  1  0
 19 23  1  0
 23 24  2  0
 24 10  1  0
 24 16  1  0
  1 25  1  0
  1 26  1  0
  1 27  1  0
  3 28  1  0
  3 29  1  0
  3 30  1  0
  6 31  1  0
  6 32  1  0
 13 33  1  0
 13 34  1  0
 15 35  1  0
 17 36  1  0
 18 37  1  0
 21 38  1  0
 21 39  1  0
 21 40  1  0
 22 41  1  0
 22 42  1  0
 22 43  1  0
 23 44  1  0
M  END
>  <UniqueID>  (70) 
69

>  <SMILES>  (70) 
CN(C)C(=O)COC(=O)n1c(C(N)=O)cc2ccc(N(C)C)cc21

>  <Energy>  (70) 
82.308459176227

>  <Genealogy>  (70) 
CN(C)C(=O)COC(=O)n1c(C(N)=O)cc2ccc(N(C)C)cc21 (3D coordinates assigned)
CN(C)C(=O)COC(=O)n1c(C(N)=O)cc2ccc(N(C)C)cc21 (optimized conformer: 82.308459176227 kcal/mol)

>  <smiles>  (70) 
CN(C)C(=O)COC(=O)n1c(C(N)=O)cc2ccc(N(C)C)cc21

>  <score_type>  (70) 
oracle

>  <origin>  (70) 
adg

>  <m_score__min__energy>  (70) 
-6.6299999999999999

>  <m_primary>  (70) 
energy

$$$$
70:0
     RDKit          3D

 30 31  0  0  0  0  0  0  0  0999 V2000
  150.0140  160.0850  129.9320 C   0  0  0  0  0  0  0  0  0  0  0  0
  149.6010  159.3880  131.1020 O   0  0  0  0  0  0  0  0  0  0  0  0
  148.3720  159.6260  131.7250 C   0  0  0  0  0  0  0  0  0  0  0  0
  147.5270  160.4000  131.1990 O   0  0  0  0  0  0  0  0  0  0  0  0
  148.0740  158.9770  133.0100 C   0  0  0  0  0  0  0  0  0  0  0  0
  148.8350  159.1710  133.9940 O   0  0  0  0  0  0  0  0  0  0  0  0
  146.9250  158.1280  133.1560 N   0  0  0  0  0  0  0  0  0  0  0  0
  145.6450  158.5000  133.4370 C   0  0  0  0  0  0  0  0  0  0  0  0
  145.1460  159.8880  133.5280 C   0  0  0  0  0  0  0  0  0  0  0  0
  146.0400  160.9800  133.7340 N   0  0  0  0  0  0  0  0  0  0  0  0
  143.9140  160.1190  133.3950 O   0  0  0  0  0  0  0  0  0  0  0  0
  144.8340  157.3770  133.5840 C   0  0  0  0  0  0  0  0  0  0  0  0
  145.6640  156.2960  133.3860 C   0  0  0  0  0  0  0  0  0  0  0  0
  145.3930  154.9330  133.4450 C   0  0  0  0  0  0  0  0  0  0  0  0
  146.4580  154.0400  133.2380 C   0  0  0  0  0  0  0  0  0  0  0  0
  147.7660  154.5190  132.9680 C   0  0  0  0  0  0  0  0  0  0  0  0
  148.9120  153.5520  132.8090 C   0  0  0  0  0  0  0  0  0  0  0  0
  150.0560  154.2140  132.4000 F   0  0  0  0  0  0  0  0  0  0  0  0
  149.1850  152.9170  134.0090 F   0  0  0  0  0  0  0  0  0  0  0  0
  148.5770  152.6030  131.8630 F   0  0  0  0  0  0  0  0  0  0  0  0
  148.0050  155.9130  132.9420 C   0  0  0  0  0  0  0  0  0  0  0  0
  146.9220  156.7770  133.1320 C   0  0  0  0  0  0  0  0  0  0  0  0
  150.5551  160.9981  130.2210 H   0  0  0  0  0  0  0  0  0  0  0  0
  150.6758  159.4400  129.3354 H   0  0  0  0  0  0  0  0  0  0  0  0
  149.1304  160.3557  129.3354 H   0  0  0  0  0  0  0  0  0  0  0  0
  146.7240  161.2600  132.9980 H   0  0  0  0  0  0  0  0  0  0  0  0
  143.7577  157.3577  133.8104 H   0  0  0  0  0  0  0  0  0  0  0  0
  144.3762  154.5654  133.6475 H   0  0  0  0  0  0  0  0  0  0  0  0
  146.2754  152.9563  133.2859 H   0  0  0  0  0  0  0  0  0  0  0  0
  149.0183  156.3078  132.7763 H   0  0  0  0  0  0  0  0  0  0  0  0
  1  2  1  0
  2  3  1  0
  3  4  2  0
  3  5  1  0
  5  6  2  0
  5  7  1  0
  7  8  1  0
  8  9  1  0
  9 10  1  0
  9 11  2  0
  8 12  2  0
 12 13  1  0
 13 14  2  0
 14 15  1  0
 15 16  2  0
 16 17  1  0
 17 18  1  0
 17 19  1  0
 17 20  1  0
 16 21  1  0
 21 22  2  0
 22  7  1  0
 22 13  1  0
  1 23  1  0
  1 24  1  0
  1 25  1  0
 10 26  1  0
 12 27  1  0
 14 28  1  0
 15 29  1  0
 21 30  1  0
M  CHG  1  10  -1
M  END
>  <UniqueID>  (71) 
70

>  <SMILES>  (71) 
COC(=O)C(=O)n1c(C([NH-])=O)cc2ccc(C(F)(F)F)cc21

>  <Energy>  (71) 
68.03084921254971

>  <Genealogy>  (71) 
COC(=O)C(=O)n1c(C([NH-])=O)cc2ccc(C(F)(F)F)cc21 (protonated)
COC(=O)C(=O)n1c(C([NH-])=O)cc2ccc(C(F)(F)F)cc21 (3D coordinates assigned)
COC(=O)C(=O)n1c(C([NH-])=O)cc2ccc(C(F)(F)F)cc21 (optimized conformer: 68.03084921254971 kcal/mol)

>  <smiles>  (71) 
COC(=O)C(=O)n1c(C(N)=O)cc2ccc(C(F)(F)F)cc21

>  <score_type>  (71) 
oracle

>  <origin>  (71) 
adg

>  <m_score__min__energy>  (71) 
-5.4100000000000001

>  <m_primary>  (71) 
energy

$$$$
71:0
     RDKit          3D

 37 39  0  0  0  0  0  0  0  0999 V2000
  140.1520  158.6880  133.3670 C   0  0  0  0  0  0  0  0  0  0  0  0
  141.3490  158.6270  132.6200 O   0  0  0  0  0  0  0  0  0  0  0  0
  142.2690  157.7510  133.2410 C   0  0  0  0  0  0  0  0  0  0  0  0
  143.0530  158.4820  134.2920 C   0  0  0  0  0  0  0  0  0  0  0  0
  142.5360  158.6840  135.4220 O   0  0  0  0  0  0  0  0  0  0  0  0
  144.3450  159.0280  133.9920 N   0  0  0  0  0  0  0  0  0  0  0  0
  144.6850  160.3330  133.8010 C   0  0  0  0  0  0  0  0  0  0  0  0
  143.7400  161.4670  133.7310 C   0  0  0  0  0  0  0  0  0  0  0  0
  142.3360  161.2240  133.7260 N   0  0  0  0  0  0  0  0  0  0  0  0
  144.1620  162.6540  133.7020 O   0  0  0  0  0  0  0  0  0  0  0  0
  146.0590  160.4540  133.6050 C   0  0  0  0  0  0  0  0  0  0  0  0
  146.5540  159.1720  133.6750 C   0  0  0  0  0  0  0  0  0  0  0  0
  147.8610  158.7040  133.5730 C   0  0  0  0  0  0  0  0  0  0  0  0
  148.0800  157.3230  133.7190 C   0  0  0  0  0  0  0  0  0  0  0  0
  146.9950  156.4420  133.9530 C   0  0  0  0  0  0  0  0  0  0  0  0
  147.2480  154.9740  134.1620 C   0  0  0  0  0  0  0  0  0  0  0  0
  147.3600  154.4640  135.5650 C   0  0  0  0  0  0  0  0  0  0  0  0
  148.0990  155.0570  136.3950 O   0  0  0  0  0  0  0  0  0  0  0  0
  146.6110  153.3660  135.9670 O   0  0  0  0  0  0  0  0  0  0  0  0
  148.1000  154.2660  133.1140 C   0  0  0  0  0  0  0  0  0  0  0  0
  146.5970  154.0250  133.1610 C   0  0  0  0  0  0  0  0  0  0  0  0
  145.6850  156.9530  134.0660 C   0  0  0  0  0  0  0  0  0  0  0  0
  145.4970  158.3290  133.9070 C   0  0  0  0  0  0  0  0  0  0  0  0
  140.3891  158.6759  134.4411 H   0  0  0  0  0  0  0  0  0  0  0  0
  139.6130  159.6148  133.1209 H   0  0  0  0  0  0  0  0  0  0  0  0
  139.5216  157.8208  133.1209 H   0  0  0  0  0  0  0  0  0  0  0  0
  141.7205  156.9203  133.7090 H   0  0  0  0  0  0  0  0  0  0  0  0
  142.9630  157.3622  132.4813 H   0  0  0  0  0  0  0  0  0  0  0  0
  141.9550  160.2750  133.9380 H   0  0  0  0  0  0  0  0  0  0  0  0
  146.6281  161.3791  133.4310 H   0  0  0  0  0  0  0  0  0  0  0  0
  148.6969  159.3936  133.3839 H   0  0  0  0  0  0  0  0  0  0  0  0
  149.1024  156.9229  133.6510 H   0  0  0  0  0  0  0  0  0  0  0  0
  148.5393  154.8389  132.2841 H   0  0  0  0  0  0  0  0  0  0  0  0
  148.9918  153.6227  133.1423 H   0  0  0  0  0  0  0  0  0  0  0  0
  145.9510  154.4239  132.3651 H   0  0  0  0  0  0  0  0  0  0  0  0
  145.9541  153.1357  133.2373 H   0  0  0  0  0  0  0  0  0  0  0  0
  144.8346  156.2868  134.2736 H   0  0  0  0  0  0  0  0  0  0  0  0
  1  2  1  0
  2  3  1  0
  3  4  1  0
  4  5  2  0
  4  6  1  0
  6  7  1  0
  7  8  1  0
  8  9  1  0
  8 10  2  0
  7 11  2  0
 11 12  1  0
 12 13  2  0
 13 14  1  0
 14 15  2  0
 15 16  1  0
 16 17  1  0
 17 18  2  0
 17 19  1  0
 16 20  1  0
 20 21  1  0
 15 22  1  0
 22 23  2  0
 23  6  1  0
 23 12  1  0
 21 16  1  0
  1 24  1  0
  1 25  1  0
  1 26  1  0
  3 27  1  0
  3 28  1  0
  9 29  1  0
 11 30  1  0
 13 31  1  0
 14 32  1  0
 20 33  1  0
 20 34  1  0
 21 35  1  0
 21 36  1  0
 22 37  1  0
M  CHG  2   9  -1  19  -1
M  END
>  <UniqueID>  (72) 
71

>  <SMILES>  (72) 
COCC(=O)n1c(C([NH-])=O)cc2ccc(C3(C(=O)[O-])CC3)cc21

>  <Energy>  (72) 
343.6373986939648

>  <Genealogy>  (72) 
COCC(=O)n1c(C([NH-])=O)cc2ccc(C3(C(=O)[O-])CC3)cc21 (protonated)
COCC(=O)n1c(C([NH-])=O)cc2ccc(C3(C(=O)[O-])CC3)cc21 (3D coordinates assigned)
COCC(=O)n1c(C([NH-])=O)cc2ccc(C3(C(=O)[O-])CC3)cc21 (nonaromatic ring conformer: 343.6373986939648 kcal/mol)

>  <smiles>  (72) 
COCC(=O)n1c(C(N)=O)cc2ccc(C3(C(=O)O)CC3)cc21

>  <score_type>  (72) 
oracle

>  <origin>  (72) 
adg

>  <m_score__min__energy>  (72) 
-6.6600000000000001

>  <m_primary>  (72) 
energy

$$$$
72:0
     RDKit          3D

 27 28  0  0  0  0  0  0  0  0999 V2000
  149.4060  158.9580  133.3100 N   0  0  0  0  0  0  0  0  0  0  0  0
  148.3450  159.7100  132.7160 C   0  0  0  0  0  0  0  0  0  0  0  0
  148.6240  160.5720  131.8410 O   0  0  0  0  0  0  0  0  0  0  0  0
  146.9350  159.4730  133.1020 C   0  0  0  0  0  0  0  0  0  0  0  0
  146.0070  160.4820  133.3610 C   0  0  0  0  0  0  0  0  0  0  0  0
  144.8510  159.8300  133.7260 C   0  0  0  0  0  0  0  0  0  0  0  0
  143.6060  160.3430  134.0800 C   0  0  0  0  0  0  0  0  0  0  0  0
  142.5800  159.4320  134.3830 C   0  0  0  0  0  0  0  0  0  0  0  0
  142.8100  158.0350  134.3090 C   0  0  0  0  0  0  0  0  0  0  0  0
  141.7140  157.0710  134.6570 C   0  0  0  0  0  0  0  0  0  0  0  0
  140.5060  157.0390  133.3480 Cl  0  0  0  0  0  0  0  0  0  0  0  0
  144.0890  157.5520  133.9570 C   0  0  0  0  0  0  0  0  0  0  0  0
  145.0970  158.4840  133.6820 C   0  0  0  0  0  0  0  0  0  0  0  0
  146.3730  158.2480  133.3100 N   0  0  0  0  0  0  0  0  0  0  0  0
  146.9800  156.9640  133.0950 C   0  0  0  0  0  0  0  0  0  0  0  0
  147.0360  156.4870  131.9300 O   0  0  0  0  0  0  0  0  0  0  0  0
  147.5550  156.2020  134.2100 C   0  0  0  0  0  0  0  0  0  0  0  0
  148.1140  156.7920  135.1720 O   0  0  0  0  0  0  0  0  0  0  0  0
  150.3920  159.1120  133.0010 H   0  0  0  0  0  0  0  0  0  0  0  0
  149.2300  158.2820  134.0850 H   0  0  0  0  0  0  0  0  0  0  0  0
  146.1655  161.5681  133.2888 H   0  0  0  0  0  0  0  0  0  0  0  0
  143.4309  161.4282  134.1212 H   0  0  0  0  0  0  0  0  0  0  0  0
  141.5893  159.8062  134.6803 H   0  0  0  0  0  0  0  0  0  0  0  0
  142.1393  156.0649  134.7869 H   0  0  0  0  0  0  0  0  0  0  0  0
  141.2304  157.3906  135.5918 H   0  0  0  0  0  0  0  0  0  0  0  0
  144.2884  156.4717  133.9003 H   0  0  0  0  0  0  0  0  0  0  0  0
  147.4970  155.1035  134.2053 H   0  0  0  0  0  0  0  0  0  0  0  0
  1  2  1  0
  2  3  2  0
  2  4  1  0
  4  5  2  0
  5  6  1  0
  6  7  2  0
  7  8  1  0
  8  9  2  0
  9 10  1  0
 10 11  1  0
  9 12  1  0
 12 13  2  0
 13 14  1  0
 14 15  1  0
 15 16  2  0
 15 17  1  0
 17 18  2  0
 14  4  1  0
 13  6  1  0
  1 19  1  0
  1 20  1  0
  5 21  1  0
  7 22  1  0
  8 23  1  0
 10 24  1  0
 10 25  1  0
 12 26  1  0
 17 27  1  0
M  END
>  <UniqueID>  (73) 
72

>  <SMILES>  (73) 
NC(=O)c1cc2ccc(CCl)cc2n1C(=O)C=O

>  <Energy>  (73) 
65.29377543182827

>  <Genealogy>  (73) 
NC(=O)c1cc2ccc(CCl)cc2n1C(=O)C=O (3D coordinates assigned)
NC(=O)c1cc2ccc(CCl)cc2n1C(=O)C=O (optimized conformer: 65.29377543182827 kcal/mol)

>  <smiles>  (73) 
NC(=O)c1cc2ccc(CCl)cc2n1C(=O)C=O

>  <score_type>  (73) 
oracle

>  <origin>  (73) 
adg

>  <m_score__min__energy>  (73) 
-6.1200000000000001

>  <m_primary>  (73) 
energy

$$$$
73:0
     RDKit          3D

 47 48  0  0  0  0  0  0  0  0999 V2000
  148.8560  155.0550  132.6030 C   0  0  0  0  0  0  0  0  0  0  0  0
  148.3050  156.4350  132.7940 C   0  0  0  0  0  0  0  0  0  0  0  0
  149.1060  157.5650  132.4980 C   0  0  0  0  0  0  0  0  0  0  0  0
  148.5920  158.8650  132.6450 C   0  0  0  0  0  0  0  0  0  0  0  0
  147.2730  159.0000  133.0680 C   0  0  0  0  0  0  0  0  0  0  0  0
  146.5310  160.1340  133.3140 C   0  0  0  0  0  0  0  0  0  0  0  0
  145.2790  159.6760  133.7220 C   0  0  0  0  0  0  0  0  0  0  0  0
  144.1480  160.5690  134.0540 C   0  0  0  0  0  0  0  0  0  0  0  0
  143.0800  160.0890  134.8670 N   0  0  0  0  0  0  0  0  0  0  0  0
  144.1180  161.7570  133.6360 O   0  0  0  0  0  0  0  0  0  0  0  0
  145.2470  158.3140  133.7200 N   0  0  0  0  0  0  0  0  0  0  0  0
  144.1570  157.4570  134.0930 C   0  0  0  0  0  0  0  0  0  0  0  0
  144.3130  156.6260  135.0270 O   0  0  0  0  0  0  0  0  0  0  0  0
  142.8580  157.5470  133.3890 C   0  0  0  0  0  0  0  0  0  0  0  0
  142.7990  157.1960  132.1770 O   0  0  0  0  0  0  0  0  0  0  0  0
  141.6780  158.0650  134.0530 N   0  0  2  0  0  0  0  0  0  0  0  0
  141.4650  157.3680  135.3460 C   0  0  0  0  0  0  0  0  0  0  0  0
  141.0030  158.3010  136.4340 C   0  0  0  0  0  0  0  0  0  0  0  0
  140.8210  159.4810  136.1850 O   0  0  0  0  0  0  0  0  0  0  0  0
  140.5040  158.0270  133.1410 C   0  0  0  0  0  0  0  0  0  0  0  0
  140.1880  159.3580  132.4850 C   0  0  0  0  0  0  0  0  0  0  0  0
  140.8480  160.3720  132.8450 O   0  0  0  0  0  0  0  0  0  0  0  0
  139.1590  159.5010  131.4810 N   0  0  0  0  0  0  0  0  0  0  0  0
  138.6640  158.3430  130.7280 C   0  0  0  0  0  0  0  0  0  0  0  0
  138.6600  160.8430  131.1690 C   0  0  0  0  0  0  0  0  0  0  0  0
  146.4760  157.9150  133.3250 C   0  0  0  0  0  0  0  0  0  0  0  0
  146.9660  156.6110  133.2070 C   0  0  0  0  0  0  0  0  0  0  0  0
  149.0399  154.5945  133.5849 H   0  0  0  0  0  0  0  0  0  0  0  0
  148.1322  154.4456  132.0419 H   0  0  0  0  0  0  0  0  0  0  0  0
  149.8005  155.1117  132.0419 H   0  0  0  0  0  0  0  0  0  0  0  0
  150.1399  157.4240  132.1499 H   0  0  0  0  0  0  0  0  0  0  0  0
  149.2128  159.7479  132.4324 H   0  0  0  0  0  0  0  0  0  0  0  0
  146.8571  161.1794  133.2105 H   0  0  0  0  0  0  0  0  0  0  0  0
  142.0850  160.2900  134.6220 H   0  0  0  0  0  0  0  0  0  0  0  0
  141.8550  159.0720  134.2840 H   0  0  0  0  0  0  0  0  0  0  0  0
  140.7039  156.5866  135.2045 H   0  0  0  0  0  0  0  0  0  0  0  0
  142.4293  156.9409  135.6586 H   0  0  0  0  0  0  0  0  0  0  0  0
  140.8301  157.9192  137.4510 H   0  0  0  0  0  0  0  0  0  0  0  0
  140.7050  157.2903  132.3492 H   0  0  0  0  0  0  0  0  0  0  0  0
  139.6319  157.7608  133.7563 H   0  0  0  0  0  0  0  0  0  0  0  0
  138.3311  157.5642  131.4299 H   0  0  0  0  0  0  0  0  0  0  0  0
  137.8190  158.6513  130.0948 H   0  0  0  0  0  0  0  0  0  0  0  0
  139.4708  157.9453  130.0948 H   0  0  0  0  0  0  0  0  0  0  0  0
  138.4582  161.3858  132.1043 H   0  0  0  0  0  0  0  0  0  0  0  0
  139.4155  161.3883  130.5843 H   0  0  0  0  0  0  0  0  0  0  0  0
  137.7318  160.7623  130.5843 H   0  0  0  0  0  0  0  0  0  0  0  0
  146.3255  155.7449  133.4300 H   0  0  0  0  0  0  0  0  0  0  0  0
  1  2  1  0
  2  3  2  0
  3  4  1  0
  4  5  2  0
  5  6  1  0
  6  7  2  0
  7  8  1  0
  8  9  1  0
  8 10  2  0
  7 11  1  0
 11 12  1  0
 12 13  2  0
 12 14  1  0
 14 15  2  0
 14 16  1  0
 16 17  1  0
 17 18  1  0
 18 19  2  0
 16 20  1  0
 20 21  1  0
 21 22  2  0
 21 23  1  0
 23 24  1  0
 23 25  1  0
 11 26  1  0
 26 27  2  0
 27  2  1  0
 26  5  1  0
  1 28  1  0
  1 29  1  0
  1 30  1  0
  3 31  1  0
  4 32  1  0
  6 33  1  0
  9 34  1  0
 16 35  1  1
 17 36  1  0
 17 37  1  0
 18 38  1  0
 20 39  1  0
 20 40  1  0
 24 41  1  0
 24 42  1  0
 24 43  1  0
 25 44  1  0
 25 45  1  0
 25 46  1  0
 27 47  1  0
M  CHG  2   9  -1  16   1
M  END
>  <UniqueID>  (74) 
73

>  <SMILES>  (74) 
Cc1ccc2cc(C([NH-])=O)n(C(=O)C(=O)[N@H+](CC=O)CC(=O)N(C)C)c2c1

>  <Energy>  (74) 
87.37100396349192

>  <Genealogy>  (74) 
Cc1ccc2cc(C([NH-])=O)n(C(=O)C(=O)[NH+](CC=O)CC(=O)N(C)C)c2c1 (protonated)
Cc1ccc2cc(C([NH-])=O)n(C(=O)C(=O)[N@H+](CC=O)CC(=O)N(C)C)c2c1 (chirality)
Cc1ccc2cc(C([NH-])=O)n(C(=O)C(=O)[N@H+](CC=O)CC(=O)N(C)C)c2c1 (3D coordinates assigned)
Cc1ccc2cc(C([NH-])=O)n(C(=O)C(=O)[N@H+](CC=O)CC(=O)N(C)C)c2c1 (optimized conformer: 87.37100396349192 kcal/mol)

>  <smiles>  (74) 
Cc1ccc2cc(C(N)=O)n(C(=O)C(=O)N(CC=O)CC(=O)N(C)C)c2c1

>  <score_type>  (74) 
oracle

>  <origin>  (74) 
adg

>  <m_score__min__energy>  (74) 
-6

>  <m_primary>  (74) 
energy

$$$$
74:0
     RDKit          3D

 45 47  0  0  0  0  0  0  0  0999 V2000
  146.8650  153.8970  133.8990 C   0  0  0  0  0  0  0  0  0  0  0  0
  145.5010  154.0240  133.3920 N   0  0  0  0  0  0  0  0  0  0  0  0
  144.6560  153.0020  133.1520 C   0  0  0  0  0  0  0  0  0  0  0  0
  143.4820  153.5170  132.6450 C   0  0  0  0  0  0  0  0  0  0  0  0
  143.5930  154.8550  132.5770 N   0  0  0  0  0  0  0  0  0  0  0  0
  144.8220  155.1450  133.0500 C   0  0  0  0  0  0  0  0  0  0  0  0
  145.3440  156.5270  133.1410 C   0  0  0  0  0  0  0  0  0  0  0  0
  146.6990  156.8150  132.8400 C   0  0  0  0  0  0  0  0  0  0  0  0
  147.1910  158.1290  132.9340 C   0  0  0  0  0  0  0  0  0  0  0  0
  146.3150  159.1250  133.3510 C   0  0  0  0  0  0  0  0  0  0  0  0
  146.5200  160.4770  133.5100 C   0  0  0  0  0  0  0  0  0  0  0  0
  145.2990  160.9880  133.9460 C   0  0  0  0  0  0  0  0  0  0  0  0
  145.0980  162.4020  134.3260 C   0  0  0  0  0  0  0  0  0  0  0  0
  144.0700  163.1850  133.7250 N   0  0  0  0  0  0  0  0  0  0  0  0
  145.8140  162.9120  135.2290 O   0  0  0  0  0  0  0  0  0  0  0  0
  144.3730  159.9920  134.0440 N   0  0  0  0  0  0  0  0  0  0  0  0
  142.9840  160.1060  134.3860 C   0  0  0  0  0  0  0  0  0  0  0  0
  142.2260  160.8280  133.6830 O   0  0  0  0  0  0  0  0  0  0  0  0
  142.4860  159.3870  135.4850 O   0  0  0  0  0  0  0  0  0  0  0  0
  141.4860  158.3590  135.4630 C   0  0  0  0  0  0  0  0  0  0  0  0
  140.2890  158.7820  136.3380 C   0  0  0  0  0  0  0  0  0  0  0  0
  142.0970  157.0270  135.9410 C   0  0  0  0  0  0  0  0  0  0  0  0
  141.0670  158.2380  134.0950 O   0  0  0  0  0  0  0  0  0  0  0  0
  141.4530  157.2450  133.1810 C   0  0  0  0  0  0  0  0  0  0  0  0
  142.1270  157.5190  132.1530 O   0  0  0  0  0  0  0  0  0  0  0  0
  141.0820  155.9290  133.4180 O   0  0  0  0  0  0  0  0  0  0  0  0
  145.0110  158.8580  133.6800 C   0  0  0  0  0  0  0  0  0  0  0  0
  144.4890  157.5640  133.5760 C   0  0  0  0  0  0  0  0  0  0  0  0
  146.8490  153.8985  134.9989 H   0  0  0  0  0  0  0  0  0  0  0  0
  147.3033  152.9542  133.5400 H   0  0  0  0  0  0  0  0  0  0  0  0
  147.4699  154.7427  133.5400 H   0  0  0  0  0  0  0  0  0  0  0  0
  144.8672  151.9373  133.3304 H   0  0  0  0  0  0  0  0  0  0  0  0
  142.6008  152.9305  132.3458 H   0  0  0  0  0  0  0  0  0  0  0  0
  142.8650  155.5260  132.2410 H   0  0  0  0  0  0  0  0  0  0  0  0
  147.3724  156.0024  132.5298 H   0  0  0  0  0  0  0  0  0  0  0  0
  148.2369  158.3618  132.6852 H   0  0  0  0  0  0  0  0  0  0  0  0
  147.4505  161.0356  133.3308 H   0  0  0  0  0  0  0  0  0  0  0  0
  143.1650  162.7540  133.4370 H   0  0  0  0  0  0  0  0  0  0  0  0
  140.5593  158.6865  137.4000 H   0  0  0  0  0  0  0  0  0  0  0  0
  140.0261  159.8275  136.1191 H   0  0  0  0  0  0  0  0  0  0  0  0
  139.4276  158.1338  136.1191 H   0  0  0  0  0  0  0  0  0  0  0  0
  142.1083  157.0025  137.0407 H   0  0  0  0  0  0  0  0  0  0  0  0
  141.4930  156.1895  135.5617 H   0  0  0  0  0  0  0  0  0  0  0  0
  143.1257  156.9385  135.5617 H   0  0  0  0  0  0  0  0  0  0  0  0
  143.4378  157.3590  133.8270 H   0  0  0  0  0  0  0  0  0  0  0  0
  1  2  1  0
  2  3  1  0
  3  4  2  0
  4  5  1  0
  5  6  2  0
  6  7  1  0
  7  8  2  0
  8  9  1  0
  9 10  2  0
 10 11  1  0
 11 12  2  0
 12 13  1  0
 13 14  1  0
 13 15  2  0
 12 16  1  0
 16 17  1  0
 17 18  2  0
 17 19  1  0
 19 20  1  0
 20 21  1  0
 20 22  1  0
 20 23  1  0
 23 24  1  0
 24 25  2  0
 24 26  1  0
 16 27  1  0
 27 28  2  0
  6  2  1  0
 28  7  1  0
 27 10  1  0
  1 29  1  0
  1 30  1  0
  1 31  1  0
  3 32  1  0
  4 33  1  0
  5 34  1  0
  8 35  1  0
  9 36  1  0
 11 37  1  0
 14 38  1  0
 21 39  1  0
 21 40  1  0
 21 41  1  0
 22 42  1  0
 22 43  1  0
 22 44  1  0
 28 45  1  0
M  CHG  3   5   1  14  -1  26  -1
M  END
>  <UniqueID>  (75) 
74

>  <SMILES>  (75) 
Cn1cc[nH+]c1-c1ccc2cc(C([NH-])=O)n(C(=O)OC(C)(C)OC(=O)[O-])c2c1

>  <Energy>  (75) 
120.15453030511952

>  <Genealogy>  (75) 
Cn1cc[nH+]c1-c1ccc2cc(C([NH-])=O)n(C(=O)OC(C)(C)OC(=O)[O-])c2c1 (protonated)
Cn1cc[nH+]c1-c1ccc2cc(C([NH-])=O)n(C(=O)OC(C)(C)OC(=O)[O-])c2c1 (3D coordinates assigned)
Cn1cc[nH+]c1-c1ccc2cc(C([NH-])=O)n(C(=O)OC(C)(C)OC(=O)[O-])c2c1 (optimized conformer: 120.15453030511952 kcal/mol)

>  <smiles>  (75) 
Cn1ccnc1-c1ccc2cc(C(N)=O)n(C(=O)OC(C)(C)OC(=O)O)c2c1

>  <score_type>  (75) 
oracle

>  <origin>  (75) 
adg

>  <m_score__min__energy>  (75) 
-6.5999999999999996

>  <m_primary>  (75) 
energy

$$$$
75:0
     RDKit          3D

 28 29  0  0  0  0  0  0  0  0999 V2000
  149.7510  160.3860  130.4870 N   0  0  0  0  0  0  0  0  0  0  0  0
  148.7640  160.3110  131.5130 C   0  0  0  0  0  0  0  0  0  0  0  0
  148.1940  161.3660  131.8970 O   0  0  0  0  0  0  0  0  0  0  0  0
  148.3720  159.0110  132.1000 C   0  0  0  0  0  0  0  0  0  0  0  0
  149.1570  157.8620  132.0180 C   0  0  0  0  0  0  0  0  0  0  0  0
  148.4770  156.9040  132.7350 C   0  0  0  0  0  0  0  0  0  0  0  0
  148.7870  155.5670  132.9610 C   0  0  0  0  0  0  0  0  0  0  0  0
  147.8780  154.7970  133.7070 C   0  0  0  0  0  0  0  0  0  0  0  0
  146.6860  155.3740  134.2190 C   0  0  0  0  0  0  0  0  0  0  0  0
  145.6900  154.5220  134.9620 C   0  0  0  0  0  0  0  0  0  0  0  0
  145.1690  153.5440  134.1330 F   0  0  0  0  0  0  0  0  0  0  0  0
  146.3190  153.9150  136.0330 F   0  0  0  0  0  0  0  0  0  0  0  0
  144.6410  155.2940  135.4330 F   0  0  0  0  0  0  0  0  0  0  0  0
  146.3970  156.7310  133.9440 C   0  0  0  0  0  0  0  0  0  0  0  0
  147.3300  157.4780  133.2170 C   0  0  0  0  0  0  0  0  0  0  0  0
  147.2510  158.7710  132.8370 N   0  0  0  0  0  0  0  0  0  0  0  0
  146.1580  159.6650  133.0930 C   0  0  0  0  0  0  0  0  0  0  0  0
  144.9900  159.3300  132.7580 O   0  0  0  0  0  0  0  0  0  0  0  0
  146.4010  160.9290  133.7310 N   0  0  0  0  0  0  0  0  0  0  0  0
  145.3690  161.8440  134.1230 C   0  0  0  0  0  0  0  0  0  0  0  0
  144.1530  161.5650  133.9530 O   0  0  0  0  0  0  0  0  0  0  0  0
  145.7140  163.0570  134.7060 O   0  0  0  0  0  0  0  0  0  0  0  0
  150.7620  160.4910  130.7210 H   0  0  0  0  0  0  0  0  0  0  0  0
  150.1161  157.7457  131.4920 H   0  0  0  0  0  0  0  0  0  0  0  0
  149.7149  155.1259  132.5680 H   0  0  0  0  0  0  0  0  0  0  0  0
  148.0927  153.7349  133.8964 H   0  0  0  0  0  0  0  0  0  0  0  0
  145.4599  157.1886  134.2939 H   0  0  0  0  0  0  0  0  0  0  0  0
  147.3910  161.2090  133.9090 H   0  0  0  0  0  0  0  0  0  0  0  0
  1  2  1  0
  2  3  2  0
  2  4  1  0
  4  5  2  0
  5  6  1  0
  6  7  2  0
  7  8  1  0
  8  9  2  0
  9 10  1  0
 10 11  1  0
 10 12  1  0
 10 13  1  0
  9 14  1  0
 14 15  2  0
 15 16  1  0
 16 17  1  0
 17 18  2  0
 17 19  1  0
 19 20  1  0
 20 21  2  0
 20 22  1  0
 16  4  1  0
 15  6  1  0
  1 23  1  0
  5 24  1  0
  7 25  1  0
  8 26  1  0
 14 27  1  0
 19 28  1  0
M  CHG  2   1  -1  22  -1
M  END
>  <UniqueID>  (76) 
75

>  <SMILES>  (76) 
[NH-]C(=O)c1cc2ccc(C(F)(F)F)cc2n1C(=O)NC(=O)[O-]

>  <Energy>  (76) 
68.4960035719047

>  <Genealogy>  (76) 
[NH-]C(=O)c1cc2ccc(C(F)(F)F)cc2n1C(=O)NC(=O)[O-] (protonated)
[NH-]C(=O)c1cc2ccc(C(F)(F)F)cc2n1C(=O)NC(=O)[O-] (3D coordinates assigned)
[NH-]C(=O)c1cc2ccc(C(F)(F)F)cc2n1C(=O)NC(=O)[O-] (optimized conformer: 68.4960035719047 kcal/mol)

>  <smiles>  (76) 
NC(=O)c1cc2ccc(C(F)(F)F)cc2n1C(=O)NC(=O)O

>  <score_type>  (76) 
oracle

>  <origin>  (76) 
adg

>  <m_score__min__energy>  (76) 
-6.3499999999999996

>  <m_primary>  (76) 
energy

$$$$
76:0
     RDKit          3D

 31 32  0  0  0  0  0  0  0  0999 V2000
  148.1010  160.4870  130.9100 C   0  0  0  0  0  0  0  0  0  0  0  0
  148.4520  159.5450  131.7920 C   0  0  0  0  0  0  0  0  0  0  0  0
  149.6190  158.6460  131.4810 C   0  0  0  0  0  0  0  0  0  0  0  0
  147.7390  159.4190  133.0870 C   0  0  0  0  0  0  0  0  0  0  0  0
  148.1160  160.0900  134.0870 O   0  0  0  0  0  0  0  0  0  0  0  0
  146.6100  158.5440  133.2200 N   0  0  0  0  0  0  0  0  0  0  0  0
  145.3140  158.8880  133.4630 C   0  0  0  0  0  0  0  0  0  0  0  0
  144.7940  160.2670  133.5530 C   0  0  0  0  0  0  0  0  0  0  0  0
  145.6760  161.3400  133.8740 N   0  0  0  0  0  0  0  0  0  0  0  0
  143.5720  160.5090  133.3650 O   0  0  0  0  0  0  0  0  0  0  0  0
  144.5210  157.7460  133.5740 C   0  0  0  0  0  0  0  0  0  0  0  0
  145.3810  156.6850  133.3970 C   0  0  0  0  0  0  0  0  0  0  0  0
  145.1390  155.3160  133.4330 C   0  0  0  0  0  0  0  0  0  0  0  0
  146.2280  154.4480  133.2460 C   0  0  0  0  0  0  0  0  0  0  0  0
  147.5330  154.9590  133.0190 C   0  0  0  0  0  0  0  0  0  0  0  0
  148.7030  154.0180  132.8790 C   0  0  0  0  0  0  0  0  0  0  0  0
  149.8620  154.7200  132.5940 F   0  0  0  0  0  0  0  0  0  0  0  0
  148.4830  153.1140  131.8540 F   0  0  0  0  0  0  0  0  0  0  0  0
  148.8740  153.3250  134.0620 F   0  0  0  0  0  0  0  0  0  0  0  0
  147.7420  156.3570  133.0180 C   0  0  0  0  0  0  0  0  0  0  0  0
  146.6350  157.1950  133.1880 C   0  0  0  0  0  0  0  0  0  0  0  0
  147.2505  161.1511  131.1238 H   0  0  0  0  0  0  0  0  0  0  0  0
  148.6628  160.5978  129.9708 H   0  0  0  0  0  0  0  0  0  0  0  0
  150.0729  158.2963  132.4200 H   0  0  0  0  0  0  0  0  0  0  0  0
  149.2702  157.7809  130.8979 H   0  0  0  0  0  0  0  0  0  0  0  0
  150.3665  159.2039  130.8979 H   0  0  0  0  0  0  0  0  0  0  0  0
  146.5780  161.4650  133.3620 H   0  0  0  0  0  0  0  0  0  0  0  0
  143.4382  157.7021  133.7629 H   0  0  0  0  0  0  0  0  0  0  0  0
  144.1252  154.9243  133.6028 H   0  0  0  0  0  0  0  0  0  0  0  0
  146.0676  153.3602  133.2758 H   0  0  0  0  0  0  0  0  0  0  0  0
  148.7507  156.7757  132.8867 H   0  0  0  0  0  0  0  0  0  0  0  0
  1  2  2  0
  2  3  1  0
  2  4  1  0
  4  5  2  0
  4  6  1  0
  6  7  1  0
  7  8  1  0
  8  9  1  0
  8 10  2  0
  7 11  2  0
 11 12  1  0
 12 13  2  0
 13 14  1  0
 14 15  2  0
 15 16  1  0
 16 17  1  0
 16 18  1  0
 16 19  1  0
 15 20  1  0
 20 21  2  0
 21  6  1  0
 21 12  1  0
  1 22  1  0
  1 23  1  0
  3 24  1  0
  3 25  1  0
  3 26  1  0
  9 27  1  0
 11 28  1  0
 13 29  1  0
 14 30  1  0
 20 31  1  0
M  CHG  1   9  -1
M  END
>  <UniqueID>  (77) 
76

>  <SMILES>  (77) 
C=C(C)C(=O)n1c(C([NH-])=O)cc2ccc(C(F)(F)F)cc21

>  <Energy>  (77) 
69.95111320842307

>  <Genealogy>  (77) 
C=C(C)C(=O)n1c(C([NH-])=O)cc2ccc(C(F)(F)F)cc21 (protonated)
C=C(C)C(=O)n1c(C([NH-])=O)cc2ccc(C(F)(F)F)cc21 (3D coordinates assigned)
C=C(C)C(=O)n1c(C([NH-])=O)cc2ccc(C(F)(F)F)cc21 (optimized conformer: 69.95111320842307 kcal/mol)

>  <smiles>  (77) 
C=C(C)C(=O)n1c(C(N)=O)cc2ccc(C(F)(F)F)cc21

>  <score_type>  (77) 
oracle

>  <origin>  (77) 
adg

>  <m_score__min__energy>  (77) 
-6.0099999999999998

>  <m_primary>  (77) 
energy

$$$$
77:0
     RDKit          3D

 51 54  0  0  0  0  0  0  0  0999 V2000
  148.9240  159.5860  131.9790 C   0  0  0  0  0  0  0  0  0  0  0  0
  147.8690  158.8100  132.2410 C   0  0  0  0  0  0  0  0  0  0  0  0
  147.1430  158.8850  133.5540 C   0  0  2  0  0  0  0  0  0  0  0  0
  147.0380  157.5710  134.1030 O   0  0  0  0  0  0  0  0  0  0  0  0
  147.6180  156.4400  133.5170 C   0  0  0  0  0  0  0  0  0  0  0  0
  148.8320  156.4560  133.1720 O   0  0  0  0  0  0  0  0  0  0  0  0
  146.8220  155.2640  133.2940 N   0  0  0  0  0  0  0  0  0  0  0  0
  147.2660  153.9840  133.1420 C   0  0  0  0  0  0  0  0  0  0  0  0
  148.6830  153.5750  133.0160 C   0  0  0  0  0  0  0  0  0  0  0  0
  149.5800  154.3010  132.1720 N   0  0  0  0  0  0  0  0  0  0  0  0
  149.1200  152.5980  133.6800 O   0  0  0  0  0  0  0  0  0  0  0  0
  146.1930  153.1060  133.0270 C   0  0  0  0  0  0  0  0  0  0  0  0
  145.0680  153.8930  133.1150 C   0  0  0  0  0  0  0  0  0  0  0  0
  143.7300  153.5390  133.0720 C   0  0  0  0  0  0  0  0  0  0  0  0
  142.7690  154.5520  133.2150 C   0  0  0  0  0  0  0  0  0  0  0  0
  143.1450  155.9200  133.4130 C   0  0  0  0  0  0  0  0  0  0  0  0
  142.1330  156.9730  133.5750 N   0  0  0  0  0  0  0  0  0  0  0  0
  140.7090  156.5790  133.3710 C   0  0  0  0  0  0  0  0  0  0  0  0
  139.6300  157.6690  133.4530 C   0  0  2  0  0  0  0  0  0  0  0  0
  139.8620  158.7900  132.4180 C   0  0  0  0  0  0  0  0  0  0  0  0
  140.8800  159.8440  132.8970 C   0  0  0  0  0  0  0  0  0  0  0  0
  141.5930  159.4440  134.2010 C   0  0  2  0  0  0  0  0  0  0  0  0
  142.6240  158.3270  133.9650 C   0  0  0  0  0  0  0  0  0  0  0  0
  140.5790  159.0240  135.2110 C   0  0  0  0  0  0  0  0  0  0  0  0
  140.6400  159.4020  136.4100 O   0  0  0  0  0  0  0  0  0  0  0  0
  139.5640  158.1880  134.7780 O   0  0  0  0  0  0  0  0  0  0  0  0
  144.5400  156.2210  133.4460 C   0  0  0  0  0  0  0  0  0  0  0  0
  145.4720  155.1880  133.2770 C   0  0  0  0  0  0  0  0  0  0  0  0
  145.7760  159.4690  133.3440 C   0  0  0  0  0  0  0  0  0  0  0  0
  145.0120  158.9900  132.4670 O   0  0  0  0  0  0  0  0  0  0  0  0
  145.3420  160.5290  134.1310 O   0  0  0  0  0  0  0  0  0  0  0  0
  149.4359  159.5090  131.0084 H   0  0  0  0  0  0  0  0  0  0  0  0
  149.2810  160.3021  132.7338 H   0  0  0  0  0  0  0  0  0  0  0  0
  147.5233  158.0985  131.4766 H   0  0  0  0  0  0  0  0  0  0  0  0
  147.6982  159.5292  134.2517 H   0  0  0  0  0  0  0  0  0  0  0  0
  149.2430  155.0820  131.5690 H   0  0  0  0  0  0  0  0  0  0  0  0
  150.5860  154.0270  132.1200 H   0  0  0  0  0  0  0  0  0  0  0  0
  146.2351  152.0149  132.8940 H   0  0  0  0  0  0  0  0  0  0  0  0
  143.4280  152.4909  132.9295 H   0  0  0  0  0  0  0  0  0  0  0  0
  141.7017  154.2891  133.1740 H   0  0  0  0  0  0  0  0  0  0  0  0
  140.6373  156.1251  132.3716 H   0  0  0  0  0  0  0  0  0  0  0  0
  140.4879  155.9156  134.2202 H   0  0  0  0  0  0  0  0  0  0  0  0
  138.6609  157.2112  133.2054 H   0  0  0  0  0  0  0  0  0  0  0  0
  140.2360  158.3375  131.4877 H   0  0  0  0  0  0  0  0  0  0  0  0
  138.9012  159.3032  132.2647 H   0  0  0  0  0  0  0  0  0  0  0  0
  141.6376  159.9816  132.1115 H   0  0  0  0  0  0  0  0  0  0  0  0
  140.3231  160.7710  133.0981 H   0  0  0  0  0  0  0  0  0  0  0  0
  142.1451  160.3172  134.5788 H   0  0  0  0  0  0  0  0  0  0  0  0
  143.2971  158.6705  133.1657 H   0  0  0  0  0  0  0  0  0  0  0  0
  143.0825  158.1719  134.9528 H   0  0  0  0  0  0  0  0  0  0  0  0
  144.8806  157.2551  133.6028 H   0  0  0  0  0  0  0  0  0  0  0  0
  1  2  2  0
  2  3  1  0
  3  4  1  0
  4  5  1  0
  5  6  2  0
  5  7  1  0
  7  8  1  0
  8  9  1  0
  9 10  1  0
  9 11  2  0
  8 12  2  0
 12 13  1  0
 13 14  2  0
 14 15  1  0
 15 16  2  0
 16 17  1  0
 17 18  1  0
 18 19  1  0
 19 20  1  0
 20 21  1  0
 21 22  1  0
 22 23  1  0
 22 24  1  0
 24 25  2  0
 24 26  1  0
 16 27  1  0
 27 28  2  0
  3 29  1  0
 29 30  2  0
 29 31  1  0
 28  7  1  0
 28 13  1  0
 23 17  1  0
 26 19  1  0
  1 32  1  0
  1 33  1  0
  2 34  1  0
  3 35  1  1
 10 36  1  0
 10 37  1  0
 12 38  1  0
 14 39  1  0
 15 40  1  0
 18 41  1  0
 18 42  1  0
 19 43  1  6
 20 44  1  0
 20 45  1  0
 21 46  1  0
 21 47  1  0
 22 48  1  1
 23 49  1  0
 23 50  1  0
 27 51  1  0
M  CHG  1  31  -1
M  END
>  <UniqueID>  (78) 
77

>  <SMILES>  (78) 
C=C[C@H](OC(=O)n1c(C(N)=O)cc2ccc(N3CC4CC[C@@H](C3)OC4=O)cc21)C(=O)[O-]

>  <Energy>  (78) 
107.38820904849217

>  <Genealogy>  (78) 
C=CC(OC(=O)n1c(C(N)=O)cc2ccc(N3CC4CCC(C3)C(=O)O4)cc21)C(=O)[O-] (protonated)
C=C[C@H](OC(=O)n1c(C(N)=O)cc2ccc(N3CC4CC[C@@H](C3)OC4=O)cc21)C(=O)[O-] (chirality)
C=C[C@H](OC(=O)n1c(C(N)=O)cc2ccc(N3CC4CC[C@@H](C3)OC4=O)cc21)C(=O)[O-] (3D coordinates assigned)
C=C[C@H](OC(=O)n1c(C(N)=O)cc2ccc(N3CC4CC[C@@H](C3)OC4=O)cc21)C(=O)[O-] (nonaromatic ring conformer: 107.38820904849217 kcal/mol)

>  <smiles>  (78) 
C=CC(OC(=O)n1c(C(N)=O)cc2ccc(N3CC4CCC(C3)C(=O)O4)cc21)C(=O)O

>  <score_type>  (78) 
oracle

>  <origin>  (78) 
adg

>  <m_score__min__energy>  (78) 
-7.4699999999999998

>  <m_primary>  (78) 
energy

$$$$
78:0
     RDKit          3D

 38 39  0  0  0  0  0  0  0  0999 V2000
  139.3070  157.4690  133.5000 C   0  0  0  0  0  0  0  0  0  0  0  0
  140.5020  158.3040  133.3070 N   0  0  0  0  0  0  0  0  0  0  0  0
  140.7330  158.5600  131.8760 C   0  0  0  0  0  0  0  0  0  0  0  0
  141.6550  157.6580  133.8940 C   0  0  0  0  0  0  0  0  0  0  0  0
  141.5230  156.9580  134.9380 O   0  0  0  0  0  0  0  0  0  0  0  0
  143.0060  157.8250  133.3160 C   0  0  0  0  0  0  0  0  0  0  0  0
  143.5060  156.9120  132.6040 O   0  0  0  0  0  0  0  0  0  0  0  0
  143.7570  159.0240  133.5600 N   0  0  0  0  0  0  0  0  0  0  0  0
  143.2830  160.2450  133.9340 C   0  0  0  0  0  0  0  0  0  0  0  0
  141.8740  160.5660  134.2460 C   0  0  0  0  0  0  0  0  0  0  0  0
  141.2810  160.0690  135.4440 N   0  0  0  0  0  0  0  0  0  0  0  0
  141.1800  161.2580  133.4570 O   0  0  0  0  0  0  0  0  0  0  0  0
  144.3290  161.1600  134.0460 C   0  0  0  0  0  0  0  0  0  0  0  0
  145.4680  160.4540  133.7240 C   0  0  0  0  0  0  0  0  0  0  0  0
  146.7970  160.8640  133.6760 C   0  0  0  0  0  0  0  0  0  0  0  0
  147.7660  159.9180  133.3000 C   0  0  0  0  0  0  0  0  0  0  0  0
  147.3880  158.5930  132.9630 C   0  0  0  0  0  0  0  0  0  0  0  0
  148.4280  157.5780  132.5860 C   0  0  0  0  0  0  0  0  0  0  0  0
  147.7090  155.9110  132.6380 P   0  0  0  0  0  0  0  0  0  0  0  0
  148.4260  154.7980  133.3670 O   0  0  0  0  0  0  0  0  0  0  0  0
  146.2410  155.6020  131.8560 O   0  0  0  0  0  0  0  0  0  0  0  0
  146.0300  158.2140  133.0260 C   0  0  0  0  0  0  0  0  0  0  0  0
  145.0920  159.1700  133.4290 C   0  0  0  0  0  0  0  0  0  0  0  0
  139.1206  157.3388  134.5762 H   0  0  0  0  0  0  0  0  0  0  0  0
  138.4388  157.9580  133.0341 H   0  0  0  0  0  0  0  0  0  0  0  0
  139.4677  156.4856  133.0341 H   0  0  0  0  0  0  0  0  0  0  0  0
  140.3310  159.2280  133.7670 H   0  0  0  0  0  0  0  0  0  0  0  0
  141.4660  159.3723  131.7625 H   0  0  0  0  0  0  0  0  0  0  0  0
  141.1196  157.6478  131.3981 H   0  0  0  0  0  0  0  0  0  0  0  0
  139.7860  158.8512  131.3981 H   0  0  0  0  0  0  0  0  0  0  0  0
  141.1290  159.0460  135.5840 H   0  0  0  0  0  0  0  0  0  0  0  0
  144.2598  162.2202  134.3309 H   0  0  0  0  0  0  0  0  0  0  0  0
  147.0805  161.8973  133.9248 H   0  0  0  0  0  0  0  0  0  0  0  0
  148.8267  160.2076  133.2668 H   0  0  0  0  0  0  0  0  0  0  0  0
  148.7908  157.7875  131.5689 H   0  0  0  0  0  0  0  0  0  0  0  0
  149.2651  157.6346  133.2974 H   0  0  0  0  0  0  0  0  0  0  0  0
  145.6330  156.3150  132.1780 H   0  0  0  0  0  0  0  0  0  0  0  0
  145.7171  157.1923  132.7647 H   0  0  0  0  0  0  0  0  0  0  0  0
  1  2  1  0
  2  3  1  0
  2  4  1  0
  4  5  2  0
  4  6  1  0
  6  7  2  0
  6  8  1  0
  8  9  1  0
  9 10  1  0
 10 11  1  0
 10 12  2  0
  9 13  2  0
 13 14  1  0
 14 15  2  0
 15 16  1  0
 16 17  2  0
 17 18  1  0
 18 19  1  0
 19 20  2  0
 19 21  1  0
 17 22  1  0
 22 23  2  0
 23  8  1  0
 23 14  1  0
  1 24  1  0
  1 25  1  0
  1 26  1  0
  2 27  1  0
  3 28  1  0
  3 29  1  0
  3 30  1  0
 11 31  1  0
 13 32  1  0
 15 33  1  0
 16 34  1  0
 18 35  1  0
 18 36  1  0
 21 37  1  0
 22 38  1  0
M  CHG  3   2   1  11  -1  19   1
M  END
>  <UniqueID>  (79) 
78

>  <SMILES>  (79) 
C[NH+](C)C(=O)C(=O)n1c(C([NH-])=O)cc2ccc(C[P+](=O)O)cc21

>  <Energy>  (79) 
95.5312932376196

>  <Genealogy>  (79) 
C[NH+](C)C(=O)C(=O)n1c(C([NH-])=O)cc2ccc(C[P+](=O)O)cc21 (protonated)
C[NH+](C)C(=O)C(=O)n1c(C([NH-])=O)cc2ccc(C[P+](=O)O)cc21 (chirality)
C[NH+](C)C(=O)C(=O)n1c(C([NH-])=O)cc2ccc(C[P+](=O)O)cc21 (3D coordinates assigned)
C[NH+](C)C(=O)C(=O)n1c(C([NH-])=O)cc2ccc(C[P+](=O)O)cc21 (optimized conformer: 95.5312932376196 kcal/mol)

>  <smiles>  (79) 
CN(C)C(=O)C(=O)n1c(C(N)=O)cc2ccc(C[P+](=O)O)cc21

>  <score_type>  (79) 
oracle

>  <origin>  (79) 
adg

>  <m_score__min__energy>  (79) 
-6.2599999999999998

>  <m_primary>  (79) 
energy

$$$$
79:0
     RDKit          3D

 45 46  0  0  0  0  0  0  0  0999 V2000
  147.4920  154.7470  134.8290 C   0  0  0  0  0  0  0  0  0  0  0  0
  146.5480  154.2070  135.8490 C   0  0  0  0  0  0  0  0  0  0  0  0
  145.3950  154.7070  135.9660 O   0  0  0  0  0  0  0  0  0  0  0  0
  146.9760  153.1620  136.7250 N   0  0  0  0  0  0  0  0  0  0  0  0
  148.0090  153.3480  137.7350 C   0  0  0  0  0  0  0  0  0  0  0  0
  147.4640  153.0340  139.1320 C   0  0  0  0  0  0  0  0  0  0  0  0
  146.1630  152.2150  139.0970 C   0  0  0  0  0  0  0  0  0  0  0  0
  145.0500  152.9840  138.5410 N   0  0  0  0  0  0  0  0  0  0  0  0
  143.6890  152.6570  138.8500 C   0  0  0  0  0  0  0  0  0  0  0  0
  143.4230  151.6460  139.5550 O   0  0  0  0  0  0  0  0  0  0  0  0
  142.5650  153.5060  138.3290 C   0  0  0  0  0  0  0  0  0  0  0  0
  143.0680  154.4830  137.3630 N   0  0  0  0  0  0  0  0  0  0  0  0
  142.3260  154.9540  136.2200 C   0  0  0  0  0  0  0  0  0  0  0  0
  142.0860  154.0640  135.1440 C   0  0  0  0  0  0  0  0  0  0  0  0
  141.3700  154.4810  134.0090 C   0  0  0  0  0  0  0  0  0  0  0  0
  140.8990  155.7890  133.9790 C   0  0  0  0  0  0  0  0  0  0  0  0
  140.2020  156.4550  132.9990 C   0  0  0  0  0  0  0  0  0  0  0  0
  140.0020  157.7410  133.4970 C   0  0  0  0  0  0  0  0  0  0  0  0
  139.2110  158.7710  132.7910 C   0  0  0  0  0  0  0  0  0  0  0  0
  139.7920  160.0180  132.4200 N   0  0  0  0  0  0  0  0  0  0  0  0
  137.9900  158.5650  132.5560 O   0  0  0  0  0  0  0  0  0  0  0  0
  140.5640  157.8670  134.7330 N   0  0  0  0  0  0  0  0  0  0  0  0
  140.6460  159.0470  135.5500 C   0  0  0  0  0  0  0  0  0  0  0  0
  141.1190  160.1150  135.0800 O   0  0  0  0  0  0  0  0  0  0  0  0
  140.2270  159.0140  136.8750 O   0  0  0  0  0  0  0  0  0  0  0  0
  141.1070  156.6620  135.0140 C   0  0  0  0  0  0  0  0  0  0  0  0
  141.8370  156.2820  136.1460 C   0  0  0  0  0  0  0  0  0  0  0  0
  148.3400  155.2321  135.3346 H   0  0  0  0  0  0  0  0  0  0  0  0
  147.8622  153.9240  134.1999 H   0  0  0  0  0  0  0  0  0  0  0  0
  146.9703  155.4833  134.1999 H   0  0  0  0  0  0  0  0  0  0  0  0
  148.8522  152.6760  137.5170 H   0  0  0  0  0  0  0  0  0  0  0  0
  148.3406  154.3966  137.7125 H   0  0  0  0  0  0  0  0  0  0  0  0
  148.2239  152.4621  139.6848 H   0  0  0  0  0  0  0  0  0  0  0  0
  147.2372  153.9929  139.6209 H   0  0  0  0  0  0  0  0  0  0  0  0
  146.3223  151.3205  138.4769 H   0  0  0  0  0  0  0  0  0  0  0  0
  145.9051  151.9399  140.1303 H   0  0  0  0  0  0  0  0  0  0  0  0
  145.2390  153.8170  137.9370 H   0  0  0  0  0  0  0  0  0  0  0  0
  141.8213  152.8610  137.8381 H   0  0  0  0  0  0  0  0  0  0  0  0
  142.1036  154.0425  139.1712 H   0  0  0  0  0  0  0  0  0  0  0  0
  144.0390  154.8410  137.5080 H   0  0  0  0  0  0  0  0  0  0  0  0
  142.4652  153.0328  135.1978 H   0  0  0  0  0  0  0  0  0  0  0  0
  141.1877  153.7936  133.1698 H   0  0  0  0  0  0  0  0  0  0  0  0
  139.8722  156.0572  132.0279 H   0  0  0  0  0  0  0  0  0  0  0  0
  140.4490  160.5160  133.0590 H   0  0  0  0  0  0  0  0  0  0  0  0
  142.0268  156.9977  136.9595 H   0  0  0  0  0  0  0  0  0  0  0  0
  1  2  1  0
  2  3  2  0
  2  4  1  0
  4  5  1  0
  5  6  1  0
  6  7  1  0
  7  8  1  0
  8  9  1  0
  9 10  2  0
  9 11  1  0
 11 12  1  0
 12 13  1  0
 13 14  2  0
 14 15  1  0
 15 16  2  0
 16 17  1  0
 17 18  2  0
 18 19  1  0
 19 20  1  0
 19 21  2  0
 18 22  1  0
 22 23  1  0
 23 24  2  0
 23 25  1  0
 22 26  1  0
 26 27  2  0
 27 13  1  0
 26 16  1  0
  1 28  1  0
  1 29  1  0
  1 30  1  0
  5 31  1  0
  5 32  1  0
  6 33  1  0
  6 34  1  0
  7 35  1  0
  7 36  1  0
  8 37  1  0
 11 38  1  0
 11 39  1  0
 12 40  1  0
 14 41  1  0
 15 42  1  0
 17 43  1  0
 20 44  1  0
 27 45  1  0
M  CHG  3   4  -1  20  -1  25  -1
M  END
>  <UniqueID>  (80) 
79

>  <SMILES>  (80) 
CC(=O)[N-]CCCNC(=O)CNc1ccc2cc(C([NH-])=O)n(C(=O)[O-])c2c1

>  <Energy>  (80) 
73.1066364154156

>  <Genealogy>  (80) 
CC(=O)[N-]CCCNC(=O)CNc1ccc2cc(C([NH-])=O)n(C(=O)[O-])c2c1 (protonated)
CC(=O)[N-]CCCNC(=O)CNc1ccc2cc(C([NH-])=O)n(C(=O)[O-])c2c1 (3D coordinates assigned)
CC(=O)[N-]CCCNC(=O)CNc1ccc2cc(C([NH-])=O)n(C(=O)[O-])c2c1 (optimized conformer: 73.1066364154156 kcal/mol)

>  <smiles>  (80) 
CC(=O)NCCCNC(=O)CNc1ccc2cc(C(N)=O)n(C(=O)O)c2c1

>  <score_type>  (80) 
oracle

>  <origin>  (80) 
adg

>  <m_score__min__energy>  (80) 
-7.0999999999999996

>  <m_primary>  (80) 
energy

$$$$
80:0
     RDKit          3D

 48 49  0  0  0  0  0  0  0  0999 V2000
  148.3270  154.1960  132.6080 C   0  0  0  0  0  0  0  0  0  0  0  0
  147.1020  154.7640  133.1830 N   0  0  0  0  0  0  0  0  0  0  0  0
  146.0390  153.8390  133.6060 C   0  0  0  0  0  0  0  0  0  0  0  0
  145.2620  153.3190  132.3910 C   0  0  0  0  0  0  0  0  0  0  0  0
  144.3930  154.3990  131.8230 C   0  0  0  0  0  0  0  0  0  0  0  0
  143.3760  155.0020  132.6240 N   0  0  0  0  0  0  0  0  0  0  0  0
  144.5340  154.7520  130.6220 O   0  0  0  0  0  0  0  0  0  0  0  0
  146.9460  156.2030  133.2990 C   0  0  0  0  0  0  0  0  0  0  0  0
  148.0830  157.0620  133.3440 C   0  0  0  0  0  0  0  0  0  0  0  0
  147.9360  158.4530  133.4620 C   0  0  0  0  0  0  0  0  0  0  0  0
  146.6490  158.9720  133.5270 C   0  0  0  0  0  0  0  0  0  0  0  0
  146.2260  160.2750  133.6620 C   0  0  0  0  0  0  0  0  0  0  0  0
  144.8340  160.2110  133.6810 C   0  0  0  0  0  0  0  0  0  0  0  0
  143.9640  161.4050  133.7250 C   0  0  0  0  0  0  0  0  0  0  0  0
  142.5480  161.2520  133.6700 N   0  0  0  0  0  0  0  0  0  0  0  0
  144.4550  162.5580  133.8480 O   0  0  0  0  0  0  0  0  0  0  0  0
  144.4150  158.9180  133.5710 N   0  0  0  0  0  0  0  0  0  0  0  0
  143.0690  158.4180  133.6120 C   0  0  0  0  0  0  0  0  0  0  0  0
  142.5640  157.8890  132.5860 O   0  0  0  0  0  0  0  0  0  0  0  0
  142.3150  158.5630  134.7870 O   0  0  0  0  0  0  0  0  0  0  0  0
  141.4380  157.5740  135.3420 C   0  0  0  0  0  0  0  0  0  0  0  0
  140.0350  157.8340  134.7780 C   0  0  0  0  0  0  0  0  0  0  0  0
  141.4000  157.7130  136.8770 C   0  0  0  0  0  0  0  0  0  0  0  0
  141.8710  156.1880  134.9180 C   0  0  0  0  0  0  0  0  0  0  0  0
  142.7510  155.5620  135.5660 O   0  0  0  0  0  0  0  0  0  0  0  0
  141.2380  155.5590  133.8520 O   0  0  0  0  0  0  0  0  0  0  0  0
  145.5390  158.1730  133.4740 C   0  0  0  0  0  0  0  0  0  0  0  0
  145.6530  156.7820  133.3780 C   0  0  0  0  0  0  0  0  0  0  0  0
  149.0017  153.8832  133.4185 H   0  0  0  0  0  0  0  0  0  0  0  0
  148.0709  153.3247  131.9873 H   0  0  0  0  0  0  0  0  0  0  0  0
  148.8266  154.9544  131.9873 H   0  0  0  0  0  0  0  0  0  0  0  0
  146.4903  152.9884  134.1377 H   0  0  0  0  0  0  0  0  0  0  0  0
  145.3441  154.3760  134.2683 H   0  0  0  0  0  0  0  0  0  0  0  0
  145.9739  152.9850  131.6218 H   0  0  0  0  0  0  0  0  0  0  0  0
  144.6254  152.4799  132.7081 H   0  0  0  0  0  0  0  0  0  0  0  0
  142.7620  155.7460  132.2240 H   0  0  0  0  0  0  0  0  0  0  0  0
  143.2340  154.7050  133.6150 H   0  0  0  0  0  0  0  0  0  0  0  0
  149.0919  156.6276  133.2853 H   0  0  0  0  0  0  0  0  0  0  0  0
  148.8149  159.1133  133.5019 H   0  0  0  0  0  0  0  0  0  0  0  0
  146.8533  161.1753  133.7386 H   0  0  0  0  0  0  0  0  0  0  0  0
  142.1150  160.3150  133.5200 H   0  0  0  0  0  0  0  0  0  0  0  0
  139.3249  157.9656  135.6077 H   0  0  0  0  0  0  0  0  0  0  0  0
  140.0508  158.7445  134.1610 H   0  0  0  0  0  0  0  0  0  0  0  0
  139.7235  156.9783  134.1610 H   0  0  0  0  0  0  0  0  0  0  0  0
  141.6633  156.7501  137.3390 H   0  0  0  0  0  0  0  0  0  0  0  0
  142.1211  158.4810  137.1936 H   0  0  0  0  0  0  0  0  0  0  0  0
  140.3884  158.0071  137.1936 H   0  0  0  0  0  0  0  0  0  0  0  0
  144.7547  156.1473  133.3640 H   0  0  0  0  0  0  0  0  0  0  0  0
  1  2  1  0
  2  3  1  0
  3  4  1  0
  4  5  1  0
  5  6  1  0
  5  7  2  0
  2  8  1  0
  8  9  2  0
  9 10  1  0
 10 11  2  0
 11 12  1  0
 12 13  2  0
 13 14  1  0
 14 15  1  0
 14 16  2  0
 13 17  1  0
 17 18  1  0
 18 19  2  0
 18 20  1  0
 20 21  1  0
 21 22  1  0
 21 23  1  0
 21 24  1  0
 24 25  2  0
 24 26  1  0
 17 27  1  0
 27 28  2  0
 28  8  1  0
 27 11  1  0
  1 29  1  0
  1 30  1  0
  1 31  1  0
  3 32  1  0
  3 33  1  0
  4 34  1  0
  4 35  1  0
  6 36  1  0
  6 37  1  0
  9 38  1  0
 10 39  1  0
 12 40  1  0
 15 41  1  0
 22 42  1  0
 22 43  1  0
 22 44  1  0
 23 45  1  0
 23 46  1  0
 23 47  1  0
 28 48  1  0
M  CHG  2  15  -1  26  -1
M  END
>  <UniqueID>  (81) 
80

>  <SMILES>  (81) 
CN(CCC(N)=O)c1ccc2cc(C([NH-])=O)n(C(=O)OC(C)(C)C(=O)[O-])c2c1

>  <Energy>  (81) 
80.48353430551

>  <Genealogy>  (81) 
CN(CCC(N)=O)c1ccc2cc(C([NH-])=O)n(C(=O)OC(C)(C)C(=O)[O-])c2c1 (protonated)
CN(CCC(N)=O)c1ccc2cc(C([NH-])=O)n(C(=O)OC(C)(C)C(=O)[O-])c2c1 (3D coordinates assigned)
CN(CCC(N)=O)c1ccc2cc(C([NH-])=O)n(C(=O)OC(C)(C)C(=O)[O-])c2c1 (optimized conformer: 80.48353430551 kcal/mol)

>  <smiles>  (81) 
CN(CCC(N)=O)c1ccc2cc(C(N)=O)n(C(=O)OC(C)(C)C(=O)O)c2c1

>  <score_type>  (81) 
oracle

>  <origin>  (81) 
adg

>  <m_score__min__energy>  (81) 
-6.46

>  <m_primary>  (81) 
energy

$$$$
81:0
     RDKit          3D

 32 33  0  0  0  0  0  0  0  0999 V2000
  149.2520  153.8940  132.4710 C   0  0  0  0  0  0  0  0  0  0  0  0
  148.8320  155.0170  132.6040 C   0  0  0  0  0  0  0  0  0  0  0  0
  148.3310  156.3560  132.7630 C   0  0  0  0  0  0  0  0  0  0  0  0
  149.2170  157.4550  132.6740 C   0  0  0  0  0  0  0  0  0  0  0  0
  148.7380  158.7700  132.8160 C   0  0  0  0  0  0  0  0  0  0  0  0
  147.3770  158.9450  133.0530 C   0  0  0  0  0  0  0  0  0  0  0  0
  146.6430  160.1010  133.2000 C   0  0  0  0  0  0  0  0  0  0  0  0
  145.3270  159.6820  133.3950 C   0  0  0  0  0  0  0  0  0  0  0  0
  144.2010  160.6070  133.6400 C   0  0  0  0  0  0  0  0  0  0  0  0
  142.8570  160.2170  133.3700 N   0  0  0  0  0  0  0  0  0  0  0  0
  144.4250  161.7500  134.1200 O   0  0  0  0  0  0  0  0  0  0  0  0
  145.2530  158.3210  133.3720 N   0  0  0  0  0  0  0  0  0  0  0  0
  144.0750  157.5050  133.4590 C   0  0  0  0  0  0  0  0  0  0  0  0
  143.2130  157.5550  132.5420 O   0  0  0  0  0  0  0  0  0  0  0  0
  143.8610  156.6130  134.6060 C   0  0  0  0  0  0  0  0  0  0  0  0
  142.6890  156.3730  135.0080 O   0  0  0  0  0  0  0  0  0  0  0  0
  144.9610  156.0240  135.2360 O   0  0  0  0  0  0  0  0  0  0  0  0
  145.0040  154.6420  135.5700 C   0  0  0  0  0  0  0  0  0  0  0  0
  146.7320  154.0950  135.6290 P   0  0  0  0  0  0  0  0  0  0  0  0
  147.0870  153.4020  134.3330 O   0  0  0  0  0  0  0  0  0  0  0  0
  146.9390  153.0180  136.9170 O   0  0  0  0  0  0  0  0  0  0  0  0
  147.7420  155.4330  135.8460 O   0  0  0  0  0  0  0  0  0  0  0  0
  146.5130  157.8860  133.1580 C   0  0  0  0  0  0  0  0  0  0  0  0
  146.9590  156.5680  133.0020 C   0  0  0  0  0  0  0  0  0  0  0  0
  149.6350  152.8700  132.3497 H   0  0  0  0  0  0  0  0  0  0  0  0
  150.2877  157.2802  132.4925 H   0  0  0  0  0  0  0  0  0  0  0  0
  149.4168  159.6324  132.7422 H   0  0  0  0  0  0  0  0  0  0  0  0
  147.0156  161.1355  133.1700 H   0  0  0  0  0  0  0  0  0  0  0  0
  142.6240  159.6340  132.5360 H   0  0  0  0  0  0  0  0  0  0  0  0
  144.5353  154.4865  136.5529 H   0  0  0  0  0  0  0  0  0  0  0  0
  144.4588  154.0617  134.8110 H   0  0  0  0  0  0  0  0  0  0  0  0
  146.2582  155.7224  133.0643 H   0  0  0  0  0  0  0  0  0  0  0  0
  1  2  3  0
  2  3  1  0
  3  4  2  0
  4  5  1  0
  5  6  2  0
  6  7  1  0
  7  8  2  0
  8  9  1  0
  9 10  1  0
  9 11  2  0
  8 12  1  0
 12 13  1  0
 13 14  2  0
 13 15  1  0
 15 16  2  0
 15 17  1  0
 17 18  1  0
 18 19  1  0
 19 20  2  0
 19 21  1  0
 19 22  1  0
 12 23  1  0
 23 24  2  0
 24  3  1  0
 23  6  1  0
  1 25  1  0
  4 26  1  0
  5 27  1  0
  7 28  1  0
 10 29  1  0
 18 30  1  0
 18 31  1  0
 24 32  1  0
M  CHG  3  10  -1  21  -1  22  -1
M  END
>  <UniqueID>  (82) 
81

>  <SMILES>  (82) 
C#Cc1ccc2cc(C([NH-])=O)n(C(=O)C(=O)OCP(=O)([O-])[O-])c2c1

>  <Energy>  (82) 
63.8347427938801

>  <Genealogy>  (82) 
C#Cc1ccc2cc(C([NH-])=O)n(C(=O)C(=O)OCP(=O)([O-])[O-])c2c1 (protonated)
C#Cc1ccc2cc(C([NH-])=O)n(C(=O)C(=O)OCP(=O)([O-])[O-])c2c1 (3D coordinates assigned)
C#Cc1ccc2cc(C([NH-])=O)n(C(=O)C(=O)OCP(=O)([O-])[O-])c2c1 (optimized conformer: 63.8347427938801 kcal/mol)

>  <smiles>  (82) 
C#Cc1ccc2cc(C(N)=O)n(C(=O)C(=O)OCP(=O)(O)O)c2c1

>  <score_type>  (82) 
oracle

>  <origin>  (82) 
adg

>  <m_score__min__energy>  (82) 
-7.0800000000000001

>  <m_primary>  (82) 
energy

$$$$
82:0
     RDKit          3D

 39 41  0  0  0  0  0  0  0  0999 V2000
  138.0070  159.6530  130.6760 C   0  0  0  0  0  0  0  0  0  0  0  0
  139.2980  159.2410  131.2520 N   0  0  0  0  0  0  0  0  0  0  0  0
  139.6800  160.0970  132.3860 C   0  0  0  0  0  0  0  0  0  0  0  0
  139.5150  158.9750  133.3950 C   0  0  0  0  0  0  0  0  0  0  0  0
  140.7920  158.5810  133.9850 N   0  0  0  0  0  0  0  0  0  0  0  0
  141.6870  159.4430  134.7010 C   0  0  0  0  0  0  0  0  0  0  0  0
  141.7600  159.3220  135.9520 O   0  0  0  0  0  0  0  0  0  0  0  0
  142.5180  160.4710  134.0360 C   0  0  0  0  0  0  0  0  0  0  0  0
  142.0080  161.5560  133.6500 O   0  0  0  0  0  0  0  0  0  0  0  0
  143.9150  160.2310  133.8090 N   0  0  0  0  0  0  0  0  0  0  0  0
  144.9430  161.1180  133.9210 C   0  0  0  0  0  0  0  0  0  0  0  0
  144.8130  162.5680  134.1770 C   0  0  0  0  0  0  0  0  0  0  0  0
  143.9870  163.3890  133.3550 N   0  0  0  0  0  0  0  0  0  0  0  0
  145.4650  163.0960  135.1180 O   0  0  0  0  0  0  0  0  0  0  0  0
  146.1620  160.4770  133.7050 C   0  0  0  0  0  0  0  0  0  0  0  0
  145.8450  159.1600  133.4590 C   0  0  0  0  0  0  0  0  0  0  0  0
  146.6700  158.0740  133.1890 C   0  0  0  0  0  0  0  0  0  0  0  0
  146.0660  156.8180  133.0010 C   0  0  0  0  0  0  0  0  0  0  0  0
  144.6590  156.6650  133.1140 C   0  0  0  0  0  0  0  0  0  0  0  0
  144.0200  155.3210  132.8730 C   0  0  0  0  0  0  0  0  0  0  0  0
  142.6470  155.4420  132.9920 F   0  0  0  0  0  0  0  0  0  0  0  0
  144.4720  154.3920  133.7940 F   0  0  0  0  0  0  0  0  0  0  0  0
  144.3230  154.8550  131.6050 F   0  0  0  0  0  0  0  0  0  0  0  0
  143.8540  157.7990  133.3690 C   0  0  0  0  0  0  0  0  0  0  0  0
  144.4820  159.0380  133.5320 C   0  0  0  0  0  0  0  0  0  0  0  0
  139.1320  158.1240  132.1940 C   0  0  0  0  0  0  0  0  0  0  0  0
  137.2990  159.8789  131.4870 H   0  0  0  0  0  0  0  0  0  0  0  0
  138.1518  160.5496  130.0553 H   0  0  0  0  0  0  0  0  0  0  0  0
  137.6057  158.8383  130.0553 H   0  0  0  0  0  0  0  0  0  0  0  0
  140.7104  160.4763  132.3192 H   0  0  0  0  0  0  0  0  0  0  0  0
  139.1324  161.0374  132.5467 H   0  0  0  0  0  0  0  0  0  0  0  0
  138.8882  159.0522  134.2957 H   0  0  0  0  0  0  0  0  0  0  0  0
  142.9660  163.4840  133.5460 H   0  0  0  0  0  0  0  0  0  0  0  0
  147.1650  160.9281  133.7266 H   0  0  0  0  0  0  0  0  0  0  0  0
  147.7616  158.1935  133.1244 H   0  0  0  0  0  0  0  0  0  0  0  0
  146.6907  155.9442  132.7637 H   0  0  0  0  0  0  0  0  0  0  0  0
  142.7598  157.7089  133.4376 H   0  0  0  0  0  0  0  0  0  0  0  0
  139.8255  157.2902  132.0100 H   0  0  0  0  0  0  0  0  0  0  0  0
  138.1739  157.5838  132.2115 H   0  0  0  0  0  0  0  0  0  0  0  0
  1  2  1  0
  2  3  1  0
  3  4  1  0
  4  5  1  0
  5  6  1  0
  6  7  2  0
  6  8  1  0
  8  9  2  0
  8 10  1  0
 10 11  1  0
 11 12  1  0
 12 13  1  0
 12 14  2  0
 11 15  2  0
 15 16  1  0
 16 17  2  0
 17 18  1  0
 18 19  2  0
 19 20  1  0
 20 21  1  0
 20 22  1  0
 20 23  1  0
 19 24  1  0
 24 25  2  0
  4 26  1  0
 26  2  1  0
 25 10  1  0
 25 16  1  0
  1 27  1  0
  1 28  1  0
  1 29  1  0
  3 30  1  0
  3 31  1  0
  4 32  1  0
 13 33  1  0
 15 34  1  0
 17 35  1  0
 18 36  1  0
 24 37  1  0
 26 38  1  0
 26 39  1  0
M  CHG  2   5  -1  13  -1
M  END
>  <UniqueID>  (83) 
82

>  <SMILES>  (83) 
CN1CC([N-]C(=O)C(=O)n2c(C([NH-])=O)cc3ccc(C(F)(F)F)cc32)C1

>  <Energy>  (83) 
149.8190862302195

>  <Genealogy>  (83) 
CN1CC([N-]C(=O)C(=O)n2c(C([NH-])=O)cc3ccc(C(F)(F)F)cc32)C1 (protonated)
CN1CC([N-]C(=O)C(=O)n2c(C([NH-])=O)cc3ccc(C(F)(F)F)cc32)C1 (3D coordinates assigned)
CN1CC([N-]C(=O)C(=O)n2c(C([NH-])=O)cc3ccc(C(F)(F)F)cc32)C1 (nonaromatic ring conformer: 149.8190862302195 kcal/mol)

>  <smiles>  (83) 
CN1CC(NC(=O)C(=O)n2c(C(N)=O)cc3ccc(C(F)(F)F)cc32)C1

>  <score_type>  (83) 
oracle

>  <origin>  (83) 
adg

>  <m_score__min__energy>  (83) 
-6.7199999999999998

>  <m_primary>  (83) 
energy

$$$$
83:0
     RDKit          3D

 45 47  0  0  1  0  0  0  0  0999 V2000
  138.8090  157.2780  133.7130 C   0  0  0  0  0  0  0  0  0  0  0  0
  140.0530  157.2790  134.5640 C   0  0  2  0  0  0  0  0  0  0  0  0
  140.4140  158.6890  134.8390 C   0  0  0  0  0  0  0  0  0  0  0  0
  140.9480  158.9570  135.9330 O   0  0  0  0  0  0  0  0  0  0  0  0
  140.1850  159.7170  133.9390 O   0  0  0  0  0  0  0  0  0  0  0  0
  141.1740  156.6470  133.9280 N   0  0  0  0  0  0  0  0  0  0  0  0
  141.2140  155.2110  133.8120 C   0  0  0  0  0  0  0  0  0  0  0  0
  142.2290  157.5060  133.4220 C   0  0  0  0  0  0  0  0  0  0  0  0
  141.8400  158.2470  132.4830 O   0  0  0  0  0  0  0  0  0  0  0  0
  143.5480  157.4550  133.9860 C   0  0  0  0  0  0  0  0  0  0  0  0
  143.6790  156.5860  134.9350 O   0  0  0  0  0  0  0  0  0  0  0  0
  144.6920  158.1940  133.6800 N   0  0  0  0  0  0  0  0  0  0  0  0
  144.9440  159.5130  133.6990 C   0  0  0  0  0  0  0  0  0  0  0  0
  144.0450  160.6540  133.7300 C   0  0  0  0  0  0  0  0  0  0  0  0
  142.6270  160.4030  133.9240 N   0  0  0  0  0  0  0  0  0  0  0  0
  144.3540  161.8490  133.6080 O   0  0  0  0  0  0  0  0  0  0  0  0
  146.3210  159.7380  133.4970 C   0  0  0  0  0  0  0  0  0  0  0  0
  146.9040  158.5170  133.3470 C   0  0  0  0  0  0  0  0  0  0  0  0
  148.2300  158.2040  133.1240 C   0  0  0  0  0  0  0  0  0  0  0  0
  148.6150  156.8930  133.0000 C   0  0  0  0  0  0  0  0  0  0  0  0
  147.6380  155.9320  133.1070 C   0  0  0  0  0  0  0  0  0  0  0  0
  148.0410  154.5400  132.9760 C   0  0  0  0  0  0  0  0  0  0  0  0
  149.1780  154.1000  132.3090 C   0  0  0  0  0  0  0  0  0  0  0  0
  149.2370  152.7710  132.3860 N   0  0  0  0  0  0  0  0  0  0  0  0
  148.1800  152.3340  133.0790 N   0  0  0  0  0  0  0  0  0  0  0  0
  147.4340  153.4070  133.4490 C   0  0  0  0  0  0  0  0  0  0  0  0
  146.3000  156.2590  133.3320 C   0  0  0  0  0  0  0  0  0  0  0  0
  145.9050  157.5870  133.4580 C   0  0  0  0  0  0  0  0  0  0  0  0
  137.9208  157.2773  134.3619 H   0  0  0  0  0  0  0  0  0  0  0  0
  138.7984  158.1761  133.0780 H   0  0  0  0  0  0  0  0  0  0  0  0
  138.7999  156.3798  133.0780 H   0  0  0  0  0  0  0  0  0  0  0  0
  139.8311  156.7102  135.4790 H   0  0  0  0  0  0  0  0  0  0  0  0
  140.3640  159.5600  132.9750 H   0  0  0  0  0  0  0  0  0  0  0  0
  141.2265  154.7622  134.8162 H   0  0  0  0  0  0  0  0  0  0  0  0
  140.3252  154.8624  133.2656 H   0  0  0  0  0  0  0  0  0  0  0  0
  142.1208  154.9124  133.2656 H   0  0  0  0  0  0  0  0  0  0  0  0
  141.9060  161.1020  133.7080 H   0  0  0  0  0  0  0  0  0  0  0  0
  142.3070  159.4630  134.3030 H   0  0  0  0  0  0  0  0  0  0  0  0
  146.8276  160.7139  133.4664 H   0  0  0  0  0  0  0  0  0  0  0  0
  148.9784  159.0063  133.0457 H   0  0  0  0  0  0  0  0  0  0  0  0
  149.6659  156.6212  132.8217 H   0  0  0  0  0  0  0  0  0  0  0  0
  149.9103  154.7441  131.8002 H   0  0  0  0  0  0  0  0  0  0  0  0
  147.9590  151.3240  133.3030 H   0  0  0  0  0  0  0  0  0  0  0  0
  146.5006  153.3720  134.0300 H   0  0  0  0  0  0  0  0  0  0  0  0
  145.5499  155.4583  133.4106 H   0  0  0  0  0  0  0  0  0  0  0  0
  1  2  1  0
  2  3  1  0
  3  4  2  0
  3  5  1  0
  2  6  1  0
  6  7  1  0
  6  8  1  0
  8  9  2  0
  8 10  1  0
 10 11  2  0
 10 12  1  0
 12 13  1  0
 13 14  1  0
 14 15  1  0
 14 16  2  0
 13 17  2  0
 17 18  1  0
 18 19  2  0
 19 20  1  0
 20 21  2  0
 21 22  1  0
 22 23  1  0
 23 24  2  0
 24 25  1  0
 25 26  1  0
 21 27  1  0
 27 28  2  0
 28 12  1  0
 28 18  1  0
 26 22  2  0
  1 29  1  0
  1 30  1  0
  1 31  1  0
  2 32  1  1
  5 33  1  0
  7 34  1  0
  7 35  1  0
  7 36  1  0
 15 37  1  0
 15 38  1  0
 17 39  1  0
 19 40  1  0
 20 41  1  0
 23 42  1  0
 25 43  1  0
 26 44  1  0
 27 45  1  0
M  END
>  <smiles>  (84) 
CC(C(=O)O)N(C)C(=O)C(=O)n1c(C(N)=O)cc2ccc(-c3cn[nH]c3)cc21

>  <score_type>  (84) 
oracle

>  <origin>  (84) 
adg

>  <m_score__min__energy>  (84) 
-7.9699999999999998

>  <m_primary>  (84) 
energy

$$$$
84:0
     RDKit          3D

 42 43  0  0  0  0  0  0  0  0999 V2000
  139.9620  158.3360  133.4340 C   0  0  0  0  0  0  0  0  0  0  0  0
  141.1840  157.7270  133.9760 N   0  0  0  0  0  0  0  0  0  0  0  0
  141.1070  156.4110  134.6290 C   0  0  0  0  0  0  0  0  0  0  0  0
  141.6070  156.4990  136.0360 C   0  0  0  0  0  0  0  0  0  0  0  0
  140.8960  157.0310  136.9270 O   0  0  0  0  0  0  0  0  0  0  0  0
  142.8350  155.9470  136.3770 O   0  0  0  0  0  0  0  0  0  0  0  0
  142.4490  158.4180  133.8290 C   0  0  0  0  0  0  0  0  0  0  0  0
  142.5230  159.8330  133.9490 C   0  0  0  0  0  0  0  0  0  0  0  0
  143.7460  160.5070  133.8080 C   0  0  0  0  0  0  0  0  0  0  0  0
  144.8800  159.7510  133.5340 C   0  0  0  0  0  0  0  0  0  0  0  0
  146.1830  160.1490  133.3490 C   0  0  0  0  0  0  0  0  0  0  0  0
  146.8940  158.9790  133.0910 C   0  0  0  0  0  0  0  0  0  0  0  0
  148.3270  158.9640  132.7240 C   0  0  0  0  0  0  0  0  0  0  0  0
  148.7200  158.5360  131.4220 N   0  0  0  0  0  0  0  0  0  0  0  0
  149.2120  159.2880  133.5580 O   0  0  0  0  0  0  0  0  0  0  0  0
  146.0630  157.8970  133.1280 N   0  0  0  0  0  0  0  0  0  0  0  0
  146.4030  156.5130  132.9510 C   0  0  0  0  0  0  0  0  0  0  0  0
  147.4640  156.1940  132.3450 O   0  0  0  0  0  0  0  0  0  0  0  0
  145.5670  155.5220  133.4760 O   0  0  0  0  0  0  0  0  0  0  0  0
  145.9610  154.1590  133.5890 C   0  0  0  0  0  0  0  0  0  0  0  0
  146.9510  154.0150  134.7390 C   0  0  0  0  0  0  0  0  0  0  0  0
  146.2410  154.0590  136.0580 C   0  0  0  0  0  0  0  0  0  0  0  0
  145.0620  154.8480  136.2140 N   0  0  0  0  0  0  0  0  0  0  0  0
  146.6610  153.3640  137.0210 O   0  0  0  0  0  0  0  0  0  0  0  0
  144.8330  158.3900  133.3940 C   0  0  0  0  0  0  0  0  0  0  0  0
  143.6320  157.6890  133.5540 C   0  0  0  0  0  0  0  0  0  0  0  0
  139.3145  158.6587  134.2626 H   0  0  0  0  0  0  0  0  0  0  0  0
  140.2288  159.2065  132.8168 H   0  0  0  0  0  0  0  0  0  0  0  0
  139.4276  157.5988  132.8168 H   0  0  0  0  0  0  0  0  0  0  0  0
  140.0611  156.0703  134.6363 H   0  0  0  0  0  0  0  0  0  0  0  0
  141.7320  155.6980  134.0713 H   0  0  0  0  0  0  0  0  0  0  0  0
  141.6082  160.4079  134.1554 H   0  0  0  0  0  0  0  0  0  0  0  0
  143.8054  161.6005  133.9112 H   0  0  0  0  0  0  0  0  0  0  0  0
  146.5799  161.1739  133.3950 H   0  0  0  0  0  0  0  0  0  0  0  0
  148.6610  157.5310  131.1470 H   0  0  0  0  0  0  0  0  0  0  0  0
  145.0762  153.5357  133.7855 H   0  0  0  0  0  0  0  0  0  0  0  0
  146.4351  153.8333  132.6514 H   0  0  0  0  0  0  0  0  0  0  0  0
  147.4773  153.0537  134.6441 H   0  0  0  0  0  0  0  0  0  0  0  0
  147.6676  154.8484  134.6952 H   0  0  0  0  0  0  0  0  0  0  0  0
  144.5550  154.8610  137.1280 H   0  0  0  0  0  0  0  0  0  0  0  0
  144.6830  155.4060  135.4160 H   0  0  0  0  0  0  0  0  0  0  0  0
  143.6073  156.5927  133.4678 H   0  0  0  0  0  0  0  0  0  0  0  0
  1  2  1  0
  2  3  1  0
  3  4  1  0
  4  5  2  0
  4  6  1  0
  2  7  1  0
  7  8  2  0
  8  9  1  0
  9 10  2  0
 10 11  1  0
 11 12  2  0
 12 13  1  0
 13 14  1  0
 13 15  2  0
 12 16  1  0
 16 17  1  0
 17 18  2  0
 17 19  1  0
 19 20  1  0
 20 21  1  0
 21 22  1  0
 22 23  1  0
 22 24  2  0
 16 25  1  0
 25 26  2  0
 26  7  1  0
 25 10  1  0
  1 27  1  0
  1 28  1  0
  1 29  1  0
  3 30  1  0
  3 31  1  0
  8 32  1  0
  9 33  1  0
 11 34  1  0
 14 35  1  0
 20 36  1  0
 20 37  1  0
 21 38  1  0
 21 39  1  0
 23 40  1  0
 23 41  1  0
 26 42  1  0
M  CHG  2   6  -1  14  -1
M  END
>  <UniqueID>  (85) 
83

>  <SMILES>  (85) 
CN(CC(=O)[O-])c1ccc2cc(C([NH-])=O)n(C(=O)OCCC(N)=O)c2c1

>  <Energy>  (85) 
75.30358681181087

>  <Genealogy>  (85) 
CN(CC(=O)[O-])c1ccc2cc(C([NH-])=O)n(C(=O)OCCC(N)=O)c2c1 (protonated)
CN(CC(=O)[O-])c1ccc2cc(C([NH-])=O)n(C(=O)OCCC(N)=O)c2c1 (3D coordinates assigned)
CN(CC(=O)[O-])c1ccc2cc(C([NH-])=O)n(C(=O)OCCC(N)=O)c2c1 (optimized conformer: 75.30358681181087 kcal/mol)

>  <smiles>  (85) 
CN(CC(=O)O)c1ccc2cc(C(N)=O)n(C(=O)OCCC(N)=O)c2c1

>  <score_type>  (85) 
oracle

>  <origin>  (85) 
adg

>  <m_score__min__energy>  (85) 
-6.6799999999999997

>  <m_primary>  (85) 
energy

$$$$
85:0
     RDKit          3D

 38 39  0  0  0  0  0  0  0  0999 V2000
  137.6120  159.7880  131.0400 C   0  0  0  0  0  0  0  0  0  0  0  0
  138.5450  159.8460  132.1110 O   0  0  0  0  0  0  0  0  0  0  0  0
  139.5210  158.8650  132.3130 C   0  0  0  0  0  0  0  0  0  0  0  0
  140.7000  159.0420  131.8960 O   0  0  0  0  0  0  0  0  0  0  0  0
  139.1280  157.5770  132.9840 C   0  0  2  0  0  0  0  0  0  0  0  0
  139.2900  157.6190  134.5080 C   0  0  0  0  0  0  0  0  0  0  0  0
  139.8700  156.4550  132.4100 N   0  0  0  0  0  0  0  0  0  0  0  0
  139.8360  155.1020  132.8810 C   0  0  0  0  0  0  0  0  0  0  0  0
  138.7340  154.5290  133.0980 O   0  0  0  0  0  0  0  0  0  0  0  0
  141.0630  154.3920  133.1050 N   0  0  0  0  0  0  0  0  0  0  0  0
  142.2930  154.9220  133.3600 C   0  0  0  0  0  0  0  0  0  0  0  0
  142.5820  156.3490  133.6130 C   0  0  0  0  0  0  0  0  0  0  0  0
  142.3350  157.3440  132.6180 N   0  0  0  0  0  0  0  0  0  0  0  0
  143.0090  156.7010  134.7440 O   0  0  0  0  0  0  0  0  0  0  0  0
  143.2620  153.9240  133.3920 C   0  0  0  0  0  0  0  0  0  0  0  0
  142.5820  152.7510  133.1570 C   0  0  0  0  0  0  0  0  0  0  0  0
  143.0570  151.4460  133.0570 C   0  0  0  0  0  0  0  0  0  0  0  0
  142.1350  150.4290  132.7590 C   0  0  0  0  0  0  0  0  0  0  0  0
  140.7650  150.7330  132.5580 C   0  0  0  0  0  0  0  0  0  0  0  0
  139.7850  149.6470  132.2160 C   0  0  0  0  0  0  0  0  0  0  0  0
  140.4600  148.4560  132.0200 F   0  0  0  0  0  0  0  0  0  0  0  0
  139.1040  149.9820  131.0600 F   0  0  0  0  0  0  0  0  0  0  0  0
  140.3200  152.0700  132.6630 C   0  0  0  0  0  0  0  0  0  0  0  0
  141.2570  153.0600  132.9840 C   0  0  0  0  0  0  0  0  0  0  0  0
  136.5915  159.7246  131.4457 H   0  0  0  0  0  0  0  0  0  0  0  0
  137.7055  160.6937  130.4228 H   0  0  0  0  0  0  0  0  0  0  0  0
  137.8170  158.9009  130.4228 H   0  0  0  0  0  0  0  0  0  0  0  0
  138.0542  157.4341  132.7929 H   0  0  0  0  0  0  0  0  0  0  0  0
  138.3308  157.3703  134.9857 H   0  0  0  0  0  0  0  0  0  0  0  0
  140.0531  156.8891  134.8159 H   0  0  0  0  0  0  0  0  0  0  0  0
  139.6022  158.6278  134.8159 H   0  0  0  0  0  0  0  0  0  0  0  0
  141.8170  157.1140  131.7410 H   0  0  0  0  0  0  0  0  0  0  0  0
  142.5910  158.3400  132.7990 H   0  0  0  0  0  0  0  0  0  0  0  0
  144.3410  154.0465  133.5676 H   0  0  0  0  0  0  0  0  0  0  0  0
  144.1227  151.2182  133.2069 H   0  0  0  0  0  0  0  0  0  0  0  0
  142.4792  149.3872  132.6809 H   0  0  0  0  0  0  0  0  0  0  0  0
  139.0698  149.5323  133.0438 H   0  0  0  0  0  0  0  0  0  0  0  0
  139.2634  152.3269  132.4967 H   0  0  0  0  0  0  0  0  0  0  0  0
  1  2  1  0
  2  3  1  0
  3  4  2  0
  3  5  1  0
  5  6  1  0
  5  7  1  0
  7  8  1  0
  8  9  2  0
  8 10  1  0
 10 11  1  0
 11 12  1  0
 12 13  1  0
 12 14  2  0
 11 15  2  0
 15 16  1  0
 16 17  2  0
 17 18  1  0
 18 19  2  0
 19 20  1  0
 20 21  1  0
 20 22  1  0
 19 23  1  0
 23 24  2  0
 24 10  1  0
 24 16  1  0
  1 25  1  0
  1 26  1  0
  1 27  1  0
  5 28  1  1
  6 29  1  0
  6 30  1  0
  6 31  1  0
 13 32  1  0
 13 33  1  0
 15 34  1  0
 17 35  1  0
 18 36  1  0
 20 37  1  0
 23 38  1  0
M  CHG  1   7  -1
M  END
>  <UniqueID>  (86) 
84

>  <SMILES>  (86) 
COC(=O)[C@H](C)[N-]C(=O)n1c(C(N)=O)cc2ccc(C(F)F)cc21

>  <Energy>  (86) 
72.0041613179435

>  <Genealogy>  (86) 
COC(=O)[C@H](C)[N-]C(=O)n1c(C(N)=O)cc2ccc(C(F)F)cc21 (protonated)
COC(=O)[C@H](C)[N-]C(=O)n1c(C(N)=O)cc2ccc(C(F)F)cc21 (3D coordinates assigned)
COC(=O)[C@H](C)[N-]C(=O)n1c(C(N)=O)cc2ccc(C(F)F)cc21 (optimized conformer: 72.0041613179435 kcal/mol)

>  <smiles>  (86) 
COC(=O)[C@H](C)NC(=O)n1c(C(N)=O)cc2ccc(C(F)F)cc21

>  <score_type>  (86) 
oracle

>  <origin>  (86) 
adg

>  <m_score__min__energy>  (86) 
-6.2000000000000002

>  <m_primary>  (86) 
energy

$$$$
86:0
     RDKit          3D

 46 47  0  0  0  0  0  0  0  0999 V2000
  150.3640  150.4820  131.4270 C   0  0  0  0  0  0  0  0  0  0  0  0
  150.3530  151.4390  132.5460 N   0  0  0  0  0  0  0  0  0  0  0  0
  149.9230  150.8010  133.8000 C   0  0  0  0  0  0  0  0  0  0  0  0
  149.6020  152.6760  132.2410 C   0  0  0  0  0  0  0  0  0  0  0  0
  148.2560  152.7990  132.9900 C   0  0  0  0  0  0  0  0  0  0  0  0
  148.0460  154.2130  133.5510 C   0  0  0  0  0  0  0  0  0  0  0  0
  147.9220  155.2000  132.4750 N   0  0  0  0  0  0  0  0  0  0  0  0
  147.7510  156.6110  132.6990 C   0  0  0  0  0  0  0  0  0  0  0  0
  148.8580  157.5010  132.6870 C   0  0  0  0  0  0  0  0  0  0  0  0
  148.6790  158.8710  132.9390 C   0  0  0  0  0  0  0  0  0  0  0  0
  147.3890  159.3250  133.1930 C   0  0  0  0  0  0  0  0  0  0  0  0
  146.9420  160.5850  133.5160 C   0  0  0  0  0  0  0  0  0  0  0  0
  145.5680  160.4530  133.7080 C   0  0  0  0  0  0  0  0  0  0  0  0
  144.6750  161.5900  134.0140 C   0  0  0  0  0  0  0  0  0  0  0  0
  143.2800  161.4880  133.7380 N   0  0  0  0  0  0  0  0  0  0  0  0
  145.1230  162.6400  134.5450 O   0  0  0  0  0  0  0  0  0  0  0  0
  145.1810  159.1620  133.5090 N   0  0  0  0  0  0  0  0  0  0  0  0
  143.8760  158.5980  133.7110 C   0  0  0  0  0  0  0  0  0  0  0  0
  143.3300  157.9260  132.7930 O   0  0  0  0  0  0  0  0  0  0  0  0
  143.2320  158.7700  134.9380 O   0  0  0  0  0  0  0  0  0  0  0  0
  142.1140  157.9850  135.3420 C   0  0  0  0  0  0  0  0  0  0  0  0
  140.9730  158.8840  135.6820 C   0  0  0  0  0  0  0  0  0  0  0  0
  141.0260  160.1120  135.3980 O   0  0  0  0  0  0  0  0  0  0  0  0
  139.8330  158.3670  136.2870 O   0  0  0  0  0  0  0  0  0  0  0  0
  146.3060  158.4850  133.1910 C   0  0  0  0  0  0  0  0  0  0  0  0
  146.4560  157.1140  132.9470 C   0  0  0  0  0  0  0  0  0  0  0  0
  150.3758  149.4556  131.8224 H   0  0  0  0  0  0  0  0  0  0  0  0
  149.4641  150.6274  130.8113 H   0  0  0  0  0  0  0  0  0  0  0  0
  151.2603  150.6481  130.8113 H   0  0  0  0  0  0  0  0  0  0  0  0
  150.3099  151.3750  134.6549 H   0  0  0  0  0  0  0  0  0  0  0  0
  148.8240  150.7774  133.8414 H   0  0  0  0  0  0  0  0  0  0  0  0
  150.3136  149.7735  133.8414 H   0  0  0  0  0  0  0  0  0  0  0  0
  150.2294  153.5371  132.5147 H   0  0  0  0  0  0  0  0  0  0  0  0
  149.3654  152.6463  131.1672 H   0  0  0  0  0  0  0  0  0  0  0  0
  147.4374  152.5668  132.2928 H   0  0  0  0  0  0  0  0  0  0  0  0
  148.2670  152.0932  133.8337 H   0  0  0  0  0  0  0  0  0  0  0  0
  147.1276  154.2256  134.1563 H   0  0  0  0  0  0  0  0  0  0  0  0
  148.9202  154.4764  134.1645 H   0  0  0  0  0  0  0  0  0  0  0  0
  147.8450  154.8370  131.4990 H   0  0  0  0  0  0  0  0  0  0  0  0
  149.8660  157.1132  132.4781 H   0  0  0  0  0  0  0  0  0  0  0  0
  149.5332  159.5641  132.9356 H   0  0  0  0  0  0  0  0  0  0  0  0
  147.5420  161.5027  133.6041 H   0  0  0  0  0  0  0  0  0  0  0  0
  142.7030  160.7180  134.1480 H   0  0  0  0  0  0  0  0  0  0  0  0
  141.8206  157.3145  134.5208 H   0  0  0  0  0  0  0  0  0  0  0  0
  142.3853  157.3866  136.2242 H   0  0  0  0  0  0  0  0  0  0  0  0
  145.5836  156.4440  132.9487 H   0  0  0  0  0  0  0  0  0  0  0  0
  1  2  1  0
  2  3  1  0
  2  4  1  0
  4  5  1  0
  5  6  1  0
  6  7  1  0
  7  8  1  0
  8  9  2  0
  9 10  1  0
 10 11  2  0
 11 12  1  0
 12 13  2  0
 13 14  1  0
 14 15  1  0
 14 16  2  0
 13 17  1  0
 17 18  1  0
 18 19  2  0
 18 20  1  0
 20 21  1  0
 21 22  1  0
 22 23  2  0
 22 24  1  0
 17 25  1  0
 25 26  2  0
 26  8  1  0
 25 11  1  0
  1 27  1  0
  1 28  1  0
  1 29  1  0
  3 30  1  0
  3 31  1  0
  3 32  1  0
  4 33  1  0
  4 34  1  0
  5 35  1  0
  5 36  1  0
  6 37  1  0
  6 38  1  0
  7 39  1  0
  9 40  1  0
 10 41  1  0
 12 42  1  0
 15 43  1  0
 21 44  1  0
 21 45  1  0
 26 46  1  0
M  CHG  2  15  -1  24  -1
M  END
>  <UniqueID>  (87) 
85

>  <SMILES>  (87) 
CN(C)CCCNc1ccc2cc(C([NH-])=O)n(C(=O)OCC(=O)[O-])c2c1

>  <Energy>  (87) 
80.94900101185951

>  <Genealogy>  (87) 
CN(C)CCCNc1ccc2cc(C([NH-])=O)n(C(=O)OCC(=O)[O-])c2c1 (protonated)
CN(C)CCCNc1ccc2cc(C([NH-])=O)n(C(=O)OCC(=O)[O-])c2c1 (3D coordinates assigned)
CN(C)CCCNc1ccc2cc(C([NH-])=O)n(C(=O)OCC(=O)[O-])c2c1 (optimized conformer: 80.94900101185951 kcal/mol)

>  <smiles>  (87) 
CN(C)CCCNc1ccc2cc(C(N)=O)n(C(=O)OCC(=O)O)c2c1

>  <score_type>  (87) 
oracle

>  <origin>  (87) 
adg

>  <m_score__min__energy>  (87) 
-7.0499999999999998

>  <m_primary>  (87) 
energy

$$$$
87:0
     RDKit          3D

 40 41  0  0  0  0  0  0  0  0999 V2000
  144.3520  154.5180  130.6040 C   0  0  0  0  0  0  0  0  0  0  0  0
  143.9530  154.6590  132.0140 N   0  0  0  0  0  0  0  0  0  0  0  0
  144.9650  155.4140  132.7680 C   0  0  0  0  0  0  0  0  0  0  0  0
  143.7550  153.3510  132.6090 C   0  0  0  0  0  0  0  0  0  0  0  0
  144.4460  152.4050  132.2550 O   0  0  0  0  0  0  0  0  0  0  0  0
  142.6920  153.1240  133.6570 C   0  0  0  0  0  0  0  0  0  0  0  0
  141.7690  154.3020  133.7930 C   0  0  0  0  0  0  0  0  0  0  0  0
  141.0820  154.6900  132.8100 O   0  0  0  0  0  0  0  0  0  0  0  0
  141.8010  155.0990  134.9850 N   0  0  0  0  0  0  0  0  0  0  0  0
  141.7660  156.4570  135.0910 C   0  0  0  0  0  0  0  0  0  0  0  0
  141.8480  157.4140  133.9700 C   0  0  0  0  0  0  0  0  0  0  0  0
  142.6120  157.1150  132.8050 N   0  0  0  0  0  0  0  0  0  0  0  0
  141.2660  158.5290  134.0550 O   0  0  0  0  0  0  0  0  0  0  0  0
  141.6880  156.8370  136.4300 C   0  0  0  0  0  0  0  0  0  0  0  0
  141.6750  155.6580  137.1440 C   0  0  0  0  0  0  0  0  0  0  0  0
  141.5860  155.4390  138.5150 C   0  0  0  0  0  0  0  0  0  0  0  0
  141.5700  154.1080  138.9700 C   0  0  0  0  0  0  0  0  0  0  0  0
  141.6550  153.0300  138.0520 C   0  0  0  0  0  0  0  0  0  0  0  0
  141.6300  151.6110  138.5480 C   0  0  0  0  0  0  0  0  0  0  0  0
  140.5690  150.8170  137.8500 C   0  0  0  0  0  0  0  0  0  0  0  0
  140.6360  150.6170  136.6080 O   0  0  0  0  0  0  0  0  0  0  0  0
  139.4750  150.3470  138.5650 O   0  0  0  0  0  0  0  0  0  0  0  0
  141.7350  153.2930  136.6670 C   0  0  0  0  0  0  0  0  0  0  0  0
  141.7470  154.6270  136.2470 C   0  0  0  0  0  0  0  0  0  0  0  0
  145.3880  154.1519  130.5509 H   0  0  0  0  0  0  0  0  0  0  0  0
  143.6839  153.8015  130.1038 H   0  0  0  0  0  0  0  0  0  0  0  0
  144.2823  155.4952  130.1038 H   0  0  0  0  0  0  0  0  0  0  0  0
  143.0590  155.2030  132.0400 H   0  0  0  0  0  0  0  0  0  0  0  0
  144.7911  155.2843  133.8464 H   0  0  0  0  0  0  0  0  0  0  0  0
  145.9675  155.0414  132.5108 H   0  0  0  0  0  0  0  0  0  0  0  0
  144.8933  156.4811  132.5108 H   0  0  0  0  0  0  0  0  0  0  0  0
  142.1000  152.2406  133.3757 H   0  0  0  0  0  0  0  0  0  0  0  0
  143.1963  152.9765  134.6234 H   0  0  0  0  0  0  0  0  0  0  0  0
  142.3490  156.3210  132.1810 H   0  0  0  0  0  0  0  0  0  0  0  0
  141.6458  157.8603  136.8314 H   0  0  0  0  0  0  0  0  0  0  0  0
  141.5299  156.2805  139.2212 H   0  0  0  0  0  0  0  0  0  0  0  0
  141.4909  153.9013  140.0475 H   0  0  0  0  0  0  0  0  0  0  0  0
  142.6093  151.1467  138.3595 H   0  0  0  0  0  0  0  0  0  0  0  0
  141.4089  151.6202  139.6255 H   0  0  0  0  0  0  0  0  0  0  0  0
  141.7865  152.4708  135.9380 H   0  0  0  0  0  0  0  0  0  0  0  0
  1  2  1  0
  2  3  1  0
  2  4  1  0
  4  5  2  0
  4  6  1  0
  6  7  1  0
  7  8  2  0
  7  9  1  0
  9 10  1  0
 10 11  1  0
 11 12  1  0
 11 13  2  0
 10 14  2  0
 14 15  1  0
 15 16  2  0
 16 17  1  0
 17 18  2  0
 18 19  1  0
 19 20  1  0
 20 21  2  0
 20 22  1  0
 18 23  1  0
 23 24  2  0
 24  9  1  0
 24 15  1  0
  1 25  1  0
  1 26  1  0
  1 27  1  0
  2 28  1  0
  3 29  1  0
  3 30  1  0
  3 31  1  0
  6 32  1  0
  6 33  1  0
 12 34  1  0
 14 35  1  0
 16 36  1  0
 17 37  1  0
 19 38  1  0
 19 39  1  0
 23 40  1  0
M  CHG  3   2   1  12  -1  22  -1
M  END
>  <UniqueID>  (88) 
86

>  <SMILES>  (88) 
C[NH+](C)C(=O)CC(=O)n1c(C([NH-])=O)cc2ccc(CC(=O)[O-])cc21

>  <Energy>  (88) 
77.45489684701776

>  <Genealogy>  (88) 
C[NH+](C)C(=O)CC(=O)n1c(C([NH-])=O)cc2ccc(CC(=O)[O-])cc21 (protonated)
C[NH+](C)C(=O)CC(=O)n1c(C([NH-])=O)cc2ccc(CC(=O)[O-])cc21 (3D coordinates assigned)
C[NH+](C)C(=O)CC(=O)n1c(C([NH-])=O)cc2ccc(CC(=O)[O-])cc21 (optimized conformer: 77.45489684701776 kcal/mol)

>  <smiles>  (88) 
CN(C)C(=O)CC(=O)n1c(C(N)=O)cc2ccc(CC(=O)O)cc21

>  <score_type>  (88) 
oracle

>  <origin>  (88) 
adg

>  <m_score__min__energy>  (88) 
-6.0099999999999998

>  <m_primary>  (88) 
energy

$$$$
88:0
     RDKit          3D

 52 53  0  0  0  0  0  0  0  0999 V2000
  145.2800  162.9750  134.4680 C   0  0  0  0  0  0  0  0  0  0  0  0
  145.0710  161.5500  134.7000 N   0  0  0  0  0  0  0  0  0  0  0  0
  144.1250  160.7410  133.9890 C   0  0  0  0  0  0  0  0  0  0  0  0
  142.9960  161.2300  133.7200 O   0  0  0  0  0  0  0  0  0  0  0  0
  144.4540  159.3780  133.5260 C   0  0  0  0  0  0  0  0  0  0  0  0
  145.3810  159.2200  132.6910 O   0  0  0  0  0  0  0  0  0  0  0  0
  143.7200  158.2250  133.9540 N   0  0  0  0  0  0  0  0  0  0  0  0
  143.1060  157.2110  133.0940 C   0  0  0  0  0  0  0  0  0  0  0  0
  143.4930  155.7520  133.5020 C   0  0  0  0  0  0  0  0  0  0  0  0
  144.0460  154.9160  132.3130 C   0  0  0  0  0  0  0  0  0  0  0  0
  144.6430  155.8240  134.5430 C   0  0  0  0  0  0  0  0  0  0  0  0
  142.2880  155.0750  134.0730 N   0  0  0  0  0  0  0  0  0  0  0  0
  142.3570  154.3430  135.3510 C   0  0  0  0  0  0  0  0  0  0  0  0
  141.0300  154.9900  133.3610 C   0  0  0  0  0  0  0  0  0  0  0  0
  140.8180  153.9950  132.6150 O   0  0  0  0  0  0  0  0  0  0  0  0
  139.9190  155.9370  133.5810 C   0  0  0  0  0  0  0  0  0  0  0  0
  138.7280  155.6090  133.3350 O   0  0  0  0  0  0  0  0  0  0  0  0
  140.1930  157.2410  134.1110 N   0  0  0  0  0  0  0  0  0  0  0  0
  140.2260  158.4260  133.4410 C   0  0  0  0  0  0  0  0  0  0  0  0
  139.8730  158.6210  132.0190 C   0  0  0  0  0  0  0  0  0  0  0  0
  138.7510  157.9330  131.4630 N   0  0  0  0  0  0  0  0  0  0  0  0
  140.5650  159.3720  131.2830 O   0  0  0  0  0  0  0  0  0  0  0  0
  140.6020  159.4600  134.2980 C   0  0  0  0  0  0  0  0  0  0  0  0
  140.8060  158.8600  135.5220 C   0  0  0  0  0  0  0  0  0  0  0  0
  141.2290  159.4070  136.7290 C   0  0  0  0  0  0  0  0  0  0  0  0
  141.4040  158.5380  137.8220 C   0  0  0  0  0  0  0  0  0  0  0  0
  141.1520  157.1450  137.6900 C   0  0  0  0  0  0  0  0  0  0  0  0
  141.4140  156.2010  138.8340 C   0  0  0  0  0  0  0  0  0  0  0  0
  141.9260  156.8730  139.9310 F   0  0  0  0  0  0  0  0  0  0  0  0
  142.3250  155.2420  138.4300 F   0  0  0  0  0  0  0  0  0  0  0  0
  140.2400  155.5770  139.2140 F   0  0  0  0  0  0  0  0  0  0  0  0
  140.7460  156.6280  136.4390 C   0  0  0  0  0  0  0  0  0  0  0  0
  140.5550  157.5210  135.3800 C   0  0  0  0  0  0  0  0  0  0  0  0
  145.3565  163.4964  135.4336 H   0  0  0  0  0  0  0  0  0  0  0  0
  146.2092  163.1213  133.8977 H   0  0  0  0  0  0  0  0  0  0  0  0
  144.4319  163.3819  133.8977 H   0  0  0  0  0  0  0  0  0  0  0  0
  142.0126  157.3143  133.1552 H   0  0  0  0  0  0  0  0  0  0  0  0
  143.4762  157.3771  132.0716 H   0  0  0  0  0  0  0  0  0  0  0  0
  144.6139  154.0576  132.7011 H   0  0  0  0  0  0  0  0  0  0  0  0
  143.2086  154.5540  131.6984 H   0  0  0  0  0  0  0  0  0  0  0  0
  144.7067  155.5451  131.6984 H   0  0  0  0  0  0  0  0  0  0  0  0
  144.2207  155.7976  135.5583 H   0  0  0  0  0  0  0  0  0  0  0  0
  145.3176  154.9663  134.4040 H   0  0  0  0  0  0  0  0  0  0  0  0
  145.2054  156.7591  134.4040 H   0  0  0  0  0  0  0  0  0  0  0  0
  142.2898  155.0559  136.1860 H   0  0  0  0  0  0  0  0  0  0  0  0
  141.5222  153.6292  135.4102 H   0  0  0  0  0  0  0  0  0  0  0  0
  143.3105  153.7978  135.4102 H   0  0  0  0  0  0  0  0  0  0  0  0
  138.2280  157.2170  132.0100 H   0  0  0  0  0  0  0  0  0  0  0  0
  140.7122  160.5261  134.0502 H   0  0  0  0  0  0  0  0  0  0  0  0
  141.4208  160.4858  136.8262 H   0  0  0  0  0  0  0  0  0  0  0  0
  141.7394  158.9409  138.7890 H   0  0  0  0  0  0  0  0  0  0  0  0
  140.5841  155.5487  136.3015 H   0  0  0  0  0  0  0  0  0  0  0  0
  1  2  1  0
  2  3  1  0
  3  4  2  0
  3  5  1  0
  5  6  2  0
  5  7  1  0
  7  8  1  0
  8  9  1  0
  9 10  1  0
  9 11  1  0
  9 12  1  0
 12 13  1  0
 12 14  1  0
 14 15  2  0
 14 16  1  0
 16 17  2  0
 16 18  1  0
 18 19  1  0
 19 20  1  0
 20 21  1  0
 20 22  2  0
 19 23  2  0
 23 24  1  0
 24 25  2  0
 25 26  1  0
 26 27  2  0
 27 28  1  0
 28 29  1  0
 28 30  1  0
 28 31  1  0
 27 32  1  0
 32 33  2  0
 33 18  1  0
 33 24  1  0
  1 34  1  0
  1 35  1  0
  1 36  1  0
  8 37  1  0
  8 38  1  0
 10 39  1  0
 10 40  1  0
 10 41  1  0
 11 42  1  0
 11 43  1  0
 11 44  1  0
 13 45  1  0
 13 46  1  0
 13 47  1  0
 21 48  1  0
 23 49  1  0
 25 50  1  0
 26 51  1  0
 32 52  1  0
M  CHG  3   2  -1   7  -1  21  -1
M  END
>  <UniqueID>  (89) 
87

>  <SMILES>  (89) 
C[N-]C(=O)C(=O)[N-]CC(C)(C)N(C)C(=O)C(=O)n1c(C([NH-])=O)cc2ccc(C(F)(F)F)cc21

>  <Energy>  (89) 
109.30670513063777

>  <Genealogy>  (89) 
C[N-]C(=O)C(=O)[N-]CC(C)(C)N(C)C(=O)C(=O)n1c(C([NH-])=O)cc2ccc(C(F)(F)F)cc21 (protonated)
C[N-]C(=O)C(=O)[N-]CC(C)(C)N(C)C(=O)C(=O)n1c(C([NH-])=O)cc2ccc(C(F)(F)F)cc21 (3D coordinates assigned)
C[N-]C(=O)C(=O)[N-]CC(C)(C)N(C)C(=O)C(=O)n1c(C([NH-])=O)cc2ccc(C(F)(F)F)cc21 (optimized conformer: 109.30670513063777 kcal/mol)

>  <smiles>  (89) 
CNC(=O)C(=O)NCC(C)(C)N(C)C(=O)C(=O)n1c(C(N)=O)cc2ccc(C(F)(F)F)cc21

>  <score_type>  (89) 
oracle

>  <origin>  (89) 
adg

>  <m_score__min__energy>  (89) 
-7.71

>  <m_primary>  (89) 
energy

$$$$
89:0
     RDKit          3D

 47 51  0  0  0  0  0  0  0  0999 V2000
  144.9710  163.1770  134.2150 N   0  0  0  0  0  0  0  0  0  0  0  0
  144.7510  162.0460  134.1080 C   0  0  0  0  0  0  0  0  0  0  0  0
  144.4760  160.6390  133.9740 C   0  0  0  0  0  0  0  0  0  0  0  0
  143.1670  160.1670  134.1120 C   0  0  0  0  0  0  0  0  0  0  0  0
  142.8890  158.7970  133.9800 C   0  0  0  0  0  0  0  0  0  0  0  0
  141.5110  158.2840  134.1280 C   0  0  0  0  0  0  0  0  0  0  0  0
  141.2790  157.3520  134.9450 O   0  0  0  0  0  0  0  0  0  0  0  0
  140.4360  158.7850  133.3290 N   0  0  0  0  0  0  0  0  0  0  0  0
  140.2450  159.6780  132.1480 C   0  0  0  0  0  0  0  0  0  0  0  0
  138.8130  159.3620  132.0320 C   0  0  0  0  0  0  0  0  0  0  0  0
  138.4360  158.6320  130.7420 C   0  0  0  0  0  0  0  0  0  0  0  0
  137.6530  159.8560  131.1960 C   0  0  0  0  0  0  0  0  0  0  0  0
  138.9820  158.4820  133.1960 C   0  0  0  0  0  0  0  0  0  0  0  0
  143.9450  157.9040  133.7370 C   0  0  0  0  0  0  0  0  0  0  0  0
  145.2650  158.3680  133.5950 C   0  0  0  0  0  0  0  0  0  0  0  0
  146.3730  157.4190  133.3230 C   0  0  0  0  0  0  0  0  0  0  0  0
  147.7080  157.8890  133.1960 C   0  0  0  0  0  0  0  0  0  0  0  0
  148.7650  156.9980  132.9480 C   0  0  0  0  0  0  0  0  0  0  0  0
  148.4630  155.6450  132.8240 C   0  0  0  0  0  0  0  0  0  0  0  0
  149.2910  154.5680  132.6020 C   0  0  0  0  0  0  0  0  0  0  0  0
  148.4500  153.4570  132.5750 C   0  0  0  0  0  0  0  0  0  0  0  0
  148.9150  152.0890  132.2670 C   0  0  0  0  0  0  0  0  0  0  0  0
  148.3930  150.9630  132.9690 N   0  0  0  0  0  0  0  0  0  0  0  0
  149.7500  151.9070  131.3420 O   0  0  0  0  0  0  0  0  0  0  0  0
  147.1570  153.8320  132.7830 N   0  0  0  0  0  0  0  0  0  0  0  0
  146.0040  152.9900  132.9240 C   0  0  0  0  0  0  0  0  0  0  0  0
  145.8260  152.0260  132.1350 O   0  0  0  0  0  0  0  0  0  0  0  0
  144.7520  153.3540  134.1700 S   0  0  0  0  0  0  0  0  0  0  0  0
  147.1810  155.1740  132.9290 C   0  0  0  0  0  0  0  0  0  0  0  0
  146.1090  156.0340  133.1900 C   0  0  0  0  0  0  0  0  0  0  0  0
  145.5210  159.7460  133.7130 C   0  0  0  0  0  0  0  0  0  0  0  0
  142.3506  160.8728  134.3251 H   0  0  0  0  0  0  0  0  0  0  0  0
  140.4410  160.7380  132.3670 H   0  0  0  0  0  0  0  0  0  0  0  0
  140.8892  159.5326  131.2683 H   0  0  0  0  0  0  0  0  0  0  0  0
  139.0929  158.6927  129.8617 H   0  0  0  0  0  0  0  0  0  0  0  0
  138.1806  157.5954  130.4772 H   0  0  0  0  0  0  0  0  0  0  0  0
  137.7409  160.8009  130.6397 H   0  0  0  0  0  0  0  0  0  0  0  0
  136.5915  160.0678  131.3920 H   0  0  0  0  0  0  0  0  0  0  0  0
  138.3904  158.7962  134.0686 H   0  0  0  0  0  0  0  0  0  0  0  0
  138.6706  157.4306  133.1090 H   0  0  0  0  0  0  0  0  0  0  0  0
  143.7370  156.8269  133.6566 H   0  0  0  0  0  0  0  0  0  0  0  0
  147.9163  158.9647  133.2932 H   0  0  0  0  0  0  0  0  0  0  0  0
  149.8000  157.3585  132.8546 H   0  0  0  0  0  0  0  0  0  0  0  0
  150.3834  154.5814  132.4734 H   0  0  0  0  0  0  0  0  0  0  0  0
  147.3640  150.8050  133.0390 H   0  0  0  0  0  0  0  0  0  0  0  0
  145.0854  155.6438  133.2896 H   0  0  0  0  0  0  0  0  0  0  0  0
  146.5479  160.1235  133.5995 H   0  0  0  0  0  0  0  0  0  0  0  0
  1  2  3  0
  2  3  1  0
  3  4  2  0
  4  5  1  0
  5  6  1  0
  6  7  2  0
  6  8  1  0
  8  9  1  0
  9 10  1  0
 10 11  1  0
 11 12  1  0
 10 13  1  0
  5 14  2  0
 14 15  1  0
 15 16  1  0
 16 17  2  0
 17 18  1  0
 18 19  2  0
 19 20  1  0
 20 21  2  0
 21 22  1  0
 22 23  1  0
 22 24  2  0
 21 25  1  0
 25 26  1  0
 26 27  2  0
 26 28  1  0
 25 29  1  0
 29 30  2  0
 15 31  2  0
 31  3  1  0
 13  8  1  0
 30 16  1  0
 12 10  1  0
 29 19  1  0
  4 32  1  0
  9 33  1  0
  9 34  1  0
 11 35  1  0
 11 36  1  0
 12 37  1  0
 12 38  1  0
 13 39  1  0
 13 40  1  0
 14 41  1  0
 17 42  1  0
 18 43  1  0
 20 44  1  0
 23 45  1  0
 30 46  1  0
 31 47  1  0
M  CHG  2  23  -1  28  -1
M  END
>  <UniqueID>  (90) 
88

>  <SMILES>  (90) 
N#Cc1cc(C(=O)N2CC3(CC3)C2)cc(-c2ccc3cc(C([NH-])=O)n(C(=O)[S-])c3c2)c1

>  <Energy>  (90) 
439.5507690808939

>  <Genealogy>  (90) 
N#Cc1cc(C(=O)N2CC3(CC3)C2)cc(-c2ccc3cc(C([NH-])=O)n(C(=O)[S-])c3c2)c1 (protonated)
N#Cc1cc(C(=O)N2CC3(CC3)C2)cc(-c2ccc3cc(C([NH-])=O)n(C(=O)[S-])c3c2)c1 (3D coordinates assigned)
N#Cc1cc(C(=O)N2CC3(CC3)C2)cc(-c2ccc3cc(C([NH-])=O)n(C(=O)[S-])c3c2)c1 (nonaromatic ring conformer: 439.5507690808939 kcal/mol)

>  <smiles>  (90) 
N#Cc1cc(C(=O)N2CC3(CC3)C2)cc(-c2ccc3cc(C(N)=O)n(C(=O)S)c3c2)c1

>  <score_type>  (90) 
oracle

>  <origin>  (90) 
adg

>  <m_score__min__energy>  (90) 
-10.58

>  <m_primary>  (90) 
energy

$$$$
90:0
     RDKit          3D

 45 46  0  0  0  0  0  0  0  0999 V2000
  139.4760  146.4890  129.8580 C   0  0  0  0  0  0  0  0  0  0  0  0
  139.6840  147.6380  130.7300 N   0  0  0  0  0  0  0  0  0  0  0  0
  138.8330  148.7910  130.6750 C   0  0  0  0  0  0  0  0  0  0  0  0
  137.8840  148.8420  129.8450 O   0  0  0  0  0  0  0  0  0  0  0  0
  139.0640  149.9430  131.6060 C   0  0  0  0  0  0  0  0  0  0  0  0
  140.0490  149.5870  132.6240 N   0  0  0  0  0  0  0  0  0  0  0  0
  141.4710  149.7580  132.5280 C   0  0  0  0  0  0  0  0  0  0  0  0
  142.1350  148.9230  131.8580 O   0  0  0  0  0  0  0  0  0  0  0  0
  142.1990  150.9040  133.1840 C   0  0  0  0  0  0  0  0  0  0  0  0
  141.4770  151.3370  134.4700 C   0  0  0  0  0  0  0  0  0  0  0  0
  142.1430  152.5540  135.1250 C   0  0  0  0  0  0  0  0  0  0  0  0
  142.5350  153.5610  134.1330 N   0  0  0  0  0  0  0  0  0  0  0  0
  141.6730  154.6420  133.7300 C   0  0  0  0  0  0  0  0  0  0  0  0
  140.3240  154.4120  133.3440 C   0  0  0  0  0  0  0  0  0  0  0  0
  139.4930  155.4810  132.9750 C   0  0  0  0  0  0  0  0  0  0  0  0
  140.0280  156.7650  132.9950 C   0  0  0  0  0  0  0  0  0  0  0  0
  139.4330  157.9740  132.7260 C   0  0  0  0  0  0  0  0  0  0  0  0
  140.4290  158.9280  132.9260 C   0  0  0  0  0  0  0  0  0  0  0  0
  140.2350  160.3700  132.6780 C   0  0  0  0  0  0  0  0  0  0  0  0
  139.1950  160.8070  131.8070 N   0  0  0  0  0  0  0  0  0  0  0  0
  141.0030  161.2220  133.1970 O   0  0  0  0  0  0  0  0  0  0  0  0
  141.5930  158.3320  133.3080 N   0  0  0  0  0  0  0  0  0  0  0  0
  142.8170  158.9730  133.7060 C   0  0  0  0  0  0  0  0  0  0  0  0
  142.8470  159.7130  134.7240 O   0  0  0  0  0  0  0  0  0  0  0  0
  143.9730  158.8000  132.9560 O   0  0  0  0  0  0  0  0  0  0  0  0
  141.3320  157.0060  133.3440 C   0  0  0  0  0  0  0  0  0  0  0  0
  142.1800  155.9620  133.7290 C   0  0  0  0  0  0  0  0  0  0  0  0
  139.3131  145.5893  130.4696 H   0  0  0  0  0  0  0  0  0  0  0  0
  138.5952  146.6652  129.2231 H   0  0  0  0  0  0  0  0  0  0  0  0
  140.3627  146.3452  129.2231 H   0  0  0  0  0  0  0  0  0  0  0  0
  140.4720  147.6150  131.4160 H   0  0  0  0  0  0  0  0  0  0  0  0
  139.4328  150.8051  131.0309 H   0  0  0  0  0  0  0  0  0  0  0  0
  138.1152  150.1963  132.1015 H   0  0  0  0  0  0  0  0  0  0  0  0
  143.2225  150.5872  133.4330 H   0  0  0  0  0  0  0  0  0  0  0  0
  142.2235  151.7546  132.4870 H   0  0  0  0  0  0  0  0  0  0  0  0
  140.4360  151.5926  134.2232 H   0  0  0  0  0  0  0  0  0  0  0  0
  141.5248  150.5006  135.1829 H   0  0  0  0  0  0  0  0  0  0  0  0
  141.4350  153.0089  135.8333 H   0  0  0  0  0  0  0  0  0  0  0  0
  143.0520  152.2099  135.6401 H   0  0  0  0  0  0  0  0  0  0  0  0
  143.4870  153.5090  133.7050 H   0  0  0  0  0  0  0  0  0  0  0  0
  139.9278  153.3859  133.3345 H   0  0  0  0  0  0  0  0  0  0  0  0
  138.4479  155.3085  132.6783 H   0  0  0  0  0  0  0  0  0  0  0  0
  138.3919  158.1512  132.4182 H   0  0  0  0  0  0  0  0  0  0  0  0
  138.3770  161.3430  132.1770 H   0  0  0  0  0  0  0  0  0  0  0  0
  143.2200  156.1639  134.0249 H   0  0  0  0  0  0  0  0  0  0  0  0
  1  2  1  0
  2  3  1  0
  3  4  2  0
  3  5  1  0
  5  6  1  0
  6  7  1  0
  7  8  2  0
  7  9  1  0
  9 10  1  0
 10 11  1  0
 11 12  1  0
 12 13  1  0
 13 14  2  0
 14 15  1  0
 15 16  2  0
 16 17  1  0
 17 18  2  0
 18 19  1  0
 19 20  1  0
 19 21  2  0
 18 22  1  0
 22 23  1  0
 23 24  2  0
 23 25  1  0
 22 26  1  0
 26 27  2  0
 27 13  1  0
 26 16  1  0
  1 28  1  0
  1 29  1  0
  1 30  1  0
  2 31  1  0
  5 32  1  0
  5 33  1  0
  9 34  1  0
  9 35  1  0
 10 36  1  0
 10 37  1  0
 11 38  1  0
 11 39  1  0
 12 40  1  0
 14 41  1  0
 15 42  1  0
 17 43  1  0
 20 44  1  0
 27 45  1  0
M  CHG  3   6  -1  20  -1  25  -1
M  END
>  <UniqueID>  (91) 
89

>  <SMILES>  (91) 
CNC(=O)C[N-]C(=O)CCCNc1ccc2cc(C([NH-])=O)n(C(=O)[O-])c2c1

>  <Energy>  (91) 
74.55248434812528

>  <Genealogy>  (91) 
CNC(=O)C[N-]C(=O)CCCNc1ccc2cc(C([NH-])=O)n(C(=O)[O-])c2c1 (protonated)
CNC(=O)C[N-]C(=O)CCCNc1ccc2cc(C([NH-])=O)n(C(=O)[O-])c2c1 (3D coordinates assigned)
CNC(=O)C[N-]C(=O)CCCNc1ccc2cc(C([NH-])=O)n(C(=O)[O-])c2c1 (optimized conformer: 74.55248434812528 kcal/mol)

>  <smiles>  (91) 
CNC(=O)CNC(=O)CCCNc1ccc2cc(C(N)=O)n(C(=O)O)c2c1

>  <score_type>  (91) 
oracle

>  <origin>  (91) 
adg

>  <m_score__min__energy>  (91) 
-7.21

>  <m_primary>  (91) 
energy

$$$$
91:0
     RDKit          3D

 42 44  0  0  0  0  0  0  0  0999 V2000
  149.0410  158.3380  131.5090 N   0  0  0  0  0  0  0  0  0  0  0  0
  148.6680  158.8390  132.7900 C   0  0  0  0  0  0  0  0  0  0  0  0
  149.5610  159.0590  133.6530 O   0  0  0  0  0  0  0  0  0  0  0  0
  147.2430  159.0640  133.1110 C   0  0  0  0  0  0  0  0  0  0  0  0
  146.6840  160.3170  133.3620 C   0  0  0  0  0  0  0  0  0  0  0  0
  145.3420  160.0810  133.5780 C   0  0  0  0  0  0  0  0  0  0  0  0
  144.3080  160.9640  133.8750 C   0  0  0  0  0  0  0  0  0  0  0  0
  143.0190  160.4330  134.0560 C   0  0  0  0  0  0  0  0  0  0  0  0
  142.7850  159.0360  133.9410 C   0  0  0  0  0  0  0  0  0  0  0  0
  141.4620  158.4960  134.1350 N   0  0  0  0  0  0  0  0  0  0  0  0
  140.6460  158.1310  132.9690 C   0  0  0  0  0  0  0  0  0  0  0  0
  139.1590  158.2290  133.3240 C   0  0  0  0  0  0  0  0  0  0  0  0
  138.8740  157.4890  134.4970 O   0  0  0  0  0  0  0  0  0  0  0  0
  139.5400  158.0720  135.6030 C   0  0  0  0  0  0  0  0  0  0  0  0
  141.0610  157.9650  135.4430 C   0  0  0  0  0  0  0  0  0  0  0  0
  143.8610  158.1750  133.6290 C   0  0  0  0  0  0  0  0  0  0  0  0
  145.1300  158.7330  133.4550 C   0  0  0  0  0  0  0  0  0  0  0  0
  146.2850  158.0990  133.1700 N   0  0  0  0  0  0  0  0  0  0  0  0
  146.4510  156.6870  132.9900 C   0  0  0  0  0  0  0  0  0  0  0  0
  147.0310  156.2640  131.9560 O   0  0  0  0  0  0  0  0  0  0  0  0
  145.8920  155.7520  133.9930 C   0  0  0  0  0  0  0  0  0  0  0  0
  144.9290  155.0160  133.6550 O   0  0  0  0  0  0  0  0  0  0  0  0
  146.4050  155.6290  135.3300 N   0  0  0  0  0  0  0  0  0  0  0  0
  147.7450  155.2120  135.7250 C   0  0  0  0  0  0  0  0  0  0  0  0
  147.6790  153.9820  136.5760 C   0  0  0  0  0  0  0  0  0  0  0  0
  146.5930  153.3600  136.7070 O   0  0  0  0  0  0  0  0  0  0  0  0
  148.8210  153.5210  137.2200 O   0  0  0  0  0  0  0  0  0  0  0  0
  148.5940  157.4800  131.1180 H   0  0  0  0  0  0  0  0  0  0  0  0
  147.2027  161.2868  133.3832 H   0  0  0  0  0  0  0  0  0  0  0  0
  144.4937  162.0444  133.9653 H   0  0  0  0  0  0  0  0  0  0  0  0
  142.1815  161.1069  134.2894 H   0  0  0  0  0  0  0  0  0  0  0  0
  140.8689  158.8168  132.1383 H   0  0  0  0  0  0  0  0  0  0  0  0
  140.8806  157.0985  132.6709 H   0  0  0  0  0  0  0  0  0  0  0  0
  138.8963  159.2842  133.4902 H   0  0  0  0  0  0  0  0  0  0  0  0
  138.5693  157.8149  132.4929 H   0  0  0  0  0  0  0  0  0  0  0  0
  139.2590  159.1331  135.6744 H   0  0  0  0  0  0  0  0  0  0  0  0
  139.2435  157.5343  136.5156 H   0  0  0  0  0  0  0  0  0  0  0  0
  141.5534  158.5435  136.2385 H   0  0  0  0  0  0  0  0  0  0  0  0
  141.3601  156.9088  135.5133 H   0  0  0  0  0  0  0  0  0  0  0  0
  143.7033  157.0913  133.5256 H   0  0  0  0  0  0  0  0  0  0  0  0
  148.3384  154.9979  134.8239 H   0  0  0  0  0  0  0  0  0  0  0  0
  148.2147  156.0213  136.3033 H   0  0  0  0  0  0  0  0  0  0  0  0
  1  2  1  0
  2  3  2  0
  2  4  1  0
  4  5  2  0
  5  6  1  0
  6  7  2  0
  7  8  1  0
  8  9  2  0
  9 10  1  0
 10 11  1  0
 11 12  1  0
 12 13  1  0
 13 14  1  0
 14 15  1  0
  9 16  1  0
 16 17  2  0
 17 18  1  0
 18 19  1  0
 19 20  2  0
 19 21  1  0
 21 22  2  0
 21 23  1  0
 23 24  1  0
 24 25  1  0
 25 26  2  0
 25 27  1  0
 18  4  1  0
 17  6  1  0
 15 10  1  0
  1 28  1  0
  5 29  1  0
  7 30  1  0
  8 31  1  0
 11 32  1  0
 11 33  1  0
 12 34  1  0
 12 35  1  0
 14 36  1  0
 14 37  1  0
 15 38  1  0
 15 39  1  0
 16 40  1  0
 24 41  1  0
 24 42  1  0
M  CHG  3   1  -1  23  -1  27  -1
M  END
>  <UniqueID>  (92) 
90

>  <SMILES>  (92) 
[NH-]C(=O)c1cc2ccc(N3CCOCC3)cc2n1C(=O)C(=O)[N-]CC(=O)[O-]

>  <Energy>  (92) 
88.36681248938721

>  <Genealogy>  (92) 
[NH-]C(=O)c1cc2ccc(N3CCOCC3)cc2n1C(=O)C(=O)[N-]CC(=O)[O-] (protonated)
[NH-]C(=O)c1cc2ccc(N3CCOCC3)cc2n1C(=O)C(=O)[N-]CC(=O)[O-] (3D coordinates assigned)
[NH-]C(=O)c1cc2ccc(N3CCOCC3)cc2n1C(=O)C(=O)[N-]CC(=O)[O-] (nonaromatic ring conformer: 88.36681248938721 kcal/mol)

>  <smiles>  (92) 
NC(=O)c1cc2ccc(N3CCOCC3)cc2n1C(=O)C(=O)NCC(=O)O

>  <score_type>  (92) 
oracle

>  <origin>  (92) 
adg

>  <m_score__min__energy>  (92) 
-7.5800000000000001

>  <m_primary>  (92) 
energy

$$$$
92:0
     RDKit          3D

 46 48  0  0  0  0  0  0  0  0999 V2000
  139.6490  159.9170  132.4850 N   0  0  0  0  0  0  0  0  0  0  0  0
  138.9570  158.6790  132.6780 C   0  0  0  0  0  0  0  0  0  0  0  0
  137.7440  158.6060  132.3560 O   0  0  0  0  0  0  0  0  0  0  0  0
  139.6620  157.5220  133.2780 C   0  0  0  0  0  0  0  0  0  0  0  0
  139.8160  156.3040  132.6210 C   0  0  0  0  0  0  0  0  0  0  0  0
  140.5920  155.5410  133.4590 C   0  0  0  0  0  0  0  0  0  0  0  0
  141.0070  154.2170  133.3380 C   0  0  0  0  0  0  0  0  0  0  0  0
  141.7310  153.6570  134.4000 C   0  0  0  0  0  0  0  0  0  0  0  0
  142.0350  154.4240  135.5540 C   0  0  0  0  0  0  0  0  0  0  0  0
  142.7950  153.8110  136.6990 C   0  0  0  0  0  0  0  0  0  0  0  0
  142.4510  154.4410  137.8850 F   0  0  0  0  0  0  0  0  0  0  0  0
  144.1600  153.9490  136.4900 F   0  0  0  0  0  0  0  0  0  0  0  0
  141.5980  155.7600  135.6460 C   0  0  0  0  0  0  0  0  0  0  0  0
  140.8810  156.2930  134.5730 C   0  0  0  0  0  0  0  0  0  0  0  0
  140.3120  157.5160  134.4720 N   0  0  0  0  0  0  0  0  0  0  0  0
  140.3310  158.5470  135.4720 C   0  0  0  0  0  0  0  0  0  0  0  0
  139.8060  158.3330  136.6070 O   0  0  0  0  0  0  0  0  0  0  0  0
  140.9150  159.7860  135.1660 O   0  0  0  0  0  0  0  0  0  0  0  0
  142.0890  159.9590  134.4180 C   0  0  0  0  0  0  0  0  0  0  0  0
  142.1930  160.8780  133.5530 O   0  0  0  0  0  0  0  0  0  0  0  0
  143.1780  159.1290  134.6910 O   0  0  0  0  0  0  0  0  0  0  0  0
  144.1410  158.7650  133.7110 C   0  0  0  0  0  0  0  0  0  0  0  0
  143.7490  157.4720  133.0380 C   0  0  0  0  0  0  0  0  0  0  0  0
  142.7620  157.4890  132.2480 O   0  0  0  0  0  0  0  0  0  0  0  0
  144.4810  156.2400  133.2480 N   0  0  0  0  0  0  0  0  0  0  0  0
  145.5610  156.1840  134.2560 C   0  0  0  0  0  0  0  0  0  0  0  0
  146.0780  154.7660  134.4950 C   0  0  0  0  0  0  0  0  0  0  0  0
  146.1520  154.0370  133.2890 O   0  0  0  0  0  0  0  0  0  0  0  0
  144.8440  153.8260  132.8050 C   0  0  0  0  0  0  0  0  0  0  0  0
  144.2590  155.1380  132.2980 C   0  0  0  0  0  0  0  0  0  0  0  0
  140.1000  160.4150  133.2870 H   0  0  0  0  0  0  0  0  0  0  0  0
  139.4050  156.0153  131.6424 H   0  0  0  0  0  0  0  0  0  0  0  0
  140.7741  153.6293  132.4378 H   0  0  0  0  0  0  0  0  0  0  0  0
  142.0670  152.6114  134.3377 H   0  0  0  0  0  0  0  0  0  0  0  0
  142.5390  152.7430  136.7612 H   0  0  0  0  0  0  0  0  0  0  0  0
  141.8155  156.3661  136.5378 H   0  0  0  0  0  0  0  0  0  0  0  0
  144.2064  159.5612  132.9548 H   0  0  0  0  0  0  0  0  0  0  0  0
  145.1150  158.6282  134.2035 H   0  0  0  0  0  0  0  0  0  0  0  0
  146.3974  156.8088  133.9095 H   0  0  0  0  0  0  0  0  0  0  0  0
  145.1446  156.5483  135.2067 H   0  0  0  0  0  0  0  0  0  0  0  0
  147.0814  154.8211  134.9425 H   0  0  0  0  0  0  0  0  0  0  0  0
  145.3786  154.2507  135.1698 H   0  0  0  0  0  0  0  0  0  0  0  0
  144.8733  153.0976  131.9812 H   0  0  0  0  0  0  0  0  0  0  0  0
  144.2145  153.4409  133.6207 H   0  0  0  0  0  0  0  0  0  0  0  0
  144.7349  155.3930  131.3396 H   0  0  0  0  0  0  0  0  0  0  0  0
  143.1738  155.0041  132.1779 H   0  0  0  0  0  0  0  0  0  0  0  0
  1  2  1  0
  2  3  2  0
  2  4  1  0
  4  5  2  0
  5  6  1  0
  6  7  2  0
  7  8  1  0
  8  9  2  0
  9 10  1  0
 10 11  1  0
 10 12  1  0
  9 13  1  0
 13 14  2  0
 14 15  1  0
 15 16  1  0
 16 17  2  0
 16 18  1  0
 18 19  1  0
 19 20  2  0
 19 21  1  0
 21 22  1  0
 22 23  1  0
 23 24  2  0
 23 25  1  0
 25 26  1  0
 26 27  1  0
 27 28  1  0
 28 29  1  0
 29 30  1  0
 15  4  1  0
 30 25  1  0
 14  6  1  0
  1 31  1  0
  5 32  1  0
  7 33  1  0
  8 34  1  0
 10 35  1  0
 13 36  1  0
 22 37  1  0
 22 38  1  0
 26 39  1  0
 26 40  1  0
 27 41  1  0
 27 42  1  0
 29 43  1  0
 29 44  1  0
 30 45  1  0
 30 46  1  0
M  CHG  1   1  -1
M  END
>  <UniqueID>  (93) 
91

>  <SMILES>  (93) 
[NH-]C(=O)c1cc2ccc(C(F)F)cc2n1C(=O)OC(=O)OCC(=O)N1CCOCC1

>  <Energy>  (93) 
88.16867888051797

>  <Genealogy>  (93) 
[NH-]C(=O)c1cc2ccc(C(F)F)cc2n1C(=O)OC(=O)OCC(=O)N1CCOCC1 (protonated)
[NH-]C(=O)c1cc2ccc(C(F)F)cc2n1C(=O)OC(=O)OCC(=O)N1CCOCC1 (3D coordinates assigned)
[NH-]C(=O)c1cc2ccc(C(F)F)cc2n1C(=O)OC(=O)OCC(=O)N1CCOCC1 (nonaromatic ring conformer: 88.16867888051797 kcal/mol)

>  <smiles>  (93) 
NC(=O)c1cc2ccc(C(F)F)cc2n1C(=O)OC(=O)OCC(=O)N1CCOCC1

>  <score_type>  (93) 
oracle

>  <origin>  (93) 
adg

>  <m_score__min__energy>  (93) 
-7.0199999999999996

>  <m_primary>  (93) 
energy

$$$$
93:0
     RDKit          3D

 40 41  0  0  0  0  0  0  0  0999 V2000
  141.7240  149.3840  132.4130 C   0  0  0  0  0  0  0  0  0  0  0  0
  140.9190  150.3230  133.1160 O   0  0  0  0  0  0  0  0  0  0  0  0
  141.4390  151.1860  134.0850 C   0  0  0  0  0  0  0  0  0  0  0  0
  141.0520  151.1140  135.2850 O   0  0  0  0  0  0  0  0  0  0  0  0
  142.4200  152.2470  133.6910 C   0  0  0  0  0  0  0  0  0  0  0  0
  143.6510  151.6700  133.2580 O   0  0  0  0  0  0  0  0  0  0  0  0
  144.6550  152.3960  132.6100 C   0  0  0  0  0  0  0  0  0  0  0  0
  145.7990  151.8970  132.4300 O   0  0  0  0  0  0  0  0  0  0  0  0
  144.3800  153.7930  132.1540 C   0  0  0  0  0  0  0  0  0  0  0  0
  144.5910  154.7120  133.2240 O   0  0  0  0  0  0  0  0  0  0  0  0
  145.8050  154.8280  133.9090 C   0  0  0  0  0  0  0  0  0  0  0  0
  146.0010  154.1830  134.9750 O   0  0  0  0  0  0  0  0  0  0  0  0
  146.8410  155.6710  133.3790 N   0  0  0  0  0  0  0  0  0  0  0  0
  148.1050  155.3080  133.0200 C   0  0  0  0  0  0  0  0  0  0  0  0
  148.6170  153.9260  132.9160 C   0  0  0  0  0  0  0  0  0  0  0  0
  148.1770  152.9110  133.8150 N   0  0  0  0  0  0  0  0  0  0  0  0
  149.4140  153.6240  131.9890 O   0  0  0  0  0  0  0  0  0  0  0  0
  148.8530  156.4300  132.6680 C   0  0  0  0  0  0  0  0  0  0  0  0
  148.0000  157.5000  132.8170 C   0  0  0  0  0  0  0  0  0  0  0  0
  148.2240  158.8600  132.6130 C   0  0  0  0  0  0  0  0  0  0  0  0
  147.1670  159.7490  132.8760 C   0  0  0  0  0  0  0  0  0  0  0  0
  145.9210  159.2670  133.3490 C   0  0  0  0  0  0  0  0  0  0  0  0
  144.7970  160.2300  133.6030 C   0  0  0  0  0  0  0  0  0  0  0  0
  145.7240  157.8790  133.5320 C   0  0  0  0  0  0  0  0  0  0  0  0
  146.7890  157.0150  133.2450 C   0  0  0  0  0  0  0  0  0  0  0  0
  142.2650  148.7529  133.1334 H   0  0  0  0  0  0  0  0  0  0  0  0
  141.0828  148.7520  131.7810 H   0  0  0  0  0  0  0  0  0  0  0  0
  142.4466  149.9211  131.7810 H   0  0  0  0  0  0  0  0  0  0  0  0
  141.9943  152.8438  132.8708 H   0  0  0  0  0  0  0  0  0  0  0  0
  142.6196  152.8822  134.5666 H   0  0  0  0  0  0  0  0  0  0  0  0
  145.0550  154.0430  131.3222 H   0  0  0  0  0  0  0  0  0  0  0  0
  143.3333  153.8625  131.8229 H   0  0  0  0  0  0  0  0  0  0  0  0
  147.1650  152.6760  133.9040 H   0  0  0  0  0  0  0  0  0  0  0  0
  149.9028  156.4552  132.3404 H   0  0  0  0  0  0  0  0  0  0  0  0
  149.1980  159.2269  132.2571 H   0  0  0  0  0  0  0  0  0  0  0  0
  147.3083  160.8277  132.7133 H   0  0  0  0  0  0  0  0  0  0  0  0
  144.6558  160.3510  134.6872 H   0  0  0  0  0  0  0  0  0  0  0  0
  145.0403  161.2042  133.1539 H   0  0  0  0  0  0  0  0  0  0  0  0
  143.8716  159.8401  133.1539 H   0  0  0  0  0  0  0  0  0  0  0  0
  144.7603  157.4878  133.8901 H   0  0  0  0  0  0  0  0  0  0  0  0
  1  2  1  0
  2  3  1  0
  3  4  2  0
  3  5  1  0
  5  6  1  0
  6  7  1  0
  7  8  2  0
  7  9  1  0
  9 10  1  0
 10 11  1  0
 11 12  2  0
 11 13  1  0
 13 14  1  0
 14 15  1  0
 15 16  1  0
 15 17  2  0
 14 18  2  0
 18 19  1  0
 19 20  2  0
 20 21  1  0
 21 22  2  0
 22 23  1  0
 22 24  1  0
 24 25  2  0
 25 13  1  0
 25 19  1  0
  1 26  1  0
  1 27  1  0
  1 28  1  0
  5 29  1  0
  5 30  1  0
  9 31  1  0
  9 32  1  0
 16 33  1  0
 18 34  1  0
 20 35  1  0
 21 36  1  0
 23 37  1  0
 23 38  1  0
 23 39  1  0
 24 40  1  0
M  CHG  1  16  -1
M  END
>  <UniqueID>  (94) 
92

>  <SMILES>  (94) 
COC(=O)COC(=O)COC(=O)n1c(C([NH-])=O)cc2ccc(C)cc21

>  <Energy>  (94) 
71.47808327860936

>  <Genealogy>  (94) 
COC(=O)COC(=O)COC(=O)n1c(C([NH-])=O)cc2ccc(C)cc21 (protonated)
COC(=O)COC(=O)COC(=O)n1c(C([NH-])=O)cc2ccc(C)cc21 (3D coordinates assigned)
COC(=O)COC(=O)COC(=O)n1c(C([NH-])=O)cc2ccc(C)cc21 (optimized conformer: 71.47808327860936 kcal/mol)

>  <smiles>  (94) 
COC(=O)COC(=O)COC(=O)n1c(C(N)=O)cc2ccc(C)cc21

>  <score_type>  (94) 
oracle

>  <origin>  (94) 
adg

>  <m_score__min__energy>  (94) 
-5.9000000000000004

>  <m_primary>  (94) 
energy

$$$$
94:0
     RDKit          3D

 34 35  0  0  0  0  0  0  0  0999 V2000
  139.3650  155.7540  133.1500 N   0  0  0  0  0  0  0  0  0  0  0  0
  139.8640  156.9410  133.7590 C   0  0  0  0  0  0  0  0  0  0  0  0
  139.0780  157.6810  134.4060 O   0  0  0  0  0  0  0  0  0  0  0  0
  141.3010  157.2720  133.6560 C   0  0  0  0  0  0  0  0  0  0  0  0
  142.3230  156.3610  133.9170 C   0  0  0  0  0  0  0  0  0  0  0  0
  143.4910  157.0810  133.8000 C   0  0  0  0  0  0  0  0  0  0  0  0
  144.8150  156.6730  133.9420 C   0  0  0  0  0  0  0  0  0  0  0  0
  145.8240  157.6290  133.7380 C   0  0  0  0  0  0  0  0  0  0  0  0
  145.4940  158.9670  133.4020 C   0  0  0  0  0  0  0  0  0  0  0  0
  146.5830  159.9690  133.1430 C   0  0  0  0  0  0  0  0  0  0  0  0
  148.1910  159.1300  132.9960 P   0  0  2  0  0  0  0  0  0  0  0  0
  149.2390  160.1110  132.5220 O   0  0  0  0  0  0  0  0  0  0  0  0
  148.0680  157.8620  131.8840 O   0  0  0  0  0  0  0  0  0  0  0  0
  148.6420  158.5080  134.5030 O   0  0  0  0  0  0  0  0  0  0  0  0
  144.1400  159.3420  133.2580 C   0  0  0  0  0  0  0  0  0  0  0  0
  143.1570  158.3700  133.4770 C   0  0  0  0  0  0  0  0  0  0  0  0
  141.8180  158.5030  133.3790 N   0  0  0  0  0  0  0  0  0  0  0  0
  141.1140  159.6950  133.0000 C   0  0  0  0  0  0  0  0  0  0  0  0
  141.3180  160.7650  133.6350 O   0  0  0  0  0  0  0  0  0  0  0  0
  140.2010  159.6770  131.8400 C   0  0  0  0  0  0  0  0  0  0  0  0
  138.9530  160.1600  131.9040 C   0  0  0  0  0  0  0  0  0  0  0  0
  138.0440  160.1400  130.7470 C   0  0  0  0  0  0  0  0  0  0  0  0
  138.4430  160.4630  129.5960 O   0  0  0  0  0  0  0  0  0  0  0  0
  136.7210  159.7580  130.9270 O   0  0  0  0  0  0  0  0  0  0  0  0
  138.3460  155.6410  132.9470 H   0  0  0  0  0  0  0  0  0  0  0  0
  142.2188  155.2941  134.1639 H   0  0  0  0  0  0  0  0  0  0  0  0
  145.0630  155.6343  134.2057 H   0  0  0  0  0  0  0  0  0  0  0  0
  146.8797  157.3372  133.8398 H   0  0  0  0  0  0  0  0  0  0  0  0
  146.3670  160.5060  132.2076 H   0  0  0  0  0  0  0  0  0  0  0  0
  146.6246  160.6776  133.9833 H   0  0  0  0  0  0  0  0  0  0  0  0
  149.4600  157.9780  134.3250 H   0  0  0  0  0  0  0  0  0  0  0  0
  143.8653  160.3705  132.9811 H   0  0  0  0  0  0  0  0  0  0  0  0
  140.5578  159.2523  130.8901 H   0  0  0  0  0  0  0  0  0  0  0  0
  138.5959  160.5858  132.8533 H   0  0  0  0  0  0  0  0  0  0  0  0
  1  2  1  0
  2  3  2  0
  2  4  1  0
  4  5  2  0
  5  6  1  0
  6  7  2  0
  7  8  1  0
  8  9  2  0
  9 10  1  0
 10 11  1  0
 11 12  2  0
 11 13  1  6
 11 14  1  0
  9 15  1  0
 15 16  2  0
 16 17  1  0
 17 18  1  0
 18 19  2  0
 18 20  1  0
 20 21  2  3
 21 22  1  0
 22 23  2  0
 22 24  1  0
 17  4  1  0
 16  6  1  0
  1 25  1  0
  5 26  1  0
  7 27  1  0
  8 28  1  0
 10 29  1  0
 10 30  1  0
 14 31  1  0
 15 32  1  0
 20 33  1  0
 21 34  1  0
M  CHG  3   1  -1  13  -1  24  -1
M  END
>  <UniqueID>  (95) 
93

>  <SMILES>  (95) 
[NH-]C(=O)c1cc2ccc(C[P@](=O)([O-])O)cc2n1C(=O)C=CC(=O)[O-]

>  <Energy>  (95) 
66.33741775570795

>  <Genealogy>  (95) 
[NH-]C(=O)c1cc2ccc(CP(=O)([O-])O)cc2n1C(=O)C=CC(=O)[O-] (protonated)
[NH-]C(=O)c1cc2ccc(C[P@](=O)([O-])O)cc2n1C(=O)C=CC(=O)[O-] (chirality)
[NH-]C(=O)c1cc2ccc(C[P@](=O)([O-])O)cc2n1C(=O)C=CC(=O)[O-] (3D coordinates assigned)
[NH-]C(=O)c1cc2ccc(C[P@](=O)([O-])O)cc2n1C(=O)C=CC(=O)[O-] (optimized conformer: 66.33741775570795 kcal/mol)

>  <smiles>  (95) 
NC(=O)c1cc2ccc(CP(=O)(O)O)cc2n1C(=O)C=CC(=O)O

>  <score_type>  (95) 
oracle

>  <origin>  (95) 
adg

>  <m_score__min__energy>  (95) 
-7.5300000000000002

>  <m_primary>  (95) 
energy

$$$$
95:0
     RDKit          3D

 49 51  0  0  0  0  0  0  0  0999 V2000
  149.5850  151.8900  132.5310 C   0  0  0  0  0  0  0  0  0  0  0  0
  149.5890  153.2980  132.3220 O   0  0  0  0  0  0  0  0  0  0  0  0
  148.4810  154.1050  132.5910 C   0  0  0  0  0  0  0  0  0  0  0  0
  148.6410  155.4900  132.6620 C   0  0  0  0  0  0  0  0  0  0  0  0
  147.5350  156.2970  132.9300 C   0  0  0  0  0  0  0  0  0  0  0  0
  146.2680  155.7210  133.1260 C   0  0  0  0  0  0  0  0  0  0  0  0
  145.0810  156.5670  133.4080 C   0  0  0  0  0  0  0  0  0  0  0  0
  145.2280  157.9600  133.6470 C   0  0  0  0  0  0  0  0  0  0  0  0
  144.1090  158.7680  133.9020 C   0  0  0  0  0  0  0  0  0  0  0  0
  142.8580  158.1630  133.9290 C   0  0  0  0  0  0  0  0  0  0  0  0
  141.6090  158.7150  134.1090 C   0  0  0  0  0  0  0  0  0  0  0  0
  140.7180  157.6490  134.0130 C   0  0  0  0  0  0  0  0  0  0  0  0
  139.2580  157.7890  134.1790 C   0  0  0  0  0  0  0  0  0  0  0  0
  138.3490  157.3430  133.1710 N   0  0  0  0  0  0  0  0  0  0  0  0
  138.8010  158.2680  135.2520 O   0  0  0  0  0  0  0  0  0  0  0  0
  141.3860  156.4870  133.7760 N   0  0  0  0  0  0  0  0  0  0  0  0
  140.8210  155.1930  133.5040 C   0  0  0  0  0  0  0  0  0  0  0  0
  139.5750  155.0830  133.3430 O   0  0  0  0  0  0  0  0  0  0  0  0
  141.6720  154.0380  133.4410 N   0  0  0  0  0  0  0  0  0  0  0  0
  141.2370  152.7420  132.9930 C   0  0  0  0  0  0  0  0  0  0  0  0
  140.0440  152.5690  132.6270 O   0  0  0  0  0  0  0  0  0  0  0  0
  142.2060  151.6220  132.9200 C   0  0  0  0  0  0  0  0  0  0  0  0
  143.4280  151.8760  133.1070 O   0  0  0  0  0  0  0  0  0  0  0  0
  141.8060  150.2620  132.6330 N   0  0  0  0  0  0  0  0  0  0  0  0
  142.8300  149.2990  132.2180 C   0  0  0  0  0  0  0  0  0  0  0  0
  140.4270  149.8080  132.8430 C   0  0  0  0  0  0  0  0  0  0  0  0
  142.6950  156.8170  133.7250 C   0  0  0  0  0  0  0  0  0  0  0  0
  143.7880  155.9920  133.4370 C   0  0  0  0  0  0  0  0  0  0  0  0
  146.1550  154.3220  133.0440 C   0  0  0  0  0  0  0  0  0  0  0  0
  147.2480  153.5580  132.7840 N   0  0  0  0  0  0  0  0  0  0  0  0
  149.5844  151.6796  133.6107 H   0  0  0  0  0  0  0  0  0  0  0  0
  148.6856  151.4537  132.0719 H   0  0  0  0  0  0  0  0  0  0  0  0
  150.4819  151.4486  132.0719 H   0  0  0  0  0  0  0  0  0  0  0  0
  149.6320  155.9418  132.5078 H   0  0  0  0  0  0  0  0  0  0  0  0
  147.6551  157.3889  132.9881 H   0  0  0  0  0  0  0  0  0  0  0  0
  146.2313  158.4107  133.6320 H   0  0  0  0  0  0  0  0  0  0  0  0
  144.2189  159.8487  134.0754 H   0  0  0  0  0  0  0  0  0  0  0  0
  141.3668  159.7726  134.2900 H   0  0  0  0  0  0  0  0  0  0  0  0
  138.6780  156.7760  132.3600 H   0  0  0  0  0  0  0  0  0  0  0  0
  137.3230  157.4990  133.2870 H   0  0  0  0  0  0  0  0  0  0  0  0
  142.6620  154.1540  133.7520 H   0  0  0  0  0  0  0  0  0  0  0  0
  143.3001  148.8569  133.1088 H   0  0  0  0  0  0  0  0  0  0  0  0
  142.3639  148.5044  131.6169 H   0  0  0  0  0  0  0  0  0  0  0  0
  143.5945  149.8129  131.6169 H   0  0  0  0  0  0  0  0  0  0  0  0
  140.2233  149.7409  133.9219 H   0  0  0  0  0  0  0  0  0  0  0  0
  139.7309  150.5244  132.3823 H   0  0  0  0  0  0  0  0  0  0  0  0
  140.2927  148.8182  132.3823 H   0  0  0  0  0  0  0  0  0  0  0  0
  143.6454  154.9197  133.2374 H   0  0  0  0  0  0  0  0  0  0  0  0
  145.1757  153.8431  133.1913 H   0  0  0  0  0  0  0  0  0  0  0  0
  1  2  1  0
  2  3  1  0
  3  4  2  0
  4  5  1  0
  5  6  2  0
  6  7  1  0
  7  8  2  0
  8  9  1  0
  9 10  2  0
 10 11  1  0
 11 12  2  0
 12 13  1  0
 13 14  1  0
 13 15  2  0
 12 16  1  0
 16 17  1  0
 17 18  2  0
 17 19  1  0
 19 20  1  0
 20 21  2  0
 20 22  1  0
 22 23  2  0
 22 24  1  0
 24 25  1  0
 24 26  1  0
 16 27  1  0
 27 28  2  0
  6 29  1  0
 29 30  2  0
 30  3  1  0
 28  7  1  0
 27 10  1  0
  1 31  1  0
  1 32  1  0
  1 33  1  0
  4 34  1  0
  5 35  1  0
  8 36  1  0
  9 37  1  0
 11 38  1  0
 14 39  1  0
 14 40  1  0
 19 41  1  0
 25 42  1  0
 25 43  1  0
 25 44  1  0
 26 45  1  0
 26 46  1  0
 26 47  1  0
 28 48  1  0
 29 49  1  0
M  END
>  <UniqueID>  (96) 
94

>  <SMILES>  (96) 
COc1ccc(-c2ccc3cc(C(N)=O)n(C(=O)NC(=O)C(=O)N(C)C)c3c2)cn1

>  <Energy>  (96) 
94.82202435998703

>  <Genealogy>  (96) 
COc1ccc(-c2ccc3cc(C(N)=O)n(C(=O)NC(=O)C(=O)N(C)C)c3c2)cn1 (3D coordinates assigned)
COc1ccc(-c2ccc3cc(C(N)=O)n(C(=O)NC(=O)C(=O)N(C)C)c3c2)cn1 (optimized conformer: 94.82202435998703 kcal/mol)

>  <smiles>  (96) 
COc1ccc(-c2ccc3cc(C(N)=O)n(C(=O)NC(=O)C(=O)N(C)C)c3c2)cn1

>  <score_type>  (96) 
oracle

>  <origin>  (96) 
adg

>  <m_score__min__energy>  (96) 
-8.8200000000000003

>  <m_primary>  (96) 
energy

$$$$
96:0
     RDKit          3D

 46 48  0  0  0  0  0  0  0  0999 V2000
  139.1560  149.8380  129.6650 C   0  0  0  0  0  0  0  0  0  0  0  0
  139.6490  150.5700  130.7800 O   0  0  0  0  0  0  0  0  0  0  0  0
  140.1500  149.9470  131.9300 C   0  0  0  0  0  0  0  0  0  0  0  0
  139.8200  148.7590  132.2040 O   0  0  0  0  0  0  0  0  0  0  0  0
  141.1410  150.6580  132.8160 C   0  0  1  0  0  0  0  0  0  0  0  0
  142.5850  150.2850  132.4650 C   0  0  0  0  0  0  0  0  0  0  0  0
  140.9650  152.1120  132.6990 N   0  0  0  0  0  0  0  0  0  0  0  0
  141.3250  153.0680  133.7190 C   0  0  0  0  0  0  0  0  0  0  0  0
  142.2270  152.7450  134.7710 C   0  0  0  0  0  0  0  0  0  0  0  0
  142.5530  153.6950  135.7540 C   0  0  0  0  0  0  0  0  0  0  0  0
  141.9760  154.9560  135.6620 C   0  0  0  0  0  0  0  0  0  0  0  0
  142.1010  156.0510  136.4870 C   0  0  0  0  0  0  0  0  0  0  0  0
  141.2990  157.0350  135.9160 C   0  0  0  0  0  0  0  0  0  0  0  0
  141.1870  158.4080  136.4490 C   0  0  0  0  0  0  0  0  0  0  0  0
  139.9140  159.0240  136.6510 N   0  0  0  0  0  0  0  0  0  0  0  0
  142.2350  159.0650  136.6880 O   0  0  0  0  0  0  0  0  0  0  0  0
  140.6870  156.5620  134.7930 N   0  0  0  0  0  0  0  0  0  0  0  0
  139.7110  157.2250  133.9730 C   0  0  0  0  0  0  0  0  0  0  0  0
  138.5750  157.4810  134.4550 O   0  0  0  0  0  0  0  0  0  0  0  0
  140.0490  157.6430  132.5920 C   0  0  0  0  0  0  0  0  0  0  0  0
  141.2570  157.8400  132.2950 O   0  0  0  0  0  0  0  0  0  0  0  0
  139.0590  157.8350  131.5740 N   0  0  0  0  0  0  0  0  0  0  0  0
  138.9050  159.0360  130.7620 C   0  0  0  0  0  0  0  0  0  0  0  0
  138.9760  160.3280  131.5560 C   0  0  0  0  0  0  0  0  0  0  0  0
  137.6310  159.7950  131.0840 C   0  0  0  0  0  0  0  0  0  0  0  0
  141.1200  155.2910  134.6470 C   0  0  0  0  0  0  0  0  0  0  0  0
  140.7640  154.3630  133.6630 C   0  0  0  0  0  0  0  0  0  0  0  0
  138.5746  148.9748  130.0211 H   0  0  0  0  0  0  0  0  0  0  0  0
  138.5111  150.4882  129.0557 H   0  0  0  0  0  0  0  0  0  0  0  0
  140.0010  149.4848  129.0557 H   0  0  0  0  0  0  0  0  0  0  0  0
  140.9500  150.3408  133.8518 H   0  0  0  0  0  0  0  0  0  0  0  0
  143.1606  150.1363  133.3905 H   0  0  0  0  0  0  0  0  0  0  0  0
  142.5909  149.3558  131.8762 H   0  0  0  0  0  0  0  0  0  0  0  0
  143.0402  151.0951  131.8762 H   0  0  0  0  0  0  0  0  0  0  0  0
  140.6030  152.4850  131.7900 H   0  0  0  0  0  0  0  0  0  0  0  0
  142.6740  151.7409  134.8153 H   0  0  0  0  0  0  0  0  0  0  0  0
  143.2449  153.4477  136.5726 H   0  0  0  0  0  0  0  0  0  0  0  0
  142.7058  156.1312  137.4023 H   0  0  0  0  0  0  0  0  0  0  0  0
  139.0390  158.5880  136.2850 H   0  0  0  0  0  0  0  0  0  0  0  0
  139.8540  159.9710  137.0860 H   0  0  0  0  0  0  0  0  0  0  0  0
  139.3909  158.6631  129.8483 H   0  0  0  0  0  0  0  0  0  0  0  0
  139.2332  160.3034  132.6252 H   0  0  0  0  0  0  0  0  0  0  0  0
  139.5177  161.2793  131.4480 H   0  0  0  0  0  0  0  0  0  0  0  0
  136.9154  159.3851  131.8120 H   0  0  0  0  0  0  0  0  0  0  0  0
  136.7968  160.2013  130.4932 H   0  0  0  0  0  0  0  0  0  0  0  0
  140.0615  154.6361  132.8618 H   0  0  0  0  0  0  0  0  0  0  0  0
  1  2  1  0
  2  3  1  0
  3  4  2  0
  3  5  1  0
  5  6  1  0
  5  7  1  0
  7  8  1  0
  8  9  2  0
  9 10  1  0
 10 11  2  0
 11 12  1  0
 12 13  2  0
 13 14  1  0
 14 15  1  0
 14 16  2  0
 13 17  1  0
 17 18  1  0
 18 19  2  0
 18 20  1  0
 20 21  2  0
 20 22  1  0
 22 23  1  0
 23 24  1  0
 24 25  1  0
 17 26  1  0
 26 27  2  0
 27  8  1  0
 26 11  1  0
 25 23  1  0
  1 28  1  0
  1 29  1  0
  1 30  1  0
  5 31  1  1
  6 32  1  0
  6 33  1  0
  6 34  1  0
  7 35  1  0
  9 36  1  0
 10 37  1  0
 12 38  1  0
 15 39  1  0
 15 40  1  0
 23 41  1  0
 24 42  1  0
 24 43  1  0
 25 44  1  0
 25 45  1  0
 27 46  1  0
M  CHG  1  22  -1
M  END
>  <UniqueID>  (97) 
95

>  <SMILES>  (97) 
COC(=O)[C@@H](C)Nc1ccc2cc(C(N)=O)n(C(=O)C(=O)[N-]C3CC3)c2c1

>  <Energy>  (97) 
348.5748476226959

>  <Genealogy>  (97) 
COC(=O)C(C)Nc1ccc2cc(C(N)=O)n(C(=O)C(=O)[N-]C3CC3)c2c1 (protonated)
COC(=O)[C@@H](C)Nc1ccc2cc(C(N)=O)n(C(=O)C(=O)[N-]C3CC3)c2c1 (chirality)
COC(=O)[C@@H](C)Nc1ccc2cc(C(N)=O)n(C(=O)C(=O)[N-]C3CC3)c2c1 (3D coordinates assigned)
COC(=O)[C@@H](C)Nc1ccc2cc(C(N)=O)n(C(=O)C(=O)[N-]C3CC3)c2c1 (nonaromatic ring conformer: 348.5748476226959 kcal/mol)

>  <smiles>  (97) 
COC(=O)C(C)Nc1ccc2cc(C(N)=O)n(C(=O)C(=O)NC3CC3)c2c1

>  <score_type>  (97) 
oracle

>  <origin>  (97) 
adg

>  <m_score__min__energy>  (97) 
-8.1099999999999994

>  <m_primary>  (97) 
energy

$$$$
97:0
     RDKit          3D

 42 44  0  0  0  0  0  0  0  0999 V2000
  139.4570  158.1340  132.0310 C   0  0  0  0  0  0  0  0  0  0  0  0
  140.1710  158.2720  133.2950 N   0  0  0  0  0  0  0  0  0  0  0  0
  140.4530  157.1820  134.2080 C   0  0  0  0  0  0  0  0  0  0  0  0
  141.1910  157.8150  135.4160 C   0  0  1  0  0  0  0  0  0  0  0  0
  142.4810  157.1640  135.6490 N   0  0  0  0  0  0  0  0  0  0  0  0
  143.5190  156.9160  134.6880 C   0  0  0  0  0  0  0  0  0  0  0  0
  144.2140  155.8750  134.8240 O   0  0  0  0  0  0  0  0  0  0  0  0
  143.8210  157.8280  133.5590 C   0  0  0  0  0  0  0  0  0  0  0  0
  142.9500  158.0940  132.6910 O   0  0  0  0  0  0  0  0  0  0  0  0
  145.1110  158.4490  133.4590 N   0  0  0  0  0  0  0  0  0  0  0  0
  145.4150  159.7730  133.5610 C   0  0  0  0  0  0  0  0  0  0  0  0
  144.4530  160.8450  133.9030 C   0  0  0  0  0  0  0  0  0  0  0  0
  143.1310  160.8480  133.3600 N   0  0  0  0  0  0  0  0  0  0  0  0
  144.8000  161.7820  134.6710 O   0  0  0  0  0  0  0  0  0  0  0  0
  146.7850  159.9670  133.3780 C   0  0  0  0  0  0  0  0  0  0  0  0
  147.3080  158.7110  133.1650 C   0  0  0  0  0  0  0  0  0  0  0  0
  148.6220  158.3090  132.9370 C   0  0  0  0  0  0  0  0  0  0  0  0
  148.8680  156.9390  132.7490 C   0  0  0  0  0  0  0  0  0  0  0  0
  147.8030  156.0020  132.7800 C   0  0  0  0  0  0  0  0  0  0  0  0
  148.0820  154.5390  132.6090 C   0  0  0  0  0  0  0  0  0  0  0  0
  149.4420  154.3430  132.4600 F   0  0  0  0  0  0  0  0  0  0  0  0
  146.4870  156.4440  133.0340 C   0  0  0  0  0  0  0  0  0  0  0  0
  146.2750  157.8130  133.2230 C   0  0  0  0  0  0  0  0  0  0  0  0
  141.4110  159.3060  135.0800 C   0  0  0  0  0  0  0  0  0  0  0  0
  140.7150  159.4760  133.7910 C   0  0  0  0  0  0  0  0  0  0  0  0
  140.6180  160.5760  133.1850 O   0  0  0  0  0  0  0  0  0  0  0  0
  138.3949  157.9287  132.2304 H   0  0  0  0  0  0  0  0  0  0  0  0
  139.5483  159.0664  131.4546 H   0  0  0  0  0  0  0  0  0  0  0  0
  139.8892  157.3028  131.4546 H   0  0  0  0  0  0  0  0  0  0  0  0
  139.5168  156.7081  134.5379 H   0  0  0  0  0  0  0  0  0  0  0  0
  141.0623  156.4021  133.7278 H   0  0  0  0  0  0  0  0  0  0  0  0
  140.5925  157.6920  136.3307 H   0  0  0  0  0  0  0  0  0  0  0  0
  142.7800  160.0600  132.7720 H   0  0  0  0  0  0  0  0  0  0  0  0
  142.4760  161.6290  133.5840 H   0  0  0  0  0  0  0  0  0  0  0  0
  147.3315  160.9214  133.3994 H   0  0  0  0  0  0  0  0  0  0  0  0
  149.4417  159.0418  132.9052 H   0  0  0  0  0  0  0  0  0  0  0  0
  149.8964  156.5891  132.5760 H   0  0  0  0  0  0  0  0  0  0  0  0
  147.7278  153.9923  133.4953 H   0  0  0  0  0  0  0  0  0  0  0  0
  147.5584  154.1682  131.7155 H   0  0  0  0  0  0  0  0  0  0  0  0
  145.6508  155.7309  133.0820 H   0  0  0  0  0  0  0  0  0  0  0  0
  140.9698  159.9523  135.8531 H   0  0  0  0  0  0  0  0  0  0  0  0
  142.4749  159.5813  135.0315 H   0  0  0  0  0  0  0  0  0  0  0  0
  1  2  1  0
  2  3  1  0
  3  4  1  0
  4  5  1  0
  5  6  1  0
  6  7  2  0
  6  8  1  0
  8  9  2  0
  8 10  1  0
 10 11  1  0
 11 12  1  0
 12 13  1  0
 12 14  2  0
 11 15  2  0
 15 16  1  0
 16 17  2  0
 17 18  1  0
 18 19  2  0
 19 20  1  0
 20 21  1  0
 19 22  1  0
 22 23  2  0
  4 24  1  0
 24 25  1  0
 25 26  2  0
 25  2  1  0
 23 10  1  0
 23 16  1  0
  1 27  1  0
  1 28  1  0
  1 29  1  0
  3 30  1  0
  3 31  1  0
  4 32  1  1
 13 33  1  0
 13 34  1  0
 15 35  1  0
 17 36  1  0
 18 37  1  0
 20 38  1  0
 20 39  1  0
 22 40  1  0
 24 41  1  0
 24 42  1  0
M  CHG  1   5  -1
M  END
>  <UniqueID>  (98) 
96

>  <SMILES>  (98) 
CN1C[C@@H]([N-]C(=O)C(=O)n2c(C(N)=O)cc3ccc(CF)cc32)CC1=O

>  <Energy>  (98) 
87.92374379617348

>  <Genealogy>  (98) 
CN1CC([N-]C(=O)C(=O)n2c(C(N)=O)cc3ccc(CF)cc32)CC1=O (protonated)
CN1C[C@@H]([N-]C(=O)C(=O)n2c(C(N)=O)cc3ccc(CF)cc32)CC1=O (chirality)
CN1C[C@@H]([N-]C(=O)C(=O)n2c(C(N)=O)cc3ccc(CF)cc32)CC1=O (3D coordinates assigned)
CN1C[C@@H]([N-]C(=O)C(=O)n2c(C(N)=O)cc3ccc(CF)cc32)CC1=O (nonaromatic ring conformer: 87.92374379617348 kcal/mol)

>  <smiles>  (98) 
CN1CC(NC(=O)C(=O)n2c(C(N)=O)cc3ccc(CF)cc32)CC1=O

>  <score_type>  (98) 
oracle

>  <origin>  (98) 
adg

>  <m_score__min__energy>  (98) 
-6.9000000000000004

>  <m_primary>  (98) 
energy

$$$$
98:0
     RDKit          3D

 49 51  0  0  0  0  0  0  0  0999 V2000
  139.9390  158.5560  135.3170 C   0  0  0  0  0  0  0  0  0  0  0  0
  141.3130  158.7390  134.7530 C   0  0  0  0  0  0  0  0  0  0  0  0
  141.7880  160.0340  134.4330 C   0  0  0  0  0  0  0  0  0  0  0  0
  143.0890  160.2110  133.9420 C   0  0  0  0  0  0  0  0  0  0  0  0
  143.8960  159.0850  133.8040 C   0  0  0  0  0  0  0  0  0  0  0  0
  145.1930  158.9800  133.3680 C   0  0  0  0  0  0  0  0  0  0  0  0
  145.5070  157.6270  133.4540 C   0  0  0  0  0  0  0  0  0  0  0  0
  146.8530  157.0730  133.1880 C   0  0  0  0  0  0  0  0  0  0  0  0
  147.1280  156.3680  131.9740 N   0  0  0  0  0  0  0  0  0  0  0  0
  147.7820  157.2540  134.0200 O   0  0  0  0  0  0  0  0  0  0  0  0
  144.4400  156.9140  133.9170 N   0  0  0  0  0  0  0  0  0  0  0  0
  144.3450  155.4790  134.0000 C   0  0  0  0  0  0  0  0  0  0  0  0
  144.4000  154.9240  135.1270 O   0  0  0  0  0  0  0  0  0  0  0  0
  144.1250  154.6410  132.8110 C   0  0  0  0  0  0  0  0  0  0  0  0
  144.5520  155.0300  131.6910 O   0  0  0  0  0  0  0  0  0  0  0  0
  143.2770  153.4760  132.8800 N   0  0  0  0  0  0  0  0  0  0  0  0
  143.9520  152.1950  132.6050 C   0  0  0  0  0  0  0  0  0  0  0  0
  143.0420  151.0020  132.6760 C   0  0  0  0  0  0  0  0  0  0  0  0
  143.5440  149.8550  132.5410 O   0  0  0  0  0  0  0  0  0  0  0  0
  141.6230  151.1500  132.8980 N   0  0  0  0  0  0  0  0  0  0  0  0
  140.7880  149.9610  133.0990 C   0  0  0  0  0  0  0  0  0  0  0  0
  141.0220  152.4840  132.8850 C   0  0  0  0  0  0  0  0  0  0  0  0
  141.9510  153.5210  133.5480 C   0  0  0  0  0  0  0  0  0  0  0  0
  141.2660  154.9030  133.4220 C   0  0  0  0  0  0  0  0  0  0  0  0
  142.1290  153.2150  135.0510 C   0  0  0  0  0  0  0  0  0  0  0  0
  143.4570  157.8250  134.1290 C   0  0  0  0  0  0  0  0  0  0  0  0
  142.1540  157.6190  134.5910 C   0  0  0  0  0  0  0  0  0  0  0  0
  139.9898  158.5628  136.4158 H   0  0  0  0  0  0  0  0  0  0  0  0
  139.2900  159.3756  134.9749 H   0  0  0  0  0  0  0  0  0  0  0  0
  139.5272  157.5951  134.9749 H   0  0  0  0  0  0  0  0  0  0  0  0
  141.1322  160.9063  134.5705 H   0  0  0  0  0  0  0  0  0  0  0  0
  143.4615  161.2106  133.6735 H   0  0  0  0  0  0  0  0  0  0  0  0
  145.8471  159.7943  133.0230 H   0  0  0  0  0  0  0  0  0  0  0  0
  148.1060  156.0800  131.7580 H   0  0  0  0  0  0  0  0  0  0  0  0
  146.3690  156.1100  131.2980 H   0  0  0  0  0  0  0  0  0  0  0  0
  144.3850  152.2411  131.5948 H   0  0  0  0  0  0  0  0  0  0  0  0
  144.7159  152.0618  133.3852 H   0  0  0  0  0  0  0  0  0  0  0  0
  140.6609  149.7801  134.1766 H   0  0  0  0  0  0  0  0  0  0  0  0
  139.8034  150.1218  132.6356 H   0  0  0  0  0  0  0  0  0  0  0  0
  141.2734  149.0894  132.6356 H   0  0  0  0  0  0  0  0  0  0  0  0
  140.8359  152.7835  131.8430 H   0  0  0  0  0  0  0  0  0  0  0  0
  140.0803  152.4472  133.4523 H   0  0  0  0  0  0  0  0  0  0  0  0
  141.0662  155.3061  134.4258 H   0  0  0  0  0  0  0  0  0  0  0  0
  141.9272  155.5915  132.8753 H   0  0  0  0  0  0  0  0  0  0  0  0
  140.3177  154.7937  132.8753 H   0  0  0  0  0  0  0  0  0  0  0  0
  141.6637  154.0149  135.6457 H   0  0  0  0  0  0  0  0  0  0  0  0
  141.6487  152.2544  135.2890 H   0  0  0  0  0  0  0  0  0  0  0  0
  143.2014  153.1576  135.2890 H   0  0  0  0  0  0  0  0  0  0  0  0
  141.7929  156.6062  134.8229 H   0  0  0  0  0  0  0  0  0  0  0  0
  1  2  1  0
  2  3  2  0
  3  4  1  0
  4  5  2  0
  5  6  1  0
  6  7  2  0
  7  8  1  0
  8  9  1  0
  8 10  2  0
  7 11  1  0
 11 12  1  0
 12 13  2  0
 12 14  1  0
 14 15  2  0
 14 16  1  0
 16 17  1  0
 17 18  1  0
 18 19  2  0
 18 20  1  0
 20 21  1  0
 20 22  1  0
 22 23  1  0
 23 24  1  0
 23 25  1  0
 11 26  1  0
 26 27  2  0
 27  2  1  0
 26  5  1  0
 23 16  1  0
  1 28  1  0
  1 29  1  0
  1 30  1  0
  3 31  1  0
  4 32  1  0
  6 33  1  0
  9 34  1  0
  9 35  1  0
 17 36  1  0
 17 37  1  0
 21 38  1  0
 21 39  1  0
 21 40  1  0
 22 41  1  0
 22 42  1  0
 24 43  1  0
 24 44  1  0
 24 45  1  0
 25 46  1  0
 25 47  1  0
 25 48  1  0
 27 49  1  0
M  END
>  <UniqueID>  (99) 
97

>  <SMILES>  (99) 
Cc1ccc2cc(C(N)=O)n(C(=O)C(=O)N3CC(=O)N(C)CC3(C)C)c2c1

>  <Energy>  (99) 
94.86334996289217

>  <Genealogy>  (99) 
Cc1ccc2cc(C(N)=O)n(C(=O)C(=O)N3CC(=O)N(C)CC3(C)C)c2c1 (3D coordinates assigned)
Cc1ccc2cc(C(N)=O)n(C(=O)C(=O)N3CC(=O)N(C)CC3(C)C)c2c1 (nonaromatic ring conformer: 94.86334996289217 kcal/mol)

>  <smiles>  (99) 
Cc1ccc2cc(C(N)=O)n(C(=O)C(=O)N3CC(=O)N(C)CC3(C)C)c2c1

>  <score_type>  (99) 
oracle

>  <origin>  (99) 
adg

>  <m_score__min__energy>  (99) 
-8.1799999999999997

>  <m_primary>  (99) 
energy

$$$$
