0:0
     RDKit          3D

 32 34  0  0  0  0  0  0  0  0999 V2000
  138.4450  157.2510  133.3580 N   0  0  0  0  0  0  0  0  0  0  0  0
  139.1900  157.9910  134.3270 C   0  0  0  0  0  0  0  0  0  0  0  0
  138.6760  158.2290  135.4520 O   0  0  0  0  0  0  0  0  0  0  0  0
  140.5760  158.4230  134.0570 C   0  0  0  0  0  0  0  0  0  0  0  0
  140.9760  159.7560  134.0640 C   0  0  0  0  0  0  0  0  0  0  0  0
  142.3330  159.7300  133.8400 C   0  0  0  0  0  0  0  0  0  0  0  0
  143.2400  160.7780  133.7320 C   0  0  0  0  0  0  0  0  0  0  0  0
  144.5800  160.4640  133.4580 C   0  0  0  0  0  0  0  0  0  0  0  0
  144.9910  159.1160  133.2850 C   0  0  0  0  0  0  0  0  0  0  0  0
  146.4100  158.7970  132.9820 C   0  0  0  0  0  0  0  0  0  0  0  0
  147.2370  159.7430  132.3480 C   0  0  0  0  0  0  0  0  0  0  0  0
  148.5720  159.4400  132.0620 C   0  0  0  0  0  0  0  0  0  0  0  0
  149.0950  158.1920  132.4060 C   0  0  0  0  0  0  0  0  0  0  0  0
  148.2850  157.2440  133.0350 C   0  0  0  0  0  0  0  0  0  0  0  0
  146.9490  157.5420  133.3220 C   0  0  0  0  0  0  0  0  0  0  0  0
  144.0350  158.0790  133.4010 C   0  0  0  0  0  0  0  0  0  0  0  0
  142.7100  158.4190  133.6960 C   0  0  0  0  0  0  0  0  0  0  0  0
  141.6380  157.6020  133.8240 N   0  0  0  0  0  0  0  0  0  0  0  0
  141.6100  156.1780  133.6250 C   0  0  0  0  0  0  0  0  0  0  0  0
  142.5600  155.4580  134.0280 O   0  0  0  0  0  0  0  0  0  0  0  0
  140.5330  155.5810  132.9800 O   0  0  0  0  0  0  0  0  0  0  0  0
  137.4540  156.9840  133.5520 H   0  0  0  0  0  0  0  0  0  0  0  0
  138.8970  156.8960  132.4870 H   0  0  0  0  0  0  0  0  0  0  0  0
  140.3419  160.6419  134.2162 H   0  0  0  0  0  0  0  0  0  0  0  0
  142.9170  161.8220  133.8575 H   0  0  0  0  0  0  0  0  0  0  0  0
  145.3214  161.2725  133.3762 H   0  0  0  0  0  0  0  0  0  0  0  0
  146.8303  160.7280  132.0754 H   0  0  0  0  0  0  0  0  0  0  0  0
  149.2105  160.1856  131.5656 H   0  0  0  0  0  0  0  0  0  0  0  0
  150.1455  157.9553  132.1815 H   0  0  0  0  0  0  0  0  0  0  0  0
  148.6985  156.2612  133.3052 H   0  0  0  0  0  0  0  0  0  0  0  0
  146.3155  156.7909  133.8165 H   0  0  0  0  0  0  0  0  0  0  0  0
  144.3273  157.0277  133.2622 H   0  0  0  0  0  0  0  0  0  0  0  0
  1  2  1  0
  2  3  2  0
  2  4  1  0
  4  5  2  0
  5  6  1  0
  6  7  2  0
  7  8  1  0
  8  9  2  0
  9 10  1  0
 10 11  2  0
 11 12  1  0
 12 13  2  0
 13 14  1  0
 14 15  2  0
  9 16  1  0
 16 17  2  0
 17 18  1  0
 18 19  1  0
 19 20  2  0
 19 21  1  0
 18  4  1  0
 17  6  1  0
 15 10  1  0
  1 22  1  0
  1 23  1  0
  5 24  1  0
  7 25  1  0
  8 26  1  0
 11 27  1  0
 12 28  1  0
 13 29  1  0
 14 30  1  0
 15 31  1  0
 16 32  1  0
M  CHG  1  21  -1
M  END
>  <UniqueID>  (1) 
1

>  <SMILES>  (1) 
NC(=O)c1cc2ccc(-c3ccccc3)cc2n1C(=O)[O-]

>  <Energy>  (1) 
80.19935125525755

>  <Genealogy>  (1) 
NC(=O)c1cc2ccc(-c3ccccc3)cc2n1C(=O)[O-] (protonated)
NC(=O)c1cc2ccc(-c3ccccc3)cc2n1C(=O)[O-] (3D coordinates assigned)
NC(=O)c1cc2ccc(-c3ccccc3)cc2n1C(=O)[O-] (optimized conformer: 80.19935125525755 kcal/mol)

>  <smiles>  (1) 
NC(=O)c1cc2ccc(-c3ccccc3)cc2n1C(=O)O

>  <score_type>  (1) 
oracle

>  <origin>  (1) 
adg

>  <m_score__min__energy>  (1) 
-7.3499999999999996

>  <m_primary>  (1) 
energy

$$$$
1:0
     RDKit          3D

 38 40  0  0  0  0  0  0  0  0999 V2000
  148.4740  149.6480  132.9400 C   0  0  0  0  0  0  0  0  0  0  0  0
  149.2290  150.6860  132.2300 N   0  0  0  0  0  0  0  0  0  0  0  0
  150.3560  150.3060  131.3690 C   0  0  0  0  0  0  0  0  0  0  0  0
  148.8440  152.0720  132.3970 C   0  0  0  0  0  0  0  0  0  0  0  0
  147.5070  152.4490  132.6270 C   0  0  0  0  0  0  0  0  0  0  0  0
  147.1860  153.7990  132.7810 C   0  0  0  0  0  0  0  0  0  0  0  0
  148.1870  154.7800  132.7110 C   0  0  0  0  0  0  0  0  0  0  0  0
  147.8580  156.2190  132.8770 C   0  0  0  0  0  0  0  0  0  0  0  0
  148.8790  157.2020  132.7910 C   0  0  0  0  0  0  0  0  0  0  0  0
  148.5770  158.5670  132.9340 C   0  0  0  0  0  0  0  0  0  0  0  0
  147.2520  158.9220  133.1690 C   0  0  0  0  0  0  0  0  0  0  0  0
  146.6840  160.1650  133.3180 C   0  0  0  0  0  0  0  0  0  0  0  0
  145.3250  159.9280  133.5170 C   0  0  0  0  0  0  0  0  0  0  0  0
  144.3490  160.9990  133.8080 C   0  0  0  0  0  0  0  0  0  0  0  0
  142.9990  160.8660  133.3670 N   0  0  0  0  0  0  0  0  0  0  0  0
  144.6990  162.0480  134.4080 O   0  0  0  0  0  0  0  0  0  0  0  0
  145.0630  158.5900  133.4840 N   0  0  0  0  0  0  0  0  0  0  0  0
  143.7870  157.9380  133.5860 C   0  0  0  0  0  0  0  0  0  0  0  0
  142.9710  157.9800  132.6290 O   0  0  0  0  0  0  0  0  0  0  0  0
  143.4510  157.2320  134.7360 O   0  0  0  0  0  0  0  0  0  0  0  0
  146.2550  157.9880  133.2730 C   0  0  0  0  0  0  0  0  0  0  0  0
  146.5230  156.6240  133.1160 C   0  0  0  0  0  0  0  0  0  0  0  0
  149.5070  154.3650  132.4830 C   0  0  0  0  0  0  0  0  0  0  0  0
  149.7970  153.0450  132.3320 N   0  0  0  0  0  0  0  0  0  0  0  0
  148.5806  149.7945  134.0250 H   0  0  0  0  0  0  0  0  0  0  0  0
  147.4113  149.7138  132.6637 H   0  0  0  0  0  0  0  0  0  0  0  0
  148.8640  148.6572  132.6637 H   0  0  0  0  0  0  0  0  0  0  0  0
  151.2137  150.0168  131.9941 H   0  0  0  0  0  0  0  0  0  0  0  0
  150.0623  149.4572  130.7340 H   0  0  0  0  0  0  0  0  0  0  0  0
  150.6363  151.1593  130.7340 H   0  0  0  0  0  0  0  0  0  0  0  0
  146.7192  151.6835  132.6851 H   0  0  0  0  0  0  0  0  0  0  0  0
  146.1417  154.0956  132.9584 H   0  0  0  0  0  0  0  0  0  0  0  0
  149.9187  156.8914  132.6103 H   0  0  0  0  0  0  0  0  0  0  0  0
  149.3643  159.3319  132.8623 H   0  0  0  0  0  0  0  0  0  0  0  0
  147.1936  161.1393  133.2868 H   0  0  0  0  0  0  0  0  0  0  0  0
  142.7350  160.1510  132.6540 H   0  0  0  0  0  0  0  0  0  0  0  0
  145.7133  155.8819  133.1770 H   0  0  0  0  0  0  0  0  0  0  0  0
  150.3127  155.1117  132.4260 H   0  0  0  0  0  0  0  0  0  0  0  0
  1  2  1  0
  2  3  1  0
  2  4  1  0
  4  5  2  0
  5  6  1  0
  6  7  2  0
  7  8  1  0
  8  9  2  0
  9 10  1  0
 10 11  2  0
 11 12  1  0
 12 13  2  0
 13 14  1  0
 14 15  1  0
 14 16  2  0
 13 17  1  0
 17 18  1  0
 18 19  2  0
 18 20  1  0
 17 21  1  0
 21 22  2  0
  7 23  1  0
 23 24  2  0
 24  4  1  0
 22  8  1  0
 21 11  1  0
  1 25  1  0
  1 26  1  0
  1 27  1  0
  3 28  1  0
  3 29  1  0
  3 30  1  0
  5 31  1  0
  6 32  1  0
  9 33  1  0
 10 34  1  0
 12 35  1  0
 15 36  1  0
 22 37  1  0
 23 38  1  0
M  CHG  2  15  -1  20  -1
M  END
>  <UniqueID>  (2) 
2

>  <SMILES>  (2) 
CN(C)c1ccc(-c2ccc3cc(C([NH-])=O)n(C(=O)[O-])c3c2)cn1

>  <Energy>  (2) 
84.9236332055046

>  <Genealogy>  (2) 
CN(C)c1ccc(-c2ccc3cc(C([NH-])=O)n(C(=O)[O-])c3c2)cn1 (protonated)
CN(C)c1ccc(-c2ccc3cc(C([NH-])=O)n(C(=O)[O-])c3c2)cn1 (3D coordinates assigned)
CN(C)c1ccc(-c2ccc3cc(C([NH-])=O)n(C(=O)[O-])c3c2)cn1 (optimized conformer: 84.9236332055046 kcal/mol)

>  <smiles>  (2) 
CN(C)c1ccc(-c2ccc3cc(C(N)=O)n(C(=O)O)c3c2)cn1

>  <score_type>  (2) 
oracle

>  <origin>  (2) 
adg

>  <m_score__min__energy>  (2) 
-7.4199999999999999

>  <m_primary>  (2) 
energy

$$$$
2:0
     RDKit          3D

 46 48  0  0  0  0  0  0  0  0999 V2000
  138.6630  159.5270  131.1510 C   0  0  0  0  0  0  0  0  0  0  0  0
  140.1510  159.3720  131.4480 C   0  0  0  0  0  0  0  0  0  0  0  0
  140.4680  159.9160  132.7270 O   0  0  0  0  0  0  0  0  0  0  0  0
  141.7130  159.7540  133.3460 C   0  0  0  0  0  0  0  0  0  0  0  0
  142.3700  160.7600  133.7290 O   0  0  0  0  0  0  0  0  0  0  0  0
  142.2530  158.4360  133.5260 N   0  0  0  0  0  0  0  0  0  0  0  0
  141.5670  157.2640  133.6510 C   0  0  0  0  0  0  0  0  0  0  0  0
  140.1020  157.1270  133.7820 C   0  0  0  0  0  0  0  0  0  0  0  0
  139.3730  158.0420  134.5970 N   0  0  0  0  0  0  0  0  0  0  0  0
  139.4800  156.2310  133.1530 O   0  0  0  0  0  0  0  0  0  0  0  0
  142.4500  156.1880  133.7240 C   0  0  0  0  0  0  0  0  0  0  0  0
  143.7070  156.7400  133.6450 C   0  0  0  0  0  0  0  0  0  0  0  0
  144.9550  156.1270  133.6530 C   0  0  0  0  0  0  0  0  0  0  0  0
  146.0900  156.9420  133.5240 C   0  0  0  0  0  0  0  0  0  0  0  0
  145.9640  158.3510  133.3870 C   0  0  0  0  0  0  0  0  0  0  0  0
  147.1910  159.2290  133.2210 C   0  0  0  0  0  0  0  0  0  0  0  0
  148.5080  158.4110  133.2420 C   0  0  0  0  0  0  0  0  0  0  0  0
  149.2090  158.4040  131.8770 C   0  0  0  0  0  0  0  0  0  0  0  0
  149.5120  159.7780  131.4170 N   0  0  0  0  0  0  0  0  0  0  0  0
  149.9530  159.7550  130.0140 C   0  0  0  0  0  0  0  0  0  0  0  0
  148.4130  160.7600  131.6250 C   0  0  0  0  0  0  0  0  0  0  0  0
  147.0640  160.1060  131.9590 C   0  0  0  0  0  0  0  0  0  0  0  0
  144.6750  158.9340  133.3780 C   0  0  0  0  0  0  0  0  0  0  0  0
  143.5630  158.0980  133.5260 C   0  0  0  0  0  0  0  0  0  0  0  0
  138.1044  159.5852  132.0968 H   0  0  0  0  0  0  0  0  0  0  0  0
  138.4988  160.4471  130.5710 H   0  0  0  0  0  0  0  0  0  0  0  0
  138.3127  158.6605  130.5710 H   0  0  0  0  0  0  0  0  0  0  0  0
  140.4126  158.3036  131.4349 H   0  0  0  0  0  0  0  0  0  0  0  0
  140.7235  159.9141  130.6809 H   0  0  0  0  0  0  0  0  0  0  0  0
  139.3390  159.0590  134.3640 H   0  0  0  0  0  0  0  0  0  0  0  0
  142.1952  155.1226  133.8237 H   0  0  0  0  0  0  0  0  0  0  0  0
  145.0497  155.0361  133.7573 H   0  0  0  0  0  0  0  0  0  0  0  0
  147.0903  156.4844  133.5290 H   0  0  0  0  0  0  0  0  0  0  0  0
  147.2426  159.9008  134.0905 H   0  0  0  0  0  0  0  0  0  0  0  0
  149.1870  158.8522  133.9865 H   0  0  0  0  0  0  0  0  0  0  0  0
  148.2551  157.3712  133.4966 H   0  0  0  0  0  0  0  0  0  0  0  0
  150.1493  157.8394  131.9607 H   0  0  0  0  0  0  0  0  0  0  0  0
  148.5352  157.9351  131.1448 H   0  0  0  0  0  0  0  0  0  0  0  0
  151.0508  159.6978  129.9756 H   0  0  0  0  0  0  0  0  0  0  0  0
  149.5222  158.8781  129.5086 H   0  0  0  0  0  0  0  0  0  0  0  0
  149.6158  160.6720  129.5086 H   0  0  0  0  0  0  0  0  0  0  0  0
  148.6927  161.4253  132.4551 H   0  0  0  0  0  0  0  0  0  0  0  0
  148.2831  161.3063  130.6791 H   0  0  0  0  0  0  0  0  0  0  0  0
  146.3145  160.8912  132.1369 H   0  0  0  0  0  0  0  0  0  0  0  0
  146.7546  159.4735  131.1139 H   0  0  0  0  0  0  0  0  0  0  0  0
  144.5499  160.0202  133.2574 H   0  0  0  0  0  0  0  0  0  0  0  0
  1  2  1  0
  2  3  1  0
  3  4  1  0
  4  5  2  0
  4  6  1  0
  6  7  1  0
  7  8  1  0
  8  9  1  0
  8 10  2  0
  7 11  2  0
 11 12  1  0
 12 13  2  0
 13 14  1  0
 14 15  2  0
 15 16  1  0
 16 17  1  0
 17 18  1  0
 18 19  1  0
 19 20  1  0
 19 21  1  0
 21 22  1  0
 15 23  1  0
 23 24  2  0
 24  6  1  0
 24 12  1  0
 22 16  1  0
  1 25  1  0
  1 26  1  0
  1 27  1  0
  2 28  1  0
  2 29  1  0
  9 30  1  0
 11 31  1  0
 13 32  1  0
 14 33  1  0
 16 34  1  0
 17 35  1  0
 17 36  1  0
 18 37  1  0
 18 38  1  0
 20 39  1  0
 20 40  1  0
 20 41  1  0
 21 42  1  0
 21 43  1  0
 22 44  1  0
 22 45  1  0
 23 46  1  0
M  CHG  1   9  -1
M  END
>  <UniqueID>  (3) 
3

>  <SMILES>  (3) 
CCOC(=O)n1c(C([NH-])=O)cc2ccc(C3CCN(C)CC3)cc21

>  <Energy>  (3) 
90.36098447716505

>  <Genealogy>  (3) 
CCOC(=O)n1c(C([NH-])=O)cc2ccc(C3CCN(C)CC3)cc21 (protonated)
CCOC(=O)n1c(C([NH-])=O)cc2ccc(C3CCN(C)CC3)cc21 (3D coordinates assigned)
CCOC(=O)n1c(C([NH-])=O)cc2ccc(C3CCN(C)CC3)cc21 (nonaromatic ring conformer: 90.36098447716505 kcal/mol)

>  <smiles>  (3) 
CCOC(=O)n1c(C(N)=O)cc2ccc(C3CCN(C)CC3)cc21

>  <score_type>  (3) 
oracle

>  <origin>  (3) 
adg

>  <m_score__min__energy>  (3) 
-7.8899999999999997

>  <m_primary>  (3) 
energy

$$$$
3:0
     RDKit          3D

 42 45  0  0  0  0  0  0  0  0999 V2000
  140.3290  159.7340  132.6550 C   0  0  0  0  0  0  0  0  0  0  0  0
  140.2410  159.0340  133.9720 C   0  0  0  0  0  0  0  0  0  0  0  0
  140.5390  159.5780  135.1280 O   0  0  0  0  0  0  0  0  0  0  0  0
  140.3100  158.6510  136.0300 C   0  0  0  0  0  0  0  0  0  0  0  0
  140.4920  158.8180  137.2650 O   0  0  0  0  0  0  0  0  0  0  0  0
  139.8740  157.5290  135.5040 O   0  0  0  0  0  0  0  0  0  0  0  0
  139.8120  157.7410  134.2100 C   0  0  0  0  0  0  0  0  0  0  0  0
  139.3900  156.7210  133.2000 C   0  0  0  0  0  0  0  0  0  0  0  0
  140.4360  155.7760  132.9890 O   0  0  0  0  0  0  0  0  0  0  0  0
  140.2550  154.3910  133.0980 C   0  0  0  0  0  0  0  0  0  0  0  0
  139.1040  153.8880  132.9800 O   0  0  0  0  0  0  0  0  0  0  0  0
  141.3900  153.5410  133.3250 N   0  0  0  0  0  0  0  0  0  0  0  0
  142.5610  153.8750  133.9360 C   0  0  0  0  0  0  0  0  0  0  0  0
  142.8210  155.1450  134.6480 C   0  0  0  0  0  0  0  0  0  0  0  0
  141.7430  155.9140  135.1830 N   0  0  0  0  0  0  0  0  0  0  0  0
  143.9980  155.5780  134.7580 O   0  0  0  0  0  0  0  0  0  0  0  0
  143.4560  152.8090  133.8920 C   0  0  0  0  0  0  0  0  0  0  0  0
  142.7900  151.8010  133.2320 C   0  0  0  0  0  0  0  0  0  0  0  0
  143.2110  150.5170  132.9030 C   0  0  0  0  0  0  0  0  0  0  0  0
  142.3210  149.6910  132.1980 C   0  0  0  0  0  0  0  0  0  0  0  0
  141.0330  150.1600  131.8240 C   0  0  0  0  0  0  0  0  0  0  0  0
  140.1050  149.2810  131.0690 C   0  0  0  0  0  0  0  0  0  0  0  0
  139.1040  149.7630  130.2040 C   0  0  0  0  0  0  0  0  0  0  0  0
  138.3510  148.7630  129.6050 C   0  0  0  0  0  0  0  0  0  0  0  0
  138.9230  147.2810  130.1480 S   0  0  0  0  0  0  0  0  0  0  0  0
  140.1320  147.8880  131.1430 C   0  0  0  0  0  0  0  0  0  0  0  0
  140.6450  151.4750  132.1790 C   0  0  0  0  0  0  0  0  0  0  0  0
  141.5470  152.2680  132.8980 C   0  0  0  0  0  0  0  0  0  0  0  0
  140.4646  160.8128  132.8215 H   0  0  0  0  0  0  0  0  0  0  0  0
  141.1847  159.3402  132.0869 H   0  0  0  0  0  0  0  0  0  0  0  0
  139.4024  159.5643  132.0869 H   0  0  0  0  0  0  0  0  0  0  0  0
  138.4947  156.1966  133.5652 H   0  0  0  0  0  0  0  0  0  0  0  0
  139.1666  157.2277  132.2496 H   0  0  0  0  0  0  0  0  0  0  0  0
  140.7600  155.5640  135.1560 H   0  0  0  0  0  0  0  0  0  0  0  0
  141.9340  156.8280  135.6520 H   0  0  0  0  0  0  0  0  0  0  0  0
  144.4778  152.7788  134.2982 H   0  0  0  0  0  0  0  0  0  0  0  0
  144.2117  150.1591  133.1867 H   0  0  0  0  0  0  0  0  0  0  0  0
  142.6247  148.6678  131.9318 H   0  0  0  0  0  0  0  0  0  0  0  0
  138.9344  150.8341  130.0199 H   0  0  0  0  0  0  0  0  0  0  0  0
  137.5229  148.9150  128.8971 H   0  0  0  0  0  0  0  0  0  0  0  0
  140.8270  147.2892  131.7499 H   0  0  0  0  0  0  0  0  0  0  0  0
  139.6561  151.8648  131.8958 H   0  0  0  0  0  0  0  0  0  0  0  0
  1  2  1  0
  2  3  1  0
  3  4  1  0
  4  5  2  0
  4  6  1  0
  6  7  1  0
  7  8  1  0
  8  9  1  0
  9 10  1  0
 10 11  2  0
 10 12  1  0
 12 13  1  0
 13 14  1  0
 14 15  1  0
 14 16  2  0
 13 17  2  0
 17 18  1  0
 18 19  2  0
 19 20  1  0
 20 21  2  0
 21 22  1  0
 22 23  1  0
 23 24  2  0
 24 25  1  0
 25 26  1  0
 21 27  1  0
 27 28  2  0
  7  2  2  0
 28 12  1  0
 28 18  1  0
 26 22  2  0
  1 29  1  0
  1 30  1  0
  1 31  1  0
  8 32  1  0
  8 33  1  0
 15 34  1  0
 15 35  1  0
 17 36  1  0
 19 37  1  0
 20 38  1  0
 23 39  1  0
 24 40  1  0
 26 41  1  0
 27 42  1  0
M  END
>  <UniqueID>  (4) 
4

>  <SMILES>  (4) 
Cc1oc(=O)oc1COC(=O)n1c(C(N)=O)cc2ccc(-c3ccsc3)cc21

>  <Energy>  (4) 
143.24974311841254

>  <Genealogy>  (4) 
Cc1oc(=O)oc1COC(=O)n1c(C(N)=O)cc2ccc(-c3ccsc3)cc21 (3D coordinates assigned)
Cc1oc(=O)oc1COC(=O)n1c(C(N)=O)cc2ccc(-c3ccsc3)cc21 (optimized conformer: 143.24974311841254 kcal/mol)

>  <smiles>  (4) 
Cc1oc(=O)oc1COC(=O)n1c(C(N)=O)cc2ccc(-c3ccsc3)cc21

>  <score_type>  (4) 
oracle

>  <origin>  (4) 
adg

>  <m_score__min__energy>  (4) 
-8.1899999999999995

>  <m_primary>  (4) 
energy

$$$$
4:0
     RDKit          3D

 30 32  0  0  0  0  0  0  0  0999 V2000
  139.4960  158.1520  136.2930 N   0  0  0  0  0  0  0  0  0  0  0  0
  139.9160  158.2480  134.9340 C   0  0  0  0  0  0  0  0  0  0  0  0
  139.0990  157.9810  134.0150 O   0  0  0  0  0  0  0  0  0  0  0  0
  141.2870  158.7010  134.6180 C   0  0  0  0  0  0  0  0  0  0  0  0
  141.6930  160.0320  134.6990 C   0  0  0  0  0  0  0  0  0  0  0  0
  142.9890  160.0460  134.2380 C   0  0  0  0  0  0  0  0  0  0  0  0
  143.8780  161.1060  134.1040 C   0  0  0  0  0  0  0  0  0  0  0  0
  145.1670  160.8300  133.6180 C   0  0  0  0  0  0  0  0  0  0  0  0
  145.5520  159.5010  133.2880 C   0  0  0  0  0  0  0  0  0  0  0  0
  146.9130  159.1980  132.7770 C   0  0  0  0  0  0  0  0  0  0  0  0
  147.5840  158.0110  133.1140 C   0  0  0  0  0  0  0  0  0  0  0  0
  148.8580  157.7890  132.5930 C   0  0  0  0  0  0  0  0  0  0  0  0
  149.4260  158.7080  131.7730 N   0  0  0  0  0  0  0  0  0  0  0  0
  148.7680  159.8500  131.4450 C   0  0  0  0  0  0  0  0  0  0  0  0
  149.5170  161.0180  130.3810 Cl  0  0  0  0  0  0  0  0  0  0  0  0
  147.5260  160.0840  131.9430 N   0  0  0  0  0  0  0  0  0  0  0  0
  144.6100  158.4540  133.4310 C   0  0  0  0  0  0  0  0  0  0  0  0
  143.3290  158.7630  133.9000 C   0  0  0  0  0  0  0  0  0  0  0  0
  142.2950  157.9230  134.1330 N   0  0  0  0  0  0  0  0  0  0  0  0
  142.3050  156.4960  133.9630 C   0  0  0  0  0  0  0  0  0  0  0  0
  141.1910  155.8360  133.3650 N   0  0  0  0  0  0  0  0  0  0  0  0
  143.2850  155.8180  134.3690 O   0  0  0  0  0  0  0  0  0  0  0  0
  139.4660  158.9960  136.9070 H   0  0  0  0  0  0  0  0  0  0  0  0
  141.1026  160.8889  135.0557 H   0  0  0  0  0  0  0  0  0  0  0  0
  143.5810  162.1310  134.3707 H   0  0  0  0  0  0  0  0  0  0  0  0
  145.8873  161.6517  133.4911 H   0  0  0  0  0  0  0  0  0  0  0  0
  147.1130  157.2702  133.7768 H   0  0  0  0  0  0  0  0  0  0  0  0
  149.4029  156.8679  132.8472 H   0  0  0  0  0  0  0  0  0  0  0  0
  144.8801  157.4180  133.1783 H   0  0  0  0  0  0  0  0  0  0  0  0
  140.2500  156.2860  133.3450 H   0  0  0  0  0  0  0  0  0  0  0  0
  1  2  1  0
  2  3  2  0
  2  4  1  0
  4  5  2  0
  5  6  1  0
  6  7  2  0
  7  8  1  0
  8  9  2  0
  9 10  1  0
 10 11  2  0
 11 12  1  0
 12 13  2  0
 13 14  1  0
 14 15  1  0
 14 16  2  0
  9 17  1  0
 17 18  2  0
 18 19  1  0
 19 20  1  0
 20 21  1  0
 20 22  2  0
 19  4  1  0
 18  6  1  0
 16 10  1  0
  1 23  1  0
  5 24  1  0
  7 25  1  0
  8 26  1  0
 11 27  1  0
 12 28  1  0
 17 29  1  0
 21 30  1  0
M  CHG  2   1  -1  21  -1
M  END
>  <UniqueID>  (5) 
5

>  <SMILES>  (5) 
[NH-]C(=O)c1cc2ccc(-c3ccnc(Cl)n3)cc2n1C([NH-])=O

>  <Energy>  (5) 
76.77309114226922

>  <Genealogy>  (5) 
[NH-]C(=O)c1cc2ccc(-c3ccnc(Cl)n3)cc2n1C([NH-])=O (protonated)
[NH-]C(=O)c1cc2ccc(-c3ccnc(Cl)n3)cc2n1C([NH-])=O (3D coordinates assigned)
[NH-]C(=O)c1cc2ccc(-c3ccnc(Cl)n3)cc2n1C([NH-])=O (optimized conformer: 76.77309114226922 kcal/mol)

>  <smiles>  (5) 
NC(=O)c1cc2ccc(-c3ccnc(Cl)n3)cc2n1C(N)=O

>  <score_type>  (5) 
oracle

>  <origin>  (5) 
adg

>  <m_score__min__energy>  (5) 
-8

>  <m_primary>  (5) 
energy

$$$$
5:0
     RDKit          3D

 41 43  0  0  0  0  0  0  0  0999 V2000
  147.6510  160.0280  131.7110 C   0  0  0  0  0  0  0  0  0  0  0  0
  148.6160  158.9710  132.7680 S   0  0  0  0  0  0  0  0  0  0  0  0
  149.9490  158.7020  132.1270 O   0  0  0  0  0  0  0  0  0  0  0  0
  148.8470  159.6530  134.0880 O   0  0  0  0  0  0  0  0  0  0  0  0
  147.7660  157.4800  133.0200 N   0  0  0  0  0  0  0  0  0  0  0  0
  148.4770  156.2420  132.8480 C   0  0  0  0  0  0  0  0  0  0  0  0
  147.9020  155.0680  133.1280 C   0  0  0  0  0  0  0  0  0  0  0  0
  146.5170  154.9900  133.7230 C   0  0  2  0  0  0  0  0  0  0  0  0
  145.8170  153.7130  133.3040 C   0  0  0  0  0  0  0  0  0  0  0  0
  146.5350  152.6740  132.6550 C   0  0  0  0  0  0  0  0  0  0  0  0
  145.8870  151.4930  132.2580 C   0  0  0  0  0  0  0  0  0  0  0  0
  144.5230  151.3820  132.5060 C   0  0  0  0  0  0  0  0  0  0  0  0
  143.6630  150.3380  132.2530 C   0  0  0  0  0  0  0  0  0  0  0  0
  142.4220  150.7670  132.7150 C   0  0  0  0  0  0  0  0  0  0  0  0
  141.1870  149.9690  132.5780 C   0  0  0  0  0  0  0  0  0  0  0  0
  139.9230  150.4860  132.9970 N   0  0  0  0  0  0  0  0  0  0  0  0
  141.2400  148.8360  132.0320 O   0  0  0  0  0  0  0  0  0  0  0  0
  142.5090  152.0190  133.2450 N   0  0  0  0  0  0  0  0  0  0  0  0
  141.4750  152.7490  133.9280 C   0  0  0  0  0  0  0  0  0  0  0  0
  141.3850  152.7080  135.1820 O   0  0  0  0  0  0  0  0  0  0  0  0
  140.5580  153.5040  133.2070 O   0  0  0  0  0  0  0  0  0  0  0  0
  143.8060  152.3840  133.1070 C   0  0  0  0  0  0  0  0  0  0  0  0
  144.4290  153.5640  133.5330 C   0  0  0  0  0  0  0  0  0  0  0  0
  145.6740  156.2180  133.3380 C   0  0  0  0  0  0  0  0  0  0  0  0
  146.4410  157.5050  133.6490 C   0  0  0  0  0  0  0  0  0  0  0  0
  147.0367  160.7008  132.3274 H   0  0  0  0  0  0  0  0  0  0  0  0
  148.3231  160.6239  131.0760 H   0  0  0  0  0  0  0  0  0  0  0  0
  146.9965  159.4128  131.0760 H   0  0  0  0  0  0  0  0  0  0  0  0
  149.5132  156.2613  132.4792 H   0  0  0  0  0  0  0  0  0  0  0  0
  148.4507  154.1376  132.9200 H   0  0  0  0  0  0  0  0  0  0  0  0
  146.6267  154.9815  134.8175 H   0  0  0  0  0  0  0  0  0  0  0  0
  147.6109  152.7955  132.4610 H   0  0  0  0  0  0  0  0  0  0  0  0
  146.4414  150.6804  131.7658 H   0  0  0  0  0  0  0  0  0  0  0  0
  143.9044  149.3718  131.7859 H   0  0  0  0  0  0  0  0  0  0  0  0
  139.0660  149.8940  132.9270 H   0  0  0  0  0  0  0  0  0  0  0  0
  139.8200  151.4800  133.2990 H   0  0  0  0  0  0  0  0  0  0  0  0
  143.8527  154.3559  134.0337 H   0  0  0  0  0  0  0  0  0  0  0  0
  145.4482  156.1807  132.2621 H   0  0  0  0  0  0  0  0  0  0  0  0
  144.7398  156.2080  133.9187 H   0  0  0  0  0  0  0  0  0  0  0  0
  145.8742  158.3657  133.2644 H   0  0  0  0  0  0  0  0  0  0  0  0
  146.5667  157.5890  134.7386 H   0  0  0  0  0  0  0  0  0  0  0  0
  1  2  1  0
  2  3  2  0
  2  4  2  0
  2  5  1  0
  5  6  1  0
  6  7  2  0
  7  8  1  0
  8  9  1  0
  9 10  2  0
 10 11  1  0
 11 12  2  0
 12 13  1  0
 13 14  2  0
 14 15  1  0
 15 16  1  0
 15 17  2  0
 14 18  1  0
 18 19  1  0
 19 20  2  0
 19 21  1  0
 18 22  1  0
 22 23  2  0
  8 24  1  0
 24 25  1  0
 25  5  1  0
 23  9  1  0
 22 12  1  0
  1 26  1  0
  1 27  1  0
  1 28  1  0
  6 29  1  0
  7 30  1  0
  8 31  1  1
 10 32  1  0
 11 33  1  0
 13 34  1  0
 16 35  1  0
 16 36  1  0
 23 37  1  0
 24 38  1  0
 24 39  1  0
 25 40  1  0
 25 41  1  0
M  CHG  1  21  -1
M  END
>  <UniqueID>  (6) 
6

>  <SMILES>  (6) 
CS(=O)(=O)N1C=C[C@H](c2ccc3cc(C(N)=O)n(C(=O)[O-])c3c2)CC1

>  <Energy>  (6) 
78.09094018472865

>  <Genealogy>  (6) 
CS(=O)(=O)N1C=CC(c2ccc3cc(C(N)=O)n(C(=O)[O-])c3c2)CC1 (protonated)
CS(=O)(=O)N1C=C[C@H](c2ccc3cc(C(N)=O)n(C(=O)[O-])c3c2)CC1 (chirality)
CS(=O)(=O)N1C=C[C@H](c2ccc3cc(C(N)=O)n(C(=O)[O-])c3c2)CC1 (3D coordinates assigned)
CS(=O)(=O)N1C=C[C@H](c2ccc3cc(C(N)=O)n(C(=O)[O-])c3c2)CC1 (nonaromatic ring conformer: 78.09094018472865 kcal/mol)

>  <smiles>  (6) 
CS(=O)(=O)N1C=CC(c2ccc3cc(C(N)=O)n(C(=O)O)c3c2)CC1

>  <score_type>  (6) 
oracle

>  <origin>  (6) 
adg

>  <m_score__min__energy>  (6) 
-8.3200000000000003

>  <m_primary>  (6) 
energy

$$$$
6:0
     RDKit          3D

 33 34  0  0  0  0  0  0  0  0999 V2000
  145.5880  155.6370  134.4630 C   0  0  0  0  0  0  0  0  0  0  0  0
  145.9410  156.5150  133.3050 C   0  0  0  0  0  0  0  0  0  0  0  0
  146.3060  155.9850  132.2220 O   0  0  0  0  0  0  0  0  0  0  0  0
  145.8880  157.9480  133.4150 N   0  0  0  0  0  0  0  0  0  0  0  0
  146.8980  158.8290  133.1650 C   0  0  0  0  0  0  0  0  0  0  0  0
  148.3010  158.4720  132.8690 C   0  0  0  0  0  0  0  0  0  0  0  0
  148.6280  157.5160  131.8610 N   0  0  0  0  0  0  0  0  0  0  0  0
  149.2260  158.9890  133.5520 O   0  0  0  0  0  0  0  0  0  0  0  0
  146.4370  160.1400  133.2420 C   0  0  0  0  0  0  0  0  0  0  0  0
  145.1010  160.0380  133.5560 C   0  0  0  0  0  0  0  0  0  0  0  0
  144.1440  161.0340  133.7220 C   0  0  0  0  0  0  0  0  0  0  0  0
  142.8220  160.6410  133.9860 C   0  0  0  0  0  0  0  0  0  0  0  0
  142.4810  159.2670  134.0690 C   0  0  0  0  0  0  0  0  0  0  0  0
  141.0500  158.8530  134.3000 C   0  0  0  0  0  0  0  0  0  0  0  0
  140.4020  158.3170  133.0140 C   0  0  1  0  0  0  0  0  0  0  0  0
  139.0740  157.1980  133.4290 Cl  0  0  0  0  0  0  0  0  0  0  0  0
  139.8700  159.4280  132.1560 C   0  0  0  0  0  0  0  0  0  0  0  0
  139.8400  160.6100  132.5870 O   0  0  0  0  0  0  0  0  0  0  0  0
  139.4310  159.1560  130.8660 O   0  0  0  0  0  0  0  0  0  0  0  0
  143.4780  158.2840  133.8840 C   0  0  0  0  0  0  0  0  0  0  0  0
  144.7920  158.7050  133.6500 C   0  0  0  0  0  0  0  0  0  0  0  0
  145.8010  156.1668  135.4032 H   0  0  0  0  0  0  0  0  0  0  0  0
  144.5184  155.3842  134.4188 H   0  0  0  0  0  0  0  0  0  0  0  0
  146.1850  154.7141  134.4188 H   0  0  0  0  0  0  0  0  0  0  0  0
  149.6280  157.3190  131.6330 H   0  0  0  0  0  0  0  0  0  0  0  0
  147.8910  156.9320  131.4090 H   0  0  0  0  0  0  0  0  0  0  0  0
  147.0170  161.0614  133.0853 H   0  0  0  0  0  0  0  0  0  0  0  0
  144.4148  162.0976  133.6486 H   0  0  0  0  0  0  0  0  0  0  0  0
  142.0442  161.4055  134.1296 H   0  0  0  0  0  0  0  0  0  0  0  0
  141.0257  158.0651  135.0672 H   0  0  0  0  0  0  0  0  0  0  0  0
  140.4843  159.7377  134.6276 H   0  0  0  0  0  0  0  0  0  0  0  0
  141.1782  157.7867  132.4428 H   0  0  0  0  0  0  0  0  0  0  0  0
  143.2278  157.2135  133.9229 H   0  0  0  0  0  0  0  0  0  0  0  0
  1  2  1  0
  2  3  2  0
  2  4  1  0
  4  5  1  0
  5  6  1  0
  6  7  1  0
  6  8  2  0
  5  9  2  0
  9 10  1  0
 10 11  2  0
 11 12  1  0
 12 13  2  0
 13 14  1  0
 14 15  1  0
 15 16  1  0
 15 17  1  0
 17 18  2  0
 17 19  1  0
 13 20  1  0
 20 21  2  0
 21  4  1  0
 21 10  1  0
  1 22  1  0
  1 23  1  0
  1 24  1  0
  7 25  1  0
  7 26  1  0
  9 27  1  0
 11 28  1  0
 12 29  1  0
 14 30  1  0
 14 31  1  0
 15 32  1  6
 20 33  1  0
M  CHG  1  19  -1
M  END
>  <UniqueID>  (7) 
7

>  <SMILES>  (7) 
CC(=O)n1c(C(N)=O)cc2ccc(C[C@@H](Cl)C(=O)[O-])cc21

>  <Energy>  (7) 
69.34407177923293

>  <Genealogy>  (7) 
CC(=O)n1c(C(N)=O)cc2ccc(CC(Cl)C(=O)[O-])cc21 (protonated)
CC(=O)n1c(C(N)=O)cc2ccc(C[C@@H](Cl)C(=O)[O-])cc21 (chirality)
CC(=O)n1c(C(N)=O)cc2ccc(C[C@@H](Cl)C(=O)[O-])cc21 (3D coordinates assigned)
CC(=O)n1c(C(N)=O)cc2ccc(C[C@@H](Cl)C(=O)[O-])cc21 (optimized conformer: 69.34407177923293 kcal/mol)

>  <smiles>  (7) 
CC(=O)n1c(C(N)=O)cc2ccc(CC(Cl)C(=O)O)cc21

>  <score_type>  (7) 
oracle

>  <origin>  (7) 
adg

>  <m_score__min__energy>  (7) 
-7.0199999999999996

>  <m_primary>  (7) 
energy

$$$$
7:0
     RDKit          3D

 29 30  0  0  0  0  0  0  0  0999 V2000
  149.3210  152.0670  132.7540 C   0  0  0  0  0  0  0  0  0  0  0  0
  148.3730  153.0820  133.1930 N   0  0  0  0  0  0  0  0  0  0  0  0
  148.5920  154.4770  132.9460 C   0  0  0  0  0  0  0  0  0  0  0  0
  149.5970  154.8530  132.2840 O   0  0  0  0  0  0  0  0  0  0  0  0
  147.6710  155.4520  133.4580 N   0  0  0  0  0  0  0  0  0  0  0  0
  146.6220  155.2490  134.3020 C   0  0  0  0  0  0  0  0  0  0  0  0
  146.2880  153.9780  134.9820 C   0  0  0  0  0  0  0  0  0  0  0  0
  145.4550  153.0060  134.3550 N   0  0  0  0  0  0  0  0  0  0  0  0
  146.7770  153.7310  136.1160 O   0  0  0  0  0  0  0  0  0  0  0  0
  145.9190  156.4350  134.5010 C   0  0  0  0  0  0  0  0  0  0  0  0
  146.5770  157.3810  133.7480 C   0  0  0  0  0  0  0  0  0  0  0  0
  146.3070  158.7330  133.5710 C   0  0  0  0  0  0  0  0  0  0  0  0
  147.1420  159.4660  132.7100 C   0  0  0  0  0  0  0  0  0  0  0  0
  148.2100  158.8320  132.0230 C   0  0  0  0  0  0  0  0  0  0  0  0
  149.1220  159.6370  131.1300 C   0  0  0  0  0  0  0  0  0  0  0  0
  148.5690  160.8750  130.8570 F   0  0  0  0  0  0  0  0  0  0  0  0
  150.3500  159.8350  131.7370 F   0  0  0  0  0  0  0  0  0  0  0  0
  149.3110  158.9550  129.9420 F   0  0  0  0  0  0  0  0  0  0  0  0
  148.4650  157.4590  132.2460 C   0  0  0  0  0  0  0  0  0  0  0  0
  147.6300  156.7610  133.1260 C   0  0  0  0  0  0  0  0  0  0  0  0
  149.7730  151.5831  133.6324 H   0  0  0  0  0  0  0  0  0  0  0  0
  148.7966  151.3127  132.1491 H   0  0  0  0  0  0  0  0  0  0  0  0
  150.1093  152.5388  132.1491 H   0  0  0  0  0  0  0  0  0  0  0  0
  147.5030  152.7820  133.6860 H   0  0  0  0  0  0  0  0  0  0  0  0
  145.8620  152.2620  133.7450 H   0  0  0  0  0  0  0  0  0  0  0  0
  145.0270  156.5840  135.1272 H   0  0  0  0  0  0  0  0  0  0  0  0
  145.4649  159.2150  134.0893 H   0  0  0  0  0  0  0  0  0  0  0  0
  146.9659  160.5424  132.5671 H   0  0  0  0  0  0  0  0  0  0  0  0
  149.2996  156.9518  131.7399 H   0  0  0  0  0  0  0  0  0  0  0  0
  1  2  1  0
  2  3  1  0
  3  4  2  0
  3  5  1  0
  5  6  1  0
  6  7  1  0
  7  8  1  0
  7  9  2  0
  6 10  2  0
 10 11  1  0
 11 12  2  0
 12 13  1  0
 13 14  2  0
 14 15  1  0
 15 16  1  0
 15 17  1  0
 15 18  1  0
 14 19  1  0
 19 20  2  0
 20  5  1  0
 20 11  1  0
  1 21  1  0
  1 22  1  0
  1 23  1  0
  2 24  1  0
  8 25  1  0
 10 26  1  0
 12 27  1  0
 13 28  1  0
 19 29  1  0
M  CHG  1   8  -1
M  END
>  <UniqueID>  (8) 
8

>  <SMILES>  (8) 
CNC(=O)n1c(C([NH-])=O)cc2ccc(C(F)(F)F)cc21

>  <Energy>  (8) 
66.50471326130146

>  <Genealogy>  (8) 
CNC(=O)n1c(C([NH-])=O)cc2ccc(C(F)(F)F)cc21 (protonated)
CNC(=O)n1c(C([NH-])=O)cc2ccc(C(F)(F)F)cc21 (3D coordinates assigned)
CNC(=O)n1c(C([NH-])=O)cc2ccc(C(F)(F)F)cc21 (optimized conformer: 66.50471326130146 kcal/mol)

>  <smiles>  (8) 
CNC(=O)n1c(C(N)=O)cc2ccc(C(F)(F)F)cc21

>  <score_type>  (8) 
oracle

>  <origin>  (8) 
adg

>  <m_score__min__energy>  (8) 
-5.8499999999999996

>  <m_primary>  (8) 
energy

$$$$
8:0
     RDKit          3D

117123  0  0  0  0  0  0  0  0999 V2000
  148.9650  153.6620  141.2270 C   0  0  0  0  0  0  0  0  0  0  0  0
  148.7370  154.5180  139.9680 C   0  0  0  0  0  0  0  0  0  0  0  0
  149.7230  154.0730  138.8800 C   0  0  0  0  0  0  0  0  0  0  0  0
  148.9760  156.0100  140.2770 C   0  0  0  0  0  0  0  0  0  0  0  0
  147.4130  154.3130  139.4510 O   0  0  0  0  0  0  0  0  0  0  0  0
  146.9340  153.1450  138.8370 C   0  0  0  0  0  0  0  0  0  0  0  0
  146.9900  153.0020  137.5850 O   0  0  0  0  0  0  0  0  0  0  0  0
  146.3480  152.1110  139.6430 N   0  0  0  0  0  0  0  0  0  0  0  0
  146.9920  151.1490  140.3640 C   0  0  0  0  0  0  0  0  0  0  0  0
  148.4450  150.8770  140.3430 C   0  0  0  0  0  0  0  0  0  0  0  0
  148.9970  149.8920  141.2180 N   0  0  0  0  0  0  0  0  0  0  0  0
  149.2020  151.4800  139.5340 O   0  0  0  0  0  0  0  0  0  0  0  0
  146.0780  150.3740  141.0750 C   0  0  0  0  0  0  0  0  0  0  0  0
  144.8410  150.8880  140.7570 C   0  0  0  0  0  0  0  0  0  0  0  0
  143.5730  150.4990  141.1830 C   0  0  0  0  0  0  0  0  0  0  0  0
  142.4690  151.2250  140.7080 C   0  0  0  0  0  0  0  0  0  0  0  0
  142.6490  152.3200  139.8270 C   0  0  0  0  0  0  0  0  0  0  0  0
  141.4570  153.1010  139.3420 C   0  0  0  0  0  0  0  0  0  0  0  0
  141.4660  153.2580  137.8520 C   0  0  0  0  0  0  0  0  0  0  0  0
  140.9470  152.3750  137.1170 O   0  0  0  0  0  0  0  0  0  0  0  0
  141.9810  154.4380  137.3020 O   0  0  0  0  0  0  0  0  0  0  0  0
  142.2650  154.6170  135.9140 C   0  0  2  0  0  0  0  0  0  0  0  0
  141.0480  154.5410  135.2100 O   0  0  0  0  0  0  0  0  0  0  0  0
  141.1920  155.1220  133.9290 C   0  0  2  0  0  0  0  0  0  0  0  0
  139.8720  154.9330  133.1670 C   0  0  0  0  0  0  0  0  0  0  0  0
  139.4260  156.1720  132.6170 O   0  0  0  0  0  0  0  0  0  0  0  0
  139.1840  157.3160  133.3870 C   0  0  0  0  0  0  0  0  0  0  0  0
  138.0530  157.4920  133.9220 O   0  0  0  0  0  0  0  0  0  0  0  0
  140.2520  158.3210  133.5720 C   0  0  0  0  0  0  0  0  0  0  0  0
  140.6640  159.1270  132.4970 C   0  0  0  0  0  0  0  0  0  0  0  0
  141.6750  160.0790  132.6690 C   0  0  0  0  0  0  0  0  0  0  0  0
  142.2960  160.2420  133.9200 C   0  0  0  0  0  0  0  0  0  0  0  0
  143.3410  161.2160  134.1000 N   0  0  0  0  0  0  0  0  0  0  0  0
  144.3180  160.9760  134.8390 O   0  0  0  0  0  0  0  0  0  0  0  0
  143.2830  162.4310  133.4540 O   0  0  0  0  0  0  0  0  0  0  0  0
  141.8820  159.4380  134.9960 C   0  0  0  0  0  0  0  0  0  0  0  0
  140.8690  158.4900  134.8250 C   0  0  0  0  0  0  0  0  0  0  0  0
  142.4050  154.5530  133.1160 C   0  0  1  0  0  0  0  0  0  0  0  0
  143.2500  155.6530  132.7580 O   0  0  0  0  0  0  0  0  0  0  0  0
  143.7950  156.5570  133.6790 C   0  0  0  0  0  0  0  0  0  0  0  0
  143.2440  156.7320  134.8000 O   0  0  0  0  0  0  0  0  0  0  0  0
  145.0370  157.2880  133.3480 C   0  0  0  0  0  0  0  0  0  0  0  0
  146.2090  156.5850  133.0240 C   0  0  0  0  0  0  0  0  0  0  0  0
  147.3890  157.2740  132.7250 C   0  0  0  0  0  0  0  0  0  0  0  0
  147.4230  158.6800  132.7480 C   0  0  0  0  0  0  0  0  0  0  0  0
  148.6410  159.3860  132.4500 N   0  0  0  0  0  0  0  0  0  0  0  0
  149.7350  158.9890  132.9040 O   0  0  0  0  0  0  0  0  0  0  0  0
  148.6210  160.5100  131.6550 O   0  0  0  0  0  0  0  0  0  0  0  0
  146.2480  159.3820  133.0720 C   0  0  0  0  0  0  0  0  0  0  0  0
  145.0680  158.6930  133.3640 C   0  0  0  0  0  0  0  0  0  0  0  0
  143.2560  153.4710  133.8550 C   0  0  2  0  0  0  0  0  0  0  0  0
  142.8900  152.1680  133.3910 O   0  0  0  0  0  0  0  0  0  0  0  0
  141.6500  151.5680  133.6450 C   0  0  0  0  0  0  0  0  0  0  0  0
  141.0400  151.8060  134.7240 O   0  0  0  0  0  0  0  0  0  0  0  0
  141.0480  150.6660  132.6390 C   0  0  0  0  0  0  0  0  0  0  0  0
  141.8370  149.7080  131.9830 C   0  0  0  0  0  0  0  0  0  0  0  0
  141.2730  148.8610  131.0250 C   0  0  0  0  0  0  0  0  0  0  0  0
  139.9080  148.9590  130.6990 C   0  0  0  0  0  0  0  0  0  0  0  0
  139.3220  148.0870  129.7160 N   0  0  0  0  0  0  0  0  0  0  0  0
  138.8250  148.5520  128.6670 O   0  0  0  0  0  0  0  0  0  0  0  0
  139.3250  146.7240  129.9010 O   0  0  0  0  0  0  0  0  0  0  0  0
  139.1200  149.9200  131.3540 C   0  0  0  0  0  0  0  0  0  0  0  0
  139.6830  150.7630  132.3160 C   0  0  0  0  0  0  0  0  0  0  0  0
  143.1560  153.4830  135.4050 C   0  0  1  0  0  0  0  0  0  0  0  0
  144.4660  153.5850  135.9760 O   0  0  0  0  0  0  0  0  0  0  0  0
  145.5060  154.3450  135.4230 C   0  0  0  0  0  0  0  0  0  0  0  0
  145.5700  155.5860  135.6390 O   0  0  0  0  0  0  0  0  0  0  0  0
  146.5250  153.6880  134.5760 C   0  0  0  0  0  0  0  0  0  0  0  0
  146.1440  153.0090  133.4050 C   0  0  0  0  0  0  0  0  0  0  0  0
  147.1040  152.3740  132.6090 C   0  0  0  0  0  0  0  0  0  0  0  0
  148.4620  152.3970  132.9730 C   0  0  0  0  0  0  0  0  0  0  0  0
  149.4470  151.7110  132.1780 N   0  0  0  0  0  0  0  0  0  0  0  0
  149.6120  152.0050  130.9750 O   0  0  0  0  0  0  0  0  0  0  0  0
  150.2100  150.7050  132.7270 O   0  0  0  0  0  0  0  0  0  0  0  0
  148.8420  153.0870  134.1360 C   0  0  0  0  0  0  0  0  0  0  0  0
  147.8850  153.7290  134.9270 C   0  0  0  0  0  0  0  0  0  0  0  0
  143.9490  152.6940  139.4280 C   0  0  0  0  0  0  0  0  0  0  0  0
  145.0320  151.9370  139.8940 C   0  0  0  0  0  0  0  0  0  0  0  0
  148.8010  154.2777  142.1237 H   0  0  0  0  0  0  0  0  0  0  0  0
  148.2606  152.8172  141.2285 H   0  0  0  0  0  0  0  0  0  0  0  0
  149.9963  153.2795  141.2285 H   0  0  0  0  0  0  0  0  0  0  0  0
  150.6290  153.6641  139.3512 H   0  0  0  0  0  0  0  0  0  0  0  0
  149.2540  153.2993  138.2544 H   0  0  0  0  0  0  0  0  0  0  0  0
  149.9930  154.9365  138.2544 H   0  0  0  0  0  0  0  0  0  0  0  0
  149.0000  156.1595  141.3665 H   0  0  0  0  0  0  0  0  0  0  0  0
  149.9361  156.3252  139.8424 H   0  0  0  0  0  0  0  0  0  0  0  0
  148.1624  156.6093  139.8424 H   0  0  0  0  0  0  0  0  0  0  0  0
  148.8870  148.8730  141.0150 H   0  0  0  0  0  0  0  0  0  0  0  0
  146.2979  149.5313  141.7470 H   0  0  0  0  0  0  0  0  0  0  0  0
  143.4408  149.6499  141.8698 H   0  0  0  0  0  0  0  0  0  0  0  0
  141.4541  150.9408  141.0230 H   0  0  0  0  0  0  0  0  0  0  0  0
  140.5394  152.5721  139.6391 H   0  0  0  0  0  0  0  0  0  0  0  0
  141.4977  154.1036  139.7926 H   0  0  0  0  0  0  0  0  0  0  0  0
  142.7695  155.5835  135.7679 H   0  0  0  0  0  0  0  0  0  0  0  0
  141.4153  156.1912  134.0588 H   0  0  0  0  0  0  0  0  0  0  0  0
  140.0257  154.2105  132.3520 H   0  0  0  0  0  0  0  0  0  0  0  0
  139.1092  154.5615  133.8671 H   0  0  0  0  0  0  0  0  0  0  0  0
  140.1879  159.0085  131.5125 H   0  0  0  0  0  0  0  0  0  0  0  0
  141.9863  160.7045  131.8193 H   0  0  0  0  0  0  0  0  0  0  0  0
  142.3588  159.5557  135.9803 H   0  0  0  0  0  0  0  0  0  0  0  0
  140.5517  157.8711  135.6772 H   0  0  0  0  0  0  0  0  0  0  0  0
  141.9804  154.0367  132.2424 H   0  0  0  0  0  0  0  0  0  0  0  0
  146.1988  155.4852  133.0053 H   0  0  0  0  0  0  0  0  0  0  0  0
  148.2989  156.7111  132.4695 H   0  0  0  0  0  0  0  0  0  0  0  0
  146.2581  160.4817  133.0957 H   0  0  0  0  0  0  0  0  0  0  0  0
  144.1549  159.2554  133.6086 H   0  0  0  0  0  0  0  0  0  0  0  0
  144.2987  153.7247  133.6132 H   0  0  0  0  0  0  0  0  0  0  0  0
  142.9068  149.6233  132.2247 H   0  0  0  0  0  0  0  0  0  0  0  0
  141.9016  148.1116  130.5217 H   0  0  0  0  0  0  0  0  0  0  0  0
  138.0517  150.0096  131.1078 H   0  0  0  0  0  0  0  0  0  0  0  0
  139.0534  151.5081  132.8244 H   0  0  0  0  0  0  0  0  0  0  0  0
  142.6904  152.5369  135.7182 H   0  0  0  0  0  0  0  0  0  0  0  0
  145.0840  152.9768  133.1126 H   0  0  0  0  0  0  0  0  0  0  0  0
  146.7938  151.8528  131.6913 H   0  0  0  0  0  0  0  0  0  0  0  0
  149.9023  153.1224  134.4269 H   0  0  0  0  0  0  0  0  0  0  0  0
  148.1990  154.2706  135.8315 H   0  0  0  0  0  0  0  0  0  0  0  0
  144.1088  153.5588  138.7672 H   0  0  0  0  0  0  0  0  0  0  0  0
  1  2  1  0
  2  3  1  0
  2  4  1  0
  2  5  1  0
  5  6  1  0
  6  7  2  0
  6  8  1  0
  8  9  1  0
  9 10  1  0
 10 11  1  0
 10 12  2  0
  9 13  2  0
 13 14  1  0
 14 15  2  0
 15 16  1  0
 16 17  2  0
 17 18  1  0
 18 19  1  0
 19 20  2  0
 19 21  1  0
 21 22  1  0
 22 23  1  0
 23 24  1  0
 24 25  1  0
 25 26  1  0
 26 27  1  0
 27 28  2  0
 27 29  1  0
 29 30  2  0
 30 31  1  0
 31 32  2  0
 32 33  1  0
 33 34  2  0
 33 35  1  0
 32 36  1  0
 36 37  2  0
 24 38  1  0
 38 39  1  0
 39 40  1  0
 40 41  2  0
 40 42  1  0
 42 43  2  0
 43 44  1  0
 44 45  2  0
 45 46  1  0
 46 47  2  0
 46 48  1  0
 45 49  1  0
 49 50  2  0
 38 51  1  0
 51 52  1  0
 52 53  1  0
 53 54  2  0
 53 55  1  0
 55 56  2  0
 56 57  1  0
 57 58  2  0
 58 59  1  0
 59 60  2  0
 59 61  1  0
 58 62  1  0
 62 63  2  0
 51 64  1  0
 64 65  1  0
 65 66  1  0
 66 67  2  0
 66 68  1  0
 68 69  2  0
 69 70  1  0
 70 71  2  0
 71 72  1  0
 72 73  2  0
 72 74  1  0
 71 75  1  0
 75 76  2  0
 17 77  1  0
 77 78  2  0
 78  8  1  0
 78 14  1  0
 64 22  1  0
 76 68  1  0
 37 29  1  0
 50 42  1  0
 63 55  1  0
  1 79  1  0
  1 80  1  0
  1 81  1  0
  3 82  1  0
  3 83  1  0
  3 84  1  0
  4 85  1  0
  4 86  1  0
  4 87  1  0
 11 88  1  0
 13 89  1  0
 15 90  1  0
 16 91  1  0
 18 92  1  0
 18 93  1  0
 22 94  1  1
 24 95  1  1
 25 96  1  0
 25 97  1  0
 30 98  1  0
 31 99  1  0
 36100  1  0
 37101  1  0
 38102  1  6
 43103  1  0
 44104  1  0
 49105  1  0
 50106  1  0
 51107  1  1
 56108  1  0
 57109  1  0
 62110  1  0
 63111  1  0
 64112  1  1
 69113  1  0
 70114  1  0
 75115  1  0
 76116  1  0
 77117  1  0
M  CHG  8  11  -1  33   1  35  -1  46   1  48  -1  59   1  61  -1  72   1
M  CHG  1  74  -1
M  END
>  <UniqueID>  (9) 
9

>  <SMILES>  (9) 
CC(C)(C)OC(=O)n1c(C([NH-])=O)cc2ccc(CC(=O)O[C@@H]3O[C@H](COC(=O)c4ccc([N+](=O)[O-])cc4)[C@@H](OC(=O)c4ccc([N+](=O)[O-])cc4)[C@H](OC(=O)c4ccc([N+](=O)[O-])cc4)[C@H]3OC(=O)c3ccc([N+](=O)[O-])cc3)cc21

>  <Energy>  (9) 
173.76994855511765

>  <Genealogy>  (9) 
CC(C)(C)OC(=O)n1c(C([NH-])=O)cc2ccc(CC(=O)O[C@@H]3O[C@H](COC(=O)c4ccc([N+](=O)[O-])cc4)[C@@H](OC(=O)c4ccc([N+](=O)[O-])cc4)[C@H](OC(=O)c4ccc([N+](=O)[O-])cc4)[C@H]3OC(=O)c3ccc([N+](=O)[O-])cc3)cc21 (protonated)
CC(C)(C)OC(=O)n1c(C([NH-])=O)cc2ccc(CC(=O)O[C@@H]3O[C@H](COC(=O)c4ccc([N+](=O)[O-])cc4)[C@@H](OC(=O)c4ccc([N+](=O)[O-])cc4)[C@H](OC(=O)c4ccc([N+](=O)[O-])cc4)[C@H]3OC(=O)c3ccc([N+](=O)[O-])cc3)cc21 (3D coordinates assigned)
CC(C)(C)OC(=O)n1c(C([NH-])=O)cc2ccc(CC(=O)O[C@@H]3O[C@H](COC(=O)c4ccc([N+](=O)[O-])cc4)[C@@H](OC(=O)c4ccc([N+](=O)[O-])cc4)[C@H](OC(=O)c4ccc([N+](=O)[O-])cc4)[C@H]3OC(=O)c3ccc([N+](=O)[O-])cc3)cc21 (nonaromatic ring conformer: 173.76994855511765 kcal/mol)

>  <smiles>  (9) 
CC(C)(C)OC(=O)n1c(C(N)=O)cc2ccc(CC(=O)O[C@@H]3O[C@H](COC(=O)c4ccc([N+](=O)[O-])cc4)[C@@H](OC(=O)c4ccc([N+](=O)[O-])cc4)[C@H](OC(=O)c4ccc([N+](=O)[O-])cc4)[C@H]3OC(=O)c3ccc([N+](=O)[O-])cc3)cc21

>  <score_type>  (9) 
oracle

>  <origin>  (9) 
adg

>  <m_score__min__energy>  (9) 
-17.699999999999999

>  <m_primary>  (9) 
energy

$$$$
9:0
     RDKit          3D

 48 50  0  0  0  0  0  0  0  0999 V2000
  141.5180  155.6020  135.8690 C   0  0  0  0  0  0  0  0  0  0  0  0
  140.6550  156.3060  134.9170 N   0  0  0  0  0  0  0  0  0  0  0  0
  140.7000  155.9140  133.5000 C   0  0  0  0  0  0  0  0  0  0  0  0
  139.4930  156.4380  132.7100 C   0  0  0  0  0  0  0  0  0  0  0  0
  139.2340  157.9320  132.9710 C   0  0  2  0  0  0  0  0  0  0  0  0
  140.4140  158.8110  132.4740 C   0  0  0  0  0  0  0  0  0  0  0  0
  140.6330  160.1090  133.2820 C   0  0  0  0  0  0  0  0  0  0  0  0
  141.5400  159.9560  134.5150 C   0  0  0  0  0  0  0  0  0  0  0  0
  142.9680  159.6440  134.1430 C   0  0  0  0  0  0  0  0  0  0  0  0
  143.8690  160.6920  133.8320 C   0  0  0  0  0  0  0  0  0  0  0  0
  145.1860  160.4100  133.4340 C   0  0  0  0  0  0  0  0  0  0  0  0
  145.5730  159.0750  133.3650 C   0  0  0  0  0  0  0  0  0  0  0  0
  146.7710  158.5240  132.9710 C   0  0  0  0  0  0  0  0  0  0  0  0
  146.5930  157.1470  133.0740 C   0  0  0  0  0  0  0  0  0  0  0  0
  147.6630  156.1690  132.7990 C   0  0  0  0  0  0  0  0  0  0  0  0
  147.3930  154.9540  132.0990 N   0  0  0  0  0  0  0  0  0  0  0  0
  148.8240  156.3820  133.2400 O   0  0  0  0  0  0  0  0  0  0  0  0
  145.3310  156.8540  133.5000 N   0  0  0  0  0  0  0  0  0  0  0  0
  144.7290  155.5540  133.6180 C   0  0  0  0  0  0  0  0  0  0  0  0
  144.4340  154.8930  132.5880 O   0  0  0  0  0  0  0  0  0  0  0  0
  144.4620  155.0120  134.8700 O   0  0  0  0  0  0  0  0  0  0  0  0
  144.7190  158.0470  133.6770 C   0  0  0  0  0  0  0  0  0  0  0  0
  143.3950  158.3010  134.0540 C   0  0  0  0  0  0  0  0  0  0  0  0
  138.9230  158.1400  134.4640 C   0  0  0  0  0  0  0  0  0  0  0  0
  139.9440  157.4830  135.3500 C   0  0  0  0  0  0  0  0  0  0  0  0
  140.1170  157.9360  136.5140 O   0  0  0  0  0  0  0  0  0  0  0  0
  141.2118  155.8518  136.8956 H   0  0  0  0  0  0  0  0  0  0  0  0
  141.4273  154.5169  135.7131 H   0  0  0  0  0  0  0  0  0  0  0  0
  142.5628  155.9088  135.7131 H   0  0  0  0  0  0  0  0  0  0  0  0
  141.6190  156.3183  133.0505 H   0  0  0  0  0  0  0  0  0  0  0  0
  140.6792  154.8151  133.4549 H   0  0  0  0  0  0  0  0  0  0  0  0
  139.6822  156.2932  131.6361 H   0  0  0  0  0  0  0  0  0  0  0  0
  138.6048  155.8782  133.0382 H   0  0  0  0  0  0  0  0  0  0  0  0
  138.3577  158.2578  132.3913 H   0  0  0  0  0  0  0  0  0  0  0  0
  141.3352  158.2124  132.5299 H   0  0  0  0  0  0  0  0  0  0  0  0
  140.1624  159.1204  131.4488 H   0  0  0  0  0  0  0  0  0  0  0  0
  141.0870  160.8556  132.6138 H   0  0  0  0  0  0  0  0  0  0  0  0
  139.6445  160.4089  133.6600 H   0  0  0  0  0  0  0  0  0  0  0  0
  141.5210  160.8958  135.0863 H   0  0  0  0  0  0  0  0  0  0  0  0
  141.1570  159.1144  135.1108 H   0  0  0  0  0  0  0  0  0  0  0  0
  143.5337  161.7372  133.9030 H   0  0  0  0  0  0  0  0  0  0  0  0
  145.8891  161.2184  133.1848 H   0  0  0  0  0  0  0  0  0  0  0  0
  147.6758  159.0575  132.6445 H   0  0  0  0  0  0  0  0  0  0  0  0
  146.4150  154.6690  131.8710 H   0  0  0  0  0  0  0  0  0  0  0  0
  148.1690  154.2910  131.8800 H   0  0  0  0  0  0  0  0  0  0  0  0
  142.7039  157.4743  134.2756 H   0  0  0  0  0  0  0  0  0  0  0  0
  138.9103  159.2191  134.6769 H   0  0  0  0  0  0  0  0  0  0  0  0
  137.9458  157.6807  134.6741 H   0  0  0  0  0  0  0  0  0  0  0  0
  1  2  1  0
  2  3  1  0
  3  4  1  0
  4  5  1  0
  5  6  1  0
  6  7  1  0
  7  8  1  0
  8  9  1  0
  9 10  2  0
 10 11  1  0
 11 12  2  0
 12 13  1  0
 13 14  2  0
 14 15  1  0
 15 16  1  0
 15 17  2  0
 14 18  1  0
 18 19  1  0
 19 20  2  0
 19 21  1  0
 18 22  1  0
 22 23  2  0
  5 24  1  0
 24 25  1  0
 25 26  2  0
 25  2  1  0
 23  9  1  0
 22 12  1  0
  1 27  1  0
  1 28  1  0
  1 29  1  0
  3 30  1  0
  3 31  1  0
  4 32  1  0
  4 33  1  0
  5 34  1  6
  6 35  1  0
  6 36  1  0
  7 37  1  0
  7 38  1  0
  8 39  1  0
  8 40  1  0
 10 41  1  0
 11 42  1  0
 13 43  1  0
 16 44  1  0
 16 45  1  0
 23 46  1  0
 24 47  1  0
 24 48  1  0
M  CHG  1  21  -1
M  END
>  <UniqueID>  (10) 
10

>  <SMILES>  (10) 
CN1CC[C@H](CCCc2ccc3cc(C(N)=O)n(C(=O)[O-])c3c2)CC1=O

>  <Energy>  (10) 
83.13904140155063

>  <Genealogy>  (10) 
CN1CCC(CCCc2ccc3cc(C(N)=O)n(C(=O)[O-])c3c2)CC1=O (protonated)
CN1CC[C@H](CCCc2ccc3cc(C(N)=O)n(C(=O)[O-])c3c2)CC1=O (chirality)
CN1CC[C@H](CCCc2ccc3cc(C(N)=O)n(C(=O)[O-])c3c2)CC1=O (3D coordinates assigned)
CN1CC[C@H](CCCc2ccc3cc(C(N)=O)n(C(=O)[O-])c3c2)CC1=O (nonaromatic ring conformer: 83.13904140155063 kcal/mol)

>  <smiles>  (10) 
CN1CCC(CCCc2ccc3cc(C(N)=O)n(C(=O)O)c3c2)CC1=O

>  <score_type>  (10) 
oracle

>  <origin>  (10) 
adg

>  <m_score__min__energy>  (10) 
-8.0800000000000001

>  <m_primary>  (10) 
energy

$$$$
10:0
     RDKit          3D

 40 42  0  0  0  0  0  0  0  0999 V2000
  141.1500  153.7330  133.2390 C   0  0  0  0  0  0  0  0  0  0  0  0
  142.4050  154.4900  133.0930 N   0  0  2  0  0  0  0  0  0  0  0  0
  143.3350  153.7550  132.2110 C   0  0  0  0  0  0  0  0  0  0  0  0
  144.6120  154.5700  131.9700 C   0  0  0  0  0  0  0  0  0  0  0  0
  145.2980  154.9960  133.2950 C   0  0  1  0  0  0  0  0  0  0  0  0
  145.6490  156.4770  133.3300 C   0  0  0  0  0  0  0  0  0  0  0  0
  146.9900  156.8840  133.1020 C   0  0  0  0  0  0  0  0  0  0  0  0
  147.3550  158.2380  133.1720 C   0  0  0  0  0  0  0  0  0  0  0  0
  146.3650  159.1660  133.4710 C   0  0  0  0  0  0  0  0  0  0  0  0
  146.4500  160.5300  133.6300 C   0  0  0  0  0  0  0  0  0  0  0  0
  145.1570  160.9470  133.9390 C   0  0  0  0  0  0  0  0  0  0  0  0
  144.7800  162.3660  134.1050 C   0  0  0  0  0  0  0  0  0  0  0  0
  143.6750  162.9180  133.3960 N   0  0  0  0  0  0  0  0  0  0  0  0
  145.4740  163.1130  134.8450 O   0  0  0  0  0  0  0  0  0  0  0  0
  144.3070  159.8820  133.9790 N   0  0  0  0  0  0  0  0  0  0  0  0
  142.9210  159.8790  134.3570 C   0  0  0  0  0  0  0  0  0  0  0  0
  142.5670  159.4240  135.4770 O   0  0  0  0  0  0  0  0  0  0  0  0
  141.9600  160.4020  133.5000 O   0  0  0  0  0  0  0  0  0  0  0  0
  145.0630  158.7990  133.6880 C   0  0  0  0  0  0  0  0  0  0  0  0
  144.6740  157.4560  133.6430 C   0  0  0  0  0  0  0  0  0  0  0  0
  144.5020  154.5750  134.5480 C   0  0  0  0  0  0  0  0  0  0  0  0
  142.9840  154.8200  134.4290 C   0  0  0  0  0  0  0  0  0  0  0  0
  140.9256  153.5976  134.3073 H   0  0  0  0  0  0  0  0  0  0  0  0
  140.3297  154.2871  132.7594 H   0  0  0  0  0  0  0  0  0  0  0  0
  141.2574  152.7489  132.7594 H   0  0  0  0  0  0  0  0  0  0  0  0
  142.1560  155.3860  132.6110 H   0  0  0  0  0  0  0  0  0  0  0  0
  143.6012  152.7982  132.6840 H   0  0  0  0  0  0  0  0  0  0  0  0
  142.8405  153.5783  131.2444 H   0  0  0  0  0  0  0  0  0  0  0  0
  145.3170  153.9588  131.3873 H   0  0  0  0  0  0  0  0  0  0  0  0
  144.3300  155.4847  131.4280 H   0  0  0  0  0  0  0  0  0  0  0  0
  146.2473  154.4408  133.3196 H   0  0  0  0  0  0  0  0  0  0  0  0
  147.7537  156.1279  132.8672 H   0  0  0  0  0  0  0  0  0  0  0  0
  148.3935  158.5546  132.9954 H   0  0  0  0  0  0  0  0  0  0  0  0
  147.3480  161.1579  133.5337 H   0  0  0  0  0  0  0  0  0  0  0  0
  142.8830  162.3140  133.0790 H   0  0  0  0  0  0  0  0  0  0  0  0
  143.6326  157.1661  133.8465 H   0  0  0  0  0  0  0  0  0  0  0  0
  144.6681  153.5014  134.7205 H   0  0  0  0  0  0  0  0  0  0  0  0
  144.8634  155.1947  135.3819 H   0  0  0  0  0  0  0  0  0  0  0  0
  142.4764  154.2030  135.1850 H   0  0  0  0  0  0  0  0  0  0  0  0
  142.8292  155.8988  134.5785 H   0  0  0  0  0  0  0  0  0  0  0  0
  1  2  1  0
  2  3  1  0
  3  4  1  0
  4  5  1  0
  5  6  1  0
  6  7  2  0
  7  8  1  0
  8  9  2  0
  9 10  1  0
 10 11  2  0
 11 12  1  0
 12 13  1  0
 12 14  2  0
 11 15  1  0
 15 16  1  0
 16 17  2  0
 16 18  1  0
 15 19  1  0
 19 20  2  0
  5 21  1  0
 21 22  1  0
 22  2  1  0
 20  6  1  0
 19  9  1  0
  1 23  1  0
  1 24  1  0
  1 25  1  0
  2 26  1  6
  3 27  1  0
  3 28  1  0
  4 29  1  0
  4 30  1  0
  5 31  1  1
  7 32  1  0
  8 33  1  0
 10 34  1  0
 13 35  1  0
 20 36  1  0
 21 37  1  0
 21 38  1  0
 22 39  1  0
 22 40  1  0
M  CHG  3   2   1  13  -1  18  -1
M  END
>  <UniqueID>  (11) 
11

>  <SMILES>  (11) 
C[NH+]1CCC(c2ccc3cc(C([NH-])=O)n(C(=O)[O-])c3c2)CC1

>  <Energy>  (11) 
91.44926024833298

>  <Genealogy>  (11) 
C[NH+]1CCC(c2ccc3cc(C([NH-])=O)n(C(=O)[O-])c3c2)CC1 (protonated)
C[NH+]1CCC(c2ccc3cc(C([NH-])=O)n(C(=O)[O-])c3c2)CC1 (3D coordinates assigned)
C[NH+]1CCC(c2ccc3cc(C([NH-])=O)n(C(=O)[O-])c3c2)CC1 (nonaromatic ring conformer: 91.44926024833298 kcal/mol)

>  <smiles>  (11) 
CN1CCC(c2ccc3cc(C(N)=O)n(C(=O)O)c3c2)CC1

>  <score_type>  (11) 
oracle

>  <origin>  (11) 
adg

>  <m_score__min__energy>  (11) 
-6.8499999999999996

>  <m_primary>  (11) 
energy

$$$$
11:0
     RDKit          3D

 55 57  0  0  0  0  0  0  0  0999 V2000
  139.8090  155.5270  132.9970 C   0  0  0  0  0  0  0  0  0  0  0  0
  140.7050  156.7610  132.9910 C   0  0  0  0  0  0  0  0  0  0  0  0
  141.6400  156.7080  134.0670 O   0  0  0  0  0  0  0  0  0  0  0  0
  141.8810  157.7810  134.9370 C   0  0  0  0  0  0  0  0  0  0  0  0
  142.8740  158.5390  134.7480 O   0  0  0  0  0  0  0  0  0  0  0  0
  140.9870  158.0010  136.1430 C   0  0  0  0  0  0  0  0  0  0  0  0
  139.5140  158.1180  135.6650 C   0  0  0  0  0  0  0  0  0  0  0  0
  141.3630  159.3540  136.7960 C   0  0  0  0  0  0  0  0  0  0  0  0
  141.1680  156.8390  137.1470 C   0  0  0  0  0  0  0  0  0  0  0  0
  141.2610  157.0990  138.5480 C   0  0  0  0  0  0  0  0  0  0  0  0
  141.4530  156.0600  139.4740 C   0  0  0  0  0  0  0  0  0  0  0  0
  141.5680  154.7640  138.9890 C   0  0  0  0  0  0  0  0  0  0  0  0
  141.7660  153.5780  139.6590 C   0  0  0  0  0  0  0  0  0  0  0  0
  141.8240  152.5990  138.6690 C   0  0  0  0  0  0  0  0  0  0  0  0
  141.9660  151.1530  138.9500 C   0  0  0  0  0  0  0  0  0  0  0  0
  143.1380  150.6350  139.5750 N   0  0  0  0  0  0  0  0  0  0  0  0
  141.0440  150.3610  138.6170 O   0  0  0  0  0  0  0  0  0  0  0  0
  141.6680  153.1610  137.4390 N   0  0  0  0  0  0  0  0  0  0  0  0
  141.7270  152.5140  136.1570 C   0  0  0  0  0  0  0  0  0  0  0  0
  141.0670  151.4540  135.9740 O   0  0  0  0  0  0  0  0  0  0  0  0
  142.5730  153.0570  135.0680 C   0  0  0  0  0  0  0  0  0  0  0  0
  143.7590  153.7510  135.3660 C   0  0  0  0  0  0  0  0  0  0  0  0
  144.5450  154.2860  134.3400 C   0  0  0  0  0  0  0  0  0  0  0  0
  144.1640  154.1260  132.9990 C   0  0  0  0  0  0  0  0  0  0  0  0
  144.9810  154.7470  131.8960 C   0  0  0  0  0  0  0  0  0  0  0  0
  144.2640  154.6750  130.6230 N   0  0  0  0  0  0  0  0  0  0  0  0
  142.9800  153.4380  132.6970 C   0  0  0  0  0  0  0  0  0  0  0  0
  142.1960  152.8990  133.7210 C   0  0  0  0  0  0  0  0  0  0  0  0
  141.5160  154.4860  137.6530 C   0  0  0  0  0  0  0  0  0  0  0  0
  141.3490  155.5000  136.7040 C   0  0  0  0  0  0  0  0  0  0  0  0
  139.5960  155.2336  134.0355 H   0  0  0  0  0  0  0  0  0  0  0  0
  138.8656  155.7563  132.4799 H   0  0  0  0  0  0  0  0  0  0  0  0
  140.3191  154.7009  132.4799 H   0  0  0  0  0  0  0  0  0  0  0  0
  141.2527  156.8054  132.0381 H   0  0  0  0  0  0  0  0  0  0  0  0
  140.0767  157.6559  133.1110 H   0  0  0  0  0  0  0  0  0  0  0  0
  138.8480  158.1709  136.5389 H   0  0  0  0  0  0  0  0  0  0  0  0
  139.3964  159.0283  135.0588 H   0  0  0  0  0  0  0  0  0  0  0  0
  139.2542  157.2377  135.0588 H   0  0  0  0  0  0  0  0  0  0  0  0
  141.3349  159.2530  137.8910 H   0  0  0  0  0  0  0  0  0  0  0  0
  142.3759  159.6445  136.4804 H   0  0  0  0  0  0  0  0  0  0  0  0
  140.6452  160.1255  136.4804 H   0  0  0  0  0  0  0  0  0  0  0  0
  141.1806  158.1347  138.9099 H   0  0  0  0  0  0  0  0  0  0  0  0
  141.5106  156.2673  140.5527 H   0  0  0  0  0  0  0  0  0  0  0  0
  141.8588  153.4336  140.7455 H   0  0  0  0  0  0  0  0  0  0  0  0
  143.2640  149.6080  139.7140 H   0  0  0  0  0  0  0  0  0  0  0  0
  144.0710  153.8741  136.4136 H   0  0  0  0  0  0  0  0  0  0  0  0
  145.4662  154.8347  134.5856 H   0  0  0  0  0  0  0  0  0  0  0  0
  145.1779  155.8011  132.1412 H   0  0  0  0  0  0  0  0  0  0  0  0
  145.9281  154.1956  131.8019 H   0  0  0  0  0  0  0  0  0  0  0  0
  144.7250  155.3130  129.9340 H   0  0  0  0  0  0  0  0  0  0  0  0
  143.2680  154.9770  130.7540 H   0  0  0  0  0  0  0  0  0  0  0  0
  144.2900  153.6960  130.2520 H   0  0  0  0  0  0  0  0  0  0  0  0
  142.6666  153.3219  131.6490 H   0  0  0  0  0  0  0  0  0  0  0  0
  141.2775  152.3472  133.4724 H   0  0  0  0  0  0  0  0  0  0  0  0
  141.3576  155.2647  135.6295 H   0  0  0  0  0  0  0  0  0  0  0  0
  1  2  1  0
  2  3  1  0
  3  4  1  0
  4  5  2  0
  4  6  1  0
  6  7  1  0
  6  8  1  0
  6  9  1  0
  9 10  2  0
 10 11  1  0
 11 12  2  0
 12 13  1  0
 13 14  2  0
 14 15  1  0
 15 16  1  0
 15 17  2  0
 14 18  1  0
 18 19  1  0
 19 20  2  0
 19 21  1  0
 21 22  2  0
 22 23  1  0
 23 24  2  0
 24 25  1  0
 25 26  1  0
 24 27  1  0
 27 28  2  0
 18 29  1  0
 29 30  2  0
 30  9  1  0
 29 12  1  0
 28 21  1  0
  1 31  1  0
  1 32  1  0
  1 33  1  0
  2 34  1  0
  2 35  1  0
  7 36  1  0
  7 37  1  0
  7 38  1  0
  8 39  1  0
  8 40  1  0
  8 41  1  0
 10 42  1  0
 11 43  1  0
 13 44  1  0
 16 45  1  0
 22 46  1  0
 23 47  1  0
 25 48  1  0
 25 49  1  0
 26 50  1  0
 26 51  1  0
 26 52  1  0
 27 53  1  0
 28 54  1  0
 30 55  1  0
M  CHG  2  16  -1  26   1
M  END
>  <UniqueID>  (12) 
12

>  <SMILES>  (12) 
CCOC(=O)C(C)(C)c1ccc2cc(C([NH-])=O)n(C(=O)c3ccc(C[NH3+])cc3)c2c1

>  <Energy>  (12) 
95.54582882294595

>  <Genealogy>  (12) 
CCOC(=O)C(C)(C)c1ccc2cc(C([NH-])=O)n(C(=O)c3ccc(C[NH3+])cc3)c2c1 (protonated)
CCOC(=O)C(C)(C)c1ccc2cc(C([NH-])=O)n(C(=O)c3ccc(C[NH3+])cc3)c2c1 (3D coordinates assigned)
CCOC(=O)C(C)(C)c1ccc2cc(C([NH-])=O)n(C(=O)c3ccc(C[NH3+])cc3)c2c1 (optimized conformer: 95.54582882294595 kcal/mol)

>  <smiles>  (12) 
CCOC(=O)C(C)(C)c1ccc2cc(C(N)=O)n(C(=O)c3ccc(CN)cc3)c2c1

>  <score_type>  (12) 
oracle

>  <origin>  (12) 
adg

>  <m_score__min__energy>  (12) 
-8.8699999999999992

>  <m_primary>  (12) 
energy

$$$$
12:0
     RDKit          3D

 26 27  0  0  0  0  0  0  0  0999 V2000
  141.6860  160.6160  134.0960 N   0  0  0  0  0  0  0  0  0  0  0  0
  142.6500  159.7570  134.6990 C   0  0  0  0  0  0  0  0  0  0  0  0
  142.3810  159.2020  135.7970 O   0  0  0  0  0  0  0  0  0  0  0  0
  143.9790  159.5570  134.0850 C   0  0  0  0  0  0  0  0  0  0  0  0
  144.4760  158.3070  133.7250 C   0  0  0  0  0  0  0  0  0  0  0  0
  145.7600  158.5360  133.2860 C   0  0  0  0  0  0  0  0  0  0  0  0
  146.7130  157.6440  132.8040 C   0  0  0  0  0  0  0  0  0  0  0  0
  147.9520  158.1620  132.3950 C   0  0  0  0  0  0  0  0  0  0  0  0
  148.2090  159.5540  132.4590 C   0  0  0  0  0  0  0  0  0  0  0  0
  149.5470  160.0940  132.0380 C   0  0  0  0  0  0  0  0  0  0  0  0
  149.4940  160.5400  130.6120 C   0  0  0  0  0  0  0  0  0  0  0  0
  149.3160  159.7000  129.6910 O   0  0  0  0  0  0  0  0  0  0  0  0
  149.5930  161.8910  130.3020 O   0  0  0  0  0  0  0  0  0  0  0  0
  147.2220  160.4290  132.9640 C   0  0  0  0  0  0  0  0  0  0  0  0
  146.0010  159.8820  133.3820 C   0  0  0  0  0  0  0  0  0  0  0  0
  144.9160  160.5250  133.8690 N   0  0  0  0  0  0  0  0  0  0  0  0
  144.7630  161.9450  134.0230 C   0  0  0  0  0  0  0  0  0  0  0  0
  143.8460  162.5570  133.4150 O   0  0  0  0  0  0  0  0  0  0  0  0
  145.6090  162.6540  134.8670 O   0  0  0  0  0  0  0  0  0  0  0  0
  141.9810  161.4420  133.5290 H   0  0  0  0  0  0  0  0  0  0  0  0
  143.9529  157.3409  133.7799 H   0  0  0  0  0  0  0  0  0  0  0  0
  146.5020  156.5660  132.7453 H   0  0  0  0  0  0  0  0  0  0  0  0
  148.7307  157.4808  132.0213 H   0  0  0  0  0  0  0  0  0  0  0  0
  149.8120  160.9490  132.6773 H   0  0  0  0  0  0  0  0  0  0  0  0
  150.3038  159.3023  132.1403 H   0  0  0  0  0  0  0  0  0  0  0  0
  147.4067  161.5115  133.0276 H   0  0  0  0  0  0  0  0  0  0  0  0
  1  2  1  0
  2  3  2  0
  2  4  1  0
  4  5  2  0
  5  6  1  0
  6  7  2  0
  7  8  1  0
  8  9  2  0
  9 10  1  0
 10 11  1  0
 11 12  2  0
 11 13  1  0
  9 14  1  0
 14 15  2  0
 15 16  1  0
 16 17  1  0
 17 18  2  0
 17 19  1  0
 16  4  1  0
 15  6  1  0
  1 20  1  0
  5 21  1  0
  7 22  1  0
  8 23  1  0
 10 24  1  0
 10 25  1  0
 14 26  1  0
M  CHG  3   1  -1  13  -1  19  -1
M  END
>  <UniqueID>  (13) 
13

>  <SMILES>  (13) 
[NH-]C(=O)c1cc2ccc(CC(=O)[O-])cc2n1C(=O)[O-]

>  <Energy>  (13) 
64.85822907062887

>  <Genealogy>  (13) 
[NH-]C(=O)c1cc2ccc(CC(=O)[O-])cc2n1C(=O)[O-] (protonated)
[NH-]C(=O)c1cc2ccc(CC(=O)[O-])cc2n1C(=O)[O-] (3D coordinates assigned)
[NH-]C(=O)c1cc2ccc(CC(=O)[O-])cc2n1C(=O)[O-] (optimized conformer: 64.85822907062887 kcal/mol)

>  <smiles>  (13) 
NC(=O)c1cc2ccc(CC(=O)O)cc2n1C(=O)O

>  <score_type>  (13) 
oracle

>  <origin>  (13) 
adg

>  <m_score__min__energy>  (13) 
-6.1399999999999997

>  <m_primary>  (13) 
energy

$$$$
13:0
     RDKit          3D

 50 52  0  0  0  0  0  0  0  0999 V2000
  140.1100  150.8290  132.1620 C   0  0  0  0  0  0  0  0  0  0  0  0
  141.2650  151.4410  132.9460 C   0  0  0  0  0  0  0  0  0  0  0  0
  141.3070  152.9220  132.7470 C   0  0  0  0  0  0  0  0  0  0  0  0
  140.2300  153.5660  132.6100 O   0  0  0  0  0  0  0  0  0  0  0  0
  142.5430  153.5720  132.6810 O   0  0  0  0  0  0  0  0  0  0  0  0
  143.3140  153.8910  133.8360 C   0  0  0  0  0  0  0  0  0  0  0  0
  143.2590  155.2910  134.0960 O   0  0  0  0  0  0  0  0  0  0  0  0
  143.7110  156.2490  133.1800 C   0  0  0  0  0  0  0  0  0  0  0  0
  144.4730  155.9120  132.2330 O   0  0  0  0  0  0  0  0  0  0  0  0
  143.3230  157.6250  133.3350 N   0  0  0  0  0  0  0  0  0  0  0  0
  142.0730  158.1060  133.5810 C   0  0  0  0  0  0  0  0  0  0  0  0
  140.8240  157.3230  133.5380 C   0  0  0  0  0  0  0  0  0  0  0  0
  140.8110  155.9830  133.0480 N   0  0  0  0  0  0  0  0  0  0  0  0
  139.7400  157.8660  133.8830 O   0  0  0  0  0  0  0  0  0  0  0  0
  142.1110  159.4760  133.8230 C   0  0  0  0  0  0  0  0  0  0  0  0
  143.4360  159.8280  133.7060 C   0  0  0  0  0  0  0  0  0  0  0  0
  144.0490  161.0650  133.8700 C   0  0  0  0  0  0  0  0  0  0  0  0
  145.4450  161.1310  133.7350 C   0  0  0  0  0  0  0  0  0  0  0  0
  146.2070  159.9710  133.4380 C   0  0  0  0  0  0  0  0  0  0  0  0
  147.7250  160.0830  133.3680 C   0  0  0  0  0  0  0  0  0  0  0  0
  148.2680  160.3850  131.9440 C   0  0  0  0  0  0  0  0  0  0  0  0
  149.0410  159.2040  131.3380 C   0  0  0  0  0  0  0  0  0  0  0  0
  148.3540  157.9440  131.6310 N   0  0  0  0  0  0  0  0  0  0  0  0
  148.3700  157.6110  133.0680 C   0  0  0  0  0  0  0  0  0  0  0  0
  148.4000  158.8480  133.9930 C   0  0  0  0  0  0  0  0  0  0  0  0
  145.5420  158.7270  133.2950 C   0  0  0  0  0  0  0  0  0  0  0  0
  144.1490  158.6940  133.4140 C   0  0  0  0  0  0  0  0  0  0  0  0
  139.3608  150.4320  132.8628 H   0  0  0  0  0  0  0  0  0  0  0  0
  139.6473  151.6003  131.5287 H   0  0  0  0  0  0  0  0  0  0  0  0
  140.4883  150.0130  131.5287 H   0  0  0  0  0  0  0  0  0  0  0  0
  141.1317  151.2233  134.0160 H   0  0  0  0  0  0  0  0  0  0  0  0
  142.2091  151.0069  132.5852 H   0  0  0  0  0  0  0  0  0  0  0  0
  142.9126  153.3450  134.7024 H   0  0  0  0  0  0  0  0  0  0  0  0
  144.3602  153.6006  133.6593 H   0  0  0  0  0  0  0  0  0  0  0  0
  141.6630  155.5610  132.6160 H   0  0  0  0  0  0  0  0  0  0  0  0
  139.9210  155.4370  133.0360 H   0  0  0  0  0  0  0  0  0  0  0  0
  141.2630  160.1362  134.0576 H   0  0  0  0  0  0  0  0  0  0  0  0
  143.4584  161.9645  134.0985 H   0  0  0  0  0  0  0  0  0  0  0  0
  145.9561  162.0968  133.8614 H   0  0  0  0  0  0  0  0  0  0  0  0
  147.9946  160.9639  133.9691 H   0  0  0  0  0  0  0  0  0  0  0  0
  147.4183  160.6228  131.2871 H   0  0  0  0  0  0  0  0  0  0  0  0
  148.9676  161.2296  132.0289 H   0  0  0  0  0  0  0  0  0  0  0  0
  149.1089  159.3355  130.2480 H   0  0  0  0  0  0  0  0  0  0  0  0
  150.0492  159.1728  131.7769 H   0  0  0  0  0  0  0  0  0  0  0  0
  148.8390  157.1770  131.1080 H   0  0  0  0  0  0  0  0  0  0  0  0
  147.4670  157.0268  133.2989 H   0  0  0  0  0  0  0  0  0  0  0  0
  149.2953  157.0468  133.2564 H   0  0  0  0  0  0  0  0  0  0  0  0
  147.8778  158.5989  134.9285 H   0  0  0  0  0  0  0  0  0  0  0  0
  149.4557  159.1030  134.1675 H   0  0  0  0  0  0  0  0  0  0  0  0
  146.1101  157.8067  133.0945 H   0  0  0  0  0  0  0  0  0  0  0  0
  1  2  1  0
  2  3  1  0
  3  4  2  0
  3  5  1  0
  5  6  1  0
  6  7  1  0
  7  8  1  0
  8  9  2  0
  8 10  1  0
 10 11  1  0
 11 12  1  0
 12 13  1  0
 12 14  2  0
 11 15  2  0
 15 16  1  0
 16 17  2  0
 17 18  1  0
 18 19  2  0
 19 20  1  0
 20 21  1  0
 21 22  1  0
 22 23  1  0
 23 24  1  0
 24 25  1  0
 19 26  1  0
 26 27  2  0
 27 10  1  0
 27 16  1  0
 25 20  1  0
  1 28  1  0
  1 29  1  0
  1 30  1  0
  2 31  1  0
  2 32  1  0
  6 33  1  0
  6 34  1  0
 13 35  1  0
 13 36  1  0
 15 37  1  0
 17 38  1  0
 18 39  1  0
 20 40  1  0
 21 41  1  0
 21 42  1  0
 22 43  1  0
 22 44  1  0
 23 45  1  0
 24 46  1  0
 24 47  1  0
 25 48  1  0
 25 49  1  0
 26 50  1  0
M  END
>  <UniqueID>  (14) 
14

>  <SMILES>  (14) 
CCC(=O)OCOC(=O)n1c(C(N)=O)cc2ccc(C3CCNCC3)cc21

>  <Energy>  (14) 
89.03148987707267

>  <Genealogy>  (14) 
CCC(=O)OCOC(=O)n1c(C(N)=O)cc2ccc(C3CCNCC3)cc21 (3D coordinates assigned)
CCC(=O)OCOC(=O)n1c(C(N)=O)cc2ccc(C3CCNCC3)cc21 (nonaromatic ring conformer: 89.03148987707267 kcal/mol)

>  <smiles>  (14) 
CCC(=O)OCOC(=O)n1c(C(N)=O)cc2ccc(C3CCNCC3)cc21

>  <score_type>  (14) 
oracle

>  <origin>  (14) 
adg

>  <m_score__min__energy>  (14) 
-8.7699999999999996

>  <m_primary>  (14) 
energy

$$$$
14:0
     RDKit          3D

 42 43  0  0  0  0  0  0  0  0999 V2000
  149.0530  160.2890  130.5800 C   0  0  0  0  0  0  0  0  0  0  0  0
  148.6500  159.1680  131.1740 C   0  0  0  0  0  0  0  0  0  0  0  0
  148.2150  159.1290  132.5830 C   0  0  0  0  0  0  0  0  0  0  0  0
  148.8790  159.7270  133.4720 O   0  0  0  0  0  0  0  0  0  0  0  0
  147.0170  158.4230  132.9490 N   0  0  0  0  0  0  0  0  0  0  0  0
  145.8490  158.9580  133.4020 C   0  0  0  0  0  0  0  0  0  0  0  0
  145.5490  160.4060  133.4900 C   0  0  0  0  0  0  0  0  0  0  0  0
  146.5840  161.3570  133.7430 N   0  0  0  0  0  0  0  0  0  0  0  0
  144.3640  160.8140  133.3590 O   0  0  0  0  0  0  0  0  0  0  0  0
  144.9390  157.9470  133.7090 C   0  0  0  0  0  0  0  0  0  0  0  0
  145.5960  156.7680  133.4340 C   0  0  0  0  0  0  0  0  0  0  0  0
  145.1700  155.4530  133.5740 C   0  0  0  0  0  0  0  0  0  0  0  0
  146.0720  154.4270  133.2460 C   0  0  0  0  0  0  0  0  0  0  0  0
  147.3840  154.7330  132.7890 C   0  0  0  0  0  0  0  0  0  0  0  0
  148.3360  153.7000  132.4630 N   0  0  0  0  0  0  0  0  0  0  0  0
  149.1070  152.9400  133.4470 C   0  0  0  0  0  0  0  0  0  0  0  0
  149.5230  151.5800  132.8700 C   0  0  0  0  0  0  0  0  0  0  0  0
  148.9980  151.4150  131.4980 N   0  0  0  0  0  0  0  0  0  0  0  0
  147.6940  150.7330  131.5290 C   0  0  0  0  0  0  0  0  0  0  0  0
  149.9340  150.6390  130.6650 C   0  0  0  0  0  0  0  0  0  0  0  0
  147.7770  156.0840  132.6670 C   0  0  0  0  0  0  0  0  0  0  0  0
  146.8490  157.0840  132.9800 C   0  0  0  0  0  0  0  0  0  0  0  0
  149.3687  160.2703  129.5265 H   0  0  0  0  0  0  0  0  0  0  0  0
  149.0703  161.2340  131.1427 H   0  0  0  0  0  0  0  0  0  0  0  0
  148.6410  158.2348  130.5917 H   0  0  0  0  0  0  0  0  0  0  0  0
  146.3510  162.3700  133.8400 H   0  0  0  0  0  0  0  0  0  0  0  0
  147.5870  161.0710  133.7930 H   0  0  0  0  0  0  0  0  0  0  0  0
  143.9139  158.0658  134.0900 H   0  0  0  0  0  0  0  0  0  0  0  0
  144.1557  155.2218  133.9314 H   0  0  0  0  0  0  0  0  0  0  0  0
  145.7606  153.3765  133.3435 H   0  0  0  0  0  0  0  0  0  0  0  0
  148.5000  153.4760  131.4550 H   0  0  0  0  0  0  0  0  0  0  0  0
  150.0084  153.5091  133.7184 H   0  0  0  0  0  0  0  0  0  0  0  0
  148.4819  152.7728  134.3365 H   0  0  0  0  0  0  0  0  0  0  0  0
  150.6210  151.5175  132.8470 H   0  0  0  0  0  0  0  0  0  0  0  0
  149.1101  150.7833  133.5062 H   0  0  0  0  0  0  0  0  0  0  0  0
  147.3885  150.5732  132.5736 H   0  0  0  0  0  0  0  0  0  0  0  0
  146.9432  151.3539  131.0183 H   0  0  0  0  0  0  0  0  0  0  0  0
  147.7757  149.7622  131.0183 H   0  0  0  0  0  0  0  0  0  0  0  0
  150.6181  150.0718  131.3133 H   0  0  0  0  0  0  0  0  0  0  0  0
  149.3680  149.9416  130.0300 H   0  0  0  0  0  0  0  0  0  0  0  0
  150.5145  151.3244  130.0300 H   0  0  0  0  0  0  0  0  0  0  0  0
  148.7919  156.3451  132.3328 H   0  0  0  0  0  0  0  0  0  0  0  0
  1  2  2  0
  2  3  1  0
  3  4  2  0
  3  5  1  0
  5  6  1  0
  6  7  1  0
  7  8  1  0
  7  9  2  0
  6 10  2  0
 10 11  1  0
 11 12  2  0
 12 13  1  0
 13 14  2  0
 14 15  1  0
 15 16  1  0
 16 17  1  0
 17 18  1  0
 18 19  1  0
 18 20  1  0
 14 21  1  0
 21 22  2  0
 22  5  1  0
 22 11  1  0
  1 23  1  0
  1 24  1  0
  2 25  1  0
  8 26  1  0
  8 27  1  0
 10 28  1  0
 12 29  1  0
 13 30  1  0
 15 31  1  0
 16 32  1  0
 16 33  1  0
 17 34  1  0
 17 35  1  0
 19 36  1  0
 19 37  1  0
 19 38  1  0
 20 39  1  0
 20 40  1  0
 20 41  1  0
 21 42  1  0
M  END
>  <UniqueID>  (15) 
15

>  <SMILES>  (15) 
C=CC(=O)n1c(C(N)=O)cc2ccc(NCCN(C)C)cc21

>  <Energy>  (15) 
78.09961556628726

>  <Genealogy>  (15) 
C=CC(=O)n1c(C(N)=O)cc2ccc(NCCN(C)C)cc21 (3D coordinates assigned)
C=CC(=O)n1c(C(N)=O)cc2ccc(NCCN(C)C)cc21 (optimized conformer: 78.09961556628726 kcal/mol)

>  <smiles>  (15) 
C=CC(=O)n1c(C(N)=O)cc2ccc(NCCN(C)C)cc21

>  <score_type>  (15) 
oracle

>  <origin>  (15) 
adg

>  <m_score__min__energy>  (15) 
-6.9699999999999998

>  <m_primary>  (15) 
energy

$$$$
15:0
     RDKit          3D

 49 51  0  0  0  0  0  0  0  0999 V2000
  147.4280  154.5400  135.9990 C   0  0  0  0  0  0  0  0  0  0  0  0
  147.4540  154.6700  134.4850 C   0  0  0  0  0  0  0  0  0  0  0  0
  146.4270  155.5620  134.0680 O   0  0  0  0  0  0  0  0  0  0  0  0
  146.5640  156.4180  132.9710 C   0  0  0  0  0  0  0  0  0  0  0  0
  146.8880  155.9580  131.8420 O   0  0  0  0  0  0  0  0  0  0  0  0
  146.3630  157.8300  133.1420 N   0  0  0  0  0  0  0  0  0  0  0  0
  147.3090  158.8100  133.2140 C   0  0  0  0  0  0  0  0  0  0  0  0
  148.7600  158.6350  132.9990 C   0  0  0  0  0  0  0  0  0  0  0  0
  149.2270  157.6560  132.0720 N   0  0  0  0  0  0  0  0  0  0  0  0
  149.5960  159.3140  133.6510 O   0  0  0  0  0  0  0  0  0  0  0  0
  146.7110  160.0470  133.4400 C   0  0  0  0  0  0  0  0  0  0  0  0
  145.3590  159.7950  133.4950 C   0  0  0  0  0  0  0  0  0  0  0  0
  144.2960  160.6630  133.6990 C   0  0  0  0  0  0  0  0  0  0  0  0
  143.0000  160.1280  133.7280 C   0  0  0  0  0  0  0  0  0  0  0  0
  142.7670  158.7280  133.5660 C   0  0  0  0  0  0  0  0  0  0  0  0
  141.4130  158.1770  133.6030 N   0  0  0  0  0  0  0  0  0  0  0  0
  140.3330  158.9910  134.1960 C   0  0  0  0  0  0  0  0  0  0  0  0
  138.9960  158.2590  134.3220 C   0  0  0  0  0  0  0  0  0  0  0  0
  138.6860  157.4510  133.1380 N   0  0  0  0  0  0  0  0  0  0  0  0
  138.4930  158.2610  131.9540 C   0  0  0  0  0  0  0  0  0  0  0  0
  139.4380  158.4520  131.1370 O   0  0  0  0  0  0  0  0  0  0  0  0
  137.2540  158.8780  131.7470 O   0  0  0  0  0  0  0  0  0  0  0  0
  137.0530  159.8780  130.7560 C   0  0  0  0  0  0  0  0  0  0  0  0
  139.6890  156.3870  132.9710 C   0  0  0  0  0  0  0  0  0  0  0  0
  141.1470  156.8890  132.9220 C   0  0  0  0  0  0  0  0  0  0  0  0
  143.8960  157.8840  133.3600 C   0  0  0  0  0  0  0  0  0  0  0  0
  145.1750  158.4530  133.3140 C   0  0  0  0  0  0  0  0  0  0  0  0
  147.6243  155.5217  136.4547 H   0  0  0  0  0  0  0  0  0  0  0  0
  146.4397  154.1782  136.3190 H   0  0  0  0  0  0  0  0  0  0  0  0
  148.2011  153.8259  136.3190 H   0  0  0  0  0  0  0  0  0  0  0  0
  148.4315  155.0620  134.1674 H   0  0  0  0  0  0  0  0  0  0  0  0
  147.2894  153.6825  134.0293 H   0  0  0  0  0  0  0  0  0  0  0  0
  148.5580  157.1240  131.4720 H   0  0  0  0  0  0  0  0  0  0  0  0
  147.2128  161.0196  133.5511 H   0  0  0  0  0  0  0  0  0  0  0  0
  144.4652  161.7414  133.8343 H   0  0  0  0  0  0  0  0  0  0  0  0
  142.1436  160.8016  133.8789 H   0  0  0  0  0  0  0  0  0  0  0  0
  140.6502  159.3062  135.2010 H   0  0  0  0  0  0  0  0  0  0  0  0
  140.1667  159.8402  133.5168 H   0  0  0  0  0  0  0  0  0  0  0  0
  139.0370  157.5976  135.2000 H   0  0  0  0  0  0  0  0  0  0  0  0
  138.2069  159.0184  134.4252 H   0  0  0  0  0  0  0  0  0  0  0  0
  137.7730  156.9730  133.3260 H   0  0  0  0  0  0  0  0  0  0  0  0
  136.8588  160.8443  131.2443 H   0  0  0  0  0  0  0  0  0  0  0  0
  137.9529  159.9586  130.1286 H   0  0  0  0  0  0  0  0  0  0  0  0
  136.1918  159.6046  130.1286 H   0  0  0  0  0  0  0  0  0  0  0  0
  139.5936  155.6884  133.8153 H   0  0  0  0  0  0  0  0  0  0  0  0
  139.4865  155.9139  131.9988 H   0  0  0  0  0  0  0  0  0  0  0  0
  141.7827  156.1231  133.3903 H   0  0  0  0  0  0  0  0  0  0  0  0
  141.3645  157.0653  131.8582 H   0  0  0  0  0  0  0  0  0  0  0  0
  143.7649  156.7986  133.2385 H   0  0  0  0  0  0  0  0  0  0  0  0
  1  2  1  0
  2  3  1  0
  3  4  1  0
  4  5  2  0
  4  6  1  0
  6  7  1  0
  7  8  1  0
  8  9  1  0
  8 10  2  0
  7 11  2  0
 11 12  1  0
 12 13  2  0
 13 14  1  0
 14 15  2  0
 15 16  1  0
 16 17  1  0
 17 18  1  0
 18 19  1  0
 19 20  1  0
 20 21  2  0
 20 22  1  0
 22 23  1  0
 19 24  1  0
 24 25  1  0
 15 26  1  0
 26 27  2  0
 27  6  1  0
 27 12  1  0
 25 16  1  0
  1 28  1  0
  1 29  1  0
  1 30  1  0
  2 31  1  0
  2 32  1  0
  9 33  1  0
 11 34  1  0
 13 35  1  0
 14 36  1  0
 17 37  1  0
 17 38  1  0
 18 39  1  0
 18 40  1  0
 19 41  1  0
 23 42  1  0
 23 43  1  0
 23 44  1  0
 24 45  1  0
 24 46  1  0
 25 47  1  0
 25 48  1  0
 26 49  1  0
M  CHG  2   9  -1  19   1
M  END
>  <UniqueID>  (16) 
16

>  <SMILES>  (16) 
CCOC(=O)n1c(C([NH-])=O)cc2ccc(N3CC[NH+](C(=O)OC)CC3)cc21

>  <Energy>  (16) 
94.86922673780761

>  <Genealogy>  (16) 
CCOC(=O)n1c(C([NH-])=O)cc2ccc(N3CC[NH+](C(=O)OC)CC3)cc21 (protonated)
CCOC(=O)n1c(C([NH-])=O)cc2ccc(N3CC[NH+](C(=O)OC)CC3)cc21 (3D coordinates assigned)
CCOC(=O)n1c(C([NH-])=O)cc2ccc(N3CC[NH+](C(=O)OC)CC3)cc21 (nonaromatic ring conformer: 94.86922673780761 kcal/mol)

>  <smiles>  (16) 
CCOC(=O)n1c(C(N)=O)cc2ccc(N3CCN(C(=O)OC)CC3)cc21

>  <score_type>  (16) 
oracle

>  <origin>  (16) 
adg

>  <m_score__min__energy>  (16) 
-6.5599999999999996

>  <m_primary>  (16) 
energy

$$$$
16:0
     RDKit          3D

 45 47  0  0  0  0  0  0  0  0999 V2000
  141.3160  154.5920  134.4720 C   0  0  0  0  0  0  0  0  0  0  0  0
  141.0350  153.5630  133.4240 C   0  0  0  0  0  0  0  0  0  0  0  0
  139.9060  153.5500  132.8640 O   0  0  0  0  0  0  0  0  0  0  0  0
  142.0340  152.6060  133.0360 N   0  0  0  0  0  0  0  0  0  0  0  0
  141.8610  151.2660  132.8560 C   0  0  0  0  0  0  0  0  0  0  0  0
  140.5700  150.5490  132.8870 C   0  0  0  0  0  0  0  0  0  0  0  0
  139.4180  151.0630  132.2160 N   0  0  0  0  0  0  0  0  0  0  0  0
  140.4940  149.4390  133.4770 O   0  0  0  0  0  0  0  0  0  0  0  0
  143.0810  150.6410  132.6120 C   0  0  0  0  0  0  0  0  0  0  0  0
  144.0180  151.6480  132.6440 C   0  0  0  0  0  0  0  0  0  0  0  0
  145.3990  151.5900  132.4920 C   0  0  0  0  0  0  0  0  0  0  0  0
  146.1290  152.7820  132.6250 C   0  0  0  0  0  0  0  0  0  0  0  0
  145.4750  154.0080  132.9200 C   0  0  0  0  0  0  0  0  0  0  0  0
  146.2380  155.2250  133.0720 N   0  0  0  0  0  0  0  0  0  0  0  0
  147.3990  155.4950  132.2140 C   0  0  0  0  0  0  0  0  0  0  0  0
  148.4160  156.3660  132.9630 C   0  0  0  0  0  0  0  0  0  0  0  0
  147.8380  157.6230  133.5030 N   0  0  0  0  0  0  0  0  0  0  0  0
  148.3190  158.9820  132.5190 S   0  0  0  0  0  0  0  0  0  0  0  0
  147.5030  160.4770  133.0360 C   0  0  0  0  0  0  0  0  0  0  0  0
  149.9840  159.1980  132.6060 O   0  0  0  0  0  0  0  0  0  0  0  0
  146.3660  157.6150  133.6410 C   0  0  0  0  0  0  0  0  0  0  0  0
  145.8350  156.2390  134.0540 C   0  0  0  0  0  0  0  0  0  0  0  0
  144.0670  154.0210  133.0740 C   0  0  0  0  0  0  0  0  0  0  0  0
  143.3620  152.8240  132.9070 C   0  0  0  0  0  0  0  0  0  0  0  0
  141.1934  154.1431  135.4687 H   0  0  0  0  0  0  0  0  0  0  0  0
  142.3471  154.9583  134.3591 H   0  0  0  0  0  0  0  0  0  0  0  0
  140.6142  155.4315  134.3591 H   0  0  0  0  0  0  0  0  0  0  0  0
  139.4900  151.8740  131.5630 H   0  0  0  0  0  0  0  0  0  0  0  0
  138.5030  150.5690  132.2960 H   0  0  0  0  0  0  0  0  0  0  0  0
  143.2580  149.5704  132.4320 H   0  0  0  0  0  0  0  0  0  0  0  0
  145.9049  150.6379  132.2739 H   0  0  0  0  0  0  0  0  0  0  0  0
  147.2217  152.7663  132.4991 H   0  0  0  0  0  0  0  0  0  0  0  0
  147.8727  154.5430  131.9324 H   0  0  0  0  0  0  0  0  0  0  0  0
  147.0641  156.0274  131.3116 H   0  0  0  0  0  0  0  0  0  0  0  0
  148.8233  155.7821  133.8015 H   0  0  0  0  0  0  0  0  0  0  0  0
  149.1915  156.6529  132.2376 H   0  0  0  0  0  0  0  0  0  0  0  0
  147.4792  160.5206  134.1349 H   0  0  0  0  0  0  0  0  0  0  0  0
  148.0511  161.3475  132.6463 H   0  0  0  0  0  0  0  0  0  0  0  0
  146.4744  160.4869  132.6463 H   0  0  0  0  0  0  0  0  0  0  0  0
  150.3030  158.4660  133.1920 H   0  0  0  0  0  0  0  0  0  0  0  0
  146.0772  158.3511  134.4057 H   0  0  0  0  0  0  0  0  0  0  0  0
  145.9320  157.8664  132.6620 H   0  0  0  0  0  0  0  0  0  0  0  0
  146.2436  155.9727  135.0400 H   0  0  0  0  0  0  0  0  0  0  0  0
  144.7367  156.2771  134.1008 H   0  0  0  0  0  0  0  0  0  0  0  0
  143.5383  154.9537  133.3200 H   0  0  0  0  0  0  0  0  0  0  0  0
  1  2  1  0
  2  3  2  0
  2  4  1  0
  4  5  1  0
  5  6  1  0
  6  7  1  0
  6  8  2  0
  5  9  2  0
  9 10  1  0
 10 11  2  0
 11 12  1  0
 12 13  2  0
 13 14  1  0
 14 15  1  0
 15 16  1  0
 16 17  1  0
 17 18  1  0
 18 19  1  0
 18 20  1  1
 17 21  1  0
 21 22  1  0
 13 23  1  0
 23 24  2  0
 24  4  1  0
 24 10  1  0
 22 14  1  0
  1 25  1  0
  1 26  1  0
  1 27  1  0
  7 28  1  0
  7 29  1  0
  9 30  1  0
 11 31  1  0
 12 32  1  0
 15 33  1  0
 15 34  1  0
 16 35  1  0
 16 36  1  0
 19 37  1  0
 19 38  1  0
 19 39  1  0
 20 40  1  0
 21 41  1  0
 21 42  1  0
 22 43  1  0
 22 44  1  0
 23 45  1  0
M  CHG  1  18   1
M  END
>  <UniqueID>  (17) 
17

>  <SMILES>  (17) 
CC(=O)n1c(C(N)=O)cc2ccc(N3CCN([S@@+](C)O)CC3)cc21

>  <Energy>  (17) 
89.52392122458512

>  <Genealogy>  (17) 
CC(=O)n1c(C(N)=O)cc2ccc(N3CCN([S+](C)O)CC3)cc21 (protonated)
CC(=O)n1c(C(N)=O)cc2ccc(N3CCN([S@@+](C)O)CC3)cc21 (chirality)
CC(=O)n1c(C(N)=O)cc2ccc(N3CCN([S@@+](C)O)CC3)cc21 (3D coordinates assigned)
CC(=O)n1c(C(N)=O)cc2ccc(N3CCN([S@@+](C)O)CC3)cc21 (nonaromatic ring conformer: 89.52392122458512 kcal/mol)

>  <smiles>  (17) 
CC(=O)n1c(C(N)=O)cc2ccc(N3CCN([S+](C)[O-])CC3)cc21

>  <score_type>  (17) 
oracle

>  <origin>  (17) 
adg

>  <m_score__min__energy>  (17) 
-7.75

>  <m_primary>  (17) 
energy

$$$$
17:0
     RDKit          3D

 37 39  0  0  0  0  0  0  0  0999 V2000
  143.7210  155.4860  134.6030 C   0  0  0  0  0  0  0  0  0  0  0  0
  143.5670  156.3170  133.3700 C   0  0  0  0  0  0  0  0  0  0  0  0
  143.5820  155.7560  132.2410 O   0  0  0  0  0  0  0  0  0  0  0  0
  143.3910  157.7410  133.4570 N   0  0  0  0  0  0  0  0  0  0  0  0
  142.2180  158.4280  133.5570 C   0  0  0  0  0  0  0  0  0  0  0  0
  140.8610  157.8480  133.4740 C   0  0  0  0  0  0  0  0  0  0  0  0
  140.6580  156.5150  133.0130 N   0  0  0  0  0  0  0  0  0  0  0  0
  139.8610  158.5510  133.7820 O   0  0  0  0  0  0  0  0  0  0  0  0
  142.4640  159.7940  133.6900 C   0  0  0  0  0  0  0  0  0  0  0  0
  143.8330  159.9230  133.6660 C   0  0  0  0  0  0  0  0  0  0  0  0
  144.6280  161.0610  133.7660 C   0  0  0  0  0  0  0  0  0  0  0  0
  146.0230  160.8950  133.7340 C   0  0  0  0  0  0  0  0  0  0  0  0
  146.5930  159.6020  133.6250 C   0  0  0  0  0  0  0  0  0  0  0  0
  148.0870  159.4380  133.5590 C   0  0  0  0  0  0  0  0  0  0  0  0
  148.6000  159.9290  132.2340 C   0  0  0  0  0  0  0  0  0  0  0  0
  149.4200  159.1070  131.4460 C   0  0  0  0  0  0  0  0  0  0  0  0
  149.9220  159.5920  130.2380 C   0  0  0  0  0  0  0  0  0  0  0  0
  149.6100  160.8890  129.8290 C   0  0  0  0  0  0  0  0  0  0  0  0
  148.8010  161.6870  130.6410 C   0  0  0  0  0  0  0  0  0  0  0  0
  148.3190  161.2000  131.8180 N   0  0  0  0  0  0  0  0  0  0  0  0
  145.7550  158.4710  133.5190 C   0  0  0  0  0  0  0  0  0  0  0  0
  144.3700  158.6690  133.5290 C   0  0  0  0  0  0  0  0  0  0  0  0
  143.6029  156.1233  135.4918 H   0  0  0  0  0  0  0  0  0  0  0  0
  142.9536  154.6980  134.6123 H   0  0  0  0  0  0  0  0  0  0  0  0
  144.7198  155.0252  134.6123 H   0  0  0  0  0  0  0  0  0  0  0  0
  141.4210  155.9890  132.5340 H   0  0  0  0  0  0  0  0  0  0  0  0
  141.7205  160.5982  133.7924 H   0  0  0  0  0  0  0  0  0  0  0  0
  144.1781  162.0597  133.8670 H   0  0  0  0  0  0  0  0  0  0  0  0
  146.6784  161.7764  133.7941 H   0  0  0  0  0  0  0  0  0  0  0  0
  148.5534  160.0191  134.3682 H   0  0  0  0  0  0  0  0  0  0  0  0
  148.3387  158.3731  133.6716 H   0  0  0  0  0  0  0  0  0  0  0  0
  149.6653  158.0875  131.7783 H   0  0  0  0  0  0  0  0  0  0  0  0
  150.5615  158.9541  129.6102 H   0  0  0  0  0  0  0  0  0  0  0  0
  149.9974  161.2792  128.8763 H   0  0  0  0  0  0  0  0  0  0  0  0
  148.5523  162.7121  130.3289 H   0  0  0  0  0  0  0  0  0  0  0  0
  147.7230  161.8230  132.4080 H   0  0  0  0  0  0  0  0  0  0  0  0
  146.1799  157.4602  133.4308 H   0  0  0  0  0  0  0  0  0  0  0  0
  1  2  1  0
  2  3  2  0
  2  4  1  0
  4  5  1  0
  5  6  1  0
  6  7  1  0
  6  8  2  0
  5  9  2  0
  9 10  1  0
 10 11  2  0
 11 12  1  0
 12 13  2  0
 13 14  1  0
 14 15  1  0
 15 16  2  0
 16 17  1  0
 17 18  2  0
 18 19  1  0
 19 20  2  0
 13 21  1  0
 21 22  2  0
 22  4  1  0
 22 10  1  0
 20 15  1  0
  1 23  1  0
  1 24  1  0
  1 25  1  0
  7 26  1  0
  9 27  1  0
 11 28  1  0
 12 29  1  0
 14 30  1  0
 14 31  1  0
 16 32  1  0
 17 33  1  0
 18 34  1  0
 19 35  1  0
 20 36  1  0
 21 37  1  0
M  CHG  2   7  -1  20   1
M  END
>  <UniqueID>  (18) 
18

>  <SMILES>  (18) 
CC(=O)n1c(C([NH-])=O)cc2ccc(Cc3cccc[nH+]3)cc21

>  <Energy>  (18) 
76.3777467383707

>  <Genealogy>  (18) 
CC(=O)n1c(C([NH-])=O)cc2ccc(Cc3cccc[nH+]3)cc21 (protonated)
CC(=O)n1c(C([NH-])=O)cc2ccc(Cc3cccc[nH+]3)cc21 (3D coordinates assigned)
CC(=O)n1c(C([NH-])=O)cc2ccc(Cc3cccc[nH+]3)cc21 (optimized conformer: 76.3777467383707 kcal/mol)

>  <smiles>  (18) 
CC(=O)n1c(C(N)=O)cc2ccc(Cc3ccccn3)cc21

>  <score_type>  (18) 
oracle

>  <origin>  (18) 
adg

>  <m_score__min__energy>  (18) 
-7.2800000000000002

>  <m_primary>  (18) 
energy

$$$$
18:0
     RDKit          3D

 29 30  0  0  0  0  0  0  0  0999 V2000
  149.2190  159.1930  130.9640 C   0  0  0  0  0  0  0  0  0  0  0  0
  148.6900  158.2190  131.8560 O   0  0  0  0  0  0  0  0  0  0  0  0
  148.1400  158.5530  133.0960 C   0  0  0  0  0  0  0  0  0  0  0  0
  148.8790  158.9890  134.0210 O   0  0  0  0  0  0  0  0  0  0  0  0
  146.7290  158.3990  133.3210 N   0  0  0  0  0  0  0  0  0  0  0  0
  145.9910  157.2590  133.2040 C   0  0  0  0  0  0  0  0  0  0  0  0
  146.5260  155.9010  132.9780 C   0  0  0  0  0  0  0  0  0  0  0  0
  147.3720  155.6150  131.8630 N   0  0  0  0  0  0  0  0  0  0  0  0
  146.2770  154.9920  133.8130 O   0  0  0  0  0  0  0  0  0  0  0  0
  144.6370  157.5290  133.3810 C   0  0  0  0  0  0  0  0  0  0  0  0
  144.5650  158.8810  133.6240 C   0  0  0  0  0  0  0  0  0  0  0  0
  143.4580  159.6860  133.8690 C   0  0  0  0  0  0  0  0  0  0  0  0
  143.6720  161.0620  134.0560 C   0  0  0  0  0  0  0  0  0  0  0  0
  144.9770  161.6110  133.9700 C   0  0  0  0  0  0  0  0  0  0  0  0
  145.1980  163.0840  134.2080 C   0  0  0  0  0  0  0  0  0  0  0  0
  144.2400  163.8360  133.5500 F   0  0  0  0  0  0  0  0  0  0  0  0
  146.4440  163.4720  133.7460 F   0  0  0  0  0  0  0  0  0  0  0  0
  145.1200  163.3420  135.5640 F   0  0  0  0  0  0  0  0  0  0  0  0
  146.0800  160.7550  133.7420 C   0  0  0  0  0  0  0  0  0  0  0  0
  145.8400  159.3840  133.5810 C   0  0  0  0  0  0  0  0  0  0  0  0
  149.6657  160.0154  131.5421 H   0  0  0  0  0  0  0  0  0  0  0  0
  149.9894  158.7297  130.3301 H   0  0  0  0  0  0  0  0  0  0  0  0
  148.4109  159.5870  130.3301 H   0  0  0  0  0  0  0  0  0  0  0  0
  147.7070  154.6410  131.6970 H   0  0  0  0  0  0  0  0  0  0  0  0
  147.7350  156.3800  131.2520 H   0  0  0  0  0  0  0  0  0  0  0  0
  143.8025  156.8137  133.3361 H   0  0  0  0  0  0  0  0  0  0  0  0
  142.4455  159.2585  133.9150 H   0  0  0  0  0  0  0  0  0  0  0  0
  142.8179  161.7209  134.2715 H   0  0  0  0  0  0  0  0  0  0  0  0
  147.1028  161.1566  133.6923 H   0  0  0  0  0  0  0  0  0  0  0  0
  1  2  1  0
  2  3  1  0
  3  4  2  0
  3  5  1  0
  5  6  1  0
  6  7  1  0
  7  8  1  0
  7  9  2  0
  6 10  2  0
 10 11  1  0
 11 12  2  0
 12 13  1  0
 13 14  2  0
 14 15  1  0
 15 16  1  0
 15 17  1  0
 15 18  1  0
 14 19  1  0
 19 20  2  0
 20  5  1  0
 20 11  1  0
  1 21  1  0
  1 22  1  0
  1 23  1  0
  8 24  1  0
  8 25  1  0
 10 26  1  0
 12 27  1  0
 13 28  1  0
 19 29  1  0
M  END
>  <UniqueID>  (19) 
19

>  <SMILES>  (19) 
COC(=O)n1c(C(N)=O)cc2ccc(C(F)(F)F)cc21

>  <Energy>  (19) 
67.48599076600463

>  <Genealogy>  (19) 
COC(=O)n1c(C(N)=O)cc2ccc(C(F)(F)F)cc21 (3D coordinates assigned)
COC(=O)n1c(C(N)=O)cc2ccc(C(F)(F)F)cc21 (optimized conformer: 67.48599076600463 kcal/mol)

>  <smiles>  (19) 
COC(=O)n1c(C(N)=O)cc2ccc(C(F)(F)F)cc21

>  <score_type>  (19) 
oracle

>  <origin>  (19) 
adg

>  <m_score__min__energy>  (19) 
-5.5800000000000001

>  <m_primary>  (19) 
energy

$$$$
19:0
     RDKit          3D

 58 61  0  0  0  0  0  0  0  0999 V2000
  146.4970  151.2650  132.2230 C   0  0  0  0  0  0  0  0  0  0  0  0
  145.7190  152.5300  132.5720 C   0  0  0  0  0  0  0  0  0  0  0  0
  144.2670  152.2190  132.8020 C   0  0  0  0  0  0  0  0  0  0  0  0
  143.5980  150.6890  132.6030 S   0  0  0  0  0  0  0  0  0  0  0  0
  141.9930  151.1500  132.8040 C   0  0  0  0  0  0  0  0  0  0  0  0
  140.8370  150.2340  132.7110 C   0  0  0  0  0  0  0  0  0  0  0  0
  140.4960  149.5930  133.7440 O   0  0  0  0  0  0  0  0  0  0  0  0
  140.1600  149.9990  131.4490 N   0  0  0  0  0  0  0  0  0  0  0  0
  140.8210  148.9020  130.6940 C   0  0  0  0  0  0  0  0  0  0  0  0
  139.9630  147.6240  130.6580 C   0  0  0  0  0  0  0  0  0  0  0  0
  138.6840  147.8340  130.0770 O   0  0  0  0  0  0  0  0  0  0  0  0
  138.0990  149.0890  130.4110 C   0  0  0  0  0  0  0  0  0  0  0  0
  138.7090  149.7660  131.6510 C   0  0  0  0  0  0  0  0  0  0  0  0
  141.9550  152.5290  132.9990 C   0  0  0  0  0  0  0  0  0  0  0  0
  143.2240  153.1310  133.0020 C   0  0  0  0  0  0  0  0  0  0  0  0
  143.3980  154.5900  133.1400 C   0  0  0  0  0  0  0  0  0  0  0  0
  144.6700  155.1840  132.9510 C   0  0  0  0  0  0  0  0  0  0  0  0
  144.8440  156.5700  133.1100 C   0  0  0  0  0  0  0  0  0  0  0  0
  143.7330  157.3300  133.4610 C   0  0  0  0  0  0  0  0  0  0  0  0
  143.6260  158.6790  133.7170 C   0  0  0  0  0  0  0  0  0  0  0  0
  142.2900  158.8860  134.0540 C   0  0  0  0  0  0  0  0  0  0  0  0
  141.7170  160.2190  134.3410 C   0  0  0  0  0  0  0  0  0  0  0  0
  140.9580  160.4240  135.5310 N   0  0  0  0  0  0  0  0  0  0  0  0
  141.9170  161.1880  133.5640 O   0  0  0  0  0  0  0  0  0  0  0  0
  141.5990  157.7120  134.0100 N   0  0  0  0  0  0  0  0  0  0  0  0
  140.2260  157.4850  134.3600 C   0  0  0  0  0  0  0  0  0  0  0  0
  139.4400  156.9770  133.5140 O   0  0  0  0  0  0  0  0  0  0  0  0
  139.7740  157.8070  135.6450 O   0  0  0  0  0  0  0  0  0  0  0  0
  140.2080  157.1310  136.8230 C   0  0  0  0  0  0  0  0  0  0  0  0
  141.1110  158.0290  137.6670 C   0  0  0  0  0  0  0  0  0  0  0  0
  140.5300  159.2940  137.8040 O   0  0  0  0  0  0  0  0  0  0  0  0
  142.4960  156.7700  133.6460 C   0  0  0  0  0  0  0  0  0  0  0  0
  142.2970  155.3920  133.5100 C   0  0  0  0  0  0  0  0  0  0  0  0
  146.8083  150.7589  133.1487 H   0  0  0  0  0  0  0  0  0  0  0  0
  145.8568  150.5915  131.6343 H   0  0  0  0  0  0  0  0  0  0  0  0
  147.3869  151.5325  131.6343 H   0  0  0  0  0  0  0  0  0  0  0  0
  146.1419  152.9725  133.4860 H   0  0  0  0  0  0  0  0  0  0  0  0
  145.7990  153.2354  131.7317 H   0  0  0  0  0  0  0  0  0  0  0  0
  140.2300  150.8700  130.8730 H   0  0  0  0  0  0  0  0  0  0  0  0
  140.9989  149.2388  129.6621 H   0  0  0  0  0  0  0  0  0  0  0  0
  141.7655  148.6613  131.2040 H   0  0  0  0  0  0  0  0  0  0  0  0
  140.4944  146.8607  130.0707 H   0  0  0  0  0  0  0  0  0  0  0  0
  139.8048  147.3028  131.6981 H   0  0  0  0  0  0  0  0  0  0  0  0
  138.2243  149.7660  129.5531 H   0  0  0  0  0  0  0  0  0  0  0  0
  137.0440  148.8894  130.6500 H   0  0  0  0  0  0  0  0  0  0  0  0
  138.2071  150.7298  131.8220 H   0  0  0  0  0  0  0  0  0  0  0  0
  138.5700  149.1089  132.5221 H   0  0  0  0  0  0  0  0  0  0  0  0
  141.0205  153.0925  133.1374 H   0  0  0  0  0  0  0  0  0  0  0  0
  145.5298  154.5549  132.6772 H   0  0  0  0  0  0  0  0  0  0  0  0
  145.8279  157.0388  132.9615 H   0  0  0  0  0  0  0  0  0  0  0  0
  144.4255  159.4329  133.6662 H   0  0  0  0  0  0  0  0  0  0  0  0
  140.1290  159.8280  135.7480 H   0  0  0  0  0  0  0  0  0  0  0  0
  139.3284  156.8439  137.4179 H   0  0  0  0  0  0  0  0  0  0  0  0
  140.7791  156.2392  136.5256 H   0  0  0  0  0  0  0  0  0  0  0  0
  141.2452  157.5795  138.6620 H   0  0  0  0  0  0  0  0  0  0  0  0
  142.0872  158.1306  137.1703 H   0  0  0  0  0  0  0  0  0  0  0  0
  139.8520  159.3650  137.0850 H   0  0  0  0  0  0  0  0  0  0  0  0
  141.3077  154.9448  133.6869 H   0  0  0  0  0  0  0  0  0  0  0  0
  1  2  1  0
  2  3  1  0
  3  4  1  0
  4  5  1  0
  5  6  1  0
  6  7  2  0
  6  8  1  0
  8  9  1  0
  9 10  1  0
 10 11  1  0
 11 12  1  0
 12 13  1  0
  5 14  2  0
 14 15  1  0
 15 16  1  0
 16 17  2  0
 17 18  1  0
 18 19  2  0
 19 20  1  0
 20 21  2  0
 21 22  1  0
 22 23  1  0
 22 24  2  0
 21 25  1  0
 25 26  1  0
 26 27  2  0
 26 28  1  0
 28 29  1  0
 29 30  1  0
 30 31  1  0
 25 32  1  0
 32 33  2  0
 15  3  2  0
 33 16  1  0
 13  8  1  0
 32 19  1  0
  1 34  1  0
  1 35  1  0
  1 36  1  0
  2 37  1  0
  2 38  1  0
  8 39  1  0
  9 40  1  0
  9 41  1  0
 10 42  1  0
 10 43  1  0
 12 44  1  0
 12 45  1  0
 13 46  1  0
 13 47  1  0
 14 48  1  0
 17 49  1  0
 18 50  1  0
 20 51  1  0
 23 52  1  0
 29 53  1  0
 29 54  1  0
 30 55  1  0
 30 56  1  0
 31 57  1  0
 33 58  1  0
M  CHG  2   8   1  23  -1
M  END
>  <UniqueID>  (20) 
20

>  <SMILES>  (20) 
CCc1sc(C(=O)[NH+]2CCOCC2)cc1-c1ccc2cc(C([NH-])=O)n(C(=O)OCCO)c2c1

>  <Energy>  (20) 
139.93210582650758

>  <Genealogy>  (20) 
CCc1sc(C(=O)[NH+]2CCOCC2)cc1-c1ccc2cc(C([NH-])=O)n(C(=O)OCCO)c2c1 (protonated)
CCc1sc(C(=O)[NH+]2CCOCC2)cc1-c1ccc2cc(C([NH-])=O)n(C(=O)OCCO)c2c1 (3D coordinates assigned)
CCc1sc(C(=O)[NH+]2CCOCC2)cc1-c1ccc2cc(C([NH-])=O)n(C(=O)OCCO)c2c1 (nonaromatic ring conformer: 139.93210582650758 kcal/mol)

>  <smiles>  (20) 
CCc1sc(C(=O)N2CCOCC2)cc1-c1ccc2cc(C(N)=O)n(C(=O)OCCO)c2c1

>  <score_type>  (20) 
oracle

>  <origin>  (20) 
adg

>  <m_score__min__energy>  (20) 
-8.8300000000000001

>  <m_primary>  (20) 
energy

$$$$
20:0
     RDKit          3D

 29 31  0  0  0  0  0  0  0  0999 V2000
  148.7960  157.4880  131.8560 N   0  0  0  0  0  0  0  0  0  0  0  0
  148.4540  158.5370  132.7640 C   0  0  0  0  0  0  0  0  0  0  0  0
  149.3730  159.1830  133.3330 O   0  0  0  0  0  0  0  0  0  0  0  0
  147.0460  158.8310  133.0970 C   0  0  0  0  0  0  0  0  0  0  0  0
  146.5200  160.1180  133.1250 C   0  0  0  0  0  0  0  0  0  0  0  0
  145.2150  159.9680  133.5340 C   0  0  0  0  0  0  0  0  0  0  0  0
  144.2240  160.9240  133.7200 C   0  0  0  0  0  0  0  0  0  0  0  0
  142.9480  160.4850  134.1100 C   0  0  0  0  0  0  0  0  0  0  0  0
  142.6770  159.1020  134.2950 C   0  0  0  0  0  0  0  0  0  0  0  0
  141.3240  158.6380  134.6940 C   0  0  0  0  0  0  0  0  0  0  0  0
  140.2690  158.2990  133.8460 C   0  0  0  0  0  0  0  0  0  0  0  0
  139.1110  157.8940  134.5240 C   0  0  0  0  0  0  0  0  0  0  0  0
  139.2360  157.9080  135.9050 C   0  0  0  0  0  0  0  0  0  0  0  0
  140.7900  158.4230  136.2800 S   0  0  0  0  0  0  0  0  0  0  0  0
  143.7180  158.1630  134.0940 C   0  0  0  0  0  0  0  0  0  0  0  0
  144.9860  158.6310  133.7280 C   0  0  0  0  0  0  0  0  0  0  0  0
  146.1030  157.9160  133.4610 N   0  0  0  0  0  0  0  0  0  0  0  0
  146.2240  156.4830  133.4480 C   0  0  0  0  0  0  0  0  0  0  0  0
  146.6200  155.8880  132.4100 O   0  0  0  0  0  0  0  0  0  0  0  0
  145.9060  155.7390  134.5770 O   0  0  0  0  0  0  0  0  0  0  0  0
  149.7950  157.3190  131.6030 H   0  0  0  0  0  0  0  0  0  0  0  0
  148.0720  156.8250  131.5010 H   0  0  0  0  0  0  0  0  0  0  0  0
  147.0370  161.0558  132.8737 H   0  0  0  0  0  0  0  0  0  0  0  0
  144.4326  161.9931  133.5664 H   0  0  0  0  0  0  0  0  0  0  0  0
  142.1476  161.2215  134.2745 H   0  0  0  0  0  0  0  0  0  0  0  0
  140.3394  158.3452  132.7492 H   0  0  0  0  0  0  0  0  0  0  0  0
  138.1875  157.5926  134.0078 H   0  0  0  0  0  0  0  0  0  0  0  0
  138.4546  157.6306  136.6279 H   0  0  0  0  0  0  0  0  0  0  0  0
  143.5339  157.0862  134.2230 H   0  0  0  0  0  0  0  0  0  0  0  0
  1  2  1  0
  2  3  2  0
  2  4  1  0
  4  5  2  0
  5  6  1  0
  6  7  2  0
  7  8  1  0
  8  9  2  0
  9 10  1  0
 10 11  2  0
 11 12  1  0
 12 13  2  0
 13 14  1  0
  9 15  1  0
 15 16  2  0
 16 17  1  0
 17 18  1  0
 18 19  2  0
 18 20  1  0
 17  4  1  0
 16  6  1  0
 14 10  1  0
  1 21  1  0
  1 22  1  0
  5 23  1  0
  7 24  1  0
  8 25  1  0
 11 26  1  0
 12 27  1  0
 13 28  1  0
 15 29  1  0
M  CHG  1  20  -1
M  END
>  <UniqueID>  (21) 
21

>  <SMILES>  (21) 
NC(=O)c1cc2ccc(-c3cccs3)cc2n1C(=O)[O-]

>  <Energy>  (21) 
100.14731413420424

>  <Genealogy>  (21) 
NC(=O)c1cc2ccc(-c3cccs3)cc2n1C(=O)[O-] (protonated)
NC(=O)c1cc2ccc(-c3cccs3)cc2n1C(=O)[O-] (3D coordinates assigned)
NC(=O)c1cc2ccc(-c3cccs3)cc2n1C(=O)[O-] (optimized conformer: 100.14731413420424 kcal/mol)

>  <smiles>  (21) 
NC(=O)c1cc2ccc(-c3cccs3)cc2n1C(=O)O

>  <score_type>  (21) 
oracle

>  <origin>  (21) 
adg

>  <m_score__min__energy>  (21) 
-6.8099999999999996

>  <m_primary>  (21) 
energy

$$$$
21:0
     RDKit          3D

 38 40  0  0  0  0  0  0  0  0999 V2000
  145.3700  155.5710  134.2870 C   0  0  0  0  0  0  0  0  0  0  0  0
  145.9920  156.5230  133.3150 C   0  0  0  0  0  0  0  0  0  0  0  0
  146.6170  156.0650  132.3210 O   0  0  0  0  0  0  0  0  0  0  0  0
  145.9130  157.9440  133.5160 N   0  0  0  0  0  0  0  0  0  0  0  0
  146.9360  158.8460  133.5560 C   0  0  0  0  0  0  0  0  0  0  0  0
  148.3750  158.5210  133.5760 C   0  0  0  0  0  0  0  0  0  0  0  0
  148.9510  157.6520  132.6000 N   0  0  0  0  0  0  0  0  0  0  0  0
  149.1000  158.9780  134.5000 O   0  0  0  0  0  0  0  0  0  0  0  0
  146.4410  160.1450  133.6400 C   0  0  0  0  0  0  0  0  0  0  0  0
  145.0710  160.0120  133.6690 C   0  0  0  0  0  0  0  0  0  0  0  0
  144.0780  160.9840  133.7350 C   0  0  0  0  0  0  0  0  0  0  0  0
  142.7390  160.5580  133.7170 C   0  0  0  0  0  0  0  0  0  0  0  0
  142.4210  159.1790  133.6360 C   0  0  0  0  0  0  0  0  0  0  0  0
  141.0090  158.7500  133.5980 C   0  0  0  0  0  0  0  0  0  0  0  0
  140.3570  158.7340  132.3540 C   0  0  0  0  0  0  0  0  0  0  0  0
  139.0370  158.2970  132.2480 C   0  0  0  0  0  0  0  0  0  0  0  0
  138.3520  157.8660  133.3830 C   0  0  0  0  0  0  0  0  0  0  0  0
  138.9780  157.8880  134.6300 C   0  0  0  0  0  0  0  0  0  0  0  0
  140.3010  158.3540  134.7670 C   0  0  0  0  0  0  0  0  0  0  0  0
  140.9400  158.3790  136.1440 C   0  0  0  0  0  0  0  0  0  0  0  0
  140.0600  157.9060  137.1010 F   0  0  0  0  0  0  0  0  0  0  0  0
  141.3060  159.6740  136.4590 F   0  0  0  0  0  0  0  0  0  0  0  0
  142.0710  157.5820  136.1860 F   0  0  0  0  0  0  0  0  0  0  0  0
  143.4560  158.2220  133.5540 C   0  0  0  0  0  0  0  0  0  0  0  0
  144.7790  158.6740  133.5930 C   0  0  0  0  0  0  0  0  0  0  0  0
  145.5861  155.9018  135.3136 H   0  0  0  0  0  0  0  0  0  0  0  0
  144.2814  155.5469  134.1311 H   0  0  0  0  0  0  0  0  0  0  0  0
  145.7851  154.5644  134.1311 H   0  0  0  0  0  0  0  0  0  0  0  0
  149.9780  157.4690  132.6030 H   0  0  0  0  0  0  0  0  0  0  0  0
  148.3520  157.1260  131.9260 H   0  0  0  0  0  0  0  0  0  0  0  0
  147.0213  161.0788  133.6756 H   0  0  0  0  0  0  0  0  0  0  0  0
  144.3329  162.0521  133.7992 H   0  0  0  0  0  0  0  0  0  0  0  0
  141.9300  161.3017  133.7662 H   0  0  0  0  0  0  0  0  0  0  0  0
  140.8932  159.0696  131.4541 H   0  0  0  0  0  0  0  0  0  0  0  0
  138.5362  158.2924  131.2686 H   0  0  0  0  0  0  0  0  0  0  0  0
  137.3157  157.5077  133.2955 H   0  0  0  0  0  0  0  0  0  0  0  0
  138.4316  157.5370  135.5178 H   0  0  0  0  0  0  0  0  0  0  0  0
  143.2279  157.1499  133.4619 H   0  0  0  0  0  0  0  0  0  0  0  0
  1  2  1  0
  2  3  2  0
  2  4  1  0
  4  5  1  0
  5  6  1  0
  6  7  1  0
  6  8  2  0
  5  9  2  0
  9 10  1  0
 10 11  2  0
 11 12  1  0
 12 13  2  0
 13 14  1  0
 14 15  2  0
 15 16  1  0
 16 17  2  0
 17 18  1  0
 18 19  2  0
 19 20  1  0
 20 21  1  0
 20 22  1  0
 20 23  1  0
 13 24  1  0
 24 25  2  0
 25  4  1  0
 25 10  1  0
 19 14  1  0
  1 26  1  0
  1 27  1  0
  1 28  1  0
  7 29  1  0
  7 30  1  0
  9 31  1  0
 11 32  1  0
 12 33  1  0
 15 34  1  0
 16 35  1  0
 17 36  1  0
 18 37  1  0
 24 38  1  0
M  END
>  <UniqueID>  (22) 
22

>  <SMILES>  (22) 
CC(=O)n1c(C(N)=O)cc2ccc(-c3ccccc3C(F)(F)F)cc21

>  <Energy>  (22) 
89.53833983483503

>  <Genealogy>  (22) 
CC(=O)n1c(C(N)=O)cc2ccc(-c3ccccc3C(F)(F)F)cc21 (3D coordinates assigned)
CC(=O)n1c(C(N)=O)cc2ccc(-c3ccccc3C(F)(F)F)cc21 (optimized conformer: 89.53833983483503 kcal/mol)

>  <smiles>  (22) 
CC(=O)n1c(C(N)=O)cc2ccc(-c3ccccc3C(F)(F)F)cc21

>  <score_type>  (22) 
oracle

>  <origin>  (22) 
adg

>  <m_score__min__energy>  (22) 
-7.9400000000000004

>  <m_primary>  (22) 
energy

$$$$
22:0
     RDKit          3D

 37 38  0  0  0  0  0  0  0  0999 V2000
  141.3370  151.9940  132.6400 C   0  0  0  0  0  0  0  0  0  0  0  0
  141.2100  153.3620  132.2710 O   0  0  0  0  0  0  0  0  0  0  0  0
  140.6680  154.3240  133.1280 C   0  0  0  0  0  0  0  0  0  0  0  0
  139.5200  154.8050  132.9140 O   0  0  0  0  0  0  0  0  0  0  0  0
  141.4790  154.8240  134.2790 C   0  0  0  0  0  0  0  0  0  0  0  0
  141.5410  156.3250  134.2500 C   0  0  0  0  0  0  0  0  0  0  0  0
  140.3850  157.0930  134.5380 C   0  0  0  0  0  0  0  0  0  0  0  0
  140.4390  158.4970  134.5330 C   0  0  0  0  0  0  0  0  0  0  0  0
  141.6620  159.1020  134.2540 C   0  0  0  0  0  0  0  0  0  0  0  0
  141.9920  160.4350  134.1630 C   0  0  0  0  0  0  0  0  0  0  0  0
  143.3520  160.4600  133.8570 C   0  0  0  0  0  0  0  0  0  0  0  0
  144.1410  161.7040  133.7450 C   0  0  0  0  0  0  0  0  0  0  0  0
  145.5350  161.6870  134.0450 N   0  0  0  0  0  0  0  0  0  0  0  0
  143.6070  162.7750  133.3560 O   0  0  0  0  0  0  0  0  0  0  0  0
  143.8410  159.1900  133.7580 N   0  0  0  0  0  0  0  0  0  0  0  0
  145.1730  158.7780  133.4150 C   0  0  0  0  0  0  0  0  0  0  0  0
  145.7880  159.3600  132.4800 O   0  0  0  0  0  0  0  0  0  0  0  0
  145.7720  157.7220  134.1120 O   0  0  0  0  0  0  0  0  0  0  0  0
  146.9670  157.0630  133.6900 C   0  0  0  0  0  0  0  0  0  0  0  0
  146.7770  155.5420  133.6540 C   0  0  0  0  0  0  0  0  0  0  0  0
  148.2350  154.7510  133.0000 Cl  0  0  0  0  0  0  0  0  0  0  0  0
  146.4450  154.8940  135.2820 Cl  0  0  0  0  0  0  0  0  0  0  0  0
  145.3990  155.1410  132.5990 Cl  0  0  0  0  0  0  0  0  0  0  0  0
  142.7950  158.3720  134.0030 C   0  0  0  0  0  0  0  0  0  0  0  0
  142.7660  156.9740  133.9820 C   0  0  0  0  0  0  0  0  0  0  0  0
  141.3449  151.9093  133.7367 H   0  0  0  0  0  0  0  0  0  0  0  0
  140.4879  151.4244  132.2343 H   0  0  0  0  0  0  0  0  0  0  0  0
  142.2765  151.5905  132.2343 H   0  0  0  0  0  0  0  0  0  0  0  0
  141.0150  154.4967  135.2211 H   0  0  0  0  0  0  0  0  0  0  0  0
  142.4990  154.4189  134.2052 H   0  0  0  0  0  0  0  0  0  0  0  0
  139.4367  156.5851  134.7676 H   0  0  0  0  0  0  0  0  0  0  0  0
  139.5431  159.0997  134.7430 H   0  0  0  0  0  0  0  0  0  0  0  0
  141.3242  161.2979  134.3022 H   0  0  0  0  0  0  0  0  0  0  0  0
  146.2260  161.3040  133.3620 H   0  0  0  0  0  0  0  0  0  0  0  0
  147.2347  157.4153  132.6829 H   0  0  0  0  0  0  0  0  0  0  0  0
  147.7668  157.2977  134.4078 H   0  0  0  0  0  0  0  0  0  0  0  0
  143.6748  156.3945  133.7622 H   0  0  0  0  0  0  0  0  0  0  0  0
  1  2  1  0
  2  3  1  0
  3  4  2  0
  3  5  1  0
  5  6  1  0
  6  7  2  0
  7  8  1  0
  8  9  2  0
  9 10  1  0
 10 11  2  0
 11 12  1  0
 12 13  1  0
 12 14  2  0
 11 15  1  0
 15 16  1  0
 16 17  2  0
 16 18  1  0
 18 19  1  0
 19 20  1  0
 20 21  1  0
 20 22  1  0
 20 23  1  0
 15 24  1  0
 24 25  2  0
 25  6  1  0
 24  9  1  0
  1 26  1  0
  1 27  1  0
  1 28  1  0
  5 29  1  0
  5 30  1  0
  7 31  1  0
  8 32  1  0
 10 33  1  0
 13 34  1  0
 19 35  1  0
 19 36  1  0
 25 37  1  0
M  CHG  1  13  -1
M  END
>  <UniqueID>  (23) 
23

>  <SMILES>  (23) 
COC(=O)Cc1ccc2cc(C([NH-])=O)n(C(=O)OCC(Cl)(Cl)Cl)c2c1

>  <Energy>  (23) 
68.48759822421385

>  <Genealogy>  (23) 
COC(=O)Cc1ccc2cc(C([NH-])=O)n(C(=O)OCC(Cl)(Cl)Cl)c2c1 (protonated)
COC(=O)Cc1ccc2cc(C([NH-])=O)n(C(=O)OCC(Cl)(Cl)Cl)c2c1 (3D coordinates assigned)
COC(=O)Cc1ccc2cc(C([NH-])=O)n(C(=O)OCC(Cl)(Cl)Cl)c2c1 (optimized conformer: 68.48759822421385 kcal/mol)

>  <smiles>  (23) 
COC(=O)Cc1ccc2cc(C(N)=O)n(C(=O)OCC(Cl)(Cl)Cl)c2c1

>  <score_type>  (23) 
oracle

>  <origin>  (23) 
adg

>  <m_score__min__energy>  (23) 
-7.1900000000000004

>  <m_primary>  (23) 
energy

$$$$
23:0
     RDKit          3D

 34 36  0  0  0  0  0  0  0  0999 V2000
  149.5910  158.9460  132.2430 N   0  0  0  0  0  0  0  0  0  0  0  0
  148.5610  158.0220  132.5830 C   0  0  0  0  0  0  0  0  0  0  0  0
  148.8210  156.7900  132.6080 O   0  0  0  0  0  0  0  0  0  0  0  0
  147.2170  158.5200  132.9450 C   0  0  0  0  0  0  0  0  0  0  0  0
  146.8670  159.8680  132.9190 C   0  0  0  0  0  0  0  0  0  0  0  0
  145.5810  159.9220  133.4040 C   0  0  0  0  0  0  0  0  0  0  0  0
  144.7410  161.0150  133.5910 C   0  0  0  0  0  0  0  0  0  0  0  0
  143.4500  160.7750  134.0880 C   0  0  0  0  0  0  0  0  0  0  0  0
  143.0190  159.4550  134.3720 C   0  0  0  0  0  0  0  0  0  0  0  0
  141.6420  159.2160  134.9310 C   0  0  0  0  0  0  0  0  0  0  0  0
  140.6990  158.8030  133.8320 C   0  0  0  0  0  0  0  0  0  0  0  0
  140.3190  157.4560  133.7060 C   0  0  0  0  0  0  0  0  0  0  0  0
  139.4740  157.0540  132.6690 C   0  0  0  0  0  0  0  0  0  0  0  0
  139.0070  157.9900  131.7440 C   0  0  0  0  0  0  0  0  0  0  0  0
  139.3850  159.3320  131.8510 C   0  0  0  0  0  0  0  0  0  0  0  0
  138.7970  160.4960  130.6760 Cl  0  0  0  0  0  0  0  0  0  0  0  0
  140.2320  159.7410  132.8910 C   0  0  0  0  0  0  0  0  0  0  0  0
  140.6000  161.0450  132.9820 F   0  0  0  0  0  0  0  0  0  0  0  0
  143.9020  158.3710  134.1750 C   0  0  0  0  0  0  0  0  0  0  0  0
  145.1900  158.6410  133.6970 C   0  0  0  0  0  0  0  0  0  0  0  0
  146.1830  157.7670  133.4190 N   0  0  0  0  0  0  0  0  0  0  0  0
  146.1170  156.3370  133.5480 C   0  0  0  0  0  0  0  0  0  0  0  0
  145.6240  155.6360  132.6250 O   0  0  0  0  0  0  0  0  0  0  0  0
  146.5760  155.7150  134.7030 O   0  0  0  0  0  0  0  0  0  0  0  0
  150.4010  159.1080  132.8830 H   0  0  0  0  0  0  0  0  0  0  0  0
  147.4879  160.7111  132.5819 H   0  0  0  0  0  0  0  0  0  0  0  0
  145.0778  162.0356  133.3568 H   0  0  0  0  0  0  0  0  0  0  0  0
  142.7664  161.6197  134.2586 H   0  0  0  0  0  0  0  0  0  0  0  0
  141.6902  158.4186  135.6872 H   0  0  0  0  0  0  0  0  0  0  0  0
  141.2741  160.1461  135.3889 H   0  0  0  0  0  0  0  0  0  0  0  0
  140.6892  156.7137  134.4284 H   0  0  0  0  0  0  0  0  0  0  0  0
  139.1761  155.9988  132.5809 H   0  0  0  0  0  0  0  0  0  0  0  0
  138.3403  157.6709  130.9293 H   0  0  0  0  0  0  0  0  0  0  0  0
  143.5858  157.3399  134.3917 H   0  0  0  0  0  0  0  0  0  0  0  0
  1  2  1  0
  2  3  2  0
  2  4  1  0
  4  5  2  0
  5  6  1  0
  6  7  2  0
  7  8  1  0
  8  9  2  0
  9 10  1  0
 10 11  1  0
 11 12  2  0
 12 13  1  0
 13 14  2  0
 14 15  1  0
 15 16  1  0
 15 17  2  0
 17 18  1  0
  9 19  1  0
 19 20  2  0
 20 21  1  0
 21 22  1  0
 22 23  2  0
 22 24  1  0
 21  4  1  0
 20  6  1  0
 17 11  1  0
  1 25  1  0
  5 26  1  0
  7 27  1  0
  8 28  1  0
 10 29  1  0
 10 30  1  0
 12 31  1  0
 13 32  1  0
 14 33  1  0
 19 34  1  0
M  CHG  2   1  -1  24  -1
M  END
>  <UniqueID>  (24) 
24

>  <SMILES>  (24) 
[NH-]C(=O)c1cc2ccc(Cc3cccc(Cl)c3F)cc2n1C(=O)[O-]

>  <Energy>  (24) 
75.30611887246091

>  <Genealogy>  (24) 
[NH-]C(=O)c1cc2ccc(Cc3cccc(Cl)c3F)cc2n1C(=O)[O-] (protonated)
[NH-]C(=O)c1cc2ccc(Cc3cccc(Cl)c3F)cc2n1C(=O)[O-] (3D coordinates assigned)
[NH-]C(=O)c1cc2ccc(Cc3cccc(Cl)c3F)cc2n1C(=O)[O-] (optimized conformer: 75.30611887246091 kcal/mol)

>  <smiles>  (24) 
NC(=O)c1cc2ccc(Cc3cccc(Cl)c3F)cc2n1C(=O)O

>  <score_type>  (24) 
oracle

>  <origin>  (24) 
adg

>  <m_score__min__energy>  (24) 
-7.6900000000000004

>  <m_primary>  (24) 
energy

$$$$
24:0
     RDKit          3D

 50 51  0  0  0  0  0  0  0  0999 V2000
  145.0310  158.5850  133.1580 C   0  0  0  0  0  0  0  0  0  0  0  0
  143.7390  158.2380  132.6760 O   0  0  0  0  0  0  0  0  0  0  0  0
  142.6220  158.1460  133.5110 C   0  0  0  0  0  0  0  0  0  0  0  0
  142.3270  159.0960  134.2860 O   0  0  0  0  0  0  0  0  0  0  0  0
  141.7930  156.9730  133.4660 N   0  0  0  0  0  0  0  0  0  0  0  0
  140.4360  156.9090  133.3300 C   0  0  0  0  0  0  0  0  0  0  0  0
  139.5080  158.0590  133.3360 C   0  0  0  0  0  0  0  0  0  0  0  0
  139.8970  159.2870  132.7230 N   0  0  0  0  0  0  0  0  0  0  0  0
  138.3610  157.9610  133.8450 O   0  0  0  0  0  0  0  0  0  0  0  0
  140.0150  155.5840  133.2640 C   0  0  0  0  0  0  0  0  0  0  0  0
  141.1610  154.8300  133.3710 C   0  0  0  0  0  0  0  0  0  0  0  0
  141.3280  153.4500  133.3580 C   0  0  0  0  0  0  0  0  0  0  0  0
  142.6340  152.9430  133.4610 C   0  0  0  0  0  0  0  0  0  0  0  0
  143.7470  153.8150  133.5660 C   0  0  0  0  0  0  0  0  0  0  0  0
  145.0700  153.2520  133.6550 N   0  0  0  0  0  0  0  0  0  0  0  0
  145.7390  152.5980  132.5280 C   0  0  0  0  0  0  0  0  0  0  0  0
  147.2770  152.7010  132.6160 C   0  0  2  0  0  0  0  0  0  0  0  0
  148.0220  151.3450  132.4900 C   0  0  0  0  0  0  0  0  0  0  0  0
  149.4490  151.3280  132.8940 N   0  0  0  0  0  0  0  0  0  0  0  0
  149.7010  150.8470  134.2630 C   0  0  0  0  0  0  0  0  0  0  0  0
  150.3620  150.7310  131.9090 C   0  0  0  0  0  0  0  0  0  0  0  0
  147.6420  153.2880  133.8690 O   0  0  0  0  0  0  0  0  0  0  0  0
  147.4660  154.6420  134.1760 C   0  0  0  0  0  0  0  0  0  0  0  0
  146.8330  154.9920  135.2100 O   0  0  0  0  0  0  0  0  0  0  0  0
  148.0760  155.6830  133.2950 C   0  0  0  0  0  0  0  0  0  0  0  0
  149.1930  155.1700  132.6610 F   0  0  0  0  0  0  0  0  0  0  0  0
  148.4500  156.7800  134.0480 F   0  0  0  0  0  0  0  0  0  0  0  0
  147.1530  156.0770  132.3450 F   0  0  0  0  0  0  0  0  0  0  0  0
  143.5340  155.2150  133.5790 C   0  0  0  0  0  0  0  0  0  0  0  0
  142.2200  155.6910  133.4920 C   0  0  0  0  0  0  0  0  0  0  0  0
  145.0246  158.5833  134.2580 H   0  0  0  0  0  0  0  0  0  0  0  0
  145.7669  157.8527  132.7944 H   0  0  0  0  0  0  0  0  0  0  0  0
  145.3010  159.5875  132.7944 H   0  0  0  0  0  0  0  0  0  0  0  0
  140.8890  159.6110  132.7520 H   0  0  0  0  0  0  0  0  0  0  0  0
  138.9842  155.2172  133.1504 H   0  0  0  0  0  0  0  0  0  0  0  0
  140.4636  152.7754  133.2697 H   0  0  0  0  0  0  0  0  0  0  0  0
  142.7953  151.8549  133.4602 H   0  0  0  0  0  0  0  0  0  0  0  0
  145.5710  153.3340  134.5680 H   0  0  0  0  0  0  0  0  0  0  0  0
  145.4562  151.5350  132.5179 H   0  0  0  0  0  0  0  0  0  0  0  0
  145.4209  153.1086  131.6071 H   0  0  0  0  0  0  0  0  0  0  0  0
  147.5810  153.3180  131.7576 H   0  0  0  0  0  0  0  0  0  0  0  0
  147.4899  150.6132  133.1156 H   0  0  0  0  0  0  0  0  0  0  0  0
  148.0238  151.1155  131.4142 H   0  0  0  0  0  0  0  0  0  0  0  0
  149.3164  151.5812  134.9862 H   0  0  0  0  0  0  0  0  0  0  0  0
  149.1919  149.8835  134.4126 H   0  0  0  0  0  0  0  0  0  0  0  0
  150.7830  150.7171  134.4126 H   0  0  0  0  0  0  0  0  0  0  0  0
  151.1715  150.2017  132.4330 H   0  0  0  0  0  0  0  0  0  0  0  0
  149.8074  150.0206  131.2784 H   0  0  0  0  0  0  0  0  0  0  0  0
  150.7904  151.5240  131.2784 H   0  0  0  0  0  0  0  0  0  0  0  0
  144.3812  155.9124  133.6557 H   0  0  0  0  0  0  0  0  0  0  0  0
  1  2  1  0
  2  3  1  0
  3  4  2  0
  3  5  1  0
  5  6  1  0
  6  7  1  0
  7  8  1  0
  7  9  2  0
  6 10  2  0
 10 11  1  0
 11 12  2  0
 12 13  1  0
 13 14  2  0
 14 15  1  0
 15 16  1  0
 16 17  1  0
 17 18  1  0
 18 19  1  0
 19 20  1  0
 19 21  1  0
 17 22  1  0
 22 23  1  0
 23 24  2  0
 23 25  1  0
 25 26  1  0
 25 27  1  0
 25 28  1  0
 14 29  1  0
 29 30  2  0
 30  5  1  0
 30 11  1  0
  1 31  1  0
  1 32  1  0
  1 33  1  0
  8 34  1  0
 10 35  1  0
 12 36  1  0
 13 37  1  0
 15 38  1  0
 16 39  1  0
 16 40  1  0
 17 41  1  6
 18 42  1  0
 18 43  1  0
 20 44  1  0
 20 45  1  0
 20 46  1  0
 21 47  1  0
 21 48  1  0
 21 49  1  0
 29 50  1  0
M  CHG  1   8  -1
M  END
>  <UniqueID>  (25) 
25

>  <SMILES>  (25) 
COC(=O)n1c(C([NH-])=O)cc2ccc(NC[C@H](CN(C)C)OC(=O)C(F)(F)F)cc21

>  <Energy>  (25) 
88.8271971336337

>  <Genealogy>  (25) 
COC(=O)n1c(C([NH-])=O)cc2ccc(NC[C@H](CN(C)C)OC(=O)C(F)(F)F)cc21 (protonated)
COC(=O)n1c(C([NH-])=O)cc2ccc(NC[C@H](CN(C)C)OC(=O)C(F)(F)F)cc21 (3D coordinates assigned)
COC(=O)n1c(C([NH-])=O)cc2ccc(NC[C@H](CN(C)C)OC(=O)C(F)(F)F)cc21 (optimized conformer: 88.8271971336337 kcal/mol)

>  <smiles>  (25) 
COC(=O)n1c(C(N)=O)cc2ccc(NC[C@H](CN(C)C)OC(=O)C(F)(F)F)cc21

>  <score_type>  (25) 
oracle

>  <origin>  (25) 
adg

>  <m_score__min__energy>  (25) 
-6

>  <m_primary>  (25) 
energy

$$$$
25:0
     RDKit          3D

 50 52  0  0  0  0  0  0  0  0999 V2000
  140.4060  156.7270  137.7270 C   0  0  0  0  0  0  0  0  0  0  0  0
  140.3330  157.6780  136.6070 N   0  0  0  0  0  0  0  0  0  0  0  0
  141.1950  158.8500  136.8790 C   0  0  0  0  0  0  0  0  0  0  0  0
  141.3460  159.7350  135.6350 C   0  0  0  0  0  0  0  0  0  0  0  0
  141.9370  158.9560  134.4300 C   0  0  0  0  0  0  0  0  0  0  0  0
  143.3360  159.4250  134.0750 C   0  0  0  0  0  0  0  0  0  0  0  0
  143.6380  160.8120  134.0720 C   0  0  0  0  0  0  0  0  0  0  0  0
  144.9270  161.2690  133.7430 C   0  0  0  0  0  0  0  0  0  0  0  0
  145.8900  160.3210  133.4120 C   0  0  0  0  0  0  0  0  0  0  0  0
  147.2120  160.4810  133.0670 C   0  0  0  0  0  0  0  0  0  0  0  0
  147.6940  159.1930  132.8440 C   0  0  0  0  0  0  0  0  0  0  0  0
  149.0630  158.9010  132.3700 C   0  0  0  0  0  0  0  0  0  0  0  0
  149.4870  157.5490  132.2140 N   0  0  0  0  0  0  0  0  0  0  0  0
  149.8720  159.8340  132.1280 O   0  0  0  0  0  0  0  0  0  0  0  0
  146.7110  158.2740  133.0500 N   0  0  0  0  0  0  0  0  0  0  0  0
  146.8010  156.8430  132.9840 C   0  0  0  0  0  0  0  0  0  0  0  0
  147.0440  156.2870  131.8780 O   0  0  0  0  0  0  0  0  0  0  0  0
  146.4470  156.0040  134.1820 C   0  0  0  0  0  0  0  0  0  0  0  0
  147.6910  155.6190  134.9990 C   0  0  0  0  0  0  0  0  0  0  0  0
  147.7870  154.1040  135.2280 C   0  0  0  0  0  0  0  0  0  0  0  0
  147.7660  153.7600  136.6860 C   0  0  0  0  0  0  0  0  0  0  0  0
  146.9690  152.8880  137.1200 O   0  0  0  0  0  0  0  0  0  0  0  0
  148.6020  154.4310  137.5710 O   0  0  0  0  0  0  0  0  0  0  0  0
  145.6130  158.9790  133.3940 C   0  0  0  0  0  0  0  0  0  0  0  0
  144.3450  158.4950  133.7280 C   0  0  0  0  0  0  0  0  0  0  0  0
  141.9140  157.4300  134.6490 C   0  0  0  0  0  0  0  0  0  0  0  0
  140.5930  157.0040  135.3050 C   0  0  0  0  0  0  0  0  0  0  0  0
  140.3638  157.2772  138.6786 H   0  0  0  0  0  0  0  0  0  0  0  0
  139.5589  156.0276  137.6700 H   0  0  0  0  0  0  0  0  0  0  0  0
  141.3499  156.1651  137.6700 H   0  0  0  0  0  0  0  0  0  0  0  0
  140.7460  159.4442  137.6885 H   0  0  0  0  0  0  0  0  0  0  0  0
  142.1921  158.4865  137.1682 H   0  0  0  0  0  0  0  0  0  0  0  0
  140.3559  160.1237  135.3544 H   0  0  0  0  0  0  0  0  0  0  0  0
  142.0406  160.5510  135.8832 H   0  0  0  0  0  0  0  0  0  0  0  0
  141.2807  159.1790  133.5759 H   0  0  0  0  0  0  0  0  0  0  0  0
  142.8538  161.5389  134.3303 H   0  0  0  0  0  0  0  0  0  0  0  0
  145.1662  162.3427  133.7473 H   0  0  0  0  0  0  0  0  0  0  0  0
  147.7701  161.4253  132.9847 H   0  0  0  0  0  0  0  0  0  0  0  0
  149.0570  156.9310  131.4900 H   0  0  0  0  0  0  0  0  0  0  0  0
  145.7612  156.5744  134.8257 H   0  0  0  0  0  0  0  0  0  0  0  0
  145.9748  155.0778  133.8225 H   0  0  0  0  0  0  0  0  0  0  0  0
  148.5882  155.9532  134.4573 H   0  0  0  0  0  0  0  0  0  0  0  0
  147.6135  156.1054  135.9825 H   0  0  0  0  0  0  0  0  0  0  0  0
  146.9347  153.6144  134.7342 H   0  0  0  0  0  0  0  0  0  0  0  0
  148.7414  153.7541  134.8075 H   0  0  0  0  0  0  0  0  0  0  0  0
  144.1358  157.4151  133.7213 H   0  0  0  0  0  0  0  0  0  0  0  0
  142.0169  156.9228  133.6783 H   0  0  0  0  0  0  0  0  0  0  0  0
  142.7474  157.1516  135.3108 H   0  0  0  0  0  0  0  0  0  0  0  0
  139.7690  157.2450  134.6173 H   0  0  0  0  0  0  0  0  0  0  0  0
  140.6649  155.9252  135.5073 H   0  0  0  0  0  0  0  0  0  0  0  0
  1  2  1  0
  2  3  1  0
  3  4  1  0
  4  5  1  0
  5  6  1  0
  6  7  2  0
  7  8  1  0
  8  9  2  0
  9 10  1  0
 10 11  2  0
 11 12  1  0
 12 13  1  0
 12 14  2  0
 11 15  1  0
 15 16  1  0
 16 17  2  0
 16 18  1  0
 18 19  1  0
 19 20  1  0
 20 21  1  0
 21 22  2  0
 21 23  1  0
 15 24  1  0
 24 25  2  0
  5 26  1  0
 26 27  1  0
 27  2  1  0
 25  6  1  0
 24  9  1  0
  1 28  1  0
  1 29  1  0
  1 30  1  0
  3 31  1  0
  3 32  1  0
  4 33  1  0
  4 34  1  0
  5 35  1  0
  7 36  1  0
  8 37  1  0
 10 38  1  0
 13 39  1  0
 18 40  1  0
 18 41  1  0
 19 42  1  0
 19 43  1  0
 20 44  1  0
 20 45  1  0
 25 46  1  0
 26 47  1  0
 26 48  1  0
 27 49  1  0
 27 50  1  0
M  CHG  2  13  -1  23  -1
M  END
>  <UniqueID>  (26) 
26

>  <SMILES>  (26) 
CN1CCC(c2ccc3cc(C([NH-])=O)n(C(=O)CCCC(=O)[O-])c3c2)CC1

>  <Energy>  (26) 
94.306511546604

>  <Genealogy>  (26) 
CN1CCC(c2ccc3cc(C([NH-])=O)n(C(=O)CCCC(=O)[O-])c3c2)CC1 (protonated)
CN1CCC(c2ccc3cc(C([NH-])=O)n(C(=O)CCCC(=O)[O-])c3c2)CC1 (3D coordinates assigned)
CN1CCC(c2ccc3cc(C([NH-])=O)n(C(=O)CCCC(=O)[O-])c3c2)CC1 (nonaromatic ring conformer: 94.306511546604 kcal/mol)

>  <smiles>  (26) 
CN1CCC(c2ccc3cc(C(N)=O)n(C(=O)CCCC(=O)O)c3c2)CC1

>  <score_type>  (26) 
oracle

>  <origin>  (26) 
adg

>  <m_score__min__energy>  (26) 
-9.4199999999999999

>  <m_primary>  (26) 
energy

$$$$
26:0
     RDKit          3D

 30 31  0  0  0  0  0  0  0  0999 V2000
  149.2890  152.0720  132.2410 C   0  0  0  0  0  0  0  0  0  0  0  0
  148.4570  153.2250  132.2590 O   0  0  0  0  0  0  0  0  0  0  0  0
  148.9510  154.5080  132.5150 C   0  0  0  0  0  0  0  0  0  0  0  0
  150.1540  154.7870  132.2600 O   0  0  0  0  0  0  0  0  0  0  0  0
  148.0870  155.5070  133.0820 N   0  0  0  0  0  0  0  0  0  0  0  0
  147.0640  155.3130  133.9630 C   0  0  0  0  0  0  0  0  0  0  0  0
  146.5330  153.9980  134.3870 C   0  0  0  0  0  0  0  0  0  0  0  0
  146.2260  152.9890  133.4220 N   0  0  0  0  0  0  0  0  0  0  0  0
  146.3760  153.7440  135.6110 O   0  0  0  0  0  0  0  0  0  0  0  0
  146.5100  156.5330  134.3450 C   0  0  0  0  0  0  0  0  0  0  0  0
  147.2290  157.4890  133.6660 C   0  0  0  0  0  0  0  0  0  0  0  0
  147.1140  158.8760  133.6850 C   0  0  0  0  0  0  0  0  0  0  0  0
  148.0130  159.6220  132.9050 C   0  0  0  0  0  0  0  0  0  0  0  0
  149.0020  158.9730  132.1250 C   0  0  0  0  0  0  0  0  0  0  0  0
  149.9850  159.7860  131.3300 C   0  0  0  0  0  0  0  0  0  0  0  0
  149.3580  161.0340  130.8830 C   0  0  0  0  0  0  0  0  0  0  0  0
  148.8630  162.0180  130.5310 N   0  0  0  0  0  0  0  0  0  0  0  0
  149.0950  157.5640  132.1380 C   0  0  0  0  0  0  0  0  0  0  0  0
  148.1750  156.8440  132.9110 C   0  0  0  0  0  0  0  0  0  0  0  0
  149.5112  151.7640  133.2734 H   0  0  0  0  0  0  0  0  0  0  0  0
  148.7714  151.2545  131.7179 H   0  0  0  0  0  0  0  0  0  0  0  0
  150.2280  152.3056  131.7179 H   0  0  0  0  0  0  0  0  0  0  0  0
  146.2920  153.1800  132.3990 H   0  0  0  0  0  0  0  0  0  0  0  0
  145.8880  152.0520  133.7350 H   0  0  0  0  0  0  0  0  0  0  0  0
  145.6748  156.6969  135.0418 H   0  0  0  0  0  0  0  0  0  0  0  0
  146.3428  159.3727  134.2921 H   0  0  0  0  0  0  0  0  0  0  0  0
  147.9486  160.7201  132.8997 H   0  0  0  0  0  0  0  0  0  0  0  0
  150.8564  160.0210  131.9589 H   0  0  0  0  0  0  0  0  0  0  0  0
  150.3047  159.2074  130.4508 H   0  0  0  0  0  0  0  0  0  0  0  0
  149.8705  157.0448  131.5557 H   0  0  0  0  0  0  0  0  0  0  0  0
  1  2  1  0
  2  3  1  0
  3  4  2  0
  3  5  1  0
  5  6  1  0
  6  7  1  0
  7  8  1  0
  7  9  2  0
  6 10  2  0
 10 11  1  0
 11 12  2  0
 12 13  1  0
 13 14  2  0
 14 15  1  0
 15 16  1  0
 16 17  3  0
 14 18  1  0
 18 19  2  0
 19  5  1  0
 19 11  1  0
  1 20  1  0
  1 21  1  0
  1 22  1  0
  8 23  1  0
  8 24  1  0
 10 25  1  0
 12 26  1  0
 13 27  1  0
 15 28  1  0
 15 29  1  0
 18 30  1  0
M  END
>  <UniqueID>  (27) 
27

>  <SMILES>  (27) 
COC(=O)n1c(C(N)=O)cc2ccc(CC#N)cc21

>  <Energy>  (27) 
64.93535154176944

>  <Genealogy>  (27) 
COC(=O)n1c(C(N)=O)cc2ccc(CC#N)cc21 (3D coordinates assigned)
COC(=O)n1c(C(N)=O)cc2ccc(CC#N)cc21 (optimized conformer: 64.93535154176944 kcal/mol)

>  <smiles>  (27) 
COC(=O)n1c(C(N)=O)cc2ccc(CC#N)cc21

>  <score_type>  (27) 
oracle

>  <origin>  (27) 
adg

>  <m_score__min__energy>  (27) 
-6.5800000000000001

>  <m_primary>  (27) 
energy

$$$$
27:0
     RDKit          3D

 38 41  0  0  0  0  0  0  0  0999 V2000
  148.9270  161.9590  130.6070 C   0  0  0  0  0  0  0  0  0  0  0  0
  149.1890  160.6130  131.1060 N   0  0  0  0  0  0  0  0  0  0  0  0
  150.3210  159.9430  130.9220 N   0  0  0  0  0  0  0  0  0  0  0  0
  150.2230  158.7280  131.5090 C   0  0  0  0  0  0  0  0  0  0  0  0
  148.9690  158.6420  132.0820 C   0  0  0  0  0  0  0  0  0  0  0  0
  148.3440  157.6290  132.7980 C   0  0  0  0  0  0  0  0  0  0  0  0
  147.0320  157.8620  133.2500 C   0  0  0  0  0  0  0  0  0  0  0  0
  146.3730  159.0950  132.9780 C   0  0  0  0  0  0  0  0  0  0  0  0
  144.9900  159.3280  133.4600 C   0  0  0  0  0  0  0  0  0  0  0  0
  144.5060  160.6520  133.6390 C   0  0  0  0  0  0  0  0  0  0  0  0
  143.2030  160.8840  134.1070 C   0  0  0  0  0  0  0  0  0  0  0  0
  142.4010  159.7810  134.3810 C   0  0  0  0  0  0  0  0  0  0  0  0
  141.1140  159.7220  134.8640 C   0  0  0  0  0  0  0  0  0  0  0  0
  140.8150  158.3640  134.9530 C   0  0  0  0  0  0  0  0  0  0  0  0
  139.4880  157.8490  135.3500 C   0  0  0  0  0  0  0  0  0  0  0  0
  139.1330  157.7930  136.7290 N   0  0  0  0  0  0  0  0  0  0  0  0
  138.6490  157.4920  134.4820 O   0  0  0  0  0  0  0  0  0  0  0  0
  141.8780  157.6130  134.5480 N   0  0  0  0  0  0  0  0  0  0  0  0
  141.9960  156.1810  134.5590 C   0  0  0  0  0  0  0  0  0  0  0  0
  141.2710  155.4750  133.8100 O   0  0  0  0  0  0  0  0  0  0  0  0
  142.9330  155.5610  135.3780 O   0  0  0  0  0  0  0  0  0  0  0  0
  142.8400  158.4960  134.1990 C   0  0  0  0  0  0  0  0  0  0  0  0
  144.1400  158.2330  133.7510 C   0  0  0  0  0  0  0  0  0  0  0  0
  147.0520  160.0980  132.2430 C   0  0  0  0  0  0  0  0  0  0  0  0
  148.3510  159.8310  131.8130 C   0  0  0  0  0  0  0  0  0  0  0  0
  148.7934  162.6453  131.4562 H   0  0  0  0  0  0  0  0  0  0  0  0
  149.7766  162.2948  129.9943 H   0  0  0  0  0  0  0  0  0  0  0  0
  148.0134  161.9516  129.9943 H   0  0  0  0  0  0  0  0  0  0  0  0
  151.1530  160.3050  130.4030 H   0  0  0  0  0  0  0  0  0  0  0  0
  151.0005  157.9501  131.5268 H   0  0  0  0  0  0  0  0  0  0  0  0
  148.8567  156.6780  133.0044 H   0  0  0  0  0  0  0  0  0  0  0  0
  146.5082  157.0813  133.8211 H   0  0  0  0  0  0  0  0  0  0  0  0
  145.1603  161.5055  133.4080 H   0  0  0  0  0  0  0  0  0  0  0  0
  142.8274  161.9076  134.2527 H   0  0  0  0  0  0  0  0  0  0  0  0
  140.4601  160.5673  135.1245 H   0  0  0  0  0  0  0  0  0  0  0  0
  139.1000  158.6600  137.3100 H   0  0  0  0  0  0  0  0  0  0  0  0
  144.4936  157.1987  133.6277 H   0  0  0  0  0  0  0  0  0  0  0  0
  146.5681  161.0599  132.0181 H   0  0  0  0  0  0  0  0  0  0  0  0
  1  2  1  0
  2  3  1  0
  3  4  2  0
  4  5  1  0
  5  6  2  0
  6  7  1  0
  7  8  2  0
  8  9  1  0
  9 10  2  0
 10 11  1  0
 11 12  2  0
 12 13  1  0
 13 14  2  0
 14 15  1  0
 15 16  1  0
 15 17  2  0
 14 18  1  0
 18 19  1  0
 19 20  2  0
 19 21  1  0
 18 22  1  0
 22 23  2  0
  8 24  1  0
 24 25  2  0
 25  2  1  0
 25  5  1  0
 23  9  1  0
 22 12  1  0
  1 26  1  0
  1 27  1  0
  1 28  1  0
  3 29  1  0
  4 30  1  0
  6 31  1  0
  7 32  1  0
 10 33  1  0
 11 34  1  0
 13 35  1  0
 16 36  1  0
 23 37  1  0
 24 38  1  0
M  CHG  3   3   1  16  -1  21  -1
M  END
>  <UniqueID>  (28) 
28

>  <SMILES>  (28) 
Cn1[nH+]cc2ccc(-c3ccc4cc(C([NH-])=O)n(C(=O)[O-])c4c3)cc21

>  <Energy>  (28) 
125.67951670713204

>  <Genealogy>  (28) 
Cn1[nH+]cc2ccc(-c3ccc4cc(C([NH-])=O)n(C(=O)[O-])c4c3)cc21 (protonated)
Cn1[nH+]cc2ccc(-c3ccc4cc(C([NH-])=O)n(C(=O)[O-])c4c3)cc21 (3D coordinates assigned)
Cn1[nH+]cc2ccc(-c3ccc4cc(C([NH-])=O)n(C(=O)[O-])c4c3)cc21 (optimized conformer: 125.67951670713204 kcal/mol)

>  <smiles>  (28) 
Cn1ncc2ccc(-c3ccc4cc(C(N)=O)n(C(=O)O)c4c3)cc21

>  <score_type>  (28) 
oracle

>  <origin>  (28) 
adg

>  <m_score__min__energy>  (28) 
-7.9500000000000002

>  <m_primary>  (28) 
energy

$$$$
28:0
     RDKit          3D

 42 44  0  0  0  0  0  0  0  0999 V2000
  144.0020  157.8060  132.9600 C   0  0  0  0  0  0  0  0  0  0  0  0
  142.5870  157.7650  132.5710 N   0  0  0  0  0  0  0  0  0  0  0  0
  141.6850  157.5490  133.7240 C   0  0  2  0  0  0  0  0  0  0  0  0
  140.6560  158.7140  133.8350 C   0  0  0  0  0  0  0  0  0  0  0  0
  141.0100  159.7110  134.9440 C   0  0  0  0  0  0  0  0  0  0  0  0
  141.0290  159.0020  136.3060 C   0  0  0  0  0  0  0  0  0  0  0  0
  141.6480  157.6710  136.2080 N   0  0  0  0  0  0  0  0  0  0  0  0
  141.4150  156.6930  137.2400 C   0  0  0  0  0  0  0  0  0  0  0  0
  141.2090  157.1040  138.5830 C   0  0  0  0  0  0  0  0  0  0  0  0
  141.0040  156.1590  139.6010 C   0  0  0  0  0  0  0  0  0  0  0  0
  141.0100  154.8120  139.2510 C   0  0  0  0  0  0  0  0  0  0  0  0
  140.8660  153.6940  140.0390 C   0  0  0  0  0  0  0  0  0  0  0  0
  140.9680  152.6120  139.1680 C   0  0  0  0  0  0  0  0  0  0  0  0
  140.7810  151.2090  139.5900 C   0  0  0  0  0  0  0  0  0  0  0  0
  139.7870  150.3870  138.9840 N   0  0  0  0  0  0  0  0  0  0  0  0
  141.4750  150.7440  140.5340 O   0  0  0  0  0  0  0  0  0  0  0  0
  141.1770  153.0430  137.8920 N   0  0  0  0  0  0  0  0  0  0  0  0
  141.4310  152.2440  136.7250 C   0  0  0  0  0  0  0  0  0  0  0  0
  140.7900  151.1780  136.5320 O   0  0  0  0  0  0  0  0  0  0  0  0
  142.3680  152.6550  135.7850 O   0  0  0  0  0  0  0  0  0  0  0  0
  141.1970  154.3940  137.9600 C   0  0  0  0  0  0  0  0  0  0  0  0
  141.4220  155.3140  136.9280 C   0  0  0  0  0  0  0  0  0  0  0  0
  142.4840  157.3550  135.0420 C   0  0  0  0  0  0  0  0  0  0  0  0
  144.0807  157.8083  134.0572 H   0  0  0  0  0  0  0  0  0  0  0  0
  144.5188  156.9225  132.5572 H   0  0  0  0  0  0  0  0  0  0  0  0
  144.4667  158.7180  132.5572 H   0  0  0  0  0  0  0  0  0  0  0  0
  142.3390  158.6570  132.0800 H   0  0  0  0  0  0  0  0  0  0  0  0
  142.4760  156.9750  131.8930 H   0  0  0  0  0  0  0  0  0  0  0  0
  141.1237  156.6184  133.5539 H   0  0  0  0  0  0  0  0  0  0  0  0
  140.6269  159.2507  132.8752 H   0  0  0  0  0  0  0  0  0  0  0  0
  139.6795  158.2728  134.0836 H   0  0  0  0  0  0  0  0  0  0  0  0
  142.0027  160.1404  134.7437 H   0  0  0  0  0  0  0  0  0  0  0  0
  140.2536  160.5094  134.9647 H   0  0  0  0  0  0  0  0  0  0  0  0
  141.6025  159.6121  137.0194 H   0  0  0  0  0  0  0  0  0  0  0  0
  139.9905  158.8774  136.6467 H   0  0  0  0  0  0  0  0  0  0  0  0
  141.2100  158.1761  138.8292 H   0  0  0  0  0  0  0  0  0  0  0  0
  140.8436  156.4735  140.6428 H   0  0  0  0  0  0  0  0  0  0  0  0
  140.7045  153.6613  141.1266 H   0  0  0  0  0  0  0  0  0  0  0  0
  139.3590  150.6490  138.0680 H   0  0  0  0  0  0  0  0  0  0  0  0
  141.6001  154.9713  135.8980 H   0  0  0  0  0  0  0  0  0  0  0  0
  143.3597  158.0207  135.0346 H   0  0  0  0  0  0  0  0  0  0  0  0
  142.8033  156.3046  135.1104 H   0  0  0  0  0  0  0  0  0  0  0  0
  1  2  1  0
  2  3  1  0
  3  4  1  0
  4  5  1  0
  5  6  1  0
  6  7  1  0
  7  8  1  0
  8  9  2  0
  9 10  1  0
 10 11  2  0
 11 12  1  0
 12 13  2  0
 13 14  1  0
 14 15  1  0
 14 16  2  0
 13 17  1  0
 17 18  1  0
 18 19  2  0
 18 20  1  0
 17 21  1  0
 21 22  2  0
  7 23  1  0
 23  3  1  0
 22  8  1  0
 21 11  1  0
  1 24  1  0
  1 25  1  0
  1 26  1  0
  2 27  1  0
  2 28  1  0
  3 29  1  6
  4 30  1  0
  4 31  1  0
  5 32  1  0
  5 33  1  0
  6 34  1  0
  6 35  1  0
  9 36  1  0
 10 37  1  0
 12 38  1  0
 15 39  1  0
 22 40  1  0
 23 41  1  0
 23 42  1  0
M  CHG  3   2   1  15  -1  20  -1
M  END
>  <UniqueID>  (29) 
29

>  <SMILES>  (29) 
C[NH2+][C@@H]1CCCN(c2ccc3cc(C([NH-])=O)n(C(=O)[O-])c3c2)C1

>  <Energy>  (29) 
90.0147237839342

>  <Genealogy>  (29) 
C[NH2+]C1CCCN(c2ccc3cc(C([NH-])=O)n(C(=O)[O-])c3c2)C1 (protonated)
C[NH2+][C@@H]1CCCN(c2ccc3cc(C([NH-])=O)n(C(=O)[O-])c3c2)C1 (chirality)
C[NH2+][C@@H]1CCCN(c2ccc3cc(C([NH-])=O)n(C(=O)[O-])c3c2)C1 (3D coordinates assigned)
C[NH2+][C@@H]1CCCN(c2ccc3cc(C([NH-])=O)n(C(=O)[O-])c3c2)C1 (nonaromatic ring conformer: 90.0147237839342 kcal/mol)

>  <smiles>  (29) 
CNC1CCCN(c2ccc3cc(C(N)=O)n(C(=O)O)c3c2)C1

>  <score_type>  (29) 
oracle

>  <origin>  (29) 
adg

>  <m_score__min__energy>  (29) 
-7.2999999999999998

>  <m_primary>  (29) 
energy

$$$$
29:0
     RDKit          3D

 47 49  0  0  0  0  0  0  0  0999 V2000
  138.8430  159.4600  131.8600 C   0  0  0  0  0  0  0  0  0  0  0  0
  139.8650  159.2380  132.8060 O   0  0  0  0  0  0  0  0  0  0  0  0
  140.4440  157.9700  132.5800 C   0  0  0  0  0  0  0  0  0  0  0  0
  139.8150  156.9470  133.4800 C   0  0  0  0  0  0  0  0  0  0  0  0
  138.5750  156.7370  133.3970 O   0  0  0  0  0  0  0  0  0  0  0  0
  140.6020  156.1740  134.4000 N   0  0  0  0  0  0  0  0  0  0  0  0
  141.0670  156.5380  135.6280 C   0  0  0  0  0  0  0  0  0  0  0  0
  140.7380  157.7880  136.3430 C   0  0  0  0  0  0  0  0  0  0  0  0
  139.8530  158.7480  135.7730 N   0  0  0  0  0  0  0  0  0  0  0  0
  141.2150  157.9960  137.4910 O   0  0  0  0  0  0  0  0  0  0  0  0
  141.8600  155.5260  136.1680 C   0  0  0  0  0  0  0  0  0  0  0  0
  141.8570  154.5200  135.2270 C   0  0  0  0  0  0  0  0  0  0  0  0
  142.4830  153.2770  135.2400 C   0  0  0  0  0  0  0  0  0  0  0  0
  142.3130  152.4430  134.1220 C   0  0  0  0  0  0  0  0  0  0  0  0
  141.5300  152.8650  133.0140 C   0  0  0  0  0  0  0  0  0  0  0  0
  141.3460  151.9930  131.8770 N   0  0  0  0  0  0  0  0  0  0  0  0
  141.4710  150.5760  132.2560 C   0  0  0  0  0  0  0  0  0  0  0  0
  140.1080  149.9480  132.6090 C   0  0  0  0  0  0  0  0  0  0  0  0
  139.1730  149.8570  131.3960 C   0  0  0  0  0  0  0  0  0  0  0  0
  139.7240  148.9010  130.3240 C   0  0  0  0  0  0  0  0  0  0  0  0
  139.1460  147.4930  130.3560 C   0  0  0  0  0  0  0  0  0  0  0  0
  138.7290  148.4640  129.2600 C   0  0  0  0  0  0  0  0  0  0  0  0
  140.9100  154.1350  133.0410 C   0  0  0  0  0  0  0  0  0  0  0  0
  141.0890  154.9370  134.1730 C   0  0  0  0  0  0  0  0  0  0  0  0
  137.8974  159.6654  132.3832 H   0  0  0  0  0  0  0  0  0  0  0  0
  139.1078  160.3216  131.2295 H   0  0  0  0  0  0  0  0  0  0  0  0
  138.7265  158.5662  131.2295 H   0  0  0  0  0  0  0  0  0  0  0  0
  140.2843  157.6790  131.5313 H   0  0  0  0  0  0  0  0  0  0  0  0
  141.5216  158.0234  132.7942 H   0  0  0  0  0  0  0  0  0  0  0  0
  139.4120  158.5860  134.8410 H   0  0  0  0  0  0  0  0  0  0  0  0
  142.3776  155.5302  137.1386 H   0  0  0  0  0  0  0  0  0  0  0  0
  143.0918  152.9575  136.0987 H   0  0  0  0  0  0  0  0  0  0  0  0
  142.7913  151.4526  134.1044 H   0  0  0  0  0  0  0  0  0  0  0  0
  140.3880  152.1510  131.4850 H   0  0  0  0  0  0  0  0  0  0  0  0
  142.0290  152.2230  131.1180 H   0  0  0  0  0  0  0  0  0  0  0  0
  141.9099  150.0209  131.4138 H   0  0  0  0  0  0  0  0  0  0  0  0
  142.1116  150.5192  133.1484 H   0  0  0  0  0  0  0  0  0  0  0  0
  140.2773  148.9343  133.0011 H   0  0  0  0  0  0  0  0  0  0  0  0
  139.6249  150.5945  133.3565 H   0  0  0  0  0  0  0  0  0  0  0  0
  138.1909  149.4907  131.7295 H   0  0  0  0  0  0  0  0  0  0  0  0
  139.0893  150.8596  130.9513 H   0  0  0  0  0  0  0  0  0  0  0  0
  140.7365  149.3307  130.3107 H   0  0  0  0  0  0  0  0  0  0  0  0
  139.7843  146.6306  130.1134 H   0  0  0  0  0  0  0  0  0  0  0  0
  138.6126  146.8875  131.1036 H   0  0  0  0  0  0  0  0  0  0  0  0
  139.0657  148.3029  128.2253 H   0  0  0  0  0  0  0  0  0  0  0  0
  137.7689  148.8506  128.8875 H   0  0  0  0  0  0  0  0  0  0  0  0
  140.3021  154.4838  132.1932 H   0  0  0  0  0  0  0  0  0  0  0  0
  1  2  1  0
  2  3  1  0
  3  4  1  0
  4  5  2  0
  4  6  1  0
  6  7  1  0
  7  8  1  0
  8  9  1  0
  8 10  2  0
  7 11  2  0
 11 12  1  0
 12 13  2  0
 13 14  1  0
 14 15  2  0
 15 16  1  0
 16 17  1  0
 17 18  1  0
 18 19  1  0
 19 20  1  0
 20 21  1  0
 21 22  1  0
 15 23  1  0
 23 24  2  0
 24  6  1  0
 24 12  1  0
 22 20  1  0
  1 25  1  0
  1 26  1  0
  1 27  1  0
  3 28  1  0
  3 29  1  0
  9 30  1  0
 11 31  1  0
 13 32  1  0
 14 33  1  0
 16 34  1  0
 16 35  1  0
 17 36  1  0
 17 37  1  0
 18 38  1  0
 18 39  1  0
 19 40  1  0
 19 41  1  0
 20 42  1  0
 21 43  1  0
 21 44  1  0
 22 45  1  0
 22 46  1  0
 23 47  1  0
M  CHG  2   9  -1  16   1
M  END
>  <UniqueID>  (30) 
30

>  <SMILES>  (30) 
COCC(=O)n1c(C([NH-])=O)cc2ccc([NH2+]CCCC3CC3)cc21

>  <Energy>  (30) 
348.56350537579715

>  <Genealogy>  (30) 
COCC(=O)n1c(C([NH-])=O)cc2ccc([NH2+]CCCC3CC3)cc21 (protonated)
COCC(=O)n1c(C([NH-])=O)cc2ccc([NH2+]CCCC3CC3)cc21 (3D coordinates assigned)
COCC(=O)n1c(C([NH-])=O)cc2ccc([NH2+]CCCC3CC3)cc21 (nonaromatic ring conformer: 348.56350537579715 kcal/mol)

>  <smiles>  (30) 
COCC(=O)n1c(C(N)=O)cc2ccc(NCCCC3CC3)cc21

>  <score_type>  (30) 
oracle

>  <origin>  (30) 
adg

>  <m_score__min__energy>  (30) 
-7.6799999999999997

>  <m_primary>  (30) 
energy

$$$$
30:0
     RDKit          3D

 36 38  0  0  0  0  0  0  0  0999 V2000
  140.5640  159.2930  135.6780 N   0  0  0  0  0  0  0  0  0  0  0  0
  141.0650  158.3750  134.7100 C   0  0  0  0  0  0  0  0  0  0  0  0
  140.3090  157.4670  134.2720 O   0  0  0  0  0  0  0  0  0  0  0  0
  142.4710  158.4380  134.2570 C   0  0  0  0  0  0  0  0  0  0  0  0
  143.3130  157.3300  134.2230 C   0  0  0  0  0  0  0  0  0  0  0  0
  144.5400  157.8170  133.8350 C   0  0  0  0  0  0  0  0  0  0  0  0
  145.7430  157.1480  133.6310 C   0  0  0  0  0  0  0  0  0  0  0  0
  146.8500  157.8990  133.2020 C   0  0  0  0  0  0  0  0  0  0  0  0
  146.7370  159.2950  132.9750 C   0  0  0  0  0  0  0  0  0  0  0  0
  147.9480  160.0850  132.5100 C   0  0  0  0  0  0  0  0  0  0  0  0
  147.8220  160.4520  131.0190 C   0  0  0  0  0  0  0  0  0  0  0  0
  149.1710  160.9460  130.4830 C   0  0  0  0  0  0  0  0  0  0  0  0
  150.2440  159.9350  130.5890 N   0  0  0  0  0  0  0  0  0  0  0  0
  149.9850  158.8520  131.5570 C   0  0  0  0  0  0  0  0  0  0  0  0
  149.2820  159.3580  132.8260 C   0  0  0  0  0  0  0  0  0  0  0  0
  145.4960  159.9370  133.1980 C   0  0  0  0  0  0  0  0  0  0  0  0
  144.4150  159.1670  133.6440 C   0  0  0  0  0  0  0  0  0  0  0  0
  143.1480  159.5670  133.8960 N   0  0  0  0  0  0  0  0  0  0  0  0
  142.6250  160.8930  133.7230 C   0  0  0  0  0  0  0  0  0  0  0  0
  143.3990  161.8880  133.7310 O   0  0  0  0  0  0  0  0  0  0  0  0
  141.2590  161.0950  133.5710 O   0  0  0  0  0  0  0  0  0  0  0  0
  140.5440  160.3190  135.4860 H   0  0  0  0  0  0  0  0  0  0  0  0
  143.0528  156.2871  134.4566 H   0  0  0  0  0  0  0  0  0  0  0  0
  145.8247  156.0642  133.8005 H   0  0  0  0  0  0  0  0  0  0  0  0
  147.8162  157.3987  133.0401 H   0  0  0  0  0  0  0  0  0  0  0  0
  147.9723  161.0237  133.0829 H   0  0  0  0  0  0  0  0  0  0  0  0
  147.5077  159.5640  130.4509 H   0  0  0  0  0  0  0  0  0  0  0  0
  147.0749  161.2515  130.9065 H   0  0  0  0  0  0  0  0  0  0  0  0
  149.0487  161.2166  129.4238 H   0  0  0  0  0  0  0  0  0  0  0  0
  149.4714  161.8078  131.0970 H   0  0  0  0  0  0  0  0  0  0  0  0
  151.1290  160.4220  130.8670 H   0  0  0  0  0  0  0  0  0  0  0  0
  149.3473  158.0946  131.0778 H   0  0  0  0  0  0  0  0  0  0  0  0
  150.9557  158.4299  131.8564 H   0  0  0  0  0  0  0  0  0  0  0  0
  149.0705  158.4989  133.4797 H   0  0  0  0  0  0  0  0  0  0  0  0
  149.9512  160.0805  133.3161 H   0  0  0  0  0  0  0  0  0  0  0  0
  145.3830  161.0174  133.0248 H   0  0  0  0  0  0  0  0  0  0  0  0
  1  2  1  0
  2  3  2  0
  2  4  1  0
  4  5  2  0
  5  6  1  0
  6  7  2  0
  7  8  1  0
  8  9  2  0
  9 10  1  0
 10 11  1  0
 11 12  1  0
 12 13  1  0
 13 14  1  0
 14 15  1  0
  9 16  1  0
 16 17  2  0
 17 18  1  0
 18 19  1  0
 19 20  2  0
 19 21  1  0
 18  4  1  0
 17  6  1  0
 15 10  1  0
  1 22  1  0
  5 23  1  0
  7 24  1  0
  8 25  1  0
 10 26  1  0
 11 27  1  0
 11 28  1  0
 12 29  1  0
 12 30  1  0
 13 31  1  0
 14 32  1  0
 14 33  1  0
 15 34  1  0
 15 35  1  0
 16 36  1  0
M  CHG  2   1  -1  21  -1
M  END
>  <UniqueID>  (31) 
31

>  <SMILES>  (31) 
[NH-]C(=O)c1cc2ccc(C3CCNCC3)cc2n1C(=O)[O-]

>  <Energy>  (31) 
84.26953202465097

>  <Genealogy>  (31) 
[NH-]C(=O)c1cc2ccc(C3CCNCC3)cc2n1C(=O)[O-] (protonated)
[NH-]C(=O)c1cc2ccc(C3CCNCC3)cc2n1C(=O)[O-] (3D coordinates assigned)
[NH-]C(=O)c1cc2ccc(C3CCNCC3)cc2n1C(=O)[O-] (nonaromatic ring conformer: 84.26953202465097 kcal/mol)

>  <smiles>  (31) 
NC(=O)c1cc2ccc(C3CCNCC3)cc2n1C(=O)O

>  <score_type>  (31) 
oracle

>  <origin>  (31) 
adg

>  <m_score__min__energy>  (31) 
-8.1699999999999999

>  <m_primary>  (31) 
energy

$$$$
31:0
     RDKit          3D

 40 42  0  0  0  0  0  0  0  0999 V2000
  138.3370  159.6570  131.8230 C   0  0  0  0  0  0  0  0  0  0  0  0
  139.6890  159.4100  132.4080 C   0  0  0  0  0  0  0  0  0  0  0  0
  140.6040  160.3300  132.5960 O   0  0  0  0  0  0  0  0  0  0  0  0
  141.6370  159.7070  133.1180 C   0  0  0  0  0  0  0  0  0  0  0  0
  142.7120  160.2810  133.4310 O   0  0  0  0  0  0  0  0  0  0  0  0
  141.4260  158.4210  133.2740 O   0  0  0  0  0  0  0  0  0  0  0  0
  140.2070  158.2030  132.8400 C   0  0  0  0  0  0  0  0  0  0  0  0
  139.5390  156.8670  132.8090 C   0  0  0  0  0  0  0  0  0  0  0  0
  140.4380  155.8840  133.3040 O   0  0  0  0  0  0  0  0  0  0  0  0
  140.2250  154.5110  133.1450 C   0  0  0  0  0  0  0  0  0  0  0  0
  139.0570  154.0680  132.9700 O   0  0  0  0  0  0  0  0  0  0  0  0
  141.3430  153.6090  133.1840 N   0  0  0  0  0  0  0  0  0  0  0  0
  142.6520  153.9290  133.3990 C   0  0  0  0  0  0  0  0  0  0  0  0
  143.1630  155.2530  133.8040 C   0  0  0  0  0  0  0  0  0  0  0  0
  142.8910  156.4210  133.0280 N   0  0  0  0  0  0  0  0  0  0  0  0
  143.8050  155.3630  134.8820 O   0  0  0  0  0  0  0  0  0  0  0  0
  143.4660  152.8140  133.2270 C   0  0  0  0  0  0  0  0  0  0  0  0
  142.6110  151.7850  132.9060 C   0  0  0  0  0  0  0  0  0  0  0  0
  142.8880  150.4520  132.6170 C   0  0  0  0  0  0  0  0  0  0  0  0
  141.8120  149.6150  132.2810 C   0  0  0  0  0  0  0  0  0  0  0  0
  140.4910  150.1240  132.2220 C   0  0  0  0  0  0  0  0  0  0  0  0
  139.3460  149.2120  131.8770 C   0  0  0  0  0  0  0  0  0  0  0  0
  139.2460  149.0370  130.3920 C   0  0  0  0  0  0  0  0  0  0  0  0
  139.4710  149.9730  129.6420 O   0  0  0  0  0  0  0  0  0  0  0  0
  140.2470  151.4810  132.5310 C   0  0  0  0  0  0  0  0  0  0  0  0
  141.3350  152.2890  132.8840 C   0  0  0  0  0  0  0  0  0  0  0  0
  137.6056  159.7906  132.6336 H   0  0  0  0  0  0  0  0  0  0  0  0
  138.3663  160.5647  131.2023 H   0  0  0  0  0  0  0  0  0  0  0  0
  138.0435  158.7976  131.2023 H   0  0  0  0  0  0  0  0  0  0  0  0
  138.6375  156.8916  133.4388 H   0  0  0  0  0  0  0  0  0  0  0  0
  139.2535  156.6202  131.7758 H   0  0  0  0  0  0  0  0  0  0  0  0
  143.2990  157.3410  133.3050 H   0  0  0  0  0  0  0  0  0  0  0  0
  142.2280  156.3910  132.2220 H   0  0  0  0  0  0  0  0  0  0  0  0
  144.5604  152.7654  133.3265 H   0  0  0  0  0  0  0  0  0  0  0  0
  143.9176  150.0663  132.6508 H   0  0  0  0  0  0  0  0  0  0  0  0
  141.9964  148.5531  132.0613 H   0  0  0  0  0  0  0  0  0  0  0  0
  139.5096  148.2311  132.3472 H   0  0  0  0  0  0  0  0  0  0  0  0
  138.4110  149.6577  132.2473 H   0  0  0  0  0  0  0  0  0  0  0  0
  138.9678  148.0578  129.9751 H   0  0  0  0  0  0  0  0  0  0  0  0
  139.2275  151.8926  132.4952 H   0  0  0  0  0  0  0  0  0  0  0  0
  1  2  1  0
  2  3  1  0
  3  4  1  0
  4  5  2  0
  4  6  1  0
  6  7  1  0
  7  8  1  0
  8  9  1  0
  9 10  1  0
 10 11  2  0
 10 12  1  0
 12 13  1  0
 13 14  1  0
 14 15  1  0
 14 16  2  0
 13 17  2  0
 17 18  1  0
 18 19  2  0
 19 20  1  0
 20 21  2  0
 21 22  1  0
 22 23  1  0
 23 24  2  0
 21 25  1  0
 25 26  2  0
  7  2  2  0
 26 12  1  0
 26 18  1  0
  1 27  1  0
  1 28  1  0
  1 29  1  0
  8 30  1  0
  8 31  1  0
 15 32  1  0
 15 33  1  0
 17 34  1  0
 19 35  1  0
 20 36  1  0
 22 37  1  0
 22 38  1  0
 23 39  1  0
 25 40  1  0
M  END
>  <UniqueID>  (32) 
32

>  <SMILES>  (32) 
Cc1oc(=O)oc1COC(=O)n1c(C(N)=O)cc2ccc(CC=O)cc21

>  <Energy>  (32) 
107.8359608650309

>  <Genealogy>  (32) 
Cc1oc(=O)oc1COC(=O)n1c(C(N)=O)cc2ccc(CC=O)cc21 (3D coordinates assigned)
Cc1oc(=O)oc1COC(=O)n1c(C(N)=O)cc2ccc(CC=O)cc21 (optimized conformer: 107.8359608650309 kcal/mol)

>  <smiles>  (32) 
Cc1oc(=O)oc1COC(=O)n1c(C(N)=O)cc2ccc(CC=O)cc21

>  <score_type>  (32) 
oracle

>  <origin>  (32) 
adg

>  <m_score__min__energy>  (32) 
-7.1200000000000001

>  <m_primary>  (32) 
energy

$$$$
32:0
     RDKit          3D

 53 56  0  0  0  0  0  0  0  0999 V2000
  140.3160  157.6100  133.5980 C   0  0  0  0  0  0  0  0  0  0  0  0
  141.2710  158.2790  132.6160 C   0  0  0  0  0  0  0  0  0  0  0  0
  142.6160  157.8800  132.8730 O   0  0  0  0  0  0  0  0  0  0  0  0
  143.4100  158.4470  133.8760 C   0  0  0  0  0  0  0  0  0  0  0  0
  142.9160  158.7210  135.0030 O   0  0  0  0  0  0  0  0  0  0  0  0
  144.8010  158.6980  133.6250 N   0  0  0  0  0  0  0  0  0  0  0  0
  145.4230  159.9070  133.5170 C   0  0  0  0  0  0  0  0  0  0  0  0
  144.8200  161.2220  133.8130 C   0  0  0  0  0  0  0  0  0  0  0  0
  143.4100  161.4150  133.7420 N   0  0  0  0  0  0  0  0  0  0  0  0
  145.5550  162.1770  134.1820 O   0  0  0  0  0  0  0  0  0  0  0  0
  146.7600  159.7390  133.1600 C   0  0  0  0  0  0  0  0  0  0  0  0
  146.9420  158.3790  133.0580 C   0  0  0  0  0  0  0  0  0  0  0  0
  148.0800  157.6510  132.7240 C   0  0  0  0  0  0  0  0  0  0  0  0
  147.9750  156.2510  132.6710 C   0  0  0  0  0  0  0  0  0  0  0  0
  146.7380  155.6070  132.9310 C   0  0  0  0  0  0  0  0  0  0  0  0
  146.6480  154.1680  132.8940 N   0  0  0  0  0  0  0  0  0  0  0  0
  147.6010  153.5760  133.8520 C   0  0  0  0  0  0  0  0  0  0  0  0
  148.7730  152.7690  133.2120 C   0  0  1  0  0  0  0  0  0  0  0  0
  149.4310  151.6530  134.0870 C   0  0  0  0  0  0  0  0  0  0  0  0
  149.5730  150.3740  133.2380 C   0  0  0  0  0  0  0  0  0  0  0  0
  148.1630  149.9380  132.7990 C   0  0  0  0  0  0  0  0  0  0  0  0
  147.5150  151.0700  131.9610 C   0  0  0  0  0  0  0  0  0  0  0  0
  148.4150  152.2470  131.8600 N   0  0  0  0  0  0  0  0  0  0  0  0
  149.6590  151.8200  131.1690 C   0  0  0  0  0  0  0  0  0  0  0  0
  150.3910  150.7140  131.9750 C   0  0  0  0  0  0  0  0  0  0  0  0
  145.6060  156.3820  133.2780 C   0  0  0  0  0  0  0  0  0  0  0  0
  145.7450  157.7720  133.3430 C   0  0  0  0  0  0  0  0  0  0  0  0
  140.6335  157.8324  134.6275 H   0  0  0  0  0  0  0  0  0  0  0  0
  139.2974  157.9930  133.4376 H   0  0  0  0  0  0  0  0  0  0  0  0
  140.3280  156.5218  133.4376 H   0  0  0  0  0  0  0  0  0  0  0  0
  140.9974  157.9887  131.5909 H   0  0  0  0  0  0  0  0  0  0  0  0
  141.1957  159.3699  132.7354 H   0  0  0  0  0  0  0  0  0  0  0  0
  142.7490  160.6770  134.0730 H   0  0  0  0  0  0  0  0  0  0  0  0
  147.5101  160.5264  132.9949 H   0  0  0  0  0  0  0  0  0  0  0  0
  149.0329  158.1564  132.5080 H   0  0  0  0  0  0  0  0  0  0  0  0
  148.8614  155.6478  132.4253 H   0  0  0  0  0  0  0  0  0  0  0  0
  145.6740  153.8900  133.1550 H   0  0  0  0  0  0  0  0  0  0  0  0
  146.8250  153.8360  131.9200 H   0  0  0  0  0  0  0  0  0  0  0  0
  148.0356  154.3922  134.4478 H   0  0  0  0  0  0  0  0  0  0  0  0
  147.0243  152.8543  134.4491 H   0  0  0  0  0  0  0  0  0  0  0  0
  149.5646  153.5276  133.1228 H   0  0  0  0  0  0  0  0  0  0  0  0
  150.4241  151.9850  134.4240 H   0  0  0  0  0  0  0  0  0  0  0  0
  148.8029  151.4494  134.9668 H   0  0  0  0  0  0  0  0  0  0  0  0
  150.0689  149.5777  133.8124 H   0  0  0  0  0  0  0  0  0  0  0  0
  148.2336  149.0245  132.1903 H   0  0  0  0  0  0  0  0  0  0  0  0
  147.5459  149.7372  133.6872 H   0  0  0  0  0  0  0  0  0  0  0  0
  147.3041  150.6919  130.9498 H   0  0  0  0  0  0  0  0  0  0  0  0
  146.5861  151.3840  132.4596 H   0  0  0  0  0  0  0  0  0  0  0  0
  149.4016  151.4290  130.1736 H   0  0  0  0  0  0  0  0  0  0  0  0
  150.3269  152.6895  131.0805 H   0  0  0  0  0  0  0  0  0  0  0  0
  150.4950  149.8136  131.3517 H   0  0  0  0  0  0  0  0  0  0  0  0
  151.3885  151.0727  132.2688 H   0  0  0  0  0  0  0  0  0  0  0  0
  144.6394  155.9023  133.4916 H   0  0  0  0  0  0  0  0  0  0  0  0
  1  2  1  0
  2  3  1  0
  3  4  1  0
  4  5  2  0
  4  6  1  0
  6  7  1  0
  7  8  1  0
  8  9  1  0
  8 10  2  0
  7 11  2  0
 11 12  1  0
 12 13  2  0
 13 14  1  0
 14 15  2  0
 15 16  1  0
 16 17  1  0
 17 18  1  0
 18 19  1  0
 19 20  1  0
 20 21  1  0
 21 22  1  0
 22 23  1  0
 23 24  1  0
 24 25  1  0
 15 26  1  0
 26 27  2  0
 27  6  1  0
 27 12  1  0
 23 18  1  0
 25 20  1  0
  1 28  1  0
  1 29  1  0
  1 30  1  0
  2 31  1  0
  2 32  1  0
  9 33  1  0
 11 34  1  0
 13 35  1  0
 14 36  1  0
 16 37  1  0
 16 38  1  0
 17 39  1  0
 17 40  1  0
 18 41  1  6
 19 42  1  0
 19 43  1  0
 20 44  1  0
 21 45  1  0
 21 46  1  0
 22 47  1  0
 22 48  1  0
 24 49  1  0
 24 50  1  0
 25 51  1  0
 25 52  1  0
 26 53  1  0
M  CHG  2   9  -1  16   1
M  END
>  <UniqueID>  (33) 
33

>  <SMILES>  (33) 
CCOC(=O)n1c(C([NH-])=O)cc2ccc([NH2+]C[C@H]3CC4CCN3CC4)cc21

>  <Energy>  (33) 
112.237579511377

>  <Genealogy>  (33) 
CCOC(=O)n1c(C([NH-])=O)cc2ccc([NH2+]CC3CC4CCN3CC4)cc21 (protonated)
CCOC(=O)n1c(C([NH-])=O)cc2ccc([NH2+]C[C@H]3CC4CCN3CC4)cc21 (chirality)
CCOC(=O)n1c(C([NH-])=O)cc2ccc([NH2+]C[C@H]3CC4CCN3CC4)cc21 (3D coordinates assigned)
CCOC(=O)n1c(C([NH-])=O)cc2ccc([NH2+]C[C@H]3CC4CCN3CC4)cc21 (nonaromatic ring conformer: 112.237579511377 kcal/mol)

>  <smiles>  (33) 
CCOC(=O)n1c(C(N)=O)cc2ccc(NCC3CC4CCN3CC4)cc21

>  <score_type>  (33) 
oracle

>  <origin>  (33) 
adg

>  <m_score__min__energy>  (33) 
-7.9500000000000002

>  <m_primary>  (33) 
energy

$$$$
33:0
     RDKit          3D

 51 52  0  0  0  0  0  0  0  0999 V2000
  138.3630  160.4670  130.3900 C   0  0  0  0  0  0  0  0  0  0  0  0
  138.0550  159.3380  131.3640 C   0  0  0  0  0  0  0  0  0  0  0  0
  139.1270  158.3990  131.3890 O   0  0  0  0  0  0  0  0  0  0  0  0
  139.4430  157.6240  132.5090 C   0  0  0  0  0  0  0  0  0  0  0  0
  139.3950  156.3640  132.4580 O   0  0  0  0  0  0  0  0  0  0  0  0
  139.8510  158.3020  133.7790 C   0  0  0  0  0  0  0  0  0  0  0  0
  141.2930  158.7270  133.7110 C   0  0  0  0  0  0  0  0  0  0  0  0
  141.6420  160.0950  133.8340 C   0  0  0  0  0  0  0  0  0  0  0  0
  142.9830  160.5040  133.7430 C   0  0  0  0  0  0  0  0  0  0  0  0
  143.9490  159.5250  133.5300 C   0  0  0  0  0  0  0  0  0  0  0  0
  145.3090  159.6500  133.3640 C   0  0  0  0  0  0  0  0  0  0  0  0
  145.7750  158.3530  133.1510 C   0  0  0  0  0  0  0  0  0  0  0  0
  147.2050  158.0030  133.0000 C   0  0  0  0  0  0  0  0  0  0  0  0
  147.6300  157.0920  131.9850 N   0  0  0  0  0  0  0  0  0  0  0  0
  148.0660  158.5350  133.7480 O   0  0  0  0  0  0  0  0  0  0  0  0
  144.7430  157.4630  133.1870 N   0  0  0  0  0  0  0  0  0  0  0  0
  144.7980  156.0550  132.9110 C   0  0  0  0  0  0  0  0  0  0  0  0
  145.9050  155.4510  132.9240 O   0  0  0  0  0  0  0  0  0  0  0  0
  143.6130  155.3570  132.6470 O   0  0  0  0  0  0  0  0  0  0  0  0
  143.5570  153.9670  132.3250 C   0  0  0  0  0  0  0  0  0  0  0  0
  142.6920  153.1660  133.3370 C   0  0  0  0  0  0  0  0  0  0  0  0
  142.7530  151.6730  132.9460 C   0  0  0  0  0  0  0  0  0  0  0  0
  143.2470  153.3110  134.7710 C   0  0  0  0  0  0  0  0  0  0  0  0
  141.2090  153.6250  133.2810 C   0  0  0  0  0  0  0  0  0  0  0  0
  141.0810  155.0120  133.4580 O   0  0  0  0  0  0  0  0  0  0  0  0
  143.6310  158.1960  133.4190 C   0  0  0  0  0  0  0  0  0  0  0  0
  142.3020  157.7630  133.4920 C   0  0  0  0  0  0  0  0  0  0  0  0
  138.6118  161.3789  130.9526 H   0  0  0  0  0  0  0  0  0  0  0  0
  139.2164  160.1825  129.7569 H   0  0  0  0  0  0  0  0  0  0  0  0
  137.4834  160.6553  129.7569 H   0  0  0  0  0  0  0  0  0  0  0  0
  137.9156  159.7563  132.3718 H   0  0  0  0  0  0  0  0  0  0  0  0
  137.1380  158.8251  131.0383 H   0  0  0  0  0  0  0  0  0  0  0  0
  139.2193  159.1890  133.9347 H   0  0  0  0  0  0  0  0  0  0  0  0
  139.7275  157.5966  134.6139 H   0  0  0  0  0  0  0  0  0  0  0  0
  140.8547  160.8445  134.0025 H   0  0  0  0  0  0  0  0  0  0  0  0
  143.2606  161.5642  133.8371 H   0  0  0  0  0  0  0  0  0  0  0  0
  145.9024  160.5758  133.3931 H   0  0  0  0  0  0  0  0  0  0  0  0
  148.6450  156.8830  131.8590 H   0  0  0  0  0  0  0  0  0  0  0  0
  146.9410  156.5880  131.3840 H   0  0  0  0  0  0  0  0  0  0  0  0
  143.1239  153.8530  131.3203 H   0  0  0  0  0  0  0  0  0  0  0  0
  144.5815  153.5687  132.3660 H   0  0  0  0  0  0  0  0  0  0  0  0
  142.7782  151.0563  133.8565 H   0  0  0  0  0  0  0  0  0  0  0  0
  141.8647  151.4131  132.3515 H   0  0  0  0  0  0  0  0  0  0  0  0
  143.6595  151.4864  132.3515 H   0  0  0  0  0  0  0  0  0  0  0  0
  142.4471  153.1020  135.4966 H   0  0  0  0  0  0  0  0  0  0  0  0
  144.0716  152.5982  134.9188 H   0  0  0  0  0  0  0  0  0  0  0  0
  143.6175  154.3361  134.9188 H   0  0  0  0  0  0  0  0  0  0  0  0
  140.7893  153.3517  132.3016 H   0  0  0  0  0  0  0  0  0  0  0  0
  140.6678  153.1266  134.0987 H   0  0  0  0  0  0  0  0  0  0  0  0
  141.3940  155.4440  132.6200 H   0  0  0  0  0  0  0  0  0  0  0  0
  142.0495  156.6981  133.3815 H   0  0  0  0  0  0  0  0  0  0  0  0
  1  2  1  0
  2  3  1  0
  3  4  1  0
  4  5  2  0
  4  6  1  0
  6  7  1  0
  7  8  2  0
  8  9  1  0
  9 10  2  0
 10 11  1  0
 11 12  2  0
 12 13  1  0
 13 14  1  0
 13 15  2  0
 12 16  1  0
 16 17  1  0
 17 18  2  0
 17 19  1  0
 19 20  1  0
 20 21  1  0
 21 22  1  0
 21 23  1  0
 21 24  1  0
 24 25  1  0
 16 26  1  0
 26 27  2  0
 27  7  1  0
 26 10  1  0
  1 28  1  0
  1 29  1  0
  1 30  1  0
  2 31  1  0
  2 32  1  0
  6 33  1  0
  6 34  1  0
  8 35  1  0
  9 36  1  0
 11 37  1  0
 14 38  1  0
 14 39  1  0
 20 40  1  0
 20 41  1  0
 22 42  1  0
 22 43  1  0
 22 44  1  0
 23 45  1  0
 23 46  1  0
 23 47  1  0
 24 48  1  0
 24 49  1  0
 25 50  1  0
 27 51  1  0
M  END
>  <UniqueID>  (34) 
34

>  <SMILES>  (34) 
CCOC(=O)Cc1ccc2cc(C(N)=O)n(C(=O)OCC(C)(C)CO)c2c1

>  <Energy>  (34) 
77.76867809556134

>  <Genealogy>  (34) 
CCOC(=O)Cc1ccc2cc(C(N)=O)n(C(=O)OCC(C)(C)CO)c2c1 (3D coordinates assigned)
CCOC(=O)Cc1ccc2cc(C(N)=O)n(C(=O)OCC(C)(C)CO)c2c1 (optimized conformer: 77.76867809556134 kcal/mol)

>  <smiles>  (34) 
CCOC(=O)Cc1ccc2cc(C(N)=O)n(C(=O)OCC(C)(C)CO)c2c1

>  <score_type>  (34) 
oracle

>  <origin>  (34) 
adg

>  <m_score__min__energy>  (34) 
-7.1399999999999997

>  <m_primary>  (34) 
energy

$$$$
34:0
     RDKit          3D

 32 33  0  0  0  0  0  0  0  0999 V2000
  142.9240  156.4040  132.8220 N   0  0  0  0  0  0  0  0  0  0  0  0
  143.6310  155.2450  133.2660 C   0  0  0  0  0  0  0  0  0  0  0  0
  144.7830  155.3750  133.7560 O   0  0  0  0  0  0  0  0  0  0  0  0
  143.0630  153.8930  133.1000 C   0  0  0  0  0  0  0  0  0  0  0  0
  143.8410  152.7440  132.9910 C   0  0  0  0  0  0  0  0  0  0  0  0
  142.9480  151.7190  132.7800 C   0  0  0  0  0  0  0  0  0  0  0  0
  143.1770  150.3580  132.6040 C   0  0  0  0  0  0  0  0  0  0  0  0
  142.0630  149.5200  132.4310 C   0  0  0  0  0  0  0  0  0  0  0  0
  140.7490  150.0510  132.4550 C   0  0  0  0  0  0  0  0  0  0  0  0
  139.5670  149.1460  132.2310 C   0  0  0  0  0  0  0  0  0  0  0  0
  138.7560  149.5930  131.0130 C   0  0  0  0  0  0  0  0  0  0  0  0
  138.4650  148.4760  130.1890 O   0  0  0  0  0  0  0  0  0  0  0  0
  139.4450  147.4740  130.3450 C   0  0  0  0  0  0  0  0  0  0  0  0
  139.0250  146.3330  129.6890 F   0  0  0  0  0  0  0  0  0  0  0  0
  140.5560  151.4390  132.6300 C   0  0  0  0  0  0  0  0  0  0  0  0
  141.6850  152.2550  132.7770 C   0  0  0  0  0  0  0  0  0  0  0  0
  141.7380  153.5930  132.9750 N   0  0  0  0  0  0  0  0  0  0  0  0
  140.6240  154.4850  133.1450 C   0  0  0  0  0  0  0  0  0  0  0  0
  139.5140  154.2320  132.6070 O   0  0  0  0  0  0  0  0  0  0  0  0
  140.7590  155.6370  133.9120 O   0  0  0  0  0  0  0  0  0  0  0  0
  142.0460  156.3180  132.2650 H   0  0  0  0  0  0  0  0  0  0  0  0
  143.3260  157.3550  132.9810 H   0  0  0  0  0  0  0  0  0  0  0  0
  144.9365  152.6711  133.0591 H   0  0  0  0  0  0  0  0  0  0  0  0
  144.1988  149.9508  132.6004 H   0  0  0  0  0  0  0  0  0  0  0  0
  142.2118  148.4413  132.2754 H   0  0  0  0  0  0  0  0  0  0  0  0
  139.9262  148.1194  132.0667 H   0  0  0  0  0  0  0  0  0  0  0  0
  138.9188  149.1905  133.1186 H   0  0  0  0  0  0  0  0  0  0  0  0
  137.8150  150.0522  131.3502 H   0  0  0  0  0  0  0  0  0  0  0  0
  139.3419  150.3244  130.4370 H   0  0  0  0  0  0  0  0  0  0  0  0
  140.3971  147.8182  129.9149 H   0  0  0  0  0  0  0  0  0  0  0  0
  139.5910  147.2578  131.4136 H   0  0  0  0  0  0  0  0  0  0  0  0
  139.5437  151.8689  132.6504 H   0  0  0  0  0  0  0  0  0  0  0  0
  1  2  1  0
  2  3  2  0
  2  4  1  0
  4  5  2  0
  5  6  1  0
  6  7  2  0
  7  8  1  0
  8  9  2  0
  9 10  1  0
 10 11  1  0
 11 12  1  0
 12 13  1  0
 13 14  1  0
  9 15  1  0
 15 16  2  0
 16 17  1  0
 17 18  1  0
 18 19  2  0
 18 20  1  0
 17  4  1  0
 16  6  1  0
  1 21  1  0
  1 22  1  0
  5 23  1  0
  7 24  1  0
  8 25  1  0
 10 26  1  0
 10 27  1  0
 11 28  1  0
 11 29  1  0
 13 30  1  0
 13 31  1  0
 15 32  1  0
M  CHG  1  20  -1
M  END
>  <UniqueID>  (35) 
35

>  <SMILES>  (35) 
NC(=O)c1cc2ccc(CCOCF)cc2n1C(=O)[O-]

>  <Energy>  (35) 
71.37210241472643

>  <Genealogy>  (35) 
NC(=O)c1cc2ccc(CCOCF)cc2n1C(=O)[O-] (protonated)
NC(=O)c1cc2ccc(CCOCF)cc2n1C(=O)[O-] (3D coordinates assigned)
NC(=O)c1cc2ccc(CCOCF)cc2n1C(=O)[O-] (optimized conformer: 71.37210241472643 kcal/mol)

>  <smiles>  (35) 
NC(=O)c1cc2ccc(CCOCF)cc2n1C(=O)O

>  <score_type>  (35) 
oracle

>  <origin>  (35) 
adg

>  <m_score__min__energy>  (35) 
-5.9199999999999999

>  <m_primary>  (35) 
energy

$$$$
35:0
     RDKit          3D

 24 25  0  0  0  0  0  0  0  0999 V2000
  149.3720  159.7350  132.2380 C   0  0  0  0  0  0  0  0  0  0  0  0
  147.9930  159.3250  132.6630 C   0  0  0  0  0  0  0  0  0  0  0  0
  147.6140  157.9600  132.6160 C   0  0  0  0  0  0  0  0  0  0  0  0
  146.3180  157.5650  132.9870 C   0  0  0  0  0  0  0  0  0  0  0  0
  145.4210  158.5550  133.3790 C   0  0  0  0  0  0  0  0  0  0  0  0
  144.1180  158.4500  133.8050 C   0  0  0  0  0  0  0  0  0  0  0  0
  143.7070  159.7550  134.0680 C   0  0  0  0  0  0  0  0  0  0  0  0
  142.3300  160.1070  134.4690 C   0  0  0  0  0  0  0  0  0  0  0  0
  141.5300  160.9690  133.6630 N   0  0  0  0  0  0  0  0  0  0  0  0
  141.8340  159.5990  135.5090 O   0  0  0  0  0  0  0  0  0  0  0  0
  144.7200  160.6340  133.8220 N   0  0  0  0  0  0  0  0  0  0  0  0
  144.7300  162.0510  134.0570 C   0  0  0  0  0  0  0  0  0  0  0  0
  145.5310  162.5540  134.8880 O   0  0  0  0  0  0  0  0  0  0  0  0
  143.8320  162.8780  133.3910 O   0  0  0  0  0  0  0  0  0  0  0  0
  145.7620  159.8840  133.3980 C   0  0  0  0  0  0  0  0  0  0  0  0
  147.0530  160.3030  133.0510 C   0  0  0  0  0  0  0  0  0  0  0  0
  149.9907  159.9189  133.1287 H   0  0  0  0  0  0  0  0  0  0  0  0
  149.8242  158.9325  131.6368 H   0  0  0  0  0  0  0  0  0  0  0  0
  149.3123  160.6542  131.6368 H   0  0  0  0  0  0  0  0  0  0  0  0
  148.3411  157.2034  132.2861 H   0  0  0  0  0  0  0  0  0  0  0  0
  146.0210  156.5060  132.9684 H   0  0  0  0  0  0  0  0  0  0  0  0
  143.5252  157.5300  133.9149 H   0  0  0  0  0  0  0  0  0  0  0  0
  141.9200  161.8570  133.2770 H   0  0  0  0  0  0  0  0  0  0  0  0
  147.3270  161.3679  133.0803 H   0  0  0  0  0  0  0  0  0  0  0  0
  1  2  1  0
  2  3  2  0
  3  4  1  0
  4  5  2  0
  5  6  1  0
  6  7  2  0
  7  8  1  0
  8  9  1  0
  8 10  2  0
  7 11  1  0
 11 12  1  0
 12 13  2  0
 12 14  1  0
 11 15  1  0
 15 16  2  0
 16  2  1  0
 15  5  1  0
  1 17  1  0
  1 18  1  0
  1 19  1  0
  3 20  1  0
  4 21  1  0
  6 22  1  0
  9 23  1  0
 16 24  1  0
M  CHG  2   9  -1  14  -1
M  END
>  <UniqueID>  (36) 
36

>  <SMILES>  (36) 
Cc1ccc2cc(C([NH-])=O)n(C(=O)[O-])c2c1

>  <Energy>  (36) 
63.79671711789207

>  <Genealogy>  (36) 
Cc1ccc2cc(C([NH-])=O)n(C(=O)[O-])c2c1 (protonated)
Cc1ccc2cc(C([NH-])=O)n(C(=O)[O-])c2c1 (3D coordinates assigned)
Cc1ccc2cc(C([NH-])=O)n(C(=O)[O-])c2c1 (optimized conformer: 63.79671711789207 kcal/mol)

>  <smiles>  (36) 
Cc1ccc2cc(C(N)=O)n(C(=O)O)c2c1

>  <score_type>  (36) 
oracle

>  <origin>  (36) 
adg

>  <m_score__min__energy>  (36) 
-5.8099999999999996

>  <m_primary>  (36) 
energy

$$$$
36:0
     RDKit          3D

 37 38  0  0  0  0  0  0  0  0999 V2000
  146.8930  153.3230  133.0430 C   0  0  0  0  0  0  0  0  0  0  0  0
  147.9920  154.3170  133.4270 C   0  0  1  0  0  0  0  0  0  0  0  0
  148.8010  154.5410  132.3020 O   0  0  0  0  0  0  0  0  0  0  0  0
  147.3970  155.6540  133.9080 C   0  0  0  0  0  0  0  0  0  0  0  0
  147.0490  156.5560  132.7550 C   0  0  0  0  0  0  0  0  0  0  0  0
  146.9660  156.0700  131.5950 O   0  0  0  0  0  0  0  0  0  0  0  0
  146.8590  157.9670  132.9500 N   0  0  0  0  0  0  0  0  0  0  0  0
  147.7630  158.9640  132.7290 C   0  0  0  0  0  0  0  0  0  0  0  0
  149.1680  158.7670  132.2920 C   0  0  0  0  0  0  0  0  0  0  0  0
  149.6270  157.4910  131.8410 N   0  0  0  0  0  0  0  0  0  0  0  0
  149.9770  159.7330  132.3050 O   0  0  0  0  0  0  0  0  0  0  0  0
  147.1930  160.2060  133.0090 C   0  0  0  0  0  0  0  0  0  0  0  0
  145.8990  159.9360  133.3920 C   0  0  0  0  0  0  0  0  0  0  0  0
  144.8740  160.8060  133.7580 C   0  0  0  0  0  0  0  0  0  0  0  0
  143.6190  160.2530  134.0600 C   0  0  0  0  0  0  0  0  0  0  0  0
  143.4050  158.8550  133.9680 C   0  0  0  0  0  0  0  0  0  0  0  0
  142.0600  158.2740  134.3050 C   0  0  0  0  0  0  0  0  0  0  0  0
  141.0670  159.3700  134.5210 C   0  0  0  0  0  0  0  0  0  0  0  0
  140.7080  159.6780  135.6880 O   0  0  0  0  0  0  0  0  0  0  0  0
  140.4960  160.0160  133.4330 O   0  0  0  0  0  0  0  0  0  0  0  0
  144.4710  158.0040  133.6010 C   0  0  0  0  0  0  0  0  0  0  0  0
  145.7190  158.5790  133.3380 C   0  0  0  0  0  0  0  0  0  0  0  0
  146.4368  152.9104  133.9550 H   0  0  0  0  0  0  0  0  0  0  0  0
  146.1238  153.8383  132.4491 H   0  0  0  0  0  0  0  0  0  0  0  0
  147.3287  152.5061  132.4491 H   0  0  0  0  0  0  0  0  0  0  0  0
  148.5817  153.8945  134.2539 H   0  0  0  0  0  0  0  0  0  0  0  0
  148.2100  154.4830  131.5050 H   0  0  0  0  0  0  0  0  0  0  0  0
  146.4853  155.4499  134.4886 H   0  0  0  0  0  0  0  0  0  0  0  0
  148.1522  156.1628  134.5251 H   0  0  0  0  0  0  0  0  0  0  0  0
  149.0190  156.6450  131.8780 H   0  0  0  0  0  0  0  0  0  0  0  0
  150.6090  157.3790  131.5050 H   0  0  0  0  0  0  0  0  0  0  0  0
  147.6754  161.1920  132.9386 H   0  0  0  0  0  0  0  0  0  0  0  0
  145.0426  161.8918  133.8088 H   0  0  0  0  0  0  0  0  0  0  0  0
  142.7942  160.9111  134.3709 H   0  0  0  0  0  0  0  0  0  0  0  0
  141.7218  157.6347  133.4762 H   0  0  0  0  0  0  0  0  0  0  0  0
  142.1453  157.6786  135.2260 H   0  0  0  0  0  0  0  0  0  0  0  0
  144.3236  156.9166  133.5239 H   0  0  0  0  0  0  0  0  0  0  0  0
  1  2  1  0
  2  3  1  0
  2  4  1  0
  4  5  1  0
  5  6  2  0
  5  7  1  0
  7  8  1  0
  8  9  1  0
  9 10  1  0
  9 11  2  0
  8 12  2  0
 12 13  1  0
 13 14  2  0
 14 15  1  0
 15 16  2  0
 16 17  1  0
 17 18  1  0
 18 19  2  0
 18 20  1  0
 16 21  1  0
 21 22  2  0
 22  7  1  0
 22 13  1  0
  1 23  1  0
  1 24  1  0
  1 25  1  0
  2 26  1  1
  3 27  1  0
  4 28  1  0
  4 29  1  0
 10 30  1  0
 10 31  1  0
 12 32  1  0
 14 33  1  0
 15 34  1  0
 17 35  1  0
 17 36  1  0
 21 37  1  0
M  CHG  1  20  -1
M  END
>  <UniqueID>  (37) 
37

>  <SMILES>  (37) 
C[C@@H](O)CC(=O)n1c(C(N)=O)cc2ccc(CC(=O)[O-])cc21

>  <Energy>  (37) 
70.15978692000479

>  <Genealogy>  (37) 
C[C@@H](O)CC(=O)n1c(C(N)=O)cc2ccc(CC(=O)[O-])cc21 (protonated)
C[C@@H](O)CC(=O)n1c(C(N)=O)cc2ccc(CC(=O)[O-])cc21 (3D coordinates assigned)
C[C@@H](O)CC(=O)n1c(C(N)=O)cc2ccc(CC(=O)[O-])cc21 (optimized conformer: 70.15978692000479 kcal/mol)

>  <smiles>  (37) 
C[C@@H](O)CC(=O)n1c(C(N)=O)cc2ccc(CC(=O)O)cc21

>  <score_type>  (37) 
oracle

>  <origin>  (37) 
adg

>  <m_score__min__energy>  (37) 
-7

>  <m_primary>  (37) 
energy

$$$$
37:0
     RDKit          3D

 31 33  0  0  0  0  0  0  0  0999 V2000
  140.3840  159.1740  136.3620 N   0  0  0  0  0  0  0  0  0  0  0  0
  140.7170  158.8280  135.0210 C   0  0  0  0  0  0  0  0  0  0  0  0
  139.8030  158.7600  134.1570 O   0  0  0  0  0  0  0  0  0  0  0  0
  142.1220  158.6040  134.6200 C   0  0  0  0  0  0  0  0  0  0  0  0
  142.7740  157.3810  134.7660 C   0  0  0  0  0  0  0  0  0  0  0  0
  144.0130  157.5590  134.1950 C   0  0  0  0  0  0  0  0  0  0  0  0
  145.0740  156.6700  134.0700 C   0  0  0  0  0  0  0  0  0  0  0  0
  146.2520  157.1300  133.4600 C   0  0  0  0  0  0  0  0  0  0  0  0
  146.3540  158.4680  132.9930 C   0  0  0  0  0  0  0  0  0  0  0  0
  147.6100  158.9470  132.3610 C   0  0  0  0  0  0  0  0  0  0  0  0
  148.7890  158.1810  132.4410 C   0  0  0  0  0  0  0  0  0  0  0  0
  149.9690  158.6330  131.8440 C   0  0  0  0  0  0  0  0  0  0  0  0
  149.9880  159.8530  131.1620 C   0  0  0  0  0  0  0  0  0  0  0  0
  148.8250  160.6220  131.0760 C   0  0  0  0  0  0  0  0  0  0  0  0
  148.8450  161.8080  130.4180 F   0  0  0  0  0  0  0  0  0  0  0  0
  147.6410  160.1740  131.6710 C   0  0  0  0  0  0  0  0  0  0  0  0
  145.2500  159.3410  133.1420 C   0  0  0  0  0  0  0  0  0  0  0  0
  144.0840  158.8490  133.7370 C   0  0  0  0  0  0  0  0  0  0  0  0
  142.9290  159.5050  133.9920 N   0  0  0  0  0  0  0  0  0  0  0  0
  142.6650  160.8950  133.7430 C   0  0  0  0  0  0  0  0  0  0  0  0
  141.4930  161.2860  133.4990 O   0  0  0  0  0  0  0  0  0  0  0  0
  143.7040  161.8180  133.7420 O   0  0  0  0  0  0  0  0  0  0  0  0
  139.4040  159.0900  136.7120 H   0  0  0  0  0  0  0  0  0  0  0  0
  142.3816  156.4679  135.2374 H   0  0  0  0  0  0  0  0  0  0  0  0
  144.9932  155.6366  134.4381 H   0  0  0  0  0  0  0  0  0  0  0  0
  147.1058  156.4466  133.3423 H   0  0  0  0  0  0  0  0  0  0  0  0
  148.7811  157.2205  132.9770 H   0  0  0  0  0  0  0  0  0  0  0  0
  150.8848  158.0274  131.9109 H   0  0  0  0  0  0  0  0  0  0  0  0
  150.9180  160.2072  130.6934 H   0  0  0  0  0  0  0  0  0  0  0  0
  146.7285  160.7840  131.5994 H   0  0  0  0  0  0  0  0  0  0  0  0
  145.3079  160.3840  132.7972 H   0  0  0  0  0  0  0  0  0  0  0  0
  1  2  1  0
  2  3  2  0
  2  4  1  0
  4  5  2  0
  5  6  1  0
  6  7  2  0
  7  8  1  0
  8  9  2  0
  9 10  1  0
 10 11  2  0
 11 12  1  0
 12 13  2  0
 13 14  1  0
 14 15  1  0
 14 16  2  0
  9 17  1  0
 17 18  2  0
 18 19  1  0
 19 20  1  0
 20 21  2  0
 20 22  1  0
 19  4  1  0
 18  6  1  0
 16 10  1  0
  1 23  1  0
  5 24  1  0
  7 25  1  0
  8 26  1  0
 11 27  1  0
 12 28  1  0
 13 29  1  0
 16 30  1  0
 17 31  1  0
M  CHG  2   1  -1  22  -1
M  END
>  <UniqueID>  (38) 
38

>  <SMILES>  (38) 
[NH-]C(=O)c1cc2ccc(-c3cccc(F)c3)cc2n1C(=O)[O-]

>  <Energy>  (38) 
79.24082350112226

>  <Genealogy>  (38) 
[NH-]C(=O)c1cc2ccc(-c3cccc(F)c3)cc2n1C(=O)[O-] (protonated)
[NH-]C(=O)c1cc2ccc(-c3cccc(F)c3)cc2n1C(=O)[O-] (3D coordinates assigned)
[NH-]C(=O)c1cc2ccc(-c3cccc(F)c3)cc2n1C(=O)[O-] (optimized conformer: 79.24082350112226 kcal/mol)

>  <smiles>  (38) 
NC(=O)c1cc2ccc(-c3cccc(F)c3)cc2n1C(=O)O

>  <score_type>  (38) 
oracle

>  <origin>  (38) 
adg

>  <m_score__min__energy>  (38) 
-7.5300000000000002

>  <m_primary>  (38) 
energy

$$$$
38:0
     RDKit          3D

 33 34  0  0  0  0  0  0  0  0999 V2000
  149.5340  161.6170  130.3560 C   0  0  0  0  0  0  0  0  0  0  0  0
  148.6850  160.3560  130.5090 C   0  0  0  0  0  0  0  0  0  0  0  0
  148.8440  159.7080  131.9010 C   0  0  2  0  0  0  0  0  0  0  0  0
  149.8780  158.5750  131.8580 C   0  0  0  0  0  0  0  0  0  0  0  0
  147.5220  159.2020  132.4490 C   0  0  0  0  0  0  0  0  0  0  0  0
  147.3230  157.8090  132.6370 C   0  0  0  0  0  0  0  0  0  0  0  0
  146.1180  157.3190  133.1640 C   0  0  0  0  0  0  0  0  0  0  0  0
  145.1260  158.2370  133.4890 C   0  0  0  0  0  0  0  0  0  0  0  0
  143.8810  158.0370  134.0380 C   0  0  0  0  0  0  0  0  0  0  0  0
  143.3200  159.3070  134.1580 C   0  0  0  0  0  0  0  0  0  0  0  0
  141.9400  159.5430  134.6280 C   0  0  0  0  0  0  0  0  0  0  0  0
  140.8390  159.5000  133.7240 N   0  0  0  0  0  0  0  0  0  0  0  0
  141.7230  159.7350  135.8540 O   0  0  0  0  0  0  0  0  0  0  0  0
  144.1890  160.2570  133.7090 N   0  0  0  0  0  0  0  0  0  0  0  0
  144.0280  161.6840  133.7520 C   0  0  0  0  0  0  0  0  0  0  0  0
  142.9510  162.2150  133.3750 O   0  0  0  0  0  0  0  0  0  0  0  0
  145.0710  162.4930  134.1870 O   0  0  0  0  0  0  0  0  0  0  0  0
  145.2880  159.5850  133.3000 C   0  0  0  0  0  0  0  0  0  0  0  0
  146.4860  160.1040  132.7940 C   0  0  0  0  0  0  0  0  0  0  0  0
  149.7957  162.0058  131.3512 H   0  0  0  0  0  0  0  0  0  0  0  0
  150.4538  161.3750  129.8033 H   0  0  0  0  0  0  0  0  0  0  0  0
  148.9637  162.3782  129.8033 H   0  0  0  0  0  0  0  0  0  0  0  0
  147.6278  160.6213  130.3610 H   0  0  0  0  0  0  0  0  0  0  0  0
  149.0255  159.6279  129.7580 H   0  0  0  0  0  0  0  0  0  0  0  0
  149.2045  160.4911  132.5842 H   0  0  0  0  0  0  0  0  0  0  0  0
  150.1447  158.2828  132.8844 H   0  0  0  0  0  0  0  0  0  0  0  0
  149.4519  157.7096  131.3294 H   0  0  0  0  0  0  0  0  0  0  0  0
  150.7787  158.9204  131.3294 H   0  0  0  0  0  0  0  0  0  0  0  0
  148.1234  157.1047  132.3662 H   0  0  0  0  0  0  0  0  0  0  0  0
  145.9631  156.2405  133.3154 H   0  0  0  0  0  0  0  0  0  0  0  0
  143.4245  157.0774  134.3223 H   0  0  0  0  0  0  0  0  0  0  0  0
  140.9910  159.3690  132.6990 H   0  0  0  0  0  0  0  0  0  0  0  0
  146.6196  161.1885  132.6672 H   0  0  0  0  0  0  0  0  0  0  0  0
  1  2  1  0
  2  3  1  0
  3  4  1  0
  3  5  1  0
  5  6  2  0
  6  7  1  0
  7  8  2  0
  8  9  1  0
  9 10  2  0
 10 11  1  0
 11 12  1  0
 11 13  2  0
 10 14  1  0
 14 15  1  0
 15 16  2  0
 15 17  1  0
 14 18  1  0
 18 19  2  0
 19  5  1  0
 18  8  1  0
  1 20  1  0
  1 21  1  0
  1 22  1  0
  2 23  1  0
  2 24  1  0
  3 25  1  1
  4 26  1  0
  4 27  1  0
  4 28  1  0
  6 29  1  0
  7 30  1  0
  9 31  1  0
 12 32  1  0
 19 33  1  0
M  CHG  2  12  -1  17  -1
M  END
>  <UniqueID>  (39) 
39

>  <SMILES>  (39) 
CC[C@H](C)c1ccc2cc(C([NH-])=O)n(C(=O)[O-])c2c1

>  <Energy>  (39) 
67.6027716475741

>  <Genealogy>  (39) 
CCC(C)c1ccc2cc(C([NH-])=O)n(C(=O)[O-])c2c1 (protonated)
CC[C@H](C)c1ccc2cc(C([NH-])=O)n(C(=O)[O-])c2c1 (chirality)
CC[C@H](C)c1ccc2cc(C([NH-])=O)n(C(=O)[O-])c2c1 (3D coordinates assigned)
CC[C@H](C)c1ccc2cc(C([NH-])=O)n(C(=O)[O-])c2c1 (optimized conformer: 67.6027716475741 kcal/mol)

>  <smiles>  (39) 
CCC(C)c1ccc2cc(C(N)=O)n(C(=O)O)c2c1

>  <score_type>  (39) 
oracle

>  <origin>  (39) 
adg

>  <m_score__min__energy>  (39) 
-7.0300000000000002

>  <m_primary>  (39) 
energy

$$$$
39:0
     RDKit          3D

 45 48  0  0  0  0  0  0  0  0999 V2000
  138.4740  146.9990  127.8990 C   0  0  0  0  0  0  0  0  0  0  0  0
  139.1140  146.8240  129.2090 N   0  0  0  0  0  0  0  0  0  0  0  0
  139.4820  145.4710  129.6430 C   0  0  0  0  0  0  0  0  0  0  0  0
  139.3770  147.9700  130.0610 C   0  0  0  0  0  0  0  0  0  0  0  0
  138.3320  148.8350  130.4520 C   0  0  0  0  0  0  0  0  0  0  0  0
  138.5820  149.9380  131.2730 C   0  0  0  0  0  0  0  0  0  0  0  0
  139.8810  150.2010  131.7220 C   0  0  0  0  0  0  0  0  0  0  0  0
  140.1590  151.3000  132.5430 C   0  0  0  0  0  0  0  0  0  0  0  0
  141.4710  151.5500  132.9740 C   0  0  0  0  0  0  0  0  0  0  0  0
  141.7540  152.7240  133.8360 C   0  0  0  0  0  0  0  0  0  0  0  0
  142.7820  152.6710  134.8110 C   0  0  0  0  0  0  0  0  0  0  0  0
  143.0520  153.7780  135.6310 C   0  0  0  0  0  0  0  0  0  0  0  0
  142.2890  154.9280  135.4480 C   0  0  0  0  0  0  0  0  0  0  0  0
  142.3260  156.1280  136.1180 C   0  0  0  0  0  0  0  0  0  0  0  0
  141.3390  156.9130  135.5260 C   0  0  0  0  0  0  0  0  0  0  0  0
  141.0900  158.3290  135.8790 C   0  0  0  0  0  0  0  0  0  0  0  0
  139.7860  158.7630  136.2720 N   0  0  0  0  0  0  0  0  0  0  0  0
  142.0360  159.1600  135.8690 O   0  0  0  0  0  0  0  0  0  0  0  0
  140.7150  156.2230  134.5280 N   0  0  0  0  0  0  0  0  0  0  0  0
  139.6100  156.6570  133.7190 C   0  0  0  0  0  0  0  0  0  0  0  0
  138.7580  157.4610  134.1820 O   0  0  0  0  0  0  0  0  0  0  0  0
  139.4610  156.1860  132.4200 O   0  0  0  0  0  0  0  0  0  0  0  0
  141.3090  155.0080  134.4940 C   0  0  0  0  0  0  0  0  0  0  0  0
  141.0050  153.9140  133.6750 C   0  0  0  0  0  0  0  0  0  0  0  0
  142.4920  150.6610  132.5740 C   0  0  0  0  0  0  0  0  0  0  0  0
  143.6790  150.8240  132.9620 O   0  0  0  0  0  0  0  0  0  0  0  0
  142.1990  149.6000  131.7750 N   0  0  0  0  0  0  0  0  0  0  0  0
  140.9350  149.3490  131.3410 C   0  0  0  0  0  0  0  0  0  0  0  0
  140.6830  148.2450  130.5200 C   0  0  0  0  0  0  0  0  0  0  0  0
  137.4218  147.2867  128.0405 H   0  0  0  0  0  0  0  0  0  0  0  0
  138.9973  147.7870  127.3376 H   0  0  0  0  0  0  0  0  0  0  0  0
  138.5235  146.0543  127.3376 H   0  0  0  0  0  0  0  0  0  0  0  0
  139.4934  145.4289  130.7421 H   0  0  0  0  0  0  0  0  0  0  0  0
  138.7475  144.7493  129.2561 H   0  0  0  0  0  0  0  0  0  0  0  0
  140.4808  145.2208  129.2561 H   0  0  0  0  0  0  0  0  0  0  0  0
  137.3067  148.6381  130.1056 H   0  0  0  0  0  0  0  0  0  0  0  0
  137.7553  150.6013  131.5671 H   0  0  0  0  0  0  0  0  0  0  0  0
  139.3445  151.9716  132.8522 H   0  0  0  0  0  0  0  0  0  0  0  0
  143.3749  151.7517  134.9263 H   0  0  0  0  0  0  0  0  0  0  0  0
  143.8425  153.7380  136.3949 H   0  0  0  0  0  0  0  0  0  0  0  0
  142.9935  156.4088  136.9460 H   0  0  0  0  0  0  0  0  0  0  0  0
  138.9670  158.1180  136.2410 H   0  0  0  0  0  0  0  0  0  0  0  0
  139.6300  159.7560  136.5580 H   0  0  0  0  0  0  0  0  0  0  0  0
  140.2034  153.9778  132.9245 H   0  0  0  0  0  0  0  0  0  0  0  0
  141.5122  147.5835  130.2287 H   0  0  0  0  0  0  0  0  0  0  0  0
  1  2  1  0
  2  3  1  0
  2  4  1  0
  4  5  2  0
  5  6  1  0
  6  7  2  0
  7  8  1  0
  8  9  2  0
  9 10  1  0
 10 11  2  0
 11 12  1  0
 12 13  2  0
 13 14  1  0
 14 15  2  0
 15 16  1  0
 16 17  1  0
 16 18  2  0
 15 19  1  0
 19 20  1  0
 20 21  2  0
 20 22  1  0
 19 23  1  0
 23 24  2  0
  9 25  1  0
 25 26  2  0
 25 27  1  0
 27 28  1  0
 28 29  2  0
 29  4  1  0
 28  7  1  0
 24 10  1  0
 23 13  1  0
  1 30  1  0
  1 31  1  0
  1 32  1  0
  3 33  1  0
  3 34  1  0
  3 35  1  0
  5 36  1  0
  6 37  1  0
  8 38  1  0
 11 39  1  0
 12 40  1  0
 14 41  1  0
 17 42  1  0
 17 43  1  0
 24 44  1  0
 29 45  1  0
M  CHG  2  22  -1  27  -1
M  END
>  <UniqueID>  (40) 
40

>  <SMILES>  (40) 
CN(C)c1ccc2cc(-c3ccc4cc(C(N)=O)n(C(=O)[O-])c4c3)c(=O)[n-]c2c1

>  <Energy>  (40) 
100.4048257136651

>  <Genealogy>  (40) 
CN(C)c1ccc2cc(-c3ccc4cc(C(N)=O)n(C(=O)[O-])c4c3)c(=O)[n-]c2c1 (protonated)
CN(C)c1ccc2cc(-c3ccc4cc(C(N)=O)n(C(=O)[O-])c4c3)c(=O)[n-]c2c1 (3D coordinates assigned)
CN(C)c1ccc2cc(-c3ccc4cc(C(N)=O)n(C(=O)[O-])c4c3)c(=O)[n-]c2c1 (optimized conformer: 100.4048257136651 kcal/mol)

>  <smiles>  (40) 
CN(C)c1ccc2cc(-c3ccc4cc(C(N)=O)n(C(=O)O)c4c3)c(=O)[nH]c2c1

>  <score_type>  (40) 
oracle

>  <origin>  (40) 
adg

>  <m_score__min__energy>  (40) 
-8.7100000000000009

>  <m_primary>  (40) 
energy

$$$$
40:0
     RDKit          3D

 35 36  0  0  0  0  0  0  0  0999 V2000
  149.6470  151.1790  133.3170 C   0  0  0  0  0  0  0  0  0  0  0  0
  149.5970  152.2700  132.2520 C   0  0  0  0  0  0  0  0  0  0  0  0
  148.6060  153.2430  132.5780 O   0  0  0  0  0  0  0  0  0  0  0  0
  148.8540  154.6200  132.5980 C   0  0  0  0  0  0  0  0  0  0  0  0
  149.9920  155.0670  132.2830 O   0  0  0  0  0  0  0  0  0  0  0  0
  147.8070  155.5300  132.9720 N   0  0  0  0  0  0  0  0  0  0  0  0
  146.6620  155.2400  133.6510 C   0  0  0  0  0  0  0  0  0  0  0  0
  146.1840  153.8890  134.0050 C   0  0  0  0  0  0  0  0  0  0  0  0
  146.2420  152.8140  133.0660 N   0  0  0  0  0  0  0  0  0  0  0  0
  145.6660  153.6920  135.1360 O   0  0  0  0  0  0  0  0  0  0  0  0
  145.9510  156.4020  133.9360 C   0  0  0  0  0  0  0  0  0  0  0  0
  146.6950  157.4250  133.3920 C   0  0  0  0  0  0  0  0  0  0  0  0
  146.4660  158.7980  133.3970 C   0  0  0  0  0  0  0  0  0  0  0  0
  147.4250  159.6280  132.7950 C   0  0  0  0  0  0  0  0  0  0  0  0
  148.5890  159.0760  132.2050 C   0  0  0  0  0  0  0  0  0  0  0  0
  149.6340  159.9780  131.6050 C   0  0  0  0  0  0  0  0  0  0  0  0
  149.0980  160.6910  130.3650 C   0  0  0  0  0  0  0  0  0  0  0  0
  149.4640  162.0240  130.4040 F   0  0  0  0  0  0  0  0  0  0  0  0
  149.6170  160.1150  129.2190 F   0  0  0  0  0  0  0  0  0  0  0  0
  148.7940  157.6780  132.2290 C   0  0  0  0  0  0  0  0  0  0  0  0
  147.8120  156.8720  132.8170 C   0  0  0  0  0  0  0  0  0  0  0  0
  149.6259  151.6401  134.3155 H   0  0  0  0  0  0  0  0  0  0  0  0
  148.7784  150.5140  133.2017 H   0  0  0  0  0  0  0  0  0  0  0  0
  150.5728  150.5962  133.2017 H   0  0  0  0  0  0  0  0  0  0  0  0
  150.5795  152.7609  132.1905 H   0  0  0  0  0  0  0  0  0  0  0  0
  149.3403  151.8116  131.2856 H   0  0  0  0  0  0  0  0  0  0  0  0
  146.5020  152.9810  132.0690 H   0  0  0  0  0  0  0  0  0  0  0  0
  145.9380  151.8560  133.3470 H   0  0  0  0  0  0  0  0  0  0  0  0
  144.9984  156.4853  134.4796 H   0  0  0  0  0  0  0  0  0  0  0  0
  145.5611  159.2199  133.8586 H   0  0  0  0  0  0  0  0  0  0  0  0
  147.2713  160.7171  132.7812 H   0  0  0  0  0  0  0  0  0  0  0  0
  149.9314  160.7295  132.3512 H   0  0  0  0  0  0  0  0  0  0  0  0
  150.4976  159.3642  131.3094 H   0  0  0  0  0  0  0  0  0  0  0  0
  148.0017  160.6015  130.3520 H   0  0  0  0  0  0  0  0  0  0  0  0
  149.7027  157.2341  131.7964 H   0  0  0  0  0  0  0  0  0  0  0  0
  1  2  1  0
  2  3  1  0
  3  4  1  0
  4  5  2  0
  4  6  1  0
  6  7  1  0
  7  8  1  0
  8  9  1  0
  8 10  2  0
  7 11  2  0
 11 12  1  0
 12 13  2  0
 13 14  1  0
 14 15  2  0
 15 16  1  0
 16 17  1  0
 17 18  1  0
 17 19  1  0
 15 20  1  0
 20 21  2  0
 21  6  1  0
 21 12  1  0
  1 22  1  0
  1 23  1  0
  1 24  1  0
  2 25  1  0
  2 26  1  0
  9 27  1  0
  9 28  1  0
 11 29  1  0
 13 30  1  0
 14 31  1  0
 16 32  1  0
 16 33  1  0
 17 34  1  0
 20 35  1  0
M  END
>  <UniqueID>  (41) 
41

>  <SMILES>  (41) 
CCOC(=O)n1c(C(N)=O)cc2ccc(CC(F)F)cc21

>  <Energy>  (41) 
67.30561610619306

>  <Genealogy>  (41) 
CCOC(=O)n1c(C(N)=O)cc2ccc(CC(F)F)cc21 (3D coordinates assigned)
CCOC(=O)n1c(C(N)=O)cc2ccc(CC(F)F)cc21 (optimized conformer: 67.30561610619306 kcal/mol)

>  <smiles>  (41) 
CCOC(=O)n1c(C(N)=O)cc2ccc(CC(F)F)cc21

>  <score_type>  (41) 
oracle

>  <origin>  (41) 
adg

>  <m_score__min__energy>  (41) 
-6.4199999999999999

>  <m_primary>  (41) 
energy

$$$$
41:0
     RDKit          3D

 34 36  0  0  0  0  0  0  0  0999 V2000
  141.2350  158.5820  136.2920 C   0  0  0  0  0  0  0  0  0  0  0  0
  140.5270  158.4270  134.9720 C   0  0  0  0  0  0  0  0  0  0  0  0
  139.2150  157.9220  134.9600 C   0  0  0  0  0  0  0  0  0  0  0  0
  138.5170  157.7850  133.7580 C   0  0  0  0  0  0  0  0  0  0  0  0
  139.1210  158.1450  132.5540 C   0  0  0  0  0  0  0  0  0  0  0  0
  140.4290  158.6300  132.5440 C   0  0  0  0  0  0  0  0  0  0  0  0
  141.1520  158.7600  133.7430 C   0  0  0  0  0  0  0  0  0  0  0  0
  142.5470  159.2530  133.6780 C   0  0  0  0  0  0  0  0  0  0  0  0
  142.8210  160.6400  133.7880 C   0  0  0  0  0  0  0  0  0  0  0  0
  144.1420  161.1140  133.7260 C   0  0  0  0  0  0  0  0  0  0  0  0
  145.1630  160.1820  133.5690 C   0  0  0  0  0  0  0  0  0  0  0  0
  146.5210  160.3690  133.4560 C   0  0  0  0  0  0  0  0  0  0  0  0
  147.0600  159.0920  133.3140 C   0  0  0  0  0  0  0  0  0  0  0  0
  148.5110  158.8280  133.2490 C   0  0  0  0  0  0  0  0  0  0  0  0
  149.1130  158.3290  132.0570 N   0  0  0  0  0  0  0  0  0  0  0  0
  149.2230  158.9950  134.2760 O   0  0  0  0  0  0  0  0  0  0  0  0
  146.0730  158.1520  133.3300 N   0  0  0  0  0  0  0  0  0  0  0  0
  146.2050  156.7370  133.1170 C   0  0  0  0  0  0  0  0  0  0  0  0
  145.5430  155.9240  133.8140 O   0  0  0  0  0  0  0  0  0  0  0  0
  147.0450  156.2530  132.1220 O   0  0  0  0  0  0  0  0  0  0  0  0
  144.9170  158.8350  133.4900 C   0  0  0  0  0  0  0  0  0  0  0  0
  143.6100  158.3360  133.5310 C   0  0  0  0  0  0  0  0  0  0  0  0
  140.5193  158.4253  137.1126 H   0  0  0  0  0  0  0  0  0  0  0  0
  142.0435  157.8396  136.3638 H   0  0  0  0  0  0  0  0  0  0  0  0
  141.6593  159.5943  136.3638 H   0  0  0  0  0  0  0  0  0  0  0  0
  138.7339  157.6322  135.9058 H   0  0  0  0  0  0  0  0  0  0  0  0
  137.4894  157.3926  133.7612 H   0  0  0  0  0  0  0  0  0  0  0  0
  138.5650  158.0464  131.6100 H   0  0  0  0  0  0  0  0  0  0  0  0
  140.8986  158.9130  131.5904 H   0  0  0  0  0  0  0  0  0  0  0  0
  141.9923  161.3507  133.9230 H   0  0  0  0  0  0  0  0  0  0  0  0
  144.3624  162.1892  133.7993 H   0  0  0  0  0  0  0  0  0  0  0  0
  147.0660  161.3243  133.4739 H   0  0  0  0  0  0  0  0  0  0  0  0
  148.7080  157.5110  131.5510 H   0  0  0  0  0  0  0  0  0  0  0  0
  143.4160  157.2562  133.4507 H   0  0  0  0  0  0  0  0  0  0  0  0
  1  2  1  0
  2  3  2  0
  3  4  1  0
  4  5  2  0
  5  6  1  0
  6  7  2  0
  7  8  1  0
  8  9  2  0
  9 10  1  0
 10 11  2  0
 11 12  1  0
 12 13  2  0
 13 14  1  0
 14 15  1  0
 14 16  2  0
 13 17  1  0
 17 18  1  0
 18 19  2  0
 18 20  1  0
 17 21  1  0
 21 22  2  0
  7  2  1  0
 22  8  1  0
 21 11  1  0
  1 23  1  0
  1 24  1  0
  1 25  1  0
  3 26  1  0
  4 27  1  0
  5 28  1  0
  6 29  1  0
  9 30  1  0
 10 31  1  0
 12 32  1  0
 15 33  1  0
 22 34  1  0
M  CHG  2  15  -1  20  -1
M  END
>  <UniqueID>  (42) 
42

>  <SMILES>  (42) 
Cc1ccccc1-c1ccc2cc(C([NH-])=O)n(C(=O)[O-])c2c1

>  <Energy>  (42) 
83.87804677067149

>  <Genealogy>  (42) 
Cc1ccccc1-c1ccc2cc(C([NH-])=O)n(C(=O)[O-])c2c1 (protonated)
Cc1ccccc1-c1ccc2cc(C([NH-])=O)n(C(=O)[O-])c2c1 (3D coordinates assigned)
Cc1ccccc1-c1ccc2cc(C([NH-])=O)n(C(=O)[O-])c2c1 (optimized conformer: 83.87804677067149 kcal/mol)

>  <smiles>  (42) 
Cc1ccccc1-c1ccc2cc(C(N)=O)n(C(=O)O)c2c1

>  <score_type>  (42) 
oracle

>  <origin>  (42) 
adg

>  <m_score__min__energy>  (42) 
-7.6699999999999999

>  <m_primary>  (42) 
energy

$$$$
42:0
     RDKit          3D

 35 37  0  0  0  0  0  0  0  0999 V2000
  148.6580  157.3560  131.8720 N   0  0  0  0  0  0  0  0  0  0  0  0
  148.3660  158.4180  132.7810 C   0  0  0  0  0  0  0  0  0  0  0  0
  149.3170  159.0550  133.3070 O   0  0  0  0  0  0  0  0  0  0  0  0
  146.9660  158.7990  133.0740 C   0  0  0  0  0  0  0  0  0  0  0  0
  146.5140  160.1170  133.1180 C   0  0  0  0  0  0  0  0  0  0  0  0
  145.2000  160.0380  133.5160 C   0  0  0  0  0  0  0  0  0  0  0  0
  144.2650  161.0490  133.7190 C   0  0  0  0  0  0  0  0  0  0  0  0
  142.9680  160.6780  134.1060 C   0  0  0  0  0  0  0  0  0  0  0  0
  142.6230  159.3130  134.2750 C   0  0  0  0  0  0  0  0  0  0  0  0
  141.2870  158.9500  134.6710 N   0  0  0  0  0  0  0  0  0  0  0  0
  140.8150  159.2360  136.0330 C   0  0  0  0  0  0  0  0  0  0  0  0
  139.8440  158.1430  136.5360 C   0  0  0  0  0  0  0  0  0  0  0  0
  139.4890  157.1940  135.5430 O   0  0  0  0  0  0  0  0  0  0  0  0
  139.1050  157.8560  134.3570 C   0  0  0  0  0  0  0  0  0  0  0  0
  140.3470  158.4280  133.6730 C   0  0  0  0  0  0  0  0  0  0  0  0
  143.6040  158.3150  134.0660 C   0  0  0  0  0  0  0  0  0  0  0  0
  144.8940  158.7140  133.6970 C   0  0  0  0  0  0  0  0  0  0  0  0
  145.9700  157.9390  133.4290 N   0  0  0  0  0  0  0  0  0  0  0  0
  146.0180  156.5030  133.4420 C   0  0  0  0  0  0  0  0  0  0  0  0
  145.6950  155.8630  134.4770 O   0  0  0  0  0  0  0  0  0  0  0  0
  146.4070  155.8020  132.3050 O   0  0  0  0  0  0  0  0  0  0  0  0
  147.8990  156.7720  131.4570 H   0  0  0  0  0  0  0  0  0  0  0  0
  149.6490  157.1210  131.6410 H   0  0  0  0  0  0  0  0  0  0  0  0
  147.0866  161.0267  132.8841 H   0  0  0  0  0  0  0  0  0  0  0  0
  144.5345  162.1064  133.5803 H   0  0  0  0  0  0  0  0  0  0  0  0
  142.2098  161.4556  134.2804 H   0  0  0  0  0  0  0  0  0  0  0  0
  141.6813  159.2835  136.7092 H   0  0  0  0  0  0  0  0  0  0  0  0
  140.2776  160.1956  136.0182 H   0  0  0  0  0  0  0  0  0  0  0  0
  140.3235  157.6098  137.3702 H   0  0  0  0  0  0  0  0  0  0  0  0
  138.9173  158.6518  136.8400 H   0  0  0  0  0  0  0  0  0  0  0  0
  138.6094  157.1428  133.6820 H   0  0  0  0  0  0  0  0  0  0  0  0
  138.4088  158.6724  134.5995 H   0  0  0  0  0  0  0  0  0  0  0  0
  140.8391  157.6337  133.0925 H   0  0  0  0  0  0  0  0  0  0  0  0
  140.0412  159.2489  133.0078 H   0  0  0  0  0  0  0  0  0  0  0  0
  143.3586  157.2500  134.1906 H   0  0  0  0  0  0  0  0  0  0  0  0
  1  2  1  0
  2  3  2  0
  2  4  1  0
  4  5  2  0
  5  6  1  0
  6  7  2  0
  7  8  1  0
  8  9  2  0
  9 10  1  0
 10 11  1  0
 11 12  1  0
 12 13  1  0
 13 14  1  0
 14 15  1  0
  9 16  1  0
 16 17  2  0
 17 18  1  0
 18 19  1  0
 19 20  2  0
 19 21  1  0
 18  4  1  0
 17  6  1  0
 15 10  1  0
  1 22  1  0
  1 23  1  0
  5 24  1  0
  7 25  1  0
  8 26  1  0
 11 27  1  0
 11 28  1  0
 12 29  1  0
 12 30  1  0
 14 31  1  0
 14 32  1  0
 15 33  1  0
 15 34  1  0
 16 35  1  0
M  CHG  1  21  -1
M  END
>  <UniqueID>  (43) 
43

>  <SMILES>  (43) 
NC(=O)c1cc2ccc(N3CCOCC3)cc2n1C(=O)[O-]

>  <Energy>  (43) 
86.41769466709796

>  <Genealogy>  (43) 
NC(=O)c1cc2ccc(N3CCOCC3)cc2n1C(=O)[O-] (protonated)
NC(=O)c1cc2ccc(N3CCOCC3)cc2n1C(=O)[O-] (3D coordinates assigned)
NC(=O)c1cc2ccc(N3CCOCC3)cc2n1C(=O)[O-] (nonaromatic ring conformer: 86.41769466709796 kcal/mol)

>  <smiles>  (43) 
NC(=O)c1cc2ccc(N3CCOCC3)cc2n1C(=O)O

>  <score_type>  (43) 
oracle

>  <origin>  (43) 
adg

>  <m_score__min__energy>  (43) 
-6.5700000000000003

>  <m_primary>  (43) 
energy

$$$$
43:0
     RDKit          3D

 34 36  0  0  0  0  0  0  0  0999 V2000
  138.4730  157.2060  133.4170 N   0  0  0  0  0  0  0  0  0  0  0  0
  139.2150  157.9580  134.3780 C   0  0  0  0  0  0  0  0  0  0  0  0
  138.7050  158.1940  135.5050 O   0  0  0  0  0  0  0  0  0  0  0  0
  140.5940  158.4060  134.0990 C   0  0  0  0  0  0  0  0  0  0  0  0
  140.9790  159.7430  134.0960 C   0  0  0  0  0  0  0  0  0  0  0  0
  142.3340  159.7300  133.8630 C   0  0  0  0  0  0  0  0  0  0  0  0
  143.2290  160.7880  133.7480 C   0  0  0  0  0  0  0  0  0  0  0  0
  144.5730  160.4890  133.4680 C   0  0  0  0  0  0  0  0  0  0  0  0
  144.9970  159.1440  133.2990 C   0  0  0  0  0  0  0  0  0  0  0  0
  146.4170  158.8420  132.9890 C   0  0  0  0  0  0  0  0  0  0  0  0
  147.0140  157.6610  133.4630 C   0  0  0  0  0  0  0  0  0  0  0  0
  148.3490  157.3760  133.1690 C   0  0  0  0  0  0  0  0  0  0  0  0
  149.1050  158.2640  132.4010 C   0  0  0  0  0  0  0  0  0  0  0  0
  148.5310  159.4510  131.9170 C   0  0  0  0  0  0  0  0  0  0  0  0
  149.3380  160.3900  131.1060 C   0  0  0  0  0  0  0  0  0  0  0  0
  149.0350  161.6120  131.0520 O   0  0  0  0  0  0  0  0  0  0  0  0
  150.4410  159.9370  130.3910 O   0  0  0  0  0  0  0  0  0  0  0  0
  147.1860  159.7320  132.2160 C   0  0  0  0  0  0  0  0  0  0  0  0
  144.0530  158.0960  133.4220 C   0  0  0  0  0  0  0  0  0  0  0  0
  142.7250  158.4230  133.7230 C   0  0  0  0  0  0  0  0  0  0  0  0
  141.6630  157.5950  133.8620 N   0  0  0  0  0  0  0  0  0  0  0  0
  141.6490  156.1700  133.6680 C   0  0  0  0  0  0  0  0  0  0  0  0
  142.5900  155.4550  134.1020 O   0  0  0  0  0  0  0  0  0  0  0  0
  140.5970  155.5660  132.9890 O   0  0  0  0  0  0  0  0  0  0  0  0
  137.4860  156.9280  133.6180 H   0  0  0  0  0  0  0  0  0  0  0  0
  138.9240  156.8530  132.5450 H   0  0  0  0  0  0  0  0  0  0  0  0
  140.3364  160.6228  134.2477 H   0  0  0  0  0  0  0  0  0  0  0  0
  142.8946  161.8285  133.8726 H   0  0  0  0  0  0  0  0  0  0  0  0
  145.3048  161.3054  133.3787 H   0  0  0  0  0  0  0  0  0  0  0  0
  146.4257  156.9567  134.0695 H   0  0  0  0  0  0  0  0  0  0  0  0
  148.8068  156.4486  133.5438 H   0  0  0  0  0  0  0  0  0  0  0  0
  150.1561  158.0326  132.1738 H   0  0  0  0  0  0  0  0  0  0  0  0
  146.7289  160.6595  131.8409 H   0  0  0  0  0  0  0  0  0  0  0  0
  144.3561  157.0476  133.2841 H   0  0  0  0  0  0  0  0  0  0  0  0
  1  2  1  0
  2  3  2  0
  2  4  1  0
  4  5  2  0
  5  6  1  0
  6  7  2  0
  7  8  1  0
  8  9  2  0
  9 10  1  0
 10 11  2  0
 11 12  1  0
 12 13  2  0
 13 14  1  0
 14 15  1  0
 15 16  2  0
 15 17  1  0
 14 18  2  0
  9 19  1  0
 19 20  2  0
 20 21  1  0
 21 22  1  0
 22 23  2  0
 22 24  1  0
 21  4  1  0
 20  6  1  0
 18 10  1  0
  1 25  1  0
  1 26  1  0
  5 27  1  0
  7 28  1  0
  8 29  1  0
 11 30  1  0
 12 31  1  0
 13 32  1  0
 18 33  1  0
 19 34  1  0
M  CHG  2  17  -1  24  -1
M  END
>  <UniqueID>  (44) 
44

>  <SMILES>  (44) 
NC(=O)c1cc2ccc(-c3cccc(C(=O)[O-])c3)cc2n1C(=O)[O-]

>  <Energy>  (44) 
82.98042431748688

>  <Genealogy>  (44) 
NC(=O)c1cc2ccc(-c3cccc(C(=O)[O-])c3)cc2n1C(=O)[O-] (protonated)
NC(=O)c1cc2ccc(-c3cccc(C(=O)[O-])c3)cc2n1C(=O)[O-] (3D coordinates assigned)
NC(=O)c1cc2ccc(-c3cccc(C(=O)[O-])c3)cc2n1C(=O)[O-] (optimized conformer: 82.98042431748688 kcal/mol)

>  <smiles>  (44) 
NC(=O)c1cc2ccc(-c3cccc(C(=O)O)c3)cc2n1C(=O)O

>  <score_type>  (44) 
oracle

>  <origin>  (44) 
adg

>  <m_score__min__energy>  (44) 
-8.2699999999999996

>  <m_primary>  (44) 
energy

$$$$
44:0
     RDKit          3D

 39 41  0  0  0  0  0  0  0  0999 V2000
  148.6930  160.5070  131.1350 C   0  0  0  0  0  0  0  0  0  0  0  0
  148.1670  160.7660  132.4310 O   0  0  0  0  0  0  0  0  0  0  0  0
  147.9330  159.7520  133.3660 C   0  0  0  0  0  0  0  0  0  0  0  0
  148.8420  159.4090  134.1700 O   0  0  0  0  0  0  0  0  0  0  0  0
  146.6510  159.1030  133.4080 N   0  0  0  0  0  0  0  0  0  0  0  0
  145.4450  159.6790  133.6780 C   0  0  0  0  0  0  0  0  0  0  0  0
  145.1900  161.1270  133.8140 C   0  0  0  0  0  0  0  0  0  0  0  0
  146.2450  162.0410  134.1140 N   0  0  0  0  0  0  0  0  0  0  0  0
  144.0290  161.5720  133.6050 O   0  0  0  0  0  0  0  0  0  0  0  0
  144.4470  158.7140  133.7650 C   0  0  0  0  0  0  0  0  0  0  0  0
  145.0780  157.5160  133.5240 C   0  0  0  0  0  0  0  0  0  0  0  0
  144.5630  156.2240  133.5000 C   0  0  0  0  0  0  0  0  0  0  0  0
  145.4510  155.1640  133.2610 C   0  0  0  0  0  0  0  0  0  0  0  0
  146.8350  155.4070  133.0620 C   0  0  0  0  0  0  0  0  0  0  0  0
  147.7680  154.2750  132.8240 C   0  0  0  0  0  0  0  0  0  0  0  0
  147.3050  152.9490  132.8170 C   0  0  0  0  0  0  0  0  0  0  0  0
  148.1920  151.8960  132.5920 C   0  0  0  0  0  0  0  0  0  0  0  0
  149.5440  152.1680  132.3750 C   0  0  0  0  0  0  0  0  0  0  0  0
  150.4320  151.1130  132.1490 O   0  0  0  0  0  0  0  0  0  0  0  0
  150.4410  150.3590  130.9420 C   0  0  0  0  0  0  0  0  0  0  0  0
  149.9810  153.4590  132.3860 N   0  0  0  0  0  0  0  0  0  0  0  0
  149.1380  154.5030  132.6010 C   0  0  0  0  0  0  0  0  0  0  0  0
  147.3200  156.7360  133.0960 C   0  0  0  0  0  0  0  0  0  0  0  0
  146.4080  157.7750  133.3140 C   0  0  0  0  0  0  0  0  0  0  0  0
  149.6763  160.0228  131.2284 H   0  0  0  0  0  0  0  0  0  0  0  0
  148.0080  159.8432  130.5872 H   0  0  0  0  0  0  0  0  0  0  0  0
  148.8015  161.4547  130.5872 H   0  0  0  0  0  0  0  0  0  0  0  0
  146.0390  163.0550  134.2450 H   0  0  0  0  0  0  0  0  0  0  0  0
  147.2420  161.7270  134.1280 H   0  0  0  0  0  0  0  0  0  0  0  0
  143.3804  158.8748  133.9806 H   0  0  0  0  0  0  0  0  0  0  0  0
  143.4911  156.0387  133.6636 H   0  0  0  0  0  0  0  0  0  0  0  0
  145.0699  154.1327  133.2275 H   0  0  0  0  0  0  0  0  0  0  0  0
  146.2389  152.7400  132.9896 H   0  0  0  0  0  0  0  0  0  0  0  0
  147.8284  150.8579  132.5856 H   0  0  0  0  0  0  0  0  0  0  0  0
  150.4538  149.2852  131.1805 H   0  0  0  0  0  0  0  0  0  0  0  0
  149.5400  150.5938  130.3563 H   0  0  0  0  0  0  0  0  0  0  0  0
  151.3361  150.6152  130.3563 H   0  0  0  0  0  0  0  0  0  0  0  0
  149.5288  155.5312  132.6006 H   0  0  0  0  0  0  0  0  0  0  0  0
  148.3901  156.9477  132.9542 H   0  0  0  0  0  0  0  0  0  0  0  0
  1  2  1  0
  2  3  1  0
  3  4  2  0
  3  5  1  0
  5  6  1  0
  6  7  1  0
  7  8  1  0
  7  9  2  0
  6 10  2  0
 10 11  1  0
 11 12  2  0
 12 13  1  0
 13 14  2  0
 14 15  1  0
 15 16  2  0
 16 17  1  0
 17 18  2  0
 18 19  1  0
 19 20  1  0
 18 21  1  0
 21 22  2  0
 14 23  1  0
 23 24  2  0
 24  5  1  0
 24 11  1  0
 22 15  1  0
  1 25  1  0
  1 26  1  0
  1 27  1  0
  8 28  1  0
  8 29  1  0
 10 30  1  0
 12 31  1  0
 13 32  1  0
 16 33  1  0
 17 34  1  0
 20 35  1  0
 20 36  1  0
 20 37  1  0
 22 38  1  0
 23 39  1  0
M  END
>  <UniqueID>  (45) 
45

>  <SMILES>  (45) 
COC(=O)n1c(C(N)=O)cc2ccc(-c3ccc(OC)nc3)cc21

>  <Energy>  (45) 
82.58764549971151

>  <Genealogy>  (45) 
COC(=O)n1c(C(N)=O)cc2ccc(-c3ccc(OC)nc3)cc21 (3D coordinates assigned)
COC(=O)n1c(C(N)=O)cc2ccc(-c3ccc(OC)nc3)cc21 (optimized conformer: 82.58764549971151 kcal/mol)

>  <smiles>  (45) 
COC(=O)n1c(C(N)=O)cc2ccc(-c3ccc(OC)nc3)cc21

>  <score_type>  (45) 
oracle

>  <origin>  (45) 
adg

>  <m_score__min__energy>  (45) 
-6.8499999999999996

>  <m_primary>  (45) 
energy

$$$$
45:0
     RDKit          3D

 53 56  0  0  0  0  0  0  0  0999 V2000
  149.1240  157.3960  131.8810 N   0  0  0  0  0  0  0  0  0  0  0  0
  148.8110  158.5810  132.6130 C   0  0  0  0  0  0  0  0  0  0  0  0
  149.7370  159.3740  132.9300 O   0  0  0  0  0  0  0  0  0  0  0  0
  147.4140  158.9250  132.9500 C   0  0  0  0  0  0  0  0  0  0  0  0
  146.9790  160.2260  133.1890 C   0  0  0  0  0  0  0  0  0  0  0  0
  145.6280  160.1190  133.4280 C   0  0  0  0  0  0  0  0  0  0  0  0
  144.6950  161.1010  133.7510 C   0  0  0  0  0  0  0  0  0  0  0  0
  143.3730  160.6960  134.0030 C   0  0  0  0  0  0  0  0  0  0  0  0
  143.0110  159.3260  133.9380 C   0  0  0  0  0  0  0  0  0  0  0  0
  141.6240  158.9020  134.2430 C   0  0  0  0  0  0  0  0  0  0  0  0
  140.6900  158.7780  133.1990 C   0  0  0  0  0  0  0  0  0  0  0  0
  139.3710  158.3770  133.4620 C   0  0  0  0  0  0  0  0  0  0  0  0
  138.3710  158.2800  132.3400 C   0  0  0  0  0  0  0  0  0  0  0  0
  138.4220  159.5340  131.4640 C   0  0  0  0  0  0  0  0  0  0  0  0
  137.2330  159.6610  130.7310 O   0  0  0  0  0  0  0  0  0  0  0  0
  138.9800  158.1180  134.7830 C   0  0  0  0  0  0  0  0  0  0  0  0
  139.8990  158.2410  135.8280 C   0  0  0  0  0  0  0  0  0  0  0  0
  139.5040  157.9910  137.1020 F   0  0  0  0  0  0  0  0  0  0  0  0
  141.2160  158.6340  135.5650 C   0  0  0  0  0  0  0  0  0  0  0  0
  142.1040  158.7800  136.6270 O   0  0  0  0  0  0  0  0  0  0  0  0
  143.9880  158.3580  133.6110 C   0  0  0  0  0  0  0  0  0  0  0  0
  145.2910  158.7920  133.3400 C   0  0  0  0  0  0  0  0  0  0  0  0
  146.3790  158.0460  133.0440 N   0  0  0  0  0  0  0  0  0  0  0  0
  146.4450  156.6130  132.9950 C   0  0  0  0  0  0  0  0  0  0  0  0
  147.5130  156.0200  133.3080 O   0  0  0  0  0  0  0  0  0  0  0  0
  145.3210  155.8840  132.5890 O   0  0  0  0  0  0  0  0  0  0  0  0
  144.4970  155.1210  133.4730 C   0  0  0  0  0  0  0  0  0  0  0  0
  143.0240  155.1010  133.0210 C   0  0  0  0  0  0  0  0  0  0  0  0
  142.0100  155.5400  134.0770 C   0  0  0  0  0  0  0  0  0  0  0  0
  141.3990  154.1450  134.0670 C   0  0  0  0  0  0  0  0  0  0  0  0
  142.3900  153.7110  132.9930 C   0  0  0  0  0  0  0  0  0  0  0  0
  150.1200  157.1360  131.7060 H   0  0  0  0  0  0  0  0  0  0  0  0
  148.3730  156.8080  131.4590 H   0  0  0  0  0  0  0  0  0  0  0  0
  147.5858  161.1435  133.1872 H   0  0  0  0  0  0  0  0  0  0  0  0
  144.9838  162.1609  133.8072 H   0  0  0  0  0  0  0  0  0  0  0  0
  142.6112  161.4491  134.2532 H   0  0  0  0  0  0  0  0  0  0  0  0
  140.9964  158.9976  132.1656 H   0  0  0  0  0  0  0  0  0  0  0  0
  138.6031  157.3988  131.7239 H   0  0  0  0  0  0  0  0  0  0  0  0
  137.3627  158.1883  132.7701 H   0  0  0  0  0  0  0  0  0  0  0  0
  138.5507  160.4194  132.1040 H   0  0  0  0  0  0  0  0  0  0  0  0
  139.2674  159.4498  130.7653 H   0  0  0  0  0  0  0  0  0  0  0  0
  137.1820  158.8700  130.1330 H   0  0  0  0  0  0  0  0  0  0  0  0
  137.9442  157.8164  134.9979 H   0  0  0  0  0  0  0  0  0  0  0  0
  143.7305  157.2893  133.5705 H   0  0  0  0  0  0  0  0  0  0  0  0
  144.8724  154.0875  133.5041 H   0  0  0  0  0  0  0  0  0  0  0  0
  144.5398  155.5917  134.4663 H   0  0  0  0  0  0  0  0  0  0  0  0
  143.1412  155.6846  132.0960 H   0  0  0  0  0  0  0  0  0  0  0  0
  142.4590  155.8271  135.0393 H   0  0  0  0  0  0  0  0  0  0  0  0
  141.3796  156.4259  133.9103 H   0  0  0  0  0  0  0  0  0  0  0  0
  141.5037  153.6032  135.0186 H   0  0  0  0  0  0  0  0  0  0  0  0
  140.3182  154.0143  133.9095 H   0  0  0  0  0  0  0  0  0  0  0  0
  143.0664  152.9020  133.3060 H   0  0  0  0  0  0  0  0  0  0  0  0
  142.0330  153.2797  132.0461 H   0  0  0  0  0  0  0  0  0  0  0  0
  1  2  1  0
  2  3  2  0
  2  4  1  0
  4  5  2  0
  5  6  1  0
  6  7  2  0
  7  8  1  0
  8  9  2  0
  9 10  1  0
 10 11  2  0
 11 12  1  0
 12 13  1  0
 13 14  1  0
 14 15  1  0
 12 16  2  0
 16 17  1  0
 17 18  1  0
 17 19  2  0
 19 20  1  0
  9 21  1  0
 21 22  2  0
 22 23  1  0
 23 24  1  0
 24 25  2  0
 24 26  1  0
 26 27  1  0
 27 28  1  0
 28 29  1  0
 29 30  1  0
 30 31  1  0
 23  4  1  0
 31 28  1  0
 22  6  1  0
 19 10  1  0
  1 32  1  0
  1 33  1  0
  5 34  1  0
  7 35  1  0
  8 36  1  0
 11 37  1  0
 13 38  1  0
 13 39  1  0
 14 40  1  0
 14 41  1  0
 15 42  1  0
 16 43  1  0
 21 44  1  0
 27 45  1  0
 27 46  1  0
 28 47  1  0
 29 48  1  0
 29 49  1  0
 30 50  1  0
 30 51  1  0
 31 52  1  0
 31 53  1  0
M  CHG  1  20  -1
M  END
>  <UniqueID>  (46) 
46

>  <SMILES>  (46) 
NC(=O)c1cc2ccc(-c3cc(CCO)cc(F)c3[O-])cc2n1C(=O)OCC1CCC1

>  <Energy>  (46) 
157.51288468472012

>  <Genealogy>  (46) 
NC(=O)c1cc2ccc(-c3cc(CCO)cc(F)c3[O-])cc2n1C(=O)OCC1CCC1 (protonated)
NC(=O)c1cc2ccc(-c3cc(CCO)cc(F)c3[O-])cc2n1C(=O)OCC1CCC1 (3D coordinates assigned)
NC(=O)c1cc2ccc(-c3cc(CCO)cc(F)c3[O-])cc2n1C(=O)OCC1CCC1 (nonaromatic ring conformer: 157.51288468472012 kcal/mol)

>  <smiles>  (46) 
NC(=O)c1cc2ccc(-c3cc(CCO)cc(F)c3O)cc2n1C(=O)OCC1CCC1

>  <score_type>  (46) 
oracle

>  <origin>  (46) 
adg

>  <m_score__min__energy>  (46) 
-9.9199999999999999

>  <m_primary>  (46) 
energy

$$$$
46:0
     RDKit          3D

 35 36  0  0  0  0  0  0  0  0999 V2000
  139.1020  149.4340  131.2920 C   0  0  0  0  0  0  0  0  0  0  0  0
  140.5710  149.2860  131.6730 C   0  0  0  0  0  0  0  0  0  0  0  0
  140.7330  149.3860  133.0860 O   0  0  0  0  0  0  0  0  0  0  0  0
  141.1770  150.5460  133.7300 C   0  0  0  0  0  0  0  0  0  0  0  0
  140.9820  150.7150  134.9650 O   0  0  0  0  0  0  0  0  0  0  0  0
  141.8440  151.6180  132.9310 C   0  0  0  0  0  0  0  0  0  0  0  0
  141.9200  152.8820  133.7410 C   0  0  0  0  0  0  0  0  0  0  0  0
  142.9190  153.0310  134.7340 C   0  0  0  0  0  0  0  0  0  0  0  0
  143.0210  154.2220  135.4740 C   0  0  0  0  0  0  0  0  0  0  0  0
  142.1240  155.2460  135.1880 C   0  0  0  0  0  0  0  0  0  0  0  0
  141.9880  156.4920  135.7560 C   0  0  0  0  0  0  0  0  0  0  0  0
  140.9310  157.0960  135.0780 C   0  0  0  0  0  0  0  0  0  0  0  0
  140.5070  158.4930  135.3090 C   0  0  0  0  0  0  0  0  0  0  0  0
  140.3570  159.0030  136.6310 N   0  0  0  0  0  0  0  0  0  0  0  0
  140.2310  159.2330  134.3270 O   0  0  0  0  0  0  0  0  0  0  0  0
  140.4250  156.2520  134.1350 N   0  0  0  0  0  0  0  0  0  0  0  0
  139.2880  156.4590  133.2830 C   0  0  0  0  0  0  0  0  0  0  0  0
  138.3330  157.4760  133.5860 N   0  0  0  0  0  0  0  0  0  0  0  0
  139.1090  155.7170  132.2810 O   0  0  0  0  0  0  0  0  0  0  0  0
  141.1680  155.1270  134.2120 C   0  0  0  0  0  0  0  0  0  0  0  0
  141.0330  153.9480  133.4700 C   0  0  0  0  0  0  0  0  0  0  0  0
  138.4909  149.4956  132.2046 H   0  0  0  0  0  0  0  0  0  0  0  0
  138.9677  150.3502  130.6983 H   0  0  0  0  0  0  0  0  0  0  0  0
  138.7876  148.5630  130.6983 H   0  0  0  0  0  0  0  0  0  0  0  0
  140.9354  148.3045  131.3354 H   0  0  0  0  0  0  0  0  0  0  0  0
  141.1462  150.0903  131.1912 H   0  0  0  0  0  0  0  0  0  0  0  0
  142.8604  151.2946  132.6621 H   0  0  0  0  0  0  0  0  0  0  0  0
  141.2617  151.8061  132.0169 H   0  0  0  0  0  0  0  0  0  0  0  0
  143.6216  152.2072  134.9280 H   0  0  0  0  0  0  0  0  0  0  0  0
  143.7865  154.3405  136.2550 H   0  0  0  0  0  0  0  0  0  0  0  0
  142.5872  156.9207  136.5728 H   0  0  0  0  0  0  0  0  0  0  0  0
  139.4250  159.0090  137.1030 H   0  0  0  0  0  0  0  0  0  0  0  0
  138.4250  158.0490  134.4540 H   0  0  0  0  0  0  0  0  0  0  0  0
  137.5130  157.6330  132.9590 H   0  0  0  0  0  0  0  0  0  0  0  0
  140.2568  153.8537  132.6963 H   0  0  0  0  0  0  0  0  0  0  0  0
  1  2  1  0
  2  3  1  0
  3  4  1  0
  4  5  2  0
  4  6  1  0
  6  7  1  0
  7  8  2  0
  8  9  1  0
  9 10  2  0
 10 11  1  0
 11 12  2  0
 12 13  1  0
 13 14  1  0
 13 15  2  0
 12 16  1  0
 16 17  1  0
 17 18  1  0
 17 19  2  0
 16 20  1  0
 20 21  2  0
 21  7  1  0
 20 10  1  0
  1 22  1  0
  1 23  1  0
  1 24  1  0
  2 25  1  0
  2 26  1  0
  6 27  1  0
  6 28  1  0
  8 29  1  0
  9 30  1  0
 11 31  1  0
 14 32  1  0
 18 33  1  0
 18 34  1  0
 21 35  1  0
M  CHG  1  14  -1
M  END
>  <UniqueID>  (47) 
47

>  <SMILES>  (47) 
CCOC(=O)Cc1ccc2cc(C([NH-])=O)n(C(N)=O)c2c1

>  <Energy>  (47) 
67.39040376710655

>  <Genealogy>  (47) 
CCOC(=O)Cc1ccc2cc(C([NH-])=O)n(C(N)=O)c2c1 (protonated)
CCOC(=O)Cc1ccc2cc(C([NH-])=O)n(C(N)=O)c2c1 (3D coordinates assigned)
CCOC(=O)Cc1ccc2cc(C([NH-])=O)n(C(N)=O)c2c1 (optimized conformer: 67.39040376710655 kcal/mol)

>  <smiles>  (47) 
CCOC(=O)Cc1ccc2cc(C(N)=O)n(C(N)=O)c2c1

>  <score_type>  (47) 
oracle

>  <origin>  (47) 
adg

>  <m_score__min__energy>  (47) 
-6.2699999999999996

>  <m_primary>  (47) 
energy

$$$$
47:0
     RDKit          3D

 33 34  0  0  0  0  0  0  0  0999 V2000
  144.9300  159.3270  132.9960 C   0  0  0  0  0  0  0  0  0  0  0  0
  146.3770  159.6640  133.1730 C   0  0  0  0  0  0  0  0  0  0  0  0
  146.6930  160.7650  133.6950 O   0  0  0  0  0  0  0  0  0  0  0  0
  147.4020  158.7860  132.6830 N   0  0  0  0  0  0  0  0  0  0  0  0
  148.4500  159.0900  131.8650 C   0  0  0  0  0  0  0  0  0  0  0  0
  148.6690  160.3790  131.1780 C   0  0  0  0  0  0  0  0  0  0  0  0
  149.9190  161.0570  131.2720 N   0  0  0  0  0  0  0  0  0  0  0  0
  147.7260  160.9100  130.5320 O   0  0  0  0  0  0  0  0  0  0  0  0
  149.2690  157.9750  131.6930 C   0  0  0  0  0  0  0  0  0  0  0  0
  148.6800  156.9710  132.4260 C   0  0  0  0  0  0  0  0  0  0  0  0
  149.0700  155.6490  132.6140 C   0  0  0  0  0  0  0  0  0  0  0  0
  148.2770  154.8390  133.4410 C   0  0  0  0  0  0  0  0  0  0  0  0
  147.1120  155.3590  134.0700 C   0  0  0  0  0  0  0  0  0  0  0  0
  146.2580  154.4870  134.9680 C   0  0  2  0  0  0  0  0  0  0  0  0
  144.9220  155.1740  135.3100 C   0  0  0  0  0  0  0  0  0  0  0  0
  144.3380  154.5820  136.4400 O   0  0  0  0  0  0  0  0  0  0  0  0
  147.0280  154.0920  136.2010 C   0  0  0  0  0  0  0  0  0  0  0  0
  146.6860  153.0900  136.8830 O   0  0  0  0  0  0  0  0  0  0  0  0
  148.0990  154.8690  136.6210 O   0  0  0  0  0  0  0  0  0  0  0  0
  146.7500  156.7090  133.8510 C   0  0  0  0  0  0  0  0  0  0  0  0
  147.5540  157.4860  133.0120 C   0  0  0  0  0  0  0  0  0  0  0  0
  144.4559  159.2166  133.9824 H   0  0  0  0  0  0  0  0  0  0  0  0
  144.4314  160.1331  132.4377 H   0  0  0  0  0  0  0  0  0  0  0  0
  144.8389  158.3836  132.4377 H   0  0  0  0  0  0  0  0  0  0  0  0
  150.8040  160.5300  131.4410 H   0  0  0  0  0  0  0  0  0  0  0  0
  150.1914  157.9115  131.0970 H   0  0  0  0  0  0  0  0  0  0  0  0
  149.9732  155.2505  132.1288 H   0  0  0  0  0  0  0  0  0  0  0  0
  148.5598  153.7887  133.6049 H   0  0  0  0  0  0  0  0  0  0  0  0
  146.0058  153.5648  134.4240 H   0  0  0  0  0  0  0  0  0  0  0  0
  145.1050  156.2394  135.5137 H   0  0  0  0  0  0  0  0  0  0  0  0
  144.2368  155.0622  134.4567 H   0  0  0  0  0  0  0  0  0  0  0  0
  145.0550  154.4900  137.1190 H   0  0  0  0  0  0  0  0  0  0  0  0
  145.8569  157.1371  134.3296 H   0  0  0  0  0  0  0  0  0  0  0  0
  1  2  1  0
  2  3  2  0
  2  4  1  0
  4  5  1  0
  5  6  1  0
  6  7  1  0
  6  8  2  0
  5  9  2  0
  9 10  1  0
 10 11  2  0
 11 12  1  0
 12 13  2  0
 13 14  1  0
 14 15  1  0
 15 16  1  0
 14 17  1  0
 17 18  2  0
 17 19  1  0
 13 20  1  0
 20 21  2  0
 21  4  1  0
 21 10  1  0
  1 22  1  0
  1 23  1  0
  1 24  1  0
  7 25  1  0
  9 26  1  0
 11 27  1  0
 12 28  1  0
 14 29  1  6
 15 30  1  0
 15 31  1  0
 16 32  1  0
 20 33  1  0
M  CHG  2   7  -1  19  -1
M  END
>  <UniqueID>  (48) 
48

>  <SMILES>  (48) 
CC(=O)n1c(C([NH-])=O)cc2ccc([C@H](CO)C(=O)[O-])cc21

>  <Energy>  (48) 
71.88466664639215

>  <Genealogy>  (48) 
CC(=O)n1c(C([NH-])=O)cc2ccc(C(CO)C(=O)[O-])cc21 (protonated)
CC(=O)n1c(C([NH-])=O)cc2ccc([C@H](CO)C(=O)[O-])cc21 (chirality)
CC(=O)n1c(C([NH-])=O)cc2ccc([C@H](CO)C(=O)[O-])cc21 (3D coordinates assigned)
CC(=O)n1c(C([NH-])=O)cc2ccc([C@H](CO)C(=O)[O-])cc21 (optimized conformer: 71.88466664639215 kcal/mol)

>  <smiles>  (48) 
CC(=O)n1c(C(N)=O)cc2ccc(C(CO)C(=O)O)cc21

>  <score_type>  (48) 
oracle

>  <origin>  (48) 
adg

>  <m_score__min__energy>  (48) 
-6.4299999999999997

>  <m_primary>  (48) 
energy

$$$$
48:0
     RDKit          3D

 66 68  0  0  0  0  0  0  0  0999 V2000
  141.3900  155.8460  136.6530 C   0  0  0  0  0  0  0  0  0  0  0  0
  142.4520  154.9250  136.0750 C   0  0  0  0  0  0  0  0  0  0  0  0
  142.2000  154.7200  134.6890 O   0  0  0  0  0  0  0  0  0  0  0  0
  141.4310  155.5990  133.9220 C   0  0  0  0  0  0  0  0  0  0  0  0
  140.4380  155.1740  133.2700 O   0  0  0  0  0  0  0  0  0  0  0  0
  141.7900  156.9880  133.8570 N   0  0  0  0  0  0  0  0  0  0  0  0
  140.9620  158.0640  133.7250 C   0  0  0  0  0  0  0  0  0  0  0  0
  139.4850  158.0360  133.7740 C   0  0  0  0  0  0  0  0  0  0  0  0
  138.7270  157.4240  132.7360 N   0  0  0  0  0  0  0  0  0  0  0  0
  138.8860  158.5180  134.7730 O   0  0  0  0  0  0  0  0  0  0  0  0
  141.7030  159.2390  133.6200 C   0  0  0  0  0  0  0  0  0  0  0  0
  143.0190  158.8490  133.7030 C   0  0  0  0  0  0  0  0  0  0  0  0
  144.1810  159.6100  133.6510 C   0  0  0  0  0  0  0  0  0  0  0  0
  145.4130  158.9400  133.7370 C   0  0  0  0  0  0  0  0  0  0  0  0
  145.4650  157.5250  133.8610 C   0  0  0  0  0  0  0  0  0  0  0  0
  146.7950  156.7950  133.9440 C   0  0  1  0  0  0  0  0  0  0  0  0
  146.6250  155.2660  134.1440 C   0  0  0  0  0  0  0  0  0  0  0  0
  146.9540  154.4590  132.8750 C   0  0  0  0  0  0  0  0  0  0  0  0
  148.3170  154.7360  132.3270 N   0  0  2  0  0  0  0  0  0  0  0  0
  149.3040  153.7130  132.7620 C   0  0  0  0  0  0  0  0  0  0  0  0
  148.6250  152.5220  133.4830 C   0  0  0  0  0  0  0  0  0  0  0  0
  149.1060  151.0890  133.0650 C   0  0  0  0  0  0  0  0  0  0  0  0
  149.2600  150.2560  134.1950 O   0  0  0  0  0  0  0  0  0  0  0  0
  150.4290  151.1270  132.2220 C   0  0  0  0  0  0  0  0  0  0  0  0
  150.3790  150.3800  130.8840 C   0  0  0  0  0  0  0  0  0  0  0  0
  148.0080  150.4400  132.1710 C   0  0  0  0  0  0  0  0  0  0  0  0
  146.6660  151.1810  132.1710 C   0  0  0  0  0  0  0  0  0  0  0  0
  148.8230  156.1010  132.6440 C   0  0  0  0  0  0  0  0  0  0  0  0
  147.6900  157.1270  132.7350 C   0  0  0  0  0  0  0  0  0  0  0  0
  144.2580  156.7900  133.9110 C   0  0  0  0  0  0  0  0  0  0  0  0
  143.0460  157.4870  133.8450 C   0  0  0  0  0  0  0  0  0  0  0  0
  141.4318  155.8098  137.7516 H   0  0  0  0  0  0  0  0  0  0  0  0
  141.5733  156.8759  136.3129 H   0  0  0  0  0  0  0  0  0  0  0  0
  140.3964  155.5188  136.3129 H   0  0  0  0  0  0  0  0  0  0  0  0
  143.4438  155.3832  136.2034 H   0  0  0  0  0  0  0  0  0  0  0  0
  142.4235  153.9585  136.5994 H   0  0  0  0  0  0  0  0  0  0  0  0
  138.7180  156.3860  132.6160 H   0  0  0  0  0  0  0  0  0  0  0  0
  141.3172  160.2617  133.4968 H   0  0  0  0  0  0  0  0  0  0  0  0
  144.1373  160.7041  133.5457 H   0  0  0  0  0  0  0  0  0  0  0  0
  146.3487  159.5176  133.7080 H   0  0  0  0  0  0  0  0  0  0  0  0
  147.3074  157.1624  134.8454 H   0  0  0  0  0  0  0  0  0  0  0  0
  145.5824  155.0625  134.4296 H   0  0  0  0  0  0  0  0  0  0  0  0
  147.3308  154.9537  134.9278 H   0  0  0  0  0  0  0  0  0  0  0  0
  146.2114  154.7074  132.1025 H   0  0  0  0  0  0  0  0  0  0  0  0
  146.9279  153.3951  133.1532 H   0  0  0  0  0  0  0  0  0  0  0  0
  148.2430  154.6900  131.2810 H   0  0  0  0  0  0  0  0  0  0  0  0
  149.8375  153.3353  131.8773 H   0  0  0  0  0  0  0  0  0  0  0  0
  149.9972  154.1892  133.4710 H   0  0  0  0  0  0  0  0  0  0  0  0
  148.8080  152.6352  134.5617 H   0  0  0  0  0  0  0  0  0  0  0  0
  147.5648  152.5708  133.1937 H   0  0  0  0  0  0  0  0  0  0  0  0
  148.3670  150.0520  134.5690 H   0  0  0  0  0  0  0  0  0  0  0  0
  150.6683  152.1802  132.0137 H   0  0  0  0  0  0  0  0  0  0  0  0
  151.1889  150.6119  132.8280 H   0  0  0  0  0  0  0  0  0  0  0  0
  150.3066  149.2983  131.0704 H   0  0  0  0  0  0  0  0  0  0  0  0
  149.5011  150.7129  130.3108 H   0  0  0  0  0  0  0  0  0  0  0  0
  151.2934  150.5929  130.3108 H   0  0  0  0  0  0  0  0  0  0  0  0
  148.3821  150.4074  131.1371 H   0  0  0  0  0  0  0  0  0  0  0  0
  147.8135  149.4420  132.5906 H   0  0  0  0  0  0  0  0  0  0  0  0
  146.3450  151.3582  133.2081 H   0  0  0  0  0  0  0  0  0  0  0  0
  146.7791  152.1445  131.6525 H   0  0  0  0  0  0  0  0  0  0  0  0
  145.9109  150.5720  131.6525 H   0  0  0  0  0  0  0  0  0  0  0  0
  149.5217  156.4129  131.8538 H   0  0  0  0  0  0  0  0  0  0  0  0
  149.3222  156.0589  133.6233 H   0  0  0  0  0  0  0  0  0  0  0  0
  147.0897  157.0935  131.8138 H   0  0  0  0  0  0  0  0  0  0  0  0
  148.1152  158.1340  132.8581 H   0  0  0  0  0  0  0  0  0  0  0  0
  144.2713  155.6937  133.9999 H   0  0  0  0  0  0  0  0  0  0  0  0
  1  2  1  0
  2  3  1  0
  3  4  1  0
  4  5  2  0
  4  6  1  0
  6  7  1  0
  7  8  1  0
  8  9  1  0
  8 10  2  0
  7 11  2  0
 11 12  1  0
 12 13  2  0
 13 14  1  0
 14 15  2  0
 15 16  1  0
 16 17  1  0
 17 18  1  0
 18 19  1  0
 19 20  1  0
 20 21  1  0
 21 22  1  0
 22 23  1  0
 22 24  1  0
 24 25  1  0
 22 26  1  0
 26 27  1  0
 19 28  1  0
 28 29  1  0
 15 30  1  0
 30 31  2  0
 31  6  1  0
 31 12  1  0
 29 16  1  0
  1 32  1  0
  1 33  1  0
  1 34  1  0
  2 35  1  0
  2 36  1  0
  9 37  1  0
 11 38  1  0
 13 39  1  0
 14 40  1  0
 16 41  1  1
 17 42  1  0
 17 43  1  0
 18 44  1  0
 18 45  1  0
 19 46  1  6
 20 47  1  0
 20 48  1  0
 21 49  1  0
 21 50  1  0
 23 51  1  0
 24 52  1  0
 24 53  1  0
 25 54  1  0
 25 55  1  0
 25 56  1  0
 26 57  1  0
 26 58  1  0
 27 59  1  0
 27 60  1  0
 27 61  1  0
 28 62  1  0
 28 63  1  0
 29 64  1  0
 29 65  1  0
 30 66  1  0
M  CHG  2   9  -1  19   1
M  END
>  <UniqueID>  (49) 
49

>  <SMILES>  (49) 
CCOC(=O)n1c(C([NH-])=O)cc2ccc(C3CC[NH+](CCC(O)(CC)CC)CC3)cc21

>  <Energy>  (49) 
113.82258333663174

>  <Genealogy>  (49) 
CCOC(=O)n1c(C([NH-])=O)cc2ccc(C3CC[NH+](CCC(O)(CC)CC)CC3)cc21 (protonated)
CCOC(=O)n1c(C([NH-])=O)cc2ccc(C3CC[NH+](CCC(O)(CC)CC)CC3)cc21 (3D coordinates assigned)
CCOC(=O)n1c(C([NH-])=O)cc2ccc(C3CC[NH+](CCC(O)(CC)CC)CC3)cc21 (nonaromatic ring conformer: 113.82258333663174 kcal/mol)

>  <smiles>  (49) 
CCOC(=O)n1c(C(N)=O)cc2ccc(C3CCN(CCC(O)(CC)CC)CC3)cc21

>  <score_type>  (49) 
oracle

>  <origin>  (49) 
adg

>  <m_score__min__energy>  (49) 
-8.8800000000000008

>  <m_primary>  (49) 
energy

$$$$
49:0
     RDKit          3D

 31 33  0  0  0  0  0  0  0  0999 V2000
  139.9450  159.0310  136.3640 N   0  0  0  0  0  0  0  0  0  0  0  0
  141.1710  158.5610  135.8030 C   0  0  0  0  0  0  0  0  0  0  0  0
  142.0970  159.3810  135.5680 O   0  0  0  0  0  0  0  0  0  0  0  0
  141.3480  157.1420  135.4330 C   0  0  0  0  0  0  0  0  0  0  0  0
  142.3320  156.3260  135.9820 C   0  0  0  0  0  0  0  0  0  0  0  0
  142.2060  155.1200  135.3330 C   0  0  0  0  0  0  0  0  0  0  0  0
  142.9280  153.9420  135.4930 C   0  0  0  0  0  0  0  0  0  0  0  0
  142.5610  152.8320  134.7140 C   0  0  0  0  0  0  0  0  0  0  0  0
  141.4740  152.9110  133.8020 C   0  0  0  0  0  0  0  0  0  0  0  0
  141.0760  151.7410  132.9770 C   0  0  0  0  0  0  0  0  0  0  0  0
  141.9920  150.7290  132.6380 C   0  0  0  0  0  0  0  0  0  0  0  0
  141.5680  149.6470  131.8630 C   0  0  0  0  0  0  0  0  0  0  0  0
  140.2410  149.5730  131.4360 C   0  0  0  0  0  0  0  0  0  0  0  0
  139.6460  148.0980  130.3790 Br  0  0  0  0  0  0  0  0  0  0  0  0
  139.3520  150.5880  131.7980 C   0  0  0  0  0  0  0  0  0  0  0  0
  139.7850  151.6330  132.5520 N   0  0  0  0  0  0  0  0  0  0  0  0
  140.7730  154.1330  133.6640 C   0  0  0  0  0  0  0  0  0  0  0  0
  141.1720  155.2280  134.4390 C   0  0  0  0  0  0  0  0  0  0  0  0
  140.6310  156.4680  134.4910 N   0  0  0  0  0  0  0  0  0  0  0  0
  139.4620  156.9280  133.7920 C   0  0  0  0  0  0  0  0  0  0  0  0
  139.2050  156.5120  132.6320 O   0  0  0  0  0  0  0  0  0  0  0  0
  138.6000  157.8380  134.3920 O   0  0  0  0  0  0  0  0  0  0  0  0
  139.1040  158.4150  136.4170 H   0  0  0  0  0  0  0  0  0  0  0  0
  139.8490  160.0300  136.6530 H   0  0  0  0  0  0  0  0  0  0  0  0
  143.0560  156.5891  136.7672 H   0  0  0  0  0  0  0  0  0  0  0  0
  143.7615  153.8813  136.2082 H   0  0  0  0  0  0  0  0  0  0  0  0
  143.1217  151.8906  134.8111 H   0  0  0  0  0  0  0  0  0  0  0  0
  143.0355  150.7892  132.9809 H   0  0  0  0  0  0  0  0  0  0  0  0
  142.2793  148.8538  131.5894 H   0  0  0  0  0  0  0  0  0  0  0  0
  138.3021  150.5417  131.4731 H   0  0  0  0  0  0  0  0  0  0  0  0
  139.9311  154.2203  132.9614 H   0  0  0  0  0  0  0  0  0  0  0  0
  1  2  1  0
  2  3  2  0
  2  4  1  0
  4  5  2  0
  5  6  1  0
  6  7  2  0
  7  8  1  0
  8  9  2  0
  9 10  1  0
 10 11  2  0
 11 12  1  0
 12 13  2  0
 13 14  1  0
 13 15  1  0
 15 16  2  0
  9 17  1  0
 17 18  2  0
 18 19  1  0
 19 20  1  0
 20 21  2  0
 20 22  1  0
 19  4  1  0
 18  6  1  0
 16 10  1  0
  1 23  1  0
  1 24  1  0
  5 25  1  0
  7 26  1  0
  8 27  1  0
 11 28  1  0
 12 29  1  0
 15 30  1  0
 17 31  1  0
M  CHG  1  22  -1
M  END
>  <UniqueID>  (50) 
50

>  <SMILES>  (50) 
NC(=O)c1cc2ccc(-c3ccc(Br)cn3)cc2n1C(=O)[O-]

>  <Energy>  (50) 
78.6107226800687

>  <Genealogy>  (50) 
NC(=O)c1cc2ccc(-c3ccc(Br)cn3)cc2n1C(=O)[O-] (protonated)
NC(=O)c1cc2ccc(-c3ccc(Br)cn3)cc2n1C(=O)[O-] (3D coordinates assigned)
NC(=O)c1cc2ccc(-c3ccc(Br)cn3)cc2n1C(=O)[O-] (optimized conformer: 78.6107226800687 kcal/mol)

>  <smiles>  (50) 
NC(=O)c1cc2ccc(-c3ccc(Br)cn3)cc2n1C(=O)O

>  <score_type>  (50) 
oracle

>  <origin>  (50) 
adg

>  <m_score__min__energy>  (50) 
-7.75

>  <m_primary>  (50) 
energy

$$$$
50:0
     RDKit          3D

 42 44  0  0  0  0  0  0  0  0999 V2000
  145.9640  162.8210  134.8450 N   0  0  0  0  0  0  0  0  0  0  0  0
  145.2560  161.8370  134.0960 C   0  0  0  0  0  0  0  0  0  0  0  0
  144.0770  162.0750  133.7240 O   0  0  0  0  0  0  0  0  0  0  0  0
  145.8650  160.5220  133.8010 C   0  0  0  0  0  0  0  0  0  0  0  0
  147.2240  160.3490  133.5520 C   0  0  0  0  0  0  0  0  0  0  0  0
  147.3710  159.0180  133.2390 C   0  0  0  0  0  0  0  0  0  0  0  0
  148.5170  158.2940  132.9280 C   0  0  0  0  0  0  0  0  0  0  0  0
  148.3810  156.9200  132.6780 C   0  0  0  0  0  0  0  0  0  0  0  0
  147.1110  156.2950  132.7360 C   0  0  0  0  0  0  0  0  0  0  0  0
  147.0120  154.8880  132.4580 N   0  0  0  0  0  0  0  0  0  0  0  0
  145.8480  154.0690  132.8090 C   0  0  0  0  0  0  0  0  0  0  0  0
  146.2480  152.5980  132.9750 C   0  0  0  0  0  0  0  0  0  0  0  0
  147.5800  152.3410  132.3880 N   0  0  0  0  0  0  0  0  0  0  0  0
  148.6530  152.6190  133.3640 C   0  0  0  0  0  0  0  0  0  0  0  0
  149.9620  151.9350  132.9380 C   0  0  0  0  0  0  0  0  0  0  0  0
  149.8720  150.5180  132.8410 O   0  0  0  0  0  0  0  0  0  0  0  0
  148.5490  150.0420  132.6400 C   0  0  0  0  0  0  0  0  0  0  0  0
  147.6870  150.9890  131.7860 C   0  0  0  0  0  0  0  0  0  0  0  0
  145.9700  157.0610  133.0760 C   0  0  0  0  0  0  0  0  0  0  0  0
  146.1330  158.4320  133.3040 C   0  0  0  0  0  0  0  0  0  0  0  0
  145.1960  159.3420  133.6550 N   0  0  0  0  0  0  0  0  0  0  0  0
  143.8110  159.0780  133.9250 C   0  0  0  0  0  0  0  0  0  0  0  0
  143.2570  159.5610  134.9480 O   0  0  0  0  0  0  0  0  0  0  0  0
  143.0710  158.2650  133.0740 O   0  0  0  0  0  0  0  0  0  0  0  0
  147.0040  162.8960  134.7860 H   0  0  0  0  0  0  0  0  0  0  0  0
  148.0127  161.1145  133.5963 H   0  0  0  0  0  0  0  0  0  0  0  0
  149.5007  158.7839  132.8794 H   0  0  0  0  0  0  0  0  0  0  0  0
  149.2709  156.3212  132.4341 H   0  0  0  0  0  0  0  0  0  0  0  0
  147.7200  154.4580  131.8200 H   0  0  0  0  0  0  0  0  0  0  0  0
  145.4208  154.4355  133.7541 H   0  0  0  0  0  0  0  0  0  0  0  0
  145.1069  154.1439  131.9996 H   0  0  0  0  0  0  0  0  0  0  0  0
  146.2736  152.3511  134.0466 H   0  0  0  0  0  0  0  0  0  0  0  0
  145.5087  151.9730  132.4527 H   0  0  0  0  0  0  0  0  0  0  0  0
  148.8153  153.7053  133.4232 H   0  0  0  0  0  0  0  0  0  0  0  0
  148.3503  152.2256  134.3456 H   0  0  0  0  0  0  0  0  0  0  0  0
  150.2544  152.3308  131.9542 H   0  0  0  0  0  0  0  0  0  0  0  0
  150.7033  152.1530  133.7209 H   0  0  0  0  0  0  0  0  0  0  0  0
  148.6015  149.0662  132.1350 H   0  0  0  0  0  0  0  0  0  0  0  0
  148.0736  149.9703  133.6294 H   0  0  0  0  0  0  0  0  0  0  0  0
  148.1415  151.0798  130.7884 H   0  0  0  0  0  0  0  0  0  0  0  0
  146.6743  150.5637  131.7257 H   0  0  0  0  0  0  0  0  0  0  0  0
  144.9794  156.5899  133.1590 H   0  0  0  0  0  0  0  0  0  0  0  0
  1  2  1  0
  2  3  2  0
  2  4  1  0
  4  5  2  0
  5  6  1  0
  6  7  2  0
  7  8  1  0
  8  9  2  0
  9 10  1  0
 10 11  1  0
 11 12  1  0
 12 13  1  0
 13 14  1  0
 14 15  1  0
 15 16  1  0
 16 17  1  0
 17 18  1  0
  9 19  1  0
 19 20  2  0
 20 21  1  0
 21 22  1  0
 22 23  2  0
 22 24  1  0
 21  4  1  0
 20  6  1  0
 18 13  1  0
  1 25  1  0
  5 26  1  0
  7 27  1  0
  8 28  1  0
 10 29  1  0
 11 30  1  0
 11 31  1  0
 12 32  1  0
 12 33  1  0
 14 34  1  0
 14 35  1  0
 15 36  1  0
 15 37  1  0
 17 38  1  0
 17 39  1  0
 18 40  1  0
 18 41  1  0
 19 42  1  0
M  CHG  2   1  -1  24  -1
M  END
>  <UniqueID>  (51) 
51

>  <SMILES>  (51) 
[NH-]C(=O)c1cc2ccc(NCCN3CCOCC3)cc2n1C(=O)[O-]

>  <Energy>  (51) 
95.26958548835104

>  <Genealogy>  (51) 
[NH-]C(=O)c1cc2ccc(NCCN3CCOCC3)cc2n1C(=O)[O-] (protonated)
[NH-]C(=O)c1cc2ccc(NCCN3CCOCC3)cc2n1C(=O)[O-] (3D coordinates assigned)
[NH-]C(=O)c1cc2ccc(NCCN3CCOCC3)cc2n1C(=O)[O-] (nonaromatic ring conformer: 95.26958548835104 kcal/mol)

>  <smiles>  (51) 
NC(=O)c1cc2ccc(NCCN3CCOCC3)cc2n1C(=O)O

>  <score_type>  (51) 
oracle

>  <origin>  (51) 
adg

>  <m_score__min__energy>  (51) 
-7.2000000000000002

>  <m_primary>  (51) 
energy

$$$$
51:0
     RDKit          3D

 55 57  0  0  0  0  0  0  0  0999 V2000
  139.4780  145.9450  129.5120 C   0  0  0  0  0  0  0  0  0  0  0  0
  138.7430  146.9800  130.3800 C   0  0  0  0  0  0  0  0  0  0  0  0
  139.4960  148.2390  130.6100 N   0  0  0  0  0  0  0  0  0  0  0  0
  139.5460  149.1500  129.4420 C   0  0  0  0  0  0  0  0  0  0  0  0
  138.1730  149.5550  128.8960 C   0  0  0  0  0  0  0  0  0  0  0  0
  139.2630  148.8770  131.9240 C   0  0  0  0  0  0  0  0  0  0  0  0
  140.1140  150.1420  132.0970 C   0  0  0  0  0  0  0  0  0  0  0  0
  141.2280  149.8920  133.0060 N   0  0  0  0  0  0  0  0  0  0  0  0
  141.6100  150.7860  134.0580 C   0  0  0  0  0  0  0  0  0  0  0  0
  141.0070  150.7400  135.1670 O   0  0  0  0  0  0  0  0  0  0  0  0
  142.7130  151.7530  133.8530 C   0  0  0  0  0  0  0  0  0  0  0  0
  143.6030  151.6060  132.7760 C   0  0  0  0  0  0  0  0  0  0  0  0
  144.6450  152.5160  132.5880 C   0  0  0  0  0  0  0  0  0  0  0  0
  144.8190  153.5970  133.4660 C   0  0  0  0  0  0  0  0  0  0  0  0
  145.9290  154.5460  133.2280 C   0  0  0  0  0  0  0  0  0  0  0  0
  147.2400  154.0590  133.0080 C   0  0  0  0  0  0  0  0  0  0  0  0
  148.3060  154.9460  132.7840 C   0  0  0  0  0  0  0  0  0  0  0  0
  148.0270  156.3090  132.7680 C   0  0  0  0  0  0  0  0  0  0  0  0
  148.8740  157.3810  132.6060 C   0  0  0  0  0  0  0  0  0  0  0  0
  148.0600  158.5070  132.6870 C   0  0  0  0  0  0  0  0  0  0  0  0
  148.5600  159.8840  132.5030 C   0  0  0  0  0  0  0  0  0  0  0  0
  147.6780  161.0050  132.5610 N   0  0  0  0  0  0  0  0  0  0  0  0
  149.7770  160.0700  132.2370 O   0  0  0  0  0  0  0  0  0  0  0  0
  146.7620  158.1510  132.9040 N   0  0  0  0  0  0  0  0  0  0  0  0
  145.6490  159.0230  133.1610 C   0  0  0  0  0  0  0  0  0  0  0  0
  145.7850  160.0250  133.9120 O   0  0  0  0  0  0  0  0  0  0  0  0
  144.4080  158.7710  132.5890 O   0  0  0  0  0  0  0  0  0  0  0  0
  146.7580  156.7990  132.9490 C   0  0  0  0  0  0  0  0  0  0  0  0
  145.6820  155.9380  133.1950 C   0  0  0  0  0  0  0  0  0  0  0  0
  143.9340  153.7460  134.5550 C   0  0  0  0  0  0  0  0  0  0  0  0
  144.1360  155.0260  135.7480 Cl  0  0  0  0  0  0  0  0  0  0  0  0
  142.8910  152.8300  134.7390 C   0  0  0  0  0  0  0  0  0  0  0  0
  139.9922  145.2210  130.1611 H   0  0  0  0  0  0  0  0  0  0  0  0
  138.7515  145.4168  128.8770 H   0  0  0  0  0  0  0  0  0  0  0  0
  140.2161  146.4569  128.8770 H   0  0  0  0  0  0  0  0  0  0  0  0
  137.7946  147.2330  129.8834 H   0  0  0  0  0  0  0  0  0  0  0  0
  138.6021  146.5158  131.3672 H   0  0  0  0  0  0  0  0  0  0  0  0
  140.0805  150.0637  129.7410 H   0  0  0  0  0  0  0  0  0  0  0  0
  140.0544  148.6000  128.6364 H   0  0  0  0  0  0  0  0  0  0  0  0
  137.4899  149.7565  129.7343 H   0  0  0  0  0  0  0  0  0  0  0  0
  138.2758  150.4611  128.2808 H   0  0  0  0  0  0  0  0  0  0  0  0
  137.7676  148.7382  128.2808 H   0  0  0  0  0  0  0  0  0  0  0  0
  138.2000  149.1480  132.0057 H   0  0  0  0  0  0  0  0  0  0  0  0
  139.5476  148.1611  132.7092 H   0  0  0  0  0  0  0  0  0  0  0  0
  140.5089  150.4487  131.1172 H   0  0  0  0  0  0  0  0  0  0  0  0
  139.4835  150.9382  132.5197 H   0  0  0  0  0  0  0  0  0  0  0  0
  143.4779  150.7673  132.0753 H   0  0  0  0  0  0  0  0  0  0  0  0
  145.3368  152.3844  131.7429 H   0  0  0  0  0  0  0  0  0  0  0  0
  147.4258  152.9748  133.0125 H   0  0  0  0  0  0  0  0  0  0  0  0
  149.3293  154.5746  132.6262 H   0  0  0  0  0  0  0  0  0  0  0  0
  149.9620  157.3539  132.4465 H   0  0  0  0  0  0  0  0  0  0  0  0
  148.0560  161.9750  132.4720 H   0  0  0  0  0  0  0  0  0  0  0  0
  146.6420  160.8730  132.6070 H   0  0  0  0  0  0  0  0  0  0  0  0
  144.6691  156.3345  133.3587 H   0  0  0  0  0  0  0  0  0  0  0  0
  142.2022  152.9547  135.5875 H   0  0  0  0  0  0  0  0  0  0  0  0
  1  2  1  0
  2  3  1  0
  3  4  1  0
  4  5  1  0
  3  6  1  0
  6  7  1  0
  7  8  1  0
  8  9  1  0
  9 10  2  0
  9 11  1  0
 11 12  2  0
 12 13  1  0
 13 14  2  0
 14 15  1  0
 15 16  2  0
 16 17  1  0
 17 18  2  0
 18 19  1  0
 19 20  2  0
 20 21  1  0
 21 22  1  0
 21 23  2  0
 20 24  1  0
 24 25  1  0
 25 26  2  0
 25 27  1  0
 24 28  1  0
 28 29  2  0
 14 30  1  0
 30 31  1  0
 30 32  2  0
 32 11  1  0
 29 15  1  0
 28 18  1  0
  1 33  1  0
  1 34  1  0
  1 35  1  0
  2 36  1  0
  2 37  1  0
  4 38  1  0
  4 39  1  0
  5 40  1  0
  5 41  1  0
  5 42  1  0
  6 43  1  0
  6 44  1  0
  7 45  1  0
  7 46  1  0
 12 47  1  0
 13 48  1  0
 16 49  1  0
 17 50  1  0
 19 51  1  0
 22 52  1  0
 22 53  1  0
 29 54  1  0
 32 55  1  0
M  CHG  2   8  -1  27  -1
M  END
>  <UniqueID>  (52) 
52

>  <SMILES>  (52) 
CCN(CC)CC[N-]C(=O)c1ccc(-c2ccc3cc(C(N)=O)n(C(=O)[O-])c3c2)c(Cl)c1

>  <Energy>  (52) 
109.06513693332506

>  <Genealogy>  (52) 
CCN(CC)CC[N-]C(=O)c1ccc(-c2ccc3cc(C(N)=O)n(C(=O)[O-])c3c2)c(Cl)c1 (protonated)
CCN(CC)CC[N-]C(=O)c1ccc(-c2ccc3cc(C(N)=O)n(C(=O)[O-])c3c2)c(Cl)c1 (3D coordinates assigned)
CCN(CC)CC[N-]C(=O)c1ccc(-c2ccc3cc(C(N)=O)n(C(=O)[O-])c3c2)c(Cl)c1 (optimized conformer: 109.06513693332506 kcal/mol)

>  <smiles>  (52) 
CCN(CC)CCNC(=O)c1ccc(-c2ccc3cc(C(N)=O)n(C(=O)O)c3c2)c(Cl)c1

>  <score_type>  (52) 
oracle

>  <origin>  (52) 
adg

>  <m_score__min__energy>  (52) 
-9.4299999999999997

>  <m_primary>  (52) 
energy

$$$$
52:0
     RDKit          3D

 34 36  0  0  0  0  0  0  0  0999 V2000
  141.0820  151.1320  140.7380 N   0  0  0  0  0  0  0  0  0  0  0  0
  140.8730  152.3930  140.1060 C   0  0  0  0  0  0  0  0  0  0  0  0
  140.2730  153.3050  140.7330 O   0  0  0  0  0  0  0  0  0  0  0  0
  141.4020  152.6300  138.7470 C   0  0  0  0  0  0  0  0  0  0  0  0
  142.2650  153.6790  138.4320 C   0  0  0  0  0  0  0  0  0  0  0  0
  142.4430  153.6080  137.0700 C   0  0  0  0  0  0  0  0  0  0  0  0
  143.2080  154.4090  136.2260 C   0  0  0  0  0  0  0  0  0  0  0  0
  143.2240  154.0930  134.8570 C   0  0  0  0  0  0  0  0  0  0  0  0
  142.4960  152.9830  134.3640 C   0  0  0  0  0  0  0  0  0  0  0  0
  142.4980  152.6740  132.8910 C   0  0  0  0  0  0  0  0  0  0  0  0
  141.7420  151.4010  132.6280 C   0  0  0  0  0  0  0  0  0  0  0  0
  142.4210  150.1740  132.5570 C   0  0  0  0  0  0  0  0  0  0  0  0
  141.7220  148.9960  132.2760 C   0  0  0  0  0  0  0  0  0  0  0  0
  140.3430  149.0360  132.0540 C   0  0  0  0  0  0  0  0  0  0  0  0
  139.6610  150.2550  132.1100 C   0  0  0  0  0  0  0  0  0  0  0  0
  140.3560  151.4350  132.3920 C   0  0  0  0  0  0  0  0  0  0  0  0
  141.7240  152.1990  135.2490 C   0  0  0  0  0  0  0  0  0  0  0  0
  141.7100  152.5470  136.6050 C   0  0  0  0  0  0  0  0  0  0  0  0
  141.0650  151.9340  137.6230 N   0  0  0  0  0  0  0  0  0  0  0  0
  140.2590  150.7490  137.5320 C   0  0  0  0  0  0  0  0  0  0  0  0
  139.5270  150.4010  138.4960 O   0  0  0  0  0  0  0  0  0  0  0  0
  140.2560  149.9880  136.3700 O   0  0  0  0  0  0  0  0  0  0  0  0
  140.5910  150.2750  140.4000 H   0  0  0  0  0  0  0  0  0  0  0  0
  142.7091  154.4083  139.1255 H   0  0  0  0  0  0  0  0  0  0  0  0
  143.7814  155.2618  136.6185 H   0  0  0  0  0  0  0  0  0  0  0  0
  143.8077  154.7139  134.1615 H   0  0  0  0  0  0  0  0  0  0  0  0
  142.0193  153.5005  132.3454 H   0  0  0  0  0  0  0  0  0  0  0  0
  143.5369  152.5521  132.5506 H   0  0  0  0  0  0  0  0  0  0  0  0
  143.5078  150.1393  132.7232 H   0  0  0  0  0  0  0  0  0  0  0  0
  142.2583  148.0367  132.2297 H   0  0  0  0  0  0  0  0  0  0  0  0
  139.7940  148.1082  131.8352 H   0  0  0  0  0  0  0  0  0  0  0  0
  138.5759  150.2859  131.9319 H   0  0  0  0  0  0  0  0  0  0  0  0
  139.8169  152.3931  132.4294 H   0  0  0  0  0  0  0  0  0  0  0  0
  141.1481  151.3366  134.8822 H   0  0  0  0  0  0  0  0  0  0  0  0
  1  2  1  0
  2  3  2  0
  2  4  1  0
  4  5  2  0
  5  6  1  0
  6  7  2  0
  7  8  1  0
  8  9  2  0
  9 10  1  0
 10 11  1  0
 11 12  2  0
 12 13  1  0
 13 14  2  0
 14 15  1  0
 15 16  2  0
  9 17  1  0
 17 18  2  0
 18 19  1  0
 19 20  1  0
 20 21  2  0
 20 22  1  0
 19  4  1  0
 18  6  1  0
 16 11  1  0
  1 23  1  0
  5 24  1  0
  7 25  1  0
  8 26  1  0
 10 27  1  0
 10 28  1  0
 12 29  1  0
 13 30  1  0
 14 31  1  0
 15 32  1  0
 16 33  1  0
 17 34  1  0
M  CHG  2   1  -1  22  -1
M  END
>  <UniqueID>  (53) 
53

>  <SMILES>  (53) 
[NH-]C(=O)c1cc2ccc(Cc3ccccc3)cc2n1C(=O)[O-]

>  <Energy>  (53) 
74.54953309847363

>  <Genealogy>  (53) 
[NH-]C(=O)c1cc2ccc(Cc3ccccc3)cc2n1C(=O)[O-] (protonated)
[NH-]C(=O)c1cc2ccc(Cc3ccccc3)cc2n1C(=O)[O-] (3D coordinates assigned)
[NH-]C(=O)c1cc2ccc(Cc3ccccc3)cc2n1C(=O)[O-] (optimized conformer: 74.54953309847363 kcal/mol)

>  <smiles>  (53) 
NC(=O)c1cc2ccc(Cc3ccccc3)cc2n1C(=O)O

>  <score_type>  (53) 
oracle

>  <origin>  (53) 
adg

>  <m_score__min__energy>  (53) 
-7.9100000000000001

>  <m_primary>  (53) 
energy

$$$$
53:0
     RDKit          3D

 31 33  0  0  0  0  0  0  0  0999 V2000
  139.1930  159.1310  131.2280 C   0  0  0  0  0  0  0  0  0  0  0  0
  139.3470  159.3820  132.6190 O   0  0  0  0  0  0  0  0  0  0  0  0
  139.7020  158.3860  133.5320 C   0  0  0  0  0  0  0  0  0  0  0  0
  138.9220  158.0850  134.4770 O   0  0  0  0  0  0  0  0  0  0  0  0
  140.9590  157.7010  133.3940 N   0  0  0  0  0  0  0  0  0  0  0  0
  141.1650  156.3580  133.2910 C   0  0  0  0  0  0  0  0  0  0  0  0
  140.1140  155.3310  133.1370 C   0  0  0  0  0  0  0  0  0  0  0  0
  138.7400  155.6920  133.0070 N   0  0  0  0  0  0  0  0  0  0  0  0
  140.4430  154.1170  133.0640 O   0  0  0  0  0  0  0  0  0  0  0  0
  142.5250  156.0660  133.3000 C   0  0  0  0  0  0  0  0  0  0  0  0
  143.1570  157.2840  133.3980 C   0  0  0  0  0  0  0  0  0  0  0  0
  144.5140  157.5840  133.4630 C   0  0  0  0  0  0  0  0  0  0  0  0
  144.8850  158.9310  133.6020 C   0  0  0  0  0  0  0  0  0  0  0  0
  143.9010  159.9480  133.6850 C   0  0  0  0  0  0  0  0  0  0  0  0
  144.2980  161.3610  133.8470 C   0  0  0  0  0  0  0  0  0  0  0  0
  145.4120  161.7730  134.4790 N   0  0  0  0  0  0  0  0  0  0  0  0
  145.4110  163.0960  134.4110 N   0  0  0  0  0  0  0  0  0  0  0  0
  144.2960  163.4430  133.7410 C   0  0  0  0  0  0  0  0  0  0  0  0
  143.6090  162.3820  133.3920 O   0  0  0  0  0  0  0  0  0  0  0  0
  142.5320  159.6050  133.6180 C   0  0  0  0  0  0  0  0  0  0  0  0
  142.1900  158.2560  133.4560 C   0  0  0  0  0  0  0  0  0  0  0  0
  138.6227  158.2015  131.0841 H   0  0  0  0  0  0  0  0  0  0  0  0
  138.6530  159.9684  130.7619 H   0  0  0  0  0  0  0  0  0  0  0  0
  140.1841  159.0290  130.7619 H   0  0  0  0  0  0  0  0  0  0  0  0
  138.4520  156.6890  132.8900 H   0  0  0  0  0  0  0  0  0  0  0  0
  138.0070  154.9510  132.9390 H   0  0  0  0  0  0  0  0  0  0  0  0
  142.9948  155.0731  133.2413 H   0  0  0  0  0  0  0  0  0  0  0  0
  145.2732  156.7900  133.4072 H   0  0  0  0  0  0  0  0  0  0  0  0
  145.9506  159.2000  133.6470 H   0  0  0  0  0  0  0  0  0  0  0  0
  144.0007  164.4785  133.5163 H   0  0  0  0  0  0  0  0  0  0  0  0
  141.7534  160.3785  133.6913 H   0  0  0  0  0  0  0  0  0  0  0  0
  1  2  1  0
  2  3  1  0
  3  4  2  0
  3  5  1  0
  5  6  1  0
  6  7  1  0
  7  8  1  0
  7  9  2  0
  6 10  2  0
 10 11  1  0
 11 12  2  0
 12 13  1  0
 13 14  2  0
 14 15  1  0
 15 16  2  0
 16 17  1  0
 17 18  2  0
 18 19  1  0
 14 20  1  0
 20 21  2  0
 21  5  1  0
 21 11  1  0
 19 15  1  0
  1 22  1  0
  1 23  1  0
  1 24  1  0
  8 25  1  0
  8 26  1  0
 10 27  1  0
 12 28  1  0
 13 29  1  0
 18 30  1  0
 20 31  1  0
M  END
>  <UniqueID>  (54) 
54

>  <SMILES>  (54) 
COC(=O)n1c(C(N)=O)cc2ccc(-c3nnco3)cc21

>  <Energy>  (54) 
105.51679494936661

>  <Genealogy>  (54) 
COC(=O)n1c(C(N)=O)cc2ccc(-c3nnco3)cc21 (3D coordinates assigned)
COC(=O)n1c(C(N)=O)cc2ccc(-c3nnco3)cc21 (optimized conformer: 105.51679494936661 kcal/mol)

>  <smiles>  (54) 
COC(=O)n1c(C(N)=O)cc2ccc(-c3nnco3)cc21

>  <score_type>  (54) 
oracle

>  <origin>  (54) 
adg

>  <m_score__min__energy>  (54) 
-6.5199999999999996

>  <m_primary>  (54) 
energy

$$$$
54:0
     RDKit          3D

 32 33  0  0  0  0  0  0  0  0999 V2000
  149.2270  160.8660  130.8490 C   0  0  0  0  0  0  0  0  0  0  0  0
  149.2130  159.4060  130.4130 C   0  0  0  0  0  0  0  0  0  0  0  0
  149.4870  158.5460  131.5170 O   0  0  0  0  0  0  0  0  0  0  0  0
  148.8020  158.6160  132.7380 C   0  0  0  0  0  0  0  0  0  0  0  0
  149.2370  159.3460  133.6690 O   0  0  0  0  0  0  0  0  0  0  0  0
  147.5940  157.8590  132.9180 N   0  0  0  0  0  0  0  0  0  0  0  0
  146.3510  158.3460  133.1930 C   0  0  0  0  0  0  0  0  0  0  0  0
  145.9610  159.7700  133.1860 C   0  0  0  0  0  0  0  0  0  0  0  0
  146.9360  160.8020  133.3390 N   0  0  0  0  0  0  0  0  0  0  0  0
  144.7570  160.0820  132.9850 O   0  0  0  0  0  0  0  0  0  0  0  0
  145.4570  157.3080  133.4360 C   0  0  0  0  0  0  0  0  0  0  0  0
  146.1910  156.1550  133.2870 C   0  0  0  0  0  0  0  0  0  0  0  0
  145.8020  154.8260  133.4190 C   0  0  0  0  0  0  0  0  0  0  0  0
  146.7790  153.8330  133.2400 C   0  0  0  0  0  0  0  0  0  0  0  0
  148.1270  154.1800  132.9620 C   0  0  0  0  0  0  0  0  0  0  0  0
  149.1600  153.1060  132.7370 C   0  0  0  0  0  0  0  0  0  0  0  0
  150.3360  153.6900  132.3050 F   0  0  0  0  0  0  0  0  0  0  0  0
  148.7290  152.2030  131.7800 F   0  0  0  0  0  0  0  0  0  0  0  0
  149.4030  152.4110  133.9090 F   0  0  0  0  0  0  0  0  0  0  0  0
  148.4770  155.5430  132.8140 C   0  0  0  0  0  0  0  0  0  0  0  0
  147.4790  156.5120  132.9780 C   0  0  0  0  0  0  0  0  0  0  0  0
  149.2275  160.9206  131.9476 H   0  0  0  0  0  0  0  0  0  0  0  0
  150.1299  161.3571  130.4571 H   0  0  0  0  0  0  0  0  0  0  0  0
  148.3337  161.3743  130.4571 H   0  0  0  0  0  0  0  0  0  0  0  0
  148.2222  159.1616  130.0025 H   0  0  0  0  0  0  0  0  0  0  0  0
  149.9906  159.2583  129.6491 H   0  0  0  0  0  0  0  0  0  0  0  0
  147.9570  160.5850  133.3370 H   0  0  0  0  0  0  0  0  0  0  0  0
  146.6390  161.8030  133.3750 H   0  0  0  0  0  0  0  0  0  0  0  0
  144.3906  157.3919  133.6926 H   0  0  0  0  0  0  0  0  0  0  0  0
  144.7611  154.5609  133.6563 H   0  0  0  0  0  0  0  0  0  0  0  0
  146.4959  152.7728  133.3162 H   0  0  0  0  0  0  0  0  0  0  0  0
  149.5103  155.8352  132.5754 H   0  0  0  0  0  0  0  0  0  0  0  0
  1  2  1  0
  2  3  1  0
  3  4  1  0
  4  5  2  0
  4  6  1  0
  6  7  1  0
  7  8  1  0
  8  9  1  0
  8 10  2  0
  7 11  2  0
 11 12  1  0
 12 13  2  0
 13 14  1  0
 14 15  2  0
 15 16  1  0
 16 17  1  0
 16 18  1  0
 16 19  1  0
 15 20  1  0
 20 21  2  0
 21  6  1  0
 21 12  1  0
  1 22  1  0
  1 23  1  0
  1 24  1  0
  2 25  1  0
  2 26  1  0
  9 27  1  0
  9 28  1  0
 11 29  1  0
 13 30  1  0
 14 31  1  0
 20 32  1  0
M  END
>  <UniqueID>  (55) 
55

>  <SMILES>  (55) 
CCOC(=O)n1c(C(N)=O)cc2ccc(C(F)(F)F)cc21

>  <Energy>  (55) 
67.89773000475637

>  <Genealogy>  (55) 
CCOC(=O)n1c(C(N)=O)cc2ccc(C(F)(F)F)cc21 (3D coordinates assigned)
CCOC(=O)n1c(C(N)=O)cc2ccc(C(F)(F)F)cc21 (optimized conformer: 67.89773000475637 kcal/mol)

>  <smiles>  (55) 
CCOC(=O)n1c(C(N)=O)cc2ccc(C(F)(F)F)cc21

>  <score_type>  (55) 
oracle

>  <origin>  (55) 
adg

>  <m_score__min__energy>  (55) 
-6.0099999999999998

>  <m_primary>  (55) 
energy

$$$$
55:0
     RDKit          3D

 43 45  0  0  0  0  0  0  0  0999 V2000
  142.6510  158.9920  135.1660 C   0  0  0  0  0  0  0  0  0  0  0  0
  143.2440  159.5800  133.9260 C   0  0  0  0  0  0  0  0  0  0  0  0
  142.4790  159.9700  133.0050 O   0  0  0  0  0  0  0  0  0  0  0  0
  144.6680  159.7010  133.7730 N   0  0  0  0  0  0  0  0  0  0  0  0
  145.4130  160.8400  133.8160 C   0  0  0  0  0  0  0  0  0  0  0  0
  144.9050  162.1960  134.1120 C   0  0  0  0  0  0  0  0  0  0  0  0
  143.7700  162.6980  133.4100 N   0  0  0  0  0  0  0  0  0  0  0  0
  145.4780  162.9290  134.9610 O   0  0  0  0  0  0  0  0  0  0  0  0
  146.7620  160.5490  133.6210 C   0  0  0  0  0  0  0  0  0  0  0  0
  146.8200  159.1840  133.4590 C   0  0  0  0  0  0  0  0  0  0  0  0
  147.9160  158.3530  133.2480 C   0  0  0  0  0  0  0  0  0  0  0  0
  147.6820  156.9740  133.1150 C   0  0  0  0  0  0  0  0  0  0  0  0
  146.3640  156.4580  133.1730 C   0  0  0  0  0  0  0  0  0  0  0  0
  146.1220  154.9760  133.0600 C   0  0  0  0  0  0  0  0  0  0  0  0
  147.3890  154.1940  133.4780 C   0  0  0  0  0  0  0  0  0  0  0  0
  148.0470  153.4440  132.3780 N   0  0  0  0  0  0  0  0  0  0  0  0
  149.5220  153.5120  132.4280 C   0  0  0  0  0  0  0  0  0  0  0  0
  150.0570  152.0940  132.6070 C   0  0  0  0  0  0  0  0  0  0  0  0
  148.8480  151.2300  132.8860 C   0  0  0  0  0  0  0  0  0  0  0  0
  147.6770  152.0190  132.3340 C   0  0  0  0  0  0  0  0  0  0  0  0
  145.2780  157.3310  133.3960 C   0  0  0  0  0  0  0  0  0  0  0  0
  145.5420  158.6960  133.5500 C   0  0  0  0  0  0  0  0  0  0  0  0
  143.1164  159.4535  136.0494 H   0  0  0  0  0  0  0  0  0  0  0  0
  141.5678  159.1827  135.1805 H   0  0  0  0  0  0  0  0  0  0  0  0
  142.8325  157.9072  135.1805 H   0  0  0  0  0  0  0  0  0  0  0  0
  143.0620  162.0500  133.0020 H   0  0  0  0  0  0  0  0  0  0  0  0
  147.6016  161.2594  133.6009 H   0  0  0  0  0  0  0  0  0  0  0  0
  148.9348  158.7633  133.1872 H   0  0  0  0  0  0  0  0  0  0  0  0
  148.5296  156.2891  132.9645 H   0  0  0  0  0  0  0  0  0  0  0  0
  145.2870  154.6931  133.7178 H   0  0  0  0  0  0  0  0  0  0  0  0
  145.8775  154.7311  132.0159 H   0  0  0  0  0  0  0  0  0  0  0  0
  148.1158  154.9121  133.8856 H   0  0  0  0  0  0  0  0  0  0  0  0
  147.0624  153.4438  134.2132 H   0  0  0  0  0  0  0  0  0  0  0  0
  147.7300  153.8900  131.4820 H   0  0  0  0  0  0  0  0  0  0  0  0
  149.9073  153.9402  131.4909 H   0  0  0  0  0  0  0  0  0  0  0  0
  149.8457  154.1494  133.2640 H   0  0  0  0  0  0  0  0  0  0  0  0
  150.5650  151.7578  131.6911 H   0  0  0  0  0  0  0  0  0  0  0  0
  150.7916  152.0385  133.4238 H   0  0  0  0  0  0  0  0  0  0  0  0
  148.9379  150.2601  132.3750 H   0  0  0  0  0  0  0  0  0  0  0  0
  148.7329  151.0079  133.9572 H   0  0  0  0  0  0  0  0  0  0  0  0
  147.4743  151.7149  131.2965 H   0  0  0  0  0  0  0  0  0  0  0  0
  146.7696  151.8345  132.9278 H   0  0  0  0  0  0  0  0  0  0  0  0
  144.2484  156.9473  133.4475 H   0  0  0  0  0  0  0  0  0  0  0  0
  1  2  1  0
  2  3  2  0
  2  4  1  0
  4  5  1  0
  5  6  1  0
  6  7  1  0
  6  8  2  0
  5  9  2  0
  9 10  1  0
 10 11  2  0
 11 12  1  0
 12 13  2  0
 13 14  1  0
 14 15  1  0
 15 16  1  0
 16 17  1  0
 17 18  1  0
 18 19  1  0
 19 20  1  0
 13 21  1  0
 21 22  2  0
 22  4  1  0
 22 10  1  0
 20 16  1  0
  1 23  1  0
  1 24  1  0
  1 25  1  0
  7 26  1  0
  9 27  1  0
 11 28  1  0
 12 29  1  0
 14 30  1  0
 14 31  1  0
 15 32  1  0
 15 33  1  0
 16 34  1  0
 17 35  1  0
 17 36  1  0
 18 37  1  0
 18 38  1  0
 19 39  1  0
 19 40  1  0
 20 41  1  0
 20 42  1  0
 21 43  1  0
M  CHG  2   7  -1  16   1
M  END
>  <UniqueID>  (56) 
56

>  <SMILES>  (56) 
CC(=O)n1c(C([NH-])=O)cc2ccc(CC[NH+]3CCCC3)cc21

>  <Energy>  (56) 
86.39758763914249

>  <Genealogy>  (56) 
CC(=O)n1c(C([NH-])=O)cc2ccc(CC[NH+]3CCCC3)cc21 (protonated)
CC(=O)n1c(C([NH-])=O)cc2ccc(CC[NH+]3CCCC3)cc21 (3D coordinates assigned)
CC(=O)n1c(C([NH-])=O)cc2ccc(CC[NH+]3CCCC3)cc21 (nonaromatic ring conformer: 86.39758763914249 kcal/mol)

>  <smiles>  (56) 
CC(=O)n1c(C(N)=O)cc2ccc(CCN3CCCC3)cc21

>  <score_type>  (56) 
oracle

>  <origin>  (56) 
adg

>  <m_score__min__energy>  (56) 
-7.0800000000000001

>  <m_primary>  (56) 
energy

$$$$
56:0
     RDKit          3D

 30 31  0  0  0  0  0  0  0  0999 V2000
  148.1970  154.0500  133.4720 C   0  0  0  0  0  0  0  0  0  0  0  0
  147.8830  155.0240  132.4320 N   0  0  0  0  0  0  0  0  0  0  0  0
  147.7280  156.4330  132.6820 C   0  0  0  0  0  0  0  0  0  0  0  0
  148.8660  157.2740  132.6130 C   0  0  0  0  0  0  0  0  0  0  0  0
  148.7560  158.6570  132.8380 C   0  0  0  0  0  0  0  0  0  0  0  0
  147.4990  159.1700  133.1390 C   0  0  0  0  0  0  0  0  0  0  0  0
  147.1060  160.4680  133.3750 C   0  0  0  0  0  0  0  0  0  0  0  0
  145.7350  160.4010  133.6120 C   0  0  0  0  0  0  0  0  0  0  0  0
  144.9210  161.5730  133.9960 C   0  0  0  0  0  0  0  0  0  0  0  0
  143.5210  161.6130  133.7330 N   0  0  0  0  0  0  0  0  0  0  0  0
  145.4600  162.5340  134.6080 O   0  0  0  0  0  0  0  0  0  0  0  0
  145.2950  159.1140  133.5150 N   0  0  0  0  0  0  0  0  0  0  0  0
  143.9450  158.6340  133.6090 C   0  0  0  0  0  0  0  0  0  0  0  0
  143.4280  158.0170  132.6380 O   0  0  0  0  0  0  0  0  0  0  0  0
  143.2170  158.8340  134.7860 O   0  0  0  0  0  0  0  0  0  0  0  0
  141.8080  159.0240  134.7940 C   0  0  0  0  0  0  0  0  0  0  0  0
  146.3880  158.3720  133.2300 C   0  0  0  0  0  0  0  0  0  0  0  0
  146.4650  156.9950  132.9900 C   0  0  0  0  0  0  0  0  0  0  0  0
  148.0491  154.5088  134.4608 H   0  0  0  0  0  0  0  0  0  0  0  0
  147.5345  153.1779  133.3697 H   0  0  0  0  0  0  0  0  0  0  0  0
  149.2441  153.7290  133.3697 H   0  0  0  0  0  0  0  0  0  0  0  0
  147.7710  154.6690  131.4550 H   0  0  0  0  0  0  0  0  0  0  0  0
  149.8490  156.8387  132.3802 H   0  0  0  0  0  0  0  0  0  0  0  0
  149.6368  159.3132  132.7779 H   0  0  0  0  0  0  0  0  0  0  0  0
  147.7399  161.3670  133.3762 H   0  0  0  0  0  0  0  0  0  0  0  0
  142.9460  160.7420  133.7530 H   0  0  0  0  0  0  0  0  0  0  0  0
  141.4504  159.0722  135.8331 H   0  0  0  0  0  0  0  0  0  0  0  0
  141.5618  159.9635  134.2775 H   0  0  0  0  0  0  0  0  0  0  0  0
  141.3217  158.1833  134.2775 H   0  0  0  0  0  0  0  0  0  0  0  0
  145.5653  156.3640  133.0395 H   0  0  0  0  0  0  0  0  0  0  0  0
  1  2  1  0
  2  3  1  0
  3  4  2  0
  4  5  1  0
  5  6  2  0
  6  7  1  0
  7  8  2  0
  8  9  1  0
  9 10  1  0
  9 11  2  0
  8 12  1  0
 12 13  1  0
 13 14  2  0
 13 15  1  0
 15 16  1  0
 12 17  1  0
 17 18  2  0
 18  3  1  0
 17  6  1  0
  1 19  1  0
  1 20  1  0
  1 21  1  0
  2 22  1  0
  4 23  1  0
  5 24  1  0
  7 25  1  0
 10 26  1  0
 16 27  1  0
 16 28  1  0
 16 29  1  0
 18 30  1  0
M  CHG  1  10  -1
M  END
>  <UniqueID>  (57) 
57

>  <SMILES>  (57) 
CNc1ccc2cc(C([NH-])=O)n(C(=O)OC)c2c1

>  <Energy>  (57) 
66.09620657459749

>  <Genealogy>  (57) 
CNc1ccc2cc(C([NH-])=O)n(C(=O)OC)c2c1 (protonated)
CNc1ccc2cc(C([NH-])=O)n(C(=O)OC)c2c1 (3D coordinates assigned)
CNc1ccc2cc(C([NH-])=O)n(C(=O)OC)c2c1 (optimized conformer: 66.09620657459749 kcal/mol)

>  <smiles>  (57) 
CNc1ccc2cc(C(N)=O)n(C(=O)OC)c2c1

>  <score_type>  (57) 
oracle

>  <origin>  (57) 
adg

>  <m_score__min__energy>  (57) 
-5.7400000000000002

>  <m_primary>  (57) 
energy

$$$$
57:0
     RDKit          3D

 56 59  0  0  0  0  0  0  0  0999 V2000
  149.0500  154.2890  132.5930 C   0  0  0  0  0  0  0  0  0  0  0  0
  147.5360  154.3750  132.6860 C   0  0  0  0  0  0  0  0  0  0  0  0
  147.1240  155.7300  132.5420 O   0  0  0  0  0  0  0  0  0  0  0  0
  146.3290  156.3790  133.4890 C   0  0  0  0  0  0  0  0  0  0  0  0
  145.8610  155.7500  134.4770 O   0  0  0  0  0  0  0  0  0  0  0  0
  146.0950  157.7850  133.3650 N   0  0  0  0  0  0  0  0  0  0  0  0
  147.0200  158.7820  133.3110 C   0  0  0  0  0  0  0  0  0  0  0  0
  148.4850  158.5990  133.2860 C   0  0  0  0  0  0  0  0  0  0  0  0
  149.0970  157.5870  132.4860 N   0  0  0  0  0  0  0  0  0  0  0  0
  149.2140  159.3720  133.9620 O   0  0  0  0  0  0  0  0  0  0  0  0
  146.4010  160.0260  133.4160 C   0  0  0  0  0  0  0  0  0  0  0  0
  145.0560  159.7550  133.5430 C   0  0  0  0  0  0  0  0  0  0  0  0
  143.9780  160.6150  133.7180 C   0  0  0  0  0  0  0  0  0  0  0  0
  142.7020  160.0480  133.8810 C   0  0  0  0  0  0  0  0  0  0  0  0
  142.5310  158.6400  133.8830 C   0  0  0  0  0  0  0  0  0  0  0  0
  141.2230  158.0680  134.0700 N   0  0  0  0  0  0  0  0  0  0  0  0
  140.8460  156.8200  133.3970 C   0  0  0  0  0  0  0  0  0  0  0  0
  139.5800  157.0410  132.5580 C   0  0  0  0  0  0  0  0  0  0  0  0
  138.4700  157.8830  133.2780 C   0  0  0  0  0  0  0  0  0  0  0  0
  138.2250  159.1650  132.5560 N   0  0  0  0  0  0  0  0  0  0  0  0
  139.4490  159.7110  131.9310 C   0  0  0  0  0  0  0  0  0  0  0  0
  139.1080  160.1730  130.5190 C   0  0  0  0  0  0  0  0  0  0  0  0
  137.6060  160.0790  130.4290 C   0  0  0  0  0  0  0  0  0  0  0  0
  137.2480  159.0370  131.4640 C   0  0  0  0  0  0  0  0  0  0  0  0
  138.8440  158.1230  134.7670 C   0  0  0  0  0  0  0  0  0  0  0  0
  140.2290  158.7720  134.8960 C   0  0  0  0  0  0  0  0  0  0  0  0
  143.6510  157.8000  133.6950 C   0  0  0  0  0  0  0  0  0  0  0  0
  144.9040  158.3940  133.5240 C   0  0  0  0  0  0  0  0  0  0  0  0
  149.4788  154.2646  133.6057 H   0  0  0  0  0  0  0  0  0  0  0  0
  149.3328  153.3733  132.0530 H   0  0  0  0  0  0  0  0  0  0  0  0
  149.4346  155.1667  132.0530 H   0  0  0  0  0  0  0  0  0  0  0  0
  147.0853  153.7686  131.8866 H   0  0  0  0  0  0  0  0  0  0  0  0
  147.2085  153.9961  133.6654 H   0  0  0  0  0  0  0  0  0  0  0  0
  148.5690  157.1060  131.7280 H   0  0  0  0  0  0  0  0  0  0  0  0
  150.1250  157.4170  132.5580 H   0  0  0  0  0  0  0  0  0  0  0  0
  146.8836  161.0144  133.4007 H   0  0  0  0  0  0  0  0  0  0  0  0
  144.1191  161.7059  133.7286 H   0  0  0  0  0  0  0  0  0  0  0  0
  141.8274  160.7029  134.0083 H   0  0  0  0  0  0  0  0  0  0  0  0
  141.6672  156.4973  132.7401 H   0  0  0  0  0  0  0  0  0  0  0  0
  140.6488  156.0459  134.1533 H   0  0  0  0  0  0  0  0  0  0  0  0
  139.8657  157.5652  131.6341 H   0  0  0  0  0  0  0  0  0  0  0  0
  139.1492  156.0468  132.3683 H   0  0  0  0  0  0  0  0  0  0  0  0
  137.5303  157.3114  133.2599 H   0  0  0  0  0  0  0  0  0  0  0  0
  139.8182  160.5629  132.5209 H   0  0  0  0  0  0  0  0  0  0  0  0
  140.2305  158.9377  131.8955 H   0  0  0  0  0  0  0  0  0  0  0  0
  139.4406  161.2095  130.3606 H   0  0  0  0  0  0  0  0  0  0  0  0
  139.6066  159.5613  129.7527 H   0  0  0  0  0  0  0  0  0  0  0  0
  137.1378  161.0454  130.6674 H   0  0  0  0  0  0  0  0  0  0  0  0
  137.2557  159.8149  129.4203 H   0  0  0  0  0  0  0  0  0  0  0  0
  136.2311  159.2150  131.8437 H   0  0  0  0  0  0  0  0  0  0  0  0
  137.2732  158.0266  131.0300 H   0  0  0  0  0  0  0  0  0  0  0  0
  138.0937  158.7859  135.2226 H   0  0  0  0  0  0  0  0  0  0  0  0
  138.8668  157.1505  135.2806 H   0  0  0  0  0  0  0  0  0  0  0  0
  140.1666  159.8200  134.5678 H   0  0  0  0  0  0  0  0  0  0  0  0
  140.5452  158.7145  135.9480 H   0  0  0  0  0  0  0  0  0  0  0  0
  143.5395  156.7057  133.6835 H   0  0  0  0  0  0  0  0  0  0  0  0
  1  2  1  0
  2  3  1  0
  3  4  1  0
  4  5  2  0
  4  6  1  0
  6  7  1  0
  7  8  1  0
  8  9  1  0
  8 10  2  0
  7 11  2  0
 11 12  1  0
 12 13  2  0
 13 14  1  0
 14 15  2  0
 15 16  1  0
 16 17  1  0
 17 18  1  0
 18 19  1  0
 19 20  1  0
 20 21  1  0
 21 22  1  0
 22 23  1  0
 23 24  1  0
 19 25  1  0
 25 26  1  0
 15 27  1  0
 27 28  2  0
 28  6  1  0
 28 12  1  0
 26 16  1  0
 24 20  1  0
  1 29  1  0
  1 30  1  0
  1 31  1  0
  2 32  1  0
  2 33  1  0
  9 34  1  0
  9 35  1  0
 11 36  1  0
 13 37  1  0
 14 38  1  0
 17 39  1  0
 17 40  1  0
 18 41  1  0
 18 42  1  0
 19 43  1  0
 21 44  1  0
 21 45  1  0
 22 46  1  0
 22 47  1  0
 23 48  1  0
 23 49  1  0
 24 50  1  0
 24 51  1  0
 25 52  1  0
 25 53  1  0
 26 54  1  0
 26 55  1  0
 27 56  1  0
M  END
>  <UniqueID>  (58) 
58

>  <SMILES>  (58) 
CCOC(=O)n1c(C(N)=O)cc2ccc(N3CCC(N4CCCC4)CC3)cc21

>  <Energy>  (58) 
109.2230134305799

>  <Genealogy>  (58) 
CCOC(=O)n1c(C(N)=O)cc2ccc(N3CCC(N4CCCC4)CC3)cc21 (3D coordinates assigned)
CCOC(=O)n1c(C(N)=O)cc2ccc(N3CCC(N4CCCC4)CC3)cc21 (nonaromatic ring conformer: 109.2230134305799 kcal/mol)

>  <smiles>  (58) 
CCOC(=O)n1c(C(N)=O)cc2ccc(N3CCC(N4CCCC4)CC3)cc21

>  <score_type>  (58) 
oracle

>  <origin>  (58) 
adg

>  <m_score__min__energy>  (58) 
-9.3900000000000006

>  <m_primary>  (58) 
energy

$$$$
58:0
     RDKit          3D

 45 46  0  0  0  0  0  0  0  0999 V2000
  138.7250  160.2310  131.1110 C   0  0  0  0  0  0  0  0  0  0  0  0
  138.6860  158.7320  131.3630 C   0  0  0  0  0  0  0  0  0  0  0  0
  139.8040  158.3550  132.1580 O   0  0  0  0  0  0  0  0  0  0  0  0
  139.6860  157.9730  133.4990 C   0  0  0  0  0  0  0  0  0  0  0  0
  138.5450  157.9060  134.0350 O   0  0  0  0  0  0  0  0  0  0  0  0
  140.9100  157.5220  134.2620 C   0  0  2  0  0  0  0  0  0  0  0  0
  140.6610  157.2750  135.7750 C   0  0  0  0  0  0  0  0  0  0  0  0
  141.3710  158.2340  136.7690 C   0  0  0  0  0  0  0  0  0  0  0  0
  140.6300  159.5690  136.9320 C   0  0  0  0  0  0  0  0  0  0  0  0
  141.5020  157.5540  138.1390 C   0  0  0  0  0  0  0  0  0  0  0  0
  142.1340  158.3950  134.0220 C   0  0  0  0  0  0  0  0  0  0  0  0
  142.0370  159.8110  133.9350 C   0  0  0  0  0  0  0  0  0  0  0  0
  143.1810  160.6010  133.7390 C   0  0  0  0  0  0  0  0  0  0  0  0
  144.4110  159.9590  133.6550 C   0  0  0  0  0  0  0  0  0  0  0  0
  145.6680  160.4790  133.4480 C   0  0  0  0  0  0  0  0  0  0  0  0
  146.5270  159.3820  133.4530 C   0  0  0  0  0  0  0  0  0  0  0  0
  147.9960  159.5020  133.3500 C   0  0  0  0  0  0  0  0  0  0  0  0
  148.8490  158.9970  134.3730 N   0  0  0  0  0  0  0  0  0  0  0  0
  148.5040  160.1040  132.3660 O   0  0  0  0  0  0  0  0  0  0  0  0
  145.8280  158.2280  133.6470 N   0  0  0  0  0  0  0  0  0  0  0  0
  146.3270  156.8810  133.6360 C   0  0  0  0  0  0  0  0  0  0  0  0
  145.6950  155.9730  133.0340 O   0  0  0  0  0  0  0  0  0  0  0  0
  147.5000  156.5610  134.3090 O   0  0  0  0  0  0  0  0  0  0  0  0
  144.5330  158.5990  133.7710 C   0  0  0  0  0  0  0  0  0  0  0  0
  143.4090  157.7850  133.9470 C   0  0  0  0  0  0  0  0  0  0  0  0
  138.7389  160.7643  132.0730 H   0  0  0  0  0  0  0  0  0  0  0  0
  139.6300  160.4832  130.5388 H   0  0  0  0  0  0  0  0  0  0  0  0
  137.8343  160.5299  130.5388 H   0  0  0  0  0  0  0  0  0  0  0  0
  137.7566  158.4732  131.8913 H   0  0  0  0  0  0  0  0  0  0  0  0
  138.7228  158.1978  130.4021 H   0  0  0  0  0  0  0  0  0  0  0  0
  141.1400  156.5364  133.8311 H   0  0  0  0  0  0  0  0  0  0  0  0
  139.5782  157.3557  135.9512 H   0  0  0  0  0  0  0  0  0  0  0  0
  141.0894  156.2824  135.9781 H   0  0  0  0  0  0  0  0  0  0  0  0
  142.3644  158.4562  136.3521 H   0  0  0  0  0  0  0  0  0  0  0  0
  140.5065  159.7915  138.0022 H   0  0  0  0  0  0  0  0  0  0  0  0
  141.2116  160.3718  136.4553 H   0  0  0  0  0  0  0  0  0  0  0  0
  139.6411  159.5000  136.4553 H   0  0  0  0  0  0  0  0  0  0  0  0
  141.3582  158.3004  138.9341 H   0  0  0  0  0  0  0  0  0  0  0  0
  140.7389  156.7673  138.2323 H   0  0  0  0  0  0  0  0  0  0  0  0
  142.5028  157.1070  138.2323 H   0  0  0  0  0  0  0  0  0  0  0  0
  141.0525  160.2939  134.0224 H   0  0  0  0  0  0  0  0  0  0  0  0
  143.1062  161.6952  133.6544 H   0  0  0  0  0  0  0  0  0  0  0  0
  145.9375  161.5363  133.3082 H   0  0  0  0  0  0  0  0  0  0  0  0
  149.1640  158.0020  134.3670 H   0  0  0  0  0  0  0  0  0  0  0  0
  143.5139  156.6928  134.0255 H   0  0  0  0  0  0  0  0  0  0  0  0
  1  2  1  0
  2  3  1  0
  3  4  1  0
  4  5  2  0
  4  6  1  0
  6  7  1  0
  7  8  1  0
  8  9  1  0
  8 10  1  0
  6 11  1  0
 11 12  2  0
 12 13  1  0
 13 14  2  0
 14 15  1  0
 15 16  2  0
 16 17  1  0
 17 18  1  0
 17 19  2  0
 16 20  1  0
 20 21  1  0
 21 22  2  0
 21 23  1  0
 20 24  1  0
 24 25  2  0
 25 11  1  0
 24 14  1  0
  1 26  1  0
  1 27  1  0
  1 28  1  0
  2 29  1  0
  2 30  1  0
  6 31  1  6
  7 32  1  0
  7 33  1  0
  8 34  1  0
  9 35  1  0
  9 36  1  0
  9 37  1  0
 10 38  1  0
 10 39  1  0
 10 40  1  0
 12 41  1  0
 13 42  1  0
 15 43  1  0
 18 44  1  0
 25 45  1  0
M  CHG  2  18  -1  23  -1
M  END
>  <UniqueID>  (59) 
59

>  <SMILES>  (59) 
CCOC(=O)[C@H](CC(C)C)c1ccc2cc(C([NH-])=O)n(C(=O)[O-])c2c1

>  <Energy>  (59) 
78.40246093737869

>  <Genealogy>  (59) 
CCOC(=O)C(CC(C)C)c1ccc2cc(C([NH-])=O)n(C(=O)[O-])c2c1 (protonated)
CCOC(=O)[C@H](CC(C)C)c1ccc2cc(C([NH-])=O)n(C(=O)[O-])c2c1 (chirality)
CCOC(=O)[C@H](CC(C)C)c1ccc2cc(C([NH-])=O)n(C(=O)[O-])c2c1 (3D coordinates assigned)
CCOC(=O)[C@H](CC(C)C)c1ccc2cc(C([NH-])=O)n(C(=O)[O-])c2c1 (optimized conformer: 78.40246093737869 kcal/mol)

>  <smiles>  (59) 
CCOC(=O)C(CC(C)C)c1ccc2cc(C(N)=O)n(C(=O)O)c2c1

>  <score_type>  (59) 
oracle

>  <origin>  (59) 
adg

>  <m_score__min__energy>  (59) 
-7.5599999999999996

>  <m_primary>  (59) 
energy

$$$$
59:0
     RDKit          3D

 28 30  0  0  0  0  0  0  0  0999 V2000
  143.1380  160.7040  133.3620 N   0  0  0  0  0  0  0  0  0  0  0  0
  144.5120  160.8800  133.6960 C   0  0  0  0  0  0  0  0  0  0  0  0
  144.8720  161.9250  134.2990 O   0  0  0  0  0  0  0  0  0  0  0  0
  145.5070  159.8280  133.3970 C   0  0  0  0  0  0  0  0  0  0  0  0
  146.8430  160.0980  133.1130 C   0  0  0  0  0  0  0  0  0  0  0  0
  147.4460  158.8670  132.9900 C   0  0  0  0  0  0  0  0  0  0  0  0
  148.7670  158.5440  132.7000 C   0  0  0  0  0  0  0  0  0  0  0  0
  149.1090  157.1850  132.6030 C   0  0  0  0  0  0  0  0  0  0  0  0
  148.1270  156.1750  132.7890 C   0  0  0  0  0  0  0  0  0  0  0  0
  148.4700  154.7380  132.6780 C   0  0  0  0  0  0  0  0  0  0  0  0
  147.6560  153.6570  132.9780 C   0  0  0  0  0  0  0  0  0  0  0  0
  148.4090  152.5340  132.7160 C   0  0  0  0  0  0  0  0  0  0  0  0
  149.6330  152.9880  132.2720 C   0  0  0  0  0  0  0  0  0  0  0  0
  149.6370  154.3010  132.2600 O   0  0  0  0  0  0  0  0  0  0  0  0
  146.7940  156.5470  133.0810 C   0  0  0  0  0  0  0  0  0  0  0  0
  146.4870  157.9090  133.1910 C   0  0  0  0  0  0  0  0  0  0  0  0
  145.2880  158.4830  133.4400 N   0  0  0  0  0  0  0  0  0  0  0  0
  144.0350  157.8020  133.6070 C   0  0  0  0  0  0  0  0  0  0  0  0
  143.8150  157.1170  134.6400 O   0  0  0  0  0  0  0  0  0  0  0  0
  143.0620  157.8710  132.6170 O   0  0  0  0  0  0  0  0  0  0  0  0
  142.8500  160.0500  132.6010 H   0  0  0  0  0  0  0  0  0  0  0  0
  147.3161  161.0856  133.0090 H   0  0  0  0  0  0  0  0  0  0  0  0
  149.5222  159.3298  132.5509 H   0  0  0  0  0  0  0  0  0  0  0  0
  150.1478  156.8997  132.3807 H   0  0  0  0  0  0  0  0  0  0  0  0
  146.6210  153.6894  133.3492 H   0  0  0  0  0  0  0  0  0  0  0  0
  148.0969  151.4861  132.8366 H   0  0  0  0  0  0  0  0  0  0  0  0
  150.4767  152.3483  131.9736 H   0  0  0  0  0  0  0  0  0  0  0  0
  146.0150  155.7827  133.2188 H   0  0  0  0  0  0  0  0  0  0  0  0
  1  2  1  0
  2  3  2  0
  2  4  1  0
  4  5  2  0
  5  6  1  0
  6  7  2  0
  7  8  1  0
  8  9  2  0
  9 10  1  0
 10 11  2  0
 11 12  1  0
 12 13  2  0
 13 14  1  0
  9 15  1  0
 15 16  2  0
 16 17  1  0
 17 18  1  0
 18 19  2  0
 18 20  1  0
 17  4  1  0
 16  6  1  0
 14 10  1  0
  1 21  1  0
  5 22  1  0
  7 23  1  0
  8 24  1  0
 11 25  1  0
 12 26  1  0
 13 27  1  0
 15 28  1  0
M  CHG  2   1  -1  20  -1
M  END
>  <UniqueID>  (60) 
60

>  <SMILES>  (60) 
[NH-]C(=O)c1cc2ccc(-c3ccco3)cc2n1C(=O)[O-]

>  <Energy>  (60) 
97.78577780912131

>  <Genealogy>  (60) 
[NH-]C(=O)c1cc2ccc(-c3ccco3)cc2n1C(=O)[O-] (protonated)
[NH-]C(=O)c1cc2ccc(-c3ccco3)cc2n1C(=O)[O-] (3D coordinates assigned)
[NH-]C(=O)c1cc2ccc(-c3ccco3)cc2n1C(=O)[O-] (optimized conformer: 97.78577780912131 kcal/mol)

>  <smiles>  (60) 
NC(=O)c1cc2ccc(-c3ccco3)cc2n1C(=O)O

>  <score_type>  (60) 
oracle

>  <origin>  (60) 
adg

>  <m_score__min__energy>  (60) 
-6.4699999999999998

>  <m_primary>  (60) 
energy

$$$$
60:0
     RDKit          3D

 41 43  0  0  0  0  0  0  0  0999 V2000
  149.2770  159.3770  131.2550 C   0  0  0  0  0  0  0  0  0  0  0  0
  148.1170  160.2330  131.7490 C   0  0  0  0  0  0  0  0  0  0  0  0
  147.7240  159.8280  133.1380 C   0  0  0  0  0  0  0  0  0  0  0  0
  148.4860  160.0940  134.1050 O   0  0  0  0  0  0  0  0  0  0  0  0
  146.4390  159.2450  133.3870 N   0  0  0  0  0  0  0  0  0  0  0  0
  145.2810  159.8790  133.7180 C   0  0  0  0  0  0  0  0  0  0  0  0
  145.0890  161.3420  133.7780 C   0  0  0  0  0  0  0  0  0  0  0  0
  146.1760  162.1870  134.1510 N   0  0  0  0  0  0  0  0  0  0  0  0
  143.9670  161.8560  133.5220 O   0  0  0  0  0  0  0  0  0  0  0  0
  144.2650  158.9500  133.9400 C   0  0  0  0  0  0  0  0  0  0  0  0
  144.8460  157.7180  133.7290 C   0  0  0  0  0  0  0  0  0  0  0  0
  144.3040  156.4410  133.8210 C   0  0  0  0  0  0  0  0  0  0  0  0
  145.1490  155.3460  133.5690 C   0  0  0  0  0  0  0  0  0  0  0  0
  146.5150  155.5430  133.2330 C   0  0  0  0  0  0  0  0  0  0  0  0
  147.4010  154.3790  132.9780 C   0  0  0  0  0  0  0  0  0  0  0  0
  148.7340  154.5650  132.5810 C   0  0  0  0  0  0  0  0  0  0  0  0
  149.5560  153.4620  132.3470 C   0  0  0  0  0  0  0  0  0  0  0  0
  149.0470  152.1720  132.5060 C   0  0  0  0  0  0  0  0  0  0  0  0
  149.8970  151.0830  132.2630 O   0  0  0  0  0  0  0  0  0  0  0  0
  150.3130  150.6690  130.9670 C   0  0  0  0  0  0  0  0  0  0  0  0
  147.7460  152.0030  132.8930 N   0  0  0  0  0  0  0  0  0  0  0  0
  146.9280  153.0640  133.1280 C   0  0  0  0  0  0  0  0  0  0  0  0
  147.0250  156.8600  133.1480 C   0  0  0  0  0  0  0  0  0  0  0  0
  146.1580  157.9260  133.3970 C   0  0  0  0  0  0  0  0  0  0  0  0
  149.8266  158.9714  132.1172 H   0  0  0  0  0  0  0  0  0  0  0  0
  148.8876  158.5482  130.6456 H   0  0  0  0  0  0  0  0  0  0  0  0
  149.9541  159.9935  130.6456 H   0  0  0  0  0  0  0  0  0  0  0  0
  148.4219  161.2899  131.7521 H   0  0  0  0  0  0  0  0  0  0  0  0
  147.2568  160.0901  131.0785 H   0  0  0  0  0  0  0  0  0  0  0  0
  147.1110  161.7860  134.3860 H   0  0  0  0  0  0  0  0  0  0  0  0
  143.2223  159.1564  134.2231 H   0  0  0  0  0  0  0  0  0  0  0  0
  143.2461  156.2919  134.0830 H   0  0  0  0  0  0  0  0  0  0  0  0
  144.7473  154.3240  133.6328 H   0  0  0  0  0  0  0  0  0  0  0  0
  149.1318  155.5826  132.4540 H   0  0  0  0  0  0  0  0  0  0  0  0
  150.6016  153.6086  132.0383 H   0  0  0  0  0  0  0  0  0  0  0  0
  151.0899  149.8959  131.0608 H   0  0  0  0  0  0  0  0  0  0  0  0
  149.4519  150.2589  130.4191 H   0  0  0  0  0  0  0  0  0  0  0  0
  150.7189  151.5321  130.4191 H   0  0  0  0  0  0  0  0  0  0  0  0
  147.3480  151.0450  133.0130 H   0  0  0  0  0  0  0  0  0  0  0  0
  145.8869  152.8913  133.4383 H   0  0  0  0  0  0  0  0  0  0  0  0
  148.0795  157.0400  132.8918 H   0  0  0  0  0  0  0  0  0  0  0  0
  1  2  1  0
  2  3  1  0
  3  4  2  0
  3  5  1  0
  5  6  1  0
  6  7  1  0
  7  8  1  0
  7  9  2  0
  6 10  2  0
 10 11  1  0
 11 12  2  0
 12 13  1  0
 13 14  2  0
 14 15  1  0
 15 16  2  0
 16 17  1  0
 17 18  2  0
 18 19  1  0
 19 20  1  0
 18 21  1  0
 21 22  2  0
 14 23  1  0
 23 24  2  0
 24  5  1  0
 24 11  1  0
 22 15  1  0
  1 25  1  0
  1 26  1  0
  1 27  1  0
  2 28  1  0
  2 29  1  0
  8 30  1  0
 10 31  1  0
 12 32  1  0
 13 33  1  0
 16 34  1  0
 17 35  1  0
 20 36  1  0
 20 37  1  0
 20 38  1  0
 21 39  1  0
 22 40  1  0
 23 41  1  0
M  CHG  2   8  -1  21   1
M  END
>  <UniqueID>  (61) 
61

>  <SMILES>  (61) 
CCC(=O)n1c(C([NH-])=O)cc2ccc(-c3ccc(OC)[nH+]c3)cc21

>  <Energy>  (61) 
83.258589573303

>  <Genealogy>  (61) 
CCC(=O)n1c(C([NH-])=O)cc2ccc(-c3ccc(OC)[nH+]c3)cc21 (protonated)
CCC(=O)n1c(C([NH-])=O)cc2ccc(-c3ccc(OC)[nH+]c3)cc21 (3D coordinates assigned)
CCC(=O)n1c(C([NH-])=O)cc2ccc(-c3ccc(OC)[nH+]c3)cc21 (optimized conformer: 83.258589573303 kcal/mol)

>  <smiles>  (61) 
CCC(=O)n1c(C(N)=O)cc2ccc(-c3ccc(OC)nc3)cc21

>  <score_type>  (61) 
oracle

>  <origin>  (61) 
adg

>  <m_score__min__energy>  (61) 
-7.2999999999999998

>  <m_primary>  (61) 
energy

$$$$
61:0
     RDKit          3D

 45 47  0  0  0  0  0  0  0  0999 V2000
  149.2370  154.8100  138.7820 C   0  0  0  0  0  0  0  0  0  0  0  0
  148.8460  153.9920  137.5570 C   0  0  0  0  0  0  0  0  0  0  0  0
  147.9280  154.7190  136.7430 O   0  0  0  0  0  0  0  0  0  0  0  0
  146.7090  154.1940  136.3010 C   0  0  0  0  0  0  0  0  0  0  0  0
  146.2850  153.0900  136.7360 O   0  0  0  0  0  0  0  0  0  0  0  0
  145.9320  154.9310  135.2590 C   0  0  0  0  0  0  0  0  0  0  0  0
  146.8760  155.6280  134.3210 C   0  0  0  0  0  0  0  0  0  0  0  0
  147.9800  154.9300  133.7710 C   0  0  0  0  0  0  0  0  0  0  0  0
  148.8830  155.5820  132.9160 C   0  0  0  0  0  0  0  0  0  0  0  0
  148.6710  156.9310  132.6470 C   0  0  0  0  0  0  0  0  0  0  0  0
  149.3770  157.7910  131.8390 C   0  0  0  0  0  0  0  0  0  0  0  0
  148.7200  159.0140  131.9420 C   0  0  0  0  0  0  0  0  0  0  0  0
  149.1860  160.2460  131.2760 C   0  0  0  0  0  0  0  0  0  0  0  0
  148.4770  161.4780  131.4160 N   0  0  0  0  0  0  0  0  0  0  0  0
  150.2590  160.2240  130.6170 O   0  0  0  0  0  0  0  0  0  0  0  0
  147.6420  158.9140  132.7700 N   0  0  0  0  0  0  0  0  0  0  0  0
  146.6580  159.9270  133.0370 C   0  0  0  0  0  0  0  0  0  0  0  0
  146.9480  160.9120  133.7690 O   0  0  0  0  0  0  0  0  0  0  0  0
  145.3620  159.7800  132.5230 O   0  0  0  0  0  0  0  0  0  0  0  0
  144.2570  159.2940  133.2380 C   0  0  0  0  0  0  0  0  0  0  0  0
  143.8290  157.9560  133.1420 C   0  0  0  0  0  0  0  0  0  0  0  0
  142.7310  157.5140  133.8870 C   0  0  0  0  0  0  0  0  0  0  0  0
  142.0600  158.3970  134.7370 C   0  0  0  0  0  0  0  0  0  0  0  0
  142.4920  159.7210  134.8510 C   0  0  0  0  0  0  0  0  0  0  0  0
  143.5900  160.1660  134.1080 C   0  0  0  0  0  0  0  0  0  0  0  0
  147.6270  157.6310  133.1960 C   0  0  0  0  0  0  0  0  0  0  0  0
  146.6970  156.9990  134.0320 C   0  0  0  0  0  0  0  0  0  0  0  0
  148.9716  154.2547  139.6937 H   0  0  0  0  0  0  0  0  0  0  0  0
  150.3212  154.9955  138.7682 H   0  0  0  0  0  0  0  0  0  0  0  0
  148.7005  155.7702  138.7682 H   0  0  0  0  0  0  0  0  0  0  0  0
  149.7484  153.7647  136.9705 H   0  0  0  0  0  0  0  0  0  0  0  0
  148.3654  153.0603  137.8901 H   0  0  0  0  0  0  0  0  0  0  0  0
  145.3133  154.2192  134.6928 H   0  0  0  0  0  0  0  0  0  0  0  0
  145.2862  155.6765  135.7459 H   0  0  0  0  0  0  0  0  0  0  0  0
  148.1308  153.8683  134.0160 H   0  0  0  0  0  0  0  0  0  0  0  0
  149.7327  155.0427  132.4720 H   0  0  0  0  0  0  0  0  0  0  0  0
  150.2702  157.5616  131.2393 H   0  0  0  0  0  0  0  0  0  0  0  0
  147.6850  161.5700  132.0900 H   0  0  0  0  0  0  0  0  0  0  0  0
  148.7960  162.3280  130.9010 H   0  0  0  0  0  0  0  0  0  0  0  0
  144.3596  157.2565  132.4793 H   0  0  0  0  0  0  0  0  0  0  0  0
  142.3952  156.4698  133.8037 H   0  0  0  0  0  0  0  0  0  0  0  0
  141.1917  158.0499  135.3164 H   0  0  0  0  0  0  0  0  0  0  0  0
  141.9679  160.4138  135.5258 H   0  0  0  0  0  0  0  0  0  0  0  0
  143.9318  161.2068  134.2073 H   0  0  0  0  0  0  0  0  0  0  0  0
  145.8478  157.5571  134.4532 H   0  0  0  0  0  0  0  0  0  0  0  0
  1  2  1  0
  2  3  1  0
  3  4  1  0
  4  5  2  0
  4  6  1  0
  6  7  1  0
  7  8  2  0
  8  9  1  0
  9 10  2  0
 10 11  1  0
 11 12  2  0
 12 13  1  0
 13 14  1  0
 13 15  2  0
 12 16  1  0
 16 17  1  0
 17 18  2  0
 17 19  1  0
 19 20  1  0
 20 21  2  0
 21 22  1  0
 22 23  2  0
 23 24  1  0
 24 25  2  0
 16 26  1  0
 26 27  2  0
 27  7  1  0
 26 10  1  0
 25 20  1  0
  1 28  1  0
  1 29  1  0
  1 30  1  0
  2 31  1  0
  2 32  1  0
  6 33  1  0
  6 34  1  0
  8 35  1  0
  9 36  1  0
 11 37  1  0
 14 38  1  0
 14 39  1  0
 21 40  1  0
 22 41  1  0
 23 42  1  0
 24 43  1  0
 25 44  1  0
 27 45  1  0
M  END
>  <UniqueID>  (62) 
62

>  <SMILES>  (62) 
CCOC(=O)Cc1ccc2cc(C(N)=O)n(C(=O)Oc3ccccc3)c2c1

>  <Energy>  (62) 
84.41390284948137

>  <Genealogy>  (62) 
CCOC(=O)Cc1ccc2cc(C(N)=O)n(C(=O)Oc3ccccc3)c2c1 (3D coordinates assigned)
CCOC(=O)Cc1ccc2cc(C(N)=O)n(C(=O)Oc3ccccc3)c2c1 (optimized conformer: 84.41390284948137 kcal/mol)

>  <smiles>  (62) 
CCOC(=O)Cc1ccc2cc(C(N)=O)n(C(=O)Oc3ccccc3)c2c1

>  <score_type>  (62) 
oracle

>  <origin>  (62) 
adg

>  <m_score__min__energy>  (62) 
-8.2599999999999998

>  <m_primary>  (62) 
energy

$$$$
62:0
     RDKit          3D

 38 39  0  0  0  0  0  0  0  0999 V2000
  149.6240  160.8610  129.2540 C   0  0  0  0  0  0  0  0  0  0  0  0
  149.2020  161.4230  130.6100 C   0  0  0  0  0  0  0  0  0  0  0  0
  148.4900  160.3560  131.4540 C   0  0  0  0  0  0  0  0  0  0  0  0
  149.0000  158.9410  131.1470 C   0  0  0  0  0  0  0  0  0  0  0  0
  148.7980  158.0360  132.2340 O   0  0  0  0  0  0  0  0  0  0  0  0
  148.1550  158.3860  133.4270 C   0  0  0  0  0  0  0  0  0  0  0  0
  148.8250  158.8210  134.4010 O   0  0  0  0  0  0  0  0  0  0  0  0
  146.7230  158.2830  133.5300 N   0  0  0  0  0  0  0  0  0  0  0  0
  145.9560  157.1790  133.3100 C   0  0  0  0  0  0  0  0  0  0  0  0
  146.4560  155.8120  133.0940 C   0  0  0  0  0  0  0  0  0  0  0  0
  147.3540  155.5240  132.0220 N   0  0  0  0  0  0  0  0  0  0  0  0
  146.1330  154.8970  133.8960 O   0  0  0  0  0  0  0  0  0  0  0  0
  144.6020  157.4960  133.3530 C   0  0  0  0  0  0  0  0  0  0  0  0
  144.5560  158.8460  133.6140 C   0  0  0  0  0  0  0  0  0  0  0  0
  143.4590  159.6890  133.7440 C   0  0  0  0  0  0  0  0  0  0  0  0
  143.7010  161.0560  133.9620 C   0  0  0  0  0  0  0  0  0  0  0  0
  145.0260  161.5560  134.0190 C   0  0  0  0  0  0  0  0  0  0  0  0
  145.2750  163.0220  134.2760 C   0  0  0  0  0  0  0  0  0  0  0  0
  145.2970  163.2470  135.6390 F   0  0  0  0  0  0  0  0  0  0  0  0
  146.4860  163.4130  133.7350 F   0  0  0  0  0  0  0  0  0  0  0  0
  144.2780  163.7950  133.7090 F   0  0  0  0  0  0  0  0  0  0  0  0
  146.1160  160.6600  133.9090 C   0  0  0  0  0  0  0  0  0  0  0  0
  145.8470  159.3000  133.7130 C   0  0  0  0  0  0  0  0  0  0  0  0
  150.2782  159.9898  129.4057 H   0  0  0  0  0  0  0  0  0  0  0  0
  148.7307  160.5549  128.6898 H   0  0  0  0  0  0  0  0  0  0  0  0
  150.1671  161.6335  128.6898 H   0  0  0  0  0  0  0  0  0  0  0  0
  150.0960  161.7697  131.1491 H   0  0  0  0  0  0  0  0  0  0  0  0
  148.5047  162.2567  130.4407 H   0  0  0  0  0  0  0  0  0  0  0  0
  148.6633  160.5722  132.5185 H   0  0  0  0  0  0  0  0  0  0  0  0
  147.4182  160.3901  131.2088 H   0  0  0  0  0  0  0  0  0  0  0  0
  148.4655  158.5575  130.2654 H   0  0  0  0  0  0  0  0  0  0  0  0
  150.0831  159.0091  130.9672 H   0  0  0  0  0  0  0  0  0  0  0  0
  147.7800  156.2970  131.4630 H   0  0  0  0  0  0  0  0  0  0  0  0
  147.6540  154.5410  131.8420 H   0  0  0  0  0  0  0  0  0  0  0  0
  143.7511  156.8138  133.2092 H   0  0  0  0  0  0  0  0  0  0  0  0
  142.4328  159.2983  133.6783 H   0  0  0  0  0  0  0  0  0  0  0  0
  142.8532  161.7452  134.0898 H   0  0  0  0  0  0  0  0  0  0  0  0
  147.1518  161.0241  133.9760 H   0  0  0  0  0  0  0  0  0  0  0  0
  1  2  1  0
  2  3  1  0
  3  4  1  0
  4  5  1  0
  5  6  1  0
  6  7  2  0
  6  8  1  0
  8  9  1  0
  9 10  1  0
 10 11  1  0
 10 12  2  0
  9 13  2  0
 13 14  1  0
 14 15  2  0
 15 16  1  0
 16 17  2  0
 17 18  1  0
 18 19  1  0
 18 20  1  0
 18 21  1  0
 17 22  1  0
 22 23  2  0
 23  8  1  0
 23 14  1  0
  1 24  1  0
  1 25  1  0
  1 26  1  0
  2 27  1  0
  2 28  1  0
  3 29  1  0
  3 30  1  0
  4 31  1  0
  4 32  1  0
 11 33  1  0
 11 34  1  0
 13 35  1  0
 15 36  1  0
 16 37  1  0
 22 38  1  0
M  END
>  <UniqueID>  (63) 
63

>  <SMILES>  (63) 
CCCCOC(=O)n1c(C(N)=O)cc2ccc(C(F)(F)F)cc21

>  <Energy>  (63) 
70.91400859992306

>  <Genealogy>  (63) 
CCCCOC(=O)n1c(C(N)=O)cc2ccc(C(F)(F)F)cc21 (3D coordinates assigned)
CCCCOC(=O)n1c(C(N)=O)cc2ccc(C(F)(F)F)cc21 (optimized conformer: 70.91400859992306 kcal/mol)

>  <smiles>  (63) 
CCCCOC(=O)n1c(C(N)=O)cc2ccc(C(F)(F)F)cc21

>  <score_type>  (63) 
oracle

>  <origin>  (63) 
adg

>  <m_score__min__energy>  (63) 
-6.7199999999999998

>  <m_primary>  (63) 
energy

$$$$
63:0
     RDKit          3D

 38 40  0  0  0  0  0  0  0  0999 V2000
  148.6870  159.0850  133.6610 C   0  0  0  0  0  0  0  0  0  0  0  0
  147.4070  159.2930  132.9140 C   0  0  0  0  0  0  0  0  0  0  0  0
  147.3580  160.1630  132.0060 O   0  0  0  0  0  0  0  0  0  0  0  0
  146.2200  158.5710  133.2750 N   0  0  0  0  0  0  0  0  0  0  0  0
  144.9950  159.0720  133.6020 C   0  0  0  0  0  0  0  0  0  0  0  0
  144.6690  160.5000  133.8020 C   0  0  0  0  0  0  0  0  0  0  0  0
  145.6930  161.4580  134.0530 N   0  0  0  0  0  0  0  0  0  0  0  0
  143.4650  160.8710  133.7930 O   0  0  0  0  0  0  0  0  0  0  0  0
  144.0840  158.0370  133.8050 C   0  0  0  0  0  0  0  0  0  0  0  0
  144.7980  156.8780  133.6030 C   0  0  0  0  0  0  0  0  0  0  0  0
  144.3910  155.5500  133.6700 C   0  0  0  0  0  0  0  0  0  0  0  0
  145.3430  154.5540  133.3940 C   0  0  0  0  0  0  0  0  0  0  0  0
  146.6780  154.8970  133.0500 C   0  0  0  0  0  0  0  0  0  0  0  0
  147.6730  153.8350  132.7530 C   0  0  0  0  0  0  0  0  0  0  0  0
  147.2690  152.4950  132.6160 C   0  0  0  0  0  0  0  0  0  0  0  0
  148.2070  151.4980  132.3370 C   0  0  0  0  0  0  0  0  0  0  0  0
  149.5620  151.8140  132.1890 C   0  0  0  0  0  0  0  0  0  0  0  0
  150.4610  150.7730  131.9090 O   0  0  0  0  0  0  0  0  0  0  0  0
  150.6390  150.1780  130.6260 C   0  0  0  0  0  0  0  0  0  0  0  0
  149.8120  150.7910  129.7020 F   0  0  0  0  0  0  0  0  0  0  0  0
  151.9520  150.3430  130.2300 F   0  0  0  0  0  0  0  0  0  0  0  0
  149.9700  153.1530  132.3230 C   0  0  0  0  0  0  0  0  0  0  0  0
  149.0340  154.1530  132.6030 C   0  0  0  0  0  0  0  0  0  0  0  0
  147.0500  156.2610  132.9920 C   0  0  0  0  0  0  0  0  0  0  0  0
  146.0840  157.2290  133.2850 C   0  0  0  0  0  0  0  0  0  0  0  0
  148.4896  159.1171  134.7427 H   0  0  0  0  0  0  0  0  0  0  0  0
  149.1120  158.1060  133.3947 H   0  0  0  0  0  0  0  0  0  0  0  0
  149.4001  159.8791  133.3947 H   0  0  0  0  0  0  0  0  0  0  0  0
  146.4600  161.6180  133.3630 H   0  0  0  0  0  0  0  0  0  0  0  0
  143.0203  158.1273  134.0703 H   0  0  0  0  0  0  0  0  0  0  0  0
  143.3553  155.2872  133.9311 H   0  0  0  0  0  0  0  0  0  0  0  0
  145.0507  153.4948  133.4450 H   0  0  0  0  0  0  0  0  0  0  0  0
  146.2074  152.2301  132.7293 H   0  0  0  0  0  0  0  0  0  0  0  0
  147.8770  150.4539  132.2326 H   0  0  0  0  0  0  0  0  0  0  0  0
  150.3903  149.1081  130.6856 H   0  0  0  0  0  0  0  0  0  0  0  0
  151.0320  153.4152  132.2068 H   0  0  0  0  0  0  0  0  0  0  0  0
  149.3652  155.1968  132.7067 H   0  0  0  0  0  0  0  0  0  0  0  0
  148.0756  156.5534  132.7226 H   0  0  0  0  0  0  0  0  0  0  0  0
  1  2  1  0
  2  3  2  0
  2  4  1  0
  4  5  1  0
  5  6  1  0
  6  7  1  0
  6  8  2  0
  5  9  2  0
  9 10  1  0
 10 11  2  0
 11 12  1  0
 12 13  2  0
 13 14  1  0
 14 15  2  0
 15 16  1  0
 16 17  2  0
 17 18  1  0
 18 19  1  0
 19 20  1  0
 19 21  1  0
 17 22  1  0
 22 23  2  0
 13 24  1  0
 24 25  2  0
 25  4  1  0
 25 10  1  0
 23 14  1  0
  1 26  1  0
  1 27  1  0
  1 28  1  0
  7 29  1  0
  9 30  1  0
 11 31  1  0
 12 32  1  0
 15 33  1  0
 16 34  1  0
 19 35  1  0
 22 36  1  0
 23 37  1  0
 24 38  1  0
M  CHG  1   7  -1
M  END
>  <UniqueID>  (64) 
64

>  <SMILES>  (64) 
CC(=O)n1c(C([NH-])=O)cc2ccc(-c3ccc(OC(F)F)cc3)cc21

>  <Energy>  (64) 
84.63991689242809

>  <Genealogy>  (64) 
CC(=O)n1c(C([NH-])=O)cc2ccc(-c3ccc(OC(F)F)cc3)cc21 (protonated)
CC(=O)n1c(C([NH-])=O)cc2ccc(-c3ccc(OC(F)F)cc3)cc21 (3D coordinates assigned)
CC(=O)n1c(C([NH-])=O)cc2ccc(-c3ccc(OC(F)F)cc3)cc21 (optimized conformer: 84.63991689242809 kcal/mol)

>  <smiles>  (64) 
CC(=O)n1c(C(N)=O)cc2ccc(-c3ccc(OC(F)F)cc3)cc21

>  <score_type>  (64) 
oracle

>  <origin>  (64) 
adg

>  <m_score__min__energy>  (64) 
-7.5099999999999998

>  <m_primary>  (64) 
energy

$$$$
64:0
     RDKit          3D

 40 42  0  0  0  0  0  0  0  0999 V2000
  147.3240  155.2380  135.1510 C   0  0  0  0  0  0  0  0  0  0  0  0
  146.2240  155.8670  134.5060 O   0  0  0  0  0  0  0  0  0  0  0  0
  146.3490  156.5410  133.2870 C   0  0  0  0  0  0  0  0  0  0  0  0
  146.5790  155.8970  132.2270 O   0  0  0  0  0  0  0  0  0  0  0  0
  146.2150  157.9720  133.2460 N   0  0  0  0  0  0  0  0  0  0  0  0
  147.2080  158.8870  133.0590 C   0  0  0  0  0  0  0  0  0  0  0  0
  148.6040  158.5850  132.6870 C   0  0  0  0  0  0  0  0  0  0  0  0
  148.9240  157.4680  131.8560 N   0  0  0  0  0  0  0  0  0  0  0  0
  149.5260  159.3590  133.0610 O   0  0  0  0  0  0  0  0  0  0  0  0
  146.7200  160.1810  133.2180 C   0  0  0  0  0  0  0  0  0  0  0  0
  145.3820  160.0330  133.4980 C   0  0  0  0  0  0  0  0  0  0  0  0
  144.4130  160.9950  133.7590 C   0  0  0  0  0  0  0  0  0  0  0  0
  143.1110  160.5580  134.0560 C   0  0  0  0  0  0  0  0  0  0  0  0
  142.8040  159.1720  134.1000 C   0  0  0  0  0  0  0  0  0  0  0  0
  141.4810  158.7000  134.4210 N   0  0  0  0  0  0  0  0  0  0  0  0
  140.6570  157.8780  133.5330 C   0  0  0  0  0  0  0  0  0  0  0  0
  139.7790  158.7440  132.6670 C   0  0  0  0  0  0  0  0  0  0  0  0
  138.7470  158.1740  131.9080 C   0  0  0  0  0  0  0  0  0  0  0  0
  137.9440  158.9820  131.1020 C   0  0  0  0  0  0  0  0  0  0  0  0
  138.1870  160.3570  131.0550 C   0  0  0  0  0  0  0  0  0  0  0  0
  139.1980  160.8940  131.7870 N   0  0  0  0  0  0  0  0  0  0  0  0
  139.9940  160.1280  132.5800 C   0  0  0  0  0  0  0  0  0  0  0  0
  143.8180  158.2270  133.8250 C   0  0  0  0  0  0  0  0  0  0  0  0
  145.1010  158.6910  133.5110 C   0  0  0  0  0  0  0  0  0  0  0  0
  147.1993  155.3093  136.2416 H   0  0  0  0  0  0  0  0  0  0  0  0
  147.3660  154.1794  134.8552 H   0  0  0  0  0  0  0  0  0  0  0  0
  148.2577  155.7387  134.8552 H   0  0  0  0  0  0  0  0  0  0  0  0
  149.9200  157.2470  131.6360 H   0  0  0  0  0  0  0  0  0  0  0  0
  148.1740  156.9080  131.3950 H   0  0  0  0  0  0  0  0  0  0  0  0
  147.2846  161.1216  133.1369 H   0  0  0  0  0  0  0  0  0  0  0  0
  144.6583  162.0670  133.7338 H   0  0  0  0  0  0  0  0  0  0  0  0
  142.3213  161.2970  134.2565 H   0  0  0  0  0  0  0  0  0  0  0  0
  141.0530  158.9930  135.3290 H   0  0  0  0  0  0  0  0  0  0  0  0
  141.3126  157.2720  132.8904 H   0  0  0  0  0  0  0  0  0  0  0  0
  140.0166  157.2275  134.1468 H   0  0  0  0  0  0  0  0  0  0  0  0
  138.5702  157.0890  131.9479 H   0  0  0  0  0  0  0  0  0  0  0  0
  137.1284  158.5410  130.5100 H   0  0  0  0  0  0  0  0  0  0  0  0
  137.5597  161.0050  130.4252 H   0  0  0  0  0  0  0  0  0  0  0  0
  140.8081  160.5942  133.1544 H   0  0  0  0  0  0  0  0  0  0  0  0
  143.6036  157.1486  133.8570 H   0  0  0  0  0  0  0  0  0  0  0  0
  1  2  1  0
  2  3  1  0
  3  4  2  0
  3  5  1  0
  5  6  1  0
  6  7  1  0
  7  8  1  0
  7  9  2  0
  6 10  2  0
 10 11  1  0
 11 12  2  0
 12 13  1  0
 13 14  2  0
 14 15  1  0
 15 16  1  0
 16 17  1  0
 17 18  2  0
 18 19  1  0
 19 20  2  0
 20 21  1  0
 21 22  2  0
 14 23  1  0
 23 24  2  0
 24  5  1  0
 24 11  1  0
 22 17  1  0
  1 25  1  0
  1 26  1  0
  1 27  1  0
  8 28  1  0
  8 29  1  0
 10 30  1  0
 12 31  1  0
 13 32  1  0
 15 33  1  0
 16 34  1  0
 16 35  1  0
 18 36  1  0
 19 37  1  0
 20 38  1  0
 22 39  1  0
 23 40  1  0
M  END
>  <UniqueID>  (65) 
65

>  <SMILES>  (65) 
COC(=O)n1c(C(N)=O)cc2ccc(NCc3cccnc3)cc21

>  <Energy>  (65) 
79.91003182104829

>  <Genealogy>  (65) 
COC(=O)n1c(C(N)=O)cc2ccc(NCc3cccnc3)cc21 (3D coordinates assigned)
COC(=O)n1c(C(N)=O)cc2ccc(NCc3cccnc3)cc21 (optimized conformer: 79.91003182104829 kcal/mol)

>  <smiles>  (65) 
COC(=O)n1c(C(N)=O)cc2ccc(NCc3cccnc3)cc21

>  <score_type>  (65) 
oracle

>  <origin>  (65) 
adg

>  <m_score__min__energy>  (65) 
-7.7999999999999998

>  <m_primary>  (65) 
energy

$$$$
65:0
     RDKit          3D

 32 34  0  0  0  0  0  0  0  0999 V2000
  149.5830  161.3100  130.6510 C   0  0  0  0  0  0  0  0  0  0  0  0
  148.9870  160.2740  131.4850 N   0  0  0  0  0  0  0  0  0  0  0  0
  147.6710  160.0930  131.7010 C   0  0  0  0  0  0  0  0  0  0  0  0
  147.5170  159.0650  132.6210 C   0  0  0  0  0  0  0  0  0  0  0  0
  146.2490  158.5160  133.1630 C   0  0  0  0  0  0  0  0  0  0  0  0
  146.1570  157.1470  133.5320 C   0  0  0  0  0  0  0  0  0  0  0  0
  144.9590  156.6150  134.0350 C   0  0  0  0  0  0  0  0  0  0  0  0
  143.8700  157.4680  134.1680 C   0  0  0  0  0  0  0  0  0  0  0  0
  142.5900  157.2070  134.6010 C   0  0  0  0  0  0  0  0  0  0  0  0
  141.9170  158.4240  134.5170 C   0  0  0  0  0  0  0  0  0  0  0  0
  140.5230  158.6130  134.9700 C   0  0  0  0  0  0  0  0  0  0  0  0
  140.2060  158.6920  136.3570 N   0  0  0  0  0  0  0  0  0  0  0  0
  139.5930  158.6560  134.1220 O   0  0  0  0  0  0  0  0  0  0  0  0
  142.7460  159.3970  134.0420 N   0  0  0  0  0  0  0  0  0  0  0  0
  142.4180  160.7610  133.7310 C   0  0  0  0  0  0  0  0  0  0  0  0
  141.2380  161.0780  133.4270 O   0  0  0  0  0  0  0  0  0  0  0  0
  143.4050  161.7390  133.7400 O   0  0  0  0  0  0  0  0  0  0  0  0
  143.9390  158.7950  133.8370 C   0  0  0  0  0  0  0  0  0  0  0  0
  145.1140  159.3490  133.3150 C   0  0  0  0  0  0  0  0  0  0  0  0
  148.8140  158.6710  132.9330 C   0  0  0  0  0  0  0  0  0  0  0  0
  149.6750  159.4290  132.2330 N   0  0  0  0  0  0  0  0  0  0  0  0
  150.0289  162.0851  131.2917 H   0  0  0  0  0  0  0  0  0  0  0  0
  150.3635  160.8656  130.0159 H   0  0  0  0  0  0  0  0  0  0  0  0
  148.8065  161.7613  130.0159 H   0  0  0  0  0  0  0  0  0  0  0  0
  146.8566  160.6624  131.2292 H   0  0  0  0  0  0  0  0  0  0  0  0
  147.0362  156.4952  133.4221 H   0  0  0  0  0  0  0  0  0  0  0  0
  144.8846  155.5540  134.3156 H   0  0  0  0  0  0  0  0  0  0  0  0
  142.1845  156.2427  134.9411 H   0  0  0  0  0  0  0  0  0  0  0  0
  139.4810  159.3580  136.7050 H   0  0  0  0  0  0  0  0  0  0  0  0
  145.1547  160.4103  133.0286 H   0  0  0  0  0  0  0  0  0  0  0  0
  149.0893  157.8713  133.6363 H   0  0  0  0  0  0  0  0  0  0  0  0
  150.7180  159.3740  132.2730 H   0  0  0  0  0  0  0  0  0  0  0  0
  1  2  1  0
  2  3  1  0
  3  4  2  0
  4  5  1  0
  5  6  2  0
  6  7  1  0
  7  8  2  0
  8  9  1  0
  9 10  2  0
 10 11  1  0
 11 12  1  0
 11 13  2  0
 10 14  1  0
 14 15  1  0
 15 16  2  0
 15 17  1  0
 14 18  1  0
 18 19  2  0
  4 20  1  0
 20 21  2  0
 21  2  1  0
 19  5  1  0
 18  8  1  0
  1 22  1  0
  1 23  1  0
  1 24  1  0
  3 25  1  0
  6 26  1  0
  7 27  1  0
  9 28  1  0
 12 29  1  0
 19 30  1  0
 20 31  1  0
 21 32  1  0
M  CHG  3  12  -1  17  -1  21   1
M  END
>  <UniqueID>  (66) 
66

>  <SMILES>  (66) 
Cn1cc(-c2ccc3cc(C([NH-])=O)n(C(=O)[O-])c3c2)c[nH+]1

>  <Energy>  (66) 
106.06532767430231

>  <Genealogy>  (66) 
Cn1cc(-c2ccc3cc(C([NH-])=O)n(C(=O)[O-])c3c2)c[nH+]1 (protonated)
Cn1cc(-c2ccc3cc(C([NH-])=O)n(C(=O)[O-])c3c2)c[nH+]1 (3D coordinates assigned)
Cn1cc(-c2ccc3cc(C([NH-])=O)n(C(=O)[O-])c3c2)c[nH+]1 (optimized conformer: 106.06532767430231 kcal/mol)

>  <smiles>  (66) 
Cn1cc(-c2ccc3cc(C(N)=O)n(C(=O)O)c3c2)cn1

>  <score_type>  (66) 
oracle

>  <origin>  (66) 
adg

>  <m_score__min__energy>  (66) 
-6.96

>  <m_primary>  (66) 
energy

$$$$
66:0
     RDKit          3D

 32 33  0  0  0  0  0  0  0  0999 V2000
  143.3430  157.0310  134.7570 C   0  0  0  0  0  0  0  0  0  0  0  0
  143.7720  157.7590  133.5230 C   0  0  0  0  0  0  0  0  0  0  0  0
  142.9680  157.8690  132.5600 O   0  0  0  0  0  0  0  0  0  0  0  0
  145.0550  158.4010  133.4580 N   0  0  0  0  0  0  0  0  0  0  0  0
  145.3310  159.7350  133.4810 C   0  0  0  0  0  0  0  0  0  0  0  0
  144.3580  160.8180  133.7320 C   0  0  0  0  0  0  0  0  0  0  0  0
  142.9880  160.6700  133.3700 N   0  0  0  0  0  0  0  0  0  0  0  0
  144.7330  161.8730  134.3110 O   0  0  0  0  0  0  0  0  0  0  0  0
  146.6970  159.9510  133.3100 C   0  0  0  0  0  0  0  0  0  0  0  0
  147.2530  158.6970  133.1930 C   0  0  0  0  0  0  0  0  0  0  0  0
  148.5750  158.3170  133.0020 C   0  0  0  0  0  0  0  0  0  0  0  0
  148.8610  156.9460  132.8980 C   0  0  0  0  0  0  0  0  0  0  0  0
  147.8260  155.9700  132.9800 C   0  0  0  0  0  0  0  0  0  0  0  0
  148.1300  154.5540  132.8630 N   0  0  0  0  0  0  0  0  0  0  0  0
  147.0730  153.5480  133.0240 C   0  0  0  0  0  0  0  0  0  0  0  0
  149.5000  154.1070  132.5840 C   0  0  0  0  0  0  0  0  0  0  0  0
  146.4900  156.4090  133.1750 C   0  0  0  0  0  0  0  0  0  0  0  0
  146.2420  157.7810  133.2870 C   0  0  0  0  0  0  0  0  0  0  0  0
  143.6723  157.5897  135.6455 H   0  0  0  0  0  0  0  0  0  0  0  0
  142.2468  156.9399  134.7666 H   0  0  0  0  0  0  0  0  0  0  0  0
  143.7944  156.0279  134.7666 H   0  0  0  0  0  0  0  0  0  0  0  0
  142.7020  160.0230  132.6020 H   0  0  0  0  0  0  0  0  0  0  0  0
  147.2200  160.9181  133.2758 H   0  0  0  0  0  0  0  0  0  0  0  0
  149.3754  159.0685  132.9341 H   0  0  0  0  0  0  0  0  0  0  0  0
  149.9013  156.6201  132.7508 H   0  0  0  0  0  0  0  0  0  0  0  0
  146.8914  153.3752  134.0950 H   0  0  0  0  0  0  0  0  0  0  0  0
  146.1486  153.9081  132.5488 H   0  0  0  0  0  0  0  0  0  0  0  0
  147.3870  152.6069  132.5488 H   0  0  0  0  0  0  0  0  0  0  0  0
  150.0296  153.9342  133.5325 H   0  0  0  0  0  0  0  0  0  0  0  0
  149.4699  153.1721  132.0052 H   0  0  0  0  0  0  0  0  0  0  0  0
  150.0271  154.8797  132.0052 H   0  0  0  0  0  0  0  0  0  0  0  0
  145.6653  155.6837  133.2369 H   0  0  0  0  0  0  0  0  0  0  0  0
  1  2  1  0
  2  3  2  0
  2  4  1  0
  4  5  1  0
  5  6  1  0
  6  7  1  0
  6  8  2  0
  5  9  2  0
  9 10  1  0
 10 11  2  0
 11 12  1  0
 12 13  2  0
 13 14  1  0
 14 15  1  0
 14 16  1  0
 13 17  1  0
 17 18  2  0
 18  4  1  0
 18 10  1  0
  1 19  1  0
  1 20  1  0
  1 21  1  0
  7 22  1  0
  9 23  1  0
 11 24  1  0
 12 25  1  0
 15 26  1  0
 15 27  1  0
 15 28  1  0
 16 29  1  0
 16 30  1  0
 16 31  1  0
 17 32  1  0
M  CHG  1   7  -1
M  END
>  <UniqueID>  (67) 
67

>  <SMILES>  (67) 
CC(=O)n1c(C([NH-])=O)cc2ccc(N(C)C)cc21

>  <Energy>  (67) 
72.61000899292355

>  <Genealogy>  (67) 
CC(=O)n1c(C([NH-])=O)cc2ccc(N(C)C)cc21 (protonated)
CC(=O)n1c(C([NH-])=O)cc2ccc(N(C)C)cc21 (3D coordinates assigned)
CC(=O)n1c(C([NH-])=O)cc2ccc(N(C)C)cc21 (optimized conformer: 72.61000899292355 kcal/mol)

>  <smiles>  (67) 
CC(=O)n1c(C(N)=O)cc2ccc(N(C)C)cc21

>  <score_type>  (67) 
oracle

>  <origin>  (67) 
adg

>  <m_score__min__energy>  (67) 
-5.71

>  <m_primary>  (67) 
energy

$$$$
67:0
     RDKit          3D

 59 62  0  0  0  0  0  0  0  0999 V2000
  139.4850  145.3130  129.0860 C   0  0  0  0  0  0  0  0  0  0  0  0
  138.9800  146.4250  129.9990 C   0  0  0  0  0  0  0  0  0  0  0  0
  139.0480  147.6880  129.3420 O   0  0  0  0  0  0  0  0  0  0  0  0
  138.8100  148.9120  129.9840 C   0  0  0  0  0  0  0  0  0  0  0  0
  137.8520  149.6450  129.6120 O   0  0  0  0  0  0  0  0  0  0  0  0
  139.6590  149.3210  131.0720 N   0  0  0  0  0  0  0  0  0  0  0  0
  139.4870  150.6350  131.7120 C   0  0  0  0  0  0  0  0  0  0  0  0
  140.8540  151.2720  132.0020 C   0  0  0  0  0  0  0  0  0  0  0  0
  141.8160  150.2930  132.5440 N   0  0  0  0  0  0  0  0  0  0  0  0
  143.2300  150.6080  132.5600 C   0  0  0  0  0  0  0  0  0  0  0  0
  144.0810  149.6830  132.4360 O   0  0  0  0  0  0  0  0  0  0  0  0
  143.7120  152.0010  132.6650 C   0  0  0  0  0  0  0  0  0  0  0  0
  142.8920  152.9820  133.2380 C   0  0  0  0  0  0  0  0  0  0  0  0
  143.3480  154.2960  133.3670 C   0  0  0  0  0  0  0  0  0  0  0  0
  144.6280  154.6580  132.9150 C   0  0  0  0  0  0  0  0  0  0  0  0
  145.1260  156.0450  133.0940 C   0  0  0  0  0  0  0  0  0  0  0  0
  146.5100  156.3370  132.9710 C   0  0  0  0  0  0  0  0  0  0  0  0
  146.9850  157.6490  133.1300 C   0  0  0  0  0  0  0  0  0  0  0  0
  146.0630  158.6470  133.4220 C   0  0  0  0  0  0  0  0  0  0  0  0
  146.2460  160.0020  133.5920 C   0  0  0  0  0  0  0  0  0  0  0  0
  144.9750  160.5190  133.8370 C   0  0  0  0  0  0  0  0  0  0  0  0
  144.7140  161.9470  134.1220 C   0  0  0  0  0  0  0  0  0  0  0  0
  143.6330  162.6380  133.5020 N   0  0  0  0  0  0  0  0  0  0  0  0
  145.4390  162.5590  134.9500 O   0  0  0  0  0  0  0  0  0  0  0  0
  144.0440  159.5220  133.8230 N   0  0  0  0  0  0  0  0  0  0  0  0
  142.6170  159.6570  133.9550 C   0  0  0  0  0  0  0  0  0  0  0  0
  141.9130  159.1950  135.1940 C   0  0  0  0  0  0  0  0  0  0  0  0
  141.9410  160.1380  133.0050 O   0  0  0  0  0  0  0  0  0  0  0  0
  144.7250  158.3850  133.5640 C   0  0  0  0  0  0  0  0  0  0  0  0
  144.2210  157.0910  133.3890 C   0  0  0  0  0  0  0  0  0  0  0  0
  145.4320  153.6790  132.3050 C   0  0  0  0  0  0  0  0  0  0  0  0
  144.9760  152.3630  132.1770 C   0  0  0  0  0  0  0  0  0  0  0  0
  141.3570  148.9300  132.8360 C   0  0  0  0  0  0  0  0  0  0  0  0
  140.6360  148.3620  131.6110 C   0  0  0  0  0  0  0  0  0  0  0  0
  139.8632  144.4802  129.6971 H   0  0  0  0  0  0  0  0  0  0  0  0
  138.6603  144.9569  128.4511 H   0  0  0  0  0  0  0  0  0  0  0  0
  140.2958  145.6997  128.4511 H   0  0  0  0  0  0  0  0  0  0  0  0
  137.9357  146.2181  130.2760 H   0  0  0  0  0  0  0  0  0  0  0  0
  139.6141  146.4597  130.8971 H   0  0  0  0  0  0  0  0  0  0  0  0
  138.9155  151.2930  131.0409 H   0  0  0  0  0  0  0  0  0  0  0  0
  138.9468  150.5019  132.6609 H   0  0  0  0  0  0  0  0  0  0  0  0
  141.2582  151.6868  131.0668 H   0  0  0  0  0  0  0  0  0  0  0  0
  140.7089  152.0594  132.7563 H   0  0  0  0  0  0  0  0  0  0  0  0
  141.8837  152.7160  133.5882 H   0  0  0  0  0  0  0  0  0  0  0  0
  142.6983  155.0550  133.8272 H   0  0  0  0  0  0  0  0  0  0  0  0
  147.2188  155.5258  132.7485 H   0  0  0  0  0  0  0  0  0  0  0  0
  148.0555  157.8799  133.0265 H   0  0  0  0  0  0  0  0  0  0  0  0
  147.1940  160.5578  133.5444 H   0  0  0  0  0  0  0  0  0  0  0  0
  142.8260  162.1160  133.0880 H   0  0  0  0  0  0  0  0  0  0  0  0
  142.4578  159.5525  136.0802 H   0  0  0  0  0  0  0  0  0  0  0  0
  140.8894  159.5975  135.2058 H   0  0  0  0  0  0  0  0  0  0  0  0
  141.8749  158.0957  135.2058 H   0  0  0  0  0  0  0  0  0  0  0  0
  143.1430  156.8917  133.4791 H   0  0  0  0  0  0  0  0  0  0  0  0
  146.4281  153.9504  131.9252 H   0  0  0  0  0  0  0  0  0  0  0  0
  145.6119  151.6082  131.6912 H   0  0  0  0  0  0  0  0  0  0  0  0
  142.2222  148.2958  133.0792 H   0  0  0  0  0  0  0  0  0  0  0  0
  140.6661  148.9508  133.6917 H   0  0  0  0  0  0  0  0  0  0  0  0
  141.3788  148.1321  130.8329 H   0  0  0  0  0  0  0  0  0  0  0  0
  140.0973  147.4529  131.9164 H   0  0  0  0  0  0  0  0  0  0  0  0
  1  2  1  0
  2  3  1  0
  3  4  1  0
  4  5  2  0
  4  6  1  0
  6  7  1  0
  7  8  1  0
  8  9  1  0
  9 10  1  0
 10 11  2  0
 10 12  1  0
 12 13  2  0
 13 14  1  0
 14 15  2  0
 15 16  1  0
 16 17  2  0
 17 18  1  0
 18 19  2  0
 19 20  1  0
 20 21  2  0
 21 22  1  0
 22 23  1  0
 22 24  2  0
 21 25  1  0
 25 26  1  0
 26 27  1  0
 26 28  2  0
 25 29  1  0
 29 30  2  0
 15 31  1  0
 31 32  2  0
  9 33  1  0
 33 34  1  0
 34  6  1  0
 32 12  1  0
 30 16  1  0
 29 19  1  0
  1 35  1  0
  1 36  1  0
  1 37  1  0
  2 38  1  0
  2 39  1  0
  7 40  1  0
  7 41  1  0
  8 42  1  0
  8 43  1  0
 13 44  1  0
 14 45  1  0
 17 46  1  0
 18 47  1  0
 20 48  1  0
 23 49  1  0
 27 50  1  0
 27 51  1  0
 27 52  1  0
 30 53  1  0
 31 54  1  0
 32 55  1  0
 33 56  1  0
 33 57  1  0
 34 58  1  0
 34 59  1  0
M  CHG  1  23  -1
M  END
>  <UniqueID>  (68) 
68

>  <SMILES>  (68) 
CCOC(=O)N1CCN(C(=O)c2ccc(-c3ccc4cc(C([NH-])=O)n(C(C)=O)c4c3)cc2)CC1

>  <Energy>  (68) 
107.91595738786012

>  <Genealogy>  (68) 
CCOC(=O)N1CCN(C(=O)c2ccc(-c3ccc4cc(C([NH-])=O)n(C(C)=O)c4c3)cc2)CC1 (protonated)
CCOC(=O)N1CCN(C(=O)c2ccc(-c3ccc4cc(C([NH-])=O)n(C(C)=O)c4c3)cc2)CC1 (3D coordinates assigned)
CCOC(=O)N1CCN(C(=O)c2ccc(-c3ccc4cc(C([NH-])=O)n(C(C)=O)c4c3)cc2)CC1 (nonaromatic ring conformer: 107.91595738786012 kcal/mol)

>  <smiles>  (68) 
CCOC(=O)N1CCN(C(=O)c2ccc(-c3ccc4cc(C(N)=O)n(C(C)=O)c4c3)cc2)CC1

>  <score_type>  (68) 
oracle

>  <origin>  (68) 
adg

>  <m_score__min__energy>  (68) 
-9.9700000000000006

>  <m_primary>  (68) 
energy

$$$$
68:0
     RDKit          3D

 35 36  0  0  0  0  0  0  0  0999 V2000
  138.2850  149.2490  129.3820 C   0  0  0  0  0  0  0  0  0  0  0  0
  139.3620  148.5340  130.2140 C   0  0  0  0  0  0  0  0  0  0  0  0
  139.1170  147.0100  130.1270 C   0  0  0  0  0  0  0  0  0  0  0  0
  140.6130  148.8640  129.6560 O   0  0  0  0  0  0  0  0  0  0  0  0
  139.2740  149.0430  131.6790 C   0  0  0  0  0  0  0  0  0  0  0  0
  140.4620  149.8700  132.1090 C   0  0  0  0  0  0  0  0  0  0  0  0
  141.7450  149.2760  132.2100 C   0  0  0  0  0  0  0  0  0  0  0  0
  142.8620  150.0410  132.5870 C   0  0  0  0  0  0  0  0  0  0  0  0
  142.6640  151.3910  132.8630 C   0  0  0  0  0  0  0  0  0  0  0  0
  143.5700  152.3630  133.2220 C   0  0  0  0  0  0  0  0  0  0  0  0
  142.8230  153.5320  133.3590 C   0  0  0  0  0  0  0  0  0  0  0  0
  143.3950  154.8100  133.8250 C   0  0  0  0  0  0  0  0  0  0  0  0
  143.4660  155.9400  132.9600 N   0  0  0  0  0  0  0  0  0  0  0  0
  143.7810  154.9240  135.0200 O   0  0  0  0  0  0  0  0  0  0  0  0
  141.5090  153.2930  133.0870 N   0  0  0  0  0  0  0  0  0  0  0  0
  140.4350  154.2460  133.0210 C   0  0  0  0  0  0  0  0  0  0  0  0
  140.7160  155.6430  132.9840 N   0  0  0  0  0  0  0  0  0  0  0  0
  139.2400  153.8510  132.9630 O   0  0  0  0  0  0  0  0  0  0  0  0
  141.4270  151.9780  132.7890 C   0  0  0  0  0  0  0  0  0  0  0  0
  140.3000  151.2430  132.4010 C   0  0  0  0  0  0  0  0  0  0  0  0
  137.5605  149.7300  130.0556 H   0  0  0  0  0  0  0  0  0  0  0  0
  138.7587  150.0126  128.7475 H   0  0  0  0  0  0  0  0  0  0  0  0
  137.7652  148.5160  128.7475 H   0  0  0  0  0  0  0  0  0  0  0  0
  139.0496  146.5909  131.1418 H   0  0  0  0  0  0  0  0  0  0  0  0
  138.1768  146.8199  129.5886 H   0  0  0  0  0  0  0  0  0  0  0  0
  139.9503  146.5348  129.5886 H   0  0  0  0  0  0  0  0  0  0  0  0
  141.0140  148.0410  129.2730 H   0  0  0  0  0  0  0  0  0  0  0  0
  138.3682  149.6592  131.7783 H   0  0  0  0  0  0  0  0  0  0  0  0
  139.2512  148.1539  132.3263 H   0  0  0  0  0  0  0  0  0  0  0  0
  141.8677  148.2050  131.9910 H   0  0  0  0  0  0  0  0  0  0  0  0
  143.8613  149.5873  132.6616 H   0  0  0  0  0  0  0  0  0  0  0  0
  144.6534  152.2429  133.3695 H   0  0  0  0  0  0  0  0  0  0  0  0
  142.7440  156.0980  132.2220 H   0  0  0  0  0  0  0  0  0  0  0  0
  141.4000  156.0360  132.3000 H   0  0  0  0  0  0  0  0  0  0  0  0
  139.3130  151.7226  132.3254 H   0  0  0  0  0  0  0  0  0  0  0  0
  1  2  1  0
  2  3  1  0
  2  4  1  0
  2  5  1  0
  5  6  1  0
  6  7  2  0
  7  8  1  0
  8  9  2  0
  9 10  1  0
 10 11  2  0
 11 12  1  0
 12 13  1  0
 12 14  2  0
 11 15  1  0
 15 16  1  0
 16 17  1  0
 16 18  2  0
 15 19  1  0
 19 20  2  0
 20  6  1  0
 19  9  1  0
  1 21  1  0
  1 22  1  0
  1 23  1  0
  3 24  1  0
  3 25  1  0
  3 26  1  0
  4 27  1  0
  5 28  1  0
  5 29  1  0
  7 30  1  0
  8 31  1  0
 10 32  1  0
 13 33  1  0
 17 34  1  0
 20 35  1  0
M  CHG  2  13  -1  17  -1
M  END
>  <UniqueID>  (69) 
69

>  <SMILES>  (69) 
CC(C)(O)Cc1ccc2cc(C([NH-])=O)n(C([NH-])=O)c2c1

>  <Energy>  (69) 
71.43656355691077

>  <Genealogy>  (69) 
CC(C)(O)Cc1ccc2cc(C([NH-])=O)n(C([NH-])=O)c2c1 (protonated)
CC(C)(O)Cc1ccc2cc(C([NH-])=O)n(C([NH-])=O)c2c1 (3D coordinates assigned)
CC(C)(O)Cc1ccc2cc(C([NH-])=O)n(C([NH-])=O)c2c1 (optimized conformer: 71.43656355691077 kcal/mol)

>  <smiles>  (69) 
CC(C)(O)Cc1ccc2cc(C(N)=O)n(C(N)=O)c2c1

>  <score_type>  (69) 
oracle

>  <origin>  (69) 
adg

>  <m_score__min__energy>  (69) 
-7.3899999999999997

>  <m_primary>  (69) 
energy

$$$$
69:0
     RDKit          3D

 31 32  0  0  0  0  0  0  0  0999 V2000
  141.3010  160.4970  133.9110 N   0  0  0  0  0  0  0  0  0  0  0  0
  142.2740  159.8020  134.6870 C   0  0  0  0  0  0  0  0  0  0  0  0
  141.9580  159.3680  135.8250 O   0  0  0  0  0  0  0  0  0  0  0  0
  143.6210  159.5610  134.1320 C   0  0  0  0  0  0  0  0  0  0  0  0
  144.1190  158.2900  133.8510 C   0  0  0  0  0  0  0  0  0  0  0  0
  145.4180  158.4880  133.4440 C   0  0  0  0  0  0  0  0  0  0  0  0
  146.3750  157.5660  133.0280 C   0  0  0  0  0  0  0  0  0  0  0  0
  147.6310  158.0560  132.6310 C   0  0  0  0  0  0  0  0  0  0  0  0
  147.9050  159.4460  132.6560 C   0  0  0  0  0  0  0  0  0  0  0  0
  149.2400  159.9650  132.1840 C   0  0  0  0  0  0  0  0  0  0  0  0
  149.1290  160.6460  130.8030 C   0  0  1  0  0  0  0  0  0  0  0  0
  149.9790  161.8370  130.7360 N   0  0  0  0  0  0  0  0  0  0  0  0
  149.5010  159.7000  129.6940 C   0  0  0  0  0  0  0  0  0  0  0  0
  150.3850  160.0150  128.8540 O   0  0  0  0  0  0  0  0  0  0  0  0
  148.8870  158.4570  129.6080 O   0  0  0  0  0  0  0  0  0  0  0  0
  146.9060  160.3510  133.0760 C   0  0  0  0  0  0  0  0  0  0  0  0
  145.6690  159.8350  133.4830 C   0  0  0  0  0  0  0  0  0  0  0  0
  144.5740  160.5090  133.9000 N   0  0  0  0  0  0  0  0  0  0  0  0
  144.4350  161.9360  133.9970 C   0  0  0  0  0  0  0  0  0  0  0  0
  145.3020  162.6210  134.6010 O   0  0  0  0  0  0  0  0  0  0  0  0
  143.3570  162.5790  133.4010 O   0  0  0  0  0  0  0  0  0  0  0  0
  141.5210  161.4190  133.4740 H   0  0  0  0  0  0  0  0  0  0  0  0
  143.5861  157.3315  133.9366 H   0  0  0  0  0  0  0  0  0  0  0  0
  146.1549  156.4884  133.0107 H   0  0  0  0  0  0  0  0  0  0  0  0
  148.4090  157.3535  132.2976 H   0  0  0  0  0  0  0  0  0  0  0  0
  149.6167  160.6969  132.9137 H   0  0  0  0  0  0  0  0  0  0  0  0
  149.9281  159.1116  132.0925 H   0  0  0  0  0  0  0  0  0  0  0  0
  148.0787  160.9459  130.6726 H   0  0  0  0  0  0  0  0  0  0  0  0
  150.4990  161.9270  131.6390 H   0  0  0  0  0  0  0  0  0  0  0  0
  150.6920  161.7170  129.9790 H   0  0  0  0  0  0  0  0  0  0  0  0
  147.0945  161.4347  133.0834 H   0  0  0  0  0  0  0  0  0  0  0  0
  1  2  1  0
  2  3  2  0
  2  4  1  0
  4  5  2  0
  5  6  1  0
  6  7  2  0
  7  8  1  0
  8  9  2  0
  9 10  1  0
 10 11  1  0
 11 12  1  0
 11 13  1  0
 13 14  2  0
 13 15  1  0
  9 16  1  0
 16 17  2  0
 17 18  1  0
 18 19  1  0
 19 20  2  0
 19 21  1  0
 18  4  1  0
 17  6  1  0
  1 22  1  0
  5 23  1  0
  7 24  1  0
  8 25  1  0
 10 26  1  0
 10 27  1  0
 11 28  1  6
 12 29  1  0
 12 30  1  0
 16 31  1  0
M  CHG  3   1  -1  15  -1  21  -1
M  END
>  <UniqueID>  (70) 
70

>  <SMILES>  (70) 
[NH-]C(=O)c1cc2ccc(C[C@@H](N)C(=O)[O-])cc2n1C(=O)[O-]

>  <Energy>  (70) 
67.94956269537477

>  <Genealogy>  (70) 
[NH-]C(=O)c1cc2ccc(CC(N)C(=O)[O-])cc2n1C(=O)[O-] (protonated)
[NH-]C(=O)c1cc2ccc(C[C@@H](N)C(=O)[O-])cc2n1C(=O)[O-] (chirality)
[NH-]C(=O)c1cc2ccc(C[C@@H](N)C(=O)[O-])cc2n1C(=O)[O-] (3D coordinates assigned)
[NH-]C(=O)c1cc2ccc(C[C@@H](N)C(=O)[O-])cc2n1C(=O)[O-] (optimized conformer: 67.94956269537477 kcal/mol)

>  <smiles>  (70) 
NC(=O)c1cc2ccc(CC(N)C(=O)O)cc2n1C(=O)O

>  <score_type>  (70) 
oracle

>  <origin>  (70) 
adg

>  <m_score__min__energy>  (70) 
-6.71

>  <m_primary>  (70) 
energy

$$$$
70:0
     RDKit          3D

 32 33  0  0  0  0  0  0  0  0999 V2000
  141.7330  158.7370  134.9540 C   0  0  0  0  0  0  0  0  0  0  0  0
  143.1380  158.5430  134.8450 O   0  0  0  0  0  0  0  0  0  0  0  0
  143.7920  158.4410  133.6120 C   0  0  0  0  0  0  0  0  0  0  0  0
  143.2300  157.8640  132.6410 O   0  0  0  0  0  0  0  0  0  0  0  0
  145.1170  158.9740  133.4610 N   0  0  0  0  0  0  0  0  0  0  0  0
  145.5210  160.2630  133.6410 C   0  0  0  0  0  0  0  0  0  0  0  0
  144.6370  161.4270  133.8580 C   0  0  0  0  0  0  0  0  0  0  0  0
  143.2240  161.3110  133.7190 N   0  0  0  0  0  0  0  0  0  0  0  0
  145.1410  162.5520  134.1200 O   0  0  0  0  0  0  0  0  0  0  0  0
  146.9040  160.3640  133.5090 C   0  0  0  0  0  0  0  0  0  0  0  0
  147.3400  159.0890  133.2330 C   0  0  0  0  0  0  0  0  0  0  0  0
  148.6300  158.6090  133.0260 C   0  0  0  0  0  0  0  0  0  0  0  0
  148.7900  157.2330  132.7950 C   0  0  0  0  0  0  0  0  0  0  0  0
  147.6680  156.3690  132.7730 C   0  0  0  0  0  0  0  0  0  0  0  0
  147.8580  154.8890  132.5720 C   0  0  0  0  0  0  0  0  0  0  0  0
  149.3440  154.5260  132.6070 C   0  0  0  0  0  0  0  0  0  0  0  0
  149.5740  153.3560  131.8700 O   0  0  0  0  0  0  0  0  0  0  0  0
  146.3750  156.8900  132.9990 C   0  0  0  0  0  0  0  0  0  0  0  0
  146.2420  158.2680  133.2100 C   0  0  0  0  0  0  0  0  0  0  0  0
  141.4496  158.7761  136.0161 H   0  0  0  0  0  0  0  0  0  0  0  0
  141.4543  159.6821  134.4651 H   0  0  0  0  0  0  0  0  0  0  0  0
  141.2086  157.9027  134.4651 H   0  0  0  0  0  0  0  0  0  0  0  0
  142.7610  160.3740  133.7040 H   0  0  0  0  0  0  0  0  0  0  0  0
  147.5178  161.2717  133.6052 H   0  0  0  0  0  0  0  0  0  0  0  0
  149.4968  159.2860  133.0428 H   0  0  0  0  0  0  0  0  0  0  0  0
  149.7969  156.8222  132.6295 H   0  0  0  0  0  0  0  0  0  0  0  0
  147.3344  154.3455  133.3723 H   0  0  0  0  0  0  0  0  0  0  0  0
  147.4482  154.6095  131.5902 H   0  0  0  0  0  0  0  0  0  0  0  0
  149.9296  155.3498  132.1730 H   0  0  0  0  0  0  0  0  0  0  0  0
  149.6480  154.3583  133.6508 H   0  0  0  0  0  0  0  0  0  0  0  0
  150.5480  153.3220  131.6870 H   0  0  0  0  0  0  0  0  0  0  0  0
  145.4948  156.2303  133.0090 H   0  0  0  0  0  0  0  0  0  0  0  0
  1  2  1  0
  2  3  1  0
  3  4  2  0
  3  5  1  0
  5  6  1  0
  6  7  1  0
  7  8  1  0
  7  9  2  0
  6 10  2  0
 10 11  1  0
 11 12  2  0
 12 13  1  0
 13 14  2  0
 14 15  1  0
 15 16  1  0
 16 17  1  0
 14 18  1  0
 18 19  2  0
 19  5  1  0
 19 11  1  0
  1 20  1  0
  1 21  1  0
  1 22  1  0
  8 23  1  0
 10 24  1  0
 12 25  1  0
 13 26  1  0
 15 27  1  0
 15 28  1  0
 16 29  1  0
 16 30  1  0
 17 31  1  0
 18 32  1  0
M  CHG  1   8  -1
M  END
>  <UniqueID>  (71) 
71

>  <SMILES>  (71) 
COC(=O)n1c(C([NH-])=O)cc2ccc(CCO)cc21

>  <Energy>  (71) 
66.3694750865533

>  <Genealogy>  (71) 
COC(=O)n1c(C([NH-])=O)cc2ccc(CCO)cc21 (protonated)
COC(=O)n1c(C([NH-])=O)cc2ccc(CCO)cc21 (3D coordinates assigned)
COC(=O)n1c(C([NH-])=O)cc2ccc(CCO)cc21 (optimized conformer: 66.3694750865533 kcal/mol)

>  <smiles>  (71) 
COC(=O)n1c(C(N)=O)cc2ccc(CCO)cc21

>  <score_type>  (71) 
oracle

>  <origin>  (71) 
adg

>  <m_score__min__energy>  (71) 
-5.79

>  <m_primary>  (71) 
energy

$$$$
71:0
     RDKit          3D

 33 35  0  0  0  0  0  0  0  0999 V2000
  140.8180  159.4770  136.4580 N   0  0  0  0  0  0  0  0  0  0  0  0
  140.9900  158.9790  135.1350 C   0  0  0  0  0  0  0  0  0  0  0  0
  139.9740  158.6710  134.4560 O   0  0  0  0  0  0  0  0  0  0  0  0
  142.3390  158.7640  134.5720 C   0  0  0  0  0  0  0  0  0  0  0  0
  142.9950  157.5350  134.6060 C   0  0  0  0  0  0  0  0  0  0  0  0
  144.2400  157.7720  134.0700 C   0  0  0  0  0  0  0  0  0  0  0  0
  145.2990  156.8990  133.8530 C   0  0  0  0  0  0  0  0  0  0  0  0
  146.4620  157.4080  133.2530 C   0  0  0  0  0  0  0  0  0  0  0  0
  146.5500  158.7750  132.8700 C   0  0  0  0  0  0  0  0  0  0  0  0
  147.7490  159.2870  132.2400 N   0  0  0  0  0  0  0  0  0  0  0  0
  149.0620  158.6770  132.3770 C   0  0  0  0  0  0  0  0  0  0  0  0
  149.9740  159.4300  131.4180 C   0  0  0  0  0  0  0  0  0  0  0  0
  149.2490  160.7310  131.0960 C   0  0  0  0  0  0  0  0  0  0  0  0
  147.7790  160.4700  131.3930 C   0  0  0  0  0  0  0  0  0  0  0  0
  145.4430  159.6280  133.1100 C   0  0  0  0  0  0  0  0  0  0  0  0
  144.3060  159.0970  133.7280 C   0  0  0  0  0  0  0  0  0  0  0  0
  143.1440  159.7200  134.0260 N   0  0  0  0  0  0  0  0  0  0  0  0
  142.8160  161.0890  133.7370 C   0  0  0  0  0  0  0  0  0  0  0  0
  141.6300  161.4150  133.4650 O   0  0  0  0  0  0  0  0  0  0  0  0
  143.8080  162.0620  133.7310 O   0  0  0  0  0  0  0  0  0  0  0  0
  139.8700  159.7230  136.8210 H   0  0  0  0  0  0  0  0  0  0  0  0
  142.6013  156.5789  134.9814 H   0  0  0  0  0  0  0  0  0  0  0  0
  145.2283  155.8402  134.1427 H   0  0  0  0  0  0  0  0  0  0  0  0
  147.3177  156.7397  133.0766 H   0  0  0  0  0  0  0  0  0  0  0  0
  149.4254  158.7790  133.4102 H   0  0  0  0  0  0  0  0  0  0  0  0
  149.0337  157.6017  132.1471 H   0  0  0  0  0  0  0  0  0  0  0  0
  150.9432  159.6387  131.8945 H   0  0  0  0  0  0  0  0  0  0  0  0
  150.1805  158.8446  130.5099 H   0  0  0  0  0  0  0  0  0  0  0  0
  149.6285  161.5477  131.7277 H   0  0  0  0  0  0  0  0  0  0  0  0
  149.4036  161.0328  130.0496 H   0  0  0  0  0  0  0  0  0  0  0  0
  147.3362  161.3288  131.9188 H   0  0  0  0  0  0  0  0  0  0  0  0
  147.1999  160.3214  130.4697 H   0  0  0  0  0  0  0  0  0  0  0  0
  145.4777  160.6873  132.8157 H   0  0  0  0  0  0  0  0  0  0  0  0
  1  2  1  0
  2  3  2  0
  2  4  1  0
  4  5  2  0
  5  6  1  0
  6  7  2  0
  7  8  1  0
  8  9  2  0
  9 10  1  0
 10 11  1  0
 11 12  1  0
 12 13  1  0
 13 14  1  0
  9 15  1  0
 15 16  2  0
 16 17  1  0
 17 18  1  0
 18 19  2  0
 18 20  1  0
 17  4  1  0
 16  6  1  0
 14 10  1  0
  1 21  1  0
  5 22  1  0
  7 23  1  0
  8 24  1  0
 11 25  1  0
 11 26  1  0
 12 27  1  0
 12 28  1  0
 13 29  1  0
 13 30  1  0
 14 31  1  0
 14 32  1  0
 15 33  1  0
M  CHG  2   1  -1  20  -1
M  END
>  <UniqueID>  (72) 
72

>  <SMILES>  (72) 
[NH-]C(=O)c1cc2ccc(N3CCCC3)cc2n1C(=O)[O-]

>  <Energy>  (72) 
75.58788382676741

>  <Genealogy>  (72) 
[NH-]C(=O)c1cc2ccc(N3CCCC3)cc2n1C(=O)[O-] (protonated)
[NH-]C(=O)c1cc2ccc(N3CCCC3)cc2n1C(=O)[O-] (3D coordinates assigned)
[NH-]C(=O)c1cc2ccc(N3CCCC3)cc2n1C(=O)[O-] (nonaromatic ring conformer: 75.58788382676741 kcal/mol)

>  <smiles>  (72) 
NC(=O)c1cc2ccc(N3CCCC3)cc2n1C(=O)O

>  <score_type>  (72) 
oracle

>  <origin>  (72) 
adg

>  <m_score__min__energy>  (72) 
-6.8300000000000001

>  <m_primary>  (72) 
energy

$$$$
72:0
     RDKit          3D

 31 33  0  0  0  0  0  0  0  0999 V2000
  140.3040  158.6950  136.5990 N   0  0  0  0  0  0  0  0  0  0  0  0
  140.5460  158.5550  135.2010 C   0  0  0  0  0  0  0  0  0  0  0  0
  139.5690  158.5310  134.4060 O   0  0  0  0  0  0  0  0  0  0  0  0
  141.9180  158.3770  134.6810 C   0  0  0  0  0  0  0  0  0  0  0  0
  142.6310  157.1870  134.7980 C   0  0  0  0  0  0  0  0  0  0  0  0
  143.8780  157.4570  134.2820 C   0  0  0  0  0  0  0  0  0  0  0  0
  144.9830  156.6250  134.1350 C   0  0  0  0  0  0  0  0  0  0  0  0
  146.1350  157.1610  133.5360 C   0  0  0  0  0  0  0  0  0  0  0  0
  146.1630  158.5080  133.0920 C   0  0  0  0  0  0  0  0  0  0  0  0
  147.3810  159.0480  132.4420 C   0  0  0  0  0  0  0  0  0  0  0  0
  147.4230  160.3620  132.0630 N   0  0  0  0  0  0  0  0  0  0  0  0
  148.5200  160.8990  131.4620 C   0  0  0  0  0  0  0  0  0  0  0  0
  149.6410  160.1080  131.2110 C   0  0  0  0  0  0  0  0  0  0  0  0
  149.6250  158.7640  131.5780 C   0  0  0  0  0  0  0  0  0  0  0  0
  148.4950  158.2240  132.1940 C   0  0  0  0  0  0  0  0  0  0  0  0
  148.4780  156.9040  132.5090 F   0  0  0  0  0  0  0  0  0  0  0  0
  145.0150  159.3190  133.2530 C   0  0  0  0  0  0  0  0  0  0  0  0
  143.8870  158.7640  133.8710 C   0  0  0  0  0  0  0  0  0  0  0  0
  142.6880  159.3440  134.1050 N   0  0  0  0  0  0  0  0  0  0  0  0
  142.2930  160.6720  133.7270 C   0  0  0  0  0  0  0  0  0  0  0  0
  141.0970  160.9150  133.4180 O   0  0  0  0  0  0  0  0  0  0  0  0
  143.2200  161.7070  133.7260 O   0  0  0  0  0  0  0  0  0  0  0  0
  139.3730  159.0040  136.9540 H   0  0  0  0  0  0  0  0  0  0  0  0
  142.2737  156.2336  135.2144 H   0  0  0  0  0  0  0  0  0  0  0  0
  144.9556  155.5799  134.4771 H   0  0  0  0  0  0  0  0  0  0  0  0
  147.0261  156.5286  133.4097 H   0  0  0  0  0  0  0  0  0  0  0  0
  146.6080  160.9880  132.2500 H   0  0  0  0  0  0  0  0  0  0  0  0
  148.5224  161.9604  131.1733 H   0  0  0  0  0  0  0  0  0  0  0  0
  150.5293  160.5411  130.7279 H   0  0  0  0  0  0  0  0  0  0  0  0
  150.5019  158.1293  131.3825 H   0  0  0  0  0  0  0  0  0  0  0  0
  145.0083  160.3612  132.9011 H   0  0  0  0  0  0  0  0  0  0  0  0
  1  2  1  0
  2  3  2  0
  2  4  1  0
  4  5  2  0
  5  6  1  0
  6  7  2  0
  7  8  1  0
  8  9  2  0
  9 10  1  0
 10 11  2  0
 11 12  1  0
 12 13  2  0
 13 14  1  0
 14 15  2  0
 15 16  1  0
  9 17  1  0
 17 18  2  0
 18 19  1  0
 19 20  1  0
 20 21  2  0
 20 22  1  0
 19  4  1  0
 18  6  1  0
 15 10  1  0
  1 23  1  0
  5 24  1  0
  7 25  1  0
  8 26  1  0
 11 27  1  0
 12 28  1  0
 13 29  1  0
 14 30  1  0
 17 31  1  0
M  CHG  3   1  -1  11   1  22  -1
M  END
>  <UniqueID>  (73) 
73

>  <SMILES>  (73) 
[NH-]C(=O)c1cc2ccc(-c3[nH+]cccc3F)cc2n1C(=O)[O-]

>  <Energy>  (73) 
79.86803624935906

>  <Genealogy>  (73) 
[NH-]C(=O)c1cc2ccc(-c3[nH+]cccc3F)cc2n1C(=O)[O-] (protonated)
[NH-]C(=O)c1cc2ccc(-c3[nH+]cccc3F)cc2n1C(=O)[O-] (3D coordinates assigned)
[NH-]C(=O)c1cc2ccc(-c3[nH+]cccc3F)cc2n1C(=O)[O-] (optimized conformer: 79.86803624935906 kcal/mol)

>  <smiles>  (73) 
NC(=O)c1cc2ccc(-c3ncccc3F)cc2n1C(=O)O

>  <score_type>  (73) 
oracle

>  <origin>  (73) 
adg

>  <m_score__min__energy>  (73) 
-6.8600000000000003

>  <m_primary>  (73) 
energy

$$$$
73:0
     RDKit          3D

 35 37  0  0  0  0  0  0  0  0999 V2000
  149.6080  159.7520  130.7410 C   0  0  0  0  0  0  0  0  0  0  0  0
  149.5840  158.7800  131.7790 O   0  0  0  0  0  0  0  0  0  0  0  0
  148.7260  158.8760  132.8800 C   0  0  0  0  0  0  0  0  0  0  0  0
  148.9280  159.7380  133.7770 O   0  0  0  0  0  0  0  0  0  0  0  0
  147.5810  157.9640  132.9890 C   0  0  0  0  0  0  0  0  0  0  0  0
  146.2910  158.3180  133.3620 C   0  0  0  0  0  0  0  0  0  0  0  0
  145.4030  157.2360  133.3820 C   0  0  0  0  0  0  0  0  0  0  0  0
  145.9880  156.0190  133.0220 C   0  0  0  0  0  0  0  0  0  0  0  0
  145.3170  154.6960  132.9490 C   0  0  0  0  0  0  0  0  0  0  0  0
  146.0770  153.5270  132.6780 C   0  0  0  0  0  0  0  0  0  0  0  0
  145.4610  152.2690  132.5900 C   0  0  0  0  0  0  0  0  0  0  0  0
  144.0860  152.2010  132.7850 C   0  0  0  0  0  0  0  0  0  0  0  0
  143.2380  151.1200  132.7180 C   0  0  0  0  0  0  0  0  0  0  0  0
  141.9700  151.6310  132.9780 C   0  0  0  0  0  0  0  0  0  0  0  0
  140.7580  150.7930  133.0620 C   0  0  0  0  0  0  0  0  0  0  0  0
  139.5680  151.1380  132.3530 N   0  0  0  0  0  0  0  0  0  0  0  0
  140.7550  149.7850  133.8180 O   0  0  0  0  0  0  0  0  0  0  0  0
  142.0260  152.9780  133.1840 N   0  0  0  0  0  0  0  0  0  0  0  0
  140.9220  153.8800  133.3680 C   0  0  0  0  0  0  0  0  0  0  0  0
  139.9070  153.8030  132.6260 O   0  0  0  0  0  0  0  0  0  0  0  0
  140.9610  154.8490  134.3640 O   0  0  0  0  0  0  0  0  0  0  0  0
  143.3330  153.3110  133.0650 C   0  0  0  0  0  0  0  0  0  0  0  0
  143.9180  154.5820  133.1350 C   0  0  0  0  0  0  0  0  0  0  0  0
  147.6170  156.3110  132.6850 S   0  0  0  0  0  0  0  0  0  0  0  0
  149.6329  160.7593  131.1824 H   0  0  0  0  0  0  0  0  0  0  0  0
  150.5027  159.6021  130.1189 H   0  0  0  0  0  0  0  0  0  0  0  0
  148.7070  159.6464  130.1189 H   0  0  0  0  0  0  0  0  0  0  0  0
  145.9962  159.3467  133.6165 H   0  0  0  0  0  0  0  0  0  0  0  0
  144.3422  157.3347  133.6559 H   0  0  0  0  0  0  0  0  0  0  0  0
  147.1646  153.6089  132.5350 H   0  0  0  0  0  0  0  0  0  0  0  0
  146.0481  151.3644  132.3734 H   0  0  0  0  0  0  0  0  0  0  0  0
  143.5052  150.0745  132.5044 H   0  0  0  0  0  0  0  0  0  0  0  0
  139.4830  152.0530  131.8560 H   0  0  0  0  0  0  0  0  0  0  0  0
  138.7330  150.5120  132.3930 H   0  0  0  0  0  0  0  0  0  0  0  0
  143.3032  155.4730  133.3304 H   0  0  0  0  0  0  0  0  0  0  0  0
  1  2  1  0
  2  3  1  0
  3  4  2  0
  3  5  1  0
  5  6  2  0
  6  7  1  0
  7  8  2  0
  8  9  1  0
  9 10  2  0
 10 11  1  0
 11 12  2  0
 12 13  1  0
 13 14  2  0
 14 15  1  0
 15 16  1  0
 15 17  2  0
 14 18  1  0
 18 19  1  0
 19 20  2  0
 19 21  1  0
 18 22  1  0
 22 23  2  0
  8 24  1  0
 24  5  1  0
 23  9  1  0
 22 12  1  0
  1 25  1  0
  1 26  1  0
  1 27  1  0
  6 28  1  0
  7 29  1  0
 10 30  1  0
 11 31  1  0
 13 32  1  0
 16 33  1  0
 16 34  1  0
 23 35  1  0
M  CHG  1  21  -1
M  END
>  <UniqueID>  (74) 
74

>  <SMILES>  (74) 
COC(=O)c1ccc(-c2ccc3cc(C(N)=O)n(C(=O)[O-])c3c2)s1

>  <Energy>  (74) 
103.09575322782445

>  <Genealogy>  (74) 
COC(=O)c1ccc(-c2ccc3cc(C(N)=O)n(C(=O)[O-])c3c2)s1 (protonated)
COC(=O)c1ccc(-c2ccc3cc(C(N)=O)n(C(=O)[O-])c3c2)s1 (3D coordinates assigned)
COC(=O)c1ccc(-c2ccc3cc(C(N)=O)n(C(=O)[O-])c3c2)s1 (optimized conformer: 103.09575322782445 kcal/mol)

>  <smiles>  (74) 
COC(=O)c1ccc(-c2ccc3cc(C(N)=O)n(C(=O)O)c3c2)s1

>  <score_type>  (74) 
oracle

>  <origin>  (74) 
adg

>  <m_score__min__energy>  (74) 
-7.46

>  <m_primary>  (74) 
energy

$$$$
74:0
     RDKit          3D

 43 44  0  0  0  0  0  0  0  0999 V2000
  144.3550  154.7590  131.7780 C   0  0  0  0  0  0  0  0  0  0  0  0
  144.9140  154.4460  133.1620 C   0  0  0  0  0  0  0  0  0  0  0  0
  145.5040  155.6090  133.7390 O   0  0  0  0  0  0  0  0  0  0  0  0
  146.2340  156.5480  133.0030 C   0  0  0  0  0  0  0  0  0  0  0  0
  147.0990  156.1720  132.1650 O   0  0  0  0  0  0  0  0  0  0  0  0
  146.0110  157.9500  133.2180 N   0  0  0  0  0  0  0  0  0  0  0  0
  146.9170  158.9640  133.1180 C   0  0  0  0  0  0  0  0  0  0  0  0
  148.3760  158.8090  132.9350 C   0  0  0  0  0  0  0  0  0  0  0  0
  148.9150  158.3530  131.6980 N   0  0  0  0  0  0  0  0  0  0  0  0
  149.1530  159.0400  133.9000 O   0  0  0  0  0  0  0  0  0  0  0  0
  146.2910  160.1960  133.2920 C   0  0  0  0  0  0  0  0  0  0  0  0
  144.9640  159.9030  133.5090 C   0  0  0  0  0  0  0  0  0  0  0  0
  143.8860  160.7500  133.7340 C   0  0  0  0  0  0  0  0  0  0  0  0
  142.6150  160.1760  133.8960 C   0  0  0  0  0  0  0  0  0  0  0  0
  142.4260  158.7650  133.8060 C   0  0  0  0  0  0  0  0  0  0  0  0
  141.0530  158.1010  134.0010 C   0  0  0  0  0  0  0  0  0  0  0  0
  141.2650  156.5770  134.1230 C   0  0  0  0  0  0  0  0  0  0  0  0
  140.3120  158.5880  135.2670 C   0  0  0  0  0  0  0  0  0  0  0  0
  140.1670  158.4240  132.8100 C   0  0  0  0  0  0  0  0  0  0  0  0
  139.5600  157.4900  132.2160 O   0  0  0  0  0  0  0  0  0  0  0  0
  140.0210  159.7450  132.3690 O   0  0  0  0  0  0  0  0  0  0  0  0
  139.0850  160.1210  131.3660 C   0  0  0  0  0  0  0  0  0  0  0  0
  143.5660  157.9430  133.5960 C   0  0  0  0  0  0  0  0  0  0  0  0
  144.8200  158.5440  133.4580 C   0  0  0  0  0  0  0  0  0  0  0  0
  143.3994  155.2941  131.8809 H   0  0  0  0  0  0  0  0  0  0  0  0
  145.0700  155.3880  131.2274 H   0  0  0  0  0  0  0  0  0  0  0  0
  144.1924  153.8207  131.2274 H   0  0  0  0  0  0  0  0  0  0  0  0
  144.0980  154.0947  133.8107 H   0  0  0  0  0  0  0  0  0  0  0  0
  145.6850  153.6674  133.0656 H   0  0  0  0  0  0  0  0  0  0  0  0
  148.5790  157.4660  131.2590 H   0  0  0  0  0  0  0  0  0  0  0  0
  146.7580  161.1915  133.2623 H   0  0  0  0  0  0  0  0  0  0  0  0
  144.0244  161.8401  133.7838 H   0  0  0  0  0  0  0  0  0  0  0  0
  141.7500  160.8256  134.0958 H   0  0  0  0  0  0  0  0  0  0  0  0
  141.3041  156.2962  135.1858 H   0  0  0  0  0  0  0  0  0  0  0  0
  140.4314  156.0506  133.6351 H   0  0  0  0  0  0  0  0  0  0  0  0
  142.2106  156.2981  133.6351 H   0  0  0  0  0  0  0  0  0  0  0  0
  140.8461  158.2370  136.1623 H   0  0  0  0  0  0  0  0  0  0  0  0
  140.2746  159.6874  135.2698 H   0  0  0  0  0  0  0  0  0  0  0  0
  139.2880  158.1862  135.2698 H   0  0  0  0  0  0  0  0  0  0  0  0
  138.1652  160.4905  131.8429 H   0  0  0  0  0  0  0  0  0  0  0  0
  139.5178  160.9150  130.7398 H   0  0  0  0  0  0  0  0  0  0  0  0
  138.8482  159.2482  130.7398 H   0  0  0  0  0  0  0  0  0  0  0  0
  143.4628  156.8491  133.5428 H   0  0  0  0  0  0  0  0  0  0  0  0
  1  2  1  0
  2  3  1  0
  3  4  1  0
  4  5  2  0
  4  6  1  0
  6  7  1  0
  7  8  1  0
  8  9  1  0
  8 10  2  0
  7 11  2  0
 11 12  1  0
 12 13  2  0
 13 14  1  0
 14 15  2  0
 15 16  1  0
 16 17  1  0
 16 18  1  0
 16 19  1  0
 19 20  2  0
 19 21  1  0
 21 22  1  0
 15 23  1  0
 23 24  2  0
 24  6  1  0
 24 12  1  0
  1 25  1  0
  1 26  1  0
  1 27  1  0
  2 28  1  0
  2 29  1  0
  9 30  1  0
 11 31  1  0
 13 32  1  0
 14 33  1  0
 17 34  1  0
 17 35  1  0
 17 36  1  0
 18 37  1  0
 18 38  1  0
 18 39  1  0
 22 40  1  0
 22 41  1  0
 22 42  1  0
 23 43  1  0
M  CHG  1   9  -1
M  END
>  <UniqueID>  (75) 
75

>  <SMILES>  (75) 
CCOC(=O)n1c(C([NH-])=O)cc2ccc(C(C)(C)C(=O)OC)cc21

>  <Energy>  (75) 
78.41312288941265

>  <Genealogy>  (75) 
CCOC(=O)n1c(C([NH-])=O)cc2ccc(C(C)(C)C(=O)OC)cc21 (protonated)
CCOC(=O)n1c(C([NH-])=O)cc2ccc(C(C)(C)C(=O)OC)cc21 (3D coordinates assigned)
CCOC(=O)n1c(C([NH-])=O)cc2ccc(C(C)(C)C(=O)OC)cc21 (optimized conformer: 78.41312288941265 kcal/mol)

>  <smiles>  (75) 
CCOC(=O)n1c(C(N)=O)cc2ccc(C(C)(C)C(=O)OC)cc21

>  <score_type>  (75) 
oracle

>  <origin>  (75) 
adg

>  <m_score__min__energy>  (75) 
-6.3099999999999996

>  <m_primary>  (75) 
energy

$$$$
75:0
     RDKit          3D

 24 25  0  0  0  0  0  0  0  0999 V2000
  141.2800  160.9030  133.7050 N   0  0  0  0  0  0  0  0  0  0  0  0
  142.1000  160.0840  134.5350 C   0  0  0  0  0  0  0  0  0  0  0  0
  141.6400  159.6600  135.6280 O   0  0  0  0  0  0  0  0  0  0  0  0
  143.4530  159.6790  134.1020 C   0  0  0  0  0  0  0  0  0  0  0  0
  143.8290  158.3510  133.9100 C   0  0  0  0  0  0  0  0  0  0  0  0
  145.1150  158.4030  133.4250 C   0  0  0  0  0  0  0  0  0  0  0  0
  145.9750  157.3730  133.0590 C   0  0  0  0  0  0  0  0  0  0  0  0
  147.2610  157.7150  132.6090 C   0  0  0  0  0  0  0  0  0  0  0  0
  147.6740  159.0720  132.5570 C   0  0  0  0  0  0  0  0  0  0  0  0
  149.0430  159.4280  132.0360 C   0  0  0  0  0  0  0  0  0  0  0  0
  149.9970  159.0210  132.9480 F   0  0  0  0  0  0  0  0  0  0  0  0
  149.1540  160.7950  131.8460 F   0  0  0  0  0  0  0  0  0  0  0  0
  149.2810  158.8030  130.8230 F   0  0  0  0  0  0  0  0  0  0  0  0
  146.7610  160.0920  132.9150 C   0  0  0  0  0  0  0  0  0  0  0  0
  145.4800  159.7220  133.3430 C   0  0  0  0  0  0  0  0  0  0  0  0
  144.4700  160.5200  133.7570 N   0  0  0  0  0  0  0  0  0  0  0  0
  144.5130  161.9480  133.8980 C   0  0  0  0  0  0  0  0  0  0  0  0
  143.6290  162.6670  133.3630 O   0  0  0  0  0  0  0  0  0  0  0  0
  145.5470  162.5530  134.6030 O   0  0  0  0  0  0  0  0  0  0  0  0
  141.6390  161.8020  133.3140 H   0  0  0  0  0  0  0  0  0  0  0  0
  143.2256  157.4522  134.1049 H   0  0  0  0  0  0  0  0  0  0  0  0
  145.6575  156.3216  133.1201 H   0  0  0  0  0  0  0  0  0  0  0  0
  147.9556  156.9225  132.2934 H   0  0  0  0  0  0  0  0  0  0  0  0
  147.0509  161.1516  132.8584 H   0  0  0  0  0  0  0  0  0  0  0  0
  1  2  1  0
  2  3  2  0
  2  4  1  0
  4  5  2  0
  5  6  1  0
  6  7  2  0
  7  8  1  0
  8  9  2  0
  9 10  1  0
 10 11  1  0
 10 12  1  0
 10 13  1  0
  9 14  1  0
 14 15  2  0
 15 16  1  0
 16 17  1  0
 17 18  2  0
 17 19  1  0
 16  4  1  0
 15  6  1  0
  1 20  1  0
  5 21  1  0
  7 22  1  0
  8 23  1  0
 14 24  1  0
M  CHG  2   1  -1  19  -1
M  END
>  <UniqueID>  (76) 
76

>  <SMILES>  (76) 
[NH-]C(=O)c1cc2ccc(C(F)(F)F)cc2n1C(=O)[O-]

>  <Energy>  (76) 
65.24609162101095

>  <Genealogy>  (76) 
[NH-]C(=O)c1cc2ccc(C(F)(F)F)cc2n1C(=O)[O-] (protonated)
[NH-]C(=O)c1cc2ccc(C(F)(F)F)cc2n1C(=O)[O-] (3D coordinates assigned)
[NH-]C(=O)c1cc2ccc(C(F)(F)F)cc2n1C(=O)[O-] (optimized conformer: 65.24609162101095 kcal/mol)

>  <smiles>  (76) 
NC(=O)c1cc2ccc(C(F)(F)F)cc2n1C(=O)O

>  <score_type>  (76) 
oracle

>  <origin>  (76) 
adg

>  <m_score__min__energy>  (76) 
-5.29

>  <m_primary>  (76) 
energy

$$$$
76:0
     RDKit          3D

 37 39  0  0  0  0  0  0  0  0999 V2000
  139.6830  157.7670  135.4680 C   0  0  0  0  0  0  0  0  0  0  0  0
  140.0240  158.2050  134.0820 C   0  0  0  0  0  0  0  0  0  0  0  0
  139.5430  159.2780  133.5010 O   0  0  0  0  0  0  0  0  0  0  0  0
  140.0850  159.3130  132.3050 C   0  0  0  0  0  0  0  0  0  0  0  0
  139.8520  160.2140  131.4570 O   0  0  0  0  0  0  0  0  0  0  0  0
  140.8990  158.3040  132.0900 O   0  0  0  0  0  0  0  0  0  0  0  0
  140.8810  157.5870  133.1880 C   0  0  0  0  0  0  0  0  0  0  0  0
  141.6700  156.3280  133.3900 C   0  0  0  0  0  0  0  0  0  0  0  0
  143.0380  156.6340  133.6520 O   0  0  0  0  0  0  0  0  0  0  0  0
  143.4550  157.8130  134.2840 C   0  0  0  0  0  0  0  0  0  0  0  0
  142.8020  158.2790  135.2560 O   0  0  0  0  0  0  0  0  0  0  0  0
  144.6130  158.5100  133.7980 N   0  0  0  0  0  0  0  0  0  0  0  0
  144.7640  159.8530  133.6240 C   0  0  0  0  0  0  0  0  0  0  0  0
  143.6950  160.8670  133.7240 C   0  0  0  0  0  0  0  0  0  0  0  0
  142.3240  160.4820  133.7580 N   0  0  0  0  0  0  0  0  0  0  0  0
  143.9940  162.0910  133.7300 O   0  0  0  0  0  0  0  0  0  0  0  0
  146.0700  160.1540  133.2440 C   0  0  0  0  0  0  0  0  0  0  0  0
  146.7200  158.9420  133.1820 C   0  0  0  0  0  0  0  0  0  0  0  0
  148.0390  158.6510  132.8540 C   0  0  0  0  0  0  0  0  0  0  0  0
  148.4490  157.3080  132.8950 C   0  0  0  0  0  0  0  0  0  0  0  0
  147.5450  156.2870  133.2870 C   0  0  0  0  0  0  0  0  0  0  0  0
  147.9850  154.8440  133.2920 C   0  0  0  0  0  0  0  0  0  0  0  0
  148.1120  154.3770  134.5890 F   0  0  0  0  0  0  0  0  0  0  0  0
  147.0630  154.0490  132.6340 F   0  0  0  0  0  0  0  0  0  0  0  0
  149.2070  154.7400  132.6550 F   0  0  0  0  0  0  0  0  0  0  0  0
  146.2050  156.6210  133.5910 C   0  0  0  0  0  0  0  0  0  0  0  0
  145.8200  157.9660  133.5230 C   0  0  0  0  0  0  0  0  0  0  0  0
  140.1907  158.4191  136.1940 H   0  0  0  0  0  0  0  0  0  0  0  0
  138.5948  157.8313  135.6156 H   0  0  0  0  0  0  0  0  0  0  0  0
  140.0122  156.7279  135.6156 H   0  0  0  0  0  0  0  0  0  0  0  0
  141.2533  155.7723  134.2430 H   0  0  0  0  0  0  0  0  0  0  0  0
  141.6098  155.7192  132.4758 H   0  0  0  0  0  0  0  0  0  0  0  0
  142.0390  159.4910  133.5890 H   0  0  0  0  0  0  0  0  0  0  0  0
  146.4921  161.1486  133.0374 H   0  0  0  0  0  0  0  0  0  0  0  0
  148.7412  159.4489  132.5706 H   0  0  0  0  0  0  0  0  0  0  0  0
  149.4813  157.0453  132.6204 H   0  0  0  0  0  0  0  0  0  0  0  0
  145.4815  155.8424  133.8744 H   0  0  0  0  0  0  0  0  0  0  0  0
  1  2  1  0
  2  3  1  0
  3  4  1  0
  4  5  2  0
  4  6  1  0
  6  7  1  0
  7  8  1  0
  8  9  1  0
  9 10  1  0
 10 11  2  0
 10 12  1  0
 12 13  1  0
 13 14  1  0
 14 15  1  0
 14 16  2  0
 13 17  2  0
 17 18  1  0
 18 19  2  0
 19 20  1  0
 20 21  2  0
 21 22  1  0
 22 23  1  0
 22 24  1  0
 22 25  1  0
 21 26  1  0
 26 27  2  0
  7  2  2  0
 27 12  1  0
 27 18  1  0
  1 28  1  0
  1 29  1  0
  1 30  1  0
  8 31  1  0
  8 32  1  0
 15 33  1  0
 17 34  1  0
 19 35  1  0
 20 36  1  0
 26 37  1  0
M  CHG  1  15  -1
M  END
>  <UniqueID>  (77) 
77

>  <SMILES>  (77) 
Cc1oc(=O)oc1COC(=O)n1c(C([NH-])=O)cc2ccc(C(F)(F)F)cc21

>  <Energy>  (77) 
108.6271476244278

>  <Genealogy>  (77) 
Cc1oc(=O)oc1COC(=O)n1c(C([NH-])=O)cc2ccc(C(F)(F)F)cc21 (protonated)
Cc1oc(=O)oc1COC(=O)n1c(C([NH-])=O)cc2ccc(C(F)(F)F)cc21 (3D coordinates assigned)
Cc1oc(=O)oc1COC(=O)n1c(C([NH-])=O)cc2ccc(C(F)(F)F)cc21 (optimized conformer: 108.6271476244278 kcal/mol)

>  <smiles>  (77) 
Cc1oc(=O)oc1COC(=O)n1c(C(N)=O)cc2ccc(C(F)(F)F)cc21

>  <score_type>  (77) 
oracle

>  <origin>  (77) 
adg

>  <m_score__min__energy>  (77) 
-6.8700000000000001

>  <m_primary>  (77) 
energy

$$$$
77:0
     RDKit          3D

 40 42  0  0  0  0  0  0  0  0999 V2000
  141.9720  155.7940  136.4110 C   0  0  0  0  0  0  0  0  0  0  0  0
  142.5530  154.7880  135.4300 C   0  0  0  0  0  0  0  0  0  0  0  0
  142.5670  155.3530  134.1240 O   0  0  0  0  0  0  0  0  0  0  0  0
  141.5480  156.1800  133.6440 C   0  0  0  0  0  0  0  0  0  0  0  0
  140.5660  155.6860  133.0240 O   0  0  0  0  0  0  0  0  0  0  0  0
  141.6310  157.6010  133.8400 N   0  0  0  0  0  0  0  0  0  0  0  0
  140.6470  158.4380  134.2770 C   0  0  0  0  0  0  0  0  0  0  0  0
  139.2250  158.0830  134.4600 C   0  0  0  0  0  0  0  0  0  0  0  0
  138.4440  157.6130  133.3650 N   0  0  0  0  0  0  0  0  0  0  0  0
  138.6790  158.2420  135.5840 O   0  0  0  0  0  0  0  0  0  0  0  0
  141.1430  159.7280  134.4550 C   0  0  0  0  0  0  0  0  0  0  0  0
  142.4710  159.6590  134.1010 C   0  0  0  0  0  0  0  0  0  0  0  0
  143.4490  160.6490  134.1030 C   0  0  0  0  0  0  0  0  0  0  0  0
  144.7510  160.2890  133.7190 C   0  0  0  0  0  0  0  0  0  0  0  0
  145.0510  158.9550  133.3430 C   0  0  0  0  0  0  0  0  0  0  0  0
  146.4580  158.5690  132.9820 C   0  0  0  0  0  0  0  0  0  0  0  0
  147.2350  159.7910  132.4690 C   0  0  1  0  0  0  0  0  0  0  0  0
  148.3610  160.0710  133.2780 O   0  0  0  0  0  0  0  0  0  0  0  0
  148.6300  159.6420  131.9630 C   0  0  1  0  0  0  0  0  0  0  0  0
  149.3630  158.2990  131.9330 C   0  0  0  0  0  0  0  0  0  0  0  0
  149.1430  160.7360  131.1330 C   0  0  0  0  0  0  0  0  0  0  0  0
  149.5480  161.5990  130.4750 N   0  0  0  0  0  0  0  0  0  0  0  0
  144.0370  157.9750  133.3670 C   0  0  0  0  0  0  0  0  0  0  0  0
  142.7420  158.3650  133.7340 C   0  0  0  0  0  0  0  0  0  0  0  0
  142.1665  155.4572  137.4399 H   0  0  0  0  0  0  0  0  0  0  0  0
  142.4423  156.7755  136.2514 H   0  0  0  0  0  0  0  0  0  0  0  0
  140.8868  155.8771  136.2514 H   0  0  0  0  0  0  0  0  0  0  0  0
  143.5801  154.5338  135.7306 H   0  0  0  0  0  0  0  0  0  0  0  0
  141.9354  153.8777  135.4292 H   0  0  0  0  0  0  0  0  0  0  0  0
  138.5890  156.6570  132.9690 H   0  0  0  0  0  0  0  0  0  0  0  0
  140.5907  160.6129  134.8041 H   0  0  0  0  0  0  0  0  0  0  0  0
  143.2096  161.6818  134.3963 H   0  0  0  0  0  0  0  0  0  0  0  0
  145.5459  161.0493  133.7098 H   0  0  0  0  0  0  0  0  0  0  0  0
  146.9629  158.1664  133.8724 H   0  0  0  0  0  0  0  0  0  0  0  0
  146.4262  157.8081  132.1883 H   0  0  0  0  0  0  0  0  0  0  0  0
  146.3479  160.2958  132.0589 H   0  0  0  0  0  0  0  0  0  0  0  0
  149.5484  157.9594  132.9627 H   0  0  0  0  0  0  0  0  0  0  0  0
  148.7454  157.5558  131.4074 H   0  0  0  0  0  0  0  0  0  0  0  0
  150.3221  158.4164  131.4074 H   0  0  0  0  0  0  0  0  0  0  0  0
  144.2573  156.9299  133.1040 H   0  0  0  0  0  0  0  0  0  0  0  0
  1  2  1  0
  2  3  1  0
  3  4  1  0
  4  5  2  0
  4  6  1  0
  6  7  1  0
  7  8  1  0
  8  9  1  0
  8 10  2  0
  7 11  2  0
 11 12  1  0
 12 13  2  0
 13 14  1  0
 14 15  2  0
 15 16  1  0
 16 17  1  0
 17 18  1  0
 18 19  1  0
 19 20  1  0
 19 21  1  6
 21 22  3  0
 15 23  1  0
 23 24  2  0
 24  6  1  0
 24 12  1  0
 19 17  1  0
  1 25  1  0
  1 26  1  0
  1 27  1  0
  2 28  1  0
  2 29  1  0
  9 30  1  0
 11 31  1  0
 13 32  1  0
 14 33  1  0
 16 34  1  0
 16 35  1  0
 17 36  1  6
 20 37  1  0
 20 38  1  0
 20 39  1  0
 23 40  1  0
M  CHG  1   9  -1
M  END
>  <UniqueID>  (78) 
78

>  <SMILES>  (78) 
CCOC(=O)n1c(C([NH-])=O)cc2ccc(C[C@H]3O[C@]3(C)C#N)cc21

>  <Energy>  (78) 
409.3143996916624

>  <Genealogy>  (78) 
CCOC(=O)n1c(C([NH-])=O)cc2ccc(CC3OC3(C)C#N)cc21 (protonated)
CCOC(=O)n1c(C([NH-])=O)cc2ccc(C[C@H]3O[C@]3(C)C#N)cc21 (chirality)
CCOC(=O)n1c(C([NH-])=O)cc2ccc(C[C@H]3O[C@]3(C)C#N)cc21 (3D coordinates assigned)
CCOC(=O)n1c(C([NH-])=O)cc2ccc(C[C@H]3O[C@]3(C)C#N)cc21 (nonaromatic ring conformer: 409.3143996916624 kcal/mol)

>  <smiles>  (78) 
CCOC(=O)n1c(C(N)=O)cc2ccc(CC3OC3(C)C#N)cc21

>  <score_type>  (78) 
oracle

>  <origin>  (78) 
adg

>  <m_score__min__energy>  (78) 
-7.5999999999999996

>  <m_primary>  (78) 
energy

$$$$
78:0
     RDKit          3D

 39 41  0  0  0  0  0  0  0  0999 V2000
  148.8900  154.4670  132.6230 C   0  0  0  0  0  0  0  0  0  0  0  0
  147.3720  154.6050  132.6370 C   0  0  0  0  0  0  0  0  0  0  0  0
  146.9920  155.9790  132.6240 O   0  0  0  0  0  0  0  0  0  0  0  0
  146.0730  156.5330  133.5230 C   0  0  0  0  0  0  0  0  0  0  0  0
  145.3440  155.7850  134.2300 O   0  0  0  0  0  0  0  0  0  0  0  0
  145.9610  157.9600  133.6430 N   0  0  0  0  0  0  0  0  0  0  0  0
  146.9710  158.8750  133.6230 C   0  0  0  0  0  0  0  0  0  0  0  0
  148.4160  158.5690  133.6340 C   0  0  0  0  0  0  0  0  0  0  0  0
  149.0080  157.7530  132.6210 N   0  0  0  0  0  0  0  0  0  0  0  0
  149.1300  158.9880  134.5830 O   0  0  0  0  0  0  0  0  0  0  0  0
  146.4630  160.1710  133.6430 C   0  0  0  0  0  0  0  0  0  0  0  0
  145.0950  160.0220  133.6910 C   0  0  0  0  0  0  0  0  0  0  0  0
  144.0930  160.9860  133.7150 C   0  0  0  0  0  0  0  0  0  0  0  0
  142.7580  160.5490  133.7270 C   0  0  0  0  0  0  0  0  0  0  0  0
  142.4460  159.1640  133.7030 C   0  0  0  0  0  0  0  0  0  0  0  0
  141.0300  158.7150  133.7010 C   0  0  0  0  0  0  0  0  0  0  0  0
  140.2660  158.7640  132.5190 C   0  0  0  0  0  0  0  0  0  0  0  0
  138.9340  158.3380  132.5200 C   0  0  0  0  0  0  0  0  0  0  0  0
  138.3510  157.8620  133.6970 C   0  0  0  0  0  0  0  0  0  0  0  0
  139.0980  157.8100  134.8750 C   0  0  0  0  0  0  0  0  0  0  0  0
  140.4310  158.2330  134.8800 C   0  0  0  0  0  0  0  0  0  0  0  0
  143.4970  158.2160  133.6770 C   0  0  0  0  0  0  0  0  0  0  0  0
  144.8160  158.6790  133.6870 C   0  0  0  0  0  0  0  0  0  0  0  0
  149.2646  154.4329  133.6567 H   0  0  0  0  0  0  0  0  0  0  0  0
  149.1691  153.5398  132.1011 H   0  0  0  0  0  0  0  0  0  0  0  0
  149.3317  155.3287  132.1011 H   0  0  0  0  0  0  0  0  0  0  0  0
  146.9557  154.1065  131.7492 H   0  0  0  0  0  0  0  0  0  0  0  0
  146.9823  154.1384  133.5537 H   0  0  0  0  0  0  0  0  0  0  0  0
  150.0380  157.5820  132.6210 H   0  0  0  0  0  0  0  0  0  0  0  0
  148.4190  157.2480  131.9220 H   0  0  0  0  0  0  0  0  0  0  0  0
  147.0323  161.1121  133.6245 H   0  0  0  0  0  0  0  0  0  0  0  0
  144.3384  162.0582  133.7243 H   0  0  0  0  0  0  0  0  0  0  0  0
  141.9444  161.2888  133.7553 H   0  0  0  0  0  0  0  0  0  0  0  0
  140.7195  159.1395  131.5898 H   0  0  0  0  0  0  0  0  0  0  0  0
  138.3442  158.3778  131.5923 H   0  0  0  0  0  0  0  0  0  0  0  0
  137.3029  157.5281  133.6954 H   0  0  0  0  0  0  0  0  0  0  0  0
  138.6374  157.4356  135.8011 H   0  0  0  0  0  0  0  0  0  0  0  0
  141.0150  158.1888  135.8111 H   0  0  0  0  0  0  0  0  0  0  0  0
  143.2804  157.1379  133.6495 H   0  0  0  0  0  0  0  0  0  0  0  0
  1  2  1  0
  2  3  1  0
  3  4  1  0
  4  5  2  0
  4  6  1  0
  6  7  1  0
  7  8  1  0
  8  9  1  0
  8 10  2  0
  7 11  2  0
 11 12  1  0
 12 13  2  0
 13 14  1  0
 14 15  2  0
 15 16  1  0
 16 17  2  0
 17 18  1  0
 18 19  2  0
 19 20  1  0
 20 21  2  0
 15 22  1  0
 22 23  2  0
 23  6  1  0
 23 12  1  0
 21 16  1  0
  1 24  1  0
  1 25  1  0
  1 26  1  0
  2 27  1  0
  2 28  1  0
  9 29  1  0
  9 30  1  0
 11 31  1  0
 13 32  1  0
 14 33  1  0
 17 34  1  0
 18 35  1  0
 19 36  1  0
 20 37  1  0
 21 38  1  0
 22 39  1  0
M  END
>  <UniqueID>  (79) 
79

>  <SMILES>  (79) 
CCOC(=O)n1c(C(N)=O)cc2ccc(-c3ccccc3)cc21

>  <Energy>  (79) 
82.07845286780189

>  <Genealogy>  (79) 
CCOC(=O)n1c(C(N)=O)cc2ccc(-c3ccccc3)cc21 (3D coordinates assigned)
CCOC(=O)n1c(C(N)=O)cc2ccc(-c3ccccc3)cc21 (optimized conformer: 82.07845286780189 kcal/mol)

>  <smiles>  (79) 
CCOC(=O)n1c(C(N)=O)cc2ccc(-c3ccccc3)cc21

>  <score_type>  (79) 
oracle

>  <origin>  (79) 
adg

>  <m_score__min__energy>  (79) 
-7.6699999999999999

>  <m_primary>  (79) 
energy

$$$$
79:0
     RDKit          3D

 43 44  0  0  0  0  0  0  0  0999 V2000
  146.5980  151.4920  131.9670 C   0  0  0  0  0  0  0  0  0  0  0  0
  147.9040  150.7330  132.2000 C   0  0  0  0  0  0  0  0  0  0  0  0
  149.0920  151.5730  131.9140 N   0  0  0  0  0  0  0  0  0  0  0  0
  150.1840  150.7880  131.2990 C   0  0  0  0  0  0  0  0  0  0  0  0
  149.9990  150.7220  129.7840 C   0  0  0  0  0  0  0  0  0  0  0  0
  149.5460  152.4240  133.0460 C   0  0  0  0  0  0  0  0  0  0  0  0
  148.5100  153.4450  133.5630 C   0  0  0  0  0  0  0  0  0  0  0  0
  148.0980  154.3730  132.5080 N   0  0  0  0  0  0  0  0  0  0  0  0
  147.8330  155.7680  132.7190 C   0  0  0  0  0  0  0  0  0  0  0  0
  148.8960  156.6950  132.5990 C   0  0  0  0  0  0  0  0  0  0  0  0
  148.6750  158.0710  132.7650 C   0  0  0  0  0  0  0  0  0  0  0  0
  147.3800  158.4930  133.0500 C   0  0  0  0  0  0  0  0  0  0  0  0
  146.8800  159.7660  133.2140 C   0  0  0  0  0  0  0  0  0  0  0  0
  145.5150  159.6010  133.4410 C   0  0  0  0  0  0  0  0  0  0  0  0
  144.5990  160.7220  133.7440 C   0  0  0  0  0  0  0  0  0  0  0  0
  143.2140  160.6170  133.4180 N   0  0  0  0  0  0  0  0  0  0  0  0
  145.0330  161.7880  134.2540 O   0  0  0  0  0  0  0  0  0  0  0  0
  145.1830  158.2780  133.4130 N   0  0  0  0  0  0  0  0  0  0  0  0
  143.8740  157.6970  133.5300 C   0  0  0  0  0  0  0  0  0  0  0  0
  143.0250  157.8560  132.6140 O   0  0  0  0  0  0  0  0  0  0  0  0
  143.5200  156.9840  134.6700 O   0  0  0  0  0  0  0  0  0  0  0  0
  146.3360  157.6120  133.1740 C   0  0  0  0  0  0  0  0  0  0  0  0
  146.5250  156.2380  132.9950 C   0  0  0  0  0  0  0  0  0  0  0  0
  146.1480  151.7535  132.9361 H   0  0  0  0  0  0  0  0  0  0  0  0
  146.8043  152.4109  131.3986 H   0  0  0  0  0  0  0  0  0  0  0  0
  145.9017  150.8578  131.3986 H   0  0  0  0  0  0  0  0  0  0  0  0
  147.9434  150.4075  133.2500 H   0  0  0  0  0  0  0  0  0  0  0  0
  147.9237  149.8717  131.5161 H   0  0  0  0  0  0  0  0  0  0  0  0
  151.1480  151.2664  131.5267 H   0  0  0  0  0  0  0  0  0  0  0  0
  150.1654  149.7668  131.7073 H   0  0  0  0  0  0  0  0  0  0  0  0
  148.9859  150.3606  129.5537 H   0  0  0  0  0  0  0  0  0  0  0  0
  150.1372  151.7249  129.3537 H   0  0  0  0  0  0  0  0  0  0  0  0
  150.7407  150.0330  129.3537 H   0  0  0  0  0  0  0  0  0  0  0  0
  149.8161  151.7616  133.8817 H   0  0  0  0  0  0  0  0  0  0  0  0
  150.3895  153.0160  132.6612 H   0  0  0  0  0  0  0  0  0  0  0  0
  147.6251  152.9028  133.9276 H   0  0  0  0  0  0  0  0  0  0  0  0
  148.9739  154.0273  134.3728 H   0  0  0  0  0  0  0  0  0  0  0  0
  147.9780  153.9910  131.5440 H   0  0  0  0  0  0  0  0  0  0  0  0
  149.9093  156.3319  132.3725 H   0  0  0  0  0  0  0  0  0  0  0  0
  149.4996  158.7932  132.6727 H   0  0  0  0  0  0  0  0  0  0  0  0
  147.4396  160.7122  133.1742 H   0  0  0  0  0  0  0  0  0  0  0  0
  142.8920  160.0320  132.6140 H   0  0  0  0  0  0  0  0  0  0  0  0
  145.6787  155.5390  133.0667 H   0  0  0  0  0  0  0  0  0  0  0  0
  1  2  1  0
  2  3  1  0
  3  4  1  0
  4  5  1  0
  3  6  1  0
  6  7  1  0
  7  8  1  0
  8  9  1  0
  9 10  2  0
 10 11  1  0
 11 12  2  0
 12 13  1  0
 13 14  2  0
 14 15  1  0
 15 16  1  0
 15 17  2  0
 14 18  1  0
 18 19  1  0
 19 20  2  0
 19 21  1  0
 18 22  1  0
 22 23  2  0
 23  9  1  0
 22 12  1  0
  1 24  1  0
  1 25  1  0
  1 26  1  0
  2 27  1  0
  2 28  1  0
  4 29  1  0
  4 30  1  0
  5 31  1  0
  5 32  1  0
  5 33  1  0
  6 34  1  0
  6 35  1  0
  7 36  1  0
  7 37  1  0
  8 38  1  0
 10 39  1  0
 11 40  1  0
 13 41  1  0
 16 42  1  0
 23 43  1  0
M  CHG  2  16  -1  21  -1
M  END
>  <UniqueID>  (80) 
80

>  <SMILES>  (80) 
CCN(CC)CCNc1ccc2cc(C([NH-])=O)n(C(=O)[O-])c2c1

>  <Energy>  (80) 
84.50314052541793

>  <Genealogy>  (80) 
CCN(CC)CCNc1ccc2cc(C([NH-])=O)n(C(=O)[O-])c2c1 (protonated)
CCN(CC)CCNc1ccc2cc(C([NH-])=O)n(C(=O)[O-])c2c1 (3D coordinates assigned)
CCN(CC)CCNc1ccc2cc(C([NH-])=O)n(C(=O)[O-])c2c1 (optimized conformer: 84.50314052541793 kcal/mol)

>  <smiles>  (80) 
CCN(CC)CCNc1ccc2cc(C(N)=O)n(C(=O)O)c2c1

>  <score_type>  (80) 
oracle

>  <origin>  (80) 
adg

>  <m_score__min__energy>  (80) 
-6.96

>  <m_primary>  (80) 
energy

$$$$
80:0
     RDKit          3D

 42 44  0  0  0  0  0  0  0  0999 V2000
  142.9240  158.1130  133.1440 C   0  0  0  0  0  0  0  0  0  0  0  0
  143.6510  159.0140  134.0910 C   0  0  0  0  0  0  0  0  0  0  0  0
  143.0600  159.4260  135.1250 O   0  0  0  0  0  0  0  0  0  0  0  0
  145.0050  159.4190  133.8330 N   0  0  0  0  0  0  0  0  0  0  0  0
  145.4920  160.6900  133.7680 C   0  0  0  0  0  0  0  0  0  0  0  0
  144.7320  161.9230  134.0560 C   0  0  0  0  0  0  0  0  0  0  0  0
  143.3450  161.9940  133.7300 N   0  0  0  0  0  0  0  0  0  0  0  0
  145.2960  162.9260  134.5660 O   0  0  0  0  0  0  0  0  0  0  0  0
  146.8490  160.6760  133.4470 C   0  0  0  0  0  0  0  0  0  0  0  0
  147.1790  159.3460  133.3150 C   0  0  0  0  0  0  0  0  0  0  0  0
  148.3940  158.7530  132.9880 C   0  0  0  0  0  0  0  0  0  0  0  0
  148.4400  157.3530  132.8920 C   0  0  0  0  0  0  0  0  0  0  0  0
  147.2760  156.5680  133.1120 C   0  0  0  0  0  0  0  0  0  0  0  0
  147.3310  155.1300  133.0030 N   0  0  0  0  0  0  0  0  0  0  0  0
  148.5910  154.4130  133.2400 C   0  0  0  0  0  0  0  0  0  0  0  0
  148.5820  153.0710  132.4990 C   0  0  0  0  0  0  0  0  0  0  0  0
  147.4420  152.2110  132.9100 N   0  0  0  0  0  0  0  0  0  0  0  0
  147.1850  151.1920  131.8770 C   0  0  0  0  0  0  0  0  0  0  0  0
  146.1940  152.9600  133.2400 C   0  0  0  0  0  0  0  0  0  0  0  0
  146.1420  154.3590  132.6110 C   0  0  0  0  0  0  0  0  0  0  0  0
  146.0600  157.2130  133.4420 C   0  0  0  0  0  0  0  0  0  0  0  0
  146.0500  158.6080  133.5510 C   0  0  0  0  0  0  0  0  0  0  0  0
  142.3334  157.3811  133.7146 H   0  0  0  0  0  0  0  0  0  0  0  0
  142.2530  158.7116  132.5105 H   0  0  0  0  0  0  0  0  0  0  0  0
  143.6509  157.5836  132.5105 H   0  0  0  0  0  0  0  0  0  0  0  0
  142.6940  161.2170  133.9820 H   0  0  0  0  0  0  0  0  0  0  0  0
  147.5144  161.5434  133.3252 H   0  0  0  0  0  0  0  0  0  0  0  0
  149.2921  159.3627  132.8099 H   0  0  0  0  0  0  0  0  0  0  0  0
  149.3898  156.8571  132.6431 H   0  0  0  0  0  0  0  0  0  0  0  0
  149.4307  155.0235  132.8765 H   0  0  0  0  0  0  0  0  0  0  0  0
  148.7019  154.2275  134.3186 H   0  0  0  0  0  0  0  0  0  0  0  0
  148.5091  153.2634  131.4184 H   0  0  0  0  0  0  0  0  0  0  0  0
  149.5127  152.5407  132.7491 H   0  0  0  0  0  0  0  0  0  0  0  0
  147.7370  151.6950  133.7750 H   0  0  0  0  0  0  0  0  0  0  0  0
  146.9433  150.2335  132.3596 H   0  0  0  0  0  0  0  0  0  0  0  0
  146.3391  151.5106  131.2502 H   0  0  0  0  0  0  0  0  0  0  0  0
  148.0808  151.0713  131.2502 H   0  0  0  0  0  0  0  0  0  0  0  0
  145.3325  152.3810  132.8757 H   0  0  0  0  0  0  0  0  0  0  0  0
  146.1722  153.0924  134.3318 H   0  0  0  0  0  0  0  0  0  0  0  0
  146.1134  154.2652  131.5154 H   0  0  0  0  0  0  0  0  0  0  0  0
  145.2402  154.8808  132.9639 H   0  0  0  0  0  0  0  0  0  0  0  0
  145.1423  156.6300  133.6092 H   0  0  0  0  0  0  0  0  0  0  0  0
  1  2  1  0
  2  3  2  0
  2  4  1  0
  4  5  1  0
  5  6  1  0
  6  7  1  0
  6  8  2  0
  5  9  2  0
  9 10  1  0
 10 11  2  0
 11 12  1  0
 12 13  2  0
 13 14  1  0
 14 15  1  0
 15 16  1  0
 16 17  1  0
 17 18  1  0
 17 19  1  0
 19 20  1  0
 13 21  1  0
 21 22  2  0
 22  4  1  0
 22 10  1  0
 20 14  1  0
  1 23  1  0
  1 24  1  0
  1 25  1  0
  7 26  1  0
  9 27  1  0
 11 28  1  0
 12 29  1  0
 15 30  1  0
 15 31  1  0
 16 32  1  0
 16 33  1  0
 17 34  1  0
 18 35  1  0
 18 36  1  0
 18 37  1  0
 19 38  1  0
 19 39  1  0
 20 40  1  0
 20 41  1  0
 21 42  1  0
M  CHG  2   7  -1  17   1
M  END
>  <UniqueID>  (81) 
81

>  <SMILES>  (81) 
CC(=O)n1c(C([NH-])=O)cc2ccc(N3CC[NH+](C)CC3)cc21

>  <Energy>  (81) 
90.93491421652548

>  <Genealogy>  (81) 
CC(=O)n1c(C([NH-])=O)cc2ccc(N3CC[NH+](C)CC3)cc21 (protonated)
CC(=O)n1c(C([NH-])=O)cc2ccc(N3CC[NH+](C)CC3)cc21 (3D coordinates assigned)
CC(=O)n1c(C([NH-])=O)cc2ccc(N3CC[NH+](C)CC3)cc21 (nonaromatic ring conformer: 90.93491421652548 kcal/mol)

>  <smiles>  (81) 
CC(=O)n1c(C(N)=O)cc2ccc(N3CCN(C)CC3)cc21

>  <score_type>  (81) 
oracle

>  <origin>  (81) 
adg

>  <m_score__min__energy>  (81) 
-6.4699999999999998

>  <m_primary>  (81) 
energy

$$$$
81:0
     RDKit          3D

 39 41  0  0  0  0  0  0  0  0999 V2000
  140.8160  151.0200  140.1820 C   0  0  0  0  0  0  0  0  0  0  0  0
  141.1400  151.4470  138.7460 C   0  0  1  0  0  0  0  0  0  0  0  0
  140.3080  150.6970  137.7410 C   0  0  0  0  0  0  0  0  0  0  0  0
  139.3500  149.9800  138.1320 O   0  0  0  0  0  0  0  0  0  0  0  0
  140.6150  150.7430  136.3870 O   0  0  0  0  0  0  0  0  0  0  0  0
  140.9700  152.9420  138.5710 C   0  0  0  0  0  0  0  0  0  0  0  0
  140.2300  153.7080  139.5140 C   0  0  0  0  0  0  0  0  0  0  0  0
  140.0780  155.0950  139.3530 C   0  0  0  0  0  0  0  0  0  0  0  0
  140.6790  155.6940  138.2520 C   0  0  0  0  0  0  0  0  0  0  0  0
  140.6790  157.0100  137.8450 C   0  0  0  0  0  0  0  0  0  0  0  0
  141.4340  157.0350  136.6730 C   0  0  0  0  0  0  0  0  0  0  0  0
  141.7320  158.2690  135.9150 C   0  0  0  0  0  0  0  0  0  0  0  0
  141.8100  158.2580  134.4920 N   0  0  0  0  0  0  0  0  0  0  0  0
  141.9490  159.3440  136.5340 O   0  0  0  0  0  0  0  0  0  0  0  0
  141.8840  155.7850  136.3710 N   0  0  0  0  0  0  0  0  0  0  0  0
  142.6280  155.3740  135.2140 C   0  0  0  0  0  0  0  0  0  0  0  0
  143.6450  156.0360  134.8720 O   0  0  0  0  0  0  0  0  0  0  0  0
  142.2120  154.1940  134.4170 C   0  0  0  0  0  0  0  0  0  0  0  0
  143.0390  153.0580  134.3440 C   0  0  0  0  0  0  0  0  0  0  0  0
  142.6490  151.9460  133.5900 C   0  0  0  0  0  0  0  0  0  0  0  0
  141.4300  151.9540  132.9070 C   0  0  0  0  0  0  0  0  0  0  0  0
  140.5980  153.0730  132.9800 C   0  0  0  0  0  0  0  0  0  0  0  0
  140.9820  154.1870  133.7330 C   0  0  0  0  0  0  0  0  0  0  0  0
  141.4090  154.9760  137.3420 C   0  0  0  0  0  0  0  0  0  0  0  0
  141.5650  153.5920  137.4650 C   0  0  0  0  0  0  0  0  0  0  0  0
  141.3258  151.6919  140.8882 H   0  0  0  0  0  0  0  0  0  0  0  0
  139.7293  151.0738  140.3442 H   0  0  0  0  0  0  0  0  0  0  0  0
  141.1603  149.9879  140.3442 H   0  0  0  0  0  0  0  0  0  0  0  0
  142.1945  151.1943  138.5613 H   0  0  0  0  0  0  0  0  0  0  0  0
  139.7713  153.2080  140.3798 H   0  0  0  0  0  0  0  0  0  0  0  0
  139.5007  155.6894  140.0765 H   0  0  0  0  0  0  0  0  0  0  0  0
  140.1876  157.8608  138.3397 H   0  0  0  0  0  0  0  0  0  0  0  0
  142.4360  157.5890  133.9930 H   0  0  0  0  0  0  0  0  0  0  0  0
  143.9978  153.0442  134.8829 H   0  0  0  0  0  0  0  0  0  0  0  0
  143.3033  151.0635  133.5347 H   0  0  0  0  0  0  0  0  0  0  0  0
  141.1262  151.0798  132.3125 H   0  0  0  0  0  0  0  0  0  0  0  0
  139.6377  153.0782  132.4436 H   0  0  0  0  0  0  0  0  0  0  0  0
  140.3190  155.0628  133.7911 H   0  0  0  0  0  0  0  0  0  0  0  0
  142.1375  153.0218  136.7185 H   0  0  0  0  0  0  0  0  0  0  0  0
  1  2  1  0
  2  3  1  0
  3  4  2  0
  3  5  1  0
  2  6  1  0
  6  7  2  0
  7  8  1  0
  8  9  2  0
  9 10  1  0
 10 11  2  0
 11 12  1  0
 12 13  1  0
 12 14  2  0
 11 15  1  0
 15 16  1  0
 16 17  2  0
 16 18  1  0
 18 19  2  0
 19 20  1  0
 20 21  2  0
 21 22  1  0
 22 23  2  0
 15 24  1  0
 24 25  2  0
 25  6  1  0
 24  9  1  0
 23 18  1  0
  1 26  1  0
  1 27  1  0
  1 28  1  0
  2 29  1  6
  7 30  1  0
  8 31  1  0
 10 32  1  0
 13 33  1  0
 19 34  1  0
 20 35  1  0
 21 36  1  0
 22 37  1  0
 23 38  1  0
 25 39  1  0
M  CHG  2   5  -1  13  -1
M  END
>  <UniqueID>  (82) 
82

>  <SMILES>  (82) 
C[C@@H](C(=O)[O-])c1ccc2cc(C([NH-])=O)n(C(=O)c3ccccc3)c2c1

>  <Energy>  (82) 
80.8353608510524

>  <Genealogy>  (82) 
CC(C(=O)[O-])c1ccc2cc(C([NH-])=O)n(C(=O)c3ccccc3)c2c1 (protonated)
C[C@@H](C(=O)[O-])c1ccc2cc(C([NH-])=O)n(C(=O)c3ccccc3)c2c1 (chirality)
C[C@@H](C(=O)[O-])c1ccc2cc(C([NH-])=O)n(C(=O)c3ccccc3)c2c1 (3D coordinates assigned)
C[C@@H](C(=O)[O-])c1ccc2cc(C([NH-])=O)n(C(=O)c3ccccc3)c2c1 (optimized conformer: 80.8353608510524 kcal/mol)

>  <smiles>  (82) 
CC(C(=O)O)c1ccc2cc(C(N)=O)n(C(=O)c3ccccc3)c2c1

>  <score_type>  (82) 
oracle

>  <origin>  (82) 
adg

>  <m_score__min__energy>  (82) 
-8.0399999999999991

>  <m_primary>  (82) 
energy

$$$$
82:0
     RDKit          3D

 38 40  0  0  0  0  0  0  0  0999 V2000
  141.3490  157.4350  137.0530 C   0  0  0  0  0  0  0  0  0  0  0  0
  141.2010  158.9440  137.1600 C   0  0  0  0  0  0  0  0  0  0  0  0
  140.4030  159.4220  136.0840 O   0  0  0  0  0  0  0  0  0  0  0  0
  139.8380  158.5720  135.1290 C   0  0  0  0  0  0  0  0  0  0  0  0
  138.8000  157.9040  135.3950 O   0  0  0  0  0  0  0  0  0  0  0  0
  140.4440  158.4950  133.7570 C   0  0  0  0  0  0  0  0  0  0  0  0
  141.9480  158.2490  133.6160 C   0  0  0  0  0  0  0  0  0  0  0  0
  142.4920  156.9390  133.4530 C   0  0  0  0  0  0  0  0  0  0  0  0
  143.8770  156.7360  133.3390 C   0  0  0  0  0  0  0  0  0  0  0  0
  144.7080  157.8470  133.3840 C   0  0  0  0  0  0  0  0  0  0  0  0
  146.0790  157.9300  133.3250 C   0  0  0  0  0  0  0  0  0  0  0  0
  146.3720  159.2880  133.4320 C   0  0  0  0  0  0  0  0  0  0  0  0
  147.7400  159.8350  133.3230 C   0  0  0  0  0  0  0  0  0  0  0  0
  148.0510  160.8440  132.3660 N   0  0  0  0  0  0  0  0  0  0  0  0
  148.6580  159.3710  134.0520 O   0  0  0  0  0  0  0  0  0  0  0  0
  145.2260  160.0140  133.5610 N   0  0  0  0  0  0  0  0  0  0  0  0
  145.1000  161.4260  133.7910 C   0  0  0  0  0  0  0  0  0  0  0  0
  146.2480  162.2060  134.1150 N   0  0  0  0  0  0  0  0  0  0  0  0
  143.9680  161.9780  133.7380 O   0  0  0  0  0  0  0  0  0  0  0  0
  144.2160  159.1160  133.5270 C   0  0  0  0  0  0  0  0  0  0  0  0
  142.8430  159.3500  133.6600 C   0  0  0  0  0  0  0  0  0  0  0  0
  139.5310  157.8530  132.7140 C   0  0  0  0  0  0  0  0  0  0  0  0
  139.7450  159.3630  132.7120 C   0  0  0  0  0  0  0  0  0  0  0  0
  141.3918  156.9983  138.0617 H   0  0  0  0  0  0  0  0  0  0  0  0
  140.4873  157.0197  136.5099 H   0  0  0  0  0  0  0  0  0  0  0  0
  142.2750  157.1950  136.5099 H   0  0  0  0  0  0  0  0  0  0  0  0
  140.7179  159.1978  138.1151 H   0  0  0  0  0  0  0  0  0  0  0  0
  142.1950  159.4130  137.1145 H   0  0  0  0  0  0  0  0  0  0  0  0
  141.8143  156.0734  133.4161 H   0  0  0  0  0  0  0  0  0  0  0  0
  144.2918  155.7245  133.2174 H   0  0  0  0  0  0  0  0  0  0  0  0
  146.7931  157.1004  133.2164 H   0  0  0  0  0  0  0  0  0  0  0  0
  147.6740  161.8130  132.4660 H   0  0  0  0  0  0  0  0  0  0  0  0
  146.9790  162.4080  133.3970 H   0  0  0  0  0  0  0  0  0  0  0  0
  142.4624  160.3729  133.7968 H   0  0  0  0  0  0  0  0  0  0  0  0
  139.9616  157.2356  131.9119 H   0  0  0  0  0  0  0  0  0  0  0  0
  138.6523  157.1923  132.7512 H   0  0  0  0  0  0  0  0  0  0  0  0
  140.3299  159.8344  131.9085 H   0  0  0  0  0  0  0  0  0  0  0  0
  139.0845  160.2419  132.7472 H   0  0  0  0  0  0  0  0  0  0  0  0
  1  2  1  0
  2  3  1  0
  3  4  1  0
  4  5  2  0
  4  6  1  0
  6  7  1  0
  7  8  2  0
  8  9  1  0
  9 10  2  0
 10 11  1  0
 11 12  2  0
 12 13  1  0
 13 14  1  0
 13 15  2  0
 12 16  1  0
 16 17  1  0
 17 18  1  0
 17 19  2  0
 16 20  1  0
 20 21  2  0
  6 22  1  0
 22 23  1  0
 23  6  1  0
 21  7  1  0
 20 10  1  0
  1 24  1  0
  1 25  1  0
  1 26  1  0
  2 27  1  0
  2 28  1  0
  8 29  1  0
  9 30  1  0
 11 31  1  0
 14 32  1  0
 18 33  1  0
 21 34  1  0
 22 35  1  0
 22 36  1  0
 23 37  1  0
 23 38  1  0
M  CHG  2  14  -1  18  -1
M  END
>  <UniqueID>  (83) 
83

>  <SMILES>  (83) 
CCOC(=O)C1(c2ccc3cc(C([NH-])=O)n(C([NH-])=O)c3c2)CC1

>  <Energy>  (83) 
344.51092583702

>  <Genealogy>  (83) 
CCOC(=O)C1(c2ccc3cc(C([NH-])=O)n(C([NH-])=O)c3c2)CC1 (protonated)
CCOC(=O)C1(c2ccc3cc(C([NH-])=O)n(C([NH-])=O)c3c2)CC1 (3D coordinates assigned)
CCOC(=O)C1(c2ccc3cc(C([NH-])=O)n(C([NH-])=O)c3c2)CC1 (nonaromatic ring conformer: 344.51092583702 kcal/mol)

>  <smiles>  (83) 
CCOC(=O)C1(c2ccc3cc(C(N)=O)n(C(N)=O)c3c2)CC1

>  <score_type>  (83) 
oracle

>  <origin>  (83) 
adg

>  <m_score__min__energy>  (83) 
-7.1600000000000001

>  <m_primary>  (83) 
energy

$$$$
83:0
     RDKit          3D

 30 31  0  0  0  0  0  0  0  0999 V2000
  146.6440  155.8920  132.4100 C   0  0  0  0  0  0  0  0  0  0  0  0
  146.9450  156.9430  133.4320 C   0  0  0  0  0  0  0  0  0  0  0  0
  147.7720  156.6880  134.3490 O   0  0  0  0  0  0  0  0  0  0  0  0
  146.3200  158.2360  133.3720 N   0  0  0  0  0  0  0  0  0  0  0  0
  146.9240  159.4260  133.0920 C   0  0  0  0  0  0  0  0  0  0  0  0
  148.3230  159.6020  132.6500 C   0  0  0  0  0  0  0  0  0  0  0  0
  149.4040  158.9670  133.3330 N   0  0  0  0  0  0  0  0  0  0  0  0
  148.5630  160.2890  131.6220 O   0  0  0  0  0  0  0  0  0  0  0  0
  146.0310  160.4810  133.2570 C   0  0  0  0  0  0  0  0  0  0  0  0
  144.8480  159.8970  133.6470 C   0  0  0  0  0  0  0  0  0  0  0  0
  143.6250  160.4820  133.9680 C   0  0  0  0  0  0  0  0  0  0  0  0
  142.5820  159.6400  134.3850 C   0  0  0  0  0  0  0  0  0  0  0  0
  142.7840  158.2430  134.4960 C   0  0  0  0  0  0  0  0  0  0  0  0
  141.6550  157.3500  134.9300 C   0  0  0  0  0  0  0  0  0  0  0  0
  140.7040  158.1100  135.7970 C   0  0  0  0  0  0  0  0  0  0  0  0
  139.4800  158.1580  135.5060 O   0  0  0  0  0  0  0  0  0  0  0  0
  141.1590  158.7240  136.9570 O   0  0  0  0  0  0  0  0  0  0  0  0
  144.0360  157.6830  134.1560 C   0  0  0  0  0  0  0  0  0  0  0  0
  145.0490  158.5430  133.7160 C   0  0  0  0  0  0  0  0  0  0  0  0
  146.3752  154.9536  132.9172 H   0  0  0  0  0  0  0  0  0  0  0  0
  145.8043  156.2222  131.7808 H   0  0  0  0  0  0  0  0  0  0  0  0
  147.5312  155.7276  131.7808 H   0  0  0  0  0  0  0  0  0  0  0  0
  149.2300  158.2440  134.0660 H   0  0  0  0  0  0  0  0  0  0  0  0
  150.3880  159.1470  133.0370 H   0  0  0  0  0  0  0  0  0  0  0  0
  146.2289  161.5527  133.1075 H   0  0  0  0  0  0  0  0  0  0  0  0
  143.4811  161.5702  133.8969 H   0  0  0  0  0  0  0  0  0  0  0  0
  141.5988  160.0695  134.6277 H   0  0  0  0  0  0  0  0  0  0  0  0
  141.1216  156.9800  134.0419 H   0  0  0  0  0  0  0  0  0  0  0  0
  142.0643  156.5031  135.5003 H   0  0  0  0  0  0  0  0  0  0  0  0
  144.2100  156.5997  134.2350 H   0  0  0  0  0  0  0  0  0  0  0  0
  1  2  1  0
  2  3  2  0
  2  4  1  0
  4  5  1  0
  5  6  1  0
  6  7  1  0
  6  8  2  0
  5  9  2  0
  9 10  1  0
 10 11  2  0
 11 12  1  0
 12 13  2  0
 13 14  1  0
 14 15  1  0
 15 16  2  0
 15 17  1  0
 13 18  1  0
 18 19  2  0
 19  4  1  0
 19 10  1  0
  1 20  1  0
  1 21  1  0
  1 22  1  0
  7 23  1  0
  7 24  1  0
  9 25  1  0
 11 26  1  0
 12 27  1  0
 14 28  1  0
 14 29  1  0
 18 30  1  0
M  CHG  1  17  -1
M  END
>  <UniqueID>  (84) 
84

>  <SMILES>  (84) 
CC(=O)n1c(C(N)=O)cc2ccc(CC(=O)[O-])cc21

>  <Energy>  (84) 
67.82645902601855

>  <Genealogy>  (84) 
CC(=O)n1c(C(N)=O)cc2ccc(CC(=O)[O-])cc21 (protonated)
CC(=O)n1c(C(N)=O)cc2ccc(CC(=O)[O-])cc21 (3D coordinates assigned)
CC(=O)n1c(C(N)=O)cc2ccc(CC(=O)[O-])cc21 (optimized conformer: 67.82645902601855 kcal/mol)

>  <smiles>  (84) 
CC(=O)n1c(C(N)=O)cc2ccc(CC(=O)O)cc21

>  <score_type>  (84) 
oracle

>  <origin>  (84) 
adg

>  <m_score__min__energy>  (84) 
-6.6799999999999997

>  <m_primary>  (84) 
energy

$$$$
84:0
     RDKit          3D

 49 51  0  0  0  0  0  0  0  0999 V2000
  139.9810  158.2090  137.1010 N   0  0  0  0  0  0  0  0  0  0  0  0
  140.1290  158.1180  135.6860 C   0  0  0  0  0  0  0  0  0  0  0  0
  139.2140  157.5840  135.0040 O   0  0  0  0  0  0  0  0  0  0  0  0
  141.3600  158.6190  135.0400 C   0  0  0  0  0  0  0  0  0  0  0  0
  141.7110  159.9660  134.9910 C   0  0  0  0  0  0  0  0  0  0  0  0
  142.9480  159.9970  134.3880 C   0  0  0  0  0  0  0  0  0  0  0  0
  143.7730  161.0790  134.0900 C   0  0  0  0  0  0  0  0  0  0  0  0
  144.9990  160.8160  133.4550 C   0  0  0  0  0  0  0  0  0  0  0  0
  145.3720  159.4890  133.1250 C   0  0  0  0  0  0  0  0  0  0  0  0
  146.7010  159.2180  132.4680 C   0  0  0  0  0  0  0  0  0  0  0  0
  147.8780  159.1470  133.4650 C   0  0  2  0  0  0  0  0  0  0  0  0
  149.2320  158.8260  132.7820 C   0  0  0  0  0  0  0  0  0  0  0  0
  149.1410  158.6400  131.2620 C   0  0  0  0  0  0  0  0  0  0  0  0
  149.3680  160.5200  130.2740 I   0  0  0  0  0  0  0  0  0  0  0  0
  147.5820  158.1980  134.4810 O   0  0  0  0  0  0  0  0  0  0  0  0
  148.0820  156.9140  134.1620 C   0  0  0  0  0  0  0  0  0  0  0  0
  146.9450  155.9520  133.9340 C   0  0  0  0  0  0  0  0  0  0  0  0
  146.4820  155.6840  132.6330 C   0  0  0  0  0  0  0  0  0  0  0  0
  145.4440  154.7680  132.4300 C   0  0  0  0  0  0  0  0  0  0  0  0
  144.8690  154.1090  133.5210 C   0  0  0  0  0  0  0  0  0  0  0  0
  145.3300  154.3630  134.8160 C   0  0  0  0  0  0  0  0  0  0  0  0
  146.3660  155.2820  135.0230 C   0  0  0  0  0  0  0  0  0  0  0  0
  144.5060  158.4180  133.4400 C   0  0  0  0  0  0  0  0  0  0  0  0
  143.3030  158.7070  134.0900 C   0  0  0  0  0  0  0  0  0  0  0  0
  142.3380  157.8500  134.4840 N   0  0  0  0  0  0  0  0  0  0  0  0
  142.3400  156.4260  134.2890 C   0  0  0  0  0  0  0  0  0  0  0  0
  142.2420  155.8750  132.9760 N   0  0  0  0  0  0  0  0  0  0  0  0
  142.4680  155.6570  135.2790 O   0  0  0  0  0  0  0  0  0  0  0  0
  139.4710  159.0090  137.5390 H   0  0  0  0  0  0  0  0  0  0  0  0
  141.1248  160.8222  135.3562 H   0  0  0  0  0  0  0  0  0  0  0  0
  143.4744  162.1069  134.3436 H   0  0  0  0  0  0  0  0  0  0  0  0
  145.6758  161.6483  133.2117 H   0  0  0  0  0  0  0  0  0  0  0  0
  146.6369  158.2573  131.9360 H   0  0  0  0  0  0  0  0  0  0  0  0
  146.9032  160.0588  131.7881 H   0  0  0  0  0  0  0  0  0  0  0  0
  147.9948  160.1451  133.9124 H   0  0  0  0  0  0  0  0  0  0  0  0
  149.9267  159.6538  132.9873 H   0  0  0  0  0  0  0  0  0  0  0  0
  149.5764  157.8676  133.1977 H   0  0  0  0  0  0  0  0  0  0  0  0
  149.9374  157.9572  130.9312 H   0  0  0  0  0  0  0  0  0  0  0  0
  148.1566  158.2187  131.0102 H   0  0  0  0  0  0  0  0  0  0  0  0
  148.6915  156.9785  133.2486 H   0  0  0  0  0  0  0  0  0  0  0  0
  148.6957  156.5507  134.9995 H   0  0  0  0  0  0  0  0  0  0  0  0
  146.9374  156.1962  131.7726 H   0  0  0  0  0  0  0  0  0  0  0  0
  145.0801  154.5662  131.4117 H   0  0  0  0  0  0  0  0  0  0  0  0
  144.0526  153.3896  133.3600 H   0  0  0  0  0  0  0  0  0  0  0  0
  144.8788  153.8408  135.6726 H   0  0  0  0  0  0  0  0  0  0  0  0
  146.7275  155.4796  136.0429 H   0  0  0  0  0  0  0  0  0  0  0  0
  144.7719  157.3827  133.1802 H   0  0  0  0  0  0  0  0  0  0  0  0
  142.2290  156.4980  132.1380 H   0  0  0  0  0  0  0  0  0  0  0  0
  142.2260  154.8400  132.8380 H   0  0  0  0  0  0  0  0  0  0  0  0
  1  2  1  0
  2  3  2  0
  2  4  1  0
  4  5  2  0
  5  6  1  0
  6  7  2  0
  7  8  1  0
  8  9  2  0
  9 10  1  0
 10 11  1  0
 11 12  1  0
 12 13  1  0
 13 14  1  0
 11 15  1  0
 15 16  1  0
 16 17  1  0
 17 18  2  0
 18 19  1  0
 19 20  2  0
 20 21  1  0
 21 22  2  0
  9 23  1  0
 23 24  2  0
 24 25  1  0
 25 26  1  0
 26 27  1  0
 26 28  2  0
 25  4  1  0
 24  6  1  0
 22 17  1  0
  1 29  1  0
  5 30  1  0
  7 31  1  0
  8 32  1  0
 10 33  1  0
 10 34  1  0
 11 35  1  1
 12 36  1  0
 12 37  1  0
 13 38  1  0
 13 39  1  0
 16 40  1  0
 16 41  1  0
 18 42  1  0
 19 43  1  0
 20 44  1  0
 21 45  1  0
 22 46  1  0
 23 47  1  0
 27 48  1  0
 27 49  1  0
M  CHG  1   1  -1
M  END
>  <UniqueID>  (85) 
85

>  <SMILES>  (85) 
[NH-]C(=O)c1cc2ccc(C[C@H](CCI)OCc3ccccc3)cc2n1C(N)=O

>  <Energy>  (85) 
87.71361875473191

>  <Genealogy>  (85) 
[NH-]C(=O)c1cc2ccc(CC(CCI)OCc3ccccc3)cc2n1C(N)=O (protonated)
[NH-]C(=O)c1cc2ccc(C[C@H](CCI)OCc3ccccc3)cc2n1C(N)=O (chirality)
[NH-]C(=O)c1cc2ccc(C[C@H](CCI)OCc3ccccc3)cc2n1C(N)=O (3D coordinates assigned)
[NH-]C(=O)c1cc2ccc(C[C@H](CCI)OCc3ccccc3)cc2n1C(N)=O (optimized conformer: 87.71361875473191 kcal/mol)

>  <smiles>  (85) 
NC(=O)c1cc2ccc(CC(CCI)OCc3ccccc3)cc2n1C(N)=O

>  <score_type>  (85) 
oracle

>  <origin>  (85) 
adg

>  <m_score__min__energy>  (85) 
-9.7100000000000009

>  <m_primary>  (85) 
energy

$$$$
85:0
     RDKit          3D

 43 44  0  0  0  0  0  0  0  0999 V2000
  137.6130  159.4710  131.4150 C   0  0  0  0  0  0  0  0  0  0  0  0
  138.8710  158.6320  131.6300 C   0  0  0  0  0  0  0  0  0  0  0  0
  140.0980  159.3490  131.0600 C   0  0  0  0  0  0  0  0  0  0  0  0
  139.0390  158.4080  133.0290 O   0  0  0  0  0  0  0  0  0  0  0  0
  139.4550  157.1900  133.5780 C   0  0  0  0  0  0  0  0  0  0  0  0
  138.8020  156.1350  133.3620 O   0  0  0  0  0  0  0  0  0  0  0  0
  140.6230  157.1290  134.4020 N   0  0  0  0  0  0  0  0  0  0  0  0
  141.1640  158.2300  135.2010 C   0  0  1  0  0  0  0  0  0  0  0  0
  141.4430  159.4660  134.3210 C   0  0  0  0  0  0  0  0  0  0  0  0
  142.9110  159.5960  133.9940 C   0  0  0  0  0  0  0  0  0  0  0  0
  143.5340  160.8680  134.0070 C   0  0  0  0  0  0  0  0  0  0  0  0
  144.9040  160.9950  133.7280 C   0  0  0  0  0  0  0  0  0  0  0  0
  145.6230  159.8380  133.4480 C   0  0  0  0  0  0  0  0  0  0  0  0
  146.9570  159.6790  133.1490 C   0  0  0  0  0  0  0  0  0  0  0  0
  147.1340  158.3100  132.9630 C   0  0  0  0  0  0  0  0  0  0  0  0
  148.4340  157.6910  132.6240 C   0  0  0  0  0  0  0  0  0  0  0  0
  149.2510  158.2690  131.6080 N   0  0  0  0  0  0  0  0  0  0  0  0
  148.8330  156.6570  133.2200 O   0  0  0  0  0  0  0  0  0  0  0  0
  145.9560  157.6460  133.1400 N   0  0  0  0  0  0  0  0  0  0  0  0
  145.7380  156.2010  133.0280 C   0  0  0  0  0  0  0  0  0  0  0  0
  145.0390  158.5960  133.4350 C   0  0  0  0  0  0  0  0  0  0  0  0
  143.6730  158.4420  133.7090 C   0  0  0  0  0  0  0  0  0  0  0  0
  140.2620  158.5220  136.3710 C   0  0  0  0  0  0  0  0  0  0  0  0
  139.1820  157.8920  136.5320 O   0  0  0  0  0  0  0  0  0  0  0  0
  140.6440  159.4680  137.3130 O   0  0  0  0  0  0  0  0  0  0  0  0
  137.1895  159.7534  132.3901 H   0  0  0  0  0  0  0  0  0  0  0  0
  137.8701  160.3791  130.8500 H   0  0  0  0  0  0  0  0  0  0  0  0
  136.8734  158.8847  130.8500 H   0  0  0  0  0  0  0  0  0  0  0  0
  138.7643  157.6700  131.1074 H   0  0  0  0  0  0  0  0  0  0  0  0
  140.7252  159.7155  131.8861 H   0  0  0  0  0  0  0  0  0  0  0  0
  140.6783  158.6478  130.4422 H   0  0  0  0  0  0  0  0  0  0  0  0
  139.7720  160.1988  130.4422 H   0  0  0  0  0  0  0  0  0  0  0  0
  142.1360  157.9301  135.6197 H   0  0  0  0  0  0  0  0  0  0  0  0
  140.8755  159.3720  133.3834 H   0  0  0  0  0  0  0  0  0  0  0  0
  141.1344  160.3622  134.8791 H   0  0  0  0  0  0  0  0  0  0  0  0
  142.9392  161.7641  134.2377 H   0  0  0  0  0  0  0  0  0  0  0  0
  145.3939  161.9799  133.7308 H   0  0  0  0  0  0  0  0  0  0  0  0
  147.7215  160.4663  133.0730 H   0  0  0  0  0  0  0  0  0  0  0  0
  149.3490  157.8120  130.6740 H   0  0  0  0  0  0  0  0  0  0  0  0
  145.6716  155.7611  134.0340 H   0  0  0  0  0  0  0  0  0  0  0  0
  144.8013  156.0127  132.4830 H   0  0  0  0  0  0  0  0  0  0  0  0
  146.5775  155.7447  132.4830 H   0  0  0  0  0  0  0  0  0  0  0  0
  143.2059  157.4461  133.7022 H   0  0  0  0  0  0  0  0  0  0  0  0
  1  2  1  0
  2  3  1  0
  2  4  1  0
  4  5  1  0
  5  6  2  0
  5  7  1  0
  7  8  1  0
  8  9  1  0
  9 10  1  0
 10 11  2  0
 11 12  1  0
 12 13  2  0
 13 14  1  0
 14 15  2  0
 15 16  1  0
 16 17  1  0
 16 18  2  0
 15 19  1  0
 19 20  1  0
 19 21  1  0
 21 22  2  0
  8 23  1  0
 23 24  2  0
 23 25  1  0
 22 10  1  0
 21 13  1  0
  1 26  1  0
  1 27  1  0
  1 28  1  0
  2 29  1  0
  3 30  1  0
  3 31  1  0
  3 32  1  0
  8 33  1  1
  9 34  1  0
  9 35  1  0
 11 36  1  0
 12 37  1  0
 14 38  1  0
 17 39  1  0
 20 40  1  0
 20 41  1  0
 20 42  1  0
 22 43  1  0
M  CHG  3   7  -1  17  -1  25  -1
M  END
>  <UniqueID>  (86) 
86

>  <SMILES>  (86) 
CC(C)OC(=O)[N-][C@@H](Cc1ccc2cc(C([NH-])=O)n(C)c2c1)C(=O)[O-]

>  <Energy>  (86) 
67.70741414692154

>  <Genealogy>  (86) 
CC(C)OC(=O)[N-]C(Cc1ccc2cc(C([NH-])=O)n(C)c2c1)C(=O)[O-] (protonated)
CC(C)OC(=O)[N-][C@@H](Cc1ccc2cc(C([NH-])=O)n(C)c2c1)C(=O)[O-] (chirality)
CC(C)OC(=O)[N-][C@@H](Cc1ccc2cc(C([NH-])=O)n(C)c2c1)C(=O)[O-] (3D coordinates assigned)
CC(C)OC(=O)[N-][C@@H](Cc1ccc2cc(C([NH-])=O)n(C)c2c1)C(=O)[O-] (optimized conformer: 67.70741414692154 kcal/mol)

>  <smiles>  (86) 
CC(C)OC(=O)NC(Cc1ccc2cc(C(N)=O)n(C)c2c1)C(=O)O

>  <score_type>  (86) 
oracle

>  <origin>  (86) 
adg

>  <m_score__min__energy>  (86) 
-7.7300000000000004

>  <m_primary>  (86) 
energy

$$$$
86:0
     RDKit          3D

 40 41  0  0  0  0  0  0  0  0999 V2000
  137.0280  160.0650  131.0480 C   0  0  0  0  0  0  0  0  0  0  0  0
  138.3010  159.2400  130.8890 C   0  0  0  0  0  0  0  0  0  0  0  0
  138.4650  158.3170  132.0120 N   0  0  0  0  0  0  0  0  0  0  0  0
  139.7460  157.8450  132.4550 C   0  0  0  0  0  0  0  0  0  0  0  0
  139.8890  156.3050  132.9930 S   0  0  0  0  0  0  0  0  0  0  0  0
  140.9170  158.6660  132.3610 N   0  0  0  0  0  0  0  0  0  0  0  0
  140.9420  160.0400  132.8600 C   0  0  0  0  0  0  0  0  0  0  0  0
  141.9290  160.1790  134.0250 C   0  0  0  0  0  0  0  0  0  0  0  0
  141.6200  159.1930  135.1220 C   0  0  0  0  0  0  0  0  0  0  0  0
  140.6040  159.4810  136.0680 C   0  0  0  0  0  0  0  0  0  0  0  0
  140.2550  158.5400  137.0510 C   0  0  0  0  0  0  0  0  0  0  0  0
  140.9330  157.3240  137.0600 C   0  0  0  0  0  0  0  0  0  0  0  0
  140.7610  156.2210  137.8650 C   0  0  0  0  0  0  0  0  0  0  0  0
  141.6830  155.2820  137.4060 C   0  0  0  0  0  0  0  0  0  0  0  0
  141.8940  153.9700  138.0500 C   0  0  0  0  0  0  0  0  0  0  0  0
  143.1910  153.5650  138.4800 N   0  0  0  0  0  0  0  0  0  0  0  0
  140.9090  153.2150  138.2680 O   0  0  0  0  0  0  0  0  0  0  0  0
  142.3910  155.7820  136.3540 N   0  0  0  0  0  0  0  0  0  0  0  0
  143.3490  155.0960  135.5320 C   0  0  0  0  0  0  0  0  0  0  0  0
  144.5000  154.4940  136.1200 N   0  0  0  0  0  0  0  0  0  0  0  0
  143.1600  154.9950  134.2900 O   0  0  0  0  0  0  0  0  0  0  0  0
  141.9240  157.0350  136.1580 C   0  0  0  0  0  0  0  0  0  0  0  0
  142.2860  157.9490  135.1640 C   0  0  0  0  0  0  0  0  0  0  0  0
  136.8127  160.2045  132.1177 H   0  0  0  0  0  0  0  0  0  0  0  0
  137.1651  161.0464  130.5705 H   0  0  0  0  0  0  0  0  0  0  0  0
  136.1882  159.5390  130.5705 H   0  0  0  0  0  0  0  0  0  0  0  0
  138.2429  158.6636  129.9539 H   0  0  0  0  0  0  0  0  0  0  0  0
  139.1631  159.9228  130.8648 H   0  0  0  0  0  0  0  0  0  0  0  0
  137.6070  157.8620  132.3980 H   0  0  0  0  0  0  0  0  0  0  0  0
  141.8330  158.2050  132.1550 H   0  0  0  0  0  0  0  0  0  0  0  0
  141.2479  160.7137  132.0460 H   0  0  0  0  0  0  0  0  0  0  0  0
  139.9356  160.3033  133.2176 H   0  0  0  0  0  0  0  0  0  0  0  0
  142.9487  159.9962  133.6551 H   0  0  0  0  0  0  0  0  0  0  0  0
  141.8418  161.1957  134.4359 H   0  0  0  0  0  0  0  0  0  0  0  0
  140.0844  160.4499  136.0319 H   0  0  0  0  0  0  0  0  0  0  0  0
  139.4703  158.7572  137.7907 H   0  0  0  0  0  0  0  0  0  0  0  0
  140.0476  156.1052  138.6943 H   0  0  0  0  0  0  0  0  0  0  0  0
  144.0400  154.1110  138.2140 H   0  0  0  0  0  0  0  0  0  0  0  0
  144.6470  154.5160  137.1530 H   0  0  0  0  0  0  0  0  0  0  0  0
  143.0705  157.7048  134.4326 H   0  0  0  0  0  0  0  0  0  0  0  0
  1  2  1  0
  2  3  1  0
  3  4  1  0
  4  5  2  0
  4  6  1  0
  6  7  1  0
  7  8  1  0
  8  9  1  0
  9 10  2  0
 10 11  1  0
 11 12  2  0
 12 13  1  0
 13 14  2  0
 14 15  1  0
 15 16  1  0
 15 17  2  0
 14 18  1  0
 18 19  1  0
 19 20  1  0
 19 21  2  0
 18 22  1  0
 22 23  2  0
 23  9  1  0
 22 12  1  0
  1 24  1  0
  1 25  1  0
  1 26  1  0
  2 27  1  0
  2 28  1  0
  3 29  1  0
  6 30  1  0
  7 31  1  0
  7 32  1  0
  8 33  1  0
  8 34  1  0
 10 35  1  0
 11 36  1  0
 13 37  1  0
 16 38  1  0
 20 39  1  0
 23 40  1  0
M  CHG  2  16  -1  20  -1
M  END
>  <UniqueID>  (87) 
87

>  <SMILES>  (87) 
CCNC(=S)NCCc1ccc2cc(C([NH-])=O)n(C([NH-])=O)c2c1

>  <Energy>  (87) 
73.46957299781792

>  <Genealogy>  (87) 
CCNC(=S)NCCc1ccc2cc(C([NH-])=O)n(C([NH-])=O)c2c1 (protonated)
CCNC(=S)NCCc1ccc2cc(C([NH-])=O)n(C([NH-])=O)c2c1 (3D coordinates assigned)
CCNC(=S)NCCc1ccc2cc(C([NH-])=O)n(C([NH-])=O)c2c1 (optimized conformer: 73.46957299781792 kcal/mol)

>  <smiles>  (87) 
CCNC(=S)NCCc1ccc2cc(C(N)=O)n(C(N)=O)c2c1

>  <score_type>  (87) 
oracle

>  <origin>  (87) 
adg

>  <m_score__min__energy>  (87) 
-7.4299999999999997

>  <m_primary>  (87) 
energy

$$$$
87:0
     RDKit          3D

 45 47  0  0  0  0  0  0  0  0999 V2000
  148.0890  157.1730  132.1950 C   0  0  0  0  0  0  0  0  0  0  0  0
  147.7720  156.5420  133.5130 C   0  0  0  0  0  0  0  0  0  0  0  0
  148.4680  156.7600  134.6430 N   0  0  0  0  0  0  0  0  0  0  0  0
  147.9570  156.0210  135.5840 O   0  0  0  0  0  0  0  0  0  0  0  0
  146.9490  155.3140  135.1230 C   0  0  0  0  0  0  0  0  0  0  0  0
  146.1540  154.3750  135.9700 C   0  0  0  0  0  0  0  0  0  0  0  0
  146.7700  155.6210  133.7760 C   0  0  0  0  0  0  0  0  0  0  0  0
  145.7850  155.0370  132.7850 C   0  0  1  0  0  0  0  0  0  0  0  0
  146.0120  153.5190  132.6900 C   0  0  0  0  0  0  0  0  0  0  0  0
  144.3910  155.4130  133.1270 N   0  0  0  0  0  0  0  0  0  0  0  0
  143.3070  154.4200  133.1010 C   0  0  0  0  0  0  0  0  0  0  0  0
  144.0410  156.8040  133.3100 C   0  0  0  0  0  0  0  0  0  0  0  0
  142.6790  157.1850  133.4180 C   0  0  0  0  0  0  0  0  0  0  0  0
  142.3190  158.5280  133.6100 C   0  0  0  0  0  0  0  0  0  0  0  0
  143.3390  159.4690  133.7010 C   0  0  0  0  0  0  0  0  0  0  0  0
  143.2700  160.8340  133.8600 C   0  0  0  0  0  0  0  0  0  0  0  0
  144.5920  161.2710  133.8720 C   0  0  0  0  0  0  0  0  0  0  0  0
  144.9790  162.6780  134.1080 C   0  0  0  0  0  0  0  0  0  0  0  0
  146.1390  163.0030  134.8710 N   0  0  0  0  0  0  0  0  0  0  0  0
  144.2470  163.6070  133.6720 O   0  0  0  0  0  0  0  0  0  0  0  0
  145.4450  160.2190  133.7160 N   0  0  0  0  0  0  0  0  0  0  0  0
  146.8760  160.2550  133.5910 C   0  0  0  0  0  0  0  0  0  0  0  0
  147.4380  161.2040  132.9830 O   0  0  0  0  0  0  0  0  0  0  0  0
  147.6520  159.2320  134.1200 O   0  0  0  0  0  0  0  0  0  0  0  0
  144.6620  159.1220  133.6170 C   0  0  0  0  0  0  0  0  0  0  0  0
  145.0480  157.7940  133.4040 C   0  0  0  0  0  0  0  0  0  0  0  0
  148.5771  158.1446  132.3616 H   0  0  0  0  0  0  0  0  0  0  0  0
  148.7641  156.5161  131.6269 H   0  0  0  0  0  0  0  0  0  0  0  0
  147.1590  157.3225  131.6269 H   0  0  0  0  0  0  0  0  0  0  0  0
  149.2840  157.3990  134.7650 H   0  0  0  0  0  0  0  0  0  0  0  0
  146.3389  154.5933  137.0322 H   0  0  0  0  0  0  0  0  0  0  0  0
  145.0834  154.5004  135.7508 H   0  0  0  0  0  0  0  0  0  0  0  0
  146.4543  153.3397  135.7508 H   0  0  0  0  0  0  0  0  0  0  0  0
  145.9570  155.4602  131.7843 H   0  0  0  0  0  0  0  0  0  0  0  0
  146.0756  153.0937  133.7025 H   0  0  0  0  0  0  0  0  0  0  0  0
  145.1731  153.0559  132.1498 H   0  0  0  0  0  0  0  0  0  0  0  0
  146.9496  153.3216  132.1498 H   0  0  0  0  0  0  0  0  0  0  0  0
  143.0232  154.1600  134.1314 H   0  0  0  0  0  0  0  0  0  0  0  0
  142.4368  154.8408  132.5760 H   0  0  0  0  0  0  0  0  0  0  0  0
  143.6501  153.5163  132.5760 H   0  0  0  0  0  0  0  0  0  0  0  0
  141.8940  156.4174  133.3504 H   0  0  0  0  0  0  0  0  0  0  0  0
  141.2631  158.8269  133.6861 H   0  0  0  0  0  0  0  0  0  0  0  0
  142.3633  161.4492  133.9570 H   0  0  0  0  0  0  0  0  0  0  0  0
  147.0680  162.5930  134.6330 H   0  0  0  0  0  0  0  0  0  0  0  0
  146.1107  157.5254  133.3117 H   0  0  0  0  0  0  0  0  0  0  0  0
  1  2  1  0
  2  3  2  0
  3  4  1  0
  4  5  1  0
  5  6  1  0
  5  7  2  0
  7  8  1  0
  8  9  1  0
  8 10  1  0
 10 11  1  0
 10 12  1  0
 12 13  2  0
 13 14  1  0
 14 15  2  0
 15 16  1  0
 16 17  2  0
 17 18  1  0
 18 19  1  0
 18 20  2  0
 17 21  1  0
 21 22  1  0
 22 23  2  0
 22 24  1  0
 21 25  1  0
 25 26  2  0
  7  2  1  0
 26 12  1  0
 25 15  1  0
  1 27  1  0
  1 28  1  0
  1 29  1  0
  3 30  1  0
  6 31  1  0
  6 32  1  0
  6 33  1  0
  8 34  1  6
  9 35  1  0
  9 36  1  0
  9 37  1  0
 11 38  1  0
 11 39  1  0
 11 40  1  0
 13 41  1  0
 14 42  1  0
 16 43  1  0
 19 44  1  0
 26 45  1  0
M  CHG  3   3   1  19  -1  24  -1
M  END
>  <UniqueID>  (88) 
88

>  <SMILES>  (88) 
Cc1[nH+]oc(C)c1[C@@H](C)N(C)c1ccc2cc(C([NH-])=O)n(C(=O)[O-])c2c1

>  <Energy>  (88) 
118.92213287433414

>  <Genealogy>  (88) 
Cc1[nH+]oc(C)c1C(C)N(C)c1ccc2cc(C([NH-])=O)n(C(=O)[O-])c2c1 (protonated)
Cc1[nH+]oc(C)c1[C@@H](C)N(C)c1ccc2cc(C([NH-])=O)n(C(=O)[O-])c2c1 (chirality)
Cc1[nH+]oc(C)c1[C@@H](C)N(C)c1ccc2cc(C([NH-])=O)n(C(=O)[O-])c2c1 (3D coordinates assigned)
Cc1[nH+]oc(C)c1[C@@H](C)N(C)c1ccc2cc(C([NH-])=O)n(C(=O)[O-])c2c1 (optimized conformer: 118.92213287433414 kcal/mol)

>  <smiles>  (88) 
Cc1noc(C)c1C(C)N(C)c1ccc2cc(C(N)=O)n(C(=O)O)c2c1

>  <score_type>  (88) 
oracle

>  <origin>  (88) 
adg

>  <m_score__min__energy>  (88) 
-7.7999999999999998

>  <m_primary>  (88) 
energy

$$$$
88:0
     RDKit          3D

 47 49  0  0  0  0  0  0  0  0999 V2000
  146.4100  154.9520  135.2140 C   0  0  0  0  0  0  0  0  0  0  0  0
  145.5550  155.7430  134.4030 O   0  0  0  0  0  0  0  0  0  0  0  0
  146.0350  156.5880  133.3980 C   0  0  0  0  0  0  0  0  0  0  0  0
  146.5950  156.1080  132.3720 O   0  0  0  0  0  0  0  0  0  0  0  0
  145.9440  158.0130  133.5560 N   0  0  0  0  0  0  0  0  0  0  0  0
  146.9570  158.9280  133.5570 C   0  0  0  0  0  0  0  0  0  0  0  0
  148.4070  158.6010  133.5620 C   0  0  0  0  0  0  0  0  0  0  0  0
  148.9660  157.6760  132.6270 N   0  0  0  0  0  0  0  0  0  0  0  0
  149.1780  159.1720  134.3780 O   0  0  0  0  0  0  0  0  0  0  0  0
  146.4340  160.2200  133.6340 C   0  0  0  0  0  0  0  0  0  0  0  0
  145.0680  160.0640  133.6830 C   0  0  0  0  0  0  0  0  0  0  0  0
  144.0560  161.0180  133.7300 C   0  0  0  0  0  0  0  0  0  0  0  0
  142.7250  160.5690  133.7280 C   0  0  0  0  0  0  0  0  0  0  0  0
  142.4360  159.1850  133.6800 C   0  0  0  0  0  0  0  0  0  0  0  0
  141.0380  158.7190  133.6280 C   0  0  0  0  0  0  0  0  0  0  0  0
  140.3900  158.6640  132.3840 C   0  0  0  0  0  0  0  0  0  0  0  0
  139.0610  158.2430  132.2970 C   0  0  0  0  0  0  0  0  0  0  0  0
  138.3660  157.8780  133.4520 C   0  0  0  0  0  0  0  0  0  0  0  0
  138.9950  157.9380  134.6990 C   0  0  0  0  0  0  0  0  0  0  0  0
  140.3330  158.3620  134.8050 C   0  0  0  0  0  0  0  0  0  0  0  0
  140.9810  158.4350  136.1720 C   0  0  0  0  0  0  0  0  0  0  0  0
  141.0120  157.1030  136.8100 N   0  0  0  0  0  0  0  0  0  0  0  0
  141.9790  156.2200  136.1380 C   0  0  0  0  0  0  0  0  0  0  0  0
  141.3530  157.2270  138.2340 C   0  0  0  0  0  0  0  0  0  0  0  0
  143.4860  158.2440  133.6410 C   0  0  0  0  0  0  0  0  0  0  0  0
  144.8000  158.7220  133.6450 C   0  0  0  0  0  0  0  0  0  0  0  0
  146.1959  155.1501  136.2746 H   0  0  0  0  0  0  0  0  0  0  0  0
  146.2385  153.8871  134.9980 H   0  0  0  0  0  0  0  0  0  0  0  0
  147.4583  155.2057  134.9980 H   0  0  0  0  0  0  0  0  0  0  0  0
  148.3880  157.2010  131.9050 H   0  0  0  0  0  0  0  0  0  0  0  0
  149.9870  157.4630  132.6430 H   0  0  0  0  0  0  0  0  0  0  0  0
  146.9965  161.1652  133.6518 H   0  0  0  0  0  0  0  0  0  0  0  0
  144.2914  162.0919  133.7676 H   0  0  0  0  0  0  0  0  0  0  0  0
  141.9022  161.2982  133.7640 H   0  0  0  0  0  0  0  0  0  0  0  0
  140.9322  158.9543  131.4720 H   0  0  0  0  0  0  0  0  0  0  0  0
  138.5615  158.1989  131.3180 H   0  0  0  0  0  0  0  0  0  0  0  0
  137.3209  157.5424  133.3803 H   0  0  0  0  0  0  0  0  0  0  0  0
  138.4400  157.6516  135.6045 H   0  0  0  0  0  0  0  0  0  0  0  0
  142.0105  158.8069  136.0636 H   0  0  0  0  0  0  0  0  0  0  0  0
  140.3926  159.1154  136.8051 H   0  0  0  0  0  0  0  0  0  0  0  0
  142.5696  155.6808  136.8933 H   0  0  0  0  0  0  0  0  0  0  0  0
  141.4395  155.4964  135.5092 H   0  0  0  0  0  0  0  0  0  0  0  0
  142.6507  156.8229  135.5092 H   0  0  0  0  0  0  0  0  0  0  0  0
  140.4936  156.9145  138.8454 H   0  0  0  0  0  0  0  0  0  0  0  0
  142.2173  156.5856  138.4613 H   0  0  0  0  0  0  0  0  0  0  0  0
  141.6034  158.2737  138.4613 H   0  0  0  0  0  0  0  0  0  0  0  0
  143.2770  157.1645  133.6084 H   0  0  0  0  0  0  0  0  0  0  0  0
  1  2  1  0
  2  3  1  0
  3  4  2  0
  3  5  1  0
  5  6  1  0
  6  7  1  0
  7  8  1  0
  7  9  2  0
  6 10  2  0
 10 11  1  0
 11 12  2  0
 12 13  1  0
 13 14  2  0
 14 15  1  0
 15 16  2  0
 16 17  1  0
 17 18  2  0
 18 19  1  0
 19 20  2  0
 20 21  1  0
 21 22  1  0
 22 23  1  0
 22 24  1  0
 14 25  1  0
 25 26  2  0
 26  5  1  0
 26 11  1  0
 20 15  1  0
  1 27  1  0
  1 28  1  0
  1 29  1  0
  8 30  1  0
  8 31  1  0
 10 32  1  0
 12 33  1  0
 13 34  1  0
 16 35  1  0
 17 36  1  0
 18 37  1  0
 19 38  1  0
 21 39  1  0
 21 40  1  0
 23 41  1  0
 23 42  1  0
 23 43  1  0
 24 44  1  0
 24 45  1  0
 24 46  1  0
 25 47  1  0
M  END
>  <UniqueID>  (89) 
89

>  <SMILES>  (89) 
COC(=O)n1c(C(N)=O)cc2ccc(-c3ccccc3CN(C)C)cc21

>  <Energy>  (89) 
93.25110240193176

>  <Genealogy>  (89) 
COC(=O)n1c(C(N)=O)cc2ccc(-c3ccccc3CN(C)C)cc21 (3D coordinates assigned)
COC(=O)n1c(C(N)=O)cc2ccc(-c3ccccc3CN(C)C)cc21 (optimized conformer: 93.25110240193176 kcal/mol)

>  <smiles>  (89) 
COC(=O)n1c(C(N)=O)cc2ccc(-c3ccccc3CN(C)C)cc21

>  <score_type>  (89) 
oracle

>  <origin>  (89) 
adg

>  <m_score__min__energy>  (89) 
-8.1400000000000006

>  <m_primary>  (89) 
energy

$$$$
89:0
     RDKit          3D

 43 45  0  0  0  0  0  0  0  0999 V2000
  139.0710  146.7820  129.9740 N   0  0  0  0  0  0  0  0  0  0  0  0
  139.2590  147.8980  130.2140 C   0  0  0  0  0  0  0  0  0  0  0  0
  139.4980  149.3150  130.5190 C   0  0  0  0  0  0  0  0  0  0  0  0
  139.2670  149.6050  132.0030 C   0  0  0  0  0  0  0  0  0  0  0  0
  139.7590  150.9410  132.3490 N   0  0  0  0  0  0  0  0  0  0  0  0
  141.2560  150.8110  133.2210 S   0  0  0  0  0  0  0  0  0  0  0  0
  142.1300  149.7870  132.5510 O   0  0  0  0  0  0  0  0  0  0  0  0
  140.9830  150.3520  134.6270 O   0  0  0  0  0  0  0  0  0  0  0  0
  142.0950  152.3600  133.2400 C   0  0  0  0  0  0  0  0  0  0  0  0
  141.3950  153.5280  133.5630 C   0  0  0  0  0  0  0  0  0  0  0  0
  142.0570  154.7590  133.6010 C   0  0  0  0  0  0  0  0  0  0  0  0
  143.4340  154.8380  133.3220 C   0  0  0  0  0  0  0  0  0  0  0  0
  144.1390  156.1430  133.3660 C   0  0  0  0  0  0  0  0  0  0  0  0
  145.5300  156.2150  133.0880 C   0  0  0  0  0  0  0  0  0  0  0  0
  146.2060  157.4470  133.1150 C   0  0  0  0  0  0  0  0  0  0  0  0
  145.4740  158.5870  133.4290 C   0  0  0  0  0  0  0  0  0  0  0  0
  145.8710  159.9020  133.4990 C   0  0  0  0  0  0  0  0  0  0  0  0
  144.7260  160.6160  133.8420 C   0  0  0  0  0  0  0  0  0  0  0  0
  144.7250  162.0690  134.1090 C   0  0  0  0  0  0  0  0  0  0  0  0
  143.8210  162.9380  133.4340 N   0  0  0  0  0  0  0  0  0  0  0  0
  145.5010  162.5440  134.9810 O   0  0  0  0  0  0  0  0  0  0  0  0
  143.6590  159.7770  133.9700 N   0  0  0  0  0  0  0  0  0  0  0  0
  142.2890  160.1320  134.2200 C   0  0  0  0  0  0  0  0  0  0  0  0
  141.6520  160.8370  133.3930 O   0  0  0  0  0  0  0  0  0  0  0  0
  141.6620  159.7240  135.3910 O   0  0  0  0  0  0  0  0  0  0  0  0
  144.1350  158.5370  133.7190 C   0  0  0  0  0  0  0  0  0  0  0  0
  143.4320  157.3280  133.6810 C   0  0  0  0  0  0  0  0  0  0  0  0
  144.1320  153.6580  133.0050 C   0  0  0  0  0  0  0  0  0  0  0  0
  143.4670  152.4290  132.9670 C   0  0  0  0  0  0  0  0  0  0  0  0
  140.5370  149.5678  130.2609 H   0  0  0  0  0  0  0  0  0  0  0  0
  138.7949  149.9227  129.9305 H   0  0  0  0  0  0  0  0  0  0  0  0
  138.1899  149.5490  132.2191 H   0  0  0  0  0  0  0  0  0  0  0  0
  139.8135  148.8598  132.5997 H   0  0  0  0  0  0  0  0  0  0  0  0
  139.0690  151.3850  132.9980 H   0  0  0  0  0  0  0  0  0  0  0  0
  140.3194  153.4774  133.7879 H   0  0  0  0  0  0  0  0  0  0  0  0
  141.4973  155.6724  133.8508 H   0  0  0  0  0  0  0  0  0  0  0  0
  146.0848  155.2958  132.8487 H   0  0  0  0  0  0  0  0  0  0  0  0
  147.2819  157.5077  132.8944 H   0  0  0  0  0  0  0  0  0  0  0  0
  146.8793  160.3043  133.3216 H   0  0  0  0  0  0  0  0  0  0  0  0
  142.8790  162.6040  133.1310 H   0  0  0  0  0  0  0  0  0  0  0  0
  142.3527  157.2990  133.8915 H   0  0  0  0  0  0  0  0  0  0  0  0
  145.2089  153.7030  132.7855 H   0  0  0  0  0  0  0  0  0  0  0  0
  144.0235  151.5124  132.7217 H   0  0  0  0  0  0  0  0  0  0  0  0
  1  2  3  0
  2  3  1  0
  3  4  1  0
  4  5  1  0
  5  6  1  0
  6  7  2  0
  6  8  2  0
  6  9  1  0
  9 10  2  0
 10 11  1  0
 11 12  2  0
 12 13  1  0
 13 14  2  0
 14 15  1  0
 15 16  2  0
 16 17  1  0
 17 18  2  0
 18 19  1  0
 19 20  1  0
 19 21  2  0
 18 22  1  0
 22 23  1  0
 23 24  2  0
 23 25  1  0
 22 26  1  0
 26 27  2  0
 12 28  1  0
 28 29  2  0
 29  9  1  0
 27 13  1  0
 26 16  1  0
  3 30  1  0
  3 31  1  0
  4 32  1  0
  4 33  1  0
  5 34  1  0
 10 35  1  0
 11 36  1  0
 14 37  1  0
 15 38  1  0
 17 39  1  0
 20 40  1  0
 27 41  1  0
 28 42  1  0
 29 43  1  0
M  CHG  2  20  -1  25  -1
M  END
>  <UniqueID>  (90) 
90

>  <SMILES>  (90) 
N#CCCNS(=O)(=O)c1ccc(-c2ccc3cc(C([NH-])=O)n(C(=O)[O-])c3c2)cc1

>  <Energy>  (90) 
84.81391591338992

>  <Genealogy>  (90) 
N#CCCNS(=O)(=O)c1ccc(-c2ccc3cc(C([NH-])=O)n(C(=O)[O-])c3c2)cc1 (protonated)
N#CCCNS(=O)(=O)c1ccc(-c2ccc3cc(C([NH-])=O)n(C(=O)[O-])c3c2)cc1 (3D coordinates assigned)
N#CCCNS(=O)(=O)c1ccc(-c2ccc3cc(C([NH-])=O)n(C(=O)[O-])c3c2)cc1 (optimized conformer: 84.81391591338992 kcal/mol)

>  <smiles>  (90) 
N#CCCNS(=O)(=O)c1ccc(-c2ccc3cc(C(N)=O)n(C(=O)O)c3c2)cc1

>  <score_type>  (90) 
oracle

>  <origin>  (90) 
adg

>  <m_score__min__energy>  (90) 
-10.210000000000001

>  <m_primary>  (90) 
energy

$$$$
90:0
     RDKit          3D

 37 38  0  0  0  0  0  0  0  0999 V2000
  140.0180  157.4720  134.0960 C   0  0  0  0  0  0  0  0  0  0  0  0
  141.0820  158.3260  133.3910 C   0  0  0  0  0  0  0  0  0  0  0  0
  140.4840  158.9760  132.1310 C   0  0  0  0  0  0  0  0  0  0  0  0
  141.7380  159.3490  134.3730 C   0  0  1  0  0  0  0  0  0  0  0  0
  141.5330  158.9940  135.8300 C   0  0  0  0  0  0  0  0  0  0  0  0
  142.0780  157.9740  136.3330 O   0  0  0  0  0  0  0  0  0  0  0  0
  140.6530  159.7380  136.6080 O   0  0  0  0  0  0  0  0  0  0  0  0
  143.2060  159.6030  134.0590 C   0  0  0  0  0  0  0  0  0  0  0  0
  143.7120  160.9290  134.1020 C   0  0  0  0  0  0  0  0  0  0  0  0
  145.0580  161.1970  133.8020 C   0  0  0  0  0  0  0  0  0  0  0  0
  145.8760  160.1260  133.4540 C   0  0  0  0  0  0  0  0  0  0  0  0
  147.2130  160.0990  133.1320 C   0  0  0  0  0  0  0  0  0  0  0  0
  147.5030  158.7610  132.8730 C   0  0  0  0  0  0  0  0  0  0  0  0
  148.8200  158.2910  132.3960 C   0  0  0  0  0  0  0  0  0  0  0  0
  149.2340  156.9410  132.5990 N   0  0  0  0  0  0  0  0  0  0  0  0
  149.5730  159.0780  131.7630 O   0  0  0  0  0  0  0  0  0  0  0  0
  146.3910  157.9900  133.0380 N   0  0  0  0  0  0  0  0  0  0  0  0
  146.2830  156.5620  132.9450 C   0  0  0  0  0  0  0  0  0  0  0  0
  146.9810  155.8490  131.9240 N   0  0  0  0  0  0  0  0  0  0  0  0
  145.5970  155.9260  133.7890 O   0  0  0  0  0  0  0  0  0  0  0  0
  145.4030  158.8410  133.3900 C   0  0  0  0  0  0  0  0  0  0  0  0
  144.0730  158.5420  133.6990 C   0  0  0  0  0  0  0  0  0  0  0  0
  140.1353  157.5661  135.1857 H   0  0  0  0  0  0  0  0  0  0  0  0
  139.0161  157.8195  133.8036 H   0  0  0  0  0  0  0  0  0  0  0  0
  140.1405  156.4187  133.8036 H   0  0  0  0  0  0  0  0  0  0  0  0
  141.9053  157.6776  133.0566 H   0  0  0  0  0  0  0  0  0  0  0  0
  139.7665  159.7559  132.4260 H   0  0  0  0  0  0  0  0  0  0  0  0
  141.2900  159.4265  131.5331 H   0  0  0  0  0  0  0  0  0  0  0  0
  139.9680  158.2103  131.5331 H   0  0  0  0  0  0  0  0  0  0  0  0
  141.2025  160.2952  134.2055 H   0  0  0  0  0  0  0  0  0  0  0  0
  143.0412  161.7573  134.3738 H   0  0  0  0  0  0  0  0  0  0  0  0
  145.4536  162.2227  133.8410 H   0  0  0  0  0  0  0  0  0  0  0  0
  147.9059  160.9522  133.0883 H   0  0  0  0  0  0  0  0  0  0  0  0
  149.5550  156.3520  131.7980 H   0  0  0  0  0  0  0  0  0  0  0  0
  146.8920  154.8110  131.8500 H   0  0  0  0  0  0  0  0  0  0  0  0
  147.6150  156.3520  131.2640 H   0  0  0  0  0  0  0  0  0  0  0  0
  143.7074  157.5052  133.6634 H   0  0  0  0  0  0  0  0  0  0  0  0
  1  2  1  0
  2  3  1  0
  2  4  1  0
  4  5  1  0
  5  6  2  0
  5  7  1  0
  4  8  1  0
  8  9  2  0
  9 10  1  0
 10 11  2  0
 11 12  1  0
 12 13  2  0
 13 14  1  0
 14 15  1  0
 14 16  2  0
 13 17  1  0
 17 18  1  0
 18 19  1  0
 18 20  2  0
 17 21  1  0
 21 22  2  0
 22  8  1  0
 21 11  1  0
  1 23  1  0
  1 24  1  0
  1 25  1  0
  2 26  1  0
  3 27  1  0
  3 28  1  0
  3 29  1  0
  4 30  1  1
  9 31  1  0
 10 32  1  0
 12 33  1  0
 15 34  1  0
 19 35  1  0
 19 36  1  0
 22 37  1  0
M  CHG  2   7  -1  15  -1
M  END
>  <UniqueID>  (91) 
91

>  <SMILES>  (91) 
CC(C)[C@@H](C(=O)[O-])c1ccc2cc(C([NH-])=O)n(C(N)=O)c2c1

>  <Energy>  (91) 
74.7908784028513

>  <Genealogy>  (91) 
CC(C)C(C(=O)[O-])c1ccc2cc(C([NH-])=O)n(C(N)=O)c2c1 (protonated)
CC(C)[C@@H](C(=O)[O-])c1ccc2cc(C([NH-])=O)n(C(N)=O)c2c1 (chirality)
CC(C)[C@@H](C(=O)[O-])c1ccc2cc(C([NH-])=O)n(C(N)=O)c2c1 (3D coordinates assigned)
CC(C)[C@@H](C(=O)[O-])c1ccc2cc(C([NH-])=O)n(C(N)=O)c2c1 (optimized conformer: 74.7908784028513 kcal/mol)

>  <smiles>  (91) 
CC(C)C(C(=O)O)c1ccc2cc(C(N)=O)n(C(N)=O)c2c1

>  <score_type>  (91) 
oracle

>  <origin>  (91) 
adg

>  <m_score__min__energy>  (91) 
-7.3700000000000001

>  <m_primary>  (91) 
energy

$$$$
91:0
     RDKit          3D

 41 43  0  0  0  0  0  0  0  0999 V2000
  147.7260  151.4500  132.2310 C   0  0  0  0  0  0  0  0  0  0  0  0
  148.9160  152.2960  132.6870 C   0  0  1  0  0  0  0  0  0  0  0  0
  149.9970  152.1610  131.8010 O   0  0  0  0  0  0  0  0  0  0  0  0
  148.5300  153.7100  132.8130 C   0  0  0  0  0  0  0  0  0  0  0  0
  148.2140  154.8690  132.9160 C   0  0  0  0  0  0  0  0  0  0  0  0
  147.8340  156.2520  133.0390 C   0  0  0  0  0  0  0  0  0  0  0  0
  148.8220  157.2620  132.9860 C   0  0  0  0  0  0  0  0  0  0  0  0
  148.4610  158.6160  133.0900 C   0  0  0  0  0  0  0  0  0  0  0  0
  147.1110  158.9210  133.2550 C   0  0  0  0  0  0  0  0  0  0  0  0
  146.4850  160.1410  133.3570 C   0  0  0  0  0  0  0  0  0  0  0  0
  145.1290  159.8520  133.4940 C   0  0  0  0  0  0  0  0  0  0  0  0
  144.0950  160.8840  133.7190 C   0  0  0  0  0  0  0  0  0  0  0  0
  142.7380  160.6140  133.3730 N   0  0  0  0  0  0  0  0  0  0  0  0
  144.4010  162.0150  134.1800 O   0  0  0  0  0  0  0  0  0  0  0  0
  144.9240  158.5040  133.4700 N   0  0  0  0  0  0  0  0  0  0  0  0
  143.6750  157.7970  133.5210 C   0  0  0  0  0  0  0  0  0  0  0  0
  142.9630  157.6950  132.4840 O   0  0  0  0  0  0  0  0  0  0  0  0
  143.2710  157.1950  134.7150 O   0  0  0  0  0  0  0  0  0  0  0  0
  142.0570  157.5350  135.3780 C   0  0  0  0  0  0  0  0  0  0  0  0
  141.0370  158.1210  134.4180 C   0  0  0  0  0  0  0  0  0  0  0  0
  141.1140  159.4470  135.0340 N   0  0  0  0  0  0  0  0  0  0  0  0
  142.0960  158.9290  135.9860 C   0  0  0  0  0  0  0  0  0  0  0  0
  146.1470  157.9480  133.3250 C   0  0  0  0  0  0  0  0  0  0  0  0
  146.4770  156.5920  133.2040 C   0  0  0  0  0  0  0  0  0  0  0  0
  147.1888  151.0681  133.1116 H   0  0  0  0  0  0  0  0  0  0  0  0
  147.0463  152.0688  131.6267 H   0  0  0  0  0  0  0  0  0  0  0  0
  148.0871  150.6048  131.6267 H   0  0  0  0  0  0  0  0  0  0  0  0
  149.2329  151.9306  133.6750 H   0  0  0  0  0  0  0  0  0  0  0  0
  150.5390  152.9920  131.8530 H   0  0  0  0  0  0  0  0  0  0  0  0
  149.8797  156.9861  132.8626 H   0  0  0  0  0  0  0  0  0  0  0  0
  149.2202  159.4106  133.0427 H   0  0  0  0  0  0  0  0  0  0  0  0
  146.9554  161.1351  133.3350 H   0  0  0  0  0  0  0  0  0  0  0  0
  142.4950  159.8300  132.7270 H   0  0  0  0  0  0  0  0  0  0  0  0
  141.8811  156.6272  135.9738 H   0  0  0  0  0  0  0  0  0  0  0  0
  141.3645  158.1060  133.3680 H   0  0  0  0  0  0  0  0  0  0  0  0
  140.0549  157.6347  134.3234 H   0  0  0  0  0  0  0  0  0  0  0  0
  141.5240  160.1620  134.3880 H   0  0  0  0  0  0  0  0  0  0  0  0
  140.2160  159.7230  135.4970 H   0  0  0  0  0  0  0  0  0  0  0  0
  143.0803  159.4139  135.9080 H   0  0  0  0  0  0  0  0  0  0  0  0
  141.9061  159.0455  137.0632 H   0  0  0  0  0  0  0  0  0  0  0  0
  145.6989  155.8151  133.2369 H   0  0  0  0  0  0  0  0  0  0  0  0
  1  2  1  0
  2  3  1  0
  2  4  1  0
  4  5  3  0
  5  6  1  0
  6  7  2  0
  7  8  1  0
  8  9  2  0
  9 10  1  0
 10 11  2  0
 11 12  1  0
 12 13  1  0
 12 14  2  0
 11 15  1  0
 15 16  1  0
 16 17  2  0
 16 18  1  0
 18 19  1  0
 19 20  1  0
 20 21  1  0
 21 22  1  0
 15 23  1  0
 23 24  2  0
 24  6  1  0
 23  9  1  0
 22 19  1  0
  1 25  1  0
  1 26  1  0
  1 27  1  0
  2 28  1  1
  3 29  1  0
  7 30  1  0
  8 31  1  0
 10 32  1  0
 13 33  1  0
 19 34  1  0
 20 35  1  0
 20 36  1  0
 21 37  1  0
 21 38  1  0
 22 39  1  0
 22 40  1  0
 24 41  1  0
M  CHG  2  13  -1  21   1
M  END
>  <UniqueID>  (92) 
92

>  <SMILES>  (92) 
C[C@@H](O)C#Cc1ccc2cc(C([NH-])=O)n(C(=O)OC3C[NH2+]C3)c2c1

>  <Energy>  (92) 
141.76647168682172

>  <Genealogy>  (92) 
C[C@@H](O)C#Cc1ccc2cc(C([NH-])=O)n(C(=O)OC3C[NH2+]C3)c2c1 (protonated)
C[C@@H](O)C#Cc1ccc2cc(C([NH-])=O)n(C(=O)OC3C[NH2+]C3)c2c1 (3D coordinates assigned)
C[C@@H](O)C#Cc1ccc2cc(C([NH-])=O)n(C(=O)OC3C[NH2+]C3)c2c1 (nonaromatic ring conformer: 141.76647168682172 kcal/mol)

>  <smiles>  (92) 
C[C@@H](O)C#Cc1ccc2cc(C(N)=O)n(C(=O)OC3CNC3)c2c1

>  <score_type>  (92) 
oracle

>  <origin>  (92) 
adg

>  <m_score__min__energy>  (92) 
-6.7400000000000002

>  <m_primary>  (92) 
energy

$$$$
92:0
     RDKit          3D

 42 44  0  0  0  0  0  0  0  0999 V2000
  137.3540  160.1020  130.7390 C   0  0  0  0  0  0  0  0  0  0  0  0
  138.6410  160.4580  131.3200 N   0  0  0  0  0  0  0  0  0  0  0  0
  139.4480  159.5720  132.1060 C   0  0  0  0  0  0  0  0  0  0  0  0
  140.4850  160.0320  132.6560 O   0  0  0  0  0  0  0  0  0  0  0  0
  139.1260  158.1030  132.2160 C   0  0  0  0  0  0  0  0  0  0  0  0
  139.7170  157.4930  133.4610 C   0  0  0  0  0  0  0  0  0  0  0  0
  139.4170  158.0460  134.7310 C   0  0  0  0  0  0  0  0  0  0  0  0
  139.9920  157.5130  135.8970 C   0  0  0  0  0  0  0  0  0  0  0  0
  140.8630  156.4360  135.7620 C   0  0  0  0  0  0  0  0  0  0  0  0
  141.5730  155.7400  136.7160 C   0  0  0  0  0  0  0  0  0  0  0  0
  142.2910  154.7740  136.0110 C   0  0  0  0  0  0  0  0  0  0  0  0
  143.1560  153.7630  136.6530 C   0  0  0  0  0  0  0  0  0  0  0  0
  144.5760  153.8440  136.5600 N   0  0  0  0  0  0  0  0  0  0  0  0
  142.6340  152.7960  137.2710 O   0  0  0  0  0  0  0  0  0  0  0  0
  142.0420  154.8800  134.6750 N   0  0  0  0  0  0  0  0  0  0  0  0
  142.6080  154.1120  133.6030 C   0  0  0  0  0  0  0  0  0  0  0  0
  143.6460  154.5380  133.0270 O   0  0  0  0  0  0  0  0  0  0  0  0
  142.0130  152.8160  133.1920 C   0  0  0  0  0  0  0  0  0  0  0  0
  140.6300  152.7050  132.9770 C   0  0  0  0  0  0  0  0  0  0  0  0
  140.0660  151.4850  132.5940 C   0  0  0  0  0  0  0  0  0  0  0  0
  140.8740  150.3500  132.4140 C   0  0  0  0  0  0  0  0  0  0  0  0
  140.2960  149.0910  132.0180 N   0  0  0  0  0  0  0  0  0  0  0  0
  139.1740  149.0490  131.4740 O   0  0  0  0  0  0  0  0  0  0  0  0
  140.9730  147.9130  132.2370 O   0  0  0  0  0  0  0  0  0  0  0  0
  142.2580  150.4630  132.6210 C   0  0  0  0  0  0  0  0  0  0  0  0
  142.8230  151.6820  133.0050 C   0  0  0  0  0  0  0  0  0  0  0  0
  141.1630  155.8930  134.5400 C   0  0  0  0  0  0  0  0  0  0  0  0
  140.6150  156.4070  133.3620 C   0  0  0  0  0  0  0  0  0  0  0  0
  136.6312  159.9021  131.5437 H   0  0  0  0  0  0  0  0  0  0  0  0
  136.9899  160.9332  130.1172 H   0  0  0  0  0  0  0  0  0  0  0  0
  137.4688  159.2019  130.1172 H   0  0  0  0  0  0  0  0  0  0  0  0
  138.0334  157.9789  132.2426 H   0  0  0  0  0  0  0  0  0  0  0  0
  139.5605  157.5912  131.3447 H   0  0  0  0  0  0  0  0  0  0  0  0
  138.7278  158.9002  134.8045 H   0  0  0  0  0  0  0  0  0  0  0  0
  139.7607  157.9342  136.8865 H   0  0  0  0  0  0  0  0  0  0  0  0
  141.5735  155.9101  137.8028 H   0  0  0  0  0  0  0  0  0  0  0  0
  145.1150  154.5190  137.1470 H   0  0  0  0  0  0  0  0  0  0  0  0
  139.9849  153.5858  133.1112 H   0  0  0  0  0  0  0  0  0  0  0  0
  138.9804  151.4129  132.4321 H   0  0  0  0  0  0  0  0  0  0  0  0
  142.9036  149.5837  132.4796 H   0  0  0  0  0  0  0  0  0  0  0  0
  143.9093  151.7550  133.1621 H   0  0  0  0  0  0  0  0  0  0  0  0
  140.8759  155.9775  132.3835 H   0  0  0  0  0  0  0  0  0  0  0  0
  1  2  1  0
  2  3  1  0
  3  4  2  0
  3  5  1  0
  5  6  1  0
  6  7  2  0
  7  8  1  0
  8  9  2  0
  9 10  1  0
 10 11  2  0
 11 12  1  0
 12 13  1  0
 12 14  2  0
 11 15  1  0
 15 16  1  0
 16 17  2  0
 16 18  1  0
 18 19  2  0
 19 20  1  0
 20 21  2  0
 21 22  1  0
 22 23  2  0
 22 24  1  0
 21 25  1  0
 25 26  2  0
 15 27  1  0
 27 28  2  0
 28  6  1  0
 27  9  1  0
 26 18  1  0
  1 29  1  0
  1 30  1  0
  1 31  1  0
  5 32  1  0
  5 33  1  0
  7 34  1  0
  8 35  1  0
 10 36  1  0
 13 37  1  0
 19 38  1  0
 20 39  1  0
 25 40  1  0
 26 41  1  0
 28 42  1  0
M  CHG  4   2  -1  13  -1  22   1  24  -1
M  END
>  <UniqueID>  (93) 
93

>  <SMILES>  (93) 
C[N-]C(=O)Cc1ccc2cc(C([NH-])=O)n(C(=O)c3ccc([N+](=O)[O-])cc3)c2c1

>  <Energy>  (93) 
84.33620774695608

>  <Genealogy>  (93) 
C[N-]C(=O)Cc1ccc2cc(C([NH-])=O)n(C(=O)c3ccc([N+](=O)[O-])cc3)c2c1 (protonated)
C[N-]C(=O)Cc1ccc2cc(C([NH-])=O)n(C(=O)c3ccc([N+](=O)[O-])cc3)c2c1 (3D coordinates assigned)
C[N-]C(=O)Cc1ccc2cc(C([NH-])=O)n(C(=O)c3ccc([N+](=O)[O-])cc3)c2c1 (optimized conformer: 84.33620774695608 kcal/mol)

>  <smiles>  (93) 
CNC(=O)Cc1ccc2cc(C(N)=O)n(C(=O)c3ccc([N+](=O)[O-])cc3)c2c1

>  <score_type>  (93) 
oracle

>  <origin>  (93) 
adg

>  <m_score__min__energy>  (93) 
-8.5199999999999996

>  <m_primary>  (93) 
energy

$$$$
93:0
     RDKit          3D

 41 43  0  0  0  0  0  0  0  0999 V2000
  138.9530  158.2720  131.9880 C   0  0  0  0  0  0  0  0  0  0  0  0
  139.8120  157.5200  132.8360 O   0  0  0  0  0  0  0  0  0  0  0  0
  139.6650  157.4940  134.2260 C   0  0  0  0  0  0  0  0  0  0  0  0
  138.6930  158.0810  134.7740 O   0  0  0  0  0  0  0  0  0  0  0  0
  140.6140  156.7710  135.0290 N   0  0  0  0  0  0  0  0  0  0  0  0
  141.1890  157.1620  136.2020 C   0  0  0  0  0  0  0  0  0  0  0  0
  141.0590  158.4920  136.8330 C   0  0  0  0  0  0  0  0  0  0  0  0
  140.5090  159.5790  136.0910 N   0  0  0  0  0  0  0  0  0  0  0  0
  141.3950  158.6740  138.0330 O   0  0  0  0  0  0  0  0  0  0  0  0
  142.0030  156.1500  136.7070 C   0  0  0  0  0  0  0  0  0  0  0  0
  141.9160  155.1220  135.7970 C   0  0  0  0  0  0  0  0  0  0  0  0
  142.5090  153.8630  135.8090 C   0  0  0  0  0  0  0  0  0  0  0  0
  142.2150  152.9870  134.7510 C   0  0  0  0  0  0  0  0  0  0  0  0
  141.3410  153.3820  133.7080 C   0  0  0  0  0  0  0  0  0  0  0  0
  140.9940  152.4170  132.6080 C   0  0  0  0  0  0  0  0  0  0  0  0
  141.0830  150.9730  133.1120 C   0  0  0  0  0  0  0  0  0  0  0  0
  140.4220  150.0310  132.1380 C   0  0  0  0  0  0  0  0  0  0  0  0
  139.0450  150.1390  131.8830 C   0  0  0  0  0  0  0  0  0  0  0  0
  138.4180  149.2500  131.0050 C   0  0  0  0  0  0  0  0  0  0  0  0
  139.1590  148.2420  130.3820 C   0  0  0  0  0  0  0  0  0  0  0  0
  140.5270  148.1180  130.6400 C   0  0  0  0  0  0  0  0  0  0  0  0
  141.1600  149.0050  131.5180 C   0  0  0  0  0  0  0  0  0  0  0  0
  142.4860  148.8590  131.7660 F   0  0  0  0  0  0  0  0  0  0  0  0
  140.7460  154.6630  133.7370 C   0  0  0  0  0  0  0  0  0  0  0  0
  141.0720  155.5220  134.7920 C   0  0  0  0  0  0  0  0  0  0  0  0
  138.2662  158.8732  132.6019 H   0  0  0  0  0  0  0  0  0  0  0  0
  139.5558  158.9380  131.3531 H   0  0  0  0  0  0  0  0  0  0  0  0
  138.3726  157.5864  131.3531 H   0  0  0  0  0  0  0  0  0  0  0  0
  139.4760  159.6950  135.9950 H   0  0  0  0  0  0  0  0  0  0  0  0
  142.5908  156.1691  137.6366 H   0  0  0  0  0  0  0  0  0  0  0  0
  143.1869  153.5632  136.6218 H   0  0  0  0  0  0  0  0  0  0  0  0
  142.6677  151.9846  134.7320 H   0  0  0  0  0  0  0  0  0  0  0  0
  139.9694  152.6168  132.2613 H   0  0  0  0  0  0  0  0  0  0  0  0
  141.7072  152.5494  131.7810 H   0  0  0  0  0  0  0  0  0  0  0  0
  142.1410  150.6936  133.2243 H   0  0  0  0  0  0  0  0  0  0  0  0
  140.5667  150.9023  134.0807 H   0  0  0  0  0  0  0  0  0  0  0  0
  138.4571  150.9269  132.3765 H   0  0  0  0  0  0  0  0  0  0  0  0
  137.3405  149.3439  130.8043 H   0  0  0  0  0  0  0  0  0  0  0  0
  138.6652  147.5458  129.6881 H   0  0  0  0  0  0  0  0  0  0  0  0
  141.1075  147.3213  130.1518 H   0  0  0  0  0  0  0  0  0  0  0  0
  140.0443  154.9770  132.9502 H   0  0  0  0  0  0  0  0  0  0  0  0
  1  2  1  0
  2  3  1  0
  3  4  2  0
  3  5  1  0
  5  6  1  0
  6  7  1  0
  7  8  1  0
  7  9  2  0
  6 10  2  0
 10 11  1  0
 11 12  2  0
 12 13  1  0
 13 14  2  0
 14 15  1  0
 15 16  1  0
 16 17  1  0
 17 18  2  0
 18 19  1  0
 19 20  2  0
 20 21  1  0
 21 22  2  0
 22 23  1  0
 14 24  1  0
 24 25  2  0
 25  5  1  0
 25 11  1  0
 22 17  1  0
  1 26  1  0
  1 27  1  0
  1 28  1  0
  8 29  1  0
 10 30  1  0
 12 31  1  0
 13 32  1  0
 15 33  1  0
 15 34  1  0
 16 35  1  0
 16 36  1  0
 18 37  1  0
 19 38  1  0
 20 39  1  0
 21 40  1  0
 24 41  1  0
M  CHG  1   8  -1
M  END
>  <UniqueID>  (94) 
94

>  <SMILES>  (94) 
COC(=O)n1c(C([NH-])=O)cc2ccc(CCc3ccccc3F)cc21

>  <Energy>  (94) 
77.19875092702588

>  <Genealogy>  (94) 
COC(=O)n1c(C([NH-])=O)cc2ccc(CCc3ccccc3F)cc21 (protonated)
COC(=O)n1c(C([NH-])=O)cc2ccc(CCc3ccccc3F)cc21 (3D coordinates assigned)
COC(=O)n1c(C([NH-])=O)cc2ccc(CCc3ccccc3F)cc21 (optimized conformer: 77.19875092702588 kcal/mol)

>  <smiles>  (94) 
COC(=O)n1c(C(N)=O)cc2ccc(CCc3ccccc3F)cc21

>  <score_type>  (94) 
oracle

>  <origin>  (94) 
adg

>  <m_score__min__energy>  (94) 
-7.8099999999999996

>  <m_primary>  (94) 
energy

$$$$
