0:0
     RDKit          3D

 51 55  0  0  0  0  0  0  0  0999 V2000
  143.0390  153.9520  132.9480 C   0  0  0  0  0  0  0  0  0  0  0  0
  144.5290  153.9140  131.8960 S   0  0  0  0  0  0  0  0  0  0  0  0
  145.6680  154.2450  133.2460 C   0  0  0  0  0  0  0  0  0  0  0  0
  145.6200  153.5130  134.2700 O   0  0  0  0  0  0  0  0  0  0  0  0
  146.5700  155.3680  133.2090 N   0  0  0  0  0  0  0  0  0  0  0  0
  147.9230  155.3190  133.0410 C   0  0  0  0  0  0  0  0  0  0  0  0
  148.7570  154.0980  133.0490 C   0  0  0  0  0  0  0  0  0  0  0  0
  148.5180  153.0530  133.9880 N   0  0  0  0  0  0  0  0  0  0  0  0
  149.7280  154.0010  132.2510 O   0  0  0  0  0  0  0  0  0  0  0  0
  148.4570  156.6000  132.9440 C   0  0  0  0  0  0  0  0  0  0  0  0
  147.3860  157.4490  133.0750 C   0  0  0  0  0  0  0  0  0  0  0  0
  147.3480  158.8400  133.0470 C   0  0  0  0  0  0  0  0  0  0  0  0
  146.1010  159.4690  133.1870 C   0  0  0  0  0  0  0  0  0  0  0  0
  144.9210  158.7020  133.3610 C   0  0  0  0  0  0  0  0  0  0  0  0
  143.6290  159.3230  133.4800 N   0  0  0  0  0  0  0  0  0  0  0  0
  142.3590  158.6230  133.7630 C   0  0  1  0  0  0  0  0  0  0  0  0
  142.0310  157.5540  132.6780 C   0  0  0  0  0  0  0  0  0  0  0  0
  140.6870  156.8650  133.0010 C   0  0  2  0  0  0  0  0  0  0  0  0
  139.5580  157.9180  133.0120 C   0  0  0  0  0  0  0  0  0  0  0  0
  139.8560  158.9800  134.0900 C   0  0  1  0  0  0  0  0  0  0  0  0
  139.9390  158.3020  135.4750 C   0  0  0  0  0  0  0  0  0  0  0  0
  141.0700  157.2520  135.4680 C   0  0  1  0  0  0  0  0  0  0  0  0
  140.7760  156.1890  134.3870 C   0  0  0  0  0  0  0  0  0  0  0  0
  142.4170  157.9450  135.1580 C   0  0  0  0  0  0  0  0  0  0  0  0
  141.2030  159.6650  133.7760 C   0  0  0  0  0  0  0  0  0  0  0  0
  145.0020  157.2930  133.3620 C   0  0  0  0  0  0  0  0  0  0  0  0
  146.2570  156.6870  133.2350 C   0  0  0  0  0  0  0  0  0  0  0  0
  143.3374  153.9444  134.0067 H   0  0  0  0  0  0  0  0  0  0  0  0
  142.4635  154.8651  132.7358 H   0  0  0  0  0  0  0  0  0  0  0  0
  142.4177  153.0694  132.7358 H   0  0  0  0  0  0  0  0  0  0  0  0
  147.5720  152.6210  134.0830 H   0  0  0  0  0  0  0  0  0  0  0  0
  149.5118  156.8740  132.7944 H   0  0  0  0  0  0  0  0  0  0  0  0
  148.2681  159.4291  132.9189 H   0  0  0  0  0  0  0  0  0  0  0  0
  146.0385  160.5669  133.1615 H   0  0  0  0  0  0  0  0  0  0  0  0
  143.5660  160.3030  133.1180 H   0  0  0  0  0  0  0  0  0  0  0  0
  142.8310  156.7993  132.6573 H   0  0  0  0  0  0  0  0  0  0  0  0
  141.9563  158.0472  131.6976 H   0  0  0  0  0  0  0  0  0  0  0  0
  140.4707  156.1050  132.2358 H   0  0  0  0  0  0  0  0  0  0  0  0
  138.6001  157.4262  133.2367 H   0  0  0  0  0  0  0  0  0  0  0  0
  139.4990  158.4026  132.0263 H   0  0  0  0  0  0  0  0  0  0  0  0
  139.0515  159.7302  134.0961 H   0  0  0  0  0  0  0  0  0  0  0  0
  138.9820  157.8083  135.6993 H   0  0  0  0  0  0  0  0  0  0  0  0
  140.1491  159.0615  136.2425 H   0  0  0  0  0  0  0  0  0  0  0  0
  141.1273  156.7675  136.4539 H   0  0  0  0  0  0  0  0  0  0  0  0
  139.8210  155.6921  134.6132 H   0  0  0  0  0  0  0  0  0  0  0  0
  141.5867  155.4456  134.3778 H   0  0  0  0  0  0  0  0  0  0  0  0
  143.2220  157.1954  135.1651 H   0  0  0  0  0  0  0  0  0  0  0  0
  142.6124  158.7110  135.9229 H   0  0  0  0  0  0  0  0  0  0  0  0
  141.1413  160.1484  132.7899 H   0  0  0  0  0  0  0  0  0  0  0  0
  141.4097  160.4135  134.5551 H   0  0  0  0  0  0  0  0  0  0  0  0
  144.0933  156.6810  133.4610 H   0  0  0  0  0  0  0  0  0  0  0  0
  1  2  1  0
  2  3  1  0
  3  4  2  0
  3  5  1  0
  5  6  1  0
  6  7  1  0
  7  8  1  0
  7  9  2  0
  6 10  2  0
 10 11  1  0
 11 12  2  0
 12 13  1  0
 13 14  2  0
 14 15  1  0
 16 15  1  6
 16 17  1  0
 17 18  1  0
 18 19  1  0
 19 20  1  0
 20 21  1  0
 21 22  1  0
 22 23  1  0
 22 24  1  0
 20 25  1  0
 14 26  1  0
 26 27  2  0
 27  5  1  0
 27 11  1  0
 24 16  1  0
 25 16  1  0
 23 18  1  0
  1 28  1  0
  1 29  1  0
  1 30  1  0
  8 31  1  0
 10 32  1  0
 12 33  1  0
 13 34  1  0
 15 35  1  0
 17 36  1  0
 17 37  1  0
 18 38  1  6
 19 39  1  0
 19 40  1  0
 20 41  1  1
 21 42  1  0
 21 43  1  0
 22 44  1  1
 23 45  1  0
 23 46  1  0
 24 47  1  0
 24 48  1  0
 25 49  1  0
 25 50  1  0
 26 51  1  0
M  CHG  1   8  -1
M  END
>  <UniqueID>  (1) 
1

>  <SMILES>  (1) 
CSC(=O)n1c(C([NH-])=O)cc2ccc(NC34CC5CC(CC(C5)C3)C4)cc21

>  <Energy>  (1) 
98.34173854644924

>  <Genealogy>  (1) 
CSC(=O)n1c(C([NH-])=O)cc2ccc(NC34CC5CC(CC(C5)C3)C4)cc21 (protonated)
CSC(=O)n1c(C([NH-])=O)cc2ccc(NC34CC5CC(CC(C5)C3)C4)cc21 (3D coordinates assigned)
CSC(=O)n1c(C([NH-])=O)cc2ccc(NC34CC5CC(CC(C5)C3)C4)cc21 (nonaromatic ring conformer: 98.34173854644924 kcal/mol)

>  <smiles>  (1) 
CSC(=O)n1c(C(N)=O)cc2ccc(NC34CC5CC(CC(C5)C3)C4)cc21

>  <score_type>  (1) 
oracle

>  <origin>  (1) 
adg

>  <m_score__min__energy>  (1) 
-8.5800000000000001

>  <m_primary>  (1) 
energy

$$$$
1:0
     RDKit          3D

 42 43  0  0  0  0  0  0  0  0999 V2000
  137.5430  159.7460  131.0570 C   0  0  0  0  0  0  0  0  0  0  0  0
  138.9930  160.0230  131.4390 C   0  0  0  0  0  0  0  0  0  0  0  0
  139.3340  159.3320  132.6380 O   0  0  0  0  0  0  0  0  0  0  0  0
  140.1270  158.1810  132.6680 C   0  0  0  0  0  0  0  0  0  0  0  0
  141.3670  158.2440  132.4490 O   0  0  0  0  0  0  0  0  0  0  0  0
  139.4920  156.8620  132.9760 C   0  0  0  0  0  0  0  0  0  0  0  0
  140.4740  155.7900  132.8310 N   0  0  0  0  0  0  0  0  0  0  0  0
  140.1210  154.4050  132.9380 C   0  0  0  0  0  0  0  0  0  0  0  0
  138.9070  154.0620  132.9780 O   0  0  0  0  0  0  0  0  0  0  0  0
  141.1470  153.4030  133.0230 N   0  0  0  0  0  0  0  0  0  0  0  0
  142.4660  153.5810  133.3170 C   0  0  0  0  0  0  0  0  0  0  0  0
  143.0930  154.8490  133.7460 C   0  0  0  0  0  0  0  0  0  0  0  0
  143.3820  155.8590  132.7830 N   0  0  0  0  0  0  0  0  0  0  0  0
  143.4000  155.0400  134.9530 O   0  0  0  0  0  0  0  0  0  0  0  0
  143.1530  152.3720  133.2210 C   0  0  0  0  0  0  0  0  0  0  0  0
  142.2080  151.4410  132.8540 C   0  0  0  0  0  0  0  0  0  0  0  0
  142.3420  150.0800  132.5920 C   0  0  0  0  0  0  0  0  0  0  0  0
  141.1980  149.3700  132.1920 C   0  0  0  0  0  0  0  0  0  0  0  0
  139.9480  150.0280  132.0620 C   0  0  0  0  0  0  0  0  0  0  0  0
  138.7390  149.2680  131.5890 C   0  0  0  0  0  0  0  0  0  0  0  0
  139.0700  148.4460  130.3410 C   0  0  0  0  0  0  0  0  0  0  0  0
  138.5160  147.1630  130.4480 O   0  0  0  0  0  0  0  0  0  0  0  0
  139.8550  151.4120  132.3250 C   0  0  0  0  0  0  0  0  0  0  0  0
  141.0050  152.0900  132.7410 C   0  0  0  0  0  0  0  0  0  0  0  0
  136.9391  159.6306  131.9692 H   0  0  0  0  0  0  0  0  0  0  0  0
  137.1534  160.5860  130.4631 H   0  0  0  0  0  0  0  0  0  0  0  0
  137.4904  158.8216  130.4631 H   0  0  0  0  0  0  0  0  0  0  0  0
  139.6524  159.6847  130.6262 H   0  0  0  0  0  0  0  0  0  0  0  0
  139.1174  161.1035  131.6034 H   0  0  0  0  0  0  0  0  0  0  0  0
  139.1132  156.8721  134.0087 H   0  0  0  0  0  0  0  0  0  0  0  0
  138.6612  156.6884  132.2762 H   0  0  0  0  0  0  0  0  0  0  0  0
  141.4730  156.0450  132.6580 H   0  0  0  0  0  0  0  0  0  0  0  0
  142.6140  156.3700  132.2940 H   0  0  0  0  0  0  0  0  0  0  0  0
  144.2243  152.1985  133.4006 H   0  0  0  0  0  0  0  0  0  0  0  0
  143.3144  149.5761  132.6951 H   0  0  0  0  0  0  0  0  0  0  0  0
  141.2720  148.2936  131.9775 H   0  0  0  0  0  0  0  0  0  0  0  0
  138.4026  148.5912  132.3883 H   0  0  0  0  0  0  0  0  0  0  0  0
  137.9453  149.9872  131.3382 H   0  0  0  0  0  0  0  0  0  0  0  0
  138.6559  148.9482  129.4543 H   0  0  0  0  0  0  0  0  0  0  0  0
  140.1625  148.3595  130.2464 H   0  0  0  0  0  0  0  0  0  0  0  0
  137.6380  147.2690  130.8970 H   0  0  0  0  0  0  0  0  0  0  0  0
  138.9000  151.9446  132.2054 H   0  0  0  0  0  0  0  0  0  0  0  0
  1  2  1  0
  2  3  1  0
  3  4  1  0
  4  5  2  0
  4  6  1  0
  6  7  1  0
  7  8  1  0
  8  9  2  0
  8 10  1  0
 10 11  1  0
 11 12  1  0
 12 13  1  0
 12 14  2  0
 11 15  2  0
 15 16  1  0
 16 17  2  0
 17 18  1  0
 18 19  2  0
 19 20  1  0
 20 21  1  0
 21 22  1  0
 19 23  1  0
 23 24  2  0
 24 10  1  0
 24 16  1  0
  1 25  1  0
  1 26  1  0
  1 27  1  0
  2 28  1  0
  2 29  1  0
  6 30  1  0
  6 31  1  0
  7 32  1  0
 13 33  1  0
 15 34  1  0
 17 35  1  0
 18 36  1  0
 20 37  1  0
 20 38  1  0
 21 39  1  0
 21 40  1  0
 22 41  1  0
 23 42  1  0
M  CHG  1  13  -1
M  END
>  <UniqueID>  (2) 
2

>  <SMILES>  (2) 
CCOC(=O)CNC(=O)n1c(C([NH-])=O)cc2ccc(CCO)cc21

>  <Energy>  (2) 
68.21180339486152

>  <Genealogy>  (2) 
CCOC(=O)CNC(=O)n1c(C([NH-])=O)cc2ccc(CCO)cc21 (protonated)
CCOC(=O)CNC(=O)n1c(C([NH-])=O)cc2ccc(CCO)cc21 (3D coordinates assigned)
CCOC(=O)CNC(=O)n1c(C([NH-])=O)cc2ccc(CCO)cc21 (optimized conformer: 68.21180339486152 kcal/mol)

>  <smiles>  (2) 
CCOC(=O)CNC(=O)n1c(C(N)=O)cc2ccc(CCO)cc21

>  <score_type>  (2) 
oracle

>  <origin>  (2) 
adg

>  <m_score__min__energy>  (2) 
-7.0499999999999998

>  <m_primary>  (2) 
energy

$$$$
2:0
     RDKit          3D

 47 48  0  0  0  0  0  0  0  0999 V2000
  141.1100  160.1750  133.3250 C   0  0  0  0  0  0  0  0  0  0  0  0
  141.4710  159.1860  134.3520 N   0  0  0  0  0  0  0  0  0  0  0  0
  142.8830  159.0130  134.7230 C   0  0  0  0  0  0  0  0  0  0  0  0
  143.7650  159.7010  133.7310 C   0  0  0  0  0  0  0  0  0  0  0  0
  143.8940  160.9540  133.7610 O   0  0  0  0  0  0  0  0  0  0  0  0
  144.4180  158.9610  132.7510 O   0  0  0  0  0  0  0  0  0  0  0  0
  140.4490  158.4370  135.0560 C   0  0  0  0  0  0  0  0  0  0  0  0
  140.3310  158.5750  136.3030 O   0  0  0  0  0  0  0  0  0  0  0  0
  139.5480  157.4810  134.3700 C   0  0  0  0  0  0  0  0  0  0  0  0
  138.3650  157.8310  134.1000 O   0  0  0  0  0  0  0  0  0  0  0  0
  140.0170  156.1790  133.9530 N   0  0  0  0  0  0  0  0  0  0  0  0
  139.3460  155.4600  132.8610 C   0  0  0  0  0  0  0  0  0  0  0  0
  141.2470  155.6240  134.5330 C   0  0  0  0  0  0  0  0  0  0  0  0
  142.3180  155.5120  133.4890 C   0  0  0  0  0  0  0  0  0  0  0  0
  142.4850  156.4440  132.6580 O   0  0  0  0  0  0  0  0  0  0  0  0
  143.1830  154.3700  133.4650 N   0  0  0  0  0  0  0  0  0  0  0  0
  144.5410  154.3570  133.5510 C   0  0  0  0  0  0  0  0  0  0  0  0
  145.3980  155.5260  133.8360 C   0  0  0  0  0  0  0  0  0  0  0  0
  145.3450  156.7000  133.0250 N   0  0  0  0  0  0  0  0  0  0  0  0
  146.1570  155.5040  134.8410 O   0  0  0  0  0  0  0  0  0  0  0  0
  145.0370  153.0920  133.2480 C   0  0  0  0  0  0  0  0  0  0  0  0
  143.9280  152.3210  132.9770 C   0  0  0  0  0  0  0  0  0  0  0  0
  143.8300  150.9850  132.6030 C   0  0  0  0  0  0  0  0  0  0  0  0
  142.5500  150.4610  132.3550 C   0  0  0  0  0  0  0  0  0  0  0  0
  141.3950  151.2820  132.4660 C   0  0  0  0  0  0  0  0  0  0  0  0
  140.0150  150.7260  132.2250 C   0  0  0  0  0  0  0  0  0  0  0  0
  139.9100  150.2820  130.9200 F   0  0  0  0  0  0  0  0  0  0  0  0
  139.7390  149.6650  133.0700 F   0  0  0  0  0  0  0  0  0  0  0  0
  139.0800  151.7220  132.4400 F   0  0  0  0  0  0  0  0  0  0  0  0
  141.5380  152.6320  132.8580 C   0  0  0  0  0  0  0  0  0  0  0  0
  142.8240  153.1200  133.1060 C   0  0  0  0  0  0  0  0  0  0  0  0
  140.7717  161.1018  133.8113 H   0  0  0  0  0  0  0  0  0  0  0  0
  141.9879  160.3894  132.6978 H   0  0  0  0  0  0  0  0  0  0  0  0
  140.3005  159.7735  132.6978 H   0  0  0  0  0  0  0  0  0  0  0  0
  143.0522  159.4446  135.7205 H   0  0  0  0  0  0  0  0  0  0  0  0
  143.1228  157.9395  134.7330 H   0  0  0  0  0  0  0  0  0  0  0  0
  138.6528  154.7172  133.2826 H   0  0  0  0  0  0  0  0  0  0  0  0
  138.7849  156.1751  132.2415 H   0  0  0  0  0  0  0  0  0  0  0  0
  140.0981  154.9495  132.2415 H   0  0  0  0  0  0  0  0  0  0  0  0
  141.5964  156.2846  135.3402 H   0  0  0  0  0  0  0  0  0  0  0  0
  141.0314  154.6208  134.9295 H   0  0  0  0  0  0  0  0  0  0  0  0
  145.9930  157.4950  133.2140 H   0  0  0  0  0  0  0  0  0  0  0  0
  144.5790  156.8420  132.3340 H   0  0  0  0  0  0  0  0  0  0  0  0
  146.0903  152.7755  133.2290 H   0  0  0  0  0  0  0  0  0  0  0  0
  144.7278  150.3572  132.5043 H   0  0  0  0  0  0  0  0  0  0  0  0
  142.4406  149.4037  132.0718 H   0  0  0  0  0  0  0  0  0  0  0  0
  140.6581  153.2834  132.9654 H   0  0  0  0  0  0  0  0  0  0  0  0
  1  2  1  0
  2  3  1  0
  3  4  1  0
  4  5  2  0
  4  6  1  0
  2  7  1  0
  7  8  2  0
  7  9  1  0
  9 10  2  0
  9 11  1  0
 11 12  1  0
 11 13  1  0
 13 14  1  0
 14 15  2  0
 14 16  1  0
 16 17  1  0
 17 18  1  0
 18 19  1  0
 18 20  2  0
 17 21  2  0
 21 22  1  0
 22 23  2  0
 23 24  1  0
 24 25  2  0
 25 26  1  0
 26 27  1  0
 26 28  1  0
 26 29  1  0
 25 30  1  0
 30 31  2  0
 31 16  1  0
 31 22  1  0
  1 32  1  0
  1 33  1  0
  1 34  1  0
  3 35  1  0
  3 36  1  0
 12 37  1  0
 12 38  1  0
 12 39  1  0
 13 40  1  0
 13 41  1  0
 19 42  1  0
 19 43  1  0
 21 44  1  0
 23 45  1  0
 24 46  1  0
 30 47  1  0
M  CHG  1   6  -1
M  END
>  <UniqueID>  (3) 
3

>  <SMILES>  (3) 
CN(CC(=O)[O-])C(=O)C(=O)N(C)CC(=O)n1c(C(N)=O)cc2ccc(C(F)(F)F)cc21

>  <Energy>  (3) 
87.86584641172637

>  <Genealogy>  (3) 
CN(CC(=O)[O-])C(=O)C(=O)N(C)CC(=O)n1c(C(N)=O)cc2ccc(C(F)(F)F)cc21 (protonated)
CN(CC(=O)[O-])C(=O)C(=O)N(C)CC(=O)n1c(C(N)=O)cc2ccc(C(F)(F)F)cc21 (3D coordinates assigned)
CN(CC(=O)[O-])C(=O)C(=O)N(C)CC(=O)n1c(C(N)=O)cc2ccc(C(F)(F)F)cc21 (optimized conformer: 87.86584641172637 kcal/mol)

>  <smiles>  (3) 
CN(CC(=O)O)C(=O)C(=O)N(C)CC(=O)n1c(C(N)=O)cc2ccc(C(F)(F)F)cc21

>  <score_type>  (3) 
oracle

>  <origin>  (3) 
adg

>  <m_score__min__energy>  (3) 
-6.6500000000000004

>  <m_primary>  (3) 
energy

$$$$
3:0
     RDKit          3D

 49 51  0  0  0  0  0  0  0  0999 V2000
  148.8250  161.5530  130.7590 C   0  0  0  0  0  0  0  0  0  0  0  0
  148.6550  160.2830  131.5370 C   0  0  0  0  0  0  0  0  0  0  0  0
  149.7580  159.4170  131.7360 C   0  0  0  0  0  0  0  0  0  0  0  0
  149.6020  158.2070  132.4320 C   0  0  0  0  0  0  0  0  0  0  0  0
  148.3340  157.8890  132.9100 C   0  0  0  0  0  0  0  0  0  0  0  0
  147.9010  156.7860  133.6090 C   0  0  0  0  0  0  0  0  0  0  0  0
  146.5370  156.9920  133.8250 C   0  0  0  0  0  0  0  0  0  0  0  0
  145.6590  156.0600  134.5730 C   0  0  0  0  0  0  0  0  0  0  0  0
  144.2690  155.9470  134.2580 N   0  0  0  0  0  0  0  0  0  0  0  0
  146.1300  155.3450  135.4950 O   0  0  0  0  0  0  0  0  0  0  0  0
  146.1520  158.1870  133.2890 N   0  0  0  0  0  0  0  0  0  0  0  0
  144.8420  158.7840  133.3050 C   0  0  0  0  0  0  0  0  0  0  0  0
  143.9250  158.2740  132.6090 O   0  0  0  0  0  0  0  0  0  0  0  0
  144.5580  160.0400  134.0360 C   0  0  0  0  0  0  0  0  0  0  0  0
  143.3440  160.4550  134.4250 C   0  0  0  0  0  0  0  0  0  0  0  0
  142.1330  159.7710  134.0800 N   0  0  0  0  0  0  0  0  0  0  0  0
  141.3470  160.0610  133.0250 C   0  0  0  0  0  0  0  0  0  0  0  0
  140.3210  159.1430  132.9850 C   0  0  0  0  0  0  0  0  0  0  0  0
  140.4920  158.2610  133.9920 N   0  0  0  0  0  0  0  0  0  0  0  0
  139.6350  157.1060  134.2700 C   0  0  0  0  0  0  0  0  0  0  0  0
  139.8850  155.9600  133.2820 C   0  0  0  0  0  0  0  0  0  0  0  0
  141.1790  154.8580  133.8360 S   0  0  0  0  0  0  0  0  0  0  0  0
  142.4070  155.0480  132.9930 O   0  0  0  0  0  0  0  0  0  0  0  0
  141.5130  155.1700  135.2670 O   0  0  0  0  0  0  0  0  0  0  0  0
  140.6640  153.2620  133.7260 O   0  0  0  0  0  0  0  0  0  0  0  0
  141.6110  158.6580  134.6440 C   0  0  0  0  0  0  0  0  0  0  0  0
  142.2890  157.8680  135.7280 C   0  0  0  0  0  0  0  0  0  0  0  0
  147.2580  158.7140  132.7220 C   0  0  0  0  0  0  0  0  0  0  0  0
  147.3790  159.9170  132.0190 C   0  0  0  0  0  0  0  0  0  0  0  0
  148.9380  162.3971  131.4552 H   0  0  0  0  0  0  0  0  0  0  0  0
  149.7211  161.4777  130.1255 H   0  0  0  0  0  0  0  0  0  0  0  0
  147.9407  161.7161  130.1255 H   0  0  0  0  0  0  0  0  0  0  0  0
  150.7466  159.6948  131.3416 H   0  0  0  0  0  0  0  0  0  0  0  0
  150.4552  157.5319  132.5942 H   0  0  0  0  0  0  0  0  0  0  0  0
  148.5029  155.9231  133.9302 H   0  0  0  0  0  0  0  0  0  0  0  0
  143.8460  156.4480  133.4470 H   0  0  0  0  0  0  0  0  0  0  0  0
  143.6600  155.3040  134.8110 H   0  0  0  0  0  0  0  0  0  0  0  0
  145.4141  160.6861  134.2801 H   0  0  0  0  0  0  0  0  0  0  0  0
  143.2741  161.3650  135.0390 H   0  0  0  0  0  0  0  0  0  0  0  0
  141.4986  160.8890  132.3169 H   0  0  0  0  0  0  0  0  0  0  0  0
  139.4991  159.1308  132.2540 H   0  0  0  0  0  0  0  0  0  0  0  0
  139.8398  156.7480  135.2897 H   0  0  0  0  0  0  0  0  0  0  0  0
  138.5874  157.4248  134.1657 H   0  0  0  0  0  0  0  0  0  0  0  0
  138.9552  155.3838  133.1657 H   0  0  0  0  0  0  0  0  0  0  0  0
  140.2051  156.4023  132.3271 H   0  0  0  0  0  0  0  0  0  0  0  0
  141.9673  158.2429  136.7108 H   0  0  0  0  0  0  0  0  0  0  0  0
  142.0164  156.8065  135.6333 H   0  0  0  0  0  0  0  0  0  0  0  0
  143.3795  157.9764  135.6333 H   0  0  0  0  0  0  0  0  0  0  0  0
  146.5039  160.5607  131.8462 H   0  0  0  0  0  0  0  0  0  0  0  0
  1  2  1  0
  2  3  2  0
  3  4  1  0
  4  5  2  0
  5  6  1  0
  6  7  2  0
  7  8  1  0
  8  9  1  0
  8 10  2  0
  7 11  1  0
 11 12  1  0
 12 13  2  0
 12 14  1  0
 14 15  2  3
 15 16  1  0
 16 17  1  0
 17 18  2  0
 18 19  1  0
 19 20  1  0
 20 21  1  0
 21 22  1  0
 22 23  2  0
 22 24  2  0
 22 25  1  0
 19 26  1  0
 26 27  1  0
 11 28  1  0
 28 29  2  0
 29  2  1  0
 28  5  1  0
 26 16  2  0
  1 30  1  0
  1 31  1  0
  1 32  1  0
  3 33  1  0
  4 34  1  0
  6 35  1  0
  9 36  1  0
  9 37  1  0
 14 38  1  0
 15 39  1  0
 17 40  1  0
 18 41  1  0
 20 42  1  0
 20 43  1  0
 21 44  1  0
 21 45  1  0
 27 46  1  0
 27 47  1  0
 27 48  1  0
 29 49  1  0
M  CHG  2  16   1  25  -1
M  END
>  <UniqueID>  (4) 
4

>  <SMILES>  (4) 
Cc1ccc2cc(C(N)=O)n(C(=O)C=C[n+]3ccn(CCS(=O)(=O)[O-])c3C)c2c1

>  <Energy>  (4) 
117.48468448086794

>  <Genealogy>  (4) 
Cc1ccc2cc(C(N)=O)n(C(=O)C=C[n+]3ccn(CCS(=O)(=O)[O-])c3C)c2c1 (protonated)
Cc1ccc2cc(C(N)=O)n(C(=O)C=C[n+]3ccn(CCS(=O)(=O)[O-])c3C)c2c1 (3D coordinates assigned)
Cc1ccc2cc(C(N)=O)n(C(=O)C=C[n+]3ccn(CCS(=O)(=O)[O-])c3C)c2c1 (optimized conformer: 117.48468448086794 kcal/mol)

>  <smiles>  (4) 
Cc1ccc2cc(C(N)=O)n(C(=O)C=C[n+]3ccn(CCS(=O)(=O)O)c3C)c2c1

>  <score_type>  (4) 
oracle

>  <origin>  (4) 
adg

>  <m_score__min__energy>  (4) 
-8.3200000000000003

>  <m_primary>  (4) 
energy

$$$$
4:0
     RDKit          3D

 42 43  0  0  0  0  0  0  0  0999 V2000
  140.5544  156.2344  134.5674 H   0  0  0  0  0  0  0  0  0  0  0  0
  140.3260  155.9210  133.5380 C   0  0  0  0  0  0  0  0  0  0  0  0
  140.2880  154.4790  133.2250 C   0  0  0  0  0  0  0  0  0  0  0  0
  139.1860  153.9520  132.9180 O   0  0  0  0  0  0  0  0  0  0  0  0
  141.4740  153.6680  133.2630 N   0  0  0  0  0  0  0  0  0  0  0  0
  142.7490  154.0820  133.5020 C   0  0  0  0  0  0  0  0  0  0  0  0
  143.1520  155.4410  133.9160 C   0  0  0  0  0  0  0  0  0  0  0  0
  143.5020  155.6460  135.1090 O   0  0  0  0  0  0  0  0  0  0  0  0
  143.1060  156.5410  133.0040 N   0  0  0  0  0  0  0  0  0  0  0  0
  142.6400  156.4550  132.0760 H   0  0  0  0  0  0  0  0  0  0  0  0
  143.4510  157.4810  133.3020 H   0  0  0  0  0  0  0  0  0  0  0  0
  143.6480  153.0350  133.3120 C   0  0  0  0  0  0  0  0  0  0  0  0
  144.7414  153.0652  133.4280 H   0  0  0  0  0  0  0  0  0  0  0  0
  142.8760  151.9540  132.9480 C   0  0  0  0  0  0  0  0  0  0  0  0
  143.2520  150.6570  132.6110 C   0  0  0  0  0  0  0  0  0  0  0  0
  144.3066  150.3458  132.6429 H   0  0  0  0  0  0  0  0  0  0  0  0
  142.2430  149.7580  132.2290 C   0  0  0  0  0  0  0  0  0  0  0  0
  142.5100  148.7267  131.9549 H   0  0  0  0  0  0  0  0  0  0  0  0
  140.8830  150.1630  132.1920 C   0  0  0  0  0  0  0  0  0  0  0  0
  139.8220  149.2020  131.7230 C   0  0  0  0  0  0  0  0  0  0  0  0
  140.3520  147.9250  131.6780 F   0  0  0  0  0  0  0  0  0  0  0  0
  139.3670  149.5440  130.4610 F   0  0  0  0  0  0  0  0  0  0  0  0
  138.7430  149.2130  132.5900 F   0  0  0  0  0  0  0  0  0  0  0  0
  140.5480  151.4990  132.5110 C   0  0  0  0  0  0  0  0  0  0  0  0
  139.5075  151.8493  132.4423 H   0  0  0  0  0  0  0  0  0  0  0  0
  141.5690  152.3660  132.9160 C   0  0  0  0  0  0  0  0  0  0  0  0
  140.0930  156.8590  132.6160 C   0  0  0  0  0  0  0  0  0  0  0  0
  139.8249  156.5590  131.5922 H   0  0  0  0  0  0  0  0  0  0  0  0
  140.1920  158.3150  132.9580 C   0  0  0  0  0  0  0  0  0  0  0  0
  139.7904  158.9137  132.1272 H   0  0  0  0  0  0  0  0  0  0  0  0
  139.6126  158.5146  133.8715 H   0  0  0  0  0  0  0  0  0  0  0  0
  141.5960  158.6760  133.1850 N   0  0  0  0  0  0  0  0  0  0  0  0
  142.0600  158.7490  132.2480 H   0  0  0  0  0  0  0  0  0  0  0  0
  141.7210  159.9790  133.8550 C   0  0  0  0  0  0  0  0  0  0  0  0
  141.6046  160.7792  133.1093 H   0  0  0  0  0  0  0  0  0  0  0  0
  140.9394  160.0526  134.6255 H   0  0  0  0  0  0  0  0  0  0  0  0
  143.0890  160.1210  134.5330 C   0  0  0  0  0  0  0  0  0  0  0  0
  143.1616  161.1200  134.9878 H   0  0  0  0  0  0  0  0  0  0  0  0
  143.1798  159.3370  135.2992 H   0  0  0  0  0  0  0  0  0  0  0  0
  144.2050  159.9510  133.5480 C   0  0  0  0  0  0  0  0  0  0  0  0
  145.1350  160.7970  133.4930 O   0  0  0  0  0  0  0  0  0  0  0  0
  144.1900  158.8840  132.6570 O   0  0  0  0  0  0  0  0  0  0  0  0
  1  2  1  0
  2  3  1  0
  3  4  2  0
  3  5  1  0
  5  6  1  0
  6  7  1  0
  7  8  2  0
  7  9  1  0
  9 10  1  0
  9 11  1  0
  6 12  2  0
 12 13  1  0
 12 14  1  0
 14 15  2  0
 15 16  1  0
 15 17  1  0
 17 18  1  0
 17 19  2  0
 19 20  1  0
 20 21  1  0
 20 22  1  0
 20 23  1  0
 19 24  1  0
 24 25  1  0
 24 26  2  0
  2 27  2  0
 27 28  1  0
 27 29  1  0
 29 30  1  0
 29 31  1  0
 29 32  1  0
 32 33  1  0
 32 34  1  0
 34 35  1  0
 34 36  1  0
 34 37  1  0
 37 38  1  0
 37 39  1  0
 37 40  1  0
 40 41  2  0
 40 42  1  0
 26  5  1  0
 26 14  1  0
M  CHG  1  42  -1
M  END
>  <UniqueID>  (5) 
5

>  <SMILES>  (5) 
NC(=O)c1cc2ccc(C(F)(F)F)cc2n1C(=O)/C=C/CNCCC(=O)[O-]

>  <Energy>  (5) 
75.97294450110127

>  <Genealogy>  (5) 
NC(=O)c1cc2ccc(C(F)(F)F)cc2n1C(=O)/C=C/CNCCC(=O)[O-] (protonated)
NC(=O)c1cc2ccc(C(F)(F)F)cc2n1C(=O)/C=C/CNCCC(=O)[O-] (cis-trans isomerization)
NC(=O)c1cc2ccc(C(F)(F)F)cc2n1C(=O)/C=C/CNCCC(=O)[O-] (3D coordinates assigned)
NC(=O)c1cc2ccc(C(F)(F)F)cc2n1C(=O)/C=C/CNCCC(=O)[O-] (optimized conformer: 75.97294450110127 kcal/mol)

>  <smiles>  (5) 
NC(=O)c1cc2ccc(C(F)(F)F)cc2n1C(=O)/C=C/CNCCC(=O)O

>  <score_type>  (5) 
oracle

>  <origin>  (5) 
adg

>  <m_score__min__energy>  (5) 
-7.2199999999999998

>  <m_primary>  (5) 
energy

$$$$
5:0
     RDKit          3D

 42 43  0  0  0  0  0  0  0  0999 V2000
  139.3040  159.9730  130.3770 C   0  0  0  0  0  0  0  0  0  0  0  0
  139.3110  159.3220  131.7270 C   0  0  0  0  0  0  0  0  0  0  0  0
  138.1660  158.6280  132.1930 C   0  0  0  0  0  0  0  0  0  0  0  0
  138.1770  157.9870  133.4440 C   0  0  0  0  0  0  0  0  0  0  0  0
  139.3490  158.0430  134.1930 C   0  0  0  0  0  0  0  0  0  0  0  0
  139.6380  157.5170  135.4320 C   0  0  0  0  0  0  0  0  0  0  0  0
  140.9650  157.8730  135.6920 C   0  0  0  0  0  0  0  0  0  0  0  0
  141.7280  157.4760  136.9030 C   0  0  0  0  0  0  0  0  0  0  0  0
  142.4980  156.2720  136.9330 N   0  0  0  0  0  0  0  0  0  0  0  0
  141.7100  158.2040  137.9290 O   0  0  0  0  0  0  0  0  0  0  0  0
  141.4670  158.5900  134.6460 N   0  0  0  0  0  0  0  0  0  0  0  0
  142.7860  159.1330  134.4970 C   0  0  0  0  0  0  0  0  0  0  0  0
  143.1380  160.1080  135.2130 O   0  0  0  0  0  0  0  0  0  0  0  0
  143.7000  158.5820  133.5280 N   0  0  0  0  0  0  0  0  0  0  0  0
  143.4430  157.2470  132.9660 C   0  0  0  0  0  0  0  0  0  0  0  0
  143.3960  156.2120  134.0470 C   0  0  0  0  0  0  0  0  0  0  0  0
  144.3300  156.1280  134.8870 O   0  0  0  0  0  0  0  0  0  0  0  0
  142.3280  155.3270  134.1200 O   0  0  0  0  0  0  0  0  0  0  0  0
  144.9640  159.2310  133.2940 C   0  0  0  0  0  0  0  0  0  0  0  0
  145.0030  160.5160  133.1150 N   0  0  0  0  0  0  0  0  0  0  0  0
  146.2480  158.4540  133.3930 C   0  0  0  0  0  0  0  0  0  0  0  0
  147.3260  159.3630  133.4050 O   0  0  0  0  0  0  0  0  0  0  0  0
  148.1010  159.2100  132.2350 C   0  0  0  0  0  0  0  0  0  0  0  0
  147.7370  160.1880  131.3330 F   0  0  0  0  0  0  0  0  0  0  0  0
  149.4440  159.3640  132.5320 F   0  0  0  0  0  0  0  0  0  0  0  0
  140.4700  158.6860  133.7420 C   0  0  0  0  0  0  0  0  0  0  0  0
  140.4850  159.3450  132.5100 C   0  0  0  0  0  0  0  0  0  0  0  0
  139.2922  161.0664  130.4972 H   0  0  0  0  0  0  0  0  0  0  0  0
  140.2054  159.6749  129.8215 H   0  0  0  0  0  0  0  0  0  0  0  0
  138.4092  159.6556  129.8215 H   0  0  0  0  0  0  0  0  0  0  0  0
  137.2604  158.5908  131.5697 H   0  0  0  0  0  0  0  0  0  0  0  0
  137.2883  157.4583  133.8189 H   0  0  0  0  0  0  0  0  0  0  0  0
  138.9655  156.9377  136.0817 H   0  0  0  0  0  0  0  0  0  0  0  0
  143.0100  156.0040  137.8040 H   0  0  0  0  0  0  0  0  0  0  0  0
  142.6010  155.6560  136.0990 H   0  0  0  0  0  0  0  0  0  0  0  0
  142.4789  157.2587  132.4365 H   0  0  0  0  0  0  0  0  0  0  0  0
  144.2590  156.9944  132.2730 H   0  0  0  0  0  0  0  0  0  0  0  0
  145.9050  161.0290  132.9890 H   0  0  0  0  0  0  0  0  0  0  0  0
  146.2522  157.8624  134.3203 H   0  0  0  0  0  0  0  0  0  0  0  0
  146.3413  157.7728  132.5344 H   0  0  0  0  0  0  0  0  0  0  0  0
  147.9310  158.2078  131.8147 H   0  0  0  0  0  0  0  0  0  0  0  0
  141.3874  159.8676  132.1598 H   0  0  0  0  0  0  0  0  0  0  0  0
  1  2  1  0
  2  3  2  0
  3  4  1  0
  4  5  2  0
  5  6  1  0
  6  7  2  0
  7  8  1  0
  8  9  1  0
  8 10  2  0
  7 11  1  0
 11 12  1  0
 12 13  2  0
 12 14  1  0
 14 15  1  0
 15 16  1  0
 16 17  2  0
 16 18  1  0
 14 19  1  0
 19 20  2  3
 19 21  1  0
 21 22  1  0
 22 23  1  0
 23 24  1  0
 23 25  1  0
 11 26  1  0
 26 27  2  0
 27  2  1  0
 26  5  1  0
  1 28  1  0
  1 29  1  0
  1 30  1  0
  3 31  1  0
  4 32  1  0
  6 33  1  0
  9 34  1  0
  9 35  1  0
 15 36  1  0
 15 37  1  0
 20 38  1  0
 21 39  1  0
 21 40  1  0
 23 41  1  0
 27 42  1  0
M  CHG  1  18  -1
M  END
>  <UniqueID>  (6) 
6

>  <SMILES>  (6) 
Cc1ccc2cc(C(N)=O)n(C(=O)N(CC(=O)[O-])C(=N)COC(F)F)c2c1

>  <Energy>  (6) 
84.01456459132973

>  <Genealogy>  (6) 
Cc1ccc2cc(C(N)=O)n(C(=O)N(CC(=O)[O-])C(=N)COC(F)F)c2c1 (protonated)
Cc1ccc2cc(C(N)=O)n(C(=O)N(CC(=O)[O-])C(=N)COC(F)F)c2c1 (3D coordinates assigned)
Cc1ccc2cc(C(N)=O)n(C(=O)N(CC(=O)[O-])C(=N)COC(F)F)c2c1 (optimized conformer: 84.01456459132973 kcal/mol)

>  <smiles>  (6) 
Cc1ccc2cc(C(N)=O)n(C(=O)N(CC(=O)O)C(=N)COC(F)F)c2c1

>  <score_type>  (6) 
oracle

>  <origin>  (6) 
adg

>  <m_score__min__energy>  (6) 
-6.79

>  <m_primary>  (6) 
energy

$$$$
6:0
     RDKit          3D

 41 43  0  0  0  0  0  0  0  0999 V2000
  148.7870  157.0630  133.4880 N   0  0  0  0  0  0  0  0  0  0  0  0
  148.2930  158.4020  133.4720 C   0  0  0  0  0  0  0  0  0  0  0  0
  149.1130  159.3580  133.4100 O   0  0  0  0  0  0  0  0  0  0  0  0
  146.8480  158.6950  133.5790 C   0  0  0  0  0  0  0  0  0  0  0  0
  146.3400  159.9880  133.6690 C   0  0  0  0  0  0  0  0  0  0  0  0
  144.9730  159.8400  133.7060 C   0  0  0  0  0  0  0  0  0  0  0  0
  143.9740  160.8070  133.7470 C   0  0  0  0  0  0  0  0  0  0  0  0
  142.6380  160.3770  133.6930 C   0  0  0  0  0  0  0  0  0  0  0  0
  142.3260  159.0000  133.5720 C   0  0  0  0  0  0  0  0  0  0  0  0
  140.9510  158.5770  133.4960 N   0  0  0  0  0  0  0  0  0  0  0  0
  140.4020  157.6630  134.5030 C   0  0  0  0  0  0  0  0  0  0  0  0
  138.8930  157.8920  134.6370 C   0  0  0  0  0  0  0  0  0  0  0  0
  138.2600  157.8210  133.3730 O   0  0  0  0  0  0  0  0  0  0  0  0
  138.7110  158.8820  132.5510 C   0  0  0  0  0  0  0  0  0  0  0  0
  140.2040  158.7340  132.2440 C   0  0  0  0  0  0  0  0  0  0  0  0
  143.3720  158.0490  133.5290 C   0  0  0  0  0  0  0  0  0  0  0  0
  144.6930  158.5000  133.6300 C   0  0  0  0  0  0  0  0  0  0  0  0
  145.8380  157.7790  133.5680 N   0  0  0  0  0  0  0  0  0  0  0  0
  145.9520  156.3580  133.3700 C   0  0  0  0  0  0  0  0  0  0  0  0
  146.2650  155.9130  132.2320 O   0  0  0  0  0  0  0  0  0  0  0  0
  145.6760  155.3910  134.4880 C   0  0  0  0  0  0  0  0  0  0  0  0
  147.2170  154.7260  135.1930 P   0  0  0  0  0  0  0  0  0  0  0  0
  148.0420  154.1100  134.0860 O   0  0  0  0  0  0  0  0  0  0  0  0
  148.1090  155.9630  135.9260 O   0  0  0  0  0  0  0  0  0  0  0  0
  146.8540  153.5350  136.3370 O   0  0  0  0  0  0  0  0  0  0  0  0
  149.8070  156.8790  133.3540 H   0  0  0  0  0  0  0  0  0  0  0  0
  148.1670  156.2630  133.7310 H   0  0  0  0  0  0  0  0  0  0  0  0
  146.9104  160.9279  133.7033 H   0  0  0  0  0  0  0  0  0  0  0  0
  144.2227  161.8761  133.8195 H   0  0  0  0  0  0  0  0  0  0  0  0
  141.8255  161.1167  133.7452 H   0  0  0  0  0  0  0  0  0  0  0  0
  140.5885  156.6237  134.1945 H   0  0  0  0  0  0  0  0  0  0  0  0
  140.8876  157.8525  135.4717 H   0  0  0  0  0  0  0  0  0  0  0  0
  138.4684  157.1211  135.2969 H   0  0  0  0  0  0  0  0  0  0  0  0
  138.7244  158.8932  135.0602 H   0  0  0  0  0  0  0  0  0  0  0  0
  138.1459  158.8726  131.6073 H   0  0  0  0  0  0  0  0  0  0  0  0
  138.5524  159.8321  133.0822 H   0  0  0  0  0  0  0  0  0  0  0  0
  140.3613  157.8486  131.6105 H   0  0  0  0  0  0  0  0  0  0  0  0
  140.5591  159.6319  131.7172 H   0  0  0  0  0  0  0  0  0  0  0  0
  143.1518  156.9770  133.4185 H   0  0  0  0  0  0  0  0  0  0  0  0
  145.1162  155.9106  135.2796 H   0  0  0  0  0  0  0  0  0  0  0  0
  145.0929  154.5516  134.0814 H   0  0  0  0  0  0  0  0  0  0  0  0
  1  2  1  0
  2  3  2  0
  2  4  1  0
  4  5  2  0
  5  6  1  0
  6  7  2  0
  7  8  1  0
  8  9  2  0
  9 10  1  0
 10 11  1  0
 11 12  1  0
 12 13  1  0
 13 14  1  0
 14 15  1  0
  9 16  1  0
 16 17  2  0
 17 18  1  0
 18 19  1  0
 19 20  2  0
 19 21  1  0
 21 22  1  0
 22 23  2  0
 22 24  1  0
 22 25  1  0
 18  4  1  0
 17  6  1  0
 15 10  1  0
  1 26  1  0
  1 27  1  0
  5 28  1  0
  7 29  1  0
  8 30  1  0
 11 31  1  0
 11 32  1  0
 12 33  1  0
 12 34  1  0
 14 35  1  0
 14 36  1  0
 15 37  1  0
 15 38  1  0
 16 39  1  0
 21 40  1  0
 21 41  1  0
M  CHG  2  24  -1  25  -1
M  END
>  <UniqueID>  (7) 
7

>  <SMILES>  (7) 
NC(=O)c1cc2ccc(N3CCOCC3)cc2n1C(=O)CP(=O)([O-])[O-]

>  <Energy>  (7) 
83.66205391747445

>  <Genealogy>  (7) 
NC(=O)c1cc2ccc(N3CCOCC3)cc2n1C(=O)CP(=O)([O-])[O-] (protonated)
NC(=O)c1cc2ccc(N3CCOCC3)cc2n1C(=O)CP(=O)([O-])[O-] (3D coordinates assigned)
NC(=O)c1cc2ccc(N3CCOCC3)cc2n1C(=O)CP(=O)([O-])[O-] (nonaromatic ring conformer: 83.66205391747445 kcal/mol)

>  <smiles>  (7) 
NC(=O)c1cc2ccc(N3CCOCC3)cc2n1C(=O)CP(=O)(O)O

>  <score_type>  (7) 
oracle

>  <origin>  (7) 
adg

>  <m_score__min__energy>  (7) 
-7.2699999999999996

>  <m_primary>  (7) 
energy

$$$$
7:0
     RDKit          3D

 48 49  0  0  0  0  0  0  0  0999 V2000
  148.3430  154.4970  132.5710 C   0  0  0  0  0  0  0  0  0  0  0  0
  147.9240  155.9270  132.7340 C   0  0  0  0  0  0  0  0  0  0  0  0
  148.9020  156.9500  132.8080 C   0  0  0  0  0  0  0  0  0  0  0  0
  148.5230  158.2880  133.0050 C   0  0  0  0  0  0  0  0  0  0  0  0
  147.1650  158.5710  133.1240 C   0  0  0  0  0  0  0  0  0  0  0  0
  146.5260  159.7670  133.3630 C   0  0  0  0  0  0  0  0  0  0  0  0
  145.1690  159.4550  133.4170 C   0  0  0  0  0  0  0  0  0  0  0  0
  144.1080  160.4560  133.6420 C   0  0  0  0  0  0  0  0  0  0  0  0
  142.7680  160.2330  133.1990 N   0  0  0  0  0  0  0  0  0  0  0  0
  144.3980  161.5500  134.1960 O   0  0  0  0  0  0  0  0  0  0  0  0
  144.9770  158.1210  133.2220 N   0  0  0  0  0  0  0  0  0  0  0  0
  143.7460  157.3880  133.3460 C   0  0  0  0  0  0  0  0  0  0  0  0
  142.8650  157.5090  132.4530 O   0  0  0  0  0  0  0  0  0  0  0  0
  143.5000  156.5360  134.4820 N   0  0  0  0  0  0  0  0  0  0  0  0
  144.2000  155.2520  134.5740 C   0  0  0  0  0  0  0  0  0  0  0  0
  142.6060  156.9530  135.5710 C   0  0  0  0  0  0  0  0  0  0  0  0
  141.1930  156.4940  135.3160 C   0  0  0  0  0  0  0  0  0  0  0  0
  140.9870  155.2790  135.0440 O   0  0  0  0  0  0  0  0  0  0  0  0
  140.0750  157.4030  135.4000 N   0  0  0  0  0  0  0  0  0  0  0  0
  139.4820  157.6290  136.7240 C   0  0  0  0  0  0  0  0  0  0  0  0
  139.5130  158.0360  134.1870 C   0  0  2  0  0  0  0  0  0  0  0  0
  139.5240  157.0790  132.9880 C   0  0  0  0  0  0  0  0  0  0  0  0
  140.2300  159.3210  133.8750 C   0  0  0  0  0  0  0  0  0  0  0  0
  140.3640  159.7100  132.6840 O   0  0  0  0  0  0  0  0  0  0  0  0
  140.7570  160.0870  134.9070 O   0  0  0  0  0  0  0  0  0  0  0  0
  146.2080  157.5920  133.0520 C   0  0  0  0  0  0  0  0  0  0  0  0
  146.5580  156.2480  132.8830 C   0  0  0  0  0  0  0  0  0  0  0  0
  148.4772  154.0390  133.5621 H   0  0  0  0  0  0  0  0  0  0  0  0
  147.5677  153.9488  132.0157 H   0  0  0  0  0  0  0  0  0  0  0  0
  149.2915  154.4539  132.0157 H   0  0  0  0  0  0  0  0  0  0  0  0
  149.9673  156.6939  132.7103 H   0  0  0  0  0  0  0  0  0  0  0  0
  149.2760  159.0877  133.0635 H   0  0  0  0  0  0  0  0  0  0  0  0
  146.9882  160.7577  133.4853 H   0  0  0  0  0  0  0  0  0  0  0  0
  142.0220  160.9310  133.4150 H   0  0  0  0  0  0  0  0  0  0  0  0
  142.5320  159.4330  132.5730 H   0  0  0  0  0  0  0  0  0  0  0  0
  144.3440  154.9879  135.6321 H   0  0  0  0  0  0  0  0  0  0  0  0
  143.6022  154.4722  134.0795 H   0  0  0  0  0  0  0  0  0  0  0  0
  145.1793  155.3320  134.0795 H   0  0  0  0  0  0  0  0  0  0  0  0
  142.9614  156.5154  136.5156 H   0  0  0  0  0  0  0  0  0  0  0  0
  142.6126  158.0515  135.6285 H   0  0  0  0  0  0  0  0  0  0  0  0
  140.2078  157.3524  137.5029 H   0  0  0  0  0  0  0  0  0  0  0  0
  139.2168  158.6912  136.8305 H   0  0  0  0  0  0  0  0  0  0  0  0
  138.5771  157.0127  136.8305 H   0  0  0  0  0  0  0  0  0  0  0  0
  138.4596  158.2768  134.3930 H   0  0  0  0  0  0  0  0  0  0  0  0
  139.5359  156.0398  133.3484 H   0  0  0  0  0  0  0  0  0  0  0  0
  138.6239  157.2452  132.3779 H   0  0  0  0  0  0  0  0  0  0  0  0
  140.4201  157.2658  132.3779 H   0  0  0  0  0  0  0  0  0  0  0  0
  145.7885  155.4621  132.8667 H   0  0  0  0  0  0  0  0  0  0  0  0
  1  2  1  0
  2  3  2  0
  3  4  1  0
  4  5  2  0
  5  6  1  0
  6  7  2  0
  7  8  1  0
  8  9  1  0
  8 10  2  0
  7 11  1  0
 11 12  1  0
 12 13  2  0
 12 14  1  0
 14 15  1  0
 14 16  1  0
 16 17  1  0
 17 18  2  0
 17 19  1  0
 19 20  1  0
 19 21  1  0
 21 22  1  0
 21 23  1  0
 23 24  2  0
 23 25  1  0
 11 26  1  0
 26 27  2  0
 27  2  1  0
 26  5  1  0
  1 28  1  0
  1 29  1  0
  1 30  1  0
  3 31  1  0
  4 32  1  0
  6 33  1  0
  9 34  1  0
  9 35  1  0
 15 36  1  0
 15 37  1  0
 15 38  1  0
 16 39  1  0
 16 40  1  0
 20 41  1  0
 20 42  1  0
 20 43  1  0
 21 44  1  1
 22 45  1  0
 22 46  1  0
 22 47  1  0
 27 48  1  0
M  CHG  1  25  -1
M  END
>  <UniqueID>  (8) 
8

>  <SMILES>  (8) 
Cc1ccc2cc(C(N)=O)n(C(=O)N(C)CC(=O)N(C)[C@H](C)C(=O)[O-])c2c1

>  <Energy>  (8) 
84.29339304789106

>  <Genealogy>  (8) 
Cc1ccc2cc(C(N)=O)n(C(=O)N(C)CC(=O)N(C)C(C)C(=O)[O-])c2c1 (protonated)
Cc1ccc2cc(C(N)=O)n(C(=O)N(C)CC(=O)N(C)[C@H](C)C(=O)[O-])c2c1 (chirality)
Cc1ccc2cc(C(N)=O)n(C(=O)N(C)CC(=O)N(C)[C@H](C)C(=O)[O-])c2c1 (3D coordinates assigned)
Cc1ccc2cc(C(N)=O)n(C(=O)N(C)CC(=O)N(C)[C@H](C)C(=O)[O-])c2c1 (optimized conformer: 84.29339304789106 kcal/mol)

>  <smiles>  (8) 
Cc1ccc2cc(C(N)=O)n(C(=O)N(C)CC(=O)N(C)C(C)C(=O)O)c2c1

>  <score_type>  (8) 
oracle

>  <origin>  (8) 
adg

>  <m_score__min__energy>  (8) 
-7.3700000000000001

>  <m_primary>  (8) 
energy

$$$$
8:0
     RDKit          3D

 45 46  0  0  0  0  0  0  0  0999 V2000
  144.3280  155.9140  134.6790 C   0  0  0  0  0  0  0  0  0  0  0  0
  143.0870  156.5290  134.1900 N   0  0  0  0  0  0  0  0  0  0  0  0
  141.7990  156.0150  134.6690 C   0  0  0  0  0  0  0  0  0  0  0  0
  140.6700  156.8490  134.1230 C   0  0  0  0  0  0  0  0  0  0  0  0
  140.2520  156.6100  132.9950 O   0  0  0  0  0  0  0  0  0  0  0  0
  140.1010  157.9320  134.9060 N   0  0  1  0  0  0  0  0  0  0  0  0
  138.7220  158.1760  134.4560 C   0  0  0  0  0  0  0  0  0  0  0  0
  140.1150  157.6360  136.3560 C   0  0  0  0  0  0  0  0  0  0  0  0
  141.2380  158.3300  137.0610 C   0  0  0  0  0  0  0  0  0  0  0  0
  142.0080  159.1000  136.4320 O   0  0  0  0  0  0  0  0  0  0  0  0
  141.4450  158.1120  138.4220 O   0  0  0  0  0  0  0  0  0  0  0  0
  143.1350  157.4620  133.0900 C   0  0  0  0  0  0  0  0  0  0  0  0
  142.7030  157.1300  131.9550 O   0  0  0  0  0  0  0  0  0  0  0  0
  143.7470  158.7490  133.2420 N   0  0  0  0  0  0  0  0  0  0  0  0
  143.1450  159.9330  133.5280 C   0  0  0  0  0  0  0  0  0  0  0  0
  141.6910  160.1540  133.6050 C   0  0  0  0  0  0  0  0  0  0  0  0
  140.8250  159.4970  132.6850 N   0  0  0  0  0  0  0  0  0  0  0  0
  141.2060  160.9080  134.4880 O   0  0  0  0  0  0  0  0  0  0  0  0
  144.1010  160.9250  133.7420 C   0  0  0  0  0  0  0  0  0  0  0  0
  145.3150  160.3020  133.5690 C   0  0  0  0  0  0  0  0  0  0  0  0
  146.6070  160.8040  133.6780 C   0  0  0  0  0  0  0  0  0  0  0  0
  147.6760  159.9150  133.4830 C   0  0  0  0  0  0  0  0  0  0  0  0
  147.4400  158.5430  133.2010 C   0  0  0  0  0  0  0  0  0  0  0  0
  148.5900  157.6060  132.9380 C   0  0  0  0  0  0  0  0  0  0  0  0
  148.2660  156.7790  131.8750 F   0  0  0  0  0  0  0  0  0  0  0  0
  148.8550  156.8320  134.0550 F   0  0  0  0  0  0  0  0  0  0  0  0
  149.7390  158.3140  132.6240 F   0  0  0  0  0  0  0  0  0  0  0  0
  146.1120  158.0780  133.0780 C   0  0  0  0  0  0  0  0  0  0  0  0
  145.0700  158.9890  133.2700 C   0  0  0  0  0  0  0  0  0  0  0  0
  144.3284  155.9138  135.7790 H   0  0  0  0  0  0  0  0  0  0  0  0
  144.3937  154.8791  134.3121 H   0  0  0  0  0  0  0  0  0  0  0  0
  145.1913  156.4886  134.3121 H   0  0  0  0  0  0  0  0  0  0  0  0
  141.6763  154.9742  134.3349 H   0  0  0  0  0  0  0  0  0  0  0  0
  141.7805  156.0616  135.7679 H   0  0  0  0  0  0  0  0  0  0  0  0
  140.6510  158.8090  134.7400 H   0  0  0  0  0  0  0  0  0  0  0  0
  138.0658  158.2921  135.3312 H   0  0  0  0  0  0  0  0  0  0  0  0
  138.6909  159.0936  133.8501 H   0  0  0  0  0  0  0  0  0  0  0  0
  138.3780  157.3248  133.8501 H   0  0  0  0  0  0  0  0  0  0  0  0
  139.1622  157.9669  136.7949 H   0  0  0  0  0  0  0  0  0  0  0  0
  140.2558  156.5520  136.4793 H   0  0  0  0  0  0  0  0  0  0  0  0
  141.0410  158.5370  132.3330 H   0  0  0  0  0  0  0  0  0  0  0  0
  143.9225  161.9805  133.9951 H   0  0  0  0  0  0  0  0  0  0  0  0
  146.7860  161.8643  133.9097 H   0  0  0  0  0  0  0  0  0  0  0  0
  148.7095  160.2857  133.5495 H   0  0  0  0  0  0  0  0  0  0  0  0
  145.9033  157.0252  132.8371 H   0  0  0  0  0  0  0  0  0  0  0  0
  1  2  1  0
  2  3  1  0
  3  4  1  0
  4  5  2  0
  4  6  1  0
  6  7  1  0
  6  8  1  0
  8  9  1  0
  9 10  2  0
  9 11  1  0
  2 12  1  0
 12 13  2  0
 12 14  1  0
 14 15  1  0
 15 16  1  0
 16 17  1  0
 16 18  2  0
 15 19  2  0
 19 20  1  0
 20 21  2  0
 21 22  1  0
 22 23  2  0
 23 24  1  0
 24 25  1  0
 24 26  1  0
 24 27  1  0
 23 28  1  0
 28 29  2  0
 29 14  1  0
 29 20  1  0
  1 30  1  0
  1 31  1  0
  1 32  1  0
  3 33  1  0
  3 34  1  0
  6 35  1  1
  7 36  1  0
  7 37  1  0
  7 38  1  0
  8 39  1  0
  8 40  1  0
 17 41  1  0
 19 42  1  0
 21 43  1  0
 22 44  1  0
 28 45  1  0
M  CHG  3   6   1  11  -1  17  -1
M  END
>  <UniqueID>  (9) 
9

>  <SMILES>  (9) 
CN(CC(=O)[N@@H+](C)CC(=O)[O-])C(=O)n1c(C([NH-])=O)cc2ccc(C(F)(F)F)cc21

>  <Energy>  (9) 
81.8883126098634

>  <Genealogy>  (9) 
CN(CC(=O)[NH+](C)CC(=O)[O-])C(=O)n1c(C([NH-])=O)cc2ccc(C(F)(F)F)cc21 (protonated)
CN(CC(=O)[N@@H+](C)CC(=O)[O-])C(=O)n1c(C([NH-])=O)cc2ccc(C(F)(F)F)cc21 (chirality)
CN(CC(=O)[N@@H+](C)CC(=O)[O-])C(=O)n1c(C([NH-])=O)cc2ccc(C(F)(F)F)cc21 (3D coordinates assigned)
CN(CC(=O)[N@@H+](C)CC(=O)[O-])C(=O)n1c(C([NH-])=O)cc2ccc(C(F)(F)F)cc21 (optimized conformer: 81.8883126098634 kcal/mol)

>  <smiles>  (9) 
CN(CC(=O)O)C(=O)CN(C)C(=O)n1c(C(N)=O)cc2ccc(C(F)(F)F)cc21

>  <score_type>  (9) 
oracle

>  <origin>  (9) 
adg

>  <m_score__min__energy>  (9) 
-5.9500000000000002

>  <m_primary>  (9) 
energy

$$$$
9:0
     RDKit          3D

 38 39  0  0  0  0  0  0  0  0999 V2000
  141.5760  155.3950  139.0090 C   0  0  0  0  0  0  0  0  0  0  0  0
  141.3360  156.4780  138.0000 C   0  0  0  0  0  0  0  0  0  0  0  0
  141.3600  157.8390  138.3940 C   0  0  0  0  0  0  0  0  0  0  0  0
  141.0960  158.8580  137.4630 C   0  0  0  0  0  0  0  0  0  0  0  0
  140.7930  158.4840  136.1570 C   0  0  0  0  0  0  0  0  0  0  0  0
  140.4890  159.2590  135.0600 C   0  0  0  0  0  0  0  0  0  0  0  0
  140.2560  158.3570  134.0240 C   0  0  0  0  0  0  0  0  0  0  0  0
  139.7870  158.7570  132.6820 C   0  0  0  0  0  0  0  0  0  0  0  0
  138.7690  158.0000  132.0300 N   0  0  0  0  0  0  0  0  0  0  0  0
  140.3020  159.7400  132.0870 O   0  0  0  0  0  0  0  0  0  0  0  0
  140.4260  157.0760  134.4590 N   0  0  0  0  0  0  0  0  0  0  0  0
  140.3640  155.8630  133.6900 C   0  0  0  0  0  0  0  0  0  0  0  0
  139.2440  155.4020  133.3400 O   0  0  0  0  0  0  0  0  0  0  0  0
  141.6120  155.0940  133.3690 C   0  0  0  0  0  0  0  0  0  0  0  0
  141.4030  153.6290  133.5880 C   0  0  0  0  0  0  0  0  0  0  0  0
  140.7420  152.9600  132.7490 O   0  0  0  0  0  0  0  0  0  0  0  0
  141.9960  152.9880  134.7240 N   0  0  0  0  0  0  0  0  0  0  0  0
  141.3840  151.8680  135.4340 C   0  0  0  0  0  0  0  0  0  0  0  0
  141.3570  152.1100  136.9470 C   0  0  0  0  0  0  0  0  0  0  0  0
  140.5820  151.0450  137.6590 C   0  0  0  0  0  0  0  0  0  0  0  0
  140.1820  150.0280  137.0350 O   0  0  0  0  0  0  0  0  0  0  0  0
  140.2960  151.1810  139.0120 O   0  0  0  0  0  0  0  0  0  0  0  0
  140.7460  157.1710  135.7670 C   0  0  0  0  0  0  0  0  0  0  0  0
  141.0210  156.1380  136.6670 C   0  0  0  0  0  0  0  0  0  0  0  0
  141.4837  155.8115  140.0229 H   0  0  0  0  0  0  0  0  0  0  0  0
  140.8333  154.5952  138.8721 H   0  0  0  0  0  0  0  0  0  0  0  0
  142.5871  154.9839  138.8721 H   0  0  0  0  0  0  0  0  0  0  0  0
  141.5874  158.1002  139.4381 H   0  0  0  0  0  0  0  0  0  0  0  0
  141.1278  159.9175  137.7570 H   0  0  0  0  0  0  0  0  0  0  0  0
  140.4404  160.3569  135.0119 H   0  0  0  0  0  0  0  0  0  0  0  0
  138.3490  157.1600  132.4870 H   0  0  0  0  0  0  0  0  0  0  0  0
  141.8816  155.2667  132.3166 H   0  0  0  0  0  0  0  0  0  0  0  0
  142.4193  155.4385  134.0320 H   0  0  0  0  0  0  0  0  0  0  0  0
  140.3527  151.7374  135.0744 H   0  0  0  0  0  0  0  0  0  0  0  0
  141.9836  150.9666  135.2392 H   0  0  0  0  0  0  0  0  0  0  0  0
  142.3894  152.1152  137.3267 H   0  0  0  0  0  0  0  0  0  0  0  0
  140.8666  153.0768  137.1333 H   0  0  0  0  0  0  0  0  0  0  0  0
  140.9927  155.0867  136.3447 H   0  0  0  0  0  0  0  0  0  0  0  0
  1  2  1  0
  2  3  2  0
  3  4  1  0
  4  5  2  0
  5  6  1  0
  6  7  2  0
  7  8  1  0
  8  9  1  0
  8 10  2  0
  7 11  1  0
 11 12  1  0
 12 13  2  0
 12 14  1  0
 14 15  1  0
 15 16  2  0
 15 17  1  0
 17 18  1  0
 18 19  1  0
 19 20  1  0
 20 21  2  0
 20 22  1  0
 11 23  1  0
 23 24  2  0
 24  2  1  0
 23  5  1  0
  1 25  1  0
  1 26  1  0
  1 27  1  0
  3 28  1  0
  4 29  1  0
  6 30  1  0
  9 31  1  0
 14 32  1  0
 14 33  1  0
 18 34  1  0
 18 35  1  0
 19 36  1  0
 19 37  1  0
 24 38  1  0
M  CHG  3   9  -1  17  -1  22  -1
M  END
>  <UniqueID>  (10) 
10

>  <SMILES>  (10) 
Cc1ccc2cc(C([NH-])=O)n(C(=O)CC(=O)[N-]CCC(=O)[O-])c2c1

>  <Energy>  (10) 
68.96873673666225

>  <Genealogy>  (10) 
Cc1ccc2cc(C([NH-])=O)n(C(=O)CC(=O)[N-]CCC(=O)[O-])c2c1 (protonated)
Cc1ccc2cc(C([NH-])=O)n(C(=O)CC(=O)[N-]CCC(=O)[O-])c2c1 (3D coordinates assigned)
Cc1ccc2cc(C([NH-])=O)n(C(=O)CC(=O)[N-]CCC(=O)[O-])c2c1 (optimized conformer: 68.96873673666225 kcal/mol)

>  <smiles>  (10) 
Cc1ccc2cc(C(N)=O)n(C(=O)CC(=O)NCCC(=O)O)c2c1

>  <score_type>  (10) 
oracle

>  <origin>  (10) 
adg

>  <m_score__min__energy>  (10) 
-7.1600000000000001

>  <m_primary>  (10) 
energy

$$$$
10:0
     RDKit          3D

 43 44  0  0  0  0  0  0  0  0999 V2000
  141.4180  156.2830  139.3730 C   0  0  0  0  0  0  0  0  0  0  0  0
  141.4490  157.4310  138.4820 N   0  0  0  0  0  0  0  0  0  0  0  0
  140.7340  157.4670  137.2430 C   0  0  0  0  0  0  0  0  0  0  0  0
  139.8580  158.3500  137.0370 O   0  0  0  0  0  0  0  0  0  0  0  0
  140.9970  156.4210  136.2030 C   0  0  0  0  0  0  0  0  0  0  0  0
  141.3520  157.0340  134.9020 N   0  0  0  0  0  0  0  0  0  0  0  0
  140.5490  156.4590  133.7910 C   0  0  0  0  0  0  0  0  0  0  0  0
  139.4150  157.3740  133.4430 C   0  0  0  0  0  0  0  0  0  0  0  0
  139.0820  158.2560  134.2180 O   0  0  0  0  0  0  0  0  0  0  0  0
  142.7990  156.8660  134.6460 C   0  0  0  0  0  0  0  0  0  0  0  0
  143.2020  157.6420  133.4260 C   0  0  0  0  0  0  0  0  0  0  0  0
  142.8940  157.2060  132.2850 O   0  0  0  0  0  0  0  0  0  0  0  0
  143.9550  158.8600  133.5440 N   0  0  0  0  0  0  0  0  0  0  0  0
  143.4890  160.0970  133.8790 C   0  0  0  0  0  0  0  0  0  0  0  0
  142.0770  160.4510  134.1350 C   0  0  0  0  0  0  0  0  0  0  0  0
  141.4140  159.9360  135.2880 N   0  0  0  0  0  0  0  0  0  0  0  0
  141.4500  161.2160  133.3560 O   0  0  0  0  0  0  0  0  0  0  0  0
  144.5330  161.0200  133.9010 C   0  0  0  0  0  0  0  0  0  0  0  0
  145.6620  160.3030  133.5740 C   0  0  0  0  0  0  0  0  0  0  0  0
  146.9860  160.7190  133.4580 C   0  0  0  0  0  0  0  0  0  0  0  0
  147.9520  159.7530  133.1300 C   0  0  0  0  0  0  0  0  0  0  0  0
  147.5850  158.3970  132.9490 C   0  0  0  0  0  0  0  0  0  0  0  0
  148.6220  157.3800  132.5750 C   0  0  0  0  0  0  0  0  0  0  0  0
  146.2300  158.0140  133.0610 C   0  0  0  0  0  0  0  0  0  0  0  0
  145.2870  159.0020  133.3660 C   0  0  0  0  0  0  0  0  0  0  0  0
  141.4273  156.6289  140.4172 H   0  0  0  0  0  0  0  0  0  0  0  0
  140.5038  155.6999  139.1881 H   0  0  0  0  0  0  0  0  0  0  0  0
  142.2994  155.6514  139.1881 H   0  0  0  0  0  0  0  0  0  0  0  0
  141.8287  155.7837  136.5379 H   0  0  0  0  0  0  0  0  0  0  0  0
  140.0813  155.8264  136.0687 H   0  0  0  0  0  0  0  0  0  0  0  0
  141.1924  156.3264  132.9087 H   0  0  0  0  0  0  0  0  0  0  0  0
  140.1414  155.4880  134.1087 H   0  0  0  0  0  0  0  0  0  0  0  0
  138.8822  157.2508  132.4885 H   0  0  0  0  0  0  0  0  0  0  0  0
  143.3667  157.2325  135.5140 H   0  0  0  0  0  0  0  0  0  0  0  0
  143.0133  155.7998  134.4808 H   0  0  0  0  0  0  0  0  0  0  0  0
  140.7980  159.0950  135.2210 H   0  0  0  0  0  0  0  0  0  0  0  0
  144.4687  162.0938  134.1309 H   0  0  0  0  0  0  0  0  0  0  0  0
  147.2665  161.7705  133.6181 H   0  0  0  0  0  0  0  0  0  0  0  0
  149.0038  160.0528  133.0126 H   0  0  0  0  0  0  0  0  0  0  0  0
  149.0601  156.9503  133.4879 H   0  0  0  0  0  0  0  0  0  0  0  0
  148.1543  156.5807  131.9814 H   0  0  0  0  0  0  0  0  0  0  0  0
  149.4121  157.8632  131.9814 H   0  0  0  0  0  0  0  0  0  0  0  0
  145.9244  156.9678  132.9126 H   0  0  0  0  0  0  0  0  0  0  0  0
  1  2  1  0
  2  3  1  0
  3  4  2  0
  3  5  1  0
  5  6  1  0
  6  7  1  0
  7  8  1  0
  8  9  2  0
  6 10  1  0
 10 11  1  0
 11 12  2  0
 11 13  1  0
 13 14  1  0
 14 15  1  0
 15 16  1  0
 15 17  2  0
 14 18  2  0
 18 19  1  0
 19 20  2  0
 20 21  1  0
 21 22  2  0
 22 23  1  0
 22 24  1  0
 24 25  2  0
 25 13  1  0
 25 19  1  0
  1 26  1  0
  1 27  1  0
  1 28  1  0
  5 29  1  0
  5 30  1  0
  7 31  1  0
  7 32  1  0
  8 33  1  0
 10 34  1  0
 10 35  1  0
 16 36  1  0
 18 37  1  0
 20 38  1  0
 21 39  1  0
 23 40  1  0
 23 41  1  0
 23 42  1  0
 24 43  1  0
M  CHG  2   2  -1  16  -1
M  END
>  <UniqueID>  (11) 
11

>  <SMILES>  (11) 
C[N-]C(=O)CN(CC=O)CC(=O)n1c(C([NH-])=O)cc2ccc(C)cc21

>  <Energy>  (11) 
78.35658047106575

>  <Genealogy>  (11) 
C[N-]C(=O)CN(CC=O)CC(=O)n1c(C([NH-])=O)cc2ccc(C)cc21 (protonated)
C[N-]C(=O)CN(CC=O)CC(=O)n1c(C([NH-])=O)cc2ccc(C)cc21 (3D coordinates assigned)
C[N-]C(=O)CN(CC=O)CC(=O)n1c(C([NH-])=O)cc2ccc(C)cc21 (optimized conformer: 78.35658047106575 kcal/mol)

>  <smiles>  (11) 
CNC(=O)CN(CC=O)CC(=O)n1c(C(N)=O)cc2ccc(C)cc21

>  <score_type>  (11) 
oracle

>  <origin>  (11) 
adg

>  <m_score__min__energy>  (11) 
-6.6699999999999999

>  <m_primary>  (11) 
energy

$$$$
11:0
     RDKit          3D

 46 48  0  0  0  0  0  0  0  0999 V2000
  141.2530  160.3650  134.4880 N   0  0  0  0  0  0  0  0  0  0  0  0
  141.8930  159.7830  133.3560 C   0  0  0  0  0  0  0  0  0  0  0  0
  141.3310  159.8160  132.2310 O   0  0  0  0  0  0  0  0  0  0  0  0
  143.1670  159.0800  133.5190 C   0  0  0  0  0  0  0  0  0  0  0  0
  144.3970  159.7070  133.3630 C   0  0  0  0  0  0  0  0  0  0  0  0
  145.3300  158.7110  133.5310 C   0  0  0  0  0  0  0  0  0  0  0  0
  146.7180  158.7770  133.4830 C   0  0  0  0  0  0  0  0  0  0  0  0
  147.4420  157.5910  133.6960 C   0  0  0  0  0  0  0  0  0  0  0  0
  146.7750  156.3690  133.9430 C   0  0  0  0  0  0  0  0  0  0  0  0
  147.5830  155.1240  134.2350 C   0  0  0  0  0  0  0  0  0  0  0  0
  146.7710  154.0130  134.1080 F   0  0  0  0  0  0  0  0  0  0  0  0
  148.0830  155.1720  135.5230 F   0  0  0  0  0  0  0  0  0  0  0  0
  148.6510  155.0010  133.3640 F   0  0  0  0  0  0  0  0  0  0  0  0
  145.3620  156.3450  133.9990 C   0  0  0  0  0  0  0  0  0  0  0  0
  144.6580  157.5370  133.7720 C   0  0  0  0  0  0  0  0  0  0  0  0
  143.3170  157.7510  133.7650 N   0  0  0  0  0  0  0  0  0  0  0  0
  142.2710  156.7610  133.8990 C   0  0  0  0  0  0  0  0  0  0  0  0
  142.0800  155.9050  132.9920 O   0  0  0  0  0  0  0  0  0  0  0  0
  141.4350  156.7180  135.0700 N   0  0  0  0  0  0  0  0  0  0  0  0
  142.0890  156.7110  136.3850 C   0  0  0  0  0  0  0  0  0  0  0  0
  141.3300  157.6270  137.3550 C   0  0  0  0  0  0  0  0  0  0  0  0
  140.7600  158.7130  136.6550 O   0  0  0  0  0  0  0  0  0  0  0  0
  139.6670  158.2750  135.8550 C   0  0  0  0  0  0  0  0  0  0  0  0
  139.9880  157.0060  135.0160 C   0  0  1  0  0  0  0  0  0  0  0  0
  139.4630  157.1040  133.5990 C   0  0  0  0  0  0  0  0  0  0  0  0
  139.1360  156.0600  132.9790 O   0  0  0  0  0  0  0  0  0  0  0  0
  139.2650  158.3870  132.9890 N   0  0  0  0  0  0  0  0  0  0  0  0
  138.5030  158.5300  131.7480 C   0  0  0  0  0  0  0  0  0  0  0  0
  138.2660  159.9740  131.4440 C   0  0  0  0  0  0  0  0  0  0  0  0
  138.8360  160.8630  132.1270 O   0  0  0  0  0  0  0  0  0  0  0  0
  137.4180  160.3430  130.4080 O   0  0  0  0  0  0  0  0  0  0  0  0
  141.6580  160.2560  135.4460 H   0  0  0  0  0  0  0  0  0  0  0  0
  144.5840  160.7701  133.1510 H   0  0  0  0  0  0  0  0  0  0  0  0
  147.2338  159.7281  133.2844 H   0  0  0  0  0  0  0  0  0  0  0  0
  148.5415  157.6139  133.6702 H   0  0  0  0  0  0  0  0  0  0  0  0
  144.8254  155.4097  134.2163 H   0  0  0  0  0  0  0  0  0  0  0  0
  142.0959  155.6854  136.7827 H   0  0  0  0  0  0  0  0  0  0  0  0
  143.1208  157.0766  136.2765 H   0  0  0  0  0  0  0  0  0  0  0  0
  140.5314  157.0527  137.8474 H   0  0  0  0  0  0  0  0  0  0  0  0
  142.0328  158.0141  138.1074 H   0  0  0  0  0  0  0  0  0  0  0  0
  138.8179  158.0501  136.5171 H   0  0  0  0  0  0  0  0  0  0  0  0
  139.4373  159.0843  135.1463 H   0  0  0  0  0  0  0  0  0  0  0  0
  139.4569  156.1528  135.4633 H   0  0  0  0  0  0  0  0  0  0  0  0
  139.6530  159.2310  133.4590 H   0  0  0  0  0  0  0  0  0  0  0  0
  139.0678  158.0738  130.9216 H   0  0  0  0  0  0  0  0  0  0  0  0
  137.5320  158.0268  131.8662 H   0  0  0  0  0  0  0  0  0  0  0  0
  1  2  1  0
  2  3  2  0
  2  4  1  0
  4  5  2  0
  5  6  1  0
  6  7  2  0
  7  8  1  0
  8  9  2  0
  9 10  1  0
 10 11  1  0
 10 12  1  0
 10 13  1  0
  9 14  1  0
 14 15  2  0
 15 16  1  0
 16 17  1  0
 17 18  2  0
 17 19  1  0
 19 20  1  0
 20 21  1  0
 21 22  1  0
 22 23  1  0
 23 24  1  0
 24 25  1  0
 25 26  2  0
 25 27  1  0
 27 28  1  0
 28 29  1  0
 29 30  2  0
 29 31  1  0
 16  4  1  0
 24 19  1  0
 15  6  1  0
  1 32  1  0
  5 33  1  0
  7 34  1  0
  8 35  1  0
 14 36  1  0
 20 37  1  0
 20 38  1  0
 21 39  1  0
 21 40  1  0
 23 41  1  0
 23 42  1  0
 24 43  1  1
 27 44  1  0
 28 45  1  0
 28 46  1  0
M  CHG  2   1  -1  31  -1
M  END
>  <UniqueID>  (12) 
12

>  <SMILES>  (12) 
[NH-]C(=O)c1cc2ccc(C(F)(F)F)cc2n1C(=O)N1CCOC[C@H]1C(=O)NCC(=O)[O-]

>  <Energy>  (12) 
103.96572674473461

>  <Genealogy>  (12) 
[NH-]C(=O)c1cc2ccc(C(F)(F)F)cc2n1C(=O)N1CCOCC1C(=O)NCC(=O)[O-] (protonated)
[NH-]C(=O)c1cc2ccc(C(F)(F)F)cc2n1C(=O)N1CCOC[C@H]1C(=O)NCC(=O)[O-] (chirality)
[NH-]C(=O)c1cc2ccc(C(F)(F)F)cc2n1C(=O)N1CCOC[C@H]1C(=O)NCC(=O)[O-] (3D coordinates assigned)
[NH-]C(=O)c1cc2ccc(C(F)(F)F)cc2n1C(=O)N1CCOC[C@H]1C(=O)NCC(=O)[O-] (nonaromatic ring conformer: 103.96572674473461 kcal/mol)

>  <smiles>  (12) 
NC(=O)c1cc2ccc(C(F)(F)F)cc2n1C(=O)N1CCOCC1C(=O)NCC(=O)O

>  <score_type>  (12) 
oracle

>  <origin>  (12) 
adg

>  <m_score__min__energy>  (12) 
-7.2699999999999996

>  <m_primary>  (12) 
energy

$$$$
12:0
     RDKit          3D

 48 49  0  0  0  0  0  0  0  0999 V2000
  140.5650  150.4240  138.1070 C   0  0  0  0  0  0  0  0  0  0  0  0
  140.7040  151.7750  138.7440 C   0  0  0  0  0  0  0  0  0  0  0  0
  140.6100  151.9110  140.1520 C   0  0  0  0  0  0  0  0  0  0  0  0
  140.7640  153.1690  140.7610 C   0  0  0  0  0  0  0  0  0  0  0  0
  141.0300  154.2620  139.9410 C   0  0  0  0  0  0  0  0  0  0  0  0
  141.2020  155.5900  140.2590 C   0  0  0  0  0  0  0  0  0  0  0  0
  141.4290  156.2340  139.0430 C   0  0  0  0  0  0  0  0  0  0  0  0
  141.7290  157.6750  138.9170 C   0  0  0  0  0  0  0  0  0  0  0  0
  141.1430  158.4350  137.8620 N   0  0  0  0  0  0  0  0  0  0  0  0
  142.4840  158.2490  139.7460 O   0  0  0  0  0  0  0  0  0  0  0  0
  141.3950  155.3380  138.0180 N   0  0  0  0  0  0  0  0  0  0  0  0
  141.5070  155.6000  136.6110 C   0  0  0  0  0  0  0  0  0  0  0  0
  140.8100  156.5080  136.0870 O   0  0  0  0  0  0  0  0  0  0  0  0
  142.5200  154.8710  135.7780 C   0  0  0  0  0  0  0  0  0  0  0  0
  141.8790  154.1710  134.7300 O   0  0  0  0  0  0  0  0  0  0  0  0
  141.4440  155.0550  133.7110 C   0  0  0  0  0  0  0  0  0  0  0  0
  140.2200  154.4840  132.9920 C   0  0  0  0  0  0  0  0  0  0  0  0
  139.0770  155.3140  133.1930 O   0  0  0  0  0  0  0  0  0  0  0  0
  139.1470  156.7020  133.3410 C   0  0  0  0  0  0  0  0  0  0  0  0
  139.0190  157.2330  134.4800 O   0  0  0  0  0  0  0  0  0  0  0  0
  139.3780  157.4920  132.2110 O   0  0  0  0  0  0  0  0  0  0  0  0
  140.2210  158.6410  132.2140 C   0  0  0  0  0  0  0  0  0  0  0  0
  141.4900  158.3700  133.0230 C   0  0  0  0  0  0  0  0  0  0  0  0
  141.5920  159.4860  134.4580 P   0  0  1  0  0  0  0  0  0  0  0  0
  142.8180  159.1550  135.2780 O   0  0  0  0  0  0  0  0  0  0  0  0
  141.7010  161.0840  133.9140 O   0  0  0  0  0  0  0  0  0  0  0  0
  140.2100  159.3130  135.4180 O   0  0  0  0  0  0  0  0  0  0  0  0
  141.1520  154.1380  138.5820 C   0  0  0  0  0  0  0  0  0  0  0  0
  140.9900  152.9040  137.9450 C   0  0  0  0  0  0  0  0  0  0  0  0
  140.4860  149.6557  138.8902 H   0  0  0  0  0  0  0  0  0  0  0  0
  139.6601  150.4047  137.4818 H   0  0  0  0  0  0  0  0  0  0  0  0
  141.4470  150.2209  137.4818 H   0  0  0  0  0  0  0  0  0  0  0  0
  140.4149  151.0246  140.7735 H   0  0  0  0  0  0  0  0  0  0  0  0
  140.6770  153.2858  141.8513 H   0  0  0  0  0  0  0  0  0  0  0  0
  141.1677  156.0463  141.2593 H   0  0  0  0  0  0  0  0  0  0  0  0
  141.5190  158.3790  136.8890 H   0  0  0  0  0  0  0  0  0  0  0  0
  143.2282  155.5960  135.3505 H   0  0  0  0  0  0  0  0  0  0  0  0
  143.0565  154.1516  136.4141 H   0  0  0  0  0  0  0  0  0  0  0  0
  141.1804  156.0237  134.1605 H   0  0  0  0  0  0  0  0  0  0  0  0
  142.2569  155.1839  132.9813 H   0  0  0  0  0  0  0  0  0  0  0  0
  140.4330  154.4194  131.9148 H   0  0  0  0  0  0  0  0  0  0  0  0
  140.0057  153.4862  133.4024 H   0  0  0  0  0  0  0  0  0  0  0  0
  140.4975  158.8902  131.1789 H   0  0  0  0  0  0  0  0  0  0  0  0
  139.6780  159.4803  132.6731 H   0  0  0  0  0  0  0  0  0  0  0  0
  141.4770  157.3284  133.3763 H   0  0  0  0  0  0  0  0  0  0  0  0
  142.3637  158.5443  132.3777 H   0  0  0  0  0  0  0  0  0  0  0  0
  140.3010  158.4180  135.8320 H   0  0  0  0  0  0  0  0  0  0  0  0
  141.0827  152.8150  136.8525 H   0  0  0  0  0  0  0  0  0  0  0  0
  1  2  1  0
  2  3  2  0
  3  4  1  0
  4  5  2  0
  5  6  1  0
  6  7  2  0
  7  8  1  0
  8  9  1  0
  8 10  2  0
  7 11  1  0
 11 12  1  0
 12 13  2  0
 12 14  1  0
 14 15  1  0
 15 16  1  0
 16 17  1  0
 17 18  1  0
 18 19  1  0
 19 20  2  0
 19 21  1  0
 21 22  1  0
 22 23  1  0
 23 24  1  0
 24 25  2  0
 24 26  1  6
 24 27  1  0
 11 28  1  0
 28 29  2  0
 29  2  1  0
 28  5  1  0
  1 30  1  0
  1 31  1  0
  1 32  1  0
  3 33  1  0
  4 34  1  0
  6 35  1  0
  9 36  1  0
 14 37  1  0
 14 38  1  0
 16 39  1  0
 16 40  1  0
 17 41  1  0
 17 42  1  0
 22 43  1  0
 22 44  1  0
 23 45  1  0
 23 46  1  0
 27 47  1  0
 29 48  1  0
M  CHG  2   9  -1  26  -1
M  END
>  <UniqueID>  (13) 
13

>  <SMILES>  (13) 
Cc1ccc2cc(C([NH-])=O)n(C(=O)COCCOC(=O)OCC[P@@](=O)([O-])O)c2c1

>  <Energy>  (13) 
76.61880687661862

>  <Genealogy>  (13) 
Cc1ccc2cc(C([NH-])=O)n(C(=O)COCCOC(=O)OCCP(=O)([O-])O)c2c1 (protonated)
Cc1ccc2cc(C([NH-])=O)n(C(=O)COCCOC(=O)OCC[P@@](=O)([O-])O)c2c1 (chirality)
Cc1ccc2cc(C([NH-])=O)n(C(=O)COCCOC(=O)OCC[P@@](=O)([O-])O)c2c1 (3D coordinates assigned)
Cc1ccc2cc(C([NH-])=O)n(C(=O)COCCOC(=O)OCC[P@@](=O)([O-])O)c2c1 (optimized conformer: 76.61880687661862 kcal/mol)

>  <smiles>  (13) 
Cc1ccc2cc(C(N)=O)n(C(=O)COCCOC(=O)OCCP(=O)(O)O)c2c1

>  <score_type>  (13) 
oracle

>  <origin>  (13) 
adg

>  <m_score__min__energy>  (13) 
-5.5300000000000002

>  <m_primary>  (13) 
energy

$$$$
13:0
     RDKit          3D

 31 32  0  0  0  0  0  0  0  0999 V2000
  142.6780  157.2270  132.3300 N   0  0  0  0  0  0  0  0  0  0  0  0
  143.4890  156.2450  132.9800 C   0  0  0  0  0  0  0  0  0  0  0  0
  144.5240  156.6200  133.5910 O   0  0  0  0  0  0  0  0  0  0  0  0
  143.1320  154.8070  132.9310 C   0  0  0  0  0  0  0  0  0  0  0  0
  144.0450  153.7750  132.7160 C   0  0  0  0  0  0  0  0  0  0  0  0
  143.3080  152.6140  132.7760 C   0  0  0  0  0  0  0  0  0  0  0  0
  143.7060  151.2900  132.6130 C   0  0  0  0  0  0  0  0  0  0  0  0
  142.7190  150.2920  132.6910 C   0  0  0  0  0  0  0  0  0  0  0  0
  141.3610  150.6350  132.9060 C   0  0  0  0  0  0  0  0  0  0  0  0
  140.3190  149.5590  133.0050 C   0  0  0  0  0  0  0  0  0  0  0  0
  139.5970  149.2740  131.4030 Cl  0  0  0  0  0  0  0  0  0  0  0  0
  140.9970  151.9880  133.0770 C   0  0  0  0  0  0  0  0  0  0  0  0
  142.0050  152.9580  133.0210 C   0  0  0  0  0  0  0  0  0  0  0  0
  141.8830  154.2980  133.1320 N   0  0  0  0  0  0  0  0  0  0  0  0
  140.6670  155.0280  133.3570 C   0  0  0  0  0  0  0  0  0  0  0  0
  139.6540  154.7900  132.6450 O   0  0  0  0  0  0  0  0  0  0  0  0
  140.6050  156.1130  134.3900 C   0  0  0  0  0  0  0  0  0  0  0  0
  140.0490  157.6680  133.6320 P   0  0  0  0  0  0  0  0  0  0  0  0
  139.6540  157.4100  132.1960 O   0  0  0  0  0  0  0  0  0  0  0  0
  138.7140  158.2660  134.4800 O   0  0  0  0  0  0  0  0  0  0  0  0
  141.3000  158.8040  133.6730 O   0  0  0  0  0  0  0  0  0  0  0  0
  141.7750  156.9770  131.8720 H   0  0  0  0  0  0  0  0  0  0  0  0
  142.9640  158.2320  132.3440 H   0  0  0  0  0  0  0  0  0  0  0  0
  145.1262  153.8690  132.5364 H   0  0  0  0  0  0  0  0  0  0  0  0
  144.7596  151.0328  132.4290 H   0  0  0  0  0  0  0  0  0  0  0  0
  143.0035  149.2348  132.5841 H   0  0  0  0  0  0  0  0  0  0  0  0
  140.7853  148.6306  133.3664 H   0  0  0  0  0  0  0  0  0  0  0  0
  139.5339  149.8756  133.7074 H   0  0  0  0  0  0  0  0  0  0  0  0
  139.9487  152.2729  133.2497 H   0  0  0  0  0  0  0  0  0  0  0  0
  139.8989  155.8215  135.1815 H   0  0  0  0  0  0  0  0  0  0  0  0
  141.6078  156.2600  134.8176 H   0  0  0  0  0  0  0  0  0  0  0  0
  1  2  1  0
  2  3  2  0
  2  4  1  0
  4  5  2  0
  5  6  1  0
  6  7  2  0
  7  8  1  0
  8  9  2  0
  9 10  1  0
 10 11  1  0
  9 12  1  0
 12 13  2  0
 13 14  1  0
 14 15  1  0
 15 16  2  0
 15 17  1  0
 17 18  1  0
 18 19  2  0
 18 20  1  0
 18 21  1  0
 14  4  1  0
 13  6  1  0
  1 22  1  0
  1 23  1  0
  5 24  1  0
  7 25  1  0
  8 26  1  0
 10 27  1  0
 10 28  1  0
 12 29  1  0
 17 30  1  0
 17 31  1  0
M  CHG  2  20  -1  21  -1
M  END
>  <UniqueID>  (14) 
14

>  <SMILES>  (14) 
NC(=O)c1cc2ccc(CCl)cc2n1C(=O)CP(=O)([O-])[O-]

>  <Energy>  (14) 
64.41137701737493

>  <Genealogy>  (14) 
NC(=O)c1cc2ccc(CCl)cc2n1C(=O)CP(=O)([O-])[O-] (protonated)
NC(=O)c1cc2ccc(CCl)cc2n1C(=O)CP(=O)([O-])[O-] (3D coordinates assigned)
NC(=O)c1cc2ccc(CCl)cc2n1C(=O)CP(=O)([O-])[O-] (optimized conformer: 64.41137701737493 kcal/mol)

>  <smiles>  (14) 
NC(=O)c1cc2ccc(CCl)cc2n1C(=O)CP(=O)(O)O

>  <score_type>  (14) 
oracle

>  <origin>  (14) 
adg

>  <m_score__min__energy>  (14) 
-6.2999999999999998

>  <m_primary>  (14) 
energy

$$$$
14:0
     RDKit          3D

 38 40  0  0  0  0  0  0  0  0999 V2000
  148.6750  156.7270  131.7640 H   0  0  0  0  0  0  0  0  0  0  0  0
  149.2880  157.4190  132.2460 N   0  0  0  0  0  0  0  0  0  0  0  0
  148.8250  158.7380  132.5270 C   0  0  0  0  0  0  0  0  0  0  0  0
  149.5920  159.7160  132.3260 O   0  0  0  0  0  0  0  0  0  0  0  0
  147.4440  158.9760  132.9970 C   0  0  0  0  0  0  0  0  0  0  0  0
  146.8740  160.2440  133.0890 C   0  0  0  0  0  0  0  0  0  0  0  0
  147.3621  161.2100  132.8928 H   0  0  0  0  0  0  0  0  0  0  0  0
  145.5720  160.0320  133.4770 C   0  0  0  0  0  0  0  0  0  0  0  0
  144.5510  160.9460  133.7260 C   0  0  0  0  0  0  0  0  0  0  0  0
  144.7139  162.0267  133.6010 H   0  0  0  0  0  0  0  0  0  0  0  0
  143.3060  160.4440  134.1420 C   0  0  0  0  0  0  0  0  0  0  0  0
  142.4759  161.1394  134.3352 H   0  0  0  0  0  0  0  0  0  0  0  0
  143.1090  159.0530  134.3150 C   0  0  0  0  0  0  0  0  0  0  0  0
  141.8270  158.5580  134.7390 N   0  0  0  0  0  0  0  0  0  0  0  0
  141.3300  158.6100  136.0660 C   0  0  0  0  0  0  0  0  0  0  0  0
  142.0290  158.9690  137.0510 O   0  0  0  0  0  0  0  0  0  0  0  0
  139.8900  158.2410  136.1710 C   0  0  0  0  0  0  0  0  0  0  0  0
  139.3030  159.0694  136.5944 H   0  0  0  0  0  0  0  0  0  0  0  0
  139.7186  157.3800  136.8339 H   0  0  0  0  0  0  0  0  0  0  0  0
  139.4750  157.9630  134.7140 C   0  0  0  0  0  0  0  0  0  0  0  0
  138.6973  158.6701  134.3897 H   0  0  0  0  0  0  0  0  0  0  0  0
  139.0515  156.9561  134.5849 H   0  0  0  0  0  0  0  0  0  0  0  0
  140.7310  158.1580  133.9220 C   0  0  0  0  0  0  0  0  0  0  0  0
  140.8250  157.8890  132.6190 C   0  0  0  0  0  0  0  0  0  0  0  0
  141.7758  158.0529  132.0908 H   0  0  0  0  0  0  0  0  0  0  0  0
  139.9517  157.5033  132.0726 H   0  0  0  0  0  0  0  0  0  0  0  0
  144.1650  158.1550  134.0450 C   0  0  0  0  0  0  0  0  0  0  0  0
  144.0289  157.0706  134.1700 H   0  0  0  0  0  0  0  0  0  0  0  0
  145.3900  158.6800  133.6140 C   0  0  0  0  0  0  0  0  0  0  0  0
  146.5310  158.0170  133.3240 N   0  0  0  0  0  0  0  0  0  0  0  0
  146.7440  156.6000  133.4330 C   0  0  0  0  0  0  0  0  0  0  0  0
  146.7810  155.8900  132.3900 O   0  0  0  0  0  0  0  0  0  0  0  0
  146.9330  156.0060  134.7240 N   0  0  0  0  0  0  0  0  0  0  0  0
  147.3790  154.8030  134.9120 C   0  0  0  0  0  0  0  0  0  0  0  0
  147.6316  154.1714  134.0476 H   0  0  0  0  0  0  0  0  0  0  0  0
  147.5480  154.2810  136.2710 C   0  0  0  0  0  0  0  0  0  0  0  0
  146.8420  153.3240  136.6820 O   0  0  0  0  0  0  0  0  0  0  0  0
  148.4950  154.8480  137.1140 O   0  0  0  0  0  0  0  0  0  0  0  0
  1  2  1  0
  2  3  1  0
  3  4  2  0
  3  5  1  0
  5  6  2  0
  6  7  1  0
  6  8  1  0
  8  9  2  0
  9 10  1  0
  9 11  1  0
 11 12  1  0
 11 13  2  0
 13 14  1  0
 14 15  1  0
 15 16  2  0
 15 17  1  0
 17 18  1  0
 17 19  1  0
 17 20  1  0
 20 21  1  0
 20 22  1  0
 20 23  1  0
 23 24  2  0
 24 25  1  0
 24 26  1  0
 13 27  1  0
 27 28  1  0
 27 29  2  0
 29 30  1  0
 30 31  1  0
 31 32  2  0
 31 33  1  0
 33 34  2  0
 34 35  1  0
 34 36  1  0
 36 37  2  0
 36 38  1  0
 30  5  1  0
 29  8  1  0
 23 14  1  0
M  CHG  2   2  -1  38  -1
M  END
>  <UniqueID>  (15) 
15

>  <SMILES>  (15) 
C=C1CCC(=O)N1c1ccc2cc(C([NH-])=O)n(C(=O)/N=C/C(=O)[O-])c2c1

>  <Energy>  (15) 
93.44315790447055

>  <Genealogy>  (15) 
C=C1CCC(=O)N1c1ccc2cc(C([NH-])=O)n(C(=O)/N=C/C(=O)[O-])c2c1 (protonated)
C=C1CCC(=O)N1c1ccc2cc(C([NH-])=O)n(C(=O)/N=C/C(=O)[O-])c2c1 (cis-trans isomerization)
C=C1CCC(=O)N1c1ccc2cc(C([NH-])=O)n(C(=O)/N=C/C(=O)[O-])c2c1 (3D coordinates assigned)
C=C1CCC(=O)N1c1ccc2cc(C([NH-])=O)n(C(=O)/N=C/C(=O)[O-])c2c1 (nonaromatic ring conformer: 93.44315790447055 kcal/mol)

>  <smiles>  (15) 
C=C1CCC(=O)N1c1ccc2cc(C(N)=O)n(C(=O)/N=C/C(=O)O)c2c1

>  <score_type>  (15) 
oracle

>  <origin>  (15) 
adg

>  <m_score__min__energy>  (15) 
-8.3699999999999992

>  <m_primary>  (15) 
energy

$$$$
15:0
     RDKit          3D

 34 36  0  0  0  0  0  0  0  0999 V2000
  149.9770  157.8510  131.8550 C   0  0  0  0  0  0  0  0  0  0  0  0
  149.2490  158.9120  132.2210 C   0  0  0  0  0  0  0  0  0  0  0  0
  148.4430  158.8390  133.4610 C   0  0  0  0  0  0  0  0  0  0  0  0
  148.8710  159.3880  134.5130 O   0  0  0  0  0  0  0  0  0  0  0  0
  147.1820  158.1450  133.4870 N   0  0  0  0  0  0  0  0  0  0  0  0
  145.9350  158.6920  133.4900 C   0  0  0  0  0  0  0  0  0  0  0  0
  145.6240  160.1290  133.6240 C   0  0  0  0  0  0  0  0  0  0  0  0
  146.6570  161.1160  133.5930 N   0  0  0  0  0  0  0  0  0  0  0  0
  144.4340  160.4890  133.8280 O   0  0  0  0  0  0  0  0  0  0  0  0
  144.9630  157.7000  133.3800 C   0  0  0  0  0  0  0  0  0  0  0  0
  145.6600  156.5150  133.3170 C   0  0  0  0  0  0  0  0  0  0  0  0
  145.1930  155.2110  133.1730 C   0  0  0  0  0  0  0  0  0  0  0  0
  146.1430  154.1770  133.0870 C   0  0  0  0  0  0  0  0  0  0  0  0
  147.5310  154.4600  133.1450 C   0  0  0  0  0  0  0  0  0  0  0  0
  148.5360  153.3460  132.9920 C   0  0  0  0  0  0  0  0  0  0  0  0
  148.0290  152.3430  132.1880 F   0  0  0  0  0  0  0  0  0  0  0  0
  149.6880  153.8500  132.4160 F   0  0  0  0  0  0  0  0  0  0  0  0
  148.8500  152.7980  134.2230 F   0  0  0  0  0  0  0  0  0  0  0  0
  147.9640  155.8020  133.2600 C   0  0  0  0  0  0  0  0  0  0  0  0
  146.9970  156.8090  133.3770 C   0  0  0  0  0  0  0  0  0  0  0  0
  149.1990  160.0820  131.3830 N   0  0  0  0  0  0  0  0  0  0  0  0
  149.8450  160.3070  130.2240 C   0  0  0  0  0  0  0  0  0  0  0  0
  149.5990  161.5580  129.8010 N   0  0  0  0  0  0  0  0  0  0  0  0
  148.7940  162.0850  130.7140 N   0  0  0  0  0  0  0  0  0  0  0  0
  148.5510  161.1990  131.6680 N   0  0  0  0  0  0  0  0  0  0  0  0
  150.5813  157.8889  130.9366 H   0  0  0  0  0  0  0  0  0  0  0  0
  149.9714  156.9407  132.4724 H   0  0  0  0  0  0  0  0  0  0  0  0
  146.4170  162.1270  133.6800 H   0  0  0  0  0  0  0  0  0  0  0  0
  147.6630  160.8430  133.6160 H   0  0  0  0  0  0  0  0  0  0  0  0
  143.8717  157.8350  133.3499 H   0  0  0  0  0  0  0  0  0  0  0  0
  144.1151  154.9962  133.1279 H   0  0  0  0  0  0  0  0  0  0  0  0
  145.8049  153.1364  132.9734 H   0  0  0  0  0  0  0  0  0  0  0  0
  149.0359  156.0492  133.2576 H   0  0  0  0  0  0  0  0  0  0  0  0
  150.4794  159.5760  129.7014 H   0  0  0  0  0  0  0  0  0  0  0  0
  1  2  2  0
  2  3  1  0
  3  4  2  0
  3  5  1  0
  5  6  1  0
  6  7  1  0
  7  8  1  0
  7  9  2  0
  6 10  2  0
 10 11  1  0
 11 12  2  0
 12 13  1  0
 13 14  2  0
 14 15  1  0
 15 16  1  0
 15 17  1  0
 15 18  1  0
 14 19  1  0
 19 20  2  0
  2 21  1  0
 21 22  1  0
 22 23  2  0
 23 24  1  0
 24 25  2  0
 20  5  1  0
 25 21  1  0
 20 11  1  0
  1 26  1  0
  1 27  1  0
  8 28  1  0
  8 29  1  0
 10 30  1  0
 12 31  1  0
 13 32  1  0
 19 33  1  0
 22 34  1  0
M  END
>  <UniqueID>  (16) 
16

>  <SMILES>  (16) 
C=C(C(=O)n1c(C(N)=O)cc2ccc(C(F)(F)F)cc21)n1cnnn1

>  <Energy>  (16) 
120.10026954526664

>  <Genealogy>  (16) 
C=C(C(=O)n1c(C(N)=O)cc2ccc(C(F)(F)F)cc21)n1cnnn1 (3D coordinates assigned)
C=C(C(=O)n1c(C(N)=O)cc2ccc(C(F)(F)F)cc21)n1cnnn1 (optimized conformer: 120.10026954526664 kcal/mol)

>  <smiles>  (16) 
C=C(C(=O)n1c(C(N)=O)cc2ccc(C(F)(F)F)cc21)n1cnnn1

>  <score_type>  (16) 
oracle

>  <origin>  (16) 
adg

>  <m_score__min__energy>  (16) 
-8.3000000000000007

>  <m_primary>  (16) 
energy

$$$$
16:0
     RDKit          3D

 47 48  0  0  0  0  0  0  0  0999 V2000
  148.8380  155.5590  132.6140 C   0  0  0  0  0  0  0  0  0  0  0  0
  148.1880  156.8940  132.8180 C   0  0  0  0  0  0  0  0  0  0  0  0
  148.9600  158.0820  132.7680 C   0  0  0  0  0  0  0  0  0  0  0  0
  148.3560  159.3330  132.9720 C   0  0  0  0  0  0  0  0  0  0  0  0
  146.9930  159.3630  133.2550 C   0  0  0  0  0  0  0  0  0  0  0  0
  146.1490  160.4340  133.4490 C   0  0  0  0  0  0  0  0  0  0  0  0
  144.8900  159.8780  133.6680 C   0  0  0  0  0  0  0  0  0  0  0  0
  143.6640  160.6840  133.8580 C   0  0  0  0  0  0  0  0  0  0  0  0
  142.4590  160.1120  134.3690 N   0  0  0  0  0  0  0  0  0  0  0  0
  143.6930  161.9170  133.5970 O   0  0  0  0  0  0  0  0  0  0  0  0
  144.9560  158.5190  133.6160 N   0  0  0  0  0  0  0  0  0  0  0  0
  143.8680  157.5900  133.6920 C   0  0  0  0  0  0  0  0  0  0  0  0
  142.7670  157.8740  133.1510 O   0  0  0  0  0  0  0  0  0  0  0  0
  144.0310  156.2880  134.4220 C   0  0  0  0  0  0  0  0  0  0  0  0
  143.8210  155.1490  133.5210 N   0  0  0  0  0  0  0  0  0  0  0  0
  144.4360  155.1650  132.2200 C   0  0  0  0  0  0  0  0  0  0  0  0
  144.3670  154.1650  131.4580 O   0  0  0  0  0  0  0  0  0  0  0  0
  142.8700  154.0940  133.8960 C   0  0  0  0  0  0  0  0  0  0  0  0
  141.4750  154.4810  133.4980 C   0  0  0  0  0  0  0  0  0  0  0  0
  140.7310  153.6240  132.9480 O   0  0  0  0  0  0  0  0  0  0  0  0
  140.9860  155.8020  133.7810 N   0  0  0  0  0  0  0  0  0  0  0  0
  139.6990  156.2870  133.3730 C   0  0  0  0  0  0  0  0  0  0  0  0
  138.9460  155.5810  132.6450 O   0  0  0  0  0  0  0  0  0  0  0  0
  139.2880  157.5570  133.7880 O   0  0  0  0  0  0  0  0  0  0  0  0
  139.1540  157.9100  135.1600 C   0  0  0  0  0  0  0  0  0  0  0  0
  140.4710  158.3730  135.6880 C   0  0  0  0  0  0  0  0  0  0  0  0
  140.6310  159.5740  136.0240 O   0  0  0  0  0  0  0  0  0  0  0  0
  141.5320  157.4830  135.7900 O   0  0  0  0  0  0  0  0  0  0  0  0
  146.2440  158.2200  133.3450 C   0  0  0  0  0  0  0  0  0  0  0  0
  146.8100  156.9630  133.1100 C   0  0  0  0  0  0  0  0  0  0  0  0
  149.0588  155.1055  133.5915 H   0  0  0  0  0  0  0  0  0  0  0  0
  148.1586  154.9027  132.0504 H   0  0  0  0  0  0  0  0  0  0  0  0
  149.7736  155.6890  132.0504 H   0  0  0  0  0  0  0  0  0  0  0  0
  150.0401  158.0233  132.5679 H   0  0  0  0  0  0  0  0  0  0  0  0
  148.9422  160.2617  132.9101 H   0  0  0  0  0  0  0  0  0  0  0  0
  146.4128  161.5018  133.4342 H   0  0  0  0  0  0  0  0  0  0  0  0
  142.4560  159.1840  134.8410 H   0  0  0  0  0  0  0  0  0  0  0  0
  141.5870  160.6850  134.4040 H   0  0  0  0  0  0  0  0  0  0  0  0
  145.0476  156.2342  134.8386 H   0  0  0  0  0  0  0  0  0  0  0  0
  143.2816  156.2412  135.2259 H   0  0  0  0  0  0  0  0  0  0  0  0
  144.9744  156.0643  131.8863 H   0  0  0  0  0  0  0  0  0  0  0  0
  143.1462  153.1592  133.3862 H   0  0  0  0  0  0  0  0  0  0  0  0
  142.9040  153.9542  134.9865 H   0  0  0  0  0  0  0  0  0  0  0  0
  141.5940  156.4560  134.3230 H   0  0  0  0  0  0  0  0  0  0  0  0
  138.4148  158.7185  135.2596 H   0  0  0  0  0  0  0  0  0  0  0  0
  138.8187  157.0324  135.7323 H   0  0  0  0  0  0  0  0  0  0  0  0
  146.1960  156.0513  133.1518 H   0  0  0  0  0  0  0  0  0  0  0  0
  1  2  1  0
  2  3  2  0
  3  4  1  0
  4  5  2  0
  5  6  1  0
  6  7  2  0
  7  8  1  0
  8  9  1  0
  8 10  2  0
  7 11  1  0
 11 12  1  0
 12 13  2  0
 12 14  1  0
 14 15  1  0
 15 16  1  0
 16 17  2  0
 15 18  1  0
 18 19  1  0
 19 20  2  0
 19 21  1  0
 21 22  1  0
 22 23  2  0
 22 24  1  0
 24 25  1  0
 25 26  1  0
 26 27  2  0
 26 28  1  0
 11 29  1  0
 29 30  2  0
 30  2  1  0
 29  5  1  0
  1 31  1  0
  1 32  1  0
  1 33  1  0
  3 34  1  0
  4 35  1  0
  6 36  1  0
  9 37  1  0
  9 38  1  0
 14 39  1  0
 14 40  1  0
 16 41  1  0
 18 42  1  0
 18 43  1  0
 21 44  1  0
 25 45  1  0
 25 46  1  0
 30 47  1  0
M  CHG  1  28  -1
M  END
>  <UniqueID>  (17) 
17

>  <SMILES>  (17) 
Cc1ccc2cc(C(N)=O)n(C(=O)CN(C=O)CC(=O)NC(=O)OCC(=O)[O-])c2c1

>  <Energy>  (17) 
80.37436581034424

>  <Genealogy>  (17) 
Cc1ccc2cc(C(N)=O)n(C(=O)CN(C=O)CC(=O)NC(=O)OCC(=O)[O-])c2c1 (protonated)
Cc1ccc2cc(C(N)=O)n(C(=O)CN(C=O)CC(=O)NC(=O)OCC(=O)[O-])c2c1 (3D coordinates assigned)
Cc1ccc2cc(C(N)=O)n(C(=O)CN(C=O)CC(=O)NC(=O)OCC(=O)[O-])c2c1 (optimized conformer: 80.37436581034424 kcal/mol)

>  <smiles>  (17) 
Cc1ccc2cc(C(N)=O)n(C(=O)CN(C=O)CC(=O)NC(=O)OCC(=O)O)c2c1

>  <score_type>  (17) 
oracle

>  <origin>  (17) 
adg

>  <m_score__min__energy>  (17) 
-6.6399999999999997

>  <m_primary>  (17) 
energy

$$$$
17:0
     RDKit          3D

 42 43  0  0  0  0  0  0  0  0999 V2000
  142.5080  160.0340  133.9630 N   0  0  0  0  0  0  0  0  0  0  0  0
  143.8250  160.5290  133.7290 C   0  0  0  0  0  0  0  0  0  0  0  0
  144.0250  161.7720  133.7220 O   0  0  0  0  0  0  0  0  0  0  0  0
  144.9300  159.5870  133.4610 C   0  0  0  0  0  0  0  0  0  0  0  0
  146.2090  159.9830  133.0750 C   0  0  0  0  0  0  0  0  0  0  0  0
  146.9470  158.8220  133.0240 C   0  0  0  0  0  0  0  0  0  0  0  0
  148.2820  158.6220  132.6880 C   0  0  0  0  0  0  0  0  0  0  0  0
  148.7730  157.3050  132.6930 C   0  0  0  0  0  0  0  0  0  0  0  0
  147.9240  156.2150  133.0160 C   0  0  0  0  0  0  0  0  0  0  0  0
  148.4750  154.8130  133.0240 C   0  0  0  0  0  0  0  0  0  0  0  0
  149.7690  154.7840  132.5310 F   0  0  0  0  0  0  0  0  0  0  0  0
  147.6760  154.0040  132.2370 F   0  0  0  0  0  0  0  0  0  0  0  0
  148.4920  154.3130  134.3140 F   0  0  0  0  0  0  0  0  0  0  0  0
  146.5820  156.4640  133.3850 C   0  0  0  0  0  0  0  0  0  0  0  0
  146.1230  157.7850  133.3710 C   0  0  0  0  0  0  0  0  0  0  0  0
  144.8790  158.2370  133.6300 N   0  0  0  0  0  0  0  0  0  0  0  0
  143.7310  157.4240  133.9110 C   0  0  0  0  0  0  0  0  0  0  0  0
  143.3240  157.3100  135.0980 O   0  0  0  0  0  0  0  0  0  0  0  0
  143.0770  156.6150  132.8230 C   0  0  0  0  0  0  0  0  0  0  0  0
  142.0440  155.6320  133.3910 C   0  0  0  0  0  0  0  0  0  0  0  0
  140.6980  156.2780  133.5800 C   0  0  0  0  0  0  0  0  0  0  0  0
  139.6560  155.6450  133.2590 O   0  0  0  0  0  0  0  0  0  0  0  0
  140.6010  157.6060  134.1150 N   0  0  0  0  0  0  0  0  0  0  0  0
  139.3200  158.2190  134.4650 C   0  0  0  0  0  0  0  0  0  0  0  0
  139.0950  158.2090  135.9790 C   0  0  0  0  0  0  0  0  0  0  0  0
  140.3720  157.9540  136.7160 C   0  0  0  0  0  0  0  0  0  0  0  0
  140.4330  157.0410  137.5820 O   0  0  0  0  0  0  0  0  0  0  0  0
  141.4890  158.7420  136.4650 O   0  0  0  0  0  0  0  0  0  0  0  0
  142.3540  159.1800  134.5420 H   0  0  0  0  0  0  0  0  0  0  0  0
  146.5548  161.0043  132.8576 H   0  0  0  0  0  0  0  0  0  0  0  0
  148.9336  159.4688  132.4264 H   0  0  0  0  0  0  0  0  0  0  0  0
  149.8277  157.1171  132.4436 H   0  0  0  0  0  0  0  0  0  0  0  0
  145.9153  155.6389  133.6760 H   0  0  0  0  0  0  0  0  0  0  0  0
  142.5723  157.2987  132.1245 H   0  0  0  0  0  0  0  0  0  0  0  0
  143.8579  156.0343  132.3103 H   0  0  0  0  0  0  0  0  0  0  0  0
  141.9380  154.7865  132.6954 H   0  0  0  0  0  0  0  0  0  0  0  0
  142.4007  155.2941  134.3752 H   0  0  0  0  0  0  0  0  0  0  0  0
  141.4770  158.1210  134.3610 H   0  0  0  0  0  0  0  0  0  0  0  0
  139.3111  159.2594  134.1081 H   0  0  0  0  0  0  0  0  0  0  0  0
  138.5155  157.6383  133.9902 H   0  0  0  0  0  0  0  0  0  0  0  0
  138.6915  159.1846  136.2879 H   0  0  0  0  0  0  0  0  0  0  0  0
  138.3876  157.4018  136.2199 H   0  0  0  0  0  0  0  0  0  0  0  0
  1  2  1  0
  2  3  2  0
  2  4  1  0
  4  5  2  0
  5  6  1  0
  6  7  2  0
  7  8  1  0
  8  9  2  0
  9 10  1  0
 10 11  1  0
 10 12  1  0
 10 13  1  0
  9 14  1  0
 14 15  2  0
 15 16  1  0
 16 17  1  0
 17 18  2  0
 17 19  1  0
 19 20  1  0
 20 21  1  0
 21 22  2  0
 21 23  1  0
 23 24  1  0
 24 25  1  0
 25 26  1  0
 26 27  2  0
 26 28  1  0
 16  4  1  0
 15  6  1  0
  1 29  1  0
  5 30  1  0
  7 31  1  0
  8 32  1  0
 14 33  1  0
 19 34  1  0
 19 35  1  0
 20 36  1  0
 20 37  1  0
 23 38  1  0
 24 39  1  0
 24 40  1  0
 25 41  1  0
 25 42  1  0
M  CHG  2   1  -1  28  -1
M  END
>  <UniqueID>  (18) 
18

>  <SMILES>  (18) 
[NH-]C(=O)c1cc2ccc(C(F)(F)F)cc2n1C(=O)CCC(=O)NCCC(=O)[O-]

>  <Energy>  (18) 
69.91200624458645

>  <Genealogy>  (18) 
[NH-]C(=O)c1cc2ccc(C(F)(F)F)cc2n1C(=O)CCC(=O)NCCC(=O)[O-] (protonated)
[NH-]C(=O)c1cc2ccc(C(F)(F)F)cc2n1C(=O)CCC(=O)NCCC(=O)[O-] (3D coordinates assigned)
[NH-]C(=O)c1cc2ccc(C(F)(F)F)cc2n1C(=O)CCC(=O)NCCC(=O)[O-] (optimized conformer: 69.91200624458645 kcal/mol)

>  <smiles>  (18) 
NC(=O)c1cc2ccc(C(F)(F)F)cc2n1C(=O)CCC(=O)NCCC(=O)O

>  <score_type>  (18) 
oracle

>  <origin>  (18) 
adg

>  <m_score__min__energy>  (18) 
-7.4199999999999999

>  <m_primary>  (18) 
energy

$$$$
18:0
     RDKit          3D

 52 56  0  0  0  0  0  0  0  0999 V2000
  147.6100  152.9090  133.7230 N   0  0  0  0  0  0  0  0  0  0  0  0
  148.2090  154.0520  133.1080 C   0  0  0  0  0  0  0  0  0  0  0  0
  149.2820  153.9120  132.4630 O   0  0  0  0  0  0  0  0  0  0  0  0
  147.5710  155.3840  133.1740 C   0  0  0  0  0  0  0  0  0  0  0  0
  148.1920  156.5570  132.7550 C   0  0  0  0  0  0  0  0  0  0  0  0
  147.2690  157.5550  132.9740 C   0  0  0  0  0  0  0  0  0  0  0  0
  147.3610  158.9250  132.7500 C   0  0  0  0  0  0  0  0  0  0  0  0
  146.2640  159.7270  133.1090 C   0  0  0  0  0  0  0  0  0  0  0  0
  145.1120  159.1550  133.7080 C   0  0  0  0  0  0  0  0  0  0  0  0
  143.9250  160.0210  134.0510 C   0  0  0  0  0  0  0  0  0  0  0  0
  144.3660  161.2980  134.3460 F   0  0  0  0  0  0  0  0  0  0  0  0
  143.0410  160.0820  132.9870 F   0  0  0  0  0  0  0  0  0  0  0  0
  143.2490  159.5120  135.1470 F   0  0  0  0  0  0  0  0  0  0  0  0
  145.0510  157.7540  133.9030 C   0  0  0  0  0  0  0  0  0  0  0  0
  146.1470  156.9780  133.5110 C   0  0  0  0  0  0  0  0  0  0  0  0
  146.3150  155.6420  133.6330 N   0  0  0  0  0  0  0  0  0  0  0  0
  145.4120  154.7190  134.2630 C   0  0  0  0  0  0  0  0  0  0  0  0
  145.4800  154.5500  135.5100 O   0  0  0  0  0  0  0  0  0  0  0  0
  144.4570  153.9340  133.4490 C   0  0  0  0  0  0  0  0  0  0  0  0
  144.9100  152.9930  132.7420 O   0  0  0  0  0  0  0  0  0  0  0  0
  143.0380  154.1960  133.4410 N   0  0  0  0  0  0  0  0  0  0  0  0
  142.0290  153.3010  132.8970 C   0  0  0  0  0  0  0  0  0  0  0  0
  140.6770  153.8970  133.2720 C   0  0  0  0  0  0  0  0  0  0  0  0
  140.9580  155.2900  133.8750 C   0  0  2  0  0  0  0  0  0  0  0  0
  140.4690  156.4250  133.0500 N   0  0  0  0  0  0  0  0  0  0  0  0
  139.1000  156.8910  133.3340 C   0  0  0  0  0  0  0  0  0  0  0  0
  139.0820  158.4050  133.2150 C   0  0  2  0  0  0  0  0  0  0  0  0
  139.5430  158.9830  131.8860 C   0  0  0  0  0  0  0  0  0  0  0  0
  140.5130  158.8460  133.0500 C   0  0  2  0  0  0  0  0  0  0  0  0
  141.3660  157.5900  133.0720 C   0  0  0  0  0  0  0  0  0  0  0  0
  142.4730  155.3670  134.0920 C   0  0  0  0  0  0  0  0  0  0  0  0
  146.6340  152.9400  134.0890 H   0  0  0  0  0  0  0  0  0  0  0  0
  148.1160  151.9950  133.7310 H   0  0  0  0  0  0  0  0  0  0  0  0
  149.2042  156.6640  132.3379 H   0  0  0  0  0  0  0  0  0  0  0  0
  148.2648  159.3671  132.3054 H   0  0  0  0  0  0  0  0  0  0  0  0
  146.2990  160.8107  132.9234 H   0  0  0  0  0  0  0  0  0  0  0  0
  144.1624  157.2865  134.3523 H   0  0  0  0  0  0  0  0  0  0  0  0
  142.1266  153.2378  131.8032 H   0  0  0  0  0  0  0  0  0  0  0  0
  142.1410  152.2831  133.2986 H   0  0  0  0  0  0  0  0  0  0  0  0
  140.0434  153.9918  132.3778 H   0  0  0  0  0  0  0  0  0  0  0  0
  140.1470  153.2545  133.9905 H   0  0  0  0  0  0  0  0  0  0  0  0
  140.3989  155.3934  134.8166 H   0  0  0  0  0  0  0  0  0  0  0  0
  138.8088  156.5937  134.3522 H   0  0  0  0  0  0  0  0  0  0  0  0
  138.3904  156.4446  132.6219 H   0  0  0  0  0  0  0  0  0  0  0  0
  138.2062  158.6294  133.8416 H   0  0  0  0  0  0  0  0  0  0  0  0
  139.1994  159.9785  131.5684 H   0  0  0  0  0  0  0  0  0  0  0  0
  139.5259  158.6458  130.8391 H   0  0  0  0  0  0  0  0  0  0  0  0
  141.2232  159.5591  133.4939 H   0  0  0  0  0  0  0  0  0  0  0  0
  141.9780  157.5715  133.9858 H   0  0  0  0  0  0  0  0  0  0  0  0
  142.0359  157.5703  132.1997 H   0  0  0  0  0  0  0  0  0  0  0  0
  142.8763  156.2855  133.6407 H   0  0  0  0  0  0  0  0  0  0  0  0
  142.7231  155.3890  135.1630 H   0  0  0  0  0  0  0  0  0  0  0  0
  1  2  1  0
  2  3  2  0
  2  4  1  0
  4  5  2  0
  5  6  1  0
  6  7  2  0
  7  8  1  0
  8  9  2  0
  9 10  1  0
 10 11  1  0
 10 12  1  0
 10 13  1  0
  9 14  1  0
 14 15  2  0
 15 16  1  0
 16 17  1  0
 17 18  2  0
 17 19  1  0
 19 20  2  0
 19 21  1  0
 21 22  1  0
 22 23  1  0
 23 24  1  0
 24 25  1  0
 25 26  1  0
 26 27  1  0
 27 28  1  0
 28 29  1  0
 29 30  1  0
 24 31  1  0
 16  4  1  0
 31 21  1  0
 15  6  1  0
 30 25  1  0
 29 27  1  0
  1 32  1  0
  1 33  1  0
  5 34  1  0
  7 35  1  0
  8 36  1  0
 14 37  1  0
 22 38  1  0
 22 39  1  0
 23 40  1  0
 23 41  1  0
 24 42  1  1
 26 43  1  0
 26 44  1  0
 27 45  1  1
 28 46  1  0
 28 47  1  0
 29 48  1  1
 30 49  1  0
 30 50  1  0
 31 51  1  0
 31 52  1  0
M  END
>  <UniqueID>  (19) 
19

>  <SMILES>  (19) 
NC(=O)c1cc2ccc(C(F)(F)F)cc2n1C(=O)C(=O)N1CC[C@H](N2CC3C[C@H]3C2)C1

>  <Energy>  (19) 
371.1934426683798

>  <Genealogy>  (19) 
NC(=O)c1cc2ccc(C(F)(F)F)cc2n1C(=O)C(=O)N1CC[C@H](N2CC3C[C@H]3C2)C1 (chirality)
NC(=O)c1cc2ccc(C(F)(F)F)cc2n1C(=O)C(=O)N1CC[C@H](N2CC3C[C@H]3C2)C1 (3D coordinates assigned)
NC(=O)c1cc2ccc(C(F)(F)F)cc2n1C(=O)C(=O)N1CC[C@H](N2CC3C[C@H]3C2)C1 (nonaromatic ring conformer: 371.1934426683798 kcal/mol)

>  <smiles>  (19) 
NC(=O)c1cc2ccc(C(F)(F)F)cc2n1C(=O)C(=O)N1CCC(N2CC3CC3C2)C1

>  <score_type>  (19) 
oracle

>  <origin>  (19) 
adg

>  <m_score__min__energy>  (19) 
-9.5399999999999991

>  <m_primary>  (19) 
energy

$$$$
19:0
     RDKit          3D

 50 51  0  0  0  0  0  0  0  0999 V2000
  138.4770  158.9020  131.4210 C   0  0  0  0  0  0  0  0  0  0  0  0
  139.6030  159.5830  132.1980 C   0  0  0  0  0  0  0  0  0  0  0  0
  140.6330  158.5710  132.7450 C   0  0  2  0  0  0  0  0  0  0  0  0
  140.0530  157.6180  133.7570 C   0  0  0  0  0  0  0  0  0  0  0  0
  140.0270  156.3760  133.5290 O   0  0  0  0  0  0  0  0  0  0  0  0
  139.4870  158.1390  134.9250 O   0  0  0  0  0  0  0  0  0  0  0  0
  140.2520  158.6910  135.9950 C   0  0  0  0  0  0  0  0  0  0  0  0
  140.4470  157.6570  137.1030 C   0  0  0  0  0  0  0  0  0  0  0  0
  140.5510  156.3730  136.5530 O   0  0  0  0  0  0  0  0  0  0  0  0
  141.8000  159.2680  133.3180 N   0  0  0  0  0  0  0  0  0  0  0  0
  141.6960  160.6730  133.7360 C   0  0  0  0  0  0  0  0  0  0  0  0
  143.0760  158.5900  133.3550 C   0  0  0  0  0  0  0  0  0  0  0  0
  144.0100  158.9960  132.6110 O   0  0  0  0  0  0  0  0  0  0  0  0
  143.3300  157.4070  134.2100 C   0  0  0  0  0  0  0  0  0  0  0  0
  142.7740  157.2900  135.3350 O   0  0  0  0  0  0  0  0  0  0  0  0
  144.2390  156.3860  133.7740 N   0  0  0  0  0  0  0  0  0  0  0  0
  143.9560  155.0940  133.4500 C   0  0  0  0  0  0  0  0  0  0  0  0
  142.6430  154.4300  133.6020 C   0  0  0  0  0  0  0  0  0  0  0  0
  141.7870  154.7410  134.6980 N   0  0  0  0  0  0  0  0  0  0  0  0
  142.2870  153.5510  132.7720 O   0  0  0  0  0  0  0  0  0  0  0  0
  145.1070  154.4420  133.0060 C   0  0  0  0  0  0  0  0  0  0  0  0
  146.1110  155.3820  133.0850 C   0  0  0  0  0  0  0  0  0  0  0  0
  147.4620  155.2830  132.7590 C   0  0  0  0  0  0  0  0  0  0  0  0
  148.2630  156.4270  132.9210 C   0  0  0  0  0  0  0  0  0  0  0  0
  147.7070  157.6340  133.4120 C   0  0  0  0  0  0  0  0  0  0  0  0
  148.5640  158.8580  133.5380 C   0  0  0  0  0  0  0  0  0  0  0  0
  146.3300  157.7010  133.7180 C   0  0  0  0  0  0  0  0  0  0  0  0
  145.5610  156.5450  133.5540 C   0  0  0  0  0  0  0  0  0  0  0  0
  137.7556  158.4657  132.1276 H   0  0  0  0  0  0  0  0  0  0  0  0
  137.9676  159.6436  130.7881 H   0  0  0  0  0  0  0  0  0  0  0  0
  138.8972  158.1065  130.7881 H   0  0  0  0  0  0  0  0  0  0  0  0
  140.1195  160.2866  131.5285 H   0  0  0  0  0  0  0  0  0  0  0  0
  139.1529  160.1025  133.0568 H   0  0  0  0  0  0  0  0  0  0  0  0
  140.9516  157.9665  131.8830 H   0  0  0  0  0  0  0  0  0  0  0  0
  141.2356  159.0026  135.6135 H   0  0  0  0  0  0  0  0  0  0  0  0
  139.7133  159.5569  136.4075 H   0  0  0  0  0  0  0  0  0  0  0  0
  141.3670  157.8896  137.6594 H   0  0  0  0  0  0  0  0  0  0  0  0
  139.5807  157.6885  137.7801 H   0  0  0  0  0  0  0  0  0  0  0  0
  140.7570  156.5020  135.5910 H   0  0  0  0  0  0  0  0  0  0  0  0
  141.6918  160.7294  134.8345 H   0  0  0  0  0  0  0  0  0  0  0  0
  142.5549  161.2370  133.3432 H   0  0  0  0  0  0  0  0  0  0  0  0
  140.7635  161.1044  133.3432 H   0  0  0  0  0  0  0  0  0  0  0  0
  141.4000  155.7030  134.8240 H   0  0  0  0  0  0  0  0  0  0  0  0
  145.1941  153.3997  132.6655 H   0  0  0  0  0  0  0  0  0  0  0  0
  147.8883  154.3398  132.3867 H   0  0  0  0  0  0  0  0  0  0  0  0
  149.3317  156.3845  132.6640 H   0  0  0  0  0  0  0  0  0  0  0  0
  148.7236  159.0859  134.6022 H   0  0  0  0  0  0  0  0  0  0  0  0
  149.5343  158.6779  133.0521 H   0  0  0  0  0  0  0  0  0  0  0  0
  148.0628  159.7081  133.0521 H   0  0  0  0  0  0  0  0  0  0  0  0
  145.8752  158.6366  134.0754 H   0  0  0  0  0  0  0  0  0  0  0  0
  1  2  1  0
  2  3  1  0
  3  4  1  0
  4  5  2  0
  4  6  1  0
  6  7  1  0
  7  8  1  0
  8  9  1  0
  3 10  1  0
 10 11  1  0
 10 12  1  0
 12 13  2  0
 12 14  1  0
 14 15  2  0
 14 16  1  0
 16 17  1  0
 17 18  1  0
 18 19  1  0
 18 20  2  0
 17 21  2  0
 21 22  1  0
 22 23  2  0
 23 24  1  0
 24 25  2  0
 25 26  1  0
 25 27  1  0
 27 28  2  0
 28 16  1  0
 28 22  1  0
  1 29  1  0
  1 30  1  0
  1 31  1  0
  2 32  1  0
  2 33  1  0
  3 34  1  6
  7 35  1  0
  7 36  1  0
  8 37  1  0
  8 38  1  0
  9 39  1  0
 11 40  1  0
 11 41  1  0
 11 42  1  0
 19 43  1  0
 21 44  1  0
 23 45  1  0
 24 46  1  0
 26 47  1  0
 26 48  1  0
 26 49  1  0
 27 50  1  0
M  CHG  1  19  -1
M  END
>  <UniqueID>  (20) 
20

>  <SMILES>  (20) 
CC[C@H](C(=O)OCCO)N(C)C(=O)C(=O)n1c(C([NH-])=O)cc2ccc(C)cc21

>  <Energy>  (20) 
84.08000521975256

>  <Genealogy>  (20) 
CCC(C(=O)OCCO)N(C)C(=O)C(=O)n1c(C([NH-])=O)cc2ccc(C)cc21 (protonated)
CC[C@H](C(=O)OCCO)N(C)C(=O)C(=O)n1c(C([NH-])=O)cc2ccc(C)cc21 (chirality)
CC[C@H](C(=O)OCCO)N(C)C(=O)C(=O)n1c(C([NH-])=O)cc2ccc(C)cc21 (3D coordinates assigned)
CC[C@H](C(=O)OCCO)N(C)C(=O)C(=O)n1c(C([NH-])=O)cc2ccc(C)cc21 (optimized conformer: 84.08000521975256 kcal/mol)

>  <smiles>  (20) 
CCC(C(=O)OCCO)N(C)C(=O)C(=O)n1c(C(N)=O)cc2ccc(C)cc21

>  <score_type>  (20) 
oracle

>  <origin>  (20) 
adg

>  <m_score__min__energy>  (20) 
-6.2699999999999996

>  <m_primary>  (20) 
energy

$$$$
20:0
     RDKit          3D

 44 47  0  0  0  0  0  0  0  0999 V2000
  150.3110  151.4380  132.2880 C   0  0  0  0  0  0  0  0  0  0  0  0
  149.2260  152.3850  132.5010 N   0  0  0  0  0  0  0  0  0  0  0  0
  149.3440  153.7240  132.5230 C   0  0  0  0  0  0  0  0  0  0  0  0
  148.1050  154.2640  132.8250 C   0  0  0  0  0  0  0  0  0  0  0  0
  147.7470  155.7000  132.9630 C   0  0  0  0  0  0  0  0  0  0  0  0
  148.7580  156.7010  132.9490 C   0  0  0  0  0  0  0  0  0  0  0  0
  148.4310  158.0610  133.0760 C   0  0  0  0  0  0  0  0  0  0  0  0
  147.0910  158.3990  133.2190 C   0  0  0  0  0  0  0  0  0  0  0  0
  146.4940  159.6340  133.3500 C   0  0  0  0  0  0  0  0  0  0  0  0
  145.1280  159.3740  133.4520 C   0  0  0  0  0  0  0  0  0  0  0  0
  144.0970  160.4030  133.7010 C   0  0  0  0  0  0  0  0  0  0  0  0
  142.7900  160.2830  133.1380 N   0  0  0  0  0  0  0  0  0  0  0  0
  144.3750  161.4140  134.3980 O   0  0  0  0  0  0  0  0  0  0  0  0
  144.8950  158.0350  133.3840 N   0  0  0  0  0  0  0  0  0  0  0  0
  143.6270  157.3630  133.3630 C   0  0  0  0  0  0  0  0  0  0  0  0
  142.9090  157.4290  132.3290 O   0  0  0  0  0  0  0  0  0  0  0  0
  143.0900  156.7290  134.6180 C   0  0  0  0  0  0  0  0  0  0  0  0
  141.7300  157.2640  134.9870 C   0  0  0  0  0  0  0  0  0  0  0  0
  141.5540  158.0420  136.1420 C   0  0  0  0  0  0  0  0  0  0  0  0
  140.2820  158.5210  136.4630 C   0  0  0  0  0  0  0  0  0  0  0  0
  139.2230  158.2360  135.6600 N   0  0  0  0  0  0  0  0  0  0  0  0
  139.3620  157.4870  134.5340 C   0  0  0  0  0  0  0  0  0  0  0  0
  140.6180  156.9870  134.1770 C   0  0  0  0  0  0  0  0  0  0  0  0
  146.1030  157.4520  133.2440 C   0  0  0  0  0  0  0  0  0  0  0  0
  146.3950  156.0920  133.1100 C   0  0  0  0  0  0  0  0  0  0  0  0
  147.2750  153.1610  132.9840 C   0  0  0  0  0  0  0  0  0  0  0  0
  147.9840  152.0320  132.7890 N   0  0  0  0  0  0  0  0  0  0  0  0
  150.6986  151.0997  133.2603 H   0  0  0  0  0  0  0  0  0  0  0  0
  149.9365  150.5727  131.7214 H   0  0  0  0  0  0  0  0  0  0  0  0
  151.1177  151.9260  131.7214 H   0  0  0  0  0  0  0  0  0  0  0  0
  150.2662  154.2929  132.3336 H   0  0  0  0  0  0  0  0  0  0  0  0
  149.8116  156.4053  132.8370 H   0  0  0  0  0  0  0  0  0  0  0  0
  149.2123  158.8352  133.0627 H   0  0  0  0  0  0  0  0  0  0  0  0
  146.9896  160.6158  133.3699 H   0  0  0  0  0  0  0  0  0  0  0  0
  142.0840  161.0360  133.2890 H   0  0  0  0  0  0  0  0  0  0  0  0
  142.5060  159.4350  132.6000 H   0  0  0  0  0  0  0  0  0  0  0  0
  143.0133  155.6429  134.4617 H   0  0  0  0  0  0  0  0  0  0  0  0
  143.7815  156.9665  135.4398 H   0  0  0  0  0  0  0  0  0  0  0  0
  142.4123  158.2729  136.7900 H   0  0  0  0  0  0  0  0  0  0  0  0
  140.1369  159.1301  137.3674 H   0  0  0  0  0  0  0  0  0  0  0  0
  138.4860  157.2743  133.9036 H   0  0  0  0  0  0  0  0  0  0  0  0
  140.7338  156.3802  133.2668 H   0  0  0  0  0  0  0  0  0  0  0  0
  145.5907  155.3416  133.1186 H   0  0  0  0  0  0  0  0  0  0  0  0
  146.2039  153.2031  133.2310 H   0  0  0  0  0  0  0  0  0  0  0  0
  1  2  1  0
  2  3  1  0
  3  4  2  0
  4  5  1  0
  5  6  2  0
  6  7  1  0
  7  8  2  0
  8  9  1  0
  9 10  2  0
 10 11  1  0
 11 12  1  0
 11 13  2  0
 10 14  1  0
 14 15  1  0
 15 16  2  0
 15 17  1  0
 17 18  1  0
 18 19  2  0
 19 20  1  0
 20 21  2  0
 21 22  1  0
 22 23  2  0
 14 24  1  0
 24 25  2  0
  4 26  1  0
 26 27  2  0
 27  2  1  0
 25  5  1  0
 24  8  1  0
 23 18  1  0
  1 28  1  0
  1 29  1  0
  1 30  1  0
  3 31  1  0
  6 32  1  0
  7 33  1  0
  9 34  1  0
 12 35  1  0
 12 36  1  0
 17 37  1  0
 17 38  1  0
 19 39  1  0
 20 40  1  0
 22 41  1  0
 23 42  1  0
 25 43  1  0
 26 44  1  0
M  END
>  <UniqueID>  (21) 
21

>  <SMILES>  (21) 
Cn1cc(-c2ccc3cc(C(N)=O)n(C(=O)Cc4ccncc4)c3c2)cn1

>  <Energy>  (21) 
119.9846929286884

>  <Genealogy>  (21) 
Cn1cc(-c2ccc3cc(C(N)=O)n(C(=O)Cc4ccncc4)c3c2)cn1 (3D coordinates assigned)
Cn1cc(-c2ccc3cc(C(N)=O)n(C(=O)Cc4ccncc4)c3c2)cn1 (optimized conformer: 119.9846929286884 kcal/mol)

>  <smiles>  (21) 
Cn1cc(-c2ccc3cc(C(N)=O)n(C(=O)Cc4ccncc4)c3c2)cn1

>  <score_type>  (21) 
oracle

>  <origin>  (21) 
adg

>  <m_score__min__energy>  (21) 
-8.8499999999999996

>  <m_primary>  (21) 
energy

$$$$
21:0
     RDKit          3D

 32 34  0  0  0  0  0  0  0  0999 V2000
  144.0990  154.2090  132.1850 C   0  0  0  0  0  0  0  0  0  0  0  0
  145.1300  153.5940  132.7660 C   0  0  0  0  0  0  0  0  0  0  0  0
  145.4540  151.8780  132.3580 S   0  0  0  0  0  0  0  0  0  0  0  0
  146.0210  154.2960  133.7170 C   0  0  0  0  0  0  0  0  0  0  0  0
  145.9230  154.0540  134.9500 O   0  0  0  0  0  0  0  0  0  0  0  0
  146.9860  155.2590  133.2660 N   0  0  0  0  0  0  0  0  0  0  0  0
  148.2960  155.0450  132.9590 C   0  0  0  0  0  0  0  0  0  0  0  0
  148.9700  153.7290  132.9090 C   0  0  0  0  0  0  0  0  0  0  0  0
  148.4380  152.6040  133.6020 N   0  0  0  0  0  0  0  0  0  0  0  0
  150.0180  153.5920  132.2240 O   0  0  0  0  0  0  0  0  0  0  0  0
  148.9240  156.2490  132.6470 C   0  0  0  0  0  0  0  0  0  0  0  0
  147.9500  157.2140  132.7780 C   0  0  0  0  0  0  0  0  0  0  0  0
  148.0210  158.5910  132.6050 C   0  0  0  0  0  0  0  0  0  0  0  0
  146.8580  159.3470  132.8350 C   0  0  0  0  0  0  0  0  0  0  0  0
  145.6490  158.7200  133.2410 C   0  0  0  0  0  0  0  0  0  0  0  0
  144.4270  159.5270  133.4870 C   0  0  0  0  0  0  0  0  0  0  0  0
  143.1170  159.0880  133.5340 C   0  0  0  0  0  0  0  0  0  0  0  0
  142.3080  160.1350  133.7800 N   0  0  0  0  0  0  0  0  0  0  0  0
  143.0500  161.2260  133.8930 N   0  0  0  0  0  0  0  0  0  0  0  0
  144.3410  160.8880  133.7190 C   0  0  0  0  0  0  0  0  0  0  0  0
  145.6230  157.3150  133.4090 C   0  0  0  0  0  0  0  0  0  0  0  0
  146.7920  156.5900  133.1560 C   0  0  0  0  0  0  0  0  0  0  0  0
  143.8823  155.2613  132.4209 H   0  0  0  0  0  0  0  0  0  0  0  0
  143.4653  153.6639  131.4699 H   0  0  0  0  0  0  0  0  0  0  0  0
  146.4460  151.7750  133.3520 H   0  0  0  0  0  0  0  0  0  0  0  0
  147.5210  152.6630  134.0990 H   0  0  0  0  0  0  0  0  0  0  0  0
  149.9748  156.3974  132.3575 H   0  0  0  0  0  0  0  0  0  0  0  0
  148.9594  159.0753  132.2972 H   0  0  0  0  0  0  0  0  0  0  0  0
  146.8843  160.4382  132.6989 H   0  0  0  0  0  0  0  0  0  0  0  0
  142.7880  158.0479  133.3927 H   0  0  0  0  0  0  0  0  0  0  0  0
  145.1925  161.5835  133.7555 H   0  0  0  0  0  0  0  0  0  0  0  0
  144.7036  156.8044  133.7315 H   0  0  0  0  0  0  0  0  0  0  0  0
  1  2  2  0
  2  3  1  0
  2  4  1  0
  4  5  2  0
  4  6  1  0
  6  7  1  0
  7  8  1  0
  8  9  1  0
  8 10  2  0
  7 11  2  0
 11 12  1  0
 12 13  2  0
 13 14  1  0
 14 15  2  0
 15 16  1  0
 16 17  1  0
 17 18  2  0
 18 19  1  0
 19 20  1  0
 15 21  1  0
 21 22  2  0
 22  6  1  0
 22 12  1  0
 20 16  2  0
  1 23  1  0
  1 24  1  0
  3 25  1  0
  9 26  1  0
 11 27  1  0
 13 28  1  0
 14 29  1  0
 17 30  1  0
 20 31  1  0
 21 32  1  0
M  CHG  2   9  -1  19  -1
M  END
>  <UniqueID>  (22) 
22

>  <SMILES>  (22) 
C=C(S)C(=O)n1c(C([NH-])=O)cc2ccc(-c3cn[n-]c3)cc21

>  <Energy>  (22) 
103.97383878617534

>  <Genealogy>  (22) 
C=C(S)C(=O)n1c(C([NH-])=O)cc2ccc(-c3cn[n-]c3)cc21 (protonated)
C=C(S)C(=O)n1c(C([NH-])=O)cc2ccc(-c3cn[n-]c3)cc21 (3D coordinates assigned)
C=C(S)C(=O)n1c(C([NH-])=O)cc2ccc(-c3cn[n-]c3)cc21 (optimized conformer: 103.97383878617534 kcal/mol)

>  <smiles>  (22) 
C=C(S)C(=O)n1c(C(N)=O)cc2ccc(-c3cn[nH]c3)cc21

>  <score_type>  (22) 
oracle

>  <origin>  (22) 
adg

>  <m_score__min__energy>  (22) 
-6.8499999999999996

>  <m_primary>  (22) 
energy

$$$$
22:0
     RDKit          3D

 46 48  0  0  0  0  0  0  0  0999 V2000
  148.1240  154.2850  132.2480 N   0  0  0  0  0  0  0  0  0  0  0  0
  147.5280  154.6180  133.5010 C   0  0  0  0  0  0  0  0  0  0  0  0
  148.0800  154.2340  134.5670 O   0  0  0  0  0  0  0  0  0  0  0  0
  146.3110  155.4490  133.5740 C   0  0  0  0  0  0  0  0  0  0  0  0
  145.0610  155.0140  133.1430 C   0  0  0  0  0  0  0  0  0  0  0  0
  144.2230  156.0920  133.3100 C   0  0  0  0  0  0  0  0  0  0  0  0
  142.8680  156.2250  133.0240 C   0  0  0  0  0  0  0  0  0  0  0  0
  142.2630  157.4690  133.2700 C   0  0  0  0  0  0  0  0  0  0  0  0
  143.0160  158.5470  133.7970 C   0  0  0  0  0  0  0  0  0  0  0  0
  142.3660  159.8830  134.0190 C   0  0  0  0  0  0  0  0  0  0  0  0
  141.0470  159.7010  134.6980 C   0  0  0  0  0  0  0  0  0  0  0  0
  140.0420  159.3370  134.0290 O   0  0  0  0  0  0  0  0  0  0  0  0
  140.9550  159.8950  136.0790 O   0  0  0  0  0  0  0  0  0  0  0  0
  141.3220  158.8910  137.0210 C   0  0  0  0  0  0  0  0  0  0  0  0
  140.2310  157.8280  137.0830 C   0  0  0  0  0  0  0  0  0  0  0  0
  139.1150  158.2330  136.3390 O   0  0  0  0  0  0  0  0  0  0  0  0
  144.3940  158.3790  134.0580 C   0  0  0  0  0  0  0  0  0  0  0  0
  144.9700  157.1270  133.8100 C   0  0  0  0  0  0  0  0  0  0  0  0
  146.2580  156.7500  133.9780 N   0  0  0  0  0  0  0  0  0  0  0  0
  147.3820  157.6160  134.3640 C   0  0  0  0  0  0  0  0  0  0  0  0
  147.9290  158.4040  133.1950 C   0  0  0  0  0  0  0  0  0  0  0  0
  148.9490  157.8910  132.3700 C   0  0  0  0  0  0  0  0  0  0  0  0
  149.4590  158.6580  131.3180 C   0  0  0  0  0  0  0  0  0  0  0  0
  148.9730  159.9470  131.0880 C   0  0  0  0  0  0  0  0  0  0  0  0
  149.6170  160.9070  129.7690 Cl  0  0  0  0  0  0  0  0  0  0  0  0
  147.9770  160.4740  131.9160 C   0  0  0  0  0  0  0  0  0  0  0  0
  147.4640  159.7100  132.9680 C   0  0  0  0  0  0  0  0  0  0  0  0
  148.9350  153.6280  132.2120 H   0  0  0  0  0  0  0  0  0  0  0  0
  147.8540  154.7890  131.3770 H   0  0  0  0  0  0  0  0  0  0  0  0
  144.7990  154.0198  132.7520 H   0  0  0  0  0  0  0  0  0  0  0  0
  142.2885  155.3827  132.6180 H   0  0  0  0  0  0  0  0  0  0  0  0
  141.1939  157.6073  133.0512 H   0  0  0  0  0  0  0  0  0  0  0  0
  143.0179  160.5054  134.6496 H   0  0  0  0  0  0  0  0  0  0  0  0
  142.2083  160.3746  133.0477 H   0  0  0  0  0  0  0  0  0  0  0  0
  142.2695  158.4261  136.7108 H   0  0  0  0  0  0  0  0  0  0  0  0
  141.4451  159.3479  138.0140 H   0  0  0  0  0  0  0  0  0  0  0  0
  140.6193  156.8850  136.6707 H   0  0  0  0  0  0  0  0  0  0  0  0
  139.9297  157.6851  138.1312 H   0  0  0  0  0  0  0  0  0  0  0  0
  139.2700  159.1810  136.0860 H   0  0  0  0  0  0  0  0  0  0  0  0
  144.9996  159.2111  134.4464 H   0  0  0  0  0  0  0  0  0  0  0  0
  147.0367  158.3208  135.1348 H   0  0  0  0  0  0  0  0  0  0  0  0
  148.1891  156.9707  134.7412 H   0  0  0  0  0  0  0  0  0  0  0  0
  149.3463  156.8820  132.5543 H   0  0  0  0  0  0  0  0  0  0  0  0
  150.2455  158.2448  130.6694 H   0  0  0  0  0  0  0  0  0  0  0  0
  147.5968  161.4910  131.7392 H   0  0  0  0  0  0  0  0  0  0  0  0
  146.6897  160.1349  133.6237 H   0  0  0  0  0  0  0  0  0  0  0  0
  1  2  1  0
  2  3  2  0
  2  4  1  0
  4  5  2  0
  5  6  1  0
  6  7  2  0
  7  8  1  0
  8  9  2  0
  9 10  1  0
 10 11  1  0
 11 12  2  0
 11 13  1  0
 13 14  1  0
 14 15  1  0
 15 16  1  0
  9 17  1  0
 17 18  2  0
 18 19  1  0
 19 20  1  0
 20 21  1  0
 21 22  2  0
 22 23  1  0
 23 24  2  0
 24 25  1  0
 24 26  1  0
 26 27  2  0
 19  4  1  0
 27 21  1  0
 18  6  1  0
  1 28  1  0
  1 29  1  0
  5 30  1  0
  7 31  1  0
  8 32  1  0
 10 33  1  0
 10 34  1  0
 14 35  1  0
 14 36  1  0
 15 37  1  0
 15 38  1  0
 16 39  1  0
 17 40  1  0
 20 41  1  0
 20 42  1  0
 22 43  1  0
 23 44  1  0
 26 45  1  0
 27 46  1  0
M  END
>  <UniqueID>  (23) 
23

>  <SMILES>  (23) 
NC(=O)c1cc2ccc(CC(=O)OCCO)cc2n1Cc1ccc(Cl)cc1

>  <Energy>  (23) 
77.95891456386687

>  <Genealogy>  (23) 
NC(=O)c1cc2ccc(CC(=O)OCCO)cc2n1Cc1ccc(Cl)cc1 (3D coordinates assigned)
NC(=O)c1cc2ccc(CC(=O)OCCO)cc2n1Cc1ccc(Cl)cc1 (optimized conformer: 77.95891456386687 kcal/mol)

>  <smiles>  (23) 
NC(=O)c1cc2ccc(CC(=O)OCCO)cc2n1Cc1ccc(Cl)cc1

>  <score_type>  (23) 
oracle

>  <origin>  (23) 
adg

>  <m_score__min__energy>  (23) 
-8.4000000000000004

>  <m_primary>  (23) 
energy

$$$$
23:0
     RDKit          3D

 37 38  0  0  0  0  0  0  0  0999 V2000
  148.6210  156.6820  132.9580 C   0  0  0  0  0  0  0  0  0  0  0  0
  147.6550  157.8270  133.0410 C   0  0  0  0  0  0  0  0  0  0  0  0
  148.1180  159.1580  132.9020 C   0  0  0  0  0  0  0  0  0  0  0  0
  147.2320  160.2410  133.0300 C   0  0  0  0  0  0  0  0  0  0  0  0
  145.8950  159.9600  133.2960 C   0  0  0  0  0  0  0  0  0  0  0  0
  144.8380  160.8140  133.5170 C   0  0  0  0  0  0  0  0  0  0  0  0
  143.7480  159.9890  133.7850 C   0  0  0  0  0  0  0  0  0  0  0  0
  142.3950  160.4890  134.1070 C   0  0  0  0  0  0  0  0  0  0  0  0
  141.7180  160.0090  135.2670 N   0  0  0  0  0  0  0  0  0  0  0  0
  141.8290  161.3390  133.3710 O   0  0  0  0  0  0  0  0  0  0  0  0
  144.1100  158.6780  133.7040 N   0  0  0  0  0  0  0  0  0  0  0  0
  143.2830  157.5350  133.9910 C   0  0  0  0  0  0  0  0  0  0  0  0
  143.8520  156.4730  134.3660 O   0  0  0  0  0  0  0  0  0  0  0  0
  141.8250  157.5990  133.9720 N   0  0  0  0  0  0  0  0  0  0  0  0
  141.2330  156.3860  134.5900 C   0  0  0  0  0  0  0  0  0  0  0  0
  141.0510  156.5280  136.0750 C   0  0  0  0  0  0  0  0  0  0  0  0
  140.9530  155.5050  136.8030 O   0  0  0  0  0  0  0  0  0  0  0  0
  140.9910  157.7910  136.6510 O   0  0  0  0  0  0  0  0  0  0  0  0
  141.2600  157.7850  132.6100 C   0  0  0  0  0  0  0  0  0  0  0  0
  139.9310  158.4870  132.6260 C   0  0  0  0  0  0  0  0  0  0  0  0
  139.4370  158.8770  133.7170 O   0  0  0  0  0  0  0  0  0  0  0  0
  139.2700  158.7640  131.4360 O   0  0  0  0  0  0  0  0  0  0  0  0
  145.4320  158.6770  133.4310 C   0  0  0  0  0  0  0  0  0  0  0  0
  146.2960  157.5820  133.3320 C   0  0  0  0  0  0  0  0  0  0  0  0
  148.8941  156.3583  133.9732 H   0  0  0  0  0  0  0  0  0  0  0  0
  148.1521  155.8450  132.4200 H   0  0  0  0  0  0  0  0  0  0  0  0
  149.5251  157.0033  132.4200 H   0  0  0  0  0  0  0  0  0  0  0  0
  149.1813  159.3458  132.6918 H   0  0  0  0  0  0  0  0  0  0  0  0
  147.5838  161.2778  132.9234 H   0  0  0  0  0  0  0  0  0  0  0  0
  144.8513  161.9135  133.4881 H   0  0  0  0  0  0  0  0  0  0  0  0
  140.9020  159.3620  135.1820 H   0  0  0  0  0  0  0  0  0  0  0  0
  141.5390  158.4250  134.5510 H   0  0  0  0  0  0  0  0  0  0  0  0
  140.2512  156.1991  134.1304 H   0  0  0  0  0  0  0  0  0  0  0  0
  141.9262  155.5498  134.4163 H   0  0  0  0  0  0  0  0  0  0  0  0
  141.9663  158.3817  132.0141 H   0  0  0  0  0  0  0  0  0  0  0  0
  141.1041  156.7868  132.1750 H   0  0  0  0  0  0  0  0  0  0  0  0
  145.9260  156.5563  133.4772 H   0  0  0  0  0  0  0  0  0  0  0  0
  1  2  1  0
  2  3  2  0
  3  4  1  0
  4  5  2  0
  5  6  1  0
  6  7  2  0
  7  8  1  0
  8  9  1  0
  8 10  2  0
  7 11  1  0
 11 12  1  0
 12 13  2  0
 12 14  1  0
 14 15  1  0
 15 16  1  0
 16 17  2  0
 16 18  1  0
 14 19  1  0
 19 20  1  0
 20 21  2  0
 20 22  1  0
 11 23  1  0
 23 24  2  0
 24  2  1  0
 23  5  1  0
  1 25  1  0
  1 26  1  0
  1 27  1  0
  3 28  1  0
  4 29  1  0
  6 30  1  0
  9 31  1  0
 14 32  1  0
 15 33  1  0
 15 34  1  0
 19 35  1  0
 19 36  1  0
 24 37  1  0
M  CHG  4   9  -1  14   1  18  -1  22  -1
M  END
>  <UniqueID>  (24) 
24

>  <SMILES>  (24) 
Cc1ccc2cc(C([NH-])=O)n(C(=O)[NH+](CC(=O)[O-])CC(=O)[O-])c2c1

>  <Energy>  (24) 
83.44209272556321

>  <Genealogy>  (24) 
Cc1ccc2cc(C([NH-])=O)n(C(=O)[NH+](CC(=O)[O-])CC(=O)[O-])c2c1 (protonated)
Cc1ccc2cc(C([NH-])=O)n(C(=O)[NH+](CC(=O)[O-])CC(=O)[O-])c2c1 (3D coordinates assigned)
Cc1ccc2cc(C([NH-])=O)n(C(=O)[NH+](CC(=O)[O-])CC(=O)[O-])c2c1 (optimized conformer: 83.44209272556321 kcal/mol)

>  <smiles>  (24) 
Cc1ccc2cc(C(N)=O)n(C(=O)N(CC(=O)O)CC(=O)O)c2c1

>  <score_type>  (24) 
oracle

>  <origin>  (24) 
adg

>  <m_score__min__energy>  (24) 
-5.7599999999999998

>  <m_primary>  (24) 
energy

$$$$
24:0
     RDKit          3D

 41 43  0  0  0  0  0  0  0  0999 V2000
  141.2850  159.8690  135.4020 N   0  0  0  0  0  0  0  0  0  0  0  0
  142.0320  160.4740  134.3500 C   0  0  0  0  0  0  0  0  0  0  0  0
  141.5410  161.4540  133.7290 O   0  0  0  0  0  0  0  0  0  0  0  0
  143.3560  159.9330  133.9810 C   0  0  0  0  0  0  0  0  0  0  0  0
  144.4190  160.7160  133.5340 C   0  0  0  0  0  0  0  0  0  0  0  0
  145.4710  159.8430  133.3660 C   0  0  0  0  0  0  0  0  0  0  0  0
  146.7750  160.0810  132.9440 C   0  0  0  0  0  0  0  0  0  0  0  0
  147.6490  158.9840  132.8560 C   0  0  0  0  0  0  0  0  0  0  0  0
  147.2020  157.6720  133.1650 C   0  0  0  0  0  0  0  0  0  0  0  0
  148.1600  156.5090  133.1090 C   0  0  0  0  0  0  0  0  0  0  0  0
  147.6480  155.4910  132.3250 F   0  0  0  0  0  0  0  0  0  0  0  0
  149.3590  156.9350  132.5700 F   0  0  0  0  0  0  0  0  0  0  0  0
  148.3890  156.0060  134.3780 F   0  0  0  0  0  0  0  0  0  0  0  0
  145.8730  157.4770  133.6100 C   0  0  0  0  0  0  0  0  0  0  0  0
  145.0320  158.5900  133.7020 C   0  0  0  0  0  0  0  0  0  0  0  0
  143.7390  158.6290  134.0850 N   0  0  0  0  0  0  0  0  0  0  0  0
  142.9300  157.5030  134.4590 C   0  0  0  0  0  0  0  0  0  0  0  0
  142.8490  157.1810  135.6760 O   0  0  0  0  0  0  0  0  0  0  0  0
  142.1900  156.7610  133.4670 N   0  0  0  0  0  0  0  0  0  0  0  0
  142.3490  155.3060  133.3540 C   0  0  0  0  0  0  0  0  0  0  0  0
  141.0860  154.5730  133.8280 C   0  0  0  0  0  0  0  0  0  0  0  0
  139.8660  154.9000  132.9460 C   0  0  0  0  0  0  0  0  0  0  0  0
  139.0870  156.0670  133.4030 N   0  0  0  0  0  0  0  0  0  0  0  0
  139.8040  157.3520  133.5110 C   0  0  0  0  0  0  0  0  0  0  0  0
  141.1160  157.4180  132.7140 C   0  0  0  0  0  0  0  0  0  0  0  0
  141.5730  158.9510  135.8080 H   0  0  0  0  0  0  0  0  0  0  0  0
  144.4180  161.8011  133.3536 H   0  0  0  0  0  0  0  0  0  0  0  0
  147.1116  161.0963  132.6872 H   0  0  0  0  0  0  0  0  0  0  0  0
  148.6917  159.1435  132.5441 H   0  0  0  0  0  0  0  0  0  0  0  0
  145.5102  156.4735  133.8772 H   0  0  0  0  0  0  0  0  0  0  0  0
  142.5417  155.0463  132.3026 H   0  0  0  0  0  0  0  0  0  0  0  0
  143.1917  154.9964  133.9897 H   0  0  0  0  0  0  0  0  0  0  0  0
  141.2698  153.4890  133.7928 H   0  0  0  0  0  0  0  0  0  0  0  0
  140.8640  154.9049  134.8530 H   0  0  0  0  0  0  0  0  0  0  0  0
  140.2220  155.1009  131.9248 H   0  0  0  0  0  0  0  0  0  0  0  0
  139.1945  154.0303  132.9987 H   0  0  0  0  0  0  0  0  0  0  0  0
  138.2860  156.1910  132.7390 H   0  0  0  0  0  0  0  0  0  0  0  0
  139.1392  158.1483  133.1451 H   0  0  0  0  0  0  0  0  0  0  0  0
  140.0749  157.4712  134.5704 H   0  0  0  0  0  0  0  0  0  0  0  0
  140.9825  156.9081  131.7485 H   0  0  0  0  0  0  0  0  0  0  0  0
  141.3843  158.4711  132.5438 H   0  0  0  0  0  0  0  0  0  0  0  0
  1  2  1  0
  2  3  2  0
  2  4  1  0
  4  5  2  0
  5  6  1  0
  6  7  2  0
  7  8  1  0
  8  9  2  0
  9 10  1  0
 10 11  1  0
 10 12  1  0
 10 13  1  0
  9 14  1  0
 14 15  2  0
 15 16  1  0
 16 17  1  0
 17 18  2  0
 17 19  1  0
 19 20  1  0
 20 21  1  0
 21 22  1  0
 22 23  1  0
 23 24  1  0
 24 25  1  0
 16  4  1  0
 25 19  1  0
 15  6  1  0
  1 26  1  0
  5 27  1  0
  7 28  1  0
  8 29  1  0
 14 30  1  0
 20 31  1  0
 20 32  1  0
 21 33  1  0
 21 34  1  0
 22 35  1  0
 22 36  1  0
 23 37  1  0
 24 38  1  0
 24 39  1  0
 25 40  1  0
 25 41  1  0
M  CHG  1   1  -1
M  END
>  <UniqueID>  (25) 
25

>  <SMILES>  (25) 
[NH-]C(=O)c1cc2ccc(C(F)(F)F)cc2n1C(=O)N1CCCNCC1

>  <Energy>  (25) 
88.73035956448072

>  <Genealogy>  (25) 
[NH-]C(=O)c1cc2ccc(C(F)(F)F)cc2n1C(=O)N1CCCNCC1 (protonated)
[NH-]C(=O)c1cc2ccc(C(F)(F)F)cc2n1C(=O)N1CCCNCC1 (3D coordinates assigned)
[NH-]C(=O)c1cc2ccc(C(F)(F)F)cc2n1C(=O)N1CCCNCC1 (nonaromatic ring conformer: 88.73035956448072 kcal/mol)

>  <smiles>  (25) 
NC(=O)c1cc2ccc(C(F)(F)F)cc2n1C(=O)N1CCCNCC1

>  <score_type>  (25) 
oracle

>  <origin>  (25) 
adg

>  <m_score__min__energy>  (25) 
-4.6900000000000004

>  <m_primary>  (25) 
energy

$$$$
25:0
     RDKit          3D

 38 39  0  0  0  0  0  0  0  0999 V2000
  147.7460  154.9750  132.8140 C   0  0  0  0  0  0  0  0  0  0  0  0
  147.5220  156.4510  132.9480 C   0  0  0  0  0  0  0  0  0  0  0  0
  148.6270  157.3370  132.9730 C   0  0  0  0  0  0  0  0  0  0  0  0
  148.4310  158.7200  133.1240 C   0  0  0  0  0  0  0  0  0  0  0  0
  147.1250  159.1830  133.2680 C   0  0  0  0  0  0  0  0  0  0  0  0
  146.6490  160.4660  133.4070 C   0  0  0  0  0  0  0  0  0  0  0  0
  145.2640  160.3390  133.5030 C   0  0  0  0  0  0  0  0  0  0  0  0
  144.3540  161.4810  133.7340 C   0  0  0  0  0  0  0  0  0  0  0  0
  142.9520  161.3600  133.5090 N   0  0  0  0  0  0  0  0  0  0  0  0
  144.8160  162.5680  134.1720 O   0  0  0  0  0  0  0  0  0  0  0  0
  144.9000  159.0280  133.4260 N   0  0  0  0  0  0  0  0  0  0  0  0
  143.5720  158.4820  133.4090 C   0  0  0  0  0  0  0  0  0  0  0  0
  143.2630  157.6160  132.5460 O   0  0  0  0  0  0  0  0  0  0  0  0
  142.6060  158.9120  134.3770 N   0  0  0  0  0  0  0  0  0  0  0  0
  141.2650  158.3210  134.4660 C   0  0  1  0  0  0  0  0  0  0  0  0
  140.6830  158.5290  135.8410 C   0  0  0  0  0  0  0  0  0  0  0  0
  141.2560  159.2960  136.6580 O   0  0  0  0  0  0  0  0  0  0  0  0
  139.5360  157.8470  136.2320 O   0  0  0  0  0  0  0  0  0  0  0  0
  140.3320  158.8740  133.3600 C   0  0  2  0  0  0  0  0  0  0  0  0
  139.2340  157.8820  132.9380 C   0  0  0  0  0  0  0  0  0  0  0  0
  141.1030  159.2260  132.2390 O   0  0  0  0  0  0  0  0  0  0  0  0
  146.0500  158.3330  133.2810 C   0  0  0  0  0  0  0  0  0  0  0  0
  146.2140  156.9530  133.1120 C   0  0  0  0  0  0  0  0  0  0  0  0
  147.8147  154.5223  133.8142 H   0  0  0  0  0  0  0  0  0  0  0  0
  146.9059  154.5250  132.2647 H   0  0  0  0  0  0  0  0  0  0  0  0
  148.6818  154.7945  132.2647 H   0  0  0  0  0  0  0  0  0  0  0  0
  149.6475  156.9387  132.8733 H   0  0  0  0  0  0  0  0  0  0  0  0
  149.2828  159.4160  133.1284 H   0  0  0  0  0  0  0  0  0  0  0  0
  147.2367  161.3954  133.4362 H   0  0  0  0  0  0  0  0  0  0  0  0
  142.5780  160.7010  132.7900 H   0  0  0  0  0  0  0  0  0  0  0  0
  142.8550  159.7340  134.9730 H   0  0  0  0  0  0  0  0  0  0  0  0
  141.3555  157.2374  134.3000 H   0  0  0  0  0  0  0  0  0  0  0  0
  139.8202  159.7530  133.7788 H   0  0  0  0  0  0  0  0  0  0  0  0
  138.7613  157.4550  133.8348 H   0  0  0  0  0  0  0  0  0  0  0  0
  138.4758  158.4074  132.3388 H   0  0  0  0  0  0  0  0  0  0  0  0
  139.6800  157.0745  132.3388 H   0  0  0  0  0  0  0  0  0  0  0  0
  141.9830  159.5360  132.5790 H   0  0  0  0  0  0  0  0  0  0  0  0
  145.3456  156.2778  133.1072 H   0  0  0  0  0  0  0  0  0  0  0  0
  1  2  1  0
  2  3  2  0
  3  4  1  0
  4  5  2  0
  5  6  1  0
  6  7  2  0
  7  8  1  0
  8  9  1  0
  8 10  2  0
  7 11  1  0
 11 12  1  0
 12 13  2  0
 12 14  1  0
 14 15  1  0
 15 16  1  0
 16 17  2  0
 16 18  1  0
 15 19  1  0
 19 20  1  0
 19 21  1  0
 11 22  1  0
 22 23  2  0
 23  2  1  0
 22  5  1  0
  1 24  1  0
  1 25  1  0
  1 26  1  0
  3 27  1  0
  4 28  1  0
  6 29  1  0
  9 30  1  0
 14 31  1  0
 15 32  1  6
 19 33  1  1
 20 34  1  0
 20 35  1  0
 20 36  1  0
 21 37  1  0
 23 38  1  0
M  CHG  2   9  -1  18  -1
M  END
>  <UniqueID>  (26) 
26

>  <SMILES>  (26) 
Cc1ccc2cc(C([NH-])=O)n(C(=O)N[C@@H](C(=O)[O-])[C@H](C)O)c2c1

>  <Energy>  (26) 
73.07899908025931

>  <Genealogy>  (26) 
Cc1ccc2cc(C([NH-])=O)n(C(=O)NC(C(=O)[O-])C(C)O)c2c1 (protonated)
Cc1ccc2cc(C([NH-])=O)n(C(=O)N[C@@H](C(=O)[O-])[C@H](C)O)c2c1 (chirality)
Cc1ccc2cc(C([NH-])=O)n(C(=O)N[C@@H](C(=O)[O-])[C@H](C)O)c2c1 (3D coordinates assigned)
Cc1ccc2cc(C([NH-])=O)n(C(=O)N[C@@H](C(=O)[O-])[C@H](C)O)c2c1 (optimized conformer: 73.07899908025931 kcal/mol)

>  <smiles>  (26) 
Cc1ccc2cc(C(N)=O)n(C(=O)NC(C(=O)O)C(C)O)c2c1

>  <score_type>  (26) 
oracle

>  <origin>  (26) 
adg

>  <m_score__min__energy>  (26) 
-7.0199999999999996

>  <m_primary>  (26) 
energy

$$$$
26:0
     RDKit          3D

 42 43  0  0  0  0  0  0  0  0999 V2000
  149.5490  162.2830  130.3610 C   0  0  0  0  0  0  0  0  0  0  0  0
  149.2770  160.9320  130.9570 C   0  0  0  0  0  0  0  0  0  0  0  0
  150.2270  159.8890  130.8290 C   0  0  0  0  0  0  0  0  0  0  0  0
  149.9770  158.6210  131.3850 C   0  0  0  0  0  0  0  0  0  0  0  0
  148.7840  158.4370  132.0800 C   0  0  0  0  0  0  0  0  0  0  0  0
  148.2690  157.3050  132.6730 C   0  0  0  0  0  0  0  0  0  0  0  0
  147.0360  157.6900  133.1920 C   0  0  0  0  0  0  0  0  0  0  0  0
  146.1420  156.7820  133.9400 C   0  0  0  0  0  0  0  0  0  0  0  0
  145.0650  156.0990  133.2950 N   0  0  0  0  0  0  0  0  0  0  0  0
  146.3030  156.6430  135.1830 O   0  0  0  0  0  0  0  0  0  0  0  0
  146.7950  159.0050  132.9290 N   0  0  0  0  0  0  0  0  0  0  0  0
  145.5970  159.7480  133.2030 C   0  0  0  0  0  0  0  0  0  0  0  0
  145.6760  160.9720  133.4940 O   0  0  0  0  0  0  0  0  0  0  0  0
  144.3230  159.0930  133.1290 N   0  0  0  0  0  0  0  0  0  0  0  0
  143.0900  159.6710  133.5890 C   0  0  0  0  0  0  0  0  0  0  0  0
  143.0480  160.8650  133.9940 O   0  0  0  0  0  0  0  0  0  0  0  0
  141.8530  158.8270  133.6580 C   0  0  0  0  0  0  0  0  0  0  0  0
  142.2220  157.4190  134.0520 C   0  0  0  0  0  0  0  0  0  0  0  0
  142.7470  156.6780  133.1730 O   0  0  0  0  0  0  0  0  0  0  0  0
  141.9510  156.8820  135.3670 N   0  0  0  0  0  0  0  0  0  0  0  0
  141.6750  157.7610  136.5100 C   0  0  0  0  0  0  0  0  0  0  0  0
  142.0230  155.4290  135.5640 C   0  0  0  0  0  0  0  0  0  0  0  0
  147.8710  159.4470  132.2440 C   0  0  0  0  0  0  0  0  0  0  0  0
  148.0820  160.7110  131.6780 C   0  0  0  0  0  0  0  0  0  0  0  0
  149.6967  163.0165  131.1673 H   0  0  0  0  0  0  0  0  0  0  0  0
  150.4553  162.2339  129.7395 H   0  0  0  0  0  0  0  0  0  0  0  0
  148.6943  162.5884  129.7395 H   0  0  0  0  0  0  0  0  0  0  0  0
  151.1684  160.0721  130.2902 H   0  0  0  0  0  0  0  0  0  0  0  0
  150.7012  157.8004  131.2743 H   0  0  0  0  0  0  0  0  0  0  0  0
  148.7332  156.3091  132.7252 H   0  0  0  0  0  0  0  0  0  0  0  0
  144.4840  155.4080  133.8230 H   0  0  0  0  0  0  0  0  0  0  0  0
  144.7560  156.3690  132.3340 H   0  0  0  0  0  0  0  0  0  0  0  0
  144.3010  158.1250  132.7410 H   0  0  0  0  0  0  0  0  0  0  0  0
  141.1642  159.2476  134.4054 H   0  0  0  0  0  0  0  0  0  0  0  0
  141.3643  158.8142  132.6726 H   0  0  0  0  0  0  0  0  0  0  0  0
  141.8480  157.2102  137.4463 H   0  0  0  0  0  0  0  0  0  0  0  0
  142.3420  158.6348  136.4700 H   0  0  0  0  0  0  0  0  0  0  0  0
  140.6282  158.0967  136.4700 H   0  0  0  0  0  0  0  0  0  0  0  0
  142.0341  155.2051  136.6409 H   0  0  0  0  0  0  0  0  0  0  0  0
  141.1474  154.9522  135.0993 H   0  0  0  0  0  0  0  0  0  0  0  0
  142.9415  155.0410  135.0993 H   0  0  0  0  0  0  0  0  0  0  0  0
  147.3361  161.5114  131.7920 H   0  0  0  0  0  0  0  0  0  0  0  0
  1  2  1  0
  2  3  2  0
  3  4  1  0
  4  5  2  0
  5  6  1  0
  6  7  2  0
  7  8  1  0
  8  9  1  0
  8 10  2  0
  7 11  1  0
 11 12  1  0
 12 13  2  0
 12 14  1  0
 14 15  1  0
 15 16  2  0
 15 17  1  0
 17 18  1  0
 18 19  2  0
 18 20  1  0
 20 21  1  0
 20 22  1  0
 11 23  1  0
 23 24  2  0
 24  2  1  0
 23  5  1  0
  1 25  1  0
  1 26  1  0
  1 27  1  0
  3 28  1  0
  4 29  1  0
  6 30  1  0
  9 31  1  0
  9 32  1  0
 14 33  1  0
 17 34  1  0
 17 35  1  0
 21 36  1  0
 21 37  1  0
 21 38  1  0
 22 39  1  0
 22 40  1  0
 22 41  1  0
 24 42  1  0
M  END
>  <UniqueID>  (27) 
27

>  <SMILES>  (27) 
Cc1ccc2cc(C(N)=O)n(C(=O)NC(=O)CC(=O)N(C)C)c2c1

>  <Energy>  (27) 
75.44981517510901

>  <Genealogy>  (27) 
Cc1ccc2cc(C(N)=O)n(C(=O)NC(=O)CC(=O)N(C)C)c2c1 (3D coordinates assigned)
Cc1ccc2cc(C(N)=O)n(C(=O)NC(=O)CC(=O)N(C)C)c2c1 (optimized conformer: 75.44981517510901 kcal/mol)

>  <smiles>  (27) 
Cc1ccc2cc(C(N)=O)n(C(=O)NC(=O)CC(=O)N(C)C)c2c1

>  <score_type>  (27) 
oracle

>  <origin>  (27) 
adg

>  <m_score__min__energy>  (27) 
-7.9900000000000002

>  <m_primary>  (27) 
energy

$$$$
27:0
     RDKit          3D

 37 38  0  0  0  0  0  0  0  0999 V2000
  142.5660  160.4190  134.1560 H   0  0  0  0  0  0  0  0  0  0  0  0
  143.0440  161.2400  133.7250 N   0  0  0  0  0  0  0  0  0  0  0  0
  144.4570  161.4040  133.8310 C   0  0  0  0  0  0  0  0  0  0  0  0
  144.9280  162.5360  134.1140 O   0  0  0  0  0  0  0  0  0  0  0  0
  145.3510  160.2560  133.5740 C   0  0  0  0  0  0  0  0  0  0  0  0
  146.6970  160.3840  133.2340 C   0  0  0  0  0  0  0  0  0  0  0  0
  147.2533  161.3155  133.0529 H   0  0  0  0  0  0  0  0  0  0  0  0
  147.1820  159.0970  133.1730 C   0  0  0  0  0  0  0  0  0  0  0  0
  148.4620  158.6320  132.8850 C   0  0  0  0  0  0  0  0  0  0  0  0
  149.2823  159.3304  132.6627 H   0  0  0  0  0  0  0  0  0  0  0  0
  148.6740  157.2430  132.8870 C   0  0  0  0  0  0  0  0  0  0  0  0
  149.6781  156.8460  132.6770 H   0  0  0  0  0  0  0  0  0  0  0  0
  147.6070  156.3460  133.1570 C   0  0  0  0  0  0  0  0  0  0  0  0
  147.8390  154.8560  133.1910 C   0  0  0  0  0  0  0  0  0  0  0  0
  148.0070  154.4510  134.5020 F   0  0  0  0  0  0  0  0  0  0  0  0
  146.7510  154.1950  132.6500 F   0  0  0  0  0  0  0  0  0  0  0  0
  148.9640  154.5070  132.4650 F   0  0  0  0  0  0  0  0  0  0  0  0
  146.3280  156.8600  133.4680 C   0  0  0  0  0  0  0  0  0  0  0  0
  145.4926  156.1849  133.7054 H   0  0  0  0  0  0  0  0  0  0  0  0
  146.1490  158.2470  133.4670 C   0  0  0  0  0  0  0  0  0  0  0  0
  145.0180  158.9420  133.7090 N   0  0  0  0  0  0  0  0  0  0  0  0
  143.7300  158.3790  133.9950 C   0  0  0  0  0  0  0  0  0  0  0  0
  143.2280  158.5440  135.1390 O   0  0  0  0  0  0  0  0  0  0  0  0
  143.0220  157.5990  132.9520 C   0  0  0  0  0  0  0  0  0  0  0  0
  143.6054  156.8395  132.4109 H   0  0  0  0  0  0  0  0  0  0  0  0
  141.7320  157.7380  132.6100 C   0  0  0  0  0  0  0  0  0  0  0  0
  141.3603  157.1390  131.7656 H   0  0  0  0  0  0  0  0  0  0  0  0
  140.7780  158.6350  133.2840 C   0  0  0  0  0  0  0  0  0  0  0  0
  140.7980  159.8620  132.9960 O   0  0  0  0  0  0  0  0  0  0  0  0
  139.8000  158.1420  134.2160 N   0  0  0  0  0  0  0  0  0  0  0  0
  138.5490  157.8830  133.7580 O   0  0  0  0  0  0  0  0  0  0  0  0
  140.1700  157.7970  135.5950 C   0  0  0  0  0  0  0  0  0  0  0  0
  139.2931  157.3684  136.1024 H   0  0  0  0  0  0  0  0  0  0  0  0
  140.9972  157.0730  135.5563 H   0  0  0  0  0  0  0  0  0  0  0  0
  140.6360  158.9960  136.3620 C   0  0  0  0  0  0  0  0  0  0  0  0
  140.6660  158.9700  137.6210 O   0  0  0  0  0  0  0  0  0  0  0  0
  140.9880  160.1580  135.6890 O   0  0  0  0  0  0  0  0  0  0  0  0
  1  2  1  0
  2  3  1  0
  3  4  2  0
  3  5  1  0
  5  6  2  0
  6  7  1  0
  6  8  1  0
  8  9  2  0
  9 10  1  0
  9 11  1  0
 11 12  1  0
 11 13  2  0
 13 14  1  0
 14 15  1  0
 14 16  1  0
 14 17  1  0
 13 18  1  0
 18 19  1  0
 18 20  2  0
 20 21  1  0
 21 22  1  0
 22 23  2  0
 22 24  1  0
 24 25  1  0
 24 26  2  0
 26 27  1  0
 26 28  1  0
 28 29  2  0
 28 30  1  0
 30 31  1  0
 30 32  1  0
 32 33  1  0
 32 34  1  0
 32 35  1  0
 35 36  2  0
 35 37  1  0
 21  5  1  0
 20  8  1  0
M  CHG  3   2  -1  31  -1  37  -1
M  END
>  <UniqueID>  (28) 
28

>  <SMILES>  (28) 
[NH-]C(=O)c1cc2ccc(C(F)(F)F)cc2n1C(=O)/C=C\C(=O)N([O-])CC(=O)[O-]

>  <Energy>  (28) 
83.89587306267303

>  <Genealogy>  (28) 
[NH-]C(=O)c1cc2ccc(C(F)(F)F)cc2n1C(=O)/C=C\C(=O)N([O-])CC(=O)[O-] (protonated)
[NH-]C(=O)c1cc2ccc(C(F)(F)F)cc2n1C(=O)/C=C\C(=O)N([O-])CC(=O)[O-] (cis-trans isomerization)
[NH-]C(=O)c1cc2ccc(C(F)(F)F)cc2n1C(=O)/C=C\C(=O)N([O-])CC(=O)[O-] (3D coordinates assigned)
[NH-]C(=O)c1cc2ccc(C(F)(F)F)cc2n1C(=O)/C=C\C(=O)N([O-])CC(=O)[O-] (optimized conformer: 83.89587306267303 kcal/mol)

>  <smiles>  (28) 
NC(=O)c1cc2ccc(C(F)(F)F)cc2n1C(=O)/C=C\C(=O)N(O)CC(=O)O

>  <score_type>  (28) 
oracle

>  <origin>  (28) 
adg

>  <m_score__min__energy>  (28) 
-6.8899999999999997

>  <m_primary>  (28) 
energy

$$$$
28:0
     RDKit          3D

 39 41  0  0  0  0  0  0  0  0999 V2000
  142.0990  158.9940  132.9970 N   0  0  0  0  0  0  0  0  0  0  0  0
  141.5750  159.5880  134.1820 C   0  0  0  0  0  0  0  0  0  0  0  0
  141.2670  160.8100  134.1740 O   0  0  0  0  0  0  0  0  0  0  0  0
  141.4210  158.8030  135.4260 C   0  0  0  0  0  0  0  0  0  0  0  0
  141.8080  159.2650  136.6820 C   0  0  0  0  0  0  0  0  0  0  0  0
  141.5570  158.2240  137.5470 C   0  0  0  0  0  0  0  0  0  0  0  0
  141.7590  158.1330  138.9200 C   0  0  0  0  0  0  0  0  0  0  0  0
  141.3960  156.9360  139.5610 C   0  0  0  0  0  0  0  0  0  0  0  0
  140.8170  155.8670  138.8290 C   0  0  0  0  0  0  0  0  0  0  0  0
  140.4690  154.5730  139.5190 C   0  0  0  0  0  0  0  0  0  0  0  0
  141.6320  153.9630  139.9550 F   0  0  0  0  0  0  0  0  0  0  0  0
  139.6470  154.8040  140.6080 F   0  0  0  0  0  0  0  0  0  0  0  0
  139.8100  153.7180  138.6530 F   0  0  0  0  0  0  0  0  0  0  0  0
  140.6480  155.9930  137.4300 C   0  0  0  0  0  0  0  0  0  0  0  0
  141.0350  157.1890  136.8170 C   0  0  0  0  0  0  0  0  0  0  0  0
  140.9480  157.5270  135.5110 N   0  0  0  0  0  0  0  0  0  0  0  0
  140.4070  156.7230  134.4520 C   0  0  0  0  0  0  0  0  0  0  0  0
  140.8940  155.5820  134.2260 O   0  0  0  0  0  0  0  0  0  0  0  0
  139.2850  157.2200  133.5920 C   0  0  0  0  0  0  0  0  0  0  0  0
  139.8020  157.7720  132.3980 O   0  0  0  0  0  0  0  0  0  0  0  0
  138.7560  158.1860  131.5410 C   0  0  0  0  0  0  0  0  0  0  0  0
  138.8390  159.7020  131.3230 C   0  0  0  0  0  0  0  0  0  0  0  0
  139.8630  160.4110  131.9610 O   0  0  0  0  0  0  0  0  0  0  0  0
  137.5530  160.4810  131.1030 C   0  0  0  0  0  0  0  0  0  0  0  0
  138.5030  160.2210  129.9360 C   0  0  0  0  0  0  0  0  0  0  0  0
  141.5680  159.0300  132.0990 H   0  0  0  0  0  0  0  0  0  0  0  0
  142.2255  160.2520  136.9299 H   0  0  0  0  0  0  0  0  0  0  0  0
  142.1895  158.9718  139.4867 H   0  0  0  0  0  0  0  0  0  0  0  0
  141.5627  156.8265  140.6428 H   0  0  0  0  0  0  0  0  0  0  0  0
  140.2221  155.1694  136.8381 H   0  0  0  0  0  0  0  0  0  0  0  0
  138.6152  156.3827  133.3466 H   0  0  0  0  0  0  0  0  0  0  0  0
  138.7269  157.9953  134.1373 H   0  0  0  0  0  0  0  0  0  0  0  0
  138.8501  157.6713  130.5734 H   0  0  0  0  0  0  0  0  0  0  0  0
  137.7877  157.9352  131.9988 H   0  0  0  0  0  0  0  0  0  0  0  0
  140.4100  159.7260  132.4250 H   0  0  0  0  0  0  0  0  0  0  0  0
  136.5824  159.9654  131.1482 H   0  0  0  0  0  0  0  0  0  0  0  0
  137.0977  161.3758  131.5524 H   0  0  0  0  0  0  0  0  0  0  0  0
  138.2171  159.5181  129.1396 H   0  0  0  0  0  0  0  0  0  0  0  0
  139.0166  160.8510  129.1948 H   0  0  0  0  0  0  0  0  0  0  0  0
  1  2  1  0
  2  3  2  0
  2  4  1  0
  4  5  2  0
  5  6  1  0
  6  7  2  0
  7  8  1  0
  8  9  2  0
  9 10  1  0
 10 11  1  0
 10 12  1  0
 10 13  1  0
  9 14  1  0
 14 15  2  0
 15 16  1  0
 16 17  1  0
 17 18  2  0
 17 19  1  0
 19 20  1  0
 20 21  1  0
 21 22  1  0
 22 23  1  0
 22 24  1  0
 24 25  1  0
 16  4  1  0
 25 22  1  0
 15  6  1  0
  1 26  1  0
  5 27  1  0
  7 28  1  0
  8 29  1  0
 14 30  1  0
 19 31  1  0
 19 32  1  0
 21 33  1  0
 21 34  1  0
 23 35  1  0
 24 36  1  0
 24 37  1  0
 25 38  1  0
 25 39  1  0
M  CHG  1   1  -1
M  END
>  <UniqueID>  (29) 
29

>  <SMILES>  (29) 
[NH-]C(=O)c1cc2ccc(C(F)(F)F)cc2n1C(=O)COCC1(O)CC1

>  <Energy>  (29) 
348.59000139871097

>  <Genealogy>  (29) 
[NH-]C(=O)c1cc2ccc(C(F)(F)F)cc2n1C(=O)COCC1(O)CC1 (protonated)
[NH-]C(=O)c1cc2ccc(C(F)(F)F)cc2n1C(=O)COCC1(O)CC1 (3D coordinates assigned)
[NH-]C(=O)c1cc2ccc(C(F)(F)F)cc2n1C(=O)COCC1(O)CC1 (nonaromatic ring conformer: 348.59000139871097 kcal/mol)

>  <smiles>  (29) 
NC(=O)c1cc2ccc(C(F)(F)F)cc2n1C(=O)COCC1(O)CC1

>  <score_type>  (29) 
oracle

>  <origin>  (29) 
adg

>  <m_score__min__energy>  (29) 
-5.8700000000000001

>  <m_primary>  (29) 
energy

$$$$
29:0
     RDKit          3D

 39 40  0  0  0  0  0  0  0  0999 V2000
  140.6660  156.6060  133.6070 C   0  0  0  0  0  0  0  0  0  0  0  0
  140.6210  158.1150  133.8590 C   0  0  2  0  0  0  0  0  0  0  0  0
  139.7350  158.7710  132.8850 C   0  0  0  0  0  0  0  0  0  0  0  0
  139.0380  159.2880  132.1200 N   0  0  0  0  0  0  0  0  0  0  0  0
  142.0090  158.7170  133.8040 C   0  0  0  0  0  0  0  0  0  0  0  0
  142.1650  160.1270  133.7720 C   0  0  0  0  0  0  0  0  0  0  0  0
  143.4430  160.7080  133.7200 C   0  0  0  0  0  0  0  0  0  0  0  0
  144.5460  159.8600  133.7160 C   0  0  0  0  0  0  0  0  0  0  0  0
  145.8880  160.1550  133.6340 C   0  0  0  0  0  0  0  0  0  0  0  0
  146.5360  158.9230  133.6540 C   0  0  0  0  0  0  0  0  0  0  0  0
  148.0050  158.7770  133.6490 C   0  0  0  0  0  0  0  0  0  0  0  0
  148.6270  157.5760  133.1900 N   0  0  0  0  0  0  0  0  0  0  0  0
  148.7210  159.7080  134.1060 O   0  0  0  0  0  0  0  0  0  0  0  0
  145.6340  157.9050  133.7320 N   0  0  0  0  0  0  0  0  0  0  0  0
  145.8990  156.4950  133.6480 C   0  0  0  0  0  0  0  0  0  0  0  0
  145.3150  155.7970  132.7760 O   0  0  0  0  0  0  0  0  0  0  0  0
  146.8490  155.8950  134.5400 N   0  0  0  0  0  0  0  0  0  0  0  0
  147.1050  154.4610  134.6980 C   0  0  1  0  0  0  0  0  0  0  0  0
  148.1210  153.9680  133.6520 C   0  0  0  0  0  0  0  0  0  0  0  0
  148.2870  154.9110  132.6290 O   0  0  0  0  0  0  0  0  0  0  0  0
  147.4940  154.1240  136.1170 C   0  0  0  0  0  0  0  0  0  0  0  0
  148.3590  154.8080  136.7270 O   0  0  0  0  0  0  0  0  0  0  0  0
  146.9640  152.9960  136.7320 O   0  0  0  0  0  0  0  0  0  0  0  0
  144.4190  158.4950  133.7710 C   0  0  0  0  0  0  0  0  0  0  0  0
  143.1580  157.8890  133.8010 C   0  0  0  0  0  0  0  0  0  0  0  0
  140.6819  156.0738  134.5696 H   0  0  0  0  0  0  0  0  0  0  0  0
  139.7765  156.3031  133.0352 H   0  0  0  0  0  0  0  0  0  0  0  0
  141.5720  156.3566  133.0352 H   0  0  0  0  0  0  0  0  0  0  0  0
  140.2185  158.2816  134.8691 H   0  0  0  0  0  0  0  0  0  0  0  0
  141.2747  160.7728  133.7881 H   0  0  0  0  0  0  0  0  0  0  0  0
  143.5678  161.8003  133.6835 H   0  0  0  0  0  0  0  0  0  0  0  0
  146.3497  161.1512  133.5670 H   0  0  0  0  0  0  0  0  0  0  0  0
  149.6670  157.5060  133.1490 H   0  0  0  0  0  0  0  0  0  0  0  0
  148.0590  156.7320  132.9550 H   0  0  0  0  0  0  0  0  0  0  0  0
  146.1704  153.9136  134.5059 H   0  0  0  0  0  0  0  0  0  0  0  0
  149.0898  153.7972  134.1443 H   0  0  0  0  0  0  0  0  0  0  0  0
  147.7432  153.0344  133.2097 H   0  0  0  0  0  0  0  0  0  0  0  0
  147.4020  155.3450  132.5080 H   0  0  0  0  0  0  0  0  0  0  0  0
  143.0613  156.7935  133.8218 H   0  0  0  0  0  0  0  0  0  0  0  0
  1  2  1  0
  2  3  1  0
  3  4  3  0
  2  5  1  0
  5  6  2  0
  6  7  1  0
  7  8  2  0
  8  9  1  0
  9 10  2  0
 10 11  1  0
 11 12  1  0
 11 13  2  0
 10 14  1  0
 14 15  1  0
 15 16  2  0
 15 17  1  0
 17 18  1  0
 18 19  1  0
 19 20  1  0
 18 21  1  0
 21 22  2  0
 21 23  1  0
 14 24  1  0
 24 25  2  0
 25  5  1  0
 24  8  1  0
  1 26  1  0
  1 27  1  0
  1 28  1  0
  2 29  1  1
  6 30  1  0
  7 31  1  0
  9 32  1  0
 12 33  1  0
 12 34  1  0
 18 35  1  6
 19 36  1  0
 19 37  1  0
 20 38  1  0
 25 39  1  0
M  CHG  2  17  -1  23  -1
M  END
>  <UniqueID>  (30) 
30

>  <SMILES>  (30) 
C[C@H](C#N)c1ccc2cc(C(N)=O)n(C(=O)[N-][C@@H](CO)C(=O)[O-])c2c1

>  <Energy>  (30) 
74.64405342634856

>  <Genealogy>  (30) 
CC(C#N)c1ccc2cc(C(N)=O)n(C(=O)[N-][C@@H](CO)C(=O)[O-])c2c1 (protonated)
C[C@H](C#N)c1ccc2cc(C(N)=O)n(C(=O)[N-][C@@H](CO)C(=O)[O-])c2c1 (chirality)
C[C@H](C#N)c1ccc2cc(C(N)=O)n(C(=O)[N-][C@@H](CO)C(=O)[O-])c2c1 (3D coordinates assigned)
C[C@H](C#N)c1ccc2cc(C(N)=O)n(C(=O)[N-][C@@H](CO)C(=O)[O-])c2c1 (optimized conformer: 74.64405342634856 kcal/mol)

>  <smiles>  (30) 
CC(C#N)c1ccc2cc(C(N)=O)n(C(=O)N[C@@H](CO)C(=O)O)c2c1

>  <score_type>  (30) 
oracle

>  <origin>  (30) 
adg

>  <m_score__min__energy>  (30) 
-7.4000000000000004

>  <m_primary>  (30) 
energy

$$$$
30:0
     RDKit          3D

 41 42  0  0  0  0  0  0  0  0999 V2000
  148.4380  153.5840  133.4250 C   0  0  0  0  0  0  0  0  0  0  0  0
  148.1510  154.5490  132.3680 N   0  0  0  0  0  0  0  0  0  0  0  0
  147.8150  155.9270  132.6180 C   0  0  0  0  0  0  0  0  0  0  0  0
  148.8470  156.8980  132.6310 C   0  0  0  0  0  0  0  0  0  0  0  0
  148.5640  158.2530  132.8760 C   0  0  0  0  0  0  0  0  0  0  0  0
  147.2400  158.6110  133.0970 C   0  0  0  0  0  0  0  0  0  0  0  0
  146.6870  159.8410  133.3790 C   0  0  0  0  0  0  0  0  0  0  0  0
  145.3200  159.6090  133.5180 C   0  0  0  0  0  0  0  0  0  0  0  0
  144.3290  160.6820  133.7340 C   0  0  0  0  0  0  0  0  0  0  0  0
  142.9640  160.5030  133.3640 N   0  0  0  0  0  0  0  0  0  0  0  0
  144.6990  161.7920  134.2040 O   0  0  0  0  0  0  0  0  0  0  0  0
  145.0410  158.2860  133.3410 N   0  0  0  0  0  0  0  0  0  0  0  0
  143.7780  157.6170  133.4860 C   0  0  0  0  0  0  0  0  0  0  0  0
  142.9640  157.6080  132.5210 O   0  0  0  0  0  0  0  0  0  0  0  0
  143.4360  156.8830  134.7510 C   0  0  0  0  0  0  0  0  0  0  0  0
  143.1840  155.4260  134.4620 C   0  0  0  0  0  0  0  0  0  0  0  0
  142.0810  155.1090  133.9380 O   0  0  0  0  0  0  0  0  0  0  0  0
  144.1820  154.4060  134.6860 N   0  0  0  0  0  0  0  0  0  0  0  0
  144.6830  153.6490  133.5340 C   0  0  0  0  0  0  0  0  0  0  0  0
  144.6710  154.0750  136.0320 C   0  0  0  0  0  0  0  0  0  0  0  0
  146.1650  154.1220  136.0800 C   0  0  0  0  0  0  0  0  0  0  0  0
  146.7850  155.1080  135.6000 O   0  0  0  0  0  0  0  0  0  0  0  0
  146.8720  153.1040  136.7080 O   0  0  0  0  0  0  0  0  0  0  0  0
  146.2240  157.6910  133.0780 C   0  0  0  0  0  0  0  0  0  0  0  0
  146.4770  156.3340  132.8490 C   0  0  0  0  0  0  0  0  0  0  0  0
  148.2960  154.0614  134.4058 H   0  0  0  0  0  0  0  0  0  0  0  0
  147.7563  152.7257  133.3329 H   0  0  0  0  0  0  0  0  0  0  0  0
  149.4780  153.2377  133.3329 H   0  0  0  0  0  0  0  0  0  0  0  0
  148.1980  154.2110  131.3780 H   0  0  0  0  0  0  0  0  0  0  0  0
  149.8857  156.5866  132.4465 H   0  0  0  0  0  0  0  0  0  0  0  0
  149.3656  159.0061  132.8922 H   0  0  0  0  0  0  0  0  0  0  0  0
  147.2130  160.8024  133.4742 H   0  0  0  0  0  0  0  0  0  0  0  0
  142.6890  159.7830  132.6610 H   0  0  0  0  0  0  0  0  0  0  0  0
  144.2729  156.9724  135.4593 H   0  0  0  0  0  0  0  0  0  0  0  0
  142.5255  157.3233  135.1836 H   0  0  0  0  0  0  0  0  0  0  0  0
  145.2578  152.7805  133.8879 H   0  0  0  0  0  0  0  0  0  0  0  0
  143.8345  153.3037  132.9251 H   0  0  0  0  0  0  0  0  0  0  0  0
  145.3324  154.2951  132.9251 H   0  0  0  0  0  0  0  0  0  0  0  0
  144.2639  154.8001  136.7521 H   0  0  0  0  0  0  0  0  0  0  0  0
  144.3416  153.0568  136.2866 H   0  0  0  0  0  0  0  0  0  0  0  0
  145.6572  155.6006  132.8483 H   0  0  0  0  0  0  0  0  0  0  0  0
  1  2  1  0
  2  3  1  0
  3  4  2  0
  4  5  1  0
  5  6  2  0
  6  7  1  0
  7  8  2  0
  8  9  1  0
  9 10  1  0
  9 11  2  0
  8 12  1  0
 12 13  1  0
 13 14  2  0
 13 15  1  0
 15 16  1  0
 16 17  2  0
 16 18  1  0
 18 19  1  0
 18 20  1  0
 20 21  1  0
 21 22  2  0
 21 23  1  0
 12 24  1  0
 24 25  2  0
 25  3  1  0
 24  6  1  0
  1 26  1  0
  1 27  1  0
  1 28  1  0
  2 29  1  0
  4 30  1  0
  5 31  1  0
  7 32  1  0
 10 33  1  0
 15 34  1  0
 15 35  1  0
 19 36  1  0
 19 37  1  0
 19 38  1  0
 20 39  1  0
 20 40  1  0
 25 41  1  0
M  CHG  2  10  -1  23  -1
M  END
>  <UniqueID>  (31) 
31

>  <SMILES>  (31) 
CNc1ccc2cc(C([NH-])=O)n(C(=O)CC(=O)N(C)CC(=O)[O-])c2c1

>  <Energy>  (31) 
74.24950276773748

>  <Genealogy>  (31) 
CNc1ccc2cc(C([NH-])=O)n(C(=O)CC(=O)N(C)CC(=O)[O-])c2c1 (protonated)
CNc1ccc2cc(C([NH-])=O)n(C(=O)CC(=O)N(C)CC(=O)[O-])c2c1 (3D coordinates assigned)
CNc1ccc2cc(C([NH-])=O)n(C(=O)CC(=O)N(C)CC(=O)[O-])c2c1 (optimized conformer: 74.24950276773748 kcal/mol)

>  <smiles>  (31) 
CNc1ccc2cc(C(N)=O)n(C(=O)CC(=O)N(C)CC(=O)O)c2c1

>  <score_type>  (31) 
oracle

>  <origin>  (31) 
adg

>  <m_score__min__energy>  (31) 
-6.8300000000000001

>  <m_primary>  (31) 
energy

$$$$
31:0
     RDKit          3D

 38 39  0  0  0  0  0  0  0  0999 V2000
  141.5810  158.6540  134.5550 C   0  0  0  0  0  0  0  0  0  0  0  0
  142.9640  159.1080  134.1960 C   0  0  0  0  0  0  0  0  0  0  0  0
  143.2530  160.4920  134.1090 C   0  0  0  0  0  0  0  0  0  0  0  0
  144.5310  160.9330  133.7280 C   0  0  0  0  0  0  0  0  0  0  0  0
  145.4950  159.9710  133.4390 C   0  0  0  0  0  0  0  0  0  0  0  0
  146.7950  160.1220  133.0170 C   0  0  0  0  0  0  0  0  0  0  0  0
  147.2860  158.8270  132.8670 C   0  0  0  0  0  0  0  0  0  0  0  0
  148.6810  158.5280  132.4900 C   0  0  0  0  0  0  0  0  0  0  0  0
  149.0280  157.2920  131.8610 N   0  0  0  0  0  0  0  0  0  0  0  0
  149.5900  159.3500  132.7790 O   0  0  0  0  0  0  0  0  0  0  0  0
  146.3240  157.9100  133.1670 N   0  0  0  0  0  0  0  0  0  0  0  0
  146.4060  156.4810  133.0330 C   0  0  0  0  0  0  0  0  0  0  0  0
  146.6100  155.9640  131.9010 O   0  0  0  0  0  0  0  0  0  0  0  0
  146.2570  155.6680  134.1590 O   0  0  0  0  0  0  0  0  0  0  0  0
  147.3040  154.8410  134.6610 C   0  0  0  0  0  0  0  0  0  0  0  0
  147.4620  153.5950  133.7740 C   0  0  1  0  0  0  0  0  0  0  0  0
  146.3850  153.5480  132.7840 N   0  0  0  0  0  0  0  0  0  0  0  0
  148.8310  153.5680  133.0690 C   0  0  0  0  0  0  0  0  0  0  0  0
  148.8480  154.4360  131.9650 O   0  0  0  0  0  0  0  0  0  0  0  0
  145.2330  158.6250  133.5210 C   0  0  0  0  0  0  0  0  0  0  0  0
  143.9600  158.1600  133.8760 C   0  0  0  0  0  0  0  0  0  0  0  0
  141.4787  158.6204  135.6497 H   0  0  0  0  0  0  0  0  0  0  0  0
  140.8447  159.3576  134.1393 H   0  0  0  0  0  0  0  0  0  0  0  0
  141.4049  157.6509  134.1393 H   0  0  0  0  0  0  0  0  0  0  0  0
  142.4695  161.2281  134.3419 H   0  0  0  0  0  0  0  0  0  0  0  0
  144.7632  162.0061  133.6600 H   0  0  0  0  0  0  0  0  0  0  0  0
  147.3326  161.0645  132.8364 H   0  0  0  0  0  0  0  0  0  0  0  0
  148.3300  156.5230  131.7630 H   0  0  0  0  0  0  0  0  0  0  0  0
  150.0130  157.1130  131.5680 H   0  0  0  0  0  0  0  0  0  0  0  0
  148.2465  155.4081  134.6635 H   0  0  0  0  0  0  0  0  0  0  0  0
  147.0552  154.5257  135.6850 H   0  0  0  0  0  0  0  0  0  0  0  0
  147.4034  152.7089  134.4232 H   0  0  0  0  0  0  0  0  0  0  0  0
  146.7860  153.7930  131.8480 H   0  0  0  0  0  0  0  0  0  0  0  0
  145.6990  154.3060  133.0060 H   0  0  0  0  0  0  0  0  0  0  0  0
  149.6087  153.8785  133.7823 H   0  0  0  0  0  0  0  0  0  0  0  0
  149.0203  152.5448  132.7121 H   0  0  0  0  0  0  0  0  0  0  0  0
  147.9690  154.3430  131.5130 H   0  0  0  0  0  0  0  0  0  0  0  0
  143.7418  157.0822  133.9047 H   0  0  0  0  0  0  0  0  0  0  0  0
  1  2  1  0
  2  3  2  0
  3  4  1  0
  4  5  2  0
  5  6  1  0
  6  7  2  0
  7  8  1  0
  8  9  1  0
  8 10  2  0
  7 11  1  0
 11 12  1  0
 12 13  2  0
 12 14  1  0
 14 15  1  0
 15 16  1  0
 16 17  1  0
 16 18  1  0
 18 19  1  0
 11 20  1  0
 20 21  2  0
 21  2  1  0
 20  5  1  0
  1 22  1  0
  1 23  1  0
  1 24  1  0
  3 25  1  0
  4 26  1  0
  6 27  1  0
  9 28  1  0
  9 29  1  0
 15 30  1  0
 15 31  1  0
 16 32  1  1
 17 33  1  0
 17 34  1  0
 18 35  1  0
 18 36  1  0
 19 37  1  0
 21 38  1  0
M  END
>  <UniqueID>  (32) 
32

>  <SMILES>  (32) 
Cc1ccc2cc(C(N)=O)n(C(=O)OC[C@@H](N)CO)c2c1

>  <Energy>  (32) 
70.62308465580334

>  <Genealogy>  (32) 
Cc1ccc2cc(C(N)=O)n(C(=O)OC[C@@H](N)CO)c2c1 (3D coordinates assigned)
Cc1ccc2cc(C(N)=O)n(C(=O)OC[C@@H](N)CO)c2c1 (optimized conformer: 70.62308465580334 kcal/mol)

>  <smiles>  (32) 
Cc1ccc2cc(C(N)=O)n(C(=O)OC[C@@H](N)CO)c2c1

>  <score_type>  (32) 
oracle

>  <origin>  (32) 
adg

>  <m_score__min__energy>  (32) 
-6.4800000000000004

>  <m_primary>  (32) 
energy

$$$$
32:0
     RDKit          3D

 52 53  0  0  0  0  0  0  0  0999 V2000
  145.4990  151.8800  132.1310 C   0  0  0  0  0  0  0  0  0  0  0  0
  144.2590  152.3530  132.7540 N   0  0  0  0  0  0  0  0  0  0  0  0
  143.0290  151.5600  132.6160 C   0  0  0  0  0  0  0  0  0  0  0  0
  141.8130  152.4410  132.2810 C   0  0  0  0  0  0  0  0  0  0  0  0
  141.0830  152.9890  133.5280 C   0  0  1  0  0  0  0  0  0  0  0  0
  141.3390  152.1370  134.7450 C   0  0  0  0  0  0  0  0  0  0  0  0
  141.9170  152.5960  135.7180 O   0  0  0  0  0  0  0  0  0  0  0  0
  141.5070  154.3670  133.7900 N   0  0  0  0  0  0  0  0  0  0  0  0
  140.6620  155.4950  133.5190 C   0  0  0  0  0  0  0  0  0  0  0  0
  139.4710  155.3200  133.1440 O   0  0  0  0  0  0  0  0  0  0  0  0
  141.1570  156.8290  133.7100 N   0  0  0  0  0  0  0  0  0  0  0  0
  142.2030  157.2300  134.4860 C   0  0  0  0  0  0  0  0  0  0  0  0
  143.1470  156.3390  135.1930 C   0  0  0  0  0  0  0  0  0  0  0  0
  142.6580  155.4040  136.1540 N   0  0  0  0  0  0  0  0  0  0  0  0
  144.3860  156.4130  134.9810 O   0  0  0  0  0  0  0  0  0  0  0  0
  142.3260  158.6180  134.4600 C   0  0  0  0  0  0  0  0  0  0  0  0
  141.3190  159.0560  133.6300 C   0  0  0  0  0  0  0  0  0  0  0  0
  140.9780  160.3470  133.2390 C   0  0  0  0  0  0  0  0  0  0  0  0
  139.8780  160.5070  132.3780 C   0  0  0  0  0  0  0  0  0  0  0  0
  139.1280  159.3830  131.9440 C   0  0  0  0  0  0  0  0  0  0  0  0
  137.9760  159.5640  130.9890 C   0  0  0  0  0  0  0  0  0  0  0  0
  136.9950  158.6340  131.2800 F   0  0  0  0  0  0  0  0  0  0  0  0
  137.4400  160.8350  131.1060 F   0  0  0  0  0  0  0  0  0  0  0  0
  138.3910  159.3880  129.6810 F   0  0  0  0  0  0  0  0  0  0  0  0
  139.5230  158.0860  132.3450 C   0  0  0  0  0  0  0  0  0  0  0  0
  140.6300  157.9570  133.1900 C   0  0  0  0  0  0  0  0  0  0  0  0
  144.2710  153.6010  133.4700 C   0  0  0  0  0  0  0  0  0  0  0  0
  144.2400  154.6960  132.8430 O   0  0  0  0  0  0  0  0  0  0  0  0
  144.3240  153.5970  134.8700 O   0  0  0  0  0  0  0  0  0  0  0  0
  145.5180  153.8320  135.6140 C   0  0  0  0  0  0  0  0  0  0  0  0
  145.2790  153.6230  137.1070 C   0  0  0  0  0  0  0  0  0  0  0  0
  143.9230  153.3660  137.3390 O   0  0  0  0  0  0  0  0  0  0  0  0
  146.2209  151.6046  132.9140 H   0  0  0  0  0  0  0  0  0  0  0  0
  145.2831  151.0011  131.5058 H   0  0  0  0  0  0  0  0  0  0  0  0
  145.9233  152.6794  131.5058 H   0  0  0  0  0  0  0  0  0  0  0  0
  143.1684  150.8248  131.8097 H   0  0  0  0  0  0  0  0  0  0  0  0
  142.8347  151.0621  133.5774 H   0  0  0  0  0  0  0  0  0  0  0  0
  142.1572  153.2935  131.6770 H   0  0  0  0  0  0  0  0  0  0  0  0
  141.0951  151.8072  131.7398 H   0  0  0  0  0  0  0  0  0  0  0  0
  140.0030  152.9651  133.3203 H   0  0  0  0  0  0  0  0  0  0  0  0
  141.0014  151.0901  134.7568 H   0  0  0  0  0  0  0  0  0  0  0  0
  142.4600  154.5510  134.1800 H   0  0  0  0  0  0  0  0  0  0  0  0
  142.6160  154.3850  135.9380 H   0  0  0  0  0  0  0  0  0  0  0  0
  143.0691  159.2323  134.9896 H   0  0  0  0  0  0  0  0  0  0  0  0
  141.5517  161.2163  133.5928 H   0  0  0  0  0  0  0  0  0  0  0  0
  139.5957  161.5141  132.0372 H   0  0  0  0  0  0  0  0  0  0  0  0
  138.9721  157.1985  132.0002 H   0  0  0  0  0  0  0  0  0  0  0  0
  146.2979  153.1352  135.2730 H   0  0  0  0  0  0  0  0  0  0  0  0
  145.8348  154.8727  135.4509 H   0  0  0  0  0  0  0  0  0  0  0  0
  145.8775  152.7688  137.4565 H   0  0  0  0  0  0  0  0  0  0  0  0
  145.5749  154.5311  137.6526 H   0  0  0  0  0  0  0  0  0  0  0  0
  143.4240  153.8660  136.6420 H   0  0  0  0  0  0  0  0  0  0  0  0
  1  2  1  0
  2  3  1  0
  3  4  1  0
  4  5  1  0
  5  6  1  0
  6  7  2  0
  5  8  1  0
  8  9  1  0
  9 10  2  0
  9 11  1  0
 11 12  1  0
 12 13  1  0
 13 14  1  0
 13 15  2  0
 12 16  2  0
 16 17  1  0
 17 18  2  0
 18 19  1  0
 19 20  2  0
 20 21  1  0
 21 22  1  0
 21 23  1  0
 21 24  1  0
 20 25  1  0
 25 26  2  0
  2 27  1  0
 27 28  2  0
 27 29  1  0
 29 30  1  0
 30 31  1  0
 31 32  1  0
 26 11  1  0
 26 17  1  0
  1 33  1  0
  1 34  1  0
  1 35  1  0
  3 36  1  0
  3 37  1  0
  4 38  1  0
  4 39  1  0
  5 40  1  6
  6 41  1  0
  8 42  1  0
 14 43  1  0
 16 44  1  0
 18 45  1  0
 19 46  1  0
 25 47  1  0
 30 48  1  0
 30 49  1  0
 31 50  1  0
 31 51  1  0
 32 52  1  0
M  CHG  1  14  -1
M  END
>  <UniqueID>  (33) 
33

>  <SMILES>  (33) 
CN(CC[C@@H](C=O)NC(=O)n1c(C([NH-])=O)cc2ccc(C(F)(F)F)cc21)C(=O)OCCO

>  <Energy>  (33) 
79.37035911699185

>  <Genealogy>  (33) 
CN(CCC(C=O)NC(=O)n1c(C([NH-])=O)cc2ccc(C(F)(F)F)cc21)C(=O)OCCO (protonated)
CN(CC[C@@H](C=O)NC(=O)n1c(C([NH-])=O)cc2ccc(C(F)(F)F)cc21)C(=O)OCCO (chirality)
CN(CC[C@@H](C=O)NC(=O)n1c(C([NH-])=O)cc2ccc(C(F)(F)F)cc21)C(=O)OCCO (3D coordinates assigned)
CN(CC[C@@H](C=O)NC(=O)n1c(C([NH-])=O)cc2ccc(C(F)(F)F)cc21)C(=O)OCCO (optimized conformer: 79.37035911699185 kcal/mol)

>  <smiles>  (33) 
CN(CCC(C=O)NC(=O)n1c(C(N)=O)cc2ccc(C(F)(F)F)cc21)C(=O)OCCO

>  <score_type>  (33) 
oracle

>  <origin>  (33) 
adg

>  <m_score__min__energy>  (33) 
-5.9299999999999997

>  <m_primary>  (33) 
energy

$$$$
33:0
     RDKit          3D

 34 35  0  0  0  0  0  0  0  0999 V2000
  148.1020  155.1170  132.6270 C   0  0  0  0  0  0  0  0  0  0  0  0
  147.7960  156.5780  132.7730 C   0  0  0  0  0  0  0  0  0  0  0  0
  148.8490  157.5270  132.7920 C   0  0  0  0  0  0  0  0  0  0  0  0
  148.5770  158.8920  132.9850 C   0  0  0  0  0  0  0  0  0  0  0  0
  147.2510  159.2760  133.1590 C   0  0  0  0  0  0  0  0  0  0  0  0
  146.7120  160.5180  133.4110 C   0  0  0  0  0  0  0  0  0  0  0  0
  145.3400  160.3070  133.5360 C   0  0  0  0  0  0  0  0  0  0  0  0
  144.3630  161.3940  133.7520 C   0  0  0  0  0  0  0  0  0  0  0  0
  142.9700  161.1820  133.5400 N   0  0  0  0  0  0  0  0  0  0  0  0
  144.7680  162.5390  134.0890 O   0  0  0  0  0  0  0  0  0  0  0  0
  145.0430  158.9880  133.3680 N   0  0  0  0  0  0  0  0  0  0  0  0
  143.7720  158.3440  133.5310 C   0  0  0  0  0  0  0  0  0  0  0  0
  143.3300  157.5920  132.6220 O   0  0  0  0  0  0  0  0  0  0  0  0
  143.0500  158.5290  134.7160 O   0  0  0  0  0  0  0  0  0  0  0  0
  142.1040  157.5860  135.2170 C   0  0  0  0  0  0  0  0  0  0  0  0
  140.7080  158.2050  135.2740 C   0  0  0  0  0  0  0  0  0  0  0  0
  140.7150  159.4520  134.6280 O   0  0  0  0  0  0  0  0  0  0  0  0
  139.8730  159.2610  133.1350 S   0  0  0  0  0  0  0  0  0  0  0  0
  141.3270  159.3510  132.2250 O   0  0  0  0  0  0  0  0  0  0  0  0
  146.2210  158.3700  133.1380 C   0  0  0  0  0  0  0  0  0  0  0  0
  146.4640  157.0030  132.9660 C   0  0  0  0  0  0  0  0  0  0  0  0
  148.1975  154.6610  133.6235 H   0  0  0  0  0  0  0  0  0  0  0  0
  147.2874  154.6251  132.0752 H   0  0  0  0  0  0  0  0  0  0  0  0
  149.0455  154.9933  132.0752 H   0  0  0  0  0  0  0  0  0  0  0  0
  149.8877  157.1920  132.6545 H   0  0  0  0  0  0  0  0  0  0  0  0
  149.3882  159.6348  132.9981 H   0  0  0  0  0  0  0  0  0  0  0  0
  147.2501  161.4737  133.4956 H   0  0  0  0  0  0  0  0  0  0  0  0
  142.5270  160.2630  133.7630 H   0  0  0  0  0  0  0  0  0  0  0  0
  142.0835  156.7077  134.5551 H   0  0  0  0  0  0  0  0  0  0  0  0
  142.4026  157.2890  136.2332 H   0  0  0  0  0  0  0  0  0  0  0  0
  139.9916  157.5377  134.7725 H   0  0  0  0  0  0  0  0  0  0  0  0
  140.4133  158.3415  136.3250 H   0  0  0  0  0  0  0  0  0  0  0  0
  142.0490  159.3370  132.9040 H   0  0  0  0  0  0  0  0  0  0  0  0
  145.6374  156.2774  132.9808 H   0  0  0  0  0  0  0  0  0  0  0  0
  1  2  1  0
  2  3  2  0
  3  4  1  0
  4  5  2  0
  5  6  1  0
  6  7  2  0
  7  8  1  0
  8  9  1  0
  8 10  2  0
  7 11  1  0
 11 12  1  0
 12 13  2  0
 12 14  1  0
 14 15  1  0
 15 16  1  0
 16 17  1  0
 17 18  1  0
 18 19  1  0
 11 20  1  0
 20 21  2  0
 21  2  1  0
 20  5  1  0
  1 22  1  0
  1 23  1  0
  1 24  1  0
  3 25  1  0
  4 26  1  0
  6 27  1  0
  9 28  1  0
 15 29  1  0
 15 30  1  0
 16 31  1  0
 16 32  1  0
 19 33  1  0
 21 34  1  0
M  CHG  1   9  -1
M  END
>  <UniqueID>  (34) 
34

>  <SMILES>  (34) 
Cc1ccc2cc(C([NH-])=O)n(C(=O)OCCOSO)c2c1

>  <Energy>  (34) 
67.28006870112988

>  <Genealogy>  (34) 
Cc1ccc2cc(C([NH-])=O)n(C(=O)OCCOSO)c2c1 (protonated)
Cc1ccc2cc(C([NH-])=O)n(C(=O)OCCOSO)c2c1 (3D coordinates assigned)
Cc1ccc2cc(C([NH-])=O)n(C(=O)OCCOSO)c2c1 (optimized conformer: 67.28006870112988 kcal/mol)

>  <smiles>  (34) 
Cc1ccc2cc(C(N)=O)n(C(=O)OCCOSO)c2c1

>  <score_type>  (34) 
oracle

>  <origin>  (34) 
adg

>  <m_score__min__energy>  (34) 
-5.2800000000000002

>  <m_primary>  (34) 
energy

$$$$
34:0
     RDKit          3D

 42 44  0  0  0  0  0  0  0  0999 V2000
  147.8480  155.2060  132.6110 C   0  0  0  0  0  0  0  0  0  0  0  0
  147.6280  156.6610  132.9000 C   0  0  0  0  0  0  0  0  0  0  0  0
  148.7190  157.5620  132.8630 C   0  0  0  0  0  0  0  0  0  0  0  0
  148.5180  158.9350  133.0770 C   0  0  0  0  0  0  0  0  0  0  0  0
  147.2200  159.3750  133.3210 C   0  0  0  0  0  0  0  0  0  0  0  0
  146.7510  160.6480  133.5350 C   0  0  0  0  0  0  0  0  0  0  0  0
  145.3760  160.5110  133.6870 C   0  0  0  0  0  0  0  0  0  0  0  0
  144.4910  161.6610  133.9300 C   0  0  0  0  0  0  0  0  0  0  0  0
  143.0860  161.5470  133.7220 N   0  0  0  0  0  0  0  0  0  0  0  0
  144.9880  162.7760  134.2380 O   0  0  0  0  0  0  0  0  0  0  0  0
  145.0010  159.2000  133.6020 N   0  0  0  0  0  0  0  0  0  0  0  0
  143.6970  158.6360  133.8630 C   0  0  0  0  0  0  0  0  0  0  0  0
  143.1240  158.8480  134.9670 O   0  0  0  0  0  0  0  0  0  0  0  0
  143.0310  157.8510  132.8710 N   0  0  0  0  0  0  0  0  0  0  0  0
  141.6340  157.4430  132.9590 C   0  0  0  0  0  0  0  0  0  0  0  0
  140.7220  158.6260  132.7640 C   0  0  0  0  0  0  0  0  0  0  0  0
  141.2400  159.7400  132.4750 O   0  0  0  0  0  0  0  0  0  0  0  0
  139.2900  158.5210  132.9120 N   0  0  0  0  0  0  0  0  0  0  0  0
  138.7520  157.8710  134.1110 C   0  0  0  0  0  0  0  0  0  0  0  0
  138.3820  158.8680  131.8120 C   0  0  0  0  0  0  0  0  0  0  0  0
  138.5050  160.3060  131.3210 C   0  0  0  0  0  0  0  0  0  0  0  0
  139.0870  159.1710  130.4970 C   0  0  0  0  0  0  0  0  0  0  0  0
  146.1490  158.5180  133.3630 C   0  0  0  0  0  0  0  0  0  0  0  0
  146.3220  157.1450  133.1360 C   0  0  0  0  0  0  0  0  0  0  0  0
  147.9317  154.6526  133.5580 H   0  0  0  0  0  0  0  0  0  0  0  0
  146.9988  154.8148  132.0315 H   0  0  0  0  0  0  0  0  0  0  0  0
  148.7749  155.0833  132.0315 H   0  0  0  0  0  0  0  0  0  0  0  0
  149.7326  157.1834  132.6650 H   0  0  0  0  0  0  0  0  0  0  0  0
  149.3607  159.6416  133.0526 H   0  0  0  0  0  0  0  0  0  0  0  0
  147.3380  161.5774  133.5771 H   0  0  0  0  0  0  0  0  0  0  0  0
  142.5890  160.6450  133.8910 H   0  0  0  0  0  0  0  0  0  0  0  0
  141.4264  156.6944  132.1802 H   0  0  0  0  0  0  0  0  0  0  0  0
  141.4518  157.0158  133.9561 H   0  0  0  0  0  0  0  0  0  0  0  0
  139.1582  158.3618  135.0077 H   0  0  0  0  0  0  0  0  0  0  0  0
  137.6552  157.9544  134.1124 H   0  0  0  0  0  0  0  0  0  0  0  0
  139.0389  156.8091  134.1124 H   0  0  0  0  0  0  0  0  0  0  0  0
  137.5501  158.2196  132.1244 H   0  0  0  0  0  0  0  0  0  0  0  0
  137.6139  160.8435  130.9646 H   0  0  0  0  0  0  0  0  0  0  0  0
  138.8999  161.2412  131.7447 H   0  0  0  0  0  0  0  0  0  0  0  0
  138.6174  158.8872  129.5436 H   0  0  0  0  0  0  0  0  0  0  0  0
  140.0782  158.9449  130.0769 H   0  0  0  0  0  0  0  0  0  0  0  0
  145.4607  156.4608  133.1416 H   0  0  0  0  0  0  0  0  0  0  0  0
  1  2  1  0
  2  3  2  0
  3  4  1  0
  4  5  2  0
  5  6  1  0
  6  7  2  0
  7  8  1  0
  8  9  1  0
  8 10  2  0
  7 11  1  0
 11 12  1  0
 12 13  2  0
 12 14  1  0
 14 15  1  0
 15 16  1  0
 16 17  2  0
 16 18  1  0
 18 19  1  0
 18 20  1  0
 20 21  1  0
 21 22  1  0
 11 23  1  0
 23 24  2  0
 24  2  1  0
 23  5  1  0
 22 20  1  0
  1 25  1  0
  1 26  1  0
  1 27  1  0
  3 28  1  0
  4 29  1  0
  6 30  1  0
  9 31  1  0
 15 32  1  0
 15 33  1  0
 19 34  1  0
 19 35  1  0
 19 36  1  0
 20 37  1  0
 21 38  1  0
 21 39  1  0
 22 40  1  0
 22 41  1  0
 24 42  1  0
M  CHG  2   9  -1  14  -1
M  END
>  <UniqueID>  (35) 
35

>  <SMILES>  (35) 
Cc1ccc2cc(C([NH-])=O)n(C(=O)[N-]CC(=O)N(C)C3CC3)c2c1

>  <Energy>  (35) 
345.5661933269969

>  <Genealogy>  (35) 
Cc1ccc2cc(C([NH-])=O)n(C(=O)[N-]CC(=O)N(C)C3CC3)c2c1 (protonated)
Cc1ccc2cc(C([NH-])=O)n(C(=O)[N-]CC(=O)N(C)C3CC3)c2c1 (3D coordinates assigned)
Cc1ccc2cc(C([NH-])=O)n(C(=O)[N-]CC(=O)N(C)C3CC3)c2c1 (nonaromatic ring conformer: 345.5661933269969 kcal/mol)

>  <smiles>  (35) 
Cc1ccc2cc(C(N)=O)n(C(=O)NCC(=O)N(C)C3CC3)c2c1

>  <score_type>  (35) 
oracle

>  <origin>  (35) 
adg

>  <m_score__min__energy>  (35) 
-7.8600000000000003

>  <m_primary>  (35) 
energy

$$$$
35:0
     RDKit          3D

 49 50  0  0  0  0  0  0  0  0999 V2000
  139.5580  157.8510  136.0500 C   0  0  0  0  0  0  0  0  0  0  0  0
  140.1270  157.2170  134.8540 N   0  0  0  0  0  0  0  0  0  0  0  0
  139.4050  157.3410  133.5770 C   0  0  0  0  0  0  0  0  0  0  0  0
  139.0910  155.9650  132.9850 C   0  0  0  0  0  0  0  0  0  0  0  0
  140.2700  155.3130  132.5960 O   0  0  0  0  0  0  0  0  0  0  0  0
  141.4000  156.5360  134.9830 C   0  0  0  0  0  0  0  0  0  0  0  0
  141.4570  155.2890  134.7790 O   0  0  0  0  0  0  0  0  0  0  0  0
  142.6890  157.2480  135.3190 C   0  0  0  0  0  0  0  0  0  0  0  0
  143.3270  157.8020  134.1130 N   0  0  0  0  0  0  0  0  0  0  0  0
  143.5220  159.2560  134.0070 C   0  0  0  0  0  0  0  0  0  0  0  0
  142.2160  159.9840  134.1080 C   0  0  0  0  0  0  0  0  0  0  0  0
  141.7350  160.5580  133.0980 O   0  0  0  0  0  0  0  0  0  0  0  0
  141.5690  160.1020  135.3290 O   0  0  0  0  0  0  0  0  0  0  0  0
  143.6550  156.9320  133.0040 C   0  0  0  0  0  0  0  0  0  0  0  0
  142.8940  156.8620  132.0020 O   0  0  0  0  0  0  0  0  0  0  0  0
  144.8420  156.1290  133.0220 N   0  0  0  0  0  0  0  0  0  0  0  0
  144.9400  154.7730  132.9250 C   0  0  0  0  0  0  0  0  0  0  0  0
  143.8170  153.8110  132.8130 C   0  0  0  0  0  0  0  0  0  0  0  0
  142.4650  154.2320  132.6290 N   0  0  0  0  0  0  0  0  0  0  0  0
  144.0580  152.5800  132.9080 O   0  0  0  0  0  0  0  0  0  0  0  0
  146.2790  154.3900  132.8420 C   0  0  0  0  0  0  0  0  0  0  0  0
  146.9980  155.5660  132.8760 C   0  0  0  0  0  0  0  0  0  0  0  0
  148.3690  155.7820  132.7750 C   0  0  0  0  0  0  0  0  0  0  0  0
  148.8300  157.1090  132.7770 C   0  0  0  0  0  0  0  0  0  0  0  0
  147.9200  158.1930  132.8750 C   0  0  0  0  0  0  0  0  0  0  0  0
  148.4190  159.6140  132.8240 C   0  0  0  0  0  0  0  0  0  0  0  0
  147.4930  160.4300  132.1990 F   0  0  0  0  0  0  0  0  0  0  0  0
  148.6360  160.1040  134.1010 F   0  0  0  0  0  0  0  0  0  0  0  0
  149.6070  159.6560  132.1200 F   0  0  0  0  0  0  0  0  0  0  0  0
  146.5330  157.9290  132.9340 C   0  0  0  0  0  0  0  0  0  0  0  0
  146.1060  156.5980  132.9700 C   0  0  0  0  0  0  0  0  0  0  0  0
  139.9801  157.3807  136.9503 H   0  0  0  0  0  0  0  0  0  0  0  0
  139.8022  158.9235  136.0478 H   0  0  0  0  0  0  0  0  0  0  0  0
  138.4654  157.7238  136.0478 H   0  0  0  0  0  0  0  0  0  0  0  0
  138.4626  157.8818  133.7483 H   0  0  0  0  0  0  0  0  0  0  0  0
  140.0422  157.8892  132.8675 H   0  0  0  0  0  0  0  0  0  0  0  0
  138.5739  155.3559  133.7411 H   0  0  0  0  0  0  0  0  0  0  0  0
  138.4514  156.0979  132.1000 H   0  0  0  0  0  0  0  0  0  0  0  0
  141.0080  155.9690  132.7060 H   0  0  0  0  0  0  0  0  0  0  0  0
  142.4726  158.0688  136.0186 H   0  0  0  0  0  0  0  0  0  0  0  0
  143.3784  156.5204  135.7721 H   0  0  0  0  0  0  0  0  0  0  0  0
  144.1834  159.5900  134.8200 H   0  0  0  0  0  0  0  0  0  0  0  0
  143.9710  159.4779  133.0277 H   0  0  0  0  0  0  0  0  0  0  0  0
  142.1900  155.2290  132.7000 H   0  0  0  0  0  0  0  0  0  0  0  0
  141.7090  153.5240  132.5120 H   0  0  0  0  0  0  0  0  0  0  0  0
  146.6766  153.3672  132.7656 H   0  0  0  0  0  0  0  0  0  0  0  0
  149.0709  154.9387  132.6959 H   0  0  0  0  0  0  0  0  0  0  0  0
  149.9089  157.3099  132.7017 H   0  0  0  0  0  0  0  0  0  0  0  0
  145.8047  158.7531  132.9513 H   0  0  0  0  0  0  0  0  0  0  0  0
  1  2  1  0
  2  3  1  0
  3  4  1  0
  4  5  1  0
  2  6  1  0
  6  7  2  0
  6  8  1  0
  8  9  1  0
  9 10  1  0
 10 11  1  0
 11 12  2  0
 11 13  1  0
  9 14  1  0
 14 15  2  0
 14 16  1  0
 16 17  1  0
 17 18  1  0
 18 19  1  0
 18 20  2  0
 17 21  2  0
 21 22  1  0
 22 23  2  0
 23 24  1  0
 24 25  2  0
 25 26  1  0
 26 27  1  0
 26 28  1  0
 26 29  1  0
 25 30  1  0
 30 31  2  0
 31 16  1  0
 31 22  1  0
  1 32  1  0
  1 33  1  0
  1 34  1  0
  3 35  1  0
  3 36  1  0
  4 37  1  0
  4 38  1  0
  5 39  1  0
  8 40  1  0
  8 41  1  0
 10 42  1  0
 10 43  1  0
 19 44  1  0
 19 45  1  0
 21 46  1  0
 23 47  1  0
 24 48  1  0
 30 49  1  0
M  CHG  1  13  -1
M  END
>  <UniqueID>  (36) 
36

>  <SMILES>  (36) 
CN(CCO)C(=O)CN(CC(=O)[O-])C(=O)n1c(C(N)=O)cc2ccc(C(F)(F)F)cc21

>  <Energy>  (36) 
85.72145615517096

>  <Genealogy>  (36) 
CN(CCO)C(=O)CN(CC(=O)[O-])C(=O)n1c(C(N)=O)cc2ccc(C(F)(F)F)cc21 (protonated)
CN(CCO)C(=O)CN(CC(=O)[O-])C(=O)n1c(C(N)=O)cc2ccc(C(F)(F)F)cc21 (3D coordinates assigned)
CN(CCO)C(=O)CN(CC(=O)[O-])C(=O)n1c(C(N)=O)cc2ccc(C(F)(F)F)cc21 (optimized conformer: 85.72145615517096 kcal/mol)

>  <smiles>  (36) 
CN(CCO)C(=O)CN(CC(=O)O)C(=O)n1c(C(N)=O)cc2ccc(C(F)(F)F)cc21

>  <score_type>  (36) 
oracle

>  <origin>  (36) 
adg

>  <m_score__min__energy>  (36) 
-7.0099999999999998

>  <m_primary>  (36) 
energy

$$$$
36:0
     RDKit          3D

 48 49  0  0  0  0  0  0  0  0999 V2000
  148.7080  155.1810  132.8160 C   0  0  0  0  0  0  0  0  0  0  0  0
  148.0560  156.5230  132.9810 C   0  0  0  0  0  0  0  0  0  0  0  0
  148.8390  157.7030  132.9430 C   0  0  0  0  0  0  0  0  0  0  0  0
  148.2330  158.9670  133.0450 C   0  0  0  0  0  0  0  0  0  0  0  0
  146.8480  159.0180  133.1800 C   0  0  0  0  0  0  0  0  0  0  0  0
  146.0070  160.1040  133.2680 C   0  0  0  0  0  0  0  0  0  0  0  0
  144.7230  159.5700  133.3680 C   0  0  0  0  0  0  0  0  0  0  0  0
  143.5140  160.3950  133.5690 C   0  0  0  0  0  0  0  0  0  0  0  0
  142.2180  159.8900  133.2510 N   0  0  0  0  0  0  0  0  0  0  0  0
  143.6200  161.5450  134.0740 O   0  0  0  0  0  0  0  0  0  0  0  0
  144.7690  158.2070  133.3340 N   0  0  0  0  0  0  0  0  0  0  0  0
  143.6620  157.2930  133.3220 C   0  0  0  0  0  0  0  0  0  0  0  0
  142.8190  157.3380  132.3830 O   0  0  0  0  0  0  0  0  0  0  0  0
  143.5160  156.3650  134.3600 O   0  0  0  0  0  0  0  0  0  0  0  0
  143.8140  154.9790  134.2170 C   0  0  0  0  0  0  0  0  0  0  0  0
  142.5440  154.1380  134.3790 C   0  0  0  0  0  0  0  0  0  0  0  0
  141.4430  154.5470  133.3960 C   0  0  0  0  0  0  0  0  0  0  0  0
  140.6350  155.5880  133.9450 O   0  0  0  0  0  0  0  0  0  0  0  0
  139.9290  156.5200  133.1700 C   0  0  0  0  0  0  0  0  0  0  0  0
  139.1710  156.1300  132.2360 O   0  0  0  0  0  0  0  0  0  0  0  0
  140.0990  157.9310  133.4350 N   0  0  2  0  0  0  0  0  0  0  0  0
  140.3950  158.1780  134.8580 C   0  0  0  0  0  0  0  0  0  0  0  0
  138.9490  158.7220  132.9390 C   0  0  0  0  0  0  0  0  0  0  0  0
  139.2090  159.4130  131.6260 C   0  0  0  0  0  0  0  0  0  0  0  0
  140.3340  159.3110  131.0680 O   0  0  0  0  0  0  0  0  0  0  0  0
  138.2130  160.1730  131.0250 O   0  0  0  0  0  0  0  0  0  0  0  0
  146.0770  157.8850  133.2220 C   0  0  0  0  0  0  0  0  0  0  0  0
  146.6530  156.6140  133.1020 C   0  0  0  0  0  0  0  0  0  0  0  0
  148.9171  154.7507  133.8065 H   0  0  0  0  0  0  0  0  0  0  0  0
  148.0345  154.5120  132.2603 H   0  0  0  0  0  0  0  0  0  0  0  0
  149.6502  155.2969  132.2603 H   0  0  0  0  0  0  0  0  0  0  0  0
  149.9310  157.6293  132.8327 H   0  0  0  0  0  0  0  0  0  0  0  0
  148.8343  159.8877  133.0190 H   0  0  0  0  0  0  0  0  0  0  0  0
  146.2882  161.1674  133.2610 H   0  0  0  0  0  0  0  0  0  0  0  0
  142.0480  159.3670  132.3640 H   0  0  0  0  0  0  0  0  0  0  0  0
  144.2408  154.8016  133.2188 H   0  0  0  0  0  0  0  0  0  0  0  0
  144.5352  154.6879  134.9949 H   0  0  0  0  0  0  0  0  0  0  0  0
  142.7960  153.0811  134.2073 H   0  0  0  0  0  0  0  0  0  0  0  0
  142.1616  154.3011  135.3974 H   0  0  0  0  0  0  0  0  0  0  0  0
  141.9058  154.9032  132.4638 H   0  0  0  0  0  0  0  0  0  0  0  0
  140.8052  153.6731  133.1970 H   0  0  0  0  0  0  0  0  0  0  0  0
  140.9400  158.2480  132.8960 H   0  0  0  0  0  0  0  0  0  0  0  0
  139.7000  157.5981  135.4831 H   0  0  0  0  0  0  0  0  0  0  0  0
  141.4283  157.8705  135.0763 H   0  0  0  0  0  0  0  0  0  0  0  0
  140.2775  159.2497  135.0763 H   0  0  0  0  0  0  0  0  0  0  0  0
  138.0915  158.0450  132.8110 H   0  0  0  0  0  0  0  0  0  0  0  0
  138.7560  159.5089  133.6830 H   0  0  0  0  0  0  0  0  0  0  0  0
  146.0273  155.7093  133.1021 H   0  0  0  0  0  0  0  0  0  0  0  0
  1  2  1  0
  2  3  2  0
  3  4  1  0
  4  5  2  0
  5  6  1  0
  6  7  2  0
  7  8  1  0
  8  9  1  0
  8 10  2  0
  7 11  1  0
 11 12  1  0
 12 13  2  0
 12 14  1  0
 14 15  1  0
 15 16  1  0
 16 17  1  0
 17 18  1  0
 18 19  1  0
 19 20  2  0
 19 21  1  0
 21 22  1  0
 21 23  1  0
 23 24  1  0
 24 25  2  0
 24 26  1  0
 11 27  1  0
 27 28  2  0
 28  2  1  0
 27  5  1  0
  1 29  1  0
  1 30  1  0
  1 31  1  0
  3 32  1  0
  4 33  1  0
  6 34  1  0
  9 35  1  0
 15 36  1  0
 15 37  1  0
 16 38  1  0
 16 39  1  0
 17 40  1  0
 17 41  1  0
 21 42  1  6
 22 43  1  0
 22 44  1  0
 22 45  1  0
 23 46  1  0
 23 47  1  0
 28 48  1  0
M  CHG  3   9  -1  21   1  26  -1
M  END
>  <UniqueID>  (37) 
37

>  <SMILES>  (37) 
Cc1ccc2cc(C([NH-])=O)n(C(=O)OCCCOC(=O)[N@H+](C)CC(=O)[O-])c2c1

>  <Energy>  (37) 
83.67932864485424

>  <Genealogy>  (37) 
Cc1ccc2cc(C([NH-])=O)n(C(=O)OCCCOC(=O)[NH+](C)CC(=O)[O-])c2c1 (protonated)
Cc1ccc2cc(C([NH-])=O)n(C(=O)OCCCOC(=O)[N@H+](C)CC(=O)[O-])c2c1 (chirality)
Cc1ccc2cc(C([NH-])=O)n(C(=O)OCCCOC(=O)[N@H+](C)CC(=O)[O-])c2c1 (3D coordinates assigned)
Cc1ccc2cc(C([NH-])=O)n(C(=O)OCCCOC(=O)[N@H+](C)CC(=O)[O-])c2c1 (optimized conformer: 83.67932864485424 kcal/mol)

>  <smiles>  (37) 
Cc1ccc2cc(C(N)=O)n(C(=O)OCCCOC(=O)N(C)CC(=O)O)c2c1

>  <score_type>  (37) 
oracle

>  <origin>  (37) 
adg

>  <m_score__min__energy>  (37) 
-5.6799999999999997

>  <m_primary>  (37) 
energy

$$$$
37:0
     RDKit          3D

 47 48  0  0  0  0  0  0  0  0999 V2000
  139.2040  156.7880  132.5300 C   0  0  0  0  0  0  0  0  0  0  0  0
  139.9070  156.2840  133.7140 N   0  0  0  0  0  0  0  0  0  0  0  0
  139.9870  157.1300  134.9170 C   0  0  0  0  0  0  0  0  0  0  0  0
  139.6160  158.5750  134.5850 C   0  0  0  0  0  0  0  0  0  0  0  0
  140.4720  159.0730  133.5960 O   0  0  0  0  0  0  0  0  0  0  0  0
  140.5980  155.0190  133.6200 C   0  0  0  0  0  0  0  0  0  0  0  0
  140.3240  154.2340  132.6700 O   0  0  0  0  0  0  0  0  0  0  0  0
  141.6280  154.6100  134.6480 C   0  0  0  0  0  0  0  0  0  0  0  0
  143.0340  155.1150  134.2980 C   0  0  0  0  0  0  0  0  0  0  0  0
  143.4220  156.2300  135.1490 N   0  0  0  0  0  0  0  0  0  0  0  0
  143.1150  157.6050  134.8750 C   0  0  0  0  0  0  0  0  0  0  0  0
  142.5020  158.3030  135.7270 O   0  0  0  0  0  0  0  0  0  0  0  0
  143.5240  158.1880  133.5910 C   0  0  0  0  0  0  0  0  0  0  0  0
  142.7410  158.1060  132.6080 O   0  0  0  0  0  0  0  0  0  0  0  0
  144.7810  158.8710  133.4440 N   0  0  0  0  0  0  0  0  0  0  0  0
  145.0070  160.2080  133.6170 C   0  0  0  0  0  0  0  0  0  0  0  0
  143.9630  161.2450  133.7450 C   0  0  0  0  0  0  0  0  0  0  0  0
  142.5990  160.8660  133.9250 N   0  0  0  0  0  0  0  0  0  0  0  0
  144.2660  162.4670  133.7070 O   0  0  0  0  0  0  0  0  0  0  0  0
  146.3720  160.4840  133.5970 C   0  0  0  0  0  0  0  0  0  0  0  0
  146.9880  159.2650  133.4110 C   0  0  0  0  0  0  0  0  0  0  0  0
  148.3410  158.9470  133.3550 C   0  0  0  0  0  0  0  0  0  0  0  0
  148.6960  157.5980  133.1940 C   0  0  0  0  0  0  0  0  0  0  0  0
  147.6990  156.5920  133.0800 C   0  0  0  0  0  0  0  0  0  0  0  0
  148.0990  155.1430  132.9430 C   0  0  0  0  0  0  0  0  0  0  0  0
  148.2440  154.5550  134.1890 F   0  0  0  0  0  0  0  0  0  0  0  0
  149.3090  155.0280  132.2740 F   0  0  0  0  0  0  0  0  0  0  0  0
  147.1240  154.4670  132.2340 F   0  0  0  0  0  0  0  0  0  0  0  0
  146.3330  156.9490  133.1920 C   0  0  0  0  0  0  0  0  0  0  0  0
  146.0060  158.3070  133.3230 C   0  0  0  0  0  0  0  0  0  0  0  0
  138.3476  157.4019  132.8457 H   0  0  0  0  0  0  0  0  0  0  0  0
  139.8918  157.4000  131.9280 H   0  0  0  0  0  0  0  0  0  0  0  0
  138.8452  155.9401  131.9280 H   0  0  0  0  0  0  0  0  0  0  0  0
  139.2919  156.7440  135.6771 H   0  0  0  0  0  0  0  0  0  0  0  0
  141.0187  157.1077  135.2979 H   0  0  0  0  0  0  0  0  0  0  0  0
  138.5787  158.6104  134.2207 H   0  0  0  0  0  0  0  0  0  0  0  0
  139.7139  159.1907  135.4913 H   0  0  0  0  0  0  0  0  0  0  0  0
  141.3870  159.0480  133.9910 H   0  0  0  0  0  0  0  0  0  0  0  0
  141.3366  155.0240  135.6246 H   0  0  0  0  0  0  0  0  0  0  0  0
  141.6618  153.5108  134.6709 H   0  0  0  0  0  0  0  0  0  0  0  0
  143.7536  154.2940  134.4327 H   0  0  0  0  0  0  0  0  0  0  0  0
  143.0290  155.4604  133.2537 H   0  0  0  0  0  0  0  0  0  0  0  0
  142.3370  159.8820  134.1590 H   0  0  0  0  0  0  0  0  0  0  0  0
  146.8556  161.4659  133.7064 H   0  0  0  0  0  0  0  0  0  0  0  0
  149.1102  159.7293  133.4345 H   0  0  0  0  0  0  0  0  0  0  0  0
  149.7587  157.3166  133.1557 H   0  0  0  0  0  0  0  0  0  0  0  0
  145.5470  156.1796  133.1766 H   0  0  0  0  0  0  0  0  0  0  0  0
  1  2  1  0
  2  3  1  0
  3  4  1  0
  4  5  1  0
  2  6  1  0
  6  7  2  0
  6  8  1  0
  8  9  1  0
  9 10  1  0
 10 11  1  0
 11 12  2  0
 11 13  1  0
 13 14  2  0
 13 15  1  0
 15 16  1  0
 16 17  1  0
 17 18  1  0
 17 19  2  0
 16 20  2  0
 20 21  1  0
 21 22  2  0
 22 23  1  0
 23 24  2  0
 24 25  1  0
 25 26  1  0
 25 27  1  0
 25 28  1  0
 24 29  1  0
 29 30  2  0
 30 15  1  0
 30 21  1  0
  1 31  1  0
  1 32  1  0
  1 33  1  0
  3 34  1  0
  3 35  1  0
  4 36  1  0
  4 37  1  0
  5 38  1  0
  8 39  1  0
  8 40  1  0
  9 41  1  0
  9 42  1  0
 18 43  1  0
 20 44  1  0
 22 45  1  0
 23 46  1  0
 29 47  1  0
M  CHG  2  10  -1  18  -1
M  END
>  <UniqueID>  (38) 
38

>  <SMILES>  (38) 
CN(CCO)C(=O)CC[N-]C(=O)C(=O)n1c(C([NH-])=O)cc2ccc(C(F)(F)F)cc21

>  <Energy>  (38) 
81.56278614726612

>  <Genealogy>  (38) 
CN(CCO)C(=O)CC[N-]C(=O)C(=O)n1c(C([NH-])=O)cc2ccc(C(F)(F)F)cc21 (protonated)
CN(CCO)C(=O)CC[N-]C(=O)C(=O)n1c(C([NH-])=O)cc2ccc(C(F)(F)F)cc21 (3D coordinates assigned)
CN(CCO)C(=O)CC[N-]C(=O)C(=O)n1c(C([NH-])=O)cc2ccc(C(F)(F)F)cc21 (optimized conformer: 81.56278614726612 kcal/mol)

>  <smiles>  (38) 
CN(CCO)C(=O)CCNC(=O)C(=O)n1c(C(N)=O)cc2ccc(C(F)(F)F)cc21

>  <score_type>  (38) 
oracle

>  <origin>  (38) 
adg

>  <m_score__min__energy>  (38) 
-6.71

>  <m_primary>  (38) 
energy

$$$$
38:0
     RDKit          3D

 41 43  0  0  0  0  0  0  0  0999 V2000
  141.2480  159.2140  134.7550 C   0  0  0  0  0  0  0  0  0  0  0  0
  142.6450  159.5150  134.3000 C   0  0  0  0  0  0  0  0  0  0  0  0
  143.0550  160.8550  134.1080 C   0  0  0  0  0  0  0  0  0  0  0  0
  144.3680  161.1510  133.7050 C   0  0  0  0  0  0  0  0  0  0  0  0
  145.2480  160.0890  133.5230 C   0  0  0  0  0  0  0  0  0  0  0  0
  146.5610  160.0920  133.1080 C   0  0  0  0  0  0  0  0  0  0  0  0
  146.9450  158.7540  133.0990 C   0  0  0  0  0  0  0  0  0  0  0  0
  148.3120  158.3070  132.7640 C   0  0  0  0  0  0  0  0  0  0  0  0
  148.5480  157.0260  132.1780 N   0  0  0  0  0  0  0  0  0  0  0  0
  149.2920  159.0440  133.0520 O   0  0  0  0  0  0  0  0  0  0  0  0
  145.9120  157.9520  133.4790 N   0  0  0  0  0  0  0  0  0  0  0  0
  145.8830  156.5140  133.4730 C   0  0  0  0  0  0  0  0  0  0  0  0
  145.3800  155.8940  132.4960 O   0  0  0  0  0  0  0  0  0  0  0  0
  146.4170  155.8070  134.5540 O   0  0  0  0  0  0  0  0  0  0  0  0
  147.4030  154.7910  134.4010 C   0  0  0  0  0  0  0  0  0  0  0  0
  147.7140  154.6300  133.0220 O   0  0  0  0  0  0  0  0  0  0  0  0
  148.8670  153.9730  132.5730 C   0  0  0  0  0  0  0  0  0  0  0  0
  149.9030  154.6370  132.2910 O   0  0  0  0  0  0  0  0  0  0  0  0
  148.8660  152.5010  132.4310 C   0  0  0  0  0  0  0  0  0  0  0  0
  147.6570  151.7980  132.3130 C   0  0  0  0  0  0  0  0  0  0  0  0
  147.6740  150.4080  132.1820 C   0  0  0  0  0  0  0  0  0  0  0  0
  148.8570  149.7390  132.1680 N   0  0  0  0  0  0  0  0  0  0  0  0
  150.0450  150.3890  132.2800 C   0  0  0  0  0  0  0  0  0  0  0  0
  150.0730  151.7800  132.4130 C   0  0  0  0  0  0  0  0  0  0  0  0
  144.8780  158.7860  133.7390 C   0  0  0  0  0  0  0  0  0  0  0  0
  143.5700  158.4630  134.1200 C   0  0  0  0  0  0  0  0  0  0  0  0
  141.2140  159.2067  135.8545 H   0  0  0  0  0  0  0  0  0  0  0  0
  140.5635  159.9853  134.3721 H   0  0  0  0  0  0  0  0  0  0  0  0
  140.9418  158.2293  134.3721 H   0  0  0  0  0  0  0  0  0  0  0  0
  142.3391  161.6731  134.2758 H   0  0  0  0  0  0  0  0  0  0  0  0
  144.6900  162.1896  133.5387 H   0  0  0  0  0  0  0  0  0  0  0  0
  147.1749  160.9648  132.8408 H   0  0  0  0  0  0  0  0  0  0  0  0
  147.7780  156.3280  132.0780 H   0  0  0  0  0  0  0  0  0  0  0  0
  149.5160  156.7430  131.9090 H   0  0  0  0  0  0  0  0  0  0  0  0
  148.3120  155.0777  134.9500 H   0  0  0  0  0  0  0  0  0  0  0  0
  147.0146  153.8426  134.8005 H   0  0  0  0  0  0  0  0  0  0  0  0
  146.6998  152.3400  132.3237 H   0  0  0  0  0  0  0  0  0  0  0  0
  146.7284  149.8535  132.0900 H   0  0  0  0  0  0  0  0  0  0  0  0
  150.9860  149.8196  132.2660 H   0  0  0  0  0  0  0  0  0  0  0  0
  151.0339  152.3078  132.5031 H   0  0  0  0  0  0  0  0  0  0  0  0
  143.2703  157.4161  134.2752 H   0  0  0  0  0  0  0  0  0  0  0  0
  1  2  1  0
  2  3  2  0
  3  4  1  0
  4  5  2  0
  5  6  1  0
  6  7  2  0
  7  8  1  0
  8  9  1  0
  8 10  2  0
  7 11  1  0
 11 12  1  0
 12 13  2  0
 12 14  1  0
 14 15  1  0
 15 16  1  0
 16 17  1  0
 17 18  2  0
 17 19  1  0
 19 20  2  0
 20 21  1  0
 21 22  2  0
 22 23  1  0
 23 24  2  0
 11 25  1  0
 25 26  2  0
 26  2  1  0
 25  5  1  0
 24 19  1  0
  1 27  1  0
  1 28  1  0
  1 29  1  0
  3 30  1  0
  4 31  1  0
  6 32  1  0
  9 33  1  0
  9 34  1  0
 15 35  1  0
 15 36  1  0
 20 37  1  0
 21 38  1  0
 23 39  1  0
 24 40  1  0
 26 41  1  0
M  END
>  <UniqueID>  (39) 
39

>  <SMILES>  (39) 
Cc1ccc2cc(C(N)=O)n(C(=O)OCOC(=O)c3ccncc3)c2c1

>  <Energy>  (39) 
79.95284199269636

>  <Genealogy>  (39) 
Cc1ccc2cc(C(N)=O)n(C(=O)OCOC(=O)c3ccncc3)c2c1 (3D coordinates assigned)
Cc1ccc2cc(C(N)=O)n(C(=O)OCOC(=O)c3ccncc3)c2c1 (optimized conformer: 79.95284199269636 kcal/mol)

>  <smiles>  (39) 
Cc1ccc2cc(C(N)=O)n(C(=O)OCOC(=O)c3ccncc3)c2c1

>  <score_type>  (39) 
oracle

>  <origin>  (39) 
adg

>  <m_score__min__energy>  (39) 
-6.96

>  <m_primary>  (39) 
energy

$$$$
39:0
     RDKit          3D

 36 37  0  0  0  0  0  0  0  0999 V2000
  148.8440  157.0480  133.2770 N   0  0  0  0  0  0  0  0  0  0  0  0
  148.3940  158.3950  133.1240 C   0  0  0  0  0  0  0  0  0  0  0  0
  149.2290  159.2880  132.8210 O   0  0  0  0  0  0  0  0  0  0  0  0
  146.9660  158.7450  133.2970 C   0  0  0  0  0  0  0  0  0  0  0  0
  146.4780  160.0470  133.4080 C   0  0  0  0  0  0  0  0  0  0  0  0
  145.1250  159.9130  133.6310 C   0  0  0  0  0  0  0  0  0  0  0  0
  144.1400  160.8840  133.7910 C   0  0  0  0  0  0  0  0  0  0  0  0
  142.8140  160.4510  133.9710 C   0  0  0  0  0  0  0  0  0  0  0  0
  142.5010  159.0680  133.9940 C   0  0  0  0  0  0  0  0  0  0  0  0
  141.0720  158.6180  134.1310 C   0  0  0  0  0  0  0  0  0  0  0  0
  140.8580  157.9220  135.4760 C   0  0  0  0  0  0  0  0  0  0  0  0
  140.9230  158.9120  136.5960 C   0  0  0  0  0  0  0  0  0  0  0  0
  140.6430  160.1220  136.3890 O   0  0  0  0  0  0  0  0  0  0  0  0
  141.2460  158.4910  137.8800 O   0  0  0  0  0  0  0  0  0  0  0  0
  143.5280  158.1140  133.8220 C   0  0  0  0  0  0  0  0  0  0  0  0
  144.8360  158.5750  133.6530 C   0  0  0  0  0  0  0  0  0  0  0  0
  145.9530  157.8470  133.4460 N   0  0  0  0  0  0  0  0  0  0  0  0
  146.0150  156.4190  133.3290 C   0  0  0  0  0  0  0  0  0  0  0  0
  146.4190  155.8980  132.2550 O   0  0  0  0  0  0  0  0  0  0  0  0
  145.7210  155.5470  134.5100 C   0  0  0  0  0  0  0  0  0  0  0  0
  147.2700  154.8630  135.1720 P   0  0  0  0  0  0  0  0  0  0  0  0
  148.1020  155.9710  135.7770 O   0  0  0  0  0  0  0  0  0  0  0  0
  148.1380  154.1300  133.9200 O   0  0  0  0  0  0  0  0  0  0  0  0
  146.9210  153.7110  136.3600 O   0  0  0  0  0  0  0  0  0  0  0  0
  148.2000  156.2890  133.5900 H   0  0  0  0  0  0  0  0  0  0  0  0
  149.8490  156.8110  133.1160 H   0  0  0  0  0  0  0  0  0  0  0  0
  147.0518  160.9825  133.3333 H   0  0  0  0  0  0  0  0  0  0  0  0
  144.3907  161.9550  133.7771 H   0  0  0  0  0  0  0  0  0  0  0  0
  142.0113  161.1928  134.0952 H   0  0  0  0  0  0  0  0  0  0  0  0
  140.4088  159.4932  134.0664 H   0  0  0  0  0  0  0  0  0  0  0  0
  140.8425  157.9088  133.3221 H   0  0  0  0  0  0  0  0  0  0  0  0
  139.8709  157.4366  135.4791 H   0  0  0  0  0  0  0  0  0  0  0  0
  141.6504  157.1724  135.6181 H   0  0  0  0  0  0  0  0  0  0  0  0
  143.3041  157.0370  133.8211 H   0  0  0  0  0  0  0  0  0  0  0  0
  145.2228  156.1430  135.2888 H   0  0  0  0  0  0  0  0  0  0  0  0
  145.0642  154.7219  134.1974 H   0  0  0  0  0  0  0  0  0  0  0  0
  1  2  1  0
  2  3  2  0
  2  4  1  0
  4  5  2  0
  5  6  1  0
  6  7  2  0
  7  8  1  0
  8  9  2  0
  9 10  1  0
 10 11  1  0
 11 12  1  0
 12 13  2  0
 12 14  1  0
  9 15  1  0
 15 16  2  0
 16 17  1  0
 17 18  1  0
 18 19  2  0
 18 20  1  0
 20 21  1  0
 21 22  2  0
 21 23  1  0
 21 24  1  0
 17  4  1  0
 16  6  1  0
  1 25  1  0
  1 26  1  0
  5 27  1  0
  7 28  1  0
  8 29  1  0
 10 30  1  0
 10 31  1  0
 11 32  1  0
 11 33  1  0
 15 34  1  0
 20 35  1  0
 20 36  1  0
M  CHG  3  14  -1  23  -1  24  -1
M  END
>  <UniqueID>  (40) 
40

>  <SMILES>  (40) 
NC(=O)c1cc2ccc(CCC(=O)[O-])cc2n1C(=O)CP(=O)([O-])[O-]

>  <Energy>  (40) 
65.93301752298929

>  <Genealogy>  (40) 
NC(=O)c1cc2ccc(CCC(=O)[O-])cc2n1C(=O)CP(=O)([O-])[O-] (protonated)
NC(=O)c1cc2ccc(CCC(=O)[O-])cc2n1C(=O)CP(=O)([O-])[O-] (3D coordinates assigned)
NC(=O)c1cc2ccc(CCC(=O)[O-])cc2n1C(=O)CP(=O)([O-])[O-] (optimized conformer: 65.93301752298929 kcal/mol)

>  <smiles>  (40) 
NC(=O)c1cc2ccc(CCC(=O)O)cc2n1C(=O)CP(=O)(O)O

>  <score_type>  (40) 
oracle

>  <origin>  (40) 
adg

>  <m_score__min__energy>  (40) 
-6.8200000000000003

>  <m_primary>  (40) 
energy

$$$$
40:0
     RDKit          3D

 37 38  0  0  0  0  0  0  0  0999 V2000
  148.2940  152.9950  133.7580 C   0  0  0  0  0  0  0  0  0  0  0  0
  148.2310  154.4780  133.3650 C   0  0  1  0  0  0  0  0  0  0  0  0
  149.0310  154.7000  132.2300 O   0  0  0  0  0  0  0  0  0  0  0  0
  146.7800  154.9620  133.1130 C   0  0  2  0  0  0  0  0  0  0  0  0
  146.6920  155.5950  131.7920 N   0  0  0  0  0  0  0  0  0  0  0  0
  146.3200  155.9160  134.1980 C   0  0  0  0  0  0  0  0  0  0  0  0
  146.1530  155.4860  135.3730 O   0  0  0  0  0  0  0  0  0  0  0  0
  145.9620  157.2740  133.8880 N   0  0  0  0  0  0  0  0  0  0  0  0
  146.7830  158.2990  133.5160 C   0  0  0  0  0  0  0  0  0  0  0  0
  148.2600  158.2630  133.5340 C   0  0  0  0  0  0  0  0  0  0  0  0
  148.9810  157.4370  132.6180 N   0  0  0  0  0  0  0  0  0  0  0  0
  148.8990  158.9870  134.3410 O   0  0  0  0  0  0  0  0  0  0  0  0
  146.0390  159.4420  133.2360 C   0  0  0  0  0  0  0  0  0  0  0  0
  144.7280  159.0880  133.4590 C   0  0  0  0  0  0  0  0  0  0  0  0
  143.5640  159.8430  133.3470 C   0  0  0  0  0  0  0  0  0  0  0  0
  142.3420  159.2160  133.6390 C   0  0  0  0  0  0  0  0  0  0  0  0
  142.2980  157.8480  134.0140 C   0  0  0  0  0  0  0  0  0  0  0  0
  140.9840  157.1960  134.3620 C   0  0  0  0  0  0  0  0  0  0  0  0
  140.2540  158.0490  135.1690 F   0  0  0  0  0  0  0  0  0  0  0  0
  141.1930  156.0050  135.0350 F   0  0  0  0  0  0  0  0  0  0  0  0
  140.2550  156.9240  133.2180 F   0  0  0  0  0  0  0  0  0  0  0  0
  143.5060  157.1240  134.1440 C   0  0  0  0  0  0  0  0  0  0  0  0
  144.7090  157.7780  133.8560 C   0  0  0  0  0  0  0  0  0  0  0  0
  148.2978  152.9061  134.8544 H   0  0  0  0  0  0  0  0  0  0  0  0
  147.4173  152.4701  133.3506 H   0  0  0  0  0  0  0  0  0  0  0  0
  149.2120  152.5464  133.3506 H   0  0  0  0  0  0  0  0  0  0  0  0
  148.6174  155.0655  134.2109 H   0  0  0  0  0  0  0  0  0  0  0  0
  148.4930  154.4550  131.4310 H   0  0  0  0  0  0  0  0  0  0  0  0
  146.1117  154.0887  133.1387 H   0  0  0  0  0  0  0  0  0  0  0  0
  146.2340  156.5300  131.8890 H   0  0  0  0  0  0  0  0  0  0  0  0
  147.6540  155.7540  131.4120 H   0  0  0  0  0  0  0  0  0  0  0  0
  150.0250  157.4470  132.6140 H   0  0  0  0  0  0  0  0  0  0  0  0
  148.4860  156.7850  131.9700 H   0  0  0  0  0  0  0  0  0  0  0  0
  146.4186  160.4204  132.9064 H   0  0  0  0  0  0  0  0  0  0  0  0
  143.6003  160.8984  133.0392 H   0  0  0  0  0  0  0  0  0  0  0  0
  141.4072  159.7923  133.5763 H   0  0  0  0  0  0  0  0  0  0  0  0
  143.4999  156.0716  134.4640 H   0  0  0  0  0  0  0  0  0  0  0  0
  1  2  1  0
  2  3  1  0
  2  4  1  0
  4  5  1  0
  4  6  1  0
  6  7  2  0
  6  8  1  0
  8  9  1  0
  9 10  1  0
 10 11  1  0
 10 12  2  0
  9 13  2  0
 13 14  1  0
 14 15  2  0
 15 16  1  0
 16 17  2  0
 17 18  1  0
 18 19  1  0
 18 20  1  0
 18 21  1  0
 17 22  1  0
 22 23  2  0
 23  8  1  0
 23 14  1  0
  1 24  1  0
  1 25  1  0
  1 26  1  0
  2 27  1  1
  3 28  1  0
  4 29  1  6
  5 30  1  0
  5 31  1  0
 11 32  1  0
 11 33  1  0
 13 34  1  0
 15 35  1  0
 16 36  1  0
 22 37  1  0
M  END
>  <UniqueID>  (41) 
41

>  <SMILES>  (41) 
C[C@@H](O)[C@H](N)C(=O)n1c(C(N)=O)cc2ccc(C(F)(F)F)cc21

>  <Energy>  (41) 
74.1989973264177

>  <Genealogy>  (41) 
C[C@@H](O)[C@H](N)C(=O)n1c(C(N)=O)cc2ccc(C(F)(F)F)cc21 (3D coordinates assigned)
C[C@@H](O)[C@H](N)C(=O)n1c(C(N)=O)cc2ccc(C(F)(F)F)cc21 (optimized conformer: 74.1989973264177 kcal/mol)

>  <smiles>  (41) 
C[C@@H](O)[C@H](N)C(=O)n1c(C(N)=O)cc2ccc(C(F)(F)F)cc21

>  <score_type>  (41) 
oracle

>  <origin>  (41) 
adg

>  <m_score__min__energy>  (41) 
-7.6900000000000004

>  <m_primary>  (41) 
energy

$$$$
41:0
     RDKit          3D

 47 48  0  0  0  0  0  0  0  0999 V2000
  146.8380  155.8080  132.2470 C   0  0  0  0  0  0  0  0  0  0  0  0
  147.2040  156.8650  133.2400 C   0  0  0  0  0  0  0  0  0  0  0  0
  148.1240  156.6360  134.0700 O   0  0  0  0  0  0  0  0  0  0  0  0
  146.5020  158.1190  133.2780 N   0  0  0  0  0  0  0  0  0  0  0  0
  146.9710  159.3560  132.9490 C   0  0  0  0  0  0  0  0  0  0  0  0
  148.3740  159.6930  132.6340 C   0  0  0  0  0  0  0  0  0  0  0  0
  149.4570  158.9330  133.1710 N   0  0  0  0  0  0  0  0  0  0  0  0
  148.6230  160.6990  131.9170 O   0  0  0  0  0  0  0  0  0  0  0  0
  145.9470  160.2980  132.9960 C   0  0  0  0  0  0  0  0  0  0  0  0
  144.8280  159.5970  133.3860 C   0  0  0  0  0  0  0  0  0  0  0  0
  143.5210  160.0340  133.5810 C   0  0  0  0  0  0  0  0  0  0  0  0
  142.5550  159.0810  133.9490 C   0  0  0  0  0  0  0  0  0  0  0  0
  142.9100  157.7120  134.1100 C   0  0  0  0  0  0  0  0  0  0  0  0
  141.9350  156.7180  134.4740 N   0  0  0  0  0  0  0  0  0  0  0  0
  141.3520  155.7730  133.5190 C   0  0  0  0  0  0  0  0  0  0  0  0
  139.9420  156.1720  133.1830 C   0  0  0  0  0  0  0  0  0  0  0  0
  139.1430  155.2860  132.7760 O   0  0  0  0  0  0  0  0  0  0  0  0
  139.4740  157.5240  133.3880 N   0  0  0  0  0  0  0  0  0  0  0  0
  139.7100  158.5510  132.3690 C   0  0  0  0  0  0  0  0  0  0  0  0
  138.7720  157.8720  134.6330 C   0  0  0  0  0  0  0  0  0  0  0  0
  139.7770  158.1370  135.7550 C   0  0  0  0  0  0  0  0  0  0  0  0
  139.7620  157.0530  136.6540 O   0  0  0  0  0  0  0  0  0  0  0  0
  141.2500  157.0250  137.4840 P   0  0  0  0  0  0  0  0  0  0  0  0
  142.0830  158.2070  137.0430 O   0  0  0  0  0  0  0  0  0  0  0  0
  142.0860  155.5980  137.1230 O   0  0  0  0  0  0  0  0  0  0  0  0
  140.9900  157.1210  139.1540 O   0  0  0  0  0  0  0  0  0  0  0  0
  144.2490  157.3140  133.9020 C   0  0  0  0  0  0  0  0  0  0  0  0
  145.1890  158.2870  133.5510 C   0  0  0  0  0  0  0  0  0  0  0  0
  146.5230  154.8983  132.7791 H   0  0  0  0  0  0  0  0  0  0  0  0
  146.0122  156.1681  131.6158 H   0  0  0  0  0  0  0  0  0  0  0  0
  147.7096  155.5803  131.6158 H   0  0  0  0  0  0  0  0  0  0  0  0
  149.2960  158.2230  133.9210 H   0  0  0  0  0  0  0  0  0  0  0  0
  150.4390  159.1480  132.8900 H   0  0  0  0  0  0  0  0  0  0  0  0
  146.0169  161.3723  132.7700 H   0  0  0  0  0  0  0  0  0  0  0  0
  143.2520  161.0927  133.4511 H   0  0  0  0  0  0  0  0  0  0  0  0
  141.5143  159.3966  134.1142 H   0  0  0  0  0  0  0  0  0  0  0  0
  141.6360  156.6700  135.4760 H   0  0  0  0  0  0  0  0  0  0  0  0
  141.9561  155.7672  132.5997 H   0  0  0  0  0  0  0  0  0  0  0  0
  141.3416  154.7698  133.9701 H   0  0  0  0  0  0  0  0  0  0  0  0
  139.9305  159.5105  132.8596 H   0  0  0  0  0  0  0  0  0  0  0  0
  140.5636  158.2554  131.7413 H   0  0  0  0  0  0  0  0  0  0  0  0
  138.8130  158.6577  131.7413 H   0  0  0  0  0  0  0  0  0  0  0  0
  138.1668  158.7755  134.4675 H   0  0  0  0  0  0  0  0  0  0  0  0
  138.1246  157.0318  134.9246 H   0  0  0  0  0  0  0  0  0  0  0  0
  140.7848  158.2473  135.3281 H   0  0  0  0  0  0  0  0  0  0  0  0
  139.5045  159.0614  136.2853 H   0  0  0  0  0  0  0  0  0  0  0  0
  144.5458  156.2607  134.0138 H   0  0  0  0  0  0  0  0  0  0  0  0
  1  2  1  0
  2  3  2  0
  2  4  1  0
  4  5  1  0
  5  6  1  0
  6  7  1  0
  6  8  2  0
  5  9  2  0
  9 10  1  0
 10 11  2  0
 11 12  1  0
 12 13  2  0
 13 14  1  0
 14 15  1  0
 15 16  1  0
 16 17  2  0
 16 18  1  0
 18 19  1  0
 18 20  1  0
 20 21  1  0
 21 22  1  0
 22 23  1  0
 23 24  2  0
 23 25  1  0
 23 26  1  0
 13 27  1  0
 27 28  2  0
 28  4  1  0
 28 10  1  0
  1 29  1  0
  1 30  1  0
  1 31  1  0
  7 32  1  0
  7 33  1  0
  9 34  1  0
 11 35  1  0
 12 36  1  0
 14 37  1  0
 15 38  1  0
 15 39  1  0
 19 40  1  0
 19 41  1  0
 19 42  1  0
 20 43  1  0
 20 44  1  0
 21 45  1  0
 21 46  1  0
 27 47  1  0
M  CHG  2  25  -1  26  -1
M  END
>  <UniqueID>  (42) 
42

>  <SMILES>  (42) 
CC(=O)n1c(C(N)=O)cc2ccc(NCC(=O)N(C)CCOP(=O)([O-])[O-])cc21

>  <Energy>  (42) 
78.6653519675888

>  <Genealogy>  (42) 
CC(=O)n1c(C(N)=O)cc2ccc(NCC(=O)N(C)CCOP(=O)([O-])[O-])cc21 (protonated)
CC(=O)n1c(C(N)=O)cc2ccc(NCC(=O)N(C)CCOP(=O)([O-])[O-])cc21 (3D coordinates assigned)
CC(=O)n1c(C(N)=O)cc2ccc(NCC(=O)N(C)CCOP(=O)([O-])[O-])cc21 (optimized conformer: 78.6653519675888 kcal/mol)

>  <smiles>  (42) 
CC(=O)n1c(C(N)=O)cc2ccc(NCC(=O)N(C)CCOP(=O)(O)O)cc21

>  <score_type>  (42) 
oracle

>  <origin>  (42) 
adg

>  <m_score__min__energy>  (42) 
-7.46

>  <m_primary>  (42) 
energy

$$$$
42:0
     RDKit          3D

 41 42  0  0  0  0  0  0  0  0999 V2000
  142.7810  160.4310  133.3640 N   0  0  0  0  0  0  0  0  0  0  0  0
  144.1320  160.6920  133.7350 C   0  0  0  0  0  0  0  0  0  0  0  0
  144.4320  161.8110  134.2320 O   0  0  0  0  0  0  0  0  0  0  0  0
  145.1710  159.6710  133.4900 C   0  0  0  0  0  0  0  0  0  0  0  0
  146.5300  159.9610  133.3810 C   0  0  0  0  0  0  0  0  0  0  0  0
  147.1500  158.7420  133.2220 C   0  0  0  0  0  0  0  0  0  0  0  0
  148.4990  158.4330  133.0720 C   0  0  0  0  0  0  0  0  0  0  0  0
  148.8530  157.0780  132.9290 C   0  0  0  0  0  0  0  0  0  0  0  0
  147.8570  156.0700  132.9160 C   0  0  0  0  0  0  0  0  0  0  0  0
  148.2470  154.6270  132.7870 C   0  0  0  0  0  0  0  0  0  0  0  0
  149.6020  154.5370  132.5290 F   0  0  0  0  0  0  0  0  0  0  0  0
  146.4990  156.4220  133.0830 C   0  0  0  0  0  0  0  0  0  0  0  0
  146.1810  157.7740  133.2400 C   0  0  0  0  0  0  0  0  0  0  0  0
  144.9630  158.3280  133.3970 N   0  0  0  0  0  0  0  0  0  0  0  0
  143.7120  157.6250  133.3810 C   0  0  0  0  0  0  0  0  0  0  0  0
  143.0080  157.6310  132.3370 O   0  0  0  0  0  0  0  0  0  0  0  0
  143.1810  156.9880  134.6280 C   0  0  0  0  0  0  0  0  0  0  0  0
  143.2830  155.1760  134.4980 P   0  0  2  0  0  0  0  0  0  0  0  0
  143.7440  154.7800  133.1140 O   0  0  0  0  0  0  0  0  0  0  0  0
  141.7480  154.5220  134.7760 O   0  0  0  0  0  0  0  0  0  0  0  0
  144.4290  154.5160  135.7590 C   0  0  0  0  0  0  0  0  0  0  0  0
  145.7410  153.9960  135.1560 C   0  0  0  0  0  0  0  0  0  0  0  0
  146.9100  154.2140  136.0670 C   0  0  0  0  0  0  0  0  0  0  0  0
  147.6390  155.2320  135.9170 O   0  0  0  0  0  0  0  0  0  0  0  0
  147.1930  153.2570  137.0940 N   0  0  0  0  0  0  0  0  0  0  0  0
  147.9530  153.5210  138.2760 C   0  0  0  0  0  0  0  0  0  0  0  0
  149.1650  153.1870  138.3200 O   0  0  0  0  0  0  0  0  0  0  0  0
  147.3720  154.1440  139.3750 O   0  0  0  0  0  0  0  0  0  0  0  0
  142.5540  159.7470  132.6070 H   0  0  0  0  0  0  0  0  0  0  0  0
  147.0057  160.9523  133.4148 H   0  0  0  0  0  0  0  0  0  0  0  0
  149.2645  159.2229  133.0654 H   0  0  0  0  0  0  0  0  0  0  0  0
  149.9121  156.7992  132.8264 H   0  0  0  0  0  0  0  0  0  0  0  0
  148.0165  154.0997  133.7244 H   0  0  0  0  0  0  0  0  0  0  0  0
  147.6851  154.1679  131.9602 H   0  0  0  0  0  0  0  0  0  0  0  0
  145.7129  155.6526  133.0893 H   0  0  0  0  0  0  0  0  0  0  0  0
  143.7756  157.3248  135.4900 H   0  0  0  0  0  0  0  0  0  0  0  0
  142.1290  157.2804  134.7613 H   0  0  0  0  0  0  0  0  0  0  0  0
  144.6644  155.3180  136.4742 H   0  0  0  0  0  0  0  0  0  0  0  0
  143.9297  153.6667  136.2483 H   0  0  0  0  0  0  0  0  0  0  0  0
  145.6390  152.9179  134.9630 H   0  0  0  0  0  0  0  0  0  0  0  0
  145.9292  154.5539  134.2269 H   0  0  0  0  0  0  0  0  0  0  0  0
  1  2  1  0
  2  3  2  0
  2  4  1  0
  4  5  2  0
  5  6  1  0
  6  7  2  0
  7  8  1  0
  8  9  2  0
  9 10  1  0
 10 11  1  0
  9 12  1  0
 12 13  2  0
 13 14  1  0
 14 15  1  0
 15 16  2  0
 15 17  1  0
 17 18  1  0
 18 19  2  0
 18 20  1  1
 18 21  1  0
 21 22  1  0
 22 23  1  0
 23 24  2  0
 23 25  1  0
 25 26  1  0
 26 27  2  0
 26 28  1  0
 14  4  1  0
 13  6  1  0
  1 29  1  0
  5 30  1  0
  7 31  1  0
  8 32  1  0
 10 33  1  0
 10 34  1  0
 12 35  1  0
 17 36  1  0
 17 37  1  0
 21 38  1  0
 21 39  1  0
 22 40  1  0
 22 41  1  0
M  CHG  4   1  -1  20  -1  25  -1  28  -1
M  END
>  <UniqueID>  (43) 
43

>  <SMILES>  (43) 
[NH-]C(=O)c1cc2ccc(CF)cc2n1C(=O)C[P@](=O)([O-])CCC(=O)[N-]C(=O)[O-]

>  <Energy>  (43) 
68.68110688154269

>  <Genealogy>  (43) 
[NH-]C(=O)c1cc2ccc(CF)cc2n1C(=O)CP(=O)([O-])CCC(=O)[N-]C(=O)[O-] (protonated)
[NH-]C(=O)c1cc2ccc(CF)cc2n1C(=O)C[P@](=O)([O-])CCC(=O)[N-]C(=O)[O-] (chirality)
[NH-]C(=O)c1cc2ccc(CF)cc2n1C(=O)C[P@](=O)([O-])CCC(=O)[N-]C(=O)[O-] (3D coordinates assigned)
[NH-]C(=O)c1cc2ccc(CF)cc2n1C(=O)C[P@](=O)([O-])CCC(=O)[N-]C(=O)[O-] (optimized conformer: 68.68110688154269 kcal/mol)

>  <smiles>  (43) 
NC(=O)c1cc2ccc(CF)cc2n1C(=O)CP(=O)(O)CCC(=O)NC(=O)O

>  <score_type>  (43) 
oracle

>  <origin>  (43) 
adg

>  <m_score__min__energy>  (43) 
-7.0199999999999996

>  <m_primary>  (43) 
energy

$$$$
43:0
     RDKit          3D

 29 30  0  0  0  0  0  0  0  0999 V2000
  147.8170  152.6150  133.7130 N   0  0  0  0  0  0  0  0  0  0  0  0
  148.7230  153.6080  133.2290 C   0  0  0  0  0  0  0  0  0  0  0  0
  149.8720  153.2600  132.8470 O   0  0  0  0  0  0  0  0  0  0  0  0
  148.3580  155.0400  133.2140 C   0  0  0  0  0  0  0  0  0  0  0  0
  149.1300  156.0270  132.6040 C   0  0  0  0  0  0  0  0  0  0  0  0
  148.4510  157.2040  132.8190 C   0  0  0  0  0  0  0  0  0  0  0  0
  148.7530  158.4990  132.4070 C   0  0  0  0  0  0  0  0  0  0  0  0
  147.8430  159.5210  132.7270 C   0  0  0  0  0  0  0  0  0  0  0  0
  146.6440  159.2270  133.4260 C   0  0  0  0  0  0  0  0  0  0  0  0
  145.6860  160.3300  133.7760 C   0  0  0  0  0  0  0  0  0  0  0  0
  144.2860  159.9120  133.4600 C   0  0  0  0  0  0  0  0  0  0  0  0
  144.0730  158.9580  132.6660 O   0  0  0  0  0  0  0  0  0  0  0  0
  143.2150  160.5410  134.0820 O   0  0  0  0  0  0  0  0  0  0  0  0
  146.3750  157.9010  133.8320 C   0  0  0  0  0  0  0  0  0  0  0  0
  147.3140  156.9100  133.5250 C   0  0  0  0  0  0  0  0  0  0  0  0
  147.2470  155.5850  133.7840 N   0  0  0  0  0  0  0  0  0  0  0  0
  146.1460  154.8840  134.3820 C   0  0  0  0  0  0  0  0  0  0  0  0
  145.1950  154.4820  133.6600 O   0  0  0  0  0  0  0  0  0  0  0  0
  146.1210  154.5960  135.8220 C   0  0  0  0  0  0  0  0  0  0  0  0
  146.6390  153.5430  136.2760 O   0  0  0  0  0  0  0  0  0  0  0  0
  148.0740  151.6050  133.6600 H   0  0  0  0  0  0  0  0  0  0  0  0
  146.9420  152.8790  134.2160 H   0  0  0  0  0  0  0  0  0  0  0  0
  150.0798  155.8934  132.0654 H   0  0  0  0  0  0  0  0  0  0  0  0
  149.6754  158.7156  131.8482 H   0  0  0  0  0  0  0  0  0  0  0  0
  148.0623  160.5580  132.4329 H   0  0  0  0  0  0  0  0  0  0  0  0
  145.7654  160.5541  134.8500 H   0  0  0  0  0  0  0  0  0  0  0  0
  145.9365  161.2253  133.1881 H   0  0  0  0  0  0  0  0  0  0  0  0
  145.4511  157.6538  134.3755 H   0  0  0  0  0  0  0  0  0  0  0  0
  145.6442  155.3086  136.5111 H   0  0  0  0  0  0  0  0  0  0  0  0
  1  2  1  0
  2  3  2  0
  2  4  1  0
  4  5  2  0
  5  6  1  0
  6  7  2  0
  7  8  1  0
  8  9  2  0
  9 10  1  0
 10 11  1  0
 11 12  2  0
 11 13  1  0
  9 14  1  0
 14 15  2  0
 15 16  1  0
 16 17  1  0
 17 18  2  0
 17 19  1  0
 19 20  2  0
 16  4  1  0
 15  6  1  0
  1 21  1  0
  1 22  1  0
  5 23  1  0
  7 24  1  0
  8 25  1  0
 10 26  1  0
 10 27  1  0
 14 28  1  0
 19 29  1  0
M  CHG  1  13  -1
M  END
>  <UniqueID>  (44) 
44

>  <SMILES>  (44) 
NC(=O)c1cc2ccc(CC(=O)[O-])cc2n1C(=O)C=O

>  <Energy>  (44) 
67.7417246339353

>  <Genealogy>  (44) 
NC(=O)c1cc2ccc(CC(=O)[O-])cc2n1C(=O)C=O (protonated)
NC(=O)c1cc2ccc(CC(=O)[O-])cc2n1C(=O)C=O (3D coordinates assigned)
NC(=O)c1cc2ccc(CC(=O)[O-])cc2n1C(=O)C=O (optimized conformer: 67.7417246339353 kcal/mol)

>  <smiles>  (44) 
NC(=O)c1cc2ccc(CC(=O)O)cc2n1C(=O)C=O

>  <score_type>  (44) 
oracle

>  <origin>  (44) 
adg

>  <m_score__min__energy>  (44) 
-6.8300000000000001

>  <m_primary>  (44) 
energy

$$$$
44:0
     RDKit          3D

 42 43  0  0  0  0  0  0  0  0999 V2000
  147.7670  154.9380  132.8830 C   0  0  0  0  0  0  0  0  0  0  0  0
  147.5630  156.4180  133.0110 C   0  0  0  0  0  0  0  0  0  0  0  0
  148.6280  157.3080  132.7280 C   0  0  0  0  0  0  0  0  0  0  0  0
  148.4420  158.6970  132.8140 C   0  0  0  0  0  0  0  0  0  0  0  0
  147.1800  159.1650  133.1690 C   0  0  0  0  0  0  0  0  0  0  0  0
  146.7310  160.4540  133.3440 C   0  0  0  0  0  0  0  0  0  0  0  0
  145.3890  160.3330  133.6980 C   0  0  0  0  0  0  0  0  0  0  0  0
  144.4940  161.4910  133.8970 C   0  0  0  0  0  0  0  0  0  0  0  0
  143.0840  161.3690  133.7270 N   0  0  0  0  0  0  0  0  0  0  0  0
  144.9850  162.6180  134.1750 O   0  0  0  0  0  0  0  0  0  0  0  0
  145.0230  159.0210  133.7470 N   0  0  0  0  0  0  0  0  0  0  0  0
  143.7620  158.4760  134.1660 C   0  0  0  0  0  0  0  0  0  0  0  0
  143.2340  158.8650  135.2440 O   0  0  0  0  0  0  0  0  0  0  0  0
  143.1160  157.5290  133.3650 O   0  0  0  0  0  0  0  0  0  0  0  0
  142.0030  157.8520  132.5380 C   0  0  0  0  0  0  0  0  0  0  0  0
  141.4550  159.1010  132.9420 O   0  0  0  0  0  0  0  0  0  0  0  0
  140.1600  159.5110  132.6040 C   0  0  0  0  0  0  0  0  0  0  0  0
  139.8670  160.7390  132.5890 O   0  0  0  0  0  0  0  0  0  0  0  0
  139.1630  158.5260  132.2730 N   0  0  0  0  0  0  0  0  0  0  0  0
  138.6810  157.6200  133.3190 C   0  0  0  0  0  0  0  0  0  0  0  0
  138.6320  158.4310  130.9070 C   0  0  0  0  0  0  0  0  0  0  0  0
  137.9770  159.7180  130.5150 C   0  0  0  0  0  0  0  0  0  0  0  0
  137.2600  160.4800  131.4830 N   0  0  0  0  0  0  0  0  0  0  0  0
  138.0620  160.1320  129.3270 O   0  0  0  0  0  0  0  0  0  0  0  0
  146.1300  158.3180  133.4170 C   0  0  0  0  0  0  0  0  0  0  0  0
  146.2930  156.9290  133.3540 C   0  0  0  0  0  0  0  0  0  0  0  0
  147.8290  154.4884  133.8850 H   0  0  0  0  0  0  0  0  0  0  0  0
  146.9211  154.4973  132.3350 H   0  0  0  0  0  0  0  0  0  0  0  0
  148.7006  154.7426  132.3350 H   0  0  0  0  0  0  0  0  0  0  0  0
  149.6104  156.9070  132.4380 H   0  0  0  0  0  0  0  0  0  0  0  0
  149.2678  159.3937  132.6073 H   0  0  0  0  0  0  0  0  0  0  0  0
  147.3090  161.3828  133.2288 H   0  0  0  0  0  0  0  0  0  0  0  0
  142.5870  160.4850  133.9730 H   0  0  0  0  0  0  0  0  0  0  0  0
  142.3323  157.9183  131.4905 H   0  0  0  0  0  0  0  0  0  0  0  0
  141.2368  157.0686  132.6342 H   0  0  0  0  0  0  0  0  0  0  0  0
  138.9081  158.0469  134.3070 H   0  0  0  0  0  0  0  0  0  0  0  0
  137.5936  157.4883  133.2176 H   0  0  0  0  0  0  0  0  0  0  0  0
  139.1795  156.6447  133.2176 H   0  0  0  0  0  0  0  0  0  0  0  0
  139.4564  158.2165  130.2111 H   0  0  0  0  0  0  0  0  0  0  0  0
  137.8866  157.6231  130.8677 H   0  0  0  0  0  0  0  0  0  0  0  0
  137.7610  161.1180  132.1410 H   0  0  0  0  0  0  0  0  0  0  0  0
  145.4520  156.2526  133.5666 H   0  0  0  0  0  0  0  0  0  0  0  0
  1  2  1  0
  2  3  2  0
  3  4  1  0
  4  5  2  0
  5  6  1  0
  6  7  2  0
  7  8  1  0
  8  9  1  0
  8 10  2  0
  7 11  1  0
 11 12  1  0
 12 13  2  0
 12 14  1  0
 14 15  1  0
 15 16  1  0
 16 17  1  0
 17 18  2  0
 17 19  1  0
 19 20  1  0
 19 21  1  0
 21 22  1  0
 22 23  1  0
 22 24  2  0
 11 25  1  0
 25 26  2  0
 26  2  1  0
 25  5  1  0
  1 27  1  0
  1 28  1  0
  1 29  1  0
  3 30  1  0
  4 31  1  0
  6 32  1  0
  9 33  1  0
 15 34  1  0
 15 35  1  0
 20 36  1  0
 20 37  1  0
 20 38  1  0
 21 39  1  0
 21 40  1  0
 23 41  1  0
 26 42  1  0
M  CHG  2   9  -1  23  -1
M  END
>  <UniqueID>  (45) 
45

>  <SMILES>  (45) 
Cc1ccc2cc(C([NH-])=O)n(C(=O)OCOC(=O)N(C)CC([NH-])=O)c2c1

>  <Energy>  (45) 
72.53478315369892

>  <Genealogy>  (45) 
Cc1ccc2cc(C([NH-])=O)n(C(=O)OCOC(=O)N(C)CC([NH-])=O)c2c1 (protonated)
Cc1ccc2cc(C([NH-])=O)n(C(=O)OCOC(=O)N(C)CC([NH-])=O)c2c1 (3D coordinates assigned)
Cc1ccc2cc(C([NH-])=O)n(C(=O)OCOC(=O)N(C)CC([NH-])=O)c2c1 (optimized conformer: 72.53478315369892 kcal/mol)

>  <smiles>  (45) 
Cc1ccc2cc(C(N)=O)n(C(=O)OCOC(=O)N(C)CC(N)=O)c2c1

>  <score_type>  (45) 
oracle

>  <origin>  (45) 
adg

>  <m_score__min__energy>  (45) 
-6.7400000000000002

>  <m_primary>  (45) 
energy

$$$$
45:0
     RDKit          3D

 48 49  0  0  0  0  0  0  0  0999 V2000
  149.9650  153.7900  132.2340 C   0  0  0  0  0  0  0  0  0  0  0  0
  148.7670  153.2380  133.0120 C   0  0  1  0  0  0  0  0  0  0  0  0
  147.5320  153.9190  132.6060 N   0  0  0  0  0  0  0  0  0  0  0  0
  147.2770  155.3210  132.8250 C   0  0  0  0  0  0  0  0  0  0  0  0
  148.3720  156.2180  132.8900 C   0  0  0  0  0  0  0  0  0  0  0  0
  148.1710  157.5920  133.1120 C   0  0  0  0  0  0  0  0  0  0  0  0
  146.8640  158.0410  133.2660 C   0  0  0  0  0  0  0  0  0  0  0  0
  146.3790  159.3150  133.4720 C   0  0  0  0  0  0  0  0  0  0  0  0
  144.9930  159.1740  133.5330 C   0  0  0  0  0  0  0  0  0  0  0  0
  144.0590  160.2930  133.7780 C   0  0  0  0  0  0  0  0  0  0  0  0
  142.7010  160.1900  133.3560 N   0  0  0  0  0  0  0  0  0  0  0  0
  144.4520  161.3470  134.3420 O   0  0  0  0  0  0  0  0  0  0  0  0
  144.6410  157.8680  133.3830 N   0  0  0  0  0  0  0  0  0  0  0  0
  143.3160  157.3220  133.3120 C   0  0  0  0  0  0  0  0  0  0  0  0
  142.6590  157.4510  132.2430 O   0  0  0  0  0  0  0  0  0  0  0  0
  142.7320  156.6330  134.4390 N   0  0  0  0  0  0  0  0  0  0  0  0
  142.8460  155.1730  134.5110 C   0  0  0  0  0  0  0  0  0  0  0  0
  141.9930  157.3680  135.4770 C   0  0  0  0  0  0  0  0  0  0  0  0
  140.6270  157.7430  134.9830 C   0  0  0  0  0  0  0  0  0  0  0  0
  139.6170  157.4460  135.6750 O   0  0  0  0  0  0  0  0  0  0  0  0
  140.4710  158.4200  133.7280 N   0  0  0  0  0  0  0  0  0  0  0  0
  139.1490  158.7360  133.1920 C   0  0  0  0  0  0  0  0  0  0  0  0
  139.2690  159.4370  131.8760 C   0  0  0  0  0  0  0  0  0  0  0  0
  138.2350  159.7860  131.2460 O   0  0  0  0  0  0  0  0  0  0  0  0
  140.5220  159.6660  131.3210 O   0  0  0  0  0  0  0  0  0  0  0  0
  145.7940  157.1890  133.2110 C   0  0  0  0  0  0  0  0  0  0  0  0
  145.9600  155.8230  132.9770 C   0  0  0  0  0  0  0  0  0  0  0  0
  148.6460  151.7610  132.7700 C   0  0  0  0  0  0  0  0  0  0  0  0
  147.6240  151.2960  132.1990 O   0  0  0  0  0  0  0  0  0  0  0  0
  149.6370  150.8930  133.2140 O   0  0  0  0  0  0  0  0  0  0  0  0
  150.7304  154.1426  132.9410 H   0  0  0  0  0  0  0  0  0  0  0  0
  150.3884  152.9962  131.6011 H   0  0  0  0  0  0  0  0  0  0  0  0
  149.6367  154.6276  131.6011 H   0  0  0  0  0  0  0  0  0  0  0  0
  148.9257  153.4186  134.0854 H   0  0  0  0  0  0  0  0  0  0  0  0
  146.8080  153.3680  132.0900 H   0  0  0  0  0  0  0  0  0  0  0  0
  149.3950  155.8336  132.7649 H   0  0  0  0  0  0  0  0  0  0  0  0
  149.0204  158.2891  133.1622 H   0  0  0  0  0  0  0  0  0  0  0  0
  146.9607  160.2437  133.5677 H   0  0  0  0  0  0  0  0  0  0  0  0
  142.4380  159.6020  132.5340 H   0  0  0  0  0  0  0  0  0  0  0  0
  142.8705  154.8587  135.5648 H   0  0  0  0  0  0  0  0  0  0  0  0
  141.9811  154.7126  134.0111 H   0  0  0  0  0  0  0  0  0  0  0  0
  143.7719  154.8524  134.0111 H   0  0  0  0  0  0  0  0  0  0  0  0
  141.8935  156.7324  136.3693 H   0  0  0  0  0  0  0  0  0  0  0  0
  142.5461  158.2859  135.7252 H   0  0  0  0  0  0  0  0  0  0  0  0
  141.3270  158.6690  133.1820 H   0  0  0  0  0  0  0  0  0  0  0  0
  138.5821  157.8034  133.0546 H   0  0  0  0  0  0  0  0  0  0  0  0
  138.6277  159.3970  133.9000 H   0  0  0  0  0  0  0  0  0  0  0  0
  145.0903  155.1526  132.9122 H   0  0  0  0  0  0  0  0  0  0  0  0
  1  2  1  0
  2  3  1  0
  3  4  1  0
  4  5  2  0
  5  6  1  0
  6  7  2  0
  7  8  1  0
  8  9  2  0
  9 10  1  0
 10 11  1  0
 10 12  2  0
  9 13  1  0
 13 14  1  0
 14 15  2  0
 14 16  1  0
 16 17  1  0
 16 18  1  0
 18 19  1  0
 19 20  2  0
 19 21  1  0
 21 22  1  0
 22 23  1  0
 23 24  2  0
 23 25  1  0
 13 26  1  0
 26 27  2  0
  2 28  1  0
 28 29  2  0
 28 30  1  0
 27  4  1  0
 26  7  1  0
  1 31  1  0
  1 32  1  0
  1 33  1  0
  2 34  1  1
  3 35  1  0
  5 36  1  0
  6 37  1  0
  8 38  1  0
 11 39  1  0
 17 40  1  0
 17 41  1  0
 17 42  1  0
 18 43  1  0
 18 44  1  0
 21 45  1  0
 22 46  1  0
 22 47  1  0
 27 48  1  0
M  CHG  3  11  -1  25  -1  30  -1
M  END
>  <UniqueID>  (46) 
46

>  <SMILES>  (46) 
C[C@@H](Nc1ccc2cc(C([NH-])=O)n(C(=O)N(C)CC(=O)NCC(=O)[O-])c2c1)C(=O)[O-]

>  <Energy>  (46) 
75.01879107724751

>  <Genealogy>  (46) 
CC(Nc1ccc2cc(C([NH-])=O)n(C(=O)N(C)CC(=O)NCC(=O)[O-])c2c1)C(=O)[O-] (protonated)
C[C@@H](Nc1ccc2cc(C([NH-])=O)n(C(=O)N(C)CC(=O)NCC(=O)[O-])c2c1)C(=O)[O-] (chirality)
C[C@@H](Nc1ccc2cc(C([NH-])=O)n(C(=O)N(C)CC(=O)NCC(=O)[O-])c2c1)C(=O)[O-] (3D coordinates assigned)
C[C@@H](Nc1ccc2cc(C([NH-])=O)n(C(=O)N(C)CC(=O)NCC(=O)[O-])c2c1)C(=O)[O-] (optimized conformer: 75.01879107724751 kcal/mol)

>  <smiles>  (46) 
CC(Nc1ccc2cc(C(N)=O)n(C(=O)N(C)CC(=O)NCC(=O)O)c2c1)C(=O)O

>  <score_type>  (46) 
oracle

>  <origin>  (46) 
adg

>  <m_score__min__energy>  (46) 
-7.5899999999999999

>  <m_primary>  (46) 
energy

$$$$
46:0
     RDKit          3D

 32 33  0  0  0  0  0  0  0  0999 V2000
  140.8000  158.7340  133.6260 C   0  0  0  0  0  0  0  0  0  0  0  0
  142.2460  159.1300  133.6420 C   0  0  0  0  0  0  0  0  0  0  0  0
  142.6060  160.4940  133.7720 C   0  0  0  0  0  0  0  0  0  0  0  0
  143.9540  160.8840  133.7390 C   0  0  0  0  0  0  0  0  0  0  0  0
  144.9170  159.8930  133.5690 C   0  0  0  0  0  0  0  0  0  0  0  0
  146.2850  159.9970  133.4680 C   0  0  0  0  0  0  0  0  0  0  0  0
  146.7420  158.6930  133.2840 C   0  0  0  0  0  0  0  0  0  0  0  0
  148.1730  158.3220  133.2130 C   0  0  0  0  0  0  0  0  0  0  0  0
  148.5930  156.9820  133.4770 N   0  0  0  0  0  0  0  0  0  0  0  0
  149.0340  159.1820  132.8900 O   0  0  0  0  0  0  0  0  0  0  0  0
  145.6970  157.8190  133.2700 N   0  0  0  0  0  0  0  0  0  0  0  0
  145.7460  156.4030  133.0290 C   0  0  0  0  0  0  0  0  0  0  0  0
  146.5380  155.9390  132.1640 O   0  0  0  0  0  0  0  0  0  0  0  0
  144.9180  155.5450  133.7640 O   0  0  0  0  0  0  0  0  0  0  0  0
  145.3450  154.2820  134.2680 C   0  0  0  0  0  0  0  0  0  0  0  0
  146.9730  154.4380  135.0670 P   0  0  0  0  0  0  0  0  0  0  0  0
  148.0690  154.1060  134.0810 O   0  0  0  0  0  0  0  0  0  0  0  0
  147.1770  156.0210  135.6220 O   0  0  0  0  0  0  0  0  0  0  0  0
  147.0550  153.3700  136.3760 O   0  0  0  0  0  0  0  0  0  0  0  0
  144.5860  158.5690  133.4450 C   0  0  0  0  0  0  0  0  0  0  0  0
  143.2480  158.1530  133.4560 C   0  0  0  0  0  0  0  0  0  0  0  0
  140.4357  158.6342  134.6591 H   0  0  0  0  0  0  0  0  0  0  0  0
  140.2145  159.5049  133.1036 H   0  0  0  0  0  0  0  0  0  0  0  0
  140.6889  157.7724  133.1036 H   0  0  0  0  0  0  0  0  0  0  0  0
  141.8218  161.2546  133.9000 H   0  0  0  0  0  0  0  0  0  0  0  0
  144.2408  161.9407  133.8443 H   0  0  0  0  0  0  0  0  0  0  0  0
  146.8898  160.9143  133.5212 H   0  0  0  0  0  0  0  0  0  0  0  0
  149.6000  156.7220  133.3860 H   0  0  0  0  0  0  0  0  0  0  0  0
  147.9170  156.2550  133.7990 H   0  0  0  0  0  0  0  0  0  0  0  0
  144.6128  153.9188  135.0042 H   0  0  0  0  0  0  0  0  0  0  0  0
  145.4234  153.5713  133.4321 H   0  0  0  0  0  0  0  0  0  0  0  0
  142.9853  157.0931  133.3232 H   0  0  0  0  0  0  0  0  0  0  0  0
  1  2  1  0
  2  3  2  0
  3  4  1  0
  4  5  2  0
  5  6  1  0
  6  7  2  0
  7  8  1  0
  8  9  1  0
  8 10  2  0
  7 11  1  0
 11 12  1  0
 12 13  2  0
 12 14  1  0
 14 15  1  0
 15 16  1  0
 16 17  2  0
 16 18  1  0
 16 19  1  0
 11 20  1  0
 20 21  2  0
 21  2  1  0
 20  5  1  0
  1 22  1  0
  1 23  1  0
  1 24  1  0
  3 25  1  0
  4 26  1  0
  6 27  1  0
  9 28  1  0
  9 29  1  0
 15 30  1  0
 15 31  1  0
 21 32  1  0
M  CHG  2  18  -1  19  -1
M  END
>  <UniqueID>  (47) 
47

>  <SMILES>  (47) 
Cc1ccc2cc(C(N)=O)n(C(=O)OCP(=O)([O-])[O-])c2c1

>  <Energy>  (47) 
65.18745271410552

>  <Genealogy>  (47) 
Cc1ccc2cc(C(N)=O)n(C(=O)OCP(=O)([O-])[O-])c2c1 (protonated)
Cc1ccc2cc(C(N)=O)n(C(=O)OCP(=O)([O-])[O-])c2c1 (3D coordinates assigned)
Cc1ccc2cc(C(N)=O)n(C(=O)OCP(=O)([O-])[O-])c2c1 (optimized conformer: 65.18745271410552 kcal/mol)

>  <smiles>  (47) 
Cc1ccc2cc(C(N)=O)n(C(=O)OCP(=O)(O)O)c2c1

>  <score_type>  (47) 
oracle

>  <origin>  (47) 
adg

>  <m_score__min__energy>  (47) 
-6.0099999999999998

>  <m_primary>  (47) 
energy

$$$$
47:0
     RDKit          3D

 48 51  0  0  0  0  0  0  0  0999 V2000
  147.4470  156.3090  133.4430 C   0  0  0  0  0  0  0  0  0  0  0  0
  146.3060  157.2770  133.5470 C   0  0  0  0  0  0  0  0  0  0  0  0
  146.4400  158.5890  133.0330 C   0  0  0  0  0  0  0  0  0  0  0  0
  145.3700  159.4980  133.1000 C   0  0  0  0  0  0  0  0  0  0  0  0
  144.1760  159.0580  133.6660 C   0  0  0  0  0  0  0  0  0  0  0  0
  142.9930  159.7290  133.8760 C   0  0  0  0  0  0  0  0  0  0  0  0
  142.1450  158.8020  134.4770 C   0  0  0  0  0  0  0  0  0  0  0  0
  140.7440  159.0940  134.8420 C   0  0  0  0  0  0  0  0  0  0  0  0
  140.2120  158.7110  136.1100 N   0  0  0  0  0  0  0  0  0  0  0  0
  139.9910  159.6550  134.0030 O   0  0  0  0  0  0  0  0  0  0  0  0
  142.7840  157.6110  134.6500 N   0  0  0  0  0  0  0  0  0  0  0  0
  142.2940  156.4310  135.3090 C   0  0  0  0  0  0  0  0  0  0  0  0
  142.1790  156.4320  136.5650 O   0  0  0  0  0  0  0  0  0  0  0  0
  141.9280  155.2140  134.5450 C   0  0  0  0  0  0  0  0  0  0  0  0
  142.7170  154.0580  134.6590 C   0  0  0  0  0  0  0  0  0  0  0  0
  142.4010  152.9080  133.9310 C   0  0  0  0  0  0  0  0  0  0  0  0
  141.2900  152.8870  133.0830 C   0  0  0  0  0  0  0  0  0  0  0  0
  141.0240  151.7060  132.3690 O   0  0  0  0  0  0  0  0  0  0  0  0
  140.5100  150.4960  132.9330 C   0  0  1  0  0  0  0  0  0  0  0  0
  139.4330  149.9060  132.0490 C   0  0  0  0  0  0  0  0  0  0  0  0
  140.1900  149.0220  131.0730 C   0  0  0  0  0  0  0  0  0  0  0  0
  141.4870  148.6890  131.6660 N   0  0  0  0  0  0  0  0  0  0  0  0
  141.5950  149.4340  132.9230 C   0  0  0  0  0  0  0  0  0  0  0  0
  140.4840  154.0350  132.9800 C   0  0  0  0  0  0  0  0  0  0  0  0
  140.7970  155.1890  133.7060 C   0  0  0  0  0  0  0  0  0  0  0  0
  139.9720  156.2620  133.6110 F   0  0  0  0  0  0  0  0  0  0  0  0
  144.0220  157.7800  134.1410 C   0  0  0  0  0  0  0  0  0  0  0  0
  145.0760  156.8610  134.1020 C   0  0  0  0  0  0  0  0  0  0  0  0
  147.7808  156.0259  134.4522 H   0  0  0  0  0  0  0  0  0  0  0  0
  147.1175  155.4107  132.9003 H   0  0  0  0  0  0  0  0  0  0  0  0
  148.2796  156.7805  132.9003 H   0  0  0  0  0  0  0  0  0  0  0  0
  147.3911  158.9004  132.5765 H   0  0  0  0  0  0  0  0  0  0  0  0
  145.4724  160.5243  132.7176 H   0  0  0  0  0  0  0  0  0  0  0  0
  142.7655  160.7751  133.6230 H   0  0  0  0  0  0  0  0  0  0  0  0
  139.2380  158.9820  136.3730 H   0  0  0  0  0  0  0  0  0  0  0  0
  140.7440  158.0860  136.7550 H   0  0  0  0  0  0  0  0  0  0  0  0
  143.5910  154.0578  135.3269 H   0  0  0  0  0  0  0  0  0  0  0  0
  143.0317  152.0118  134.0260 H   0  0  0  0  0  0  0  0  0  0  0  0
  140.1402  150.7447  133.9387 H   0  0  0  0  0  0  0  0  0  0  0  0
  138.7235  149.3115  132.6434 H   0  0  0  0  0  0  0  0  0  0  0  0
  138.8370  150.6784  131.5408 H   0  0  0  0  0  0  0  0  0  0  0  0
  139.6190  148.1007  130.8856 H   0  0  0  0  0  0  0  0  0  0  0  0
  140.3336  149.5480  130.1177 H   0  0  0  0  0  0  0  0  0  0  0  0
  141.5100  147.6640  131.8790 H   0  0  0  0  0  0  0  0  0  0  0  0
  141.4573  148.7515  133.7746 H   0  0  0  0  0  0  0  0  0  0  0  0
  142.5876  149.9007  133.0068 H   0  0  0  0  0  0  0  0  0  0  0  0
  139.6012  154.0253  132.3238 H   0  0  0  0  0  0  0  0  0  0  0  0
  144.9499  155.8408  134.4935 H   0  0  0  0  0  0  0  0  0  0  0  0
  1  2  1  0
  2  3  2  0
  3  4  1  0
  4  5  2  0
  5  6  1  0
  6  7  2  0
  7  8  1  0
  8  9  1  0
  8 10  2  0
  7 11  1  0
 11 12  1  0
 12 13  2  0
 12 14  1  0
 14 15  2  0
 15 16  1  0
 16 17  2  0
 17 18  1  0
 18 19  1  0
 19 20  1  0
 20 21  1  0
 21 22  1  0
 22 23  1  0
 17 24  1  0
 24 25  2  0
 25 26  1  0
 11 27  1  0
 27 28  2  0
 28  2  1  0
 27  5  1  0
 25 14  1  0
 23 19  1  0
  1 29  1  0
  1 30  1  0
  1 31  1  0
  3 32  1  0
  4 33  1  0
  6 34  1  0
  9 35  1  0
  9 36  1  0
 15 37  1  0
 16 38  1  0
 19 39  1  1
 20 40  1  0
 20 41  1  0
 21 42  1  0
 21 43  1  0
 22 44  1  0
 23 45  1  0
 23 46  1  0
 24 47  1  0
 28 48  1  0
M  END
>  <UniqueID>  (48) 
48

>  <SMILES>  (48) 
Cc1ccc2cc(C(N)=O)n(C(=O)c3ccc(O[C@H]4CCNC4)cc3F)c2c1

>  <Energy>  (48) 
93.64859328542762

>  <Genealogy>  (48) 
Cc1ccc2cc(C(N)=O)n(C(=O)c3ccc(O[C@H]4CCNC4)cc3F)c2c1 (3D coordinates assigned)
Cc1ccc2cc(C(N)=O)n(C(=O)c3ccc(O[C@H]4CCNC4)cc3F)c2c1 (nonaromatic ring conformer: 93.64859328542762 kcal/mol)

>  <smiles>  (48) 
Cc1ccc2cc(C(N)=O)n(C(=O)c3ccc(O[C@H]4CCNC4)cc3F)c2c1

>  <score_type>  (48) 
oracle

>  <origin>  (48) 
adg

>  <m_score__min__energy>  (48) 
-8.5700000000000003

>  <m_primary>  (48) 
energy

$$$$
48:0
     RDKit          3D

 63 66  0  0  0  0  0  0  0  0999 V2000
  139.7800  155.2140  132.9570 C   0  0  0  0  0  0  0  0  0  0  0  0
  140.1530  156.6530  133.1630 C   0  0  0  0  0  0  0  0  0  0  0  0
  139.1490  157.6150  133.4270 C   0  0  0  0  0  0  0  0  0  0  0  0
  139.4880  158.9610  133.6550 C   0  0  0  0  0  0  0  0  0  0  0  0
  140.8360  159.3080  133.6140 C   0  0  0  0  0  0  0  0  0  0  0  0
  141.4470  160.5260  133.8130 C   0  0  0  0  0  0  0  0  0  0  0  0
  142.8110  160.2760  133.6750 C   0  0  0  0  0  0  0  0  0  0  0  0
  143.8440  161.3270  133.7250 C   0  0  0  0  0  0  0  0  0  0  0  0
  145.1520  161.0110  134.2010 N   0  0  0  0  0  0  0  0  0  0  0  0
  143.5670  162.5100  133.3940 O   0  0  0  0  0  0  0  0  0  0  0  0
  143.0330  158.9600  133.4110 N   0  0  0  0  0  0  0  0  0  0  0  0
  144.2890  158.2640  133.4190 C   0  0  0  0  0  0  0  0  0  0  0  0
  145.2480  158.6950  132.7190 O   0  0  0  0  0  0  0  0  0  0  0  0
  144.4520  156.9930  134.2080 C   0  0  0  0  0  0  0  0  0  0  0  0
  144.7610  155.8310  133.3070 C   0  0  0  0  0  0  0  0  0  0  0  0
  144.1590  155.7090  132.2050 O   0  0  0  0  0  0  0  0  0  0  0  0
  145.7020  154.8190  133.7030 N   0  0  0  0  0  0  0  0  0  0  0  0
  145.3460  153.3950  133.6280 C   0  0  0  0  0  0  0  0  0  0  0  0
  143.8450  153.2040  133.4740 C   0  0  0  0  0  0  0  0  0  0  0  0
  144.7690  152.8680  132.3170 C   0  0  0  0  0  0  0  0  0  0  0  0
  147.0940  155.1520  134.0720 C   0  0  0  0  0  0  0  0  0  0  0  0
  147.1960  156.3810  135.0190 C   0  0  0  0  0  0  0  0  0  0  0  0
  148.4740  157.1700  134.7620 C   0  0  0  0  0  0  0  0  0  0  0  0
  148.4590  157.6390  133.3720 N   0  0  0  0  0  0  0  0  0  0  0  0
  148.3220  159.0460  133.0760 C   0  0  0  0  0  0  0  0  0  0  0  0
  147.8340  159.8280  133.9390 O   0  0  0  0  0  0  0  0  0  0  0  0
  148.6730  159.5650  131.7820 N   0  0  0  0  0  0  0  0  0  0  0  0
  149.9460  159.2150  131.1540 C   0  0  0  0  0  0  0  0  0  0  0  0
  147.7550  160.4760  131.1040 C   0  0  0  0  0  0  0  0  0  0  0  0
  148.2310  156.6650  132.2910 C   0  0  0  0  0  0  0  0  0  0  0  0
  148.0020  155.2380  132.8150 C   0  0  0  0  0  0  0  0  0  0  0  0
  141.8170  158.3820  133.3710 C   0  0  0  0  0  0  0  0  0  0  0  0
  141.5110  157.0370  133.1520 C   0  0  0  0  0  0  0  0  0  0  0  0
  139.6531  154.7246  133.9339 H   0  0  0  0  0  0  0  0  0  0  0  0
  138.8373  155.1567  132.3930 H   0  0  0  0  0  0  0  0  0  0  0  0
  140.5761  154.7060  132.3930 H   0  0  0  0  0  0  0  0  0  0  0  0
  138.0933  157.3071  133.4542 H   0  0  0  0  0  0  0  0  0  0  0  0
  138.7135  159.7150  133.8590 H   0  0  0  0  0  0  0  0  0  0  0  0
  140.9628  161.4888  134.0334 H   0  0  0  0  0  0  0  0  0  0  0  0
  145.8640  160.5890  133.5660 H   0  0  0  0  0  0  0  0  0  0  0  0
  145.2756  157.1194  134.9261 H   0  0  0  0  0  0  0  0  0  0  0  0
  143.5082  156.7854  134.7335 H   0  0  0  0  0  0  0  0  0  0  0  0
  146.1542  153.0365  134.2825 H   0  0  0  0  0  0  0  0  0  0  0  0
  143.3349  152.3977  134.0215 H   0  0  0  0  0  0  0  0  0  0  0  0
  142.9634  153.8495  133.6010 H   0  0  0  0  0  0  0  0  0  0  0  0
  144.9293  151.8189  132.0277 H   0  0  0  0  0  0  0  0  0  0  0  0
  144.8349  153.1690  131.2610 H   0  0  0  0  0  0  0  0  0  0  0  0
  147.4850  154.3197  134.6756 H   0  0  0  0  0  0  0  0  0  0  0  0
  146.3293  157.0370  134.8502 H   0  0  0  0  0  0  0  0  0  0  0  0
  147.2125  156.0198  136.0579 H   0  0  0  0  0  0  0  0  0  0  0  0
  148.5217  158.0317  135.4440 H   0  0  0  0  0  0  0  0  0  0  0  0
  149.3528  156.5315  134.9352 H   0  0  0  0  0  0  0  0  0  0  0  0
  150.6948  159.0091  131.9330 H   0  0  0  0  0  0  0  0  0  0  0  0
  149.8124  158.3203  130.5282 H   0  0  0  0  0  0  0  0  0  0  0  0
  150.2886  160.0523  130.5282 H   0  0  0  0  0  0  0  0  0  0  0  0
  147.1827  161.0439  131.8523 H   0  0  0  0  0  0  0  0  0  0  0  0
  148.3280  161.1727  130.4745 H   0  0  0  0  0  0  0  0  0  0  0  0
  147.0627  159.8976  130.4745 H   0  0  0  0  0  0  0  0  0  0  0  0
  147.3446  156.9759  131.7186 H   0  0  0  0  0  0  0  0  0  0  0  0
  149.1350  156.6472  131.6645 H   0  0  0  0  0  0  0  0  0  0  0  0
  147.5349  154.6481  132.0126 H   0  0  0  0  0  0  0  0  0  0  0  0
  148.9878  154.8523  133.1140 H   0  0  0  0  0  0  0  0  0  0  0  0
  142.3062  156.2977  132.9759 H   0  0  0  0  0  0  0  0  0  0  0  0
  1  2  1  0
  2  3  2  0
  3  4  1  0
  4  5  2  0
  5  6  1  0
  6  7  2  0
  7  8  1  0
  8  9  1  0
  8 10  2  0
  7 11  1  0
 11 12  1  0
 12 13  2  0
 12 14  1  0
 14 15  1  0
 15 16  2  0
 15 17  1  0
 17 18  1  0
 18 19  1  0
 19 20  1  0
 17 21  1  0
 21 22  1  0
 22 23  1  0
 23 24  1  0
 24 25  1  0
 25 26  2  0
 25 27  1  0
 27 28  1  0
 27 29  1  0
 24 30  1  0
 30 31  1  0
 11 32  1  0
 32 33  2  0
 33  2  1  0
 32  5  1  0
 20 18  1  0
 31 21  1  0
  1 34  1  0
  1 35  1  0
  1 36  1  0
  3 37  1  0
  4 38  1  0
  6 39  1  0
  9 40  1  0
 14 41  1  0
 14 42  1  0
 18 43  1  0
 19 44  1  0
 19 45  1  0
 20 46  1  0
 20 47  1  0
 21 48  1  0
 22 49  1  0
 22 50  1  0
 23 51  1  0
 23 52  1  0
 28 53  1  0
 28 54  1  0
 28 55  1  0
 29 56  1  0
 29 57  1  0
 29 58  1  0
 30 59  1  0
 30 60  1  0
 31 61  1  0
 31 62  1  0
 33 63  1  0
M  CHG  1   9  -1
M  END
>  <UniqueID>  (49) 
49

>  <SMILES>  (49) 
Cc1ccc2cc(C([NH-])=O)n(C(=O)CC(=O)N(C3CC3)C3CCN(C(=O)N(C)C)CC3)c2c1

>  <Energy>  (49) 
381.5602362886756

>  <Genealogy>  (49) 
Cc1ccc2cc(C([NH-])=O)n(C(=O)CC(=O)N(C3CC3)C3CCN(C(=O)N(C)C)CC3)c2c1 (protonated)
Cc1ccc2cc(C([NH-])=O)n(C(=O)CC(=O)N(C3CC3)C3CCN(C(=O)N(C)C)CC3)c2c1 (3D coordinates assigned)
Cc1ccc2cc(C([NH-])=O)n(C(=O)CC(=O)N(C3CC3)C3CCN(C(=O)N(C)C)CC3)c2c1 (nonaromatic ring conformer: 381.5602362886756 kcal/mol)

>  <smiles>  (49) 
Cc1ccc2cc(C(N)=O)n(C(=O)CC(=O)N(C3CC3)C3CCN(C(=O)N(C)C)CC3)c2c1

>  <score_type>  (49) 
oracle

>  <origin>  (49) 
adg

>  <m_score__min__energy>  (49) 
-9.7400000000000002

>  <m_primary>  (49) 
energy

$$$$
49:0
     RDKit          3D

 41 42  0  0  0  0  0  0  0  0999 V2000
  139.0800  160.1220  131.8800 C   0  0  0  0  0  0  0  0  0  0  0  0
  139.4190  158.7160  132.0500 N   0  0  0  0  0  0  0  0  0  0  0  0
  139.6350  158.0720  133.3120 C   0  0  0  0  0  0  0  0  0  0  0  0
  138.6610  157.9440  134.0980 O   0  0  0  0  0  0  0  0  0  0  0  0
  140.9740  157.4940  133.6950 C   0  0  0  0  0  0  0  0  0  0  0  0
  141.7120  158.4170  134.5720 N   0  0  0  0  0  0  0  0  0  0  0  0
  141.0940  158.8270  135.8390 C   0  0  0  0  0  0  0  0  0  0  0  0
  143.0120  158.9350  134.1910 C   0  0  0  0  0  0  0  0  0  0  0  0
  143.2340  160.3370  134.0900 C   0  0  0  0  0  0  0  0  0  0  0  0
  144.4940  160.8490  133.7420 C   0  0  0  0  0  0  0  0  0  0  0  0
  145.5190  159.9460  133.4900 C   0  0  0  0  0  0  0  0  0  0  0  0
  146.8390  160.1700  133.1680 C   0  0  0  0  0  0  0  0  0  0  0  0
  147.4080  158.9050  133.0450 C   0  0  0  0  0  0  0  0  0  0  0  0
  148.8090  158.6800  132.6270 C   0  0  0  0  0  0  0  0  0  0  0  0
  149.2580  157.3870  132.2350 N   0  0  0  0  0  0  0  0  0  0  0  0
  149.6070  159.6540  132.5730 O   0  0  0  0  0  0  0  0  0  0  0  0
  146.4800  157.9370  133.2870 N   0  0  0  0  0  0  0  0  0  0  0  0
  146.6900  156.5180  133.3590 C   0  0  0  0  0  0  0  0  0  0  0  0
  146.6720  155.8240  132.3050 O   0  0  0  0  0  0  0  0  0  0  0  0
  146.8940  155.9090  134.6000 O   0  0  0  0  0  0  0  0  0  0  0  0
  147.6310  154.7020  134.7510 C   0  0  0  0  0  0  0  0  0  0  0  0
  147.6580  154.3190  136.1930 C   0  0  0  0  0  0  0  0  0  0  0  0
  148.4680  154.8720  136.9840 O   0  0  0  0  0  0  0  0  0  0  0  0
  146.7940  153.3400  136.6660 O   0  0  0  0  0  0  0  0  0  0  0  0
  145.3290  158.5920  133.5570 C   0  0  0  0  0  0  0  0  0  0  0  0
  144.0900  158.0530  133.9180 C   0  0  0  0  0  0  0  0  0  0  0  0
  138.9663  160.5937  132.8672 H   0  0  0  0  0  0  0  0  0  0  0  0
  139.8820  160.6277  131.3222 H   0  0  0  0  0  0  0  0  0  0  0  0
  138.1357  160.2066  131.3222 H   0  0  0  0  0  0  0  0  0  0  0  0
  140.8176  156.5422  134.2238 H   0  0  0  0  0  0  0  0  0  0  0  0
  141.5623  157.3324  132.7797 H   0  0  0  0  0  0  0  0  0  0  0  0
  141.6855  158.4346  136.6793 H   0  0  0  0  0  0  0  0  0  0  0  0
  141.0632  159.9252  135.8935 H   0  0  0  0  0  0  0  0  0  0  0  0
  140.0702  158.4284  135.8935 H   0  0  0  0  0  0  0  0  0  0  0  0
  142.4042  161.0314  134.2880 H   0  0  0  0  0  0  0  0  0  0  0  0
  144.6646  161.9334  133.6710 H   0  0  0  0  0  0  0  0  0  0  0  0
  147.3378  161.1415  133.0360 H   0  0  0  0  0  0  0  0  0  0  0  0
  148.5980  156.6940  131.8160 H   0  0  0  0  0  0  0  0  0  0  0  0
  147.1510  153.9027  134.1673 H   0  0  0  0  0  0  0  0  0  0  0  0
  148.6592  154.8498  134.3892 H   0  0  0  0  0  0  0  0  0  0  0  0
  143.9533  156.9638  133.9892 H   0  0  0  0  0  0  0  0  0  0  0  0
  1  2  1  0
  2  3  1  0
  3  4  2  0
  3  5  1  0
  5  6  1  0
  6  7  1  0
  6  8  1  0
  8  9  2  0
  9 10  1  0
 10 11  2  0
 11 12  1  0
 12 13  2  0
 13 14  1  0
 14 15  1  0
 14 16  2  0
 13 17  1  0
 17 18  1  0
 18 19  2  0
 18 20  1  0
 20 21  1  0
 21 22  1  0
 22 23  2  0
 22 24  1  0
 17 25  1  0
 25 26  2  0
 26  8  1  0
 25 11  1  0
  1 27  1  0
  1 28  1  0
  1 29  1  0
  5 30  1  0
  5 31  1  0
  7 32  1  0
  7 33  1  0
  7 34  1  0
  9 35  1  0
 10 36  1  0
 12 37  1  0
 15 38  1  0
 21 39  1  0
 21 40  1  0
 26 41  1  0
M  CHG  3   2  -1  15  -1  24  -1
M  END
>  <UniqueID>  (50) 
50

>  <SMILES>  (50) 
C[N-]C(=O)CN(C)c1ccc2cc(C([NH-])=O)n(C(=O)OCC(=O)[O-])c2c1

>  <Energy>  (50) 
76.06566827082106

>  <Genealogy>  (50) 
C[N-]C(=O)CN(C)c1ccc2cc(C([NH-])=O)n(C(=O)OCC(=O)[O-])c2c1 (protonated)
C[N-]C(=O)CN(C)c1ccc2cc(C([NH-])=O)n(C(=O)OCC(=O)[O-])c2c1 (3D coordinates assigned)
C[N-]C(=O)CN(C)c1ccc2cc(C([NH-])=O)n(C(=O)OCC(=O)[O-])c2c1 (optimized conformer: 76.06566827082106 kcal/mol)

>  <smiles>  (50) 
CNC(=O)CN(C)c1ccc2cc(C(N)=O)n(C(=O)OCC(=O)O)c2c1

>  <score_type>  (50) 
oracle

>  <origin>  (50) 
adg

>  <m_score__min__energy>  (50) 
-6.6500000000000004

>  <m_primary>  (50) 
energy

$$$$
50:0
     RDKit          3D

 43 44  0  0  0  0  0  0  0  0999 V2000
  139.7620  158.5220  133.3010 C   0  0  0  0  0  0  0  0  0  0  0  0
  139.7380  157.2320  134.1100 C   0  0  0  0  0  0  0  0  0  0  0  0
  140.9100  157.2880  135.5050 P   0  0  0  0  0  0  0  0  0  0  0  0
  140.2490  156.7200  136.7420 O   0  0  0  0  0  0  0  0  0  0  0  0
  141.4880  158.9910  135.8220 C   0  0  0  0  0  0  0  0  0  0  0  0
  140.9690  159.5250  137.1530 C   0  0  0  0  0  0  0  0  0  0  0  0
  142.3440  156.2560  135.0620 C   0  0  0  0  0  0  0  0  0  0  0  0
  143.4950  157.0680  134.8470 O   0  0  0  0  0  0  0  0  0  0  0  0
  143.7210  157.7950  133.6740 C   0  0  0  0  0  0  0  0  0  0  0  0
  142.8430  157.8370  132.7690 O   0  0  0  0  0  0  0  0  0  0  0  0
  144.9520  158.5150  133.5110 N   0  0  0  0  0  0  0  0  0  0  0  0
  145.1490  159.8620  133.5700 C   0  0  0  0  0  0  0  0  0  0  0  0
  144.0900  160.8890  133.6860 C   0  0  0  0  0  0  0  0  0  0  0  0
  142.7410  160.5540  133.3690 N   0  0  0  0  0  0  0  0  0  0  0  0
  144.3570  162.0480  134.0960 O   0  0  0  0  0  0  0  0  0  0  0  0
  146.4980  160.1660  133.4120 C   0  0  0  0  0  0  0  0  0  0  0  0
  147.1280  158.9530  133.2440 C   0  0  0  0  0  0  0  0  0  0  0  0
  148.4760  158.6630  133.0620 C   0  0  0  0  0  0  0  0  0  0  0  0
  148.8490  157.3120  132.9430 C   0  0  0  0  0  0  0  0  0  0  0  0
  147.8740  156.2830  132.9970 C   0  0  0  0  0  0  0  0  0  0  0  0
  148.2940  154.8370  132.9300 C   0  0  0  0  0  0  0  0  0  0  0  0
  147.3420  154.0820  132.2650 F   0  0  0  0  0  0  0  0  0  0  0  0
  148.4500  154.3140  134.2020 F   0  0  0  0  0  0  0  0  0  0  0  0
  149.4960  154.7420  132.2540 F   0  0  0  0  0  0  0  0  0  0  0  0
  146.5170  156.6200  133.2080 C   0  0  0  0  0  0  0  0  0  0  0  0
  146.1720  157.9730  133.3050 C   0  0  0  0  0  0  0  0  0  0  0  0
  139.7780  159.3834  133.9849 H   0  0  0  0  0  0  0  0  0  0  0  0
  140.6606  158.5405  132.6669 H   0  0  0  0  0  0  0  0  0  0  0  0
  138.8647  158.5739  132.6669 H   0  0  0  0  0  0  0  0  0  0  0  0
  138.7226  157.0771  134.5037 H   0  0  0  0  0  0  0  0  0  0  0  0
  140.0343  156.4061  133.4466 H   0  0  0  0  0  0  0  0  0  0  0  0
  142.5878  158.9964  135.8404 H   0  0  0  0  0  0  0  0  0  0  0  0
  141.1036  159.6382  135.0199 H   0  0  0  0  0  0  0  0  0  0  0  0
  141.4750  159.0044  137.9794 H   0  0  0  0  0  0  0  0  0  0  0  0
  141.1729  160.6039  137.2198 H   0  0  0  0  0  0  0  0  0  0  0  0
  139.8848  159.3519  137.2198 H   0  0  0  0  0  0  0  0  0  0  0  0
  142.5474  155.5486  135.8795 H   0  0  0  0  0  0  0  0  0  0  0  0
  142.1162  155.7088  134.1354 H   0  0  0  0  0  0  0  0  0  0  0  0
  142.5160  159.9580  132.5420 H   0  0  0  0  0  0  0  0  0  0  0  0
  146.9623  161.1632  133.4197 H   0  0  0  0  0  0  0  0  0  0  0  0
  149.2271  159.4652  133.0126 H   0  0  0  0  0  0  0  0  0  0  0  0
  149.9087  157.0504  132.8065 H   0  0  0  0  0  0  0  0  0  0  0  0
  145.7498  155.8364  133.2940 H   0  0  0  0  0  0  0  0  0  0  0  0
  1  2  1  0
  2  3  1  0
  3  4  2  0
  3  5  1  0
  5  6  1  0
  3  7  1  0
  7  8  1  0
  8  9  1  0
  9 10  2  0
  9 11  1  0
 11 12  1  0
 12 13  1  0
 13 14  1  0
 13 15  2  0
 12 16  2  0
 16 17  1  0
 17 18  2  0
 18 19  1  0
 19 20  2  0
 20 21  1  0
 21 22  1  0
 21 23  1  0
 21 24  1  0
 20 25  1  0
 25 26  2  0
 26 11  1  0
 26 17  1  0
  1 27  1  0
  1 28  1  0
  1 29  1  0
  2 30  1  0
  2 31  1  0
  5 32  1  0
  5 33  1  0
  6 34  1  0
  6 35  1  0
  6 36  1  0
  7 37  1  0
  7 38  1  0
 14 39  1  0
 16 40  1  0
 18 41  1  0
 19 42  1  0
 25 43  1  0
M  CHG  1  14  -1
M  END
>  <UniqueID>  (51) 
51

>  <SMILES>  (51) 
CCP(=O)(CC)COC(=O)n1c(C([NH-])=O)cc2ccc(C(F)(F)F)cc21

>  <Energy>  (51) 
65.94107166433835

>  <Genealogy>  (51) 
CCP(=O)(CC)COC(=O)n1c(C([NH-])=O)cc2ccc(C(F)(F)F)cc21 (protonated)
CCP(=O)(CC)COC(=O)n1c(C([NH-])=O)cc2ccc(C(F)(F)F)cc21 (3D coordinates assigned)
CCP(=O)(CC)COC(=O)n1c(C([NH-])=O)cc2ccc(C(F)(F)F)cc21 (optimized conformer: 65.94107166433835 kcal/mol)

>  <smiles>  (51) 
CCP(=O)(CC)COC(=O)n1c(C(N)=O)cc2ccc(C(F)(F)F)cc21

>  <score_type>  (51) 
oracle

>  <origin>  (51) 
adg

>  <m_score__min__energy>  (51) 
-6.6799999999999997

>  <m_primary>  (51) 
energy

$$$$
51:0
     RDKit          3D

 39 40  0  0  0  0  0  0  0  0999 V2000
  148.3030  154.9120  132.7000 C   0  0  0  0  0  0  0  0  0  0  0  0
  147.8370  156.3260  132.8840 C   0  0  0  0  0  0  0  0  0  0  0  0
  148.7780  157.3820  132.8990 C   0  0  0  0  0  0  0  0  0  0  0  0
  148.3570  158.7100  133.0760 C   0  0  0  0  0  0  0  0  0  0  0  0
  146.9980  158.9440  133.2690 C   0  0  0  0  0  0  0  0  0  0  0  0
  146.3240  160.1330  133.4010 C   0  0  0  0  0  0  0  0  0  0  0  0
  144.9840  159.7840  133.5330 C   0  0  0  0  0  0  0  0  0  0  0  0
  143.9040  160.7820  133.6810 C   0  0  0  0  0  0  0  0  0  0  0  0
  142.5500  160.4650  133.3670 N   0  0  0  0  0  0  0  0  0  0  0  0
  144.1770  161.9230  134.1420 O   0  0  0  0  0  0  0  0  0  0  0  0
  144.8280  158.4290  133.4900 N   0  0  0  0  0  0  0  0  0  0  0  0
  143.5860  157.6960  133.5150 C   0  0  0  0  0  0  0  0  0  0  0  0
  142.9290  157.5560  132.4480 O   0  0  0  0  0  0  0  0  0  0  0  0
  143.0840  157.0440  134.7790 C   0  0  0  0  0  0  0  0  0  0  0  0
  142.1020  157.9230  135.5680 C   0  0  0  0  0  0  0  0  0  0  0  0
  140.9300  158.3950  134.7460 C   0  0  0  0  0  0  0  0  0  0  0  0
  140.6740  159.5870  134.6840 O   0  0  0  0  0  0  0  0  0  0  0  0
  139.9910  157.2420  133.7330 S   0  0  0  0  0  0  0  0  0  0  0  0
  138.8740  158.5100  133.0520 C   0  0  0  0  0  0  0  0  0  0  0  0
  139.5480  159.2090  131.9190 C   0  0  0  0  0  0  0  0  0  0  0  0
  140.4070  160.1030  132.1460 O   0  0  0  0  0  0  0  0  0  0  0  0
  139.1980  158.9080  130.6060 O   0  0  0  0  0  0  0  0  0  0  0  0
  146.0760  157.9290  133.3100 C   0  0  0  0  0  0  0  0  0  0  0  0
  146.4670  156.5990  133.0930 C   0  0  0  0  0  0  0  0  0  0  0  0
  148.4567  154.4456  133.6843 H   0  0  0  0  0  0  0  0  0  0  0  0
  147.5440  154.3457  132.1404 H   0  0  0  0  0  0  0  0  0  0  0  0
  149.2500  154.9079  132.1404 H   0  0  0  0  0  0  0  0  0  0  0  0
  149.8480  157.1613  132.7710 H   0  0  0  0  0  0  0  0  0  0  0  0
  149.0788  159.5400  133.0626 H   0  0  0  0  0  0  0  0  0  0  0  0
  146.7526  161.1461  133.4021 H   0  0  0  0  0  0  0  0  0  0  0  0
  142.2670  159.4850  133.1550 H   0  0  0  0  0  0  0  0  0  0  0  0
  141.8100  161.1970  133.4300 H   0  0  0  0  0  0  0  0  0  0  0  0
  142.5748  156.1068  134.5099 H   0  0  0  0  0  0  0  0  0  0  0  0
  143.9573  156.8709  135.4250 H   0  0  0  0  0  0  0  0  0  0  0  0
  141.7193  157.3411  136.4194 H   0  0  0  0  0  0  0  0  0  0  0  0
  142.6539  158.8178  135.8915 H   0  0  0  0  0  0  0  0  0  0  0  0
  137.9520  158.0309  132.6910 H   0  0  0  0  0  0  0  0  0  0  0  0
  138.6248  159.2392  133.8369 H   0  0  0  0  0  0  0  0  0  0  0  0
  145.7240  155.7879  133.0858 H   0  0  0  0  0  0  0  0  0  0  0  0
  1  2  1  0
  2  3  2  0
  3  4  1  0
  4  5  2  0
  5  6  1  0
  6  7  2  0
  7  8  1  0
  8  9  1  0
  8 10  2  0
  7 11  1  0
 11 12  1  0
 12 13  2  0
 12 14  1  0
 14 15  1  0
 15 16  1  0
 16 17  2  0
 16 18  1  0
 18 19  1  0
 19 20  1  0
 20 21  2  0
 20 22  1  0
 11 23  1  0
 23 24  2  0
 24  2  1  0
 23  5  1  0
  1 25  1  0
  1 26  1  0
  1 27  1  0
  3 28  1  0
  4 29  1  0
  6 30  1  0
  9 31  1  0
  9 32  1  0
 14 33  1  0
 14 34  1  0
 15 35  1  0
 15 36  1  0
 19 37  1  0
 19 38  1  0
 24 39  1  0
M  CHG  1  22  -1
M  END
>  <UniqueID>  (52) 
52

>  <SMILES>  (52) 
Cc1ccc2cc(C(N)=O)n(C(=O)CCC(=O)SCC(=O)[O-])c2c1

>  <Energy>  (52) 
70.05040142847325

>  <Genealogy>  (52) 
Cc1ccc2cc(C(N)=O)n(C(=O)CCC(=O)SCC(=O)[O-])c2c1 (protonated)
Cc1ccc2cc(C(N)=O)n(C(=O)CCC(=O)SCC(=O)[O-])c2c1 (3D coordinates assigned)
Cc1ccc2cc(C(N)=O)n(C(=O)CCC(=O)SCC(=O)[O-])c2c1 (optimized conformer: 70.05040142847325 kcal/mol)

>  <smiles>  (52) 
Cc1ccc2cc(C(N)=O)n(C(=O)CCC(=O)SCC(=O)O)c2c1

>  <score_type>  (52) 
oracle

>  <origin>  (52) 
adg

>  <m_score__min__energy>  (52) 
-6.6699999999999999

>  <m_primary>  (52) 
energy

$$$$
52:0
     RDKit          3D

 37 38  0  0  0  0  0  0  0  0999 V2000
  144.5890  153.3990  135.1320 N   0  0  0  0  0  0  0  0  0  0  0  0
  144.1720  154.7540  135.2830 C   0  0  0  0  0  0  0  0  0  0  0  0
  143.1280  155.0110  135.9400 O   0  0  0  0  0  0  0  0  0  0  0  0
  144.9800  155.8430  134.6960 C   0  0  0  0  0  0  0  0  0  0  0  0
  144.4400  157.0030  134.1460 C   0  0  0  0  0  0  0  0  0  0  0  0
  145.5180  157.7120  133.6590 C   0  0  0  0  0  0  0  0  0  0  0  0
  145.5690  158.9530  133.0310 C   0  0  0  0  0  0  0  0  0  0  0  0
  146.8310  159.4560  132.6700 C   0  0  0  0  0  0  0  0  0  0  0  0
  148.0090  158.7130  132.9370 C   0  0  0  0  0  0  0  0  0  0  0  0
  149.3610  159.2760  132.5830 C   0  0  0  0  0  0  0  0  0  0  0  0
  149.6480  159.2080  131.0720 C   0  0  0  0  0  0  0  0  0  0  0  0
  149.2670  160.4870  130.3150 C   0  0  0  0  0  0  0  0  0  0  0  0
  149.9650  160.5320  129.1220 F   0  0  0  0  0  0  0  0  0  0  0  0
  147.9120  160.5000  130.0380 F   0  0  0  0  0  0  0  0  0  0  0  0
  149.5940  161.6060  131.0590 F   0  0  0  0  0  0  0  0  0  0  0  0
  147.9150  157.4550  133.5690 C   0  0  0  0  0  0  0  0  0  0  0  0
  146.6480  156.9810  133.9160 C   0  0  0  0  0  0  0  0  0  0  0  0
  146.3350  155.8370  134.5580 N   0  0  0  0  0  0  0  0  0  0  0  0
  147.2720  154.8770  135.0680 C   0  0  0  0  0  0  0  0  0  0  0  0
  147.4820  153.8110  134.4300 O   0  0  0  0  0  0  0  0  0  0  0  0
  148.0820  155.1830  136.2890 C   0  0  0  0  0  0  0  0  0  0  0  0
  147.9700  153.8110  137.4790 P   0  0  1  0  0  0  0  0  0  0  0  0
  149.2360  152.9860  137.4330 O   0  0  0  0  0  0  0  0  0  0  0  0
  147.7780  154.4480  139.0340 O   0  0  0  0  0  0  0  0  0  0  0  0
  146.6360  152.8340  137.1140 O   0  0  0  0  0  0  0  0  0  0  0  0
  145.5940  153.1330  135.2330 H   0  0  0  0  0  0  0  0  0  0  0  0
  143.3794  157.2922  134.1081 H   0  0  0  0  0  0  0  0  0  0  0  0
  144.6508  159.5222  132.8237 H   0  0  0  0  0  0  0  0  0  0  0  0
  146.9055  160.4357  132.1754 H   0  0  0  0  0  0  0  0  0  0  0  0
  149.4005  160.3277  132.9030 H   0  0  0  0  0  0  0  0  0  0  0  0
  150.1216  158.6695  133.0964 H   0  0  0  0  0  0  0  0  0  0  0  0
  150.7238  159.0278  130.9304 H   0  0  0  0  0  0  0  0  0  0  0  0
  149.0296  158.3954  130.6630 H   0  0  0  0  0  0  0  0  0  0  0  0
  148.8168  156.8626  133.7830 H   0  0  0  0  0  0  0  0  0  0  0  0
  149.1334  155.3284  136.0003 H   0  0  0  0  0  0  0  0  0  0  0  0
  147.6910  156.0977  136.7586 H   0  0  0  0  0  0  0  0  0  0  0  0
  146.4540  152.9940  136.1540 H   0  0  0  0  0  0  0  0  0  0  0  0
  1  2  1  0
  2  3  2  0
  2  4  1  0
  4  5  2  0
  5  6  1  0
  6  7  2  0
  7  8  1  0
  8  9  2  0
  9 10  1  0
 10 11  1  0
 11 12  1  0
 12 13  1  0
 12 14  1  0
 12 15  1  0
  9 16  1  0
 16 17  2  0
 17 18  1  0
 18 19  1  0
 19 20  2  0
 19 21  1  0
 21 22  1  0
 22 23  2  0
 22 24  1  1
 22 25  1  0
 18  4  1  0
 17  6  1  0
  1 26  1  0
  5 27  1  0
  7 28  1  0
  8 29  1  0
 10 30  1  0
 10 31  1  0
 11 32  1  0
 11 33  1  0
 16 34  1  0
 21 35  1  0
 21 36  1  0
 25 37  1  0
M  CHG  2   1  -1  24  -1
M  END
>  <UniqueID>  (53) 
53

>  <SMILES>  (53) 
[NH-]C(=O)c1cc2ccc(CCC(F)(F)F)cc2n1C(=O)C[P@@](=O)([O-])O

>  <Energy>  (53) 
65.7402087000578

>  <Genealogy>  (53) 
[NH-]C(=O)c1cc2ccc(CCC(F)(F)F)cc2n1C(=O)CP(=O)([O-])O (protonated)
[NH-]C(=O)c1cc2ccc(CCC(F)(F)F)cc2n1C(=O)C[P@@](=O)([O-])O (chirality)
[NH-]C(=O)c1cc2ccc(CCC(F)(F)F)cc2n1C(=O)C[P@@](=O)([O-])O (3D coordinates assigned)
[NH-]C(=O)c1cc2ccc(CCC(F)(F)F)cc2n1C(=O)C[P@@](=O)([O-])O (optimized conformer: 65.7402087000578 kcal/mol)

>  <smiles>  (53) 
NC(=O)c1cc2ccc(CCC(F)(F)F)cc2n1C(=O)CP(=O)(O)O

>  <score_type>  (53) 
oracle

>  <origin>  (53) 
adg

>  <m_score__min__energy>  (53) 
-6.2999999999999998

>  <m_primary>  (53) 
energy

$$$$
53:0
     RDKit          3D

 48 49  0  0  0  0  0  0  0  0999 V2000
  139.6710  148.6700  131.2010 C   0  0  0  0  0  0  0  0  0  0  0  0
  140.6440  149.8200  131.4670 C   0  0  2  0  0  0  0  0  0  0  0  0
  141.9770  149.2840  131.9020 C   0  0  0  0  0  0  0  0  0  0  0  0
  142.9730  149.9870  131.8510 O   0  0  0  0  0  0  0  0  0  0  0  0
  140.1290  150.6710  132.4890 O   0  0  0  0  0  0  0  0  0  0  0  0
  140.9350  151.4660  133.3150 C   0  0  0  0  0  0  0  0  0  0  0  0
  141.3390  151.0320  134.4280 O   0  0  0  0  0  0  0  0  0  0  0  0
  141.2790  152.8760  132.8990 C   0  0  1  0  0  0  0  0  0  0  0  0
  141.4090  153.7990  134.1220 C   0  0  0  0  0  0  0  0  0  0  0  0
  142.4720  152.9280  132.0230 N   0  0  0  0  0  0  0  0  0  0  0  0
  143.6000  153.6010  132.6180 C   0  0  0  0  0  0  0  0  0  0  0  0
  144.4720  152.9260  133.2340 O   0  0  0  0  0  0  0  0  0  0  0  0
  143.7220  155.0280  132.5310 N   0  0  0  0  0  0  0  0  0  0  0  0
  144.8690  155.7540  132.9940 C   0  0  0  0  0  0  0  0  0  0  0  0
  145.9820  155.1780  133.1230 O   0  0  0  0  0  0  0  0  0  0  0  0
  144.7460  157.1430  133.3230 N   0  0  0  0  0  0  0  0  0  0  0  0
  143.6550  157.8060  133.8000 C   0  0  0  0  0  0  0  0  0  0  0  0
  142.3710  157.1900  134.1960 C   0  0  0  0  0  0  0  0  0  0  0  0
  141.4550  156.7030  133.2200 N   0  0  0  0  0  0  0  0  0  0  0  0
  142.0910  157.0650  135.4190 O   0  0  0  0  0  0  0  0  0  0  0  0
  143.9310  159.1680  133.9210 C   0  0  0  0  0  0  0  0  0  0  0  0
  145.2340  159.3170  133.4990 C   0  0  0  0  0  0  0  0  0  0  0  0
  146.0140  160.4630  133.3750 C   0  0  0  0  0  0  0  0  0  0  0  0
  147.3150  160.3230  132.8610 C   0  0  0  0  0  0  0  0  0  0  0  0
  147.8160  159.0460  132.4900 C   0  0  0  0  0  0  0  0  0  0  0  0
  149.1850  158.9140  131.8750 C   0  0  0  0  0  0  0  0  0  0  0  0
  149.7940  157.7420  132.2850 F   0  0  0  0  0  0  0  0  0  0  0  0
  149.1000  158.8960  130.4940 F   0  0  0  0  0  0  0  0  0  0  0  0
  149.9650  159.9880  132.2630 F   0  0  0  0  0  0  0  0  0  0  0  0
  146.9800  157.9130  132.6100 C   0  0  0  0  0  0  0  0  0  0  0  0
  145.7000  158.0810  133.1430 C   0  0  0  0  0  0  0  0  0  0  0  0
  139.3213  148.2567  132.1585 H   0  0  0  0  0  0  0  0  0  0  0  0
  138.8104  149.0433  130.6266 H   0  0  0  0  0  0  0  0  0  0  0  0
  140.1817  147.8831  130.6266 H   0  0  0  0  0  0  0  0  0  0  0  0
  140.7661  150.3928  130.5359 H   0  0  0  0  0  0  0  0  0  0  0  0
  142.0565  148.2502  132.2693 H   0  0  0  0  0  0  0  0  0  0  0  0
  140.4420  153.2533  132.2931 H   0  0  0  0  0  0  0  0  0  0  0  0
  141.3250  153.2023  135.0423 H   0  0  0  0  0  0  0  0  0  0  0  0
  142.3869  154.3022  134.0993 H   0  0  0  0  0  0  0  0  0  0  0  0
  140.6081  154.5527  134.0993 H   0  0  0  0  0  0  0  0  0  0  0  0
  142.7550  151.9480  131.7870 H   0  0  0  0  0  0  0  0  0  0  0  0
  142.2300  153.3990  131.1210 H   0  0  0  0  0  0  0  0  0  0  0  0
  142.9260  155.5780  132.1360 H   0  0  0  0  0  0  0  0  0  0  0  0
  141.7810  156.4250  132.2680 H   0  0  0  0  0  0  0  0  0  0  0  0
  143.2519  159.9563  134.2779 H   0  0  0  0  0  0  0  0  0  0  0  0
  145.6243  161.4484  133.6702 H   0  0  0  0  0  0  0  0  0  0  0  0
  147.9523  161.2120  132.7447 H   0  0  0  0  0  0  0  0  0  0  0  0
  147.3298  156.9202  132.2905 H   0  0  0  0  0  0  0  0  0  0  0  0
  1  2  1  0
  2  3  1  0
  3  4  2  0
  2  5  1  0
  5  6  1  0
  6  7  2  0
  6  8  1  0
  8  9  1  0
  8 10  1  0
 10 11  1  0
 11 12  2  0
 11 13  1  0
 13 14  1  0
 14 15  2  0
 14 16  1  0
 16 17  1  0
 17 18  1  0
 18 19  1  0
 18 20  2  0
 17 21  2  0
 21 22  1  0
 22 23  2  0
 23 24  1  0
 24 25  2  0
 25 26  1  0
 26 27  1  0
 26 28  1  0
 26 29  1  0
 25 30  1  0
 30 31  2  0
 31 16  1  0
 31 22  1  0
  1 32  1  0
  1 33  1  0
  1 34  1  0
  2 35  1  6
  3 36  1  0
  8 37  1  6
  9 38  1  0
  9 39  1  0
  9 40  1  0
 10 41  1  0
 10 42  1  0
 13 43  1  0
 19 44  1  0
 21 45  1  0
 23 46  1  0
 24 47  1  0
 30 48  1  0
M  CHG  2  10   1  19  -1
M  END
>  <UniqueID>  (54) 
54

>  <SMILES>  (54) 
C[C@H](C=O)OC(=O)[C@@H](C)[NH2+]C(=O)NC(=O)n1c(C([NH-])=O)cc2ccc(C(F)(F)F)cc21

>  <Energy>  (54) 
81.01262353955616

>  <Genealogy>  (54) 
CC(C=O)OC(=O)C(C)[NH2+]C(=O)NC(=O)n1c(C([NH-])=O)cc2ccc(C(F)(F)F)cc21 (protonated)
C[C@H](C=O)OC(=O)[C@@H](C)[NH2+]C(=O)NC(=O)n1c(C([NH-])=O)cc2ccc(C(F)(F)F)cc21 (chirality)
C[C@H](C=O)OC(=O)[C@@H](C)[NH2+]C(=O)NC(=O)n1c(C([NH-])=O)cc2ccc(C(F)(F)F)cc21 (3D coordinates assigned)
C[C@H](C=O)OC(=O)[C@@H](C)[NH2+]C(=O)NC(=O)n1c(C([NH-])=O)cc2ccc(C(F)(F)F)cc21 (optimized conformer: 81.01262353955616 kcal/mol)

>  <smiles>  (54) 
CC(C=O)OC(=O)C(C)NC(=O)NC(=O)n1c(C(N)=O)cc2ccc(C(F)(F)F)cc21

>  <score_type>  (54) 
oracle

>  <origin>  (54) 
adg

>  <m_score__min__energy>  (54) 
-7.5199999999999996

>  <m_primary>  (54) 
energy

$$$$
54:0
     RDKit          3D

 58 60  0  0  0  0  0  0  0  0999 V2000
  142.0650  153.0050  133.8220 C   0  0  0  0  0  0  0  0  0  0  0  0
  141.6610  153.6620  135.0030 O   0  0  0  0  0  0  0  0  0  0  0  0
  142.1320  152.9460  136.1250 C   0  0  0  0  0  0  0  0  0  0  0  0
  141.8350  153.7260  137.4020 C   0  0  0  0  0  0  0  0  0  0  0  0
  141.0610  154.8930  137.1200 O   0  0  0  0  0  0  0  0  0  0  0  0
  141.4490  156.1920  137.4740 C   0  0  0  0  0  0  0  0  0  0  0  0
  142.1310  156.3840  138.5220 O   0  0  0  0  0  0  0  0  0  0  0  0
  141.0920  157.3110  136.6250 N   0  0  0  0  0  0  0  0  0  0  0  0
  140.5460  157.0120  135.2850 C   0  0  0  0  0  0  0  0  0  0  0  0
  139.8400  158.2210  134.6670 C   0  0  0  0  0  0  0  0  0  0  0  0
  140.6830  159.4010  134.8350 N   0  0  0  0  0  0  0  0  0  0  0  0
  141.4330  159.9240  133.7240 C   0  0  0  0  0  0  0  0  0  0  0  0
  140.8930  159.9790  132.5860 O   0  0  0  0  0  0  0  0  0  0  0  0
  142.8350  160.4480  133.8870 C   0  0  0  0  0  0  0  0  0  0  0  0
  143.7570  159.3920  134.2970 N   0  0  0  0  0  0  0  0  0  0  0  0
  144.1010  158.2580  133.4870 C   0  0  0  0  0  0  0  0  0  0  0  0
  143.2740  157.8360  132.6300 O   0  0  0  0  0  0  0  0  0  0  0  0
  145.3650  157.5780  133.6740 N   0  0  0  0  0  0  0  0  0  0  0  0
  145.5630  156.3610  134.2600 C   0  0  0  0  0  0  0  0  0  0  0  0
  144.5880  155.6200  135.0830 C   0  0  0  0  0  0  0  0  0  0  0  0
  143.1910  155.9050  134.9940 N   0  0  0  0  0  0  0  0  0  0  0  0
  144.9980  154.7790  135.9350 O   0  0  0  0  0  0  0  0  0  0  0  0
  146.8640  155.9150  134.0610 C   0  0  0  0  0  0  0  0  0  0  0  0
  147.4850  156.9120  133.3550 C   0  0  0  0  0  0  0  0  0  0  0  0
  148.8040  157.0020  132.9250 C   0  0  0  0  0  0  0  0  0  0  0  0
  149.1960  158.1580  132.2350 C   0  0  0  0  0  0  0  0  0  0  0  0
  148.2660  159.1980  131.9740 C   0  0  0  0  0  0  0  0  0  0  0  0
  148.7090  160.4740  131.2980 C   0  0  0  0  0  0  0  0  0  0  0  0
  150.0900  160.5330  131.3060 F   0  0  0  0  0  0  0  0  0  0  0  0
  148.2670  160.5250  129.9900 F   0  0  0  0  0  0  0  0  0  0  0  0
  148.2060  161.5770  131.9670 F   0  0  0  0  0  0  0  0  0  0  0  0
  146.9350  159.0730  132.4400 C   0  0  0  0  0  0  0  0  0  0  0  0
  146.5670  157.9130  133.1370 C   0  0  0  0  0  0  0  0  0  0  0  0
  140.9740  159.7680  136.2190 C   0  0  0  0  0  0  0  0  0  0  0  0
  141.7230  158.6200  136.9010 C   0  0  0  0  0  0  0  0  0  0  0  0
  142.6249  152.0946  134.0821 H   0  0  0  0  0  0  0  0  0  0  0  0
  141.1775  152.7336  133.2315 H   0  0  0  0  0  0  0  0  0  0  0  0
  142.7077  153.6745  133.2315 H   0  0  0  0  0  0  0  0  0  0  0  0
  141.6305  151.9680  136.1702 H   0  0  0  0  0  0  0  0  0  0  0  0
  143.2188  152.8032  136.0328 H   0  0  0  0  0  0  0  0  0  0  0  0
  141.2747  153.0814  138.0953 H   0  0  0  0  0  0  0  0  0  0  0  0
  142.7889  154.0381  137.8522 H   0  0  0  0  0  0  0  0  0  0  0  0
  141.3722  156.7084  134.6252 H   0  0  0  0  0  0  0  0  0  0  0  0
  139.8048  156.2065  135.3937 H   0  0  0  0  0  0  0  0  0  0  0  0
  139.6683  158.0399  133.5957 H   0  0  0  0  0  0  0  0  0  0  0  0
  138.8727  158.3813  135.1656 H   0  0  0  0  0  0  0  0  0  0  0  0
  143.1741  160.8660  132.9277 H   0  0  0  0  0  0  0  0  0  0  0  0
  142.8257  161.2210  134.6696 H   0  0  0  0  0  0  0  0  0  0  0  0
  142.8410  156.7060  134.4300 H   0  0  0  0  0  0  0  0  0  0  0  0
  142.5030  155.3340  135.5360 H   0  0  0  0  0  0  0  0  0  0  0  0
  147.3021  154.9641  134.3984 H   0  0  0  0  0  0  0  0  0  0  0  0
  149.5195  156.1897  133.1205 H   0  0  0  0  0  0  0  0  0  0  0  0
  150.2362  158.2601  131.8920 H   0  0  0  0  0  0  0  0  0  0  0  0
  146.2016  159.8725  132.2584 H   0  0  0  0  0  0  0  0  0  0  0  0
  141.5973  160.6742  136.2354 H   0  0  0  0  0  0  0  0  0  0  0  0
  140.0328  159.9627  136.7539 H   0  0  0  0  0  0  0  0  0  0  0  0
  142.7587  158.6010  136.5308 H   0  0  0  0  0  0  0  0  0  0  0  0
  141.6942  158.7909  137.9873 H   0  0  0  0  0  0  0  0  0  0  0  0
  1  2  1  0
  2  3  1  0
  3  4  1  0
  4  5  1  0
  5  6  1  0
  6  7  2  0
  6  8  1  0
  8  9  1  0
  9 10  1  0
 10 11  1  0
 11 12  1  0
 12 13  2  0
 12 14  1  0
 14 15  1  0
 15 16  1  0
 16 17  2  0
 16 18  1  0
 18 19  1  0
 19 20  1  0
 20 21  1  0
 20 22  2  0
 19 23  2  0
 23 24  1  0
 24 25  2  0
 25 26  1  0
 26 27  2  0
 27 28  1  0
 28 29  1  0
 28 30  1  0
 28 31  1  0
 27 32  1  0
 32 33  2  0
 11 34  1  0
 34 35  1  0
 35  8  1  0
 33 18  1  0
 33 24  1  0
  1 36  1  0
  1 37  1  0
  1 38  1  0
  3 39  1  0
  3 40  1  0
  4 41  1  0
  4 42  1  0
  9 43  1  0
  9 44  1  0
 10 45  1  0
 10 46  1  0
 14 47  1  0
 14 48  1  0
 21 49  1  0
 21 50  1  0
 23 51  1  0
 25 52  1  0
 26 53  1  0
 32 54  1  0
 34 55  1  0
 34 56  1  0
 35 57  1  0
 35 58  1  0
M  CHG  1  15  -1
M  END
>  <UniqueID>  (55) 
55

>  <SMILES>  (55) 
COCCOC(=O)N1CCN(C(=O)C[N-]C(=O)n2c(C(N)=O)cc3ccc(C(F)(F)F)cc32)CC1

>  <Energy>  (55) 
99.85291969718449

>  <Genealogy>  (55) 
COCCOC(=O)N1CCN(C(=O)C[N-]C(=O)n2c(C(N)=O)cc3ccc(C(F)(F)F)cc32)CC1 (protonated)
COCCOC(=O)N1CCN(C(=O)C[N-]C(=O)n2c(C(N)=O)cc3ccc(C(F)(F)F)cc32)CC1 (3D coordinates assigned)
COCCOC(=O)N1CCN(C(=O)C[N-]C(=O)n2c(C(N)=O)cc3ccc(C(F)(F)F)cc32)CC1 (nonaromatic ring conformer: 99.85291969718449 kcal/mol)

>  <smiles>  (55) 
COCCOC(=O)N1CCN(C(=O)CNC(=O)n2c(C(N)=O)cc3ccc(C(F)(F)F)cc32)CC1

>  <score_type>  (55) 
oracle

>  <origin>  (55) 
adg

>  <m_score__min__energy>  (55) 
-8.1600000000000001

>  <m_primary>  (55) 
energy

$$$$
55:0
     RDKit          3D

 34 35  0  0  0  0  0  0  0  0999 V2000
  139.1130  157.2200  132.7620 N   0  0  0  0  0  0  0  0  0  0  0  0
  140.1410  156.3690  133.2740 C   0  0  0  0  0  0  0  0  0  0  0  0
  139.8380  155.2110  133.6680 O   0  0  0  0  0  0  0  0  0  0  0  0
  141.5370  156.8480  133.3770 C   0  0  0  0  0  0  0  0  0  0  0  0
  142.6400  156.0050  133.4980 C   0  0  0  0  0  0  0  0  0  0  0  0
  143.7380  156.8340  133.4700 C   0  0  0  0  0  0  0  0  0  0  0  0
  145.0910  156.5270  133.5670 C   0  0  0  0  0  0  0  0  0  0  0  0
  146.0110  157.5880  133.5380 C   0  0  0  0  0  0  0  0  0  0  0  0
  145.5650  158.9270  133.4210 C   0  0  0  0  0  0  0  0  0  0  0  0
  146.5640  160.0500  133.4110 C   0  0  0  0  0  0  0  0  0  0  0  0
  147.1110  160.1740  132.1470 F   0  0  0  0  0  0  0  0  0  0  0  0
  145.9380  161.2340  133.7560 F   0  0  0  0  0  0  0  0  0  0  0  0
  144.1820  159.2010  133.3260 C   0  0  0  0  0  0  0  0  0  0  0  0
  143.2880  158.1230  133.3390 C   0  0  0  0  0  0  0  0  0  0  0  0
  141.9370  158.1490  133.2810 N   0  0  0  0  0  0  0  0  0  0  0  0
  141.1020  159.3180  133.2120 C   0  0  0  0  0  0  0  0  0  0  0  0
  141.0160  160.0900  134.2060 O   0  0  0  0  0  0  0  0  0  0  0  0
  140.3660  159.6030  132.0180 N   0  0  0  0  0  0  0  0  0  0  0  0
  139.3800  160.6740  131.9050 C   0  0  0  0  0  0  0  0  0  0  0  0
  138.5140  160.5060  130.6530 C   0  0  0  0  0  0  0  0  0  0  0  0
  137.2540  159.7510  130.9490 C   0  0  0  0  0  0  0  0  0  0  0  0
  136.1680  160.0980  130.4150 O   0  0  0  0  0  0  0  0  0  0  0  0
  137.2780  158.6720  131.8230 O   0  0  0  0  0  0  0  0  0  0  0  0
  138.1240  156.8850  132.7310 H   0  0  0  0  0  0  0  0  0  0  0  0
  139.3320  158.1630  132.3740 H   0  0  0  0  0  0  0  0  0  0  0  0
  142.6342  154.9093  133.5953 H   0  0  0  0  0  0  0  0  0  0  0  0
  145.4303  155.4851  133.6635 H   0  0  0  0  0  0  0  0  0  0  0  0
  147.0883  157.3768  133.6068 H   0  0  0  0  0  0  0  0  0  0  0  0
  147.3606  159.8308  134.1372 H   0  0  0  0  0  0  0  0  0  0  0  0
  143.8167  160.2353  133.2439 H   0  0  0  0  0  0  0  0  0  0  0  0
  138.7316  160.6588  132.7934 H   0  0  0  0  0  0  0  0  0  0  0  0
  139.9160  161.6316  131.8295 H   0  0  0  0  0  0  0  0  0  0  0  0
  138.2508  161.5012  130.2653 H   0  0  0  0  0  0  0  0  0  0  0  0
  139.0906  159.9342  129.9110 H   0  0  0  0  0  0  0  0  0  0  0  0
  1  2  1  0
  2  3  2  0
  2  4  1  0
  4  5  2  0
  5  6  1  0
  6  7  2  0
  7  8  1  0
  8  9  2  0
  9 10  1  0
 10 11  1  0
 10 12  1  0
  9 13  1  0
 13 14  2  0
 14 15  1  0
 15 16  1  0
 16 17  2  0
 16 18  1  0
 18 19  1  0
 19 20  1  0
 20 21  1  0
 21 22  2  0
 21 23  1  0
 15  4  1  0
 14  6  1  0
  1 24  1  0
  1 25  1  0
  5 26  1  0
  7 27  1  0
  8 28  1  0
 10 29  1  0
 13 30  1  0
 19 31  1  0
 19 32  1  0
 20 33  1  0
 20 34  1  0
M  CHG  2  18  -1  23  -1
M  END
>  <UniqueID>  (56) 
56

>  <SMILES>  (56) 
NC(=O)c1cc2ccc(C(F)F)cc2n1C(=O)[N-]CCC(=O)[O-]

>  <Energy>  (56) 
67.63258417592782

>  <Genealogy>  (56) 
NC(=O)c1cc2ccc(C(F)F)cc2n1C(=O)[N-]CCC(=O)[O-] (protonated)
NC(=O)c1cc2ccc(C(F)F)cc2n1C(=O)[N-]CCC(=O)[O-] (3D coordinates assigned)
NC(=O)c1cc2ccc(C(F)F)cc2n1C(=O)[N-]CCC(=O)[O-] (optimized conformer: 67.63258417592782 kcal/mol)

>  <smiles>  (56) 
NC(=O)c1cc2ccc(C(F)F)cc2n1C(=O)NCCC(=O)O

>  <score_type>  (56) 
oracle

>  <origin>  (56) 
adg

>  <m_score__min__energy>  (56) 
-6.4500000000000002

>  <m_primary>  (56) 
energy

$$$$
56:0
     RDKit          3D

 55 56  0  0  0  0  0  0  0  0999 V2000
  139.3010  150.7070  131.9860 C   0  0  0  0  0  0  0  0  0  0  0  0
  140.3080  149.6290  132.4150 C   0  0  1  0  0  0  0  0  0  0  0  0
  140.3510  148.4260  131.4430 C   0  0  0  0  0  0  0  0  0  0  0  0
  139.1550  148.3930  130.5660 N   0  0  0  0  0  0  0  0  0  0  0  0
  139.3810  149.1230  129.3070 C   0  0  0  0  0  0  0  0  0  0  0  0
  138.7330  147.0130  130.2750 C   0  0  0  0  0  0  0  0  0  0  0  0
  141.6570  150.1980  132.6450 N   0  0  0  0  0  0  0  0  0  0  0  0
  142.8600  149.5660  132.0870 C   0  0  0  0  0  0  0  0  0  0  0  0
  141.8380  151.4480  133.3520 C   0  0  0  0  0  0  0  0  0  0  0  0
  140.9920  151.7840  134.2270 O   0  0  0  0  0  0  0  0  0  0  0  0
  142.9570  152.3780  133.0640 C   0  0  0  0  0  0  0  0  0  0  0  0
  144.1390  151.9490  132.9920 O   0  0  0  0  0  0  0  0  0  0  0  0
  142.6930  153.7700  132.8210 N   0  0  0  0  0  0  0  0  0  0  0  0
  143.7570  154.7400  132.5680 C   0  0  0  0  0  0  0  0  0  0  0  0
  143.9510  155.6350  133.7580 C   0  0  0  0  0  0  0  0  0  0  0  0
  144.3200  155.1420  134.8580 O   0  0  0  0  0  0  0  0  0  0  0  0
  143.6910  157.0440  133.6600 N   0  0  0  0  0  0  0  0  0  0  0  0
  142.4940  157.6860  133.7690 C   0  0  0  0  0  0  0  0  0  0  0  0
  141.1700  157.0360  133.8610 C   0  0  0  0  0  0  0  0  0  0  0  0
  141.0750  155.6670  134.2530 N   0  0  0  0  0  0  0  0  0  0  0  0
  140.1170  157.6850  133.6240 O   0  0  0  0  0  0  0  0  0  0  0  0
  142.6750  159.0660  133.7180 C   0  0  0  0  0  0  0  0  0  0  0  0
  144.0330  159.2490  133.5700 C   0  0  0  0  0  0  0  0  0  0  0  0
  144.7730  160.4240  133.4840 C   0  0  0  0  0  0  0  0  0  0  0  0
  146.1690  160.3150  133.3640 C   0  0  0  0  0  0  0  0  0  0  0  0
  146.8000  159.0450  133.3370 C   0  0  0  0  0  0  0  0  0  0  0  0
  148.3010  158.9750  133.2200 C   0  0  0  0  0  0  0  0  0  0  0  0
  148.8610  159.0340  134.4870 F   0  0  0  0  0  0  0  0  0  0  0  0
  148.7150  157.8020  132.6090 F   0  0  0  0  0  0  0  0  0  0  0  0
  148.7570  160.0520  132.4770 F   0  0  0  0  0  0  0  0  0  0  0  0
  146.0100  157.8710  133.4180 C   0  0  0  0  0  0  0  0  0  0  0  0
  144.6220  158.0130  133.5330 C   0  0  0  0  0  0  0  0  0  0  0  0
  138.8630  151.1759  132.8794 H   0  0  0  0  0  0  0  0  0  0  0  0
  139.8158  151.4716  131.3857 H   0  0  0  0  0  0  0  0  0  0  0  0
  138.5032  150.2454  131.3857 H   0  0  0  0  0  0  0  0  0  0  0  0
  139.9469  149.2352  133.3765 H   0  0  0  0  0  0  0  0  0  0  0  0
  141.2517  148.5047  130.8164 H   0  0  0  0  0  0  0  0  0  0  0  0
  140.3680  147.5013  132.0386 H   0  0  0  0  0  0  0  0  0  0  0  0
  139.6995  150.1516  129.5317 H   0  0  0  0  0  0  0  0  0  0  0  0
  140.1641  148.6157  128.7245 H   0  0  0  0  0  0  0  0  0  0  0  0
  138.4482  149.1469  128.7245 H   0  0  0  0  0  0  0  0  0  0  0  0
  138.5679  146.4732  131.2191 H   0  0  0  0  0  0  0  0  0  0  0  0
  137.7990  147.0299  129.6942 H   0  0  0  0  0  0  0  0  0  0  0  0
  139.5168  146.5047  129.6942 H   0  0  0  0  0  0  0  0  0  0  0  0
  143.5090  149.2250  132.9071 H   0  0  0  0  0  0  0  0  0  0  0  0
  142.5682  148.7048  131.4680 H   0  0  0  0  0  0  0  0  0  0  0  0
  143.4036  150.2950  131.4680 H   0  0  0  0  0  0  0  0  0  0  0  0
  141.7100  154.1240  132.8650 H   0  0  0  0  0  0  0  0  0  0  0  0
  144.6947  154.2026  132.3632 H   0  0  0  0  0  0  0  0  0  0  0  0
  143.4751  155.3575  131.7024 H   0  0  0  0  0  0  0  0  0  0  0  0
  141.9170  155.1430  134.5800 H   0  0  0  0  0  0  0  0  0  0  0  0
  141.8997  159.8437  133.7821 H   0  0  0  0  0  0  0  0  0  0  0  0
  144.2809  161.4074  133.5091 H   0  0  0  0  0  0  0  0  0  0  0  0
  146.7803  161.2265  133.2900 H   0  0  0  0  0  0  0  0  0  0  0  0
  146.4752  156.8746  133.3912 H   0  0  0  0  0  0  0  0  0  0  0  0
  1  2  1  0
  2  3  1  0
  3  4  1  0
  4  5  1  0
  4  6  1  0
  2  7  1  0
  7  8  1  0
  7  9  1  0
  9 10  2  0
  9 11  1  0
 11 12  2  0
 11 13  1  0
 13 14  1  0
 14 15  1  0
 15 16  2  0
 15 17  1  0
 17 18  1  0
 18 19  1  0
 19 20  1  0
 19 21  2  0
 18 22  2  0
 22 23  1  0
 23 24  2  0
 24 25  1  0
 25 26  2  0
 26 27  1  0
 27 28  1  0
 27 29  1  0
 27 30  1  0
 26 31  1  0
 31 32  2  0
 32 17  1  0
 32 23  1  0
  1 33  1  0
  1 34  1  0
  1 35  1  0
  2 36  1  1
  3 37  1  0
  3 38  1  0
  5 39  1  0
  5 40  1  0
  5 41  1  0
  6 42  1  0
  6 43  1  0
  6 44  1  0
  8 45  1  0
  8 46  1  0
  8 47  1  0
 13 48  1  0
 14 49  1  0
 14 50  1  0
 20 51  1  0
 22 52  1  0
 24 53  1  0
 25 54  1  0
 31 55  1  0
M  CHG  1  20  -1
M  END
>  <UniqueID>  (57) 
57

>  <SMILES>  (57) 
C[C@@H](CN(C)C)N(C)C(=O)C(=O)NCC(=O)n1c(C([NH-])=O)cc2ccc(C(F)(F)F)cc21

>  <Energy>  (57) 
93.09591336108755

>  <Genealogy>  (57) 
CC(CN(C)C)N(C)C(=O)C(=O)NCC(=O)n1c(C([NH-])=O)cc2ccc(C(F)(F)F)cc21 (protonated)
C[C@@H](CN(C)C)N(C)C(=O)C(=O)NCC(=O)n1c(C([NH-])=O)cc2ccc(C(F)(F)F)cc21 (chirality)
C[C@@H](CN(C)C)N(C)C(=O)C(=O)NCC(=O)n1c(C([NH-])=O)cc2ccc(C(F)(F)F)cc21 (3D coordinates assigned)
C[C@@H](CN(C)C)N(C)C(=O)C(=O)NCC(=O)n1c(C([NH-])=O)cc2ccc(C(F)(F)F)cc21 (optimized conformer: 93.09591336108755 kcal/mol)

>  <smiles>  (57) 
CC(CN(C)C)N(C)C(=O)C(=O)NCC(=O)n1c(C(N)=O)cc2ccc(C(F)(F)F)cc21

>  <score_type>  (57) 
oracle

>  <origin>  (57) 
adg

>  <m_score__min__energy>  (57) 
-7.8499999999999996

>  <m_primary>  (57) 
energy

$$$$
57:0
     RDKit          3D

 39 40  0  0  0  0  0  0  0  0999 V2000
  139.9780  158.2010  134.7500 C   0  0  0  0  0  0  0  0  0  0  0  0
  141.2820  158.8110  134.3320 C   0  0  0  0  0  0  0  0  0  0  0  0
  141.3680  160.2060  134.1030 C   0  0  0  0  0  0  0  0  0  0  0  0
  142.5930  160.8010  133.7550 C   0  0  0  0  0  0  0  0  0  0  0  0
  143.7120  159.9790  133.6580 C   0  0  0  0  0  0  0  0  0  0  0  0
  145.0170  160.2890  133.3540 C   0  0  0  0  0  0  0  0  0  0  0  0
  145.7060  159.0780  133.4010 C   0  0  0  0  0  0  0  0  0  0  0  0
  147.1200  158.9300  133.0080 C   0  0  0  0  0  0  0  0  0  0  0  0
  147.6150  157.6860  132.5170 N   0  0  0  0  0  0  0  0  0  0  0  0
  147.8920  159.9230  133.0630 O   0  0  0  0  0  0  0  0  0  0  0  0
  144.8630  158.0630  133.7450 N   0  0  0  0  0  0  0  0  0  0  0  0
  145.1850  156.6840  133.9800 C   0  0  0  0  0  0  0  0  0  0  0  0
  146.1730  156.3920  134.7050 O   0  0  0  0  0  0  0  0  0  0  0  0
  144.3890  155.5760  133.3300 C   0  0  0  0  0  0  0  0  0  0  0  0
  145.1920  154.7250  132.3030 C   0  0  0  0  0  0  0  0  0  0  0  0
  144.3740  154.5070  131.0100 C   0  0  0  0  0  0  0  0  0  0  0  0
  145.5610  153.3530  132.9100 C   0  0  0  0  0  0  0  0  0  0  0  0
  146.4350  155.4430  131.9650 N   0  0  0  0  0  0  0  0  0  0  0  0
  143.6440  158.6280  133.8830 C   0  0  0  0  0  0  0  0  0  0  0  0
  142.4390  158.0090  134.2330 C   0  0  0  0  0  0  0  0  0  0  0  0
  139.9210  158.1743  135.8482 H   0  0  0  0  0  0  0  0  0  0  0  0
  139.1475  158.8041  134.3543 H   0  0  0  0  0  0  0  0  0  0  0  0
  139.9086  157.1770  134.3543 H   0  0  0  0  0  0  0  0  0  0  0  0
  140.4672  160.8300  134.1984 H   0  0  0  0  0  0  0  0  0  0  0  0
  142.6650  161.8821  133.5653 H   0  0  0  0  0  0  0  0  0  0  0  0
  145.4297  161.2821  133.1228 H   0  0  0  0  0  0  0  0  0  0  0  0
  147.5520  156.8180  133.0920 H   0  0  0  0  0  0  0  0  0  0  0  0
  144.0231  154.9053  134.1214 H   0  0  0  0  0  0  0  0  0  0  0  0
  143.5762  156.0605  132.7691 H   0  0  0  0  0  0  0  0  0  0  0  0
  143.3415  154.2318  131.2713 H   0  0  0  0  0  0  0  0  0  0  0  0
  144.3678  155.4349  130.4192 H   0  0  0  0  0  0  0  0  0  0  0  0
  144.8304  153.6991  130.4192 H   0  0  0  0  0  0  0  0  0  0  0  0
  145.5428  153.4209  134.0078 H   0  0  0  0  0  0  0  0  0  0  0  0
  144.8342  152.5974  132.5772 H   0  0  0  0  0  0  0  0  0  0  0  0
  146.5688  153.0639  132.5772 H   0  0  0  0  0  0  0  0  0  0  0  0
  146.9940  155.6420  132.8270 H   0  0  0  0  0  0  0  0  0  0  0  0
  146.2170  156.3530  131.4970 H   0  0  0  0  0  0  0  0  0  0  0  0
  147.0240  154.8700  131.3170 H   0  0  0  0  0  0  0  0  0  0  0  0
  142.3947  156.9269  134.4257 H   0  0  0  0  0  0  0  0  0  0  0  0
  1  2  1  0
  2  3  2  0
  3  4  1  0
  4  5  2  0
  5  6  1  0
  6  7  2  0
  7  8  1  0
  8  9  1  0
  8 10  2  0
  7 11  1  0
 11 12  1  0
 12 13  2  0
 12 14  1  0
 14 15  1  0
 15 16  1  0
 15 17  1  0
 15 18  1  0
 11 19  1  0
 19 20  2  0
 20  2  1  0
 19  5  1  0
  1 21  1  0
  1 22  1  0
  1 23  1  0
  3 24  1  0
  4 25  1  0
  6 26  1  0
  9 27  1  0
 14 28  1  0
 14 29  1  0
 16 30  1  0
 16 31  1  0
 16 32  1  0
 17 33  1  0
 17 34  1  0
 17 35  1  0
 18 36  1  0
 18 37  1  0
 18 38  1  0
 20 39  1  0
M  CHG  2   9  -1  18   1
M  END
>  <UniqueID>  (58) 
58

>  <SMILES>  (58) 
Cc1ccc2cc(C([NH-])=O)n(C(=O)CC(C)(C)[NH3+])c2c1

>  <Energy>  (58) 
74.15006524232643

>  <Genealogy>  (58) 
Cc1ccc2cc(C([NH-])=O)n(C(=O)CC(C)(C)[NH3+])c2c1 (protonated)
Cc1ccc2cc(C([NH-])=O)n(C(=O)CC(C)(C)[NH3+])c2c1 (3D coordinates assigned)
Cc1ccc2cc(C([NH-])=O)n(C(=O)CC(C)(C)[NH3+])c2c1 (optimized conformer: 74.15006524232643 kcal/mol)

>  <smiles>  (58) 
Cc1ccc2cc(C(N)=O)n(C(=O)CC(C)(C)N)c2c1

>  <score_type>  (58) 
oracle

>  <origin>  (58) 
adg

>  <m_score__min__energy>  (58) 
-6.04

>  <m_primary>  (58) 
energy

$$$$
58:0
     RDKit          3D

 48 49  0  0  0  0  0  0  0  0999 V2000
  149.9950  159.3670  131.3360 C   0  0  0  0  0  0  0  0  0  0  0  0
  149.0100  160.3620  130.6930 C   0  0  0  0  0  0  0  0  0  0  0  0
  149.5890  161.7900  130.7120 C   0  0  0  0  0  0  0  0  0  0  0  0
  148.7620  159.9490  129.2350 C   0  0  0  0  0  0  0  0  0  0  0  0
  147.7430  160.3200  131.3650 O   0  0  0  0  0  0  0  0  0  0  0  0
  147.5270  160.0340  132.7210 C   0  0  0  0  0  0  0  0  0  0  0  0
  148.3560  160.3990  133.5980 O   0  0  0  0  0  0  0  0  0  0  0  0
  146.3460  159.3140  133.1130 N   0  0  0  0  0  0  0  0  0  0  0  0
  145.1510  159.8340  133.5090 C   0  0  0  0  0  0  0  0  0  0  0  0
  144.8720  161.2610  133.7690 C   0  0  0  0  0  0  0  0  0  0  0  0
  145.9180  162.1690  134.1180 N   0  0  0  0  0  0  0  0  0  0  0  0
  143.6820  161.6740  133.7360 O   0  0  0  0  0  0  0  0  0  0  0  0
  144.2130  158.8230  133.6960 C   0  0  0  0  0  0  0  0  0  0  0  0
  144.8800  157.6530  133.4150 C   0  0  0  0  0  0  0  0  0  0  0  0
  144.4250  156.3400  133.4310 C   0  0  0  0  0  0  0  0  0  0  0  0
  145.3240  155.3270  133.0590 C   0  0  0  0  0  0  0  0  0  0  0  0
  146.6510  155.6350  132.6670 C   0  0  0  0  0  0  0  0  0  0  0  0
  147.5230  154.5520  132.2770 N   0  0  0  0  0  0  0  0  0  0  0  0
  147.6620  153.2660  132.9670 C   0  0  0  0  0  0  0  0  0  0  0  0
  149.1290  152.7900  132.9640 C   0  0  2  0  0  0  0  0  0  0  0  0
  149.9280  153.6570  132.2000 O   0  0  0  0  0  0  0  0  0  0  0  0
  149.2980  151.3400  132.4820 C   0  0  0  0  0  0  0  0  0  0  0  0
  150.3750  151.2360  131.5910 O   0  0  0  0  0  0  0  0  0  0  0  0
  147.0760  156.9880  132.6680 C   0  0  0  0  0  0  0  0  0  0  0  0
  146.1650  157.9750  133.0630 C   0  0  0  0  0  0  0  0  0  0  0  0
  149.9249  159.4378  132.4315 H   0  0  0  0  0  0  0  0  0  0  0  0
  149.7434  158.3445  131.0178 H   0  0  0  0  0  0  0  0  0  0  0  0
  151.0200  159.6083  131.0178 H   0  0  0  0  0  0  0  0  0  0  0  0
  149.7220  162.1179  131.7535 H   0  0  0  0  0  0  0  0  0  0  0  0
  150.5615  161.7982  130.1980 H   0  0  0  0  0  0  0  0  0  0  0  0
  148.8968  162.4732  130.1980 H   0  0  0  0  0  0  0  0  0  0  0  0
  148.1958  159.0062  129.2122 H   0  0  0  0  0  0  0  0  0  0  0  0
  148.1863  160.7349  128.7242 H   0  0  0  0  0  0  0  0  0  0  0  0
  149.7262  159.8101  128.7242 H   0  0  0  0  0  0  0  0  0  0  0  0
  145.7070  163.1820  134.2560 H   0  0  0  0  0  0  0  0  0  0  0  0
  146.8830  161.8270  134.3210 H   0  0  0  0  0  0  0  0  0  0  0  0
  143.1627  158.9354  134.0029 H   0  0  0  0  0  0  0  0  0  0  0  0
  143.3925  156.1014  133.7259 H   0  0  0  0  0  0  0  0  0  0  0  0
  144.9931  154.2780  133.0721 H   0  0  0  0  0  0  0  0  0  0  0  0
  148.1930  154.7250  131.4920 H   0  0  0  0  0  0  0  0  0  0  0  0
  147.3228  153.3780  134.0074 H   0  0  0  0  0  0  0  0  0  0  0  0
  147.0511  152.5187  132.4395 H   0  0  0  0  0  0  0  0  0  0  0  0
  149.4629  152.8113  134.0119 H   0  0  0  0  0  0  0  0  0  0  0  0
  150.3960  153.1120  131.5130 H   0  0  0  0  0  0  0  0  0  0  0  0
  149.4836  150.6903  133.3500 H   0  0  0  0  0  0  0  0  0  0  0  0
  148.3788  151.0306  131.9630 H   0  0  0  0  0  0  0  0  0  0  0  0
  151.0740  151.8520  131.9330 H   0  0  0  0  0  0  0  0  0  0  0  0
  148.0989  157.2561  132.3651 H   0  0  0  0  0  0  0  0  0  0  0  0
  1  2  1  0
  2  3  1  0
  2  4  1  0
  2  5  1  0
  5  6  1  0
  6  7  2  0
  6  8  1  0
  8  9  1  0
  9 10  1  0
 10 11  1  0
 10 12  2  0
  9 13  2  0
 13 14  1  0
 14 15  2  0
 15 16  1  0
 16 17  2  0
 17 18  1  0
 18 19  1  0
 19 20  1  0
 20 21  1  0
 20 22  1  0
 22 23  1  0
 17 24  1  0
 24 25  2  0
 25  8  1  0
 25 14  1  0
  1 26  1  0
  1 27  1  0
  1 28  1  0
  3 29  1  0
  3 30  1  0
  3 31  1  0
  4 32  1  0
  4 33  1  0
  4 34  1  0
 11 35  1  0
 11 36  1  0
 13 37  1  0
 15 38  1  0
 16 39  1  0
 18 40  1  0
 19 41  1  0
 19 42  1  0
 20 43  1  1
 21 44  1  0
 22 45  1  0
 22 46  1  0
 23 47  1  0
 24 48  1  0
M  END
>  <UniqueID>  (59) 
59

>  <SMILES>  (59) 
CC(C)(C)OC(=O)n1c(C(N)=O)cc2ccc(NC[C@H](O)CO)cc21

>  <Energy>  (59) 
79.57416913342034

>  <Genealogy>  (59) 
CC(C)(C)OC(=O)n1c(C(N)=O)cc2ccc(NC[C@H](O)CO)cc21 (chirality)
CC(C)(C)OC(=O)n1c(C(N)=O)cc2ccc(NC[C@H](O)CO)cc21 (3D coordinates assigned)
CC(C)(C)OC(=O)n1c(C(N)=O)cc2ccc(NC[C@H](O)CO)cc21 (optimized conformer: 79.57416913342034 kcal/mol)

>  <smiles>  (59) 
CC(C)(C)OC(=O)n1c(C(N)=O)cc2ccc(NCC(O)CO)cc21

>  <score_type>  (59) 
oracle

>  <origin>  (59) 
adg

>  <m_score__min__energy>  (59) 
-7.4400000000000004

>  <m_primary>  (59) 
energy

$$$$
59:0
     RDKit          3D

 47 50  0  0  0  0  0  0  0  0999 V2000
  139.1460  147.1840  130.0480 C   0  0  0  0  0  0  0  0  0  0  0  0
  139.2470  148.4490  129.4370 O   0  0  0  0  0  0  0  0  0  0  0  0
  138.8910  149.4450  130.3760 C   0  0  0  0  0  0  0  0  0  0  0  0
  139.0690  148.9610  131.7780 C   0  0  0  0  0  0  0  0  0  0  0  0
  140.1950  149.8520  132.1150 N   0  0  0  0  0  0  0  0  0  0  0  0
  140.9220  150.1820  133.3010 C   0  0  0  0  0  0  0  0  0  0  0  0
  140.5790  149.6510  134.3910 O   0  0  0  0  0  0  0  0  0  0  0  0
  142.0380  151.1530  133.2850 C   0  0  0  0  0  0  0  0  0  0  0  0
  141.8860  152.4410  133.8200 C   0  0  0  0  0  0  0  0  0  0  0  0
  142.9410  153.3570  133.7780 C   0  0  0  0  0  0  0  0  0  0  0  0
  144.1680  153.0060  133.1880 C   0  0  0  0  0  0  0  0  0  0  0  0
  145.2820  153.9880  133.1180 C   0  0  0  0  0  0  0  0  0  0  0  0
  146.6230  153.5410  132.9920 C   0  0  0  0  0  0  0  0  0  0  0  0
  147.6830  154.4610  132.9170 C   0  0  0  0  0  0  0  0  0  0  0  0
  147.3750  155.8170  132.9570 C   0  0  0  0  0  0  0  0  0  0  0  0
  148.2070  156.9120  132.9180 C   0  0  0  0  0  0  0  0  0  0  0  0
  147.3650  158.0170  132.9900 C   0  0  0  0  0  0  0  0  0  0  0  0
  147.8470  159.4090  132.8990 C   0  0  0  0  0  0  0  0  0  0  0  0
  146.9500  160.4870  132.6310 N   0  0  0  0  0  0  0  0  0  0  0  0
  149.0820  159.6430  132.9930 O   0  0  0  0  0  0  0  0  0  0  0  0
  146.0620  157.6240  133.0900 N   0  0  0  0  0  0  0  0  0  0  0  0
  144.9120  158.4620  133.2990 C   0  0  0  0  0  0  0  0  0  0  0  0
  144.9790  159.4530  134.0730 O   0  0  0  0  0  0  0  0  0  0  0  0
  143.7080  158.1790  132.6640 O   0  0  0  0  0  0  0  0  0  0  0  0
  146.0860  156.2710  133.0630 C   0  0  0  0  0  0  0  0  0  0  0  0
  145.0130  155.3750  133.1640 C   0  0  0  0  0  0  0  0  0  0  0  0
  144.3160  151.7190  132.6440 C   0  0  0  0  0  0  0  0  0  0  0  0
  143.2600  150.8050  132.6860 C   0  0  0  0  0  0  0  0  0  0  0  0
  140.0350  150.3430  130.7320 C   0  0  0  0  0  0  0  0  0  0  0  0
  139.1555  147.3032  131.1415 H   0  0  0  0  0  0  0  0  0  0  0  0
  138.2065  146.7019  129.7399 H   0  0  0  0  0  0  0  0  0  0  0  0
  139.9971  146.5590  129.7399 H   0  0  0  0  0  0  0  0  0  0  0  0
  137.9430  149.8029  129.9480 H   0  0  0  0  0  0  0  0  0  0  0  0
  138.1832  149.1421  132.4045 H   0  0  0  0  0  0  0  0  0  0  0  0
  139.2281  147.8814  131.9168 H   0  0  0  0  0  0  0  0  0  0  0  0
  140.9285  152.7325  134.2764 H   0  0  0  0  0  0  0  0  0  0  0  0
  142.8103  154.3602  134.2099 H   0  0  0  0  0  0  0  0  0  0  0  0
  146.8353  152.4624  132.9526 H   0  0  0  0  0  0  0  0  0  0  0  0
  148.7248  154.1190  132.8293 H   0  0  0  0  0  0  0  0  0  0  0  0
  149.3046  156.9134  132.8453 H   0  0  0  0  0  0  0  0  0  0  0  0
  147.3040  161.4690  132.6060 H   0  0  0  0  0  0  0  0  0  0  0  0
  145.9610  160.3060  132.3460 H   0  0  0  0  0  0  0  0  0  0  0  0
  143.9827  155.7435  133.2768 H   0  0  0  0  0  0  0  0  0  0  0  0
  145.2708  151.4287  132.1814 H   0  0  0  0  0  0  0  0  0  0  0  0
  143.3866  149.8046  132.2464 H   0  0  0  0  0  0  0  0  0  0  0  0
  139.7675  151.4091  130.6882 H   0  0  0  0  0  0  0  0  0  0  0  0
  140.9215  150.3067  130.0818 H   0  0  0  0  0  0  0  0  0  0  0  0
  1  2  1  0
  2  3  1  0
  3  4  1  0
  4  5  1  0
  5  6  1  0
  6  7  2  0
  6  8  1  0
  8  9  2  0
  9 10  1  0
 10 11  2  0
 11 12  1  0
 12 13  2  0
 13 14  1  0
 14 15  2  0
 15 16  1  0
 16 17  2  0
 17 18  1  0
 18 19  1  0
 18 20  2  0
 17 21  1  0
 21 22  1  0
 22 23  2  0
 22 24  1  0
 21 25  1  0
 25 26  2  0
 11 27  1  0
 27 28  2  0
  5 29  1  0
 29  3  1  0
 28  8  1  0
 26 12  1  0
 25 15  1  0
  1 30  1  0
  1 31  1  0
  1 32  1  0
  3 33  1  0
  4 34  1  0
  4 35  1  0
  9 36  1  0
 10 37  1  0
 13 38  1  0
 14 39  1  0
 16 40  1  0
 19 41  1  0
 19 42  1  0
 26 43  1  0
 27 44  1  0
 28 45  1  0
 29 46  1  0
 29 47  1  0
M  CHG  1  24  -1
M  END
>  <UniqueID>  (60) 
60

>  <SMILES>  (60) 
COC1CN(C(=O)c2ccc(-c3ccc4cc(C(N)=O)n(C(=O)[O-])c4c3)cc2)C1

>  <Energy>  (60) 
144.34494530952844

>  <Genealogy>  (60) 
COC1CN(C(=O)c2ccc(-c3ccc4cc(C(N)=O)n(C(=O)[O-])c4c3)cc2)C1 (protonated)
COC1CN(C(=O)c2ccc(-c3ccc4cc(C(N)=O)n(C(=O)[O-])c4c3)cc2)C1 (3D coordinates assigned)
COC1CN(C(=O)c2ccc(-c3ccc4cc(C(N)=O)n(C(=O)[O-])c4c3)cc2)C1 (nonaromatic ring conformer: 144.34494530952844 kcal/mol)

>  <smiles>  (60) 
COC1CN(C(=O)c2ccc(-c3ccc4cc(C(N)=O)n(C(=O)O)c4c3)cc2)C1

>  <score_type>  (60) 
oracle

>  <origin>  (60) 
adg

>  <m_score__min__energy>  (60) 
-9.5899999999999999

>  <m_primary>  (60) 
energy

$$$$
60:0
     RDKit          3D

 39 40  0  0  0  0  0  0  0  0999 V2000
  142.2770  158.5790  132.3590 H   0  0  0  0  0  0  0  0  0  0  0  0
  142.9990  157.8670  132.6070 N   0  0  0  0  0  0  0  0  0  0  0  0
  142.7880  156.9490  133.6760 C   0  0  0  0  0  0  0  0  0  0  0  0
  142.7290  157.3810  134.8570 O   0  0  0  0  0  0  0  0  0  0  0  0
  142.5810  155.5100  133.4100 C   0  0  0  0  0  0  0  0  0  0  0  0
  143.6250  154.5960  133.2940 C   0  0  0  0  0  0  0  0  0  0  0  0
  144.7039  154.8088  133.3206 H   0  0  0  0  0  0  0  0  0  0  0  0
  143.0200  153.3700  133.1390 C   0  0  0  0  0  0  0  0  0  0  0  0
  143.5840  152.1090  132.9770 C   0  0  0  0  0  0  0  0  0  0  0  0
  144.6755  151.9723  132.9782 H   0  0  0  0  0  0  0  0  0  0  0  0
  142.7190  151.0160  132.8120 C   0  0  0  0  0  0  0  0  0  0  0  0
  143.1364  150.0042  132.7023 H   0  0  0  0  0  0  0  0  0  0  0  0
  141.3120  151.2010  132.7850 C   0  0  0  0  0  0  0  0  0  0  0  0
  140.3920  150.0150  132.6440 C   0  0  0  0  0  0  0  0  0  0  0  0
  139.1400  150.4550  132.2560 F   0  0  0  0  0  0  0  0  0  0  0  0
  140.8750  149.1330  131.6930 F   0  0  0  0  0  0  0  0  0  0  0  0
  140.2800  149.3380  133.8460 F   0  0  0  0  0  0  0  0  0  0  0  0
  140.7770  152.4970  132.9770 C   0  0  0  0  0  0  0  0  0  0  0  0
  139.6893  152.6613  132.9832 H   0  0  0  0  0  0  0  0  0  0  0  0
  141.6640  153.5660  133.1590 C   0  0  0  0  0  0  0  0  0  0  0  0
  141.3770  154.8770  133.3240 N   0  0  0  0  0  0  0  0  0  0  0  0
  140.0730  155.4800  133.2890 C   0  0  0  0  0  0  0  0  0  0  0  0
  139.1430  154.9370  132.6340 O   0  0  0  0  0  0  0  0  0  0  0  0
  139.8490  156.6780  133.9700 O   0  0  0  0  0  0  0  0  0  0  0  0
  139.0460  157.7290  133.4430 C   0  0  0  0  0  0  0  0  0  0  0  0
  138.4121  158.1355  134.2448 H   0  0  0  0  0  0  0  0  0  0  0  0
  138.4235  157.3246  132.6313 H   0  0  0  0  0  0  0  0  0  0  0  0
  139.9040  158.8270  132.8900 C   0  0  0  0  0  0  0  0  0  0  0  0
  140.7510  159.4140  133.6750 N   0  0  0  0  0  0  0  0  0  0  0  0
  141.5760  160.4210  133.2250 O   0  0  0  0  0  0  0  0  0  0  0  0
  142.8760  160.5770  133.7650 C   0  0  0  0  0  0  0  0  0  0  0  0
  142.8200  160.5703  134.8636 H   0  0  0  0  0  0  0  0  0  0  0  0
  143.5159  159.7492  133.4254 H   0  0  0  0  0  0  0  0  0  0  0  0
  143.3019  161.5327  133.4254 H   0  0  0  0  0  0  0  0  0  0  0  0
  139.7870  159.3030  131.1540 S   0  0  0  0  0  0  0  0  0  0  0  0
  137.9690  159.3680  131.1700 C   0  0  0  0  0  0  0  0  0  0  0  0
  137.6117  159.3808  132.2103 H   0  0  0  0  0  0  0  0  0  0  0  0
  137.6301  160.2788  130.6547 H   0  0  0  0  0  0  0  0  0  0  0  0
  137.5659  158.4837  130.6547 H   0  0  0  0  0  0  0  0  0  0  0  0
  1  2  1  0
  2  3  1  0
  3  4  2  0
  3  5  1  0
  5  6  2  0
  6  7  1  0
  6  8  1  0
  8  9  2  0
  9 10  1  0
  9 11  1  0
 11 12  1  0
 11 13  2  0
 13 14  1  0
 14 15  1  0
 14 16  1  0
 14 17  1  0
 13 18  1  0
 18 19  1  0
 18 20  2  0
 20 21  1  0
 21 22  1  0
 22 23  2  0
 22 24  1  0
 24 25  1  0
 25 26  1  0
 25 27  1  0
 25 28  1  0
 28 29  2  0
 29 30  1  0
 30 31  1  0
 31 32  1  0
 31 33  1  0
 31 34  1  0
 28 35  1  0
 35 36  1  0
 36 37  1  0
 36 38  1  0
 36 39  1  0
 21  5  1  0
 20  8  1  0
M  CHG  1   2  -1
M  END
>  <UniqueID>  (61) 
61

>  <SMILES>  (61) 
CO/N=C(/COC(=O)n1c(C([NH-])=O)cc2ccc(C(F)(F)F)cc21)SC

>  <Energy>  (61) 
67.17137517417652

>  <Genealogy>  (61) 
CO/N=C(/COC(=O)n1c(C([NH-])=O)cc2ccc(C(F)(F)F)cc21)SC (protonated)
CO/N=C(/COC(=O)n1c(C([NH-])=O)cc2ccc(C(F)(F)F)cc21)SC (cis-trans isomerization)
CO/N=C(/COC(=O)n1c(C([NH-])=O)cc2ccc(C(F)(F)F)cc21)SC (3D coordinates assigned)
CO/N=C(/COC(=O)n1c(C([NH-])=O)cc2ccc(C(F)(F)F)cc21)SC (optimized conformer: 67.17137517417652 kcal/mol)

>  <smiles>  (61) 
CO/N=C(/COC(=O)n1c(C(N)=O)cc2ccc(C(F)(F)F)cc21)SC

>  <score_type>  (61) 
oracle

>  <origin>  (61) 
adg

>  <m_score__min__energy>  (61) 
-6.2999999999999998

>  <m_primary>  (61) 
energy

$$$$
61:0
     RDKit          3D

 44 45  0  0  0  0  0  0  0  0999 V2000
  140.9730  152.8520  132.6320 C   0  0  0  0  0  0  0  0  0  0  0  0
  141.3410  153.7480  133.7800 C   0  0  0  0  0  0  0  0  0  0  0  0
  142.3130  153.3290  134.7230 C   0  0  0  0  0  0  0  0  0  0  0  0
  142.6770  154.1640  135.7930 C   0  0  0  0  0  0  0  0  0  0  0  0
  142.0720  155.4130  135.8790 C   0  0  0  0  0  0  0  0  0  0  0  0
  142.2150  156.4100  136.8260 C   0  0  0  0  0  0  0  0  0  0  0  0
  141.3430  157.4260  136.4250 C   0  0  0  0  0  0  0  0  0  0  0  0
  141.1250  158.6720  137.1920 C   0  0  0  0  0  0  0  0  0  0  0  0
  140.6100  159.8410  136.5590 N   0  0  0  0  0  0  0  0  0  0  0  0
  141.3500  158.6890  138.4320 O   0  0  0  0  0  0  0  0  0  0  0  0
  140.7120  157.0810  135.2630 N   0  0  0  0  0  0  0  0  0  0  0  0
  139.7170  157.8280  134.5410 C   0  0  0  0  0  0  0  0  0  0  0  0
  138.6860  158.2180  135.1580 O   0  0  0  0  0  0  0  0  0  0  0  0
  139.8690  158.0910  133.1240 N   0  0  0  0  0  0  0  0  0  0  0  0
  138.6680  158.3640  132.3040 C   0  0  0  0  0  0  0  0  0  0  0  0
  138.9500  159.3660  131.2260 C   0  0  0  0  0  0  0  0  0  0  0  0
  139.4600  159.0130  130.1290 O   0  0  0  0  0  0  0  0  0  0  0  0
  138.7090  160.7150  131.4680 O   0  0  0  0  0  0  0  0  0  0  0  0
  141.2020  158.4130  132.5800 C   0  0  0  0  0  0  0  0  0  0  0  0
  141.8970  159.4670  133.3990 C   0  0  0  0  0  0  0  0  0  0  0  0
  141.2090  160.4210  133.8570 O   0  0  0  0  0  0  0  0  0  0  0  0
  143.3210  159.4370  133.6240 N   0  0  0  0  0  0  0  0  0  0  0  0
  143.9830  160.6510  134.1120 C   0  0  0  0  0  0  0  0  0  0  0  0
  144.0940  158.2080  133.4070 C   0  0  0  0  0  0  0  0  0  0  0  0
  141.1530  155.8410  134.9530 C   0  0  0  0  0  0  0  0  0  0  0  0
  140.7630  155.0300  133.8840 C   0  0  0  0  0  0  0  0  0  0  0  0
  140.5820  151.9001  133.0206 H   0  0  0  0  0  0  0  0  0  0  0  0
  140.2029  153.3411  132.0174 H   0  0  0  0  0  0  0  0  0  0  0  0
  141.8645  152.6587  132.0174 H   0  0  0  0  0  0  0  0  0  0  0  0
  142.7863  152.3418  134.6162 H   0  0  0  0  0  0  0  0  0  0  0  0
  143.4173  153.8397  136.5392 H   0  0  0  0  0  0  0  0  0  0  0  0
  142.8741  156.4048  137.7067 H   0  0  0  0  0  0  0  0  0  0  0  0
  140.1190  159.7770  135.6390 H   0  0  0  0  0  0  0  0  0  0  0  0
  138.3325  157.4251  131.8393 H   0  0  0  0  0  0  0  0  0  0  0  0
  137.8898  158.7777  132.9622 H   0  0  0  0  0  0  0  0  0  0  0  0
  141.8162  157.5005  132.5779 H   0  0  0  0  0  0  0  0  0  0  0  0
  141.0713  158.8022  131.5595 H   0  0  0  0  0  0  0  0  0  0  0  0
  143.9833  160.6515  135.2120 H   0  0  0  0  0  0  0  0  0  0  0  0
  145.0197  160.6761  133.7450 H   0  0  0  0  0  0  0  0  0  0  0  0
  143.4426  161.5361  133.7450 H   0  0  0  0  0  0  0  0  0  0  0  0
  144.3687  157.7713  134.3785 H   0  0  0  0  0  0  0  0  0  0  0  0
  143.4860  157.4877  132.8399 H   0  0  0  0  0  0  0  0  0  0  0  0
  145.0065  158.4441  132.8399 H   0  0  0  0  0  0  0  0  0  0  0  0
  140.0271  155.3811  133.1457 H   0  0  0  0  0  0  0  0  0  0  0  0
  1  2  1  0
  2  3  2  0
  3  4  1  0
  4  5  2  0
  5  6  1  0
  6  7  2  0
  7  8  1  0
  8  9  1  0
  8 10  2  0
  7 11  1  0
 11 12  1  0
 12 13  2  0
 12 14  1  0
 14 15  1  0
 15 16  1  0
 16 17  2  0
 16 18  1  0
 14 19  1  0
 19 20  1  0
 20 21  2  0
 20 22  1  0
 22 23  1  0
 22 24  1  0
 11 25  1  0
 25 26  2  0
 26  2  1  0
 25  5  1  0
  1 27  1  0
  1 28  1  0
  1 29  1  0
  3 30  1  0
  4 31  1  0
  6 32  1  0
  9 33  1  0
 15 34  1  0
 15 35  1  0
 19 36  1  0
 19 37  1  0
 23 38  1  0
 23 39  1  0
 23 40  1  0
 24 41  1  0
 24 42  1  0
 24 43  1  0
 26 44  1  0
M  CHG  2   9  -1  18  -1
M  END
>  <UniqueID>  (62) 
62

>  <SMILES>  (62) 
Cc1ccc2cc(C([NH-])=O)n(C(=O)N(CC(=O)[O-])CC(=O)N(C)C)c2c1

>  <Energy>  (62) 
79.34590592588157

>  <Genealogy>  (62) 
Cc1ccc2cc(C([NH-])=O)n(C(=O)N(CC(=O)[O-])CC(=O)N(C)C)c2c1 (protonated)
Cc1ccc2cc(C([NH-])=O)n(C(=O)N(CC(=O)[O-])CC(=O)N(C)C)c2c1 (3D coordinates assigned)
Cc1ccc2cc(C([NH-])=O)n(C(=O)N(CC(=O)[O-])CC(=O)N(C)C)c2c1 (optimized conformer: 79.34590592588157 kcal/mol)

>  <smiles>  (62) 
Cc1ccc2cc(C(N)=O)n(C(=O)N(CC(=O)O)CC(=O)N(C)C)c2c1

>  <score_type>  (62) 
oracle

>  <origin>  (62) 
adg

>  <m_score__min__energy>  (62) 
-7.1200000000000001

>  <m_primary>  (62) 
energy

$$$$
62:0
     RDKit          3D

 38 39  0  0  0  0  0  0  0  0999 V2000
  141.9420  159.9030  132.9510 N   0  0  0  0  0  0  0  0  0  0  0  0
  143.2280  160.2420  133.4640 C   0  0  0  0  0  0  0  0  0  0  0  0
  143.4890  161.4480  133.7180 O   0  0  0  0  0  0  0  0  0  0  0  0
  144.2720  159.2100  133.6520 C   0  0  0  0  0  0  0  0  0  0  0  0
  145.6320  159.4670  133.5030 C   0  0  0  0  0  0  0  0  0  0  0  0
  146.2550  158.2550  133.6940 C   0  0  0  0  0  0  0  0  0  0  0  0
  147.6100  157.9390  133.6860 C   0  0  0  0  0  0  0  0  0  0  0  0
  147.9770  156.6100  133.9590 C   0  0  0  0  0  0  0  0  0  0  0  0
  146.9900  155.6320  134.2340 C   0  0  0  0  0  0  0  0  0  0  0  0
  147.3990  154.2270  134.5780 C   0  0  0  0  0  0  0  0  0  0  0  0
  147.5790  154.0940  136.0560 C   0  0  0  0  0  0  0  0  0  0  0  0
  148.3130  154.9040  136.6820 O   0  0  0  0  0  0  0  0  0  0  0  0
  146.9800  153.0390  136.7380 O   0  0  0  0  0  0  0  0  0  0  0  0
  145.6250  155.9950  134.2490 C   0  0  0  0  0  0  0  0  0  0  0  0
  145.2850  157.3190  133.9480 C   0  0  0  0  0  0  0  0  0  0  0  0
  144.0600  157.8910  133.9240 N   0  0  0  0  0  0  0  0  0  0  0  0
  142.8060  157.2470  134.2080 C   0  0  0  0  0  0  0  0  0  0  0  0
  141.9210  157.1700  133.3150 O   0  0  0  0  0  0  0  0  0  0  0  0
  142.4760  156.5360  135.8250 S   0  0  0  0  0  0  0  0  0  0  0  0
  142.4190  154.8120  135.2330 C   0  0  0  0  0  0  0  0  0  0  0  0
  142.6780  153.8690  136.3630 C   0  0  0  0  0  0  0  0  0  0  0  0
  143.5970  154.1170  137.1930 O   0  0  0  0  0  0  0  0  0  0  0  0
  141.8740  152.6950  136.5030 N   0  0  0  0  0  0  0  0  0  0  0  0
  141.2540  152.2870  137.7580 C   0  0  0  0  0  0  0  0  0  0  0  0
  140.6130  150.9450  137.6080 C   0  0  0  0  0  0  0  0  0  0  0  0
  140.0940  150.3750  138.6040 O   0  0  0  0  0  0  0  0  0  0  0  0
  140.6130  150.3080  136.3740 O   0  0  0  0  0  0  0  0  0  0  0  0
  141.8240  159.1130  132.2790 H   0  0  0  0  0  0  0  0  0  0  0  0
  146.1076  160.4335  133.2800 H   0  0  0  0  0  0  0  0  0  0  0  0
  148.3700  158.7051  133.4728 H   0  0  0  0  0  0  0  0  0  0  0  0
  149.0400  156.3269  133.9591 H   0  0  0  0  0  0  0  0  0  0  0  0
  146.6191  153.5280  134.2417 H   0  0  0  0  0  0  0  0  0  0  0  0
  148.3499  153.9948  134.0762 H   0  0  0  0  0  0  0  0  0  0  0  0
  144.8480  155.2551  134.4914 H   0  0  0  0  0  0  0  0  0  0  0  0
  141.4252  154.6063  134.8087 H   0  0  0  0  0  0  0  0  0  0  0  0
  143.1926  154.6711  134.4637 H   0  0  0  0  0  0  0  0  0  0  0  0
  142.0230  152.2361  138.5429 H   0  0  0  0  0  0  0  0  0  0  0  0
  140.4836  153.0228  138.0322 H   0  0  0  0  0  0  0  0  0  0  0  0
  1  2  1  0
  2  3  2  0
  2  4  1  0
  4  5  2  0
  5  6  1  0
  6  7  2  0
  7  8  1  0
  8  9  2  0
  9 10  1  0
 10 11  1  0
 11 12  2  0
 11 13  1  0
  9 14  1  0
 14 15  2  0
 15 16  1  0
 16 17  1  0
 17 18  2  0
 17 19  1  0
 19 20  1  0
 20 21  1  0
 21 22  2  0
 21 23  1  0
 23 24  1  0
 24 25  1  0
 25 26  2  0
 25 27  1  0
 16  4  1  0
 15  6  1  0
  1 28  1  0
  5 29  1  0
  7 30  1  0
  8 31  1  0
 10 32  1  0
 10 33  1  0
 14 34  1  0
 20 35  1  0
 20 36  1  0
 24 37  1  0
 24 38  1  0
M  CHG  4   1  -1  13  -1  23  -1  27  -1
M  END
>  <UniqueID>  (63) 
63

>  <SMILES>  (63) 
[NH-]C(=O)c1cc2ccc(CC(=O)[O-])cc2n1C(=O)SCC(=O)[N-]CC(=O)[O-]

>  <Energy>  (63) 
65.09165655592973

>  <Genealogy>  (63) 
[NH-]C(=O)c1cc2ccc(CC(=O)[O-])cc2n1C(=O)SCC(=O)[N-]CC(=O)[O-] (protonated)
[NH-]C(=O)c1cc2ccc(CC(=O)[O-])cc2n1C(=O)SCC(=O)[N-]CC(=O)[O-] (3D coordinates assigned)
[NH-]C(=O)c1cc2ccc(CC(=O)[O-])cc2n1C(=O)SCC(=O)[N-]CC(=O)[O-] (optimized conformer: 65.09165655592973 kcal/mol)

>  <smiles>  (63) 
NC(=O)c1cc2ccc(CC(=O)O)cc2n1C(=O)SCC(=O)NCC(=O)O

>  <score_type>  (63) 
oracle

>  <origin>  (63) 
adg

>  <m_score__min__energy>  (63) 
-7.6699999999999999

>  <m_primary>  (63) 
energy

$$$$
63:0
     RDKit          3D

 55 59  0  0  0  0  0  0  0  0999 V2000
  139.4790  155.9860  132.5080 C   0  0  0  0  0  0  0  0  0  0  0  0
  139.6130  154.7820  133.2570 O   0  0  0  0  0  0  0  0  0  0  0  0
  140.6520  153.8500  133.0960 C   0  0  0  0  0  0  0  0  0  0  0  0
  140.3960  152.4710  132.9600 C   0  0  0  0  0  0  0  0  0  0  0  0
  141.4450  151.5680  132.7280 C   0  0  0  0  0  0  0  0  0  0  0  0
  141.1630  150.1240  132.5980 C   0  0  0  0  0  0  0  0  0  0  0  0
  141.7570  149.3160  133.3610 O   0  0  0  0  0  0  0  0  0  0  0  0
  140.2190  149.6250  131.6340 N   0  0  0  0  0  0  0  0  0  0  0  0
  140.5300  148.5240  130.7370 C   0  0  0  0  0  0  0  0  0  0  0  0
  139.2240  148.1510  130.0490 C   0  0  2  0  0  0  0  0  0  0  0  0
  138.5930  149.2190  129.1680 C   0  0  0  0  0  0  0  0  0  0  0  0
  138.1440  149.0560  130.6120 C   0  0  2  0  0  0  0  0  0  0  0  0
  138.8060  149.9780  131.6280 C   0  0  0  0  0  0  0  0  0  0  0  0
  142.7610  152.0460  132.6640 C   0  0  0  0  0  0  0  0  0  0  0  0
  143.0240  153.4080  132.8070 C   0  0  0  0  0  0  0  0  0  0  0  0
  141.9820  154.3130  133.0440 C   0  0  0  0  0  0  0  0  0  0  0  0
  142.2890  155.7090  133.1780 N   0  0  0  0  0  0  0  0  0  0  0  0
  142.4160  156.3670  134.4450 C   0  0  0  0  0  0  0  0  0  0  0  0
  142.5390  155.6910  135.5030 O   0  0  0  0  0  0  0  0  0  0  0  0
  142.4110  157.8010  134.5110 N   0  0  0  0  0  0  0  0  0  0  0  0
  141.3820  158.6200  134.8690 C   0  0  0  0  0  0  0  0  0  0  0  0
  140.0700  158.1850  135.3920 C   0  0  0  0  0  0  0  0  0  0  0  0
  139.8560  158.1080  136.7990 N   0  0  0  0  0  0  0  0  0  0  0  0
  139.1420  157.8530  134.6080 O   0  0  0  0  0  0  0  0  0  0  0  0
  141.7590  159.9570  134.7430 C   0  0  0  0  0  0  0  0  0  0  0  0
  143.0590  159.9290  134.2920 C   0  0  0  0  0  0  0  0  0  0  0  0
  143.9250  160.9750  133.9890 C   0  0  0  0  0  0  0  0  0  0  0  0
  145.2080  160.6510  133.5180 C   0  0  0  0  0  0  0  0  0  0  0  0
  145.5940  159.2980  133.3320 C   0  0  0  0  0  0  0  0  0  0  0  0
  146.9860  158.9640  132.8590 C   0  0  0  0  0  0  0  0  0  0  0  0
  147.9160  159.2260  133.8490 F   0  0  0  0  0  0  0  0  0  0  0  0
  147.3160  159.7160  131.7450 F   0  0  0  0  0  0  0  0  0  0  0  0
  147.0430  157.6220  132.5300 F   0  0  0  0  0  0  0  0  0  0  0  0
  144.6920  158.2640  133.6740 C   0  0  0  0  0  0  0  0  0  0  0  0
  143.4270  158.6160  134.1600 C   0  0  0  0  0  0  0  0  0  0  0  0
  139.3842  156.8380  133.1973 H   0  0  0  0  0  0  0  0  0  0  0  0
  140.3673  156.1243  131.8741 H   0  0  0  0  0  0  0  0  0  0  0  0
  138.5820  155.9256  131.8741 H   0  0  0  0  0  0  0  0  0  0  0  0
  139.3638  152.0986  133.0365 H   0  0  0  0  0  0  0  0  0  0  0  0
  140.9187  147.6669  131.3065 H   0  0  0  0  0  0  0  0  0  0  0  0
  141.2998  148.8099  130.0052 H   0  0  0  0  0  0  0  0  0  0  0  0
  139.4104  147.0802  129.8798 H   0  0  0  0  0  0  0  0  0  0  0  0
  137.9214  148.9288  128.3466 H   0  0  0  0  0  0  0  0  0  0  0  0
  138.9746  150.0528  128.5605 H   0  0  0  0  0  0  0  0  0  0  0  0
  137.1448  148.9756  131.0650 H   0  0  0  0  0  0  0  0  0  0  0  0
  138.3695  149.8226  132.6257 H   0  0  0  0  0  0  0  0  0  0  0  0
  138.6575  151.0362  131.3668 H   0  0  0  0  0  0  0  0  0  0  0  0
  143.5909  151.3429  132.5001 H   0  0  0  0  0  0  0  0  0  0  0  0
  144.0585  153.7745  132.7330 H   0  0  0  0  0  0  0  0  0  0  0  0
  142.5480  156.2460  132.3190 H   0  0  0  0  0  0  0  0  0  0  0  0
  139.0720  158.6290  137.2520 H   0  0  0  0  0  0  0  0  0  0  0  0
  141.1471  160.8453  134.9584 H   0  0  0  0  0  0  0  0  0  0  0  0
  143.6146  162.0228  134.1144 H   0  0  0  0  0  0  0  0  0  0  0  0
  145.9224  161.4559  133.2905 H   0  0  0  0  0  0  0  0  0  0  0  0
  144.9776  157.2078  133.5608 H   0  0  0  0  0  0  0  0  0  0  0  0
  1  2  1  0
  2  3  1  0
  3  4  2  0
  4  5  1  0
  5  6  1  0
  6  7  2  0
  6  8  1  0
  8  9  1  0
  9 10  1  0
 10 11  1  0
 11 12  1  0
 12 13  1  0
  5 14  2  0
 14 15  1  0
 15 16  2  0
 16 17  1  0
 17 18  1  0
 18 19  2  0
 18 20  1  0
 20 21  1  0
 21 22  1  0
 22 23  1  0
 22 24  2  0
 21 25  2  0
 25 26  1  0
 26 27  2  0
 27 28  1  0
 28 29  2  0
 29 30  1  0
 30 31  1  0
 30 32  1  0
 30 33  1  0
 29 34  1  0
 34 35  2  0
 16  3  1  0
 35 20  1  0
 13  8  1  0
 35 26  1  0
 12 10  1  0
  1 36  1  0
  1 37  1  0
  1 38  1  0
  4 39  1  0
  9 40  1  0
  9 41  1  0
 10 42  1  6
 11 43  1  0
 11 44  1  0
 12 45  1  6
 13 46  1  0
 13 47  1  0
 14 48  1  0
 15 49  1  0
 17 50  1  0
 23 51  1  0
 25 52  1  0
 27 53  1  0
 28 54  1  0
 34 55  1  0
M  CHG  1  23  -1
M  END
>  <UniqueID>  (64) 
64

>  <SMILES>  (64) 
COc1cc(C(=O)N2C[C@H]3C[C@H]3C2)ccc1NC(=O)n1c(C([NH-])=O)cc2ccc(C(F)(F)F)cc21

>  <Energy>  (64) 
372.4996874745192

>  <Genealogy>  (64) 
COc1cc(C(=O)N2CC3CC3C2)ccc1NC(=O)n1c(C([NH-])=O)cc2ccc(C(F)(F)F)cc21 (protonated)
COc1cc(C(=O)N2C[C@H]3C[C@H]3C2)ccc1NC(=O)n1c(C([NH-])=O)cc2ccc(C(F)(F)F)cc21 (chirality)
COc1cc(C(=O)N2C[C@H]3C[C@H]3C2)ccc1NC(=O)n1c(C([NH-])=O)cc2ccc(C(F)(F)F)cc21 (3D coordinates assigned)
COc1cc(C(=O)N2C[C@H]3C[C@H]3C2)ccc1NC(=O)n1c(C([NH-])=O)cc2ccc(C(F)(F)F)cc21 (nonaromatic ring conformer: 372.4996874745192 kcal/mol)

>  <smiles>  (64) 
COc1cc(C(=O)N2CC3CC3C2)ccc1NC(=O)n1c(C(N)=O)cc2ccc(C(F)(F)F)cc21

>  <score_type>  (64) 
oracle

>  <origin>  (64) 
adg

>  <m_score__min__energy>  (64) 
-10.529999999999999

>  <m_primary>  (64) 
energy

$$$$
64:0
     RDKit          3D

 52 54  0  0  0  0  0  0  0  0999 V2000
  148.3750  159.7110  133.7310 C   0  0  0  0  0  0  0  0  0  0  0  0
  147.3340  158.7440  133.3690 N   0  0  0  0  0  0  0  0  0  0  0  0
  147.3710  157.4110  133.9190 C   0  0  0  0  0  0  0  0  0  0  0  0
  148.1940  157.1350  134.8360 O   0  0  0  0  0  0  0  0  0  0  0  0
  146.4790  156.3950  133.4240 N   0  0  0  0  0  0  0  0  0  0  0  0
  146.3370  155.0930  134.0130 C   0  0  0  0  0  0  0  0  0  0  0  0
  147.0620  154.7410  134.9820 O   0  0  0  0  0  0  0  0  0  0  0  0
  145.3800  154.1660  133.4750 N   0  0  0  0  0  0  0  0  0  0  0  0
  145.6220  152.9490  132.9130 C   0  0  0  0  0  0  0  0  0  0  0  0
  146.9540  152.3870  132.6080 C   0  0  0  0  0  0  0  0  0  0  0  0
  147.0730  151.0320  132.1790 N   0  0  0  0  0  0  0  0  0  0  0  0
  147.9880  153.1000  132.6930 O   0  0  0  0  0  0  0  0  0  0  0  0
  144.4240  152.3210  132.5770 C   0  0  0  0  0  0  0  0  0  0  0  0
  143.4350  153.2050  132.9480 C   0  0  0  0  0  0  0  0  0  0  0  0
  142.0560  153.0950  132.8480 C   0  0  0  0  0  0  0  0  0  0  0  0
  141.2700  154.1540  133.3300 C   0  0  0  0  0  0  0  0  0  0  0  0
  141.8640  155.3150  133.9160 C   0  0  0  0  0  0  0  0  0  0  0  0
  141.0370  156.4080  134.4250 N   0  0  0  0  0  0  0  0  0  0  0  0
  141.3470  156.9960  135.7450 C   0  0  0  0  0  0  0  0  0  0  0  0
  140.4500  158.1810  136.1150 C   0  0  0  0  0  0  0  0  0  0  0  0
  139.1260  157.9640  135.6890 O   0  0  0  0  0  0  0  0  0  0  0  0
  139.1000  158.0120  134.2830 C   0  0  0  0  0  0  0  0  0  0  0  0
  139.8240  156.8060  133.6780 C   0  0  0  0  0  0  0  0  0  0  0  0
  143.2850  155.3750  133.9860 C   0  0  0  0  0  0  0  0  0  0  0  0
  144.0360  154.3080  133.4850 C   0  0  0  0  0  0  0  0  0  0  0  0
  146.2290  159.1780  132.5500 C   0  0  0  0  0  0  0  0  0  0  0  0
  146.3850  160.1040  131.7060 O   0  0  0  0  0  0  0  0  0  0  0  0
  144.9800  158.5570  132.6800 O   0  0  0  0  0  0  0  0  0  0  0  0
  144.1360  158.7200  133.8180 C   0  0  0  0  0  0  0  0  0  0  0  0
  143.5280  160.0870  133.8280 C   0  0  0  0  0  0  0  0  0  0  0  0
  144.3580  161.2390  133.6980 N   0  0  0  0  0  0  0  0  0  0  0  0
  142.2810  160.2200  133.9500 O   0  0  0  0  0  0  0  0  0  0  0  0
  148.4477  159.7786  134.8265 H   0  0  0  0  0  0  0  0  0  0  0  0
  149.3404  159.3819  133.3190 H   0  0  0  0  0  0  0  0  0  0  0  0
  148.1179  160.6980  133.3190 H   0  0  0  0  0  0  0  0  0  0  0  0
  145.9250  156.5960  132.5630 H   0  0  0  0  0  0  0  0  0  0  0  0
  146.4750  150.6590  131.4090 H   0  0  0  0  0  0  0  0  0  0  0  0
  144.2957  151.3312  132.1145 H   0  0  0  0  0  0  0  0  0  0  0  0
  141.5909  152.2028  132.4034 H   0  0  0  0  0  0  0  0  0  0  0  0
  140.1745  154.0890  133.2552 H   0  0  0  0  0  0  0  0  0  0  0  0
  141.2252  156.2155  136.5105 H   0  0  0  0  0  0  0  0  0  0  0  0
  142.3781  157.3757  135.6945 H   0  0  0  0  0  0  0  0  0  0  0  0
  140.4595  158.3121  137.2071 H   0  0  0  0  0  0  0  0  0  0  0  0
  140.8357  159.0818  135.6153 H   0  0  0  0  0  0  0  0  0  0  0  0
  138.0540  158.0113  133.9426 H   0  0  0  0  0  0  0  0  0  0  0  0
  139.6122  158.9284  133.9547 H   0  0  0  0  0  0  0  0  0  0  0  0
  139.1286  155.9538  133.6644 H   0  0  0  0  0  0  0  0  0  0  0  0
  140.1481  157.0975  132.6680 H   0  0  0  0  0  0  0  0  0  0  0  0
  143.7849  156.2493  134.4284 H   0  0  0  0  0  0  0  0  0  0  0  0
  143.3343  157.9675  133.7849 H   0  0  0  0  0  0  0  0  0  0  0  0
  144.7388  158.5921  134.7292 H   0  0  0  0  0  0  0  0  0  0  0  0
  145.1370  161.2610  133.0020 H   0  0  0  0  0  0  0  0  0  0  0  0
  1  2  1  0
  2  3  1  0
  3  4  2  0
  3  5  1  0
  5  6  1  0
  6  7  2  0
  6  8  1  0
  8  9  1  0
  9 10  1  0
 10 11  1  0
 10 12  2  0
  9 13  2  0
 13 14  1  0
 14 15  2  0
 15 16  1  0
 16 17  2  0
 17 18  1  0
 18 19  1  0
 19 20  1  0
 20 21  1  0
 21 22  1  0
 22 23  1  0
 17 24  1  0
 24 25  2  0
  2 26  1  0
 26 27  2  0
 26 28  1  0
 28 29  1  0
 29 30  1  0
 30 31  1  0
 30 32  2  0
 25  8  1  0
 25 14  1  0
 23 18  1  0
  1 33  1  0
  1 34  1  0
  1 35  1  0
  5 36  1  0
 11 37  1  0
 13 38  1  0
 15 39  1  0
 16 40  1  0
 19 41  1  0
 19 42  1  0
 20 43  1  0
 20 44  1  0
 22 45  1  0
 22 46  1  0
 23 47  1  0
 23 48  1  0
 24 49  1  0
 29 50  1  0
 29 51  1  0
 31 52  1  0
M  CHG  2  11  -1  31  -1
M  END
>  <UniqueID>  (65) 
65

>  <SMILES>  (65) 
CN(C(=O)NC(=O)n1c(C([NH-])=O)cc2ccc(N3CCOCC3)cc21)C(=O)OCC([NH-])=O

>  <Energy>  (65) 
99.13971009415305

>  <Genealogy>  (65) 
CN(C(=O)NC(=O)n1c(C([NH-])=O)cc2ccc(N3CCOCC3)cc21)C(=O)OCC([NH-])=O (protonated)
CN(C(=O)NC(=O)n1c(C([NH-])=O)cc2ccc(N3CCOCC3)cc21)C(=O)OCC([NH-])=O (3D coordinates assigned)
CN(C(=O)NC(=O)n1c(C([NH-])=O)cc2ccc(N3CCOCC3)cc21)C(=O)OCC([NH-])=O (nonaromatic ring conformer: 99.13971009415305 kcal/mol)

>  <smiles>  (65) 
CN(C(=O)NC(=O)n1c(C(N)=O)cc2ccc(N3CCOCC3)cc21)C(=O)OCC(N)=O

>  <score_type>  (65) 
oracle

>  <origin>  (65) 
adg

>  <m_score__min__energy>  (65) 
-8.1400000000000006

>  <m_primary>  (65) 
energy

$$$$
65:0
     RDKit          3D

 84 86  0  0  0  0  0  0  0  0999 V2000
  144.3150  154.5000  130.5530 C   0  0  0  0  0  0  0  0  0  0  0  0
  144.9370  154.2370  131.8490 N   0  0  0  0  0  0  0  0  0  0  0  0
  145.4960  155.3270  132.6000 C   0  0  0  0  0  0  0  0  0  0  0  0
  144.8840  155.7790  133.6070 O   0  0  0  0  0  0  0  0  0  0  0  0
  146.7050  155.9060  132.1900 O   0  0  0  0  0  0  0  0  0  0  0  0
  147.7330  156.3080  133.0930 C   0  0  0  0  0  0  0  0  0  0  0  0
  148.9090  155.5370  132.8730 O   0  0  0  0  0  0  0  0  0  0  0  0
  148.8960  154.1430  132.8210 C   0  0  0  0  0  0  0  0  0  0  0  0
  149.6090  153.5220  131.9850 O   0  0  0  0  0  0  0  0  0  0  0  0
  148.0290  153.3880  133.7760 C   0  0  0  0  0  0  0  0  0  0  0  0
  148.1580  153.9070  135.1330 N   0  0  0  0  0  0  0  0  0  0  0  0
  147.0670  154.0660  136.0420 C   0  0  0  0  0  0  0  0  0  0  0  0
  146.3210  155.0710  135.9230 O   0  0  0  0  0  0  0  0  0  0  0  0
  146.8480  153.1170  137.0560 O   0  0  0  0  0  0  0  0  0  0  0  0
  147.8370  152.6010  137.9600 C   0  0  0  0  0  0  0  0  0  0  0  0
  148.5620  153.7480  138.6870 C   0  0  0  0  0  0  0  0  0  0  0  0
  148.8620  151.8230  137.1210 C   0  0  0  0  0  0  0  0  0  0  0  0
  147.1930  151.6410  138.9760 C   0  0  0  0  0  0  0  0  0  0  0  0
  144.5990  153.0130  132.5140 C   0  0  0  0  0  0  0  0  0  0  0  0
  145.5200  152.2290  132.8660 O   0  0  0  0  0  0  0  0  0  0  0  0
  143.2340  152.7180  132.8570 N   0  0  0  0  0  0  0  0  0  0  0  0
  142.6840  151.3770  132.6160 C   0  0  0  0  0  0  0  0  0  0  0  0
  141.1640  151.3470  132.8210 C   0  0  0  0  0  0  0  0  0  0  0  0
  140.5230  150.5150  131.7770 N   0  0  0  0  0  0  0  0  0  0  0  0
  139.1260  150.1870  132.1170 C   0  0  0  0  0  0  0  0  0  0  0  0
  138.5130  149.2500  131.0560 C   0  0  0  0  0  0  0  0  0  0  0  0
  139.3920  149.0680  129.9620 O   0  0  0  0  0  0  0  0  0  0  0  0
  140.5910  148.4570  130.4070 C   0  0  0  0  0  0  0  0  0  0  0  0
  141.2740  149.2710  131.5260 C   0  0  0  0  0  0  0  0  0  0  0  0
  142.4210  153.7380  133.5370 C   0  0  0  0  0  0  0  0  0  0  0  0
  143.0230  154.1310  134.8610 C   0  0  0  0  0  0  0  0  0  0  0  0
  144.1700  153.7120  135.1800 O   0  0  0  0  0  0  0  0  0  0  0  0
  142.2440  154.8560  135.8280 N   0  0  0  0  0  0  0  0  0  0  0  0
  142.3220  154.8020  137.1880 C   0  0  0  0  0  0  0  0  0  0  0  0
  143.0800  153.8100  137.9720 C   0  0  0  0  0  0  0  0  0  0  0  0
  144.4970  153.6990  137.8460 N   0  0  0  0  0  0  0  0  0  0  0  0
  142.4590  153.0050  138.7180 O   0  0  0  0  0  0  0  0  0  0  0  0
  141.4900  155.7580  137.7660 C   0  0  0  0  0  0  0  0  0  0  0  0
  140.8780  156.3910  136.7090 C   0  0  0  0  0  0  0  0  0  0  0  0
  139.9470  157.4230  136.7060 C   0  0  0  0  0  0  0  0  0  0  0  0
  139.4860  157.8910  135.4640 C   0  0  0  0  0  0  0  0  0  0  0  0
  139.9500  157.3150  134.2540 C   0  0  0  0  0  0  0  0  0  0  0  0
  139.4780  157.8660  132.9310 C   0  0  0  0  0  0  0  0  0  0  0  0
  139.1210  156.8180  132.1010 F   0  0  0  0  0  0  0  0  0  0  0  0
  140.4880  158.5990  132.3300 F   0  0  0  0  0  0  0  0  0  0  0  0
  138.3850  158.6990  133.1050 F   0  0  0  0  0  0  0  0  0  0  0  0
  140.9210  156.2850  134.3000 C   0  0  0  0  0  0  0  0  0  0  0  0
  141.3480  155.8280  135.5510 C   0  0  0  0  0  0  0  0  0  0  0  0
  143.3118  154.9242  130.7071 H   0  0  0  0  0  0  0  0  0  0  0  0
  144.9323  155.2141  129.9882 H   0  0  0  0  0  0  0  0  0  0  0  0
  144.2327  153.5597  129.9882 H   0  0  0  0  0  0  0  0  0  0  0  0
  147.9610  157.3722  132.9336 H   0  0  0  0  0  0  0  0  0  0  0  0
  147.3870  156.1488  134.1250 H   0  0  0  0  0  0  0  0  0  0  0  0
  146.9804  153.4782  133.4561 H   0  0  0  0  0  0  0  0  0  0  0  0
  148.3470  152.3350  133.7754 H   0  0  0  0  0  0  0  0  0  0  0  0
  148.4730  153.6072  139.7743 H   0  0  0  0  0  0  0  0  0  0  0  0
  149.6247  153.7483  138.4031 H   0  0  0  0  0  0  0  0  0  0  0  0
  148.1063  154.7081  138.4031 H   0  0  0  0  0  0  0  0  0  0  0  0
  149.5578  151.2948  137.7895 H   0  0  0  0  0  0  0  0  0  0  0  0
  148.3381  151.0931  136.4864 H   0  0  0  0  0  0  0  0  0  0  0  0
  149.4241  152.5239  136.4864 H   0  0  0  0  0  0  0  0  0  0  0  0
  147.4210  151.9808  139.9970 H   0  0  0  0  0  0  0  0  0  0  0  0
  146.1030  151.6284  138.8286 H   0  0  0  0  0  0  0  0  0  0  0  0
  147.5947  150.6277  138.8286 H   0  0  0  0  0  0  0  0  0  0  0  0
  142.9111  151.0782  131.5820 H   0  0  0  0  0  0  0  0  0  0  0  0
  143.1427  150.6818  133.3345 H   0  0  0  0  0  0  0  0  0  0  0  0
  140.9393  150.9241  133.8113 H   0  0  0  0  0  0  0  0  0  0  0  0
  140.7725  152.3727  132.7528 H   0  0  0  0  0  0  0  0  0  0  0  0
  139.1003  149.6885  133.0972 H   0  0  0  0  0  0  0  0  0  0  0  0
  138.5411  151.1181  132.1473 H   0  0  0  0  0  0  0  0  0  0  0  0
  138.3073  148.2726  131.5169 H   0  0  0  0  0  0  0  0  0  0  0  0
  137.5846  149.7074  130.6833 H   0  0  0  0  0  0  0  0  0  0  0  0
  140.3568  147.4530  130.7906 H   0  0  0  0  0  0  0  0  0  0  0  0
  141.2831  148.4055  129.5536 H   0  0  0  0  0  0  0  0  0  0  0  0
  141.3023  148.6707  132.4473 H   0  0  0  0  0  0  0  0  0  0  0  0
  142.2977  149.5248  131.2136 H   0  0  0  0  0  0  0  0  0  0  0  0
  142.3556  154.6291  132.8954 H   0  0  0  0  0  0  0  0  0  0  0  0
  141.4225  153.3158  133.7235 H   0  0  0  0  0  0  0  0  0  0  0  0
  145.0140  154.2320  137.1130 H   0  0  0  0  0  0  0  0  0  0  0  0
  145.0270  153.0110  138.4290 H   0  0  0  0  0  0  0  0  0  0  0  0
  141.3519  155.9629  138.8379 H   0  0  0  0  0  0  0  0  0  0  0  0
  139.5822  157.8600  137.6473 H   0  0  0  0  0  0  0  0  0  0  0  0
  138.7567  158.7138  135.4298 H   0  0  0  0  0  0  0  0  0  0  0  0
  141.3296  155.8547  133.3738 H   0  0  0  0  0  0  0  0  0  0  0  0
  1  2  1  0
  2  3  1  0
  3  4  2  0
  3  5  1  0
  5  6  1  0
  6  7  1  0
  7  8  1  0
  8  9  2  0
  8 10  1  0
 10 11  1  0
 11 12  1  0
 12 13  2  0
 12 14  1  0
 14 15  1  0
 15 16  1  0
 15 17  1  0
 15 18  1  0
  2 19  1  0
 19 20  2  0
 19 21  1  0
 21 22  1  0
 22 23  1  0
 23 24  1  0
 24 25  1  0
 25 26  1  0
 26 27  1  0
 27 28  1  0
 28 29  1  0
 21 30  1  0
 30 31  1  0
 31 32  2  0
 31 33  1  0
 33 34  1  0
 34 35  1  0
 35 36  1  0
 35 37  2  0
 34 38  2  0
 38 39  1  0
 39 40  2  0
 40 41  1  0
 41 42  2  0
 42 43  1  0
 43 44  1  0
 43 45  1  0
 43 46  1  0
 42 47  1  0
 47 48  2  0
 29 24  1  0
 48 33  1  0
 48 39  1  0
  1 49  1  0
  1 50  1  0
  1 51  1  0
  6 52  1  0
  6 53  1  0
 10 54  1  0
 10 55  1  0
 16 56  1  0
 16 57  1  0
 16 58  1  0
 17 59  1  0
 17 60  1  0
 17 61  1  0
 18 62  1  0
 18 63  1  0
 18 64  1  0
 22 65  1  0
 22 66  1  0
 23 67  1  0
 23 68  1  0
 25 69  1  0
 25 70  1  0
 26 71  1  0
 26 72  1  0
 28 73  1  0
 28 74  1  0
 29 75  1  0
 29 76  1  0
 30 77  1  0
 30 78  1  0
 36 79  1  0
 36 80  1  0
 38 81  1  0
 40 82  1  0
 41 83  1  0
 47 84  1  0
M  CHG  1  11  -1
M  END
>  <UniqueID>  (66) 
66

>  <SMILES>  (66) 
CN(C(=O)OCOC(=O)C[N-]C(=O)OC(C)(C)C)C(=O)N(CCN1CCOCC1)CC(=O)n1c(C(N)=O)cc2ccc(C(F)(F)F)cc21

>  <Energy>  (66) 
127.96985146617655

>  <Genealogy>  (66) 
CN(C(=O)OCOC(=O)C[N-]C(=O)OC(C)(C)C)C(=O)N(CCN1CCOCC1)CC(=O)n1c(C(N)=O)cc2ccc(C(F)(F)F)cc21 (protonated)
CN(C(=O)OCOC(=O)C[N-]C(=O)OC(C)(C)C)C(=O)N(CCN1CCOCC1)CC(=O)n1c(C(N)=O)cc2ccc(C(F)(F)F)cc21 (3D coordinates assigned)
CN(C(=O)OCOC(=O)C[N-]C(=O)OC(C)(C)C)C(=O)N(CCN1CCOCC1)CC(=O)n1c(C(N)=O)cc2ccc(C(F)(F)F)cc21 (nonaromatic ring conformer: 127.96985146617655 kcal/mol)

>  <smiles>  (66) 
CN(C(=O)OCOC(=O)CNC(=O)OC(C)(C)C)C(=O)N(CCN1CCOCC1)CC(=O)n1c(C(N)=O)cc2ccc(C(F)(F)F)cc21

>  <score_type>  (66) 
oracle

>  <origin>  (66) 
adg

>  <m_score__min__energy>  (66) 
-9.9199999999999999

>  <m_primary>  (66) 
energy

$$$$
66:0
     RDKit          3D

 56 57  0  0  0  0  0  0  0  0999 V2000
  146.4630  156.0190  132.6300 C   0  0  0  0  0  0  0  0  0  0  0  0
  145.5410  157.0870  133.1330 C   0  0  0  0  0  0  0  0  0  0  0  0
  145.9470  158.4430  133.0890 C   0  0  0  0  0  0  0  0  0  0  0  0
  145.1130  159.4550  133.5910 C   0  0  0  0  0  0  0  0  0  0  0  0
  143.8810  159.0820  134.1220 C   0  0  0  0  0  0  0  0  0  0  0  0
  142.9070  159.8500  134.7120 C   0  0  0  0  0  0  0  0  0  0  0  0
  141.9140  158.9540  135.1060 C   0  0  0  0  0  0  0  0  0  0  0  0
  140.6760  159.3500  135.8220 C   0  0  0  0  0  0  0  0  0  0  0  0
  139.5370  158.4880  135.8560 N   0  0  0  0  0  0  0  0  0  0  0  0
  140.6100  160.4600  136.4100 O   0  0  0  0  0  0  0  0  0  0  0  0
  142.2490  157.6820  134.7400 N   0  0  0  0  0  0  0  0  0  0  0  0
  141.5270  156.4690  135.0300 C   0  0  0  0  0  0  0  0  0  0  0  0
  141.1040  156.2770  136.2040 O   0  0  0  0  0  0  0  0  0  0  0  0
  141.3240  155.4460  134.0270 N   0  0  0  0  0  0  0  0  0  0  0  0
  142.1570  154.2300  133.9750 C   0  0  0  0  0  0  0  0  0  0  0  0
  141.7590  153.2970  132.8120 C   0  0  0  0  0  0  0  0  0  0  0  0
  141.0020  152.0400  133.2670 C   0  0  0  0  0  0  0  0  0  0  0  0
  140.9760  150.9850  132.2320 N   0  0  0  0  0  0  0  0  0  0  0  0
  139.6570  150.3360  132.1660 C   0  0  0  0  0  0  0  0  0  0  0  0
  141.9970  149.9740  132.5480 C   0  0  0  0  0  0  0  0  0  0  0  0
  140.2600  155.6250  133.0240 C   0  0  0  0  0  0  0  0  0  0  0  0
  139.4420  156.8450  133.3230 C   0  0  0  0  0  0  0  0  0  0  0  0
  138.2580  156.7150  133.7360 O   0  0  0  0  0  0  0  0  0  0  0  0
  139.9870  158.1150  133.1250 O   0  0  0  0  0  0  0  0  0  0  0  0
  140.0770  158.7090  131.8340 C   0  0  0  0  0  0  0  0  0  0  0  0
  138.8480  159.5040  131.5530 C   0  0  0  0  0  0  0  0  0  0  0  0
  137.5630  158.9080  131.6960 N   0  0  0  0  0  0  0  0  0  0  0  0
  138.9430  160.7030  131.1780 O   0  0  0  0  0  0  0  0  0  0  0  0
  143.4700  157.7750  134.1660 C   0  0  0  0  0  0  0  0  0  0  0  0
  144.2990  156.7430  133.7070 C   0  0  0  0  0  0  0  0  0  0  0  0
  146.9163  155.4940  133.4838 H   0  0  0  0  0  0  0  0  0  0  0  0
  145.8951  155.3025  132.0184 H   0  0  0  0  0  0  0  0  0  0  0  0
  147.2548  156.4763  132.0184 H   0  0  0  0  0  0  0  0  0  0  0  0
  146.9243  158.7058  132.6578 H   0  0  0  0  0  0  0  0  0  0  0  0
  145.4234  160.5100  133.5656 H   0  0  0  0  0  0  0  0  0  0  0  0
  142.9098  160.9419  134.8455 H   0  0  0  0  0  0  0  0  0  0  0  0
  139.4970  157.6120  135.2900 H   0  0  0  0  0  0  0  0  0  0  0  0
  138.7060  158.7450  136.4330 H   0  0  0  0  0  0  0  0  0  0  0  0
  143.2084  154.5266  133.8466 H   0  0  0  0  0  0  0  0  0  0  0  0
  142.0071  153.6789  134.9151 H   0  0  0  0  0  0  0  0  0  0  0  0
  141.1158  153.8592  132.1190 H   0  0  0  0  0  0  0  0  0  0  0  0
  142.6906  152.9589  132.3348 H   0  0  0  0  0  0  0  0  0  0  0  0
  141.4932  151.6393  134.1660 H   0  0  0  0  0  0  0  0  0  0  0  0
  139.9613  152.3333  133.4693 H   0  0  0  0  0  0  0  0  0  0  0  0
  139.2866  150.1537  133.1856 H   0  0  0  0  0  0  0  0  0  0  0  0
  138.9527  150.9904  131.6315 H   0  0  0  0  0  0  0  0  0  0  0  0
  139.7457  149.3787  131.6315 H   0  0  0  0  0  0  0  0  0  0  0  0
  142.0932  149.8788  133.6396 H   0  0  0  0  0  0  0  0  0  0  0  0
  141.6987  149.0055  132.1203 H   0  0  0  0  0  0  0  0  0  0  0  0
  142.9626  150.2819  132.1203 H   0  0  0  0  0  0  0  0  0  0  0  0
  140.7173  155.7330  132.0294 H   0  0  0  0  0  0  0  0  0  0  0  0
  139.6007  154.7449  133.0506 H   0  0  0  0  0  0  0  0  0  0  0  0
  140.9552  159.3704  131.7975 H   0  0  0  0  0  0  0  0  0  0  0  0
  140.1758  157.9165  131.0775 H   0  0  0  0  0  0  0  0  0  0  0  0
  137.4320  158.0340  132.2540 H   0  0  0  0  0  0  0  0  0  0  0  0
  143.9893  155.6909  133.7920 H   0  0  0  0  0  0  0  0  0  0  0  0
  1  2  1  0
  2  3  2  0
  3  4  1  0
  4  5  2  0
  5  6  1  0
  6  7  2  0
  7  8  1  0
  8  9  1  0
  8 10  2  0
  7 11  1  0
 11 12  1  0
 12 13  2  0
 12 14  1  0
 14 15  1  0
 15 16  1  0
 16 17  1  0
 17 18  1  0
 18 19  1  0
 18 20  1  0
 14 21  1  0
 21 22  1  0
 22 23  2  0
 22 24  1  0
 24 25  1  0
 25 26  1  0
 26 27  1  0
 26 28  2  0
 11 29  1  0
 29 30  2  0
 30  2  1  0
 29  5  1  0
  1 31  1  0
  1 32  1  0
  1 33  1  0
  3 34  1  0
  4 35  1  0
  6 36  1  0
  9 37  1  0
  9 38  1  0
 15 39  1  0
 15 40  1  0
 16 41  1  0
 16 42  1  0
 17 43  1  0
 17 44  1  0
 19 45  1  0
 19 46  1  0
 19 47  1  0
 20 48  1  0
 20 49  1  0
 20 50  1  0
 21 51  1  0
 21 52  1  0
 25 53  1  0
 25 54  1  0
 27 55  1  0
 30 56  1  0
M  CHG  1  27  -1
M  END
>  <UniqueID>  (67) 
67

>  <SMILES>  (67) 
Cc1ccc2cc(C(N)=O)n(C(=O)N(CCCN(C)C)CC(=O)OCC([NH-])=O)c2c1

>  <Energy>  (67) 
84.50427927196529

>  <Genealogy>  (67) 
Cc1ccc2cc(C(N)=O)n(C(=O)N(CCCN(C)C)CC(=O)OCC([NH-])=O)c2c1 (protonated)
Cc1ccc2cc(C(N)=O)n(C(=O)N(CCCN(C)C)CC(=O)OCC([NH-])=O)c2c1 (3D coordinates assigned)
Cc1ccc2cc(C(N)=O)n(C(=O)N(CCCN(C)C)CC(=O)OCC([NH-])=O)c2c1 (optimized conformer: 84.50427927196529 kcal/mol)

>  <smiles>  (67) 
Cc1ccc2cc(C(N)=O)n(C(=O)N(CCCN(C)C)CC(=O)OCC(N)=O)c2c1

>  <score_type>  (67) 
oracle

>  <origin>  (67) 
adg

>  <m_score__min__energy>  (67) 
-6.7300000000000004

>  <m_primary>  (67) 
energy

$$$$
67:0
     RDKit          3D

 49 50  0  0  0  0  0  0  0  0999 V2000
  139.5220  159.4940  131.0090 C   0  0  0  0  0  0  0  0  0  0  0  0
  139.8150  158.6990  132.2460 C   0  0  0  0  0  0  0  0  0  0  0  0
  138.7900  158.4550  133.1930 C   0  0  0  0  0  0  0  0  0  0  0  0
  139.0560  157.7250  134.3640 C   0  0  0  0  0  0  0  0  0  0  0  0
  140.3580  157.2810  134.5740 C   0  0  0  0  0  0  0  0  0  0  0  0
  140.8780  156.5100  135.5880 C   0  0  0  0  0  0  0  0  0  0  0  0
  142.2240  156.3410  135.2690 C   0  0  0  0  0  0  0  0  0  0  0  0
  143.1680  155.5550  136.0890 C   0  0  0  0  0  0  0  0  0  0  0  0
  144.3910  155.0620  135.5430 N   0  0  0  0  0  0  0  0  0  0  0  0
  142.9100  155.3520  137.3050 O   0  0  0  0  0  0  0  0  0  0  0  0
  142.5260  156.9870  134.1080 N   0  0  0  0  0  0  0  0  0  0  0  0
  143.7570  156.9120  133.3720 C   0  0  0  0  0  0  0  0  0  0  0  0
  143.9700  155.9040  132.6490 O   0  0  0  0  0  0  0  0  0  0  0  0
  144.7540  158.0090  133.4620 C   0  0  0  0  0  0  0  0  0  0  0  0
  144.3290  159.1830  133.6390 O   0  0  0  0  0  0  0  0  0  0  0  0
  146.1800  157.7930  133.3440 N   0  0  0  0  0  0  0  0  0  0  0  0
  147.0710  158.9160  133.6550 C   0  0  0  0  0  0  0  0  0  0  0  0
  146.7560  156.4720  133.0300 C   0  0  0  0  0  0  0  0  0  0  0  0
  147.6380  155.9570  134.1820 C   0  0  0  0  0  0  0  0  0  0  0  0
  146.8260  155.3350  135.2210 N   0  0  0  0  0  0  0  0  0  0  0  0
  147.3580  154.4940  136.2520 C   0  0  0  0  0  0  0  0  0  0  0  0
  148.4840  154.7430  136.7580 O   0  0  0  0  0  0  0  0  0  0  0  0
  146.6110  153.3700  136.7240 N   0  0  0  0  0  0  0  0  0  0  0  0
  146.7080  152.8500  138.0840 C   0  0  0  0  0  0  0  0  0  0  0  0
  145.3300  152.7960  138.7390 C   0  0  0  0  0  0  0  0  0  0  0  0
  144.3810  153.3620  137.8790 O   0  0  0  0  0  0  0  0  0  0  0  0
  141.3700  157.5460  133.6870 C   0  0  0  0  0  0  0  0  0  0  0  0
  141.1260  158.2420  132.4970 C   0  0  0  0  0  0  0  0  0  0  0  0
  139.1545  160.4913  131.2926 H   0  0  0  0  0  0  0  0  0  0  0  0
  140.4410  159.5976  130.4135 H   0  0  0  0  0  0  0  0  0  0  0  0
  138.7556  158.9764  130.4135 H   0  0  0  0  0  0  0  0  0  0  0  0
  137.7762  158.8406  133.0100 H   0  0  0  0  0  0  0  0  0  0  0  0
  138.2596  157.5112  135.0921 H   0  0  0  0  0  0  0  0  0  0  0  0
  140.3449  156.1118  136.4639 H   0  0  0  0  0  0  0  0  0  0  0  0
  144.7290  155.3790  134.6090 H   0  0  0  0  0  0  0  0  0  0  0  0
  145.0170  154.4600  136.1210 H   0  0  0  0  0  0  0  0  0  0  0  0
  147.1570  159.0245  134.7463 H   0  0  0  0  0  0  0  0  0  0  0  0
  148.0656  158.7246  133.2260 H   0  0  0  0  0  0  0  0  0  0  0  0
  146.6585  159.8411  133.2260 H   0  0  0  0  0  0  0  0  0  0  0  0
  145.9384  155.7566  132.8576 H   0  0  0  0  0  0  0  0  0  0  0  0
  147.3826  156.5717  132.1314 H   0  0  0  0  0  0  0  0  0  0  0  0
  148.3484  155.2154  133.7879 H   0  0  0  0  0  0  0  0  0  0  0  0
  148.1767  156.8099  134.6205 H   0  0  0  0  0  0  0  0  0  0  0  0
  147.1337  151.8362  138.0537 H   0  0  0  0  0  0  0  0  0  0  0  0
  147.3544  153.5171  138.6731 H   0  0  0  0  0  0  0  0  0  0  0  0
  145.0617  151.7488  138.9425 H   0  0  0  0  0  0  0  0  0  0  0  0
  145.3510  153.3598  139.6833 H   0  0  0  0  0  0  0  0  0  0  0  0
  144.7730  154.2150  137.5590 H   0  0  0  0  0  0  0  0  0  0  0  0
  141.9358  158.4278  131.7761 H   0  0  0  0  0  0  0  0  0  0  0  0
  1  2  1  0
  2  3  2  0
  3  4  1  0
  4  5  2  0
  5  6  1  0
  6  7  2  0
  7  8  1  0
  8  9  1  0
  8 10  2  0
  7 11  1  0
 11 12  1  0
 12 13  2  0
 12 14  1  0
 14 15  2  0
 14 16  1  0
 16 17  1  0
 16 18  1  0
 18 19  1  0
 19 20  1  0
 20 21  1  0
 21 22  2  0
 21 23  1  0
 23 24  1  0
 24 25  1  0
 25 26  1  0
 11 27  1  0
 27 28  2  0
 28  2  1  0
 27  5  1  0
  1 29  1  0
  1 30  1  0
  1 31  1  0
  3 32  1  0
  4 33  1  0
  6 34  1  0
  9 35  1  0
  9 36  1  0
 17 37  1  0
 17 38  1  0
 17 39  1  0
 18 40  1  0
 18 41  1  0
 19 42  1  0
 19 43  1  0
 24 44  1  0
 24 45  1  0
 25 46  1  0
 25 47  1  0
 26 48  1  0
 28 49  1  0
M  CHG  2  20  -1  23  -1
M  END
>  <UniqueID>  (68) 
68

>  <SMILES>  (68) 
Cc1ccc2cc(C(N)=O)n(C(=O)C(=O)N(C)CC[N-]C(=O)[N-]CCO)c2c1

>  <Energy>  (68) 
82.08831842500913

>  <Genealogy>  (68) 
Cc1ccc2cc(C(N)=O)n(C(=O)C(=O)N(C)CC[N-]C(=O)[N-]CCO)c2c1 (protonated)
Cc1ccc2cc(C(N)=O)n(C(=O)C(=O)N(C)CC[N-]C(=O)[N-]CCO)c2c1 (3D coordinates assigned)
Cc1ccc2cc(C(N)=O)n(C(=O)C(=O)N(C)CC[N-]C(=O)[N-]CCO)c2c1 (optimized conformer: 82.08831842500913 kcal/mol)

>  <smiles>  (68) 
Cc1ccc2cc(C(N)=O)n(C(=O)C(=O)N(C)CCNC(=O)NCCO)c2c1

>  <score_type>  (68) 
oracle

>  <origin>  (68) 
adg

>  <m_score__min__energy>  (68) 
-5.8799999999999999

>  <m_primary>  (68) 
energy

$$$$
68:0
     RDKit          3D

 37 38  0  0  0  0  0  0  0  0999 V2000
  148.3090  160.5310  131.5090 C   0  0  0  0  0  0  0  0  0  0  0  0
  147.8910  159.3640  132.3500 C   0  0  0  0  0  0  0  0  0  0  0  0
  148.8610  158.4430  132.8200 C   0  0  0  0  0  0  0  0  0  0  0  0
  148.4790  157.3240  133.5810 C   0  0  0  0  0  0  0  0  0  0  0  0
  147.1240  157.1480  133.8450 C   0  0  0  0  0  0  0  0  0  0  0  0
  146.4740  156.1520  134.5410 C   0  0  0  0  0  0  0  0  0  0  0  0
  145.1190  156.4770  134.4760 C   0  0  0  0  0  0  0  0  0  0  0  0
  144.0340  155.7070  135.1270 C   0  0  0  0  0  0  0  0  0  0  0  0
  144.3240  154.7110  136.1050 N   0  0  0  0  0  0  0  0  0  0  0  0
  142.8320  155.9230  134.8200 O   0  0  0  0  0  0  0  0  0  0  0  0
  144.9440  157.6230  133.7600 N   0  0  0  0  0  0  0  0  0  0  0  0
  143.7070  158.2770  133.4370 C   0  0  0  0  0  0  0  0  0  0  0  0
  143.0210  157.8470  132.4700 O   0  0  0  0  0  0  0  0  0  0  0  0
  143.2370  159.3980  134.2130 N   0  0  0  0  0  0  0  0  0  0  0  0
  142.4830  159.1450  135.4450 C   0  0  0  0  0  0  0  0  0  0  0  0
  143.5700  160.7760  133.8240 C   0  0  0  0  0  0  0  0  0  0  0  0
  144.9630  161.1480  134.3380 C   0  0  0  0  0  0  0  0  0  0  0  0
  145.1040  162.6310  134.4610 C   0  0  0  0  0  0  0  0  0  0  0  0
  145.9360  163.1230  135.2680 O   0  0  0  0  0  0  0  0  0  0  0  0
  144.2890  163.4730  133.7150 O   0  0  0  0  0  0  0  0  0  0  0  0
  146.1760  158.0270  133.3920 C   0  0  0  0  0  0  0  0  0  0  0  0
  146.5240  159.1440  132.6270 C   0  0  0  0  0  0  0  0  0  0  0  0
  148.6077  161.3648  132.1614 H   0  0  0  0  0  0  0  0  0  0  0  0
  149.1587  160.2397  130.8740 H   0  0  0  0  0  0  0  0  0  0  0  0
  147.4676  160.8454  130.8740 H   0  0  0  0  0  0  0  0  0  0  0  0
  149.9237  158.6055  132.5869 H   0  0  0  0  0  0  0  0  0  0  0  0
  149.2275  156.6103  133.9558 H   0  0  0  0  0  0  0  0  0  0  0  0
  146.9277  155.2841  135.0419 H   0  0  0  0  0  0  0  0  0  0  0  0
  144.4400  154.9350  137.1170 H   0  0  0  0  0  0  0  0  0  0  0  0
  143.1205  159.3589  136.3155 H   0  0  0  0  0  0  0  0  0  0  0  0
  141.5957  159.7947  135.4718 H   0  0  0  0  0  0  0  0  0  0  0  0
  142.1671  158.0917  135.4718 H   0  0  0  0  0  0  0  0  0  0  0  0
  143.5535  160.8581  132.7272 H   0  0  0  0  0  0  0  0  0  0  0  0
  142.8303  161.4617  134.2630 H   0  0  0  0  0  0  0  0  0  0  0  0
  145.1182  160.6877  135.3250 H   0  0  0  0  0  0  0  0  0  0  0  0
  145.7131  160.7803  133.6223 H   0  0  0  0  0  0  0  0  0  0  0  0
  145.7536  159.8331  132.2509 H   0  0  0  0  0  0  0  0  0  0  0  0
  1  2  1  0
  2  3  2  0
  3  4  1  0
  4  5  2  0
  5  6  1  0
  6  7  2  0
  7  8  1  0
  8  9  1  0
  8 10  2  0
  7 11  1  0
 11 12  1  0
 12 13  2  0
 12 14  1  0
 14 15  1  0
 14 16  1  0
 16 17  1  0
 17 18  1  0
 18 19  2  0
 18 20  1  0
 11 21  1  0
 21 22  2  0
 22  2  1  0
 21  5  1  0
  1 23  1  0
  1 24  1  0
  1 25  1  0
  3 26  1  0
  4 27  1  0
  6 28  1  0
  9 29  1  0
 15 30  1  0
 15 31  1  0
 15 32  1  0
 16 33  1  0
 16 34  1  0
 17 35  1  0
 17 36  1  0
 22 37  1  0
M  CHG  2   9  -1  20  -1
M  END
>  <UniqueID>  (69) 
69

>  <SMILES>  (69) 
Cc1ccc2cc(C([NH-])=O)n(C(=O)N(C)CCC(=O)[O-])c2c1

>  <Energy>  (69) 
70.53242901016608

>  <Genealogy>  (69) 
Cc1ccc2cc(C([NH-])=O)n(C(=O)N(C)CCC(=O)[O-])c2c1 (protonated)
Cc1ccc2cc(C([NH-])=O)n(C(=O)N(C)CCC(=O)[O-])c2c1 (3D coordinates assigned)
Cc1ccc2cc(C([NH-])=O)n(C(=O)N(C)CCC(=O)[O-])c2c1 (optimized conformer: 70.53242901016608 kcal/mol)

>  <smiles>  (69) 
Cc1ccc2cc(C(N)=O)n(C(=O)N(C)CCC(=O)O)c2c1

>  <score_type>  (69) 
oracle

>  <origin>  (69) 
adg

>  <m_score__min__energy>  (69) 
-6.4500000000000002

>  <m_primary>  (69) 
energy

$$$$
69:0
     RDKit          3D

 53 54  0  0  0  0  0  0  0  0999 V2000
  143.5430  157.6340  134.5230 N   0  0  0  0  0  0  0  0  0  0  0  0
  143.7400  156.8100  133.3750 C   0  0  0  0  0  0  0  0  0  0  0  0
  142.8750  156.8030  132.4630 O   0  0  0  0  0  0  0  0  0  0  0  0
  144.9700  156.0050  133.2500 C   0  0  0  0  0  0  0  0  0  0  0  0
  146.2490  156.5500  133.2110 C   0  0  0  0  0  0  0  0  0  0  0  0
  147.0940  155.4750  133.0400 C   0  0  0  0  0  0  0  0  0  0  0  0
  148.4820  155.4320  132.9590 C   0  0  0  0  0  0  0  0  0  0  0  0
  149.0960  154.1760  132.8110 C   0  0  0  0  0  0  0  0  0  0  0  0
  148.3220  152.9910  132.7550 C   0  0  0  0  0  0  0  0  0  0  0  0
  149.0140  151.6650  132.5700 C   0  0  0  0  0  0  0  0  0  0  0  0
  149.7240  151.3510  133.7130 F   0  0  0  0  0  0  0  0  0  0  0  0
  149.8870  151.6920  131.4970 F   0  0  0  0  0  0  0  0  0  0  0  0
  148.0710  150.6750  132.3480 F   0  0  0  0  0  0  0  0  0  0  0  0
  146.9130  153.0760  132.8450 C   0  0  0  0  0  0  0  0  0  0  0  0
  146.3300  154.3420  132.9770 C   0  0  0  0  0  0  0  0  0  0  0  0
  145.0210  154.6500  133.1060 N   0  0  0  0  0  0  0  0  0  0  0  0
  143.9340  153.7210  133.2080 C   0  0  0  0  0  0  0  0  0  0  0  0
  144.1320  152.5040  132.9410 O   0  0  0  0  0  0  0  0  0  0  0  0
  142.6380  154.1650  133.6300 N   0  0  0  0  0  0  0  0  0  0  0  0
  141.5250  153.2260  133.7660 C   0  0  0  0  0  0  0  0  0  0  0  0
  141.7420  152.2490  134.9290 C   0  0  0  0  0  0  0  0  0  0  0  0
  141.7280  152.9220  136.2280 N   0  0  0  0  0  0  0  0  0  0  0  0
  142.8720  153.5410  136.8300 C   0  0  0  0  0  0  0  0  0  0  0  0
  143.5300  152.9370  137.7240 O   0  0  0  0  0  0  0  0  0  0  0  0
  143.3410  154.8850  136.3480 C   0  0  0  0  0  0  0  0  0  0  0  0
  142.2510  155.7280  136.0220 O   0  0  0  0  0  0  0  0  0  0  0  0
  141.3380  155.8000  137.1020 C   0  0  0  0  0  0  0  0  0  0  0  0
  140.8420  157.2340  137.2550 C   0  0  0  0  0  0  0  0  0  0  0  0
  141.1300  157.9700  136.0830 O   0  0  0  0  0  0  0  0  0  0  0  0
  139.9470  158.3050  135.3850 C   0  0  0  0  0  0  0  0  0  0  0  0
  139.8740  157.4660  134.1130 C   0  0  0  0  0  0  0  0  0  0  0  0
  140.9170  156.5310  134.0920 O   0  0  0  0  0  0  0  0  0  0  0  0
  142.6440  157.6190  135.0460 H   0  0  0  0  0  0  0  0  0  0  0  0
  146.5263  157.6109  133.2979 H   0  0  0  0  0  0  0  0  0  0  0  0
  149.0812  156.3531  133.0092 H   0  0  0  0  0  0  0  0  0  0  0  0
  150.1917  154.1127  132.7377 H   0  0  0  0  0  0  0  0  0  0  0  0
  146.2905  152.1697  132.8121 H   0  0  0  0  0  0  0  0  0  0  0  0
  142.5230  155.1630  133.9160 H   0  0  0  0  0  0  0  0  0  0  0  0
  140.6002  153.7938  133.9459 H   0  0  0  0  0  0  0  0  0  0  0  0
  141.4558  152.6413  132.8369 H   0  0  0  0  0  0  0  0  0  0  0  0
  140.9410  151.4952  134.9122 H   0  0  0  0  0  0  0  0  0  0  0  0
  142.7314  151.7859  134.8000 H   0  0  0  0  0  0  0  0  0  0  0  0
  143.9367  155.3612  137.1407 H   0  0  0  0  0  0  0  0  0  0  0  0
  143.9451  154.7352  135.4410 H   0  0  0  0  0  0  0  0  0  0  0  0
  140.4837  155.1358  136.9046 H   0  0  0  0  0  0  0  0  0  0  0  0
  141.8410  155.4857  138.0284 H   0  0  0  0  0  0  0  0  0  0  0  0
  139.7551  157.2280  137.4241 H   0  0  0  0  0  0  0  0  0  0  0  0
  141.3487  157.7032  138.1112 H   0  0  0  0  0  0  0  0  0  0  0  0
  139.0721  158.0947  136.0176 H   0  0  0  0  0  0  0  0  0  0  0  0
  139.9542  159.3745  135.1280 H   0  0  0  0  0  0  0  0  0  0  0  0
  138.9103  156.9366  134.0812 H   0  0  0  0  0  0  0  0  0  0  0  0
  139.9666  158.1281  133.2394 H   0  0  0  0  0  0  0  0  0  0  0  0
  141.7420  157.0210  134.3400 H   0  0  0  0  0  0  0  0  0  0  0  0
  1  2  1  0
  2  3  2  0
  2  4  1  0
  4  5  2  0
  5  6  1  0
  6  7  2  0
  7  8  1  0
  8  9  2  0
  9 10  1  0
 10 11  1  0
 10 12  1  0
 10 13  1  0
  9 14  1  0
 14 15  2  0
 15 16  1  0
 16 17  1  0
 17 18  2  0
 17 19  1  0
 19 20  1  0
 20 21  1  0
 21 22  1  0
 22 23  1  0
 23 24  2  0
 23 25  1  0
 25 26  1  0
 26 27  1  0
 27 28  1  0
 28 29  1  0
 29 30  1  0
 30 31  1  0
 31 32  1  0
 16  4  1  0
 15  6  1  0
  1 33  1  0
  5 34  1  0
  7 35  1  0
  8 36  1  0
 14 37  1  0
 19 38  1  0
 20 39  1  0
 20 40  1  0
 21 41  1  0
 21 42  1  0
 25 43  1  0
 25 44  1  0
 27 45  1  0
 27 46  1  0
 28 47  1  0
 28 48  1  0
 30 49  1  0
 30 50  1  0
 31 51  1  0
 31 52  1  0
 32 53  1  0
M  CHG  2   1  -1  22  -1
M  END
>  <UniqueID>  (70) 
70

>  <SMILES>  (70) 
[NH-]C(=O)c1cc2ccc(C(F)(F)F)cc2n1C(=O)NCC[N-]C(=O)COCCOCCO

>  <Energy>  (70) 
86.48766196109065

>  <Genealogy>  (70) 
[NH-]C(=O)c1cc2ccc(C(F)(F)F)cc2n1C(=O)NCC[N-]C(=O)COCCOCCO (protonated)
[NH-]C(=O)c1cc2ccc(C(F)(F)F)cc2n1C(=O)NCC[N-]C(=O)COCCOCCO (3D coordinates assigned)
[NH-]C(=O)c1cc2ccc(C(F)(F)F)cc2n1C(=O)NCC[N-]C(=O)COCCOCCO (optimized conformer: 86.48766196109065 kcal/mol)

>  <smiles>  (70) 
NC(=O)c1cc2ccc(C(F)(F)F)cc2n1C(=O)NCCNC(=O)COCCOCCO

>  <score_type>  (70) 
oracle

>  <origin>  (70) 
adg

>  <m_score__min__energy>  (70) 
-5.5300000000000002

>  <m_primary>  (70) 
energy

$$$$
70:0
     RDKit          3D

 41 42  0  0  0  0  0  0  0  0999 V2000
  148.4420  154.9140  132.7800 C   0  0  0  0  0  0  0  0  0  0  0  0
  147.9450  156.3140  132.9850 C   0  0  0  0  0  0  0  0  0  0  0  0
  148.8560  157.3980  132.9800 C   0  0  0  0  0  0  0  0  0  0  0  0
  148.3970  158.7190  133.1200 C   0  0  0  0  0  0  0  0  0  0  0  0
  147.0270  158.9220  133.2580 C   0  0  0  0  0  0  0  0  0  0  0  0
  146.3130  160.0930  133.3710 C   0  0  0  0  0  0  0  0  0  0  0  0
  144.9770  159.7050  133.4510 C   0  0  0  0  0  0  0  0  0  0  0  0
  143.8650  160.6540  133.6600 C   0  0  0  0  0  0  0  0  0  0  0  0
  142.5130  160.2640  133.4320 N   0  0  0  0  0  0  0  0  0  0  0  0
  144.1070  161.8140  134.0930 O   0  0  0  0  0  0  0  0  0  0  0  0
  144.8690  158.3490  133.3830 N   0  0  0  0  0  0  0  0  0  0  0  0
  143.6660  157.5660  133.3240 C   0  0  0  0  0  0  0  0  0  0  0  0
  142.9200  157.6360  132.3090 O   0  0  0  0  0  0  0  0  0  0  0  0
  143.3180  156.7480  134.4040 O   0  0  0  0  0  0  0  0  0  0  0  0
  142.4130  157.1440  135.4330 C   0  0  0  0  0  0  0  0  0  0  0  0
  140.9650  157.0950  134.9380 C   0  0  0  0  0  0  0  0  0  0  0  0
  140.7430  158.0750  133.8750 N   0  0  0  0  0  0  0  0  0  0  0  0
  139.4910  158.1920  133.1820 C   0  0  0  0  0  0  0  0  0  0  0  0
  138.5540  157.3860  133.4350 O   0  0  0  0  0  0  0  0  0  0  0  0
  139.2920  159.2490  132.1720 C   0  0  0  0  0  0  0  0  0  0  0  0
  140.1820  160.1250  132.0010 O   0  0  0  0  0  0  0  0  0  0  0  0
  138.0090  159.3370  131.3920 C   0  0  0  0  0  0  0  0  0  0  0  0
  137.7210  160.6680  131.0510 O   0  0  0  0  0  0  0  0  0  0  0  0
  146.1330  157.8830  133.2660 C   0  0  0  0  0  0  0  0  0  0  0  0
  146.5600  156.5600  133.1090 C   0  0  0  0  0  0  0  0  0  0  0  0
  148.6109  154.4381  133.7572 H   0  0  0  0  0  0  0  0  0  0  0  0
  147.6934  154.3380  132.2162 H   0  0  0  0  0  0  0  0  0  0  0  0
  149.3862  154.9390  132.2162 H   0  0  0  0  0  0  0  0  0  0  0  0
  149.9328  157.2044  132.8655 H   0  0  0  0  0  0  0  0  0  0  0  0
  149.0987  159.5661  133.1205 H   0  0  0  0  0  0  0  0  0  0  0  0
  146.7122  161.1178  133.3934 H   0  0  0  0  0  0  0  0  0  0  0  0
  142.2510  159.7020  132.5940 H   0  0  0  0  0  0  0  0  0  0  0  0
  142.5233  156.4640  136.2906 H   0  0  0  0  0  0  0  0  0  0  0  0
  142.6480  158.1773  135.7282 H   0  0  0  0  0  0  0  0  0  0  0  0
  140.7510  156.0882  134.5500 H   0  0  0  0  0  0  0  0  0  0  0  0
  140.2978  157.3324  135.7797 H   0  0  0  0  0  0  0  0  0  0  0  0
  141.5450  158.6820  133.5940 H   0  0  0  0  0  0  0  0  0  0  0  0
  138.1053  158.7421  130.4718 H   0  0  0  0  0  0  0  0  0  0  0  0
  137.1906  158.9489  132.0162 H   0  0  0  0  0  0  0  0  0  0  0  0
  138.3510  161.2350  131.5690 H   0  0  0  0  0  0  0  0  0  0  0  0
  145.8355  155.7327  133.0828 H   0  0  0  0  0  0  0  0  0  0  0  0
  1  2  1  0
  2  3  2  0
  3  4  1  0
  4  5  2  0
  5  6  1  0
  6  7  2  0
  7  8  1  0
  8  9  1  0
  8 10  2  0
  7 11  1  0
 11 12  1  0
 12 13  2  0
 12 14  1  0
 14 15  1  0
 15 16  1  0
 16 17  1  0
 17 18  1  0
 18 19  2  0
 18 20  1  0
 20 21  2  0
 20 22  1  0
 22 23  1  0
 11 24  1  0
 24 25  2  0
 25  2  1  0
 24  5  1  0
  1 26  1  0
  1 27  1  0
  1 28  1  0
  3 29  1  0
  4 30  1  0
  6 31  1  0
  9 32  1  0
 15 33  1  0
 15 34  1  0
 16 35  1  0
 16 36  1  0
 17 37  1  0
 22 38  1  0
 22 39  1  0
 23 40  1  0
 25 41  1  0
M  CHG  1   9  -1
M  END
>  <UniqueID>  (71) 
71

>  <SMILES>  (71) 
Cc1ccc2cc(C([NH-])=O)n(C(=O)OCCNC(=O)C(=O)CO)c2c1

>  <Energy>  (71) 
72.65081420079579

>  <Genealogy>  (71) 
Cc1ccc2cc(C([NH-])=O)n(C(=O)OCCNC(=O)C(=O)CO)c2c1 (protonated)
Cc1ccc2cc(C([NH-])=O)n(C(=O)OCCNC(=O)C(=O)CO)c2c1 (3D coordinates assigned)
Cc1ccc2cc(C([NH-])=O)n(C(=O)OCCNC(=O)C(=O)CO)c2c1 (optimized conformer: 72.65081420079579 kcal/mol)

>  <smiles>  (71) 
Cc1ccc2cc(C(N)=O)n(C(=O)OCCNC(=O)C(=O)CO)c2c1

>  <score_type>  (71) 
oracle

>  <origin>  (71) 
adg

>  <m_score__min__energy>  (71) 
-6.2699999999999996

>  <m_primary>  (71) 
energy

$$$$
71:0
     RDKit          3D

 45 46  0  0  0  0  0  0  0  0999 V2000
  139.0940  147.0100  129.7010 C   0  0  0  0  0  0  0  0  0  0  0  0
  139.3530  147.7750  130.9110 N   0  0  0  0  0  0  0  0  0  0  0  0
  139.4100  149.2040  130.9260 C   0  0  0  0  0  0  0  0  0  0  0  0
  139.4690  149.8530  129.8460 O   0  0  0  0  0  0  0  0  0  0  0  0
  139.4240  149.9330  132.2340 C   0  0  0  0  0  0  0  0  0  0  0  0
  140.7850  150.5190  132.4930 C   0  0  0  0  0  0  0  0  0  0  0  0
  141.9550  149.8270  132.0900 C   0  0  0  0  0  0  0  0  0  0  0  0
  143.2280  150.3640  132.3490 C   0  0  0  0  0  0  0  0  0  0  0  0
  143.2990  151.5870  133.0100 C   0  0  0  0  0  0  0  0  0  0  0  0
  144.3960  152.3070  133.4240 C   0  0  0  0  0  0  0  0  0  0  0  0
  143.8790  153.4370  134.0570 C   0  0  0  0  0  0  0  0  0  0  0  0
  144.7170  154.5310  134.5910 C   0  0  0  0  0  0  0  0  0  0  0  0
  145.4140  154.3830  135.8240 N   0  0  0  0  0  0  0  0  0  0  0  0
  144.7850  155.6250  133.9720 O   0  0  0  0  0  0  0  0  0  0  0  0
  142.5170  153.4140  134.0340 N   0  0  0  0  0  0  0  0  0  0  0  0
  141.6140  154.3350  134.6700 C   0  0  0  0  0  0  0  0  0  0  0  0
  140.6120  154.7510  134.0290 O   0  0  0  0  0  0  0  0  0  0  0  0
  141.8610  154.8150  136.0070 N   0  0  0  0  0  0  0  0  0  0  0  0
  141.9150  156.2590  136.2710 C   0  0  0  0  0  0  0  0  0  0  0  0
  140.6150  156.7340  136.8400 C   0  0  0  0  0  0  0  0  0  0  0  0
  140.2640  156.3850  137.9960 O   0  0  0  0  0  0  0  0  0  0  0  0
  139.7910  157.5680  136.0940 O   0  0  0  0  0  0  0  0  0  0  0  0
  142.1210  153.9000  137.0880 C   0  0  0  0  0  0  0  0  0  0  0  0
  143.3090  153.5960  137.3770 O   0  0  0  0  0  0  0  0  0  0  0  0
  141.0090  153.3940  137.9590 C   0  0  0  0  0  0  0  0  0  0  0  0
  141.0660  151.5800  138.0290 P   0  0  0  0  0  0  0  0  0  0  0  0
  142.4150  151.1400  138.5520 O   0  0  0  0  0  0  0  0  0  0  0  0
  140.8330  150.9440  136.4780 O   0  0  0  0  0  0  0  0  0  0  0  0
  139.8510  151.0110  139.0580 O   0  0  0  0  0  0  0  0  0  0  0  0
  142.1780  152.2740  133.3920 C   0  0  0  0  0  0  0  0  0  0  0  0
  140.8990  151.7600  133.1590 C   0  0  0  0  0  0  0  0  0  0  0  0
  138.7521  146.0002  129.9718 H   0  0  0  0  0  0  0  0  0  0  0  0
  138.3163  147.5137  129.1082 H   0  0  0  0  0  0  0  0  0  0  0  0
  140.0177  146.9377  129.1082 H   0  0  0  0  0  0  0  0  0  0  0  0
  138.6801  150.7428  132.2056 H   0  0  0  0  0  0  0  0  0  0  0  0
  139.1811  149.2248  133.0399 H   0  0  0  0  0  0  0  0  0  0  0  0
  141.8658  148.8617  131.5702 H   0  0  0  0  0  0  0  0  0  0  0  0
  144.1405  149.8338  132.0387 H   0  0  0  0  0  0  0  0  0  0  0  0
  145.4557  152.0466  133.2852 H   0  0  0  0  0  0  0  0  0  0  0  0
  145.0210  154.7590  136.7140 H   0  0  0  0  0  0  0  0  0  0  0  0
  142.7222  156.4663  136.9889 H   0  0  0  0  0  0  0  0  0  0  0  0
  142.1052  156.7879  135.3254 H   0  0  0  0  0  0  0  0  0  0  0  0
  141.1238  153.8032  138.9736 H   0  0  0  0  0  0  0  0  0  0  0  0
  140.0432  153.7129  137.5400 H   0  0  0  0  0  0  0  0  0  0  0  0
  140.0032  152.3082  133.4861 H   0  0  0  0  0  0  0  0  0  0  0  0
  1  2  1  0
  2  3  1  0
  3  4  2  0
  3  5  1  0
  5  6  1  0
  6  7  2  0
  7  8  1  0
  8  9  2  0
  9 10  1  0
 10 11  2  0
 11 12  1  0
 12 13  1  0
 12 14  2  0
 11 15  1  0
 15 16  1  0
 16 17  2  0
 16 18  1  0
 18 19  1  0
 19 20  1  0
 20 21  2  0
 20 22  1  0
 18 23  1  0
 23 24  2  0
 23 25  1  0
 25 26  1  0
 26 27  2  0
 26 28  1  0
 26 29  1  0
 15 30  1  0
 30 31  2  0
 31  6  1  0
 30  9  1  0
  1 32  1  0
  1 33  1  0
  1 34  1  0
  5 35  1  0
  5 36  1  0
  7 37  1  0
  8 38  1  0
 10 39  1  0
 13 40  1  0
 19 41  1  0
 19 42  1  0
 25 43  1  0
 25 44  1  0
 31 45  1  0
M  CHG  5   2  -1  13  -1  22  -1  28  -1  29  -1
M  END
>  <UniqueID>  (72) 
72

>  <SMILES>  (72) 
C[N-]C(=O)Cc1ccc2cc(C([NH-])=O)n(C(=O)N(CC(=O)[O-])C(=O)CP(=O)([O-])[O-])c2c1

>  <Energy>  (72) 
75.60573899443844

>  <Genealogy>  (72) 
C[N-]C(=O)Cc1ccc2cc(C([NH-])=O)n(C(=O)N(CC(=O)[O-])C(=O)CP(=O)([O-])[O-])c2c1 (protonated)
C[N-]C(=O)Cc1ccc2cc(C([NH-])=O)n(C(=O)N(CC(=O)[O-])C(=O)CP(=O)([O-])[O-])c2c1 (3D coordinates assigned)
C[N-]C(=O)Cc1ccc2cc(C([NH-])=O)n(C(=O)N(CC(=O)[O-])C(=O)CP(=O)([O-])[O-])c2c1 (optimized conformer: 75.60573899443844 kcal/mol)

>  <smiles>  (72) 
CNC(=O)Cc1ccc2cc(C(N)=O)n(C(=O)N(CC(=O)O)C(=O)CP(=O)(O)O)c2c1

>  <score_type>  (72) 
oracle

>  <origin>  (72) 
adg

>  <m_score__min__energy>  (72) 
-7.3499999999999996

>  <m_primary>  (72) 
energy

$$$$
72:0
     RDKit          3D

 41 42  0  0  0  0  0  0  0  0999 V2000
  150.1310  151.1030  131.6790 C   0  0  0  0  0  0  0  0  0  0  0  0
  148.7970  151.4560  132.1740 N   0  0  0  0  0  0  0  0  0  0  0  0
  147.7410  150.4390  132.2310 C   0  0  0  0  0  0  0  0  0  0  0  0
  148.5440  152.8120  132.6030 C   0  0  0  0  0  0  0  0  0  0  0  0
  149.4780  153.6600  132.5770 O   0  0  0  0  0  0  0  0  0  0  0  0
  147.1840  153.2600  133.0660 C   0  0  0  0  0  0  0  0  0  0  0  0
  147.2930  154.0760  134.2290 O   0  0  0  0  0  0  0  0  0  0  0  0
  146.5660  155.2570  134.4110 C   0  0  0  0  0  0  0  0  0  0  0  0
  146.2230  155.6290  135.5660 O   0  0  0  0  0  0  0  0  0  0  0  0
  146.2160  156.0770  133.2420 C   0  0  0  0  0  0  0  0  0  0  0  0
  145.7750  155.5160  132.2040 O   0  0  0  0  0  0  0  0  0  0  0  0
  146.4150  157.4990  133.2510 N   0  0  0  0  0  0  0  0  0  0  0  0
  147.5390  158.1920  132.9140 C   0  0  0  0  0  0  0  0  0  0  0  0
  148.8480  157.5860  132.5790 C   0  0  0  0  0  0  0  0  0  0  0  0
  149.0260  156.1690  132.5920 N   0  0  0  0  0  0  0  0  0  0  0  0
  149.8190  158.3220  132.2580 O   0  0  0  0  0  0  0  0  0  0  0  0
  147.3110  159.5650  133.0150 C   0  0  0  0  0  0  0  0  0  0  0  0
  146.0050  159.6880  133.4340 C   0  0  0  0  0  0  0  0  0  0  0  0
  145.2470  160.8270  133.6850 C   0  0  0  0  0  0  0  0  0  0  0  0
  143.9120  160.6540  134.0890 C   0  0  0  0  0  0  0  0  0  0  0  0
  143.3630  159.3540  134.2500 C   0  0  0  0  0  0  0  0  0  0  0  0
  141.9140  159.1840  134.6270 C   0  0  0  0  0  0  0  0  0  0  0  0
  141.4990  157.9120  134.2800 F   0  0  0  0  0  0  0  0  0  0  0  0
  141.7410  159.3590  135.9890 F   0  0  0  0  0  0  0  0  0  0  0  0
  141.1250  160.1110  133.9680 F   0  0  0  0  0  0  0  0  0  0  0  0
  144.1620  158.2230  133.9630 C   0  0  0  0  0  0  0  0  0  0  0  0
  145.4880  158.4270  133.5720 C   0  0  0  0  0  0  0  0  0  0  0  0
  150.8032  150.9251  132.5314 H   0  0  0  0  0  0  0  0  0  0  0  0
  150.0656  150.1912  131.0671 H   0  0  0  0  0  0  0  0  0  0  0  0
  150.5251  151.9278  131.0671 H   0  0  0  0  0  0  0  0  0  0  0  0
  147.5061  150.2128  133.2816 H   0  0  0  0  0  0  0  0  0  0  0  0
  146.8396  150.8178  131.7271 H   0  0  0  0  0  0  0  0  0  0  0  0
  148.0856  149.5239  131.7271 H   0  0  0  0  0  0  0  0  0  0  0  0
  146.7011  153.8370  132.2636 H   0  0  0  0  0  0  0  0  0  0  0  0
  146.5830  152.3720  133.3113 H   0  0  0  0  0  0  0  0  0  0  0  0
  149.9440  155.7550  132.3180 H   0  0  0  0  0  0  0  0  0  0  0  0
  148.2670  155.5280  132.9130 H   0  0  0  0  0  0  0  0  0  0  0  0
  148.0231  160.3765  132.8046 H   0  0  0  0  0  0  0  0  0  0  0  0
  145.6791  161.8321  133.5708 H   0  0  0  0  0  0  0  0  0  0  0  0
  143.2845  161.5364  134.2829 H   0  0  0  0  0  0  0  0  0  0  0  0
  143.7494  157.2067  134.0456 H   0  0  0  0  0  0  0  0  0  0  0  0
  1  2  1  0
  2  3  1  0
  2  4  1  0
  4  5  2  0
  4  6  1  0
  6  7  1  0
  7  8  1  0
  8  9  2  0
  8 10  1  0
 10 11  2  0
 10 12  1  0
 12 13  1  0
 13 14  1  0
 14 15  1  0
 14 16  2  0
 13 17  2  0
 17 18  1  0
 18 19  2  0
 19 20  1  0
 20 21  2  0
 21 22  1  0
 22 23  1  0
 22 24  1  0
 22 25  1  0
 21 26  1  0
 26 27  2  0
 27 12  1  0
 27 18  1  0
  1 28  1  0
  1 29  1  0
  1 30  1  0
  3 31  1  0
  3 32  1  0
  3 33  1  0
  6 34  1  0
  6 35  1  0
 15 36  1  0
 15 37  1  0
 17 38  1  0
 19 39  1  0
 20 40  1  0
 26 41  1  0
M  END
>  <UniqueID>  (73) 
73

>  <SMILES>  (73) 
CN(C)C(=O)COC(=O)C(=O)n1c(C(N)=O)cc2ccc(C(F)(F)F)cc21

>  <Energy>  (73) 
75.63584053625644

>  <Genealogy>  (73) 
CN(C)C(=O)COC(=O)C(=O)n1c(C(N)=O)cc2ccc(C(F)(F)F)cc21 (3D coordinates assigned)
CN(C)C(=O)COC(=O)C(=O)n1c(C(N)=O)cc2ccc(C(F)(F)F)cc21 (optimized conformer: 75.63584053625644 kcal/mol)

>  <smiles>  (73) 
CN(C)C(=O)COC(=O)C(=O)n1c(C(N)=O)cc2ccc(C(F)(F)F)cc21

>  <score_type>  (73) 
oracle

>  <origin>  (73) 
adg

>  <m_score__min__energy>  (73) 
-6.1100000000000003

>  <m_primary>  (73) 
energy

$$$$
73:0
     RDKit          3D

 28 29  0  0  0  0  0  0  0  0999 V2000
  146.7980  151.3010  132.9800 H   0  0  0  0  0  0  0  0  0  0  0  0
  147.6530  151.5580  132.4380 N   0  0  0  0  0  0  0  0  0  0  0  0
  148.6170  152.4610  132.9740 C   0  0  0  0  0  0  0  0  0  0  0  0
  149.7120  152.0120  133.4040 O   0  0  0  0  0  0  0  0  0  0  0  0
  148.3090  153.9050  133.0520 C   0  0  0  0  0  0  0  0  0  0  0  0
  149.1750  154.9020  132.6090 C   0  0  0  0  0  0  0  0  0  0  0  0
  150.1937  154.7734  132.2143 H   0  0  0  0  0  0  0  0  0  0  0  0
  148.4850  156.0830  132.7700 C   0  0  0  0  0  0  0  0  0  0  0  0
  148.8700  157.3920  132.4950 C   0  0  0  0  0  0  0  0  0  0  0  0
  149.8593  157.6148  132.0688 H   0  0  0  0  0  0  0  0  0  0  0  0
  147.9550  158.4200  132.7790 C   0  0  0  0  0  0  0  0  0  0  0  0
  148.2278  159.4650  132.5705 H   0  0  0  0  0  0  0  0  0  0  0  0
  146.6830  158.1230  133.3320 C   0  0  0  0  0  0  0  0  0  0  0  0
  145.7120  159.2270  133.6450 C   0  0  0  0  0  0  0  0  0  0  0  0
  145.2672  159.0476  134.6349 H   0  0  0  0  0  0  0  0  0  0  0  0
  144.7150  159.2530  132.6870 F   0  0  0  0  0  0  0  0  0  0  0  0
  146.3730  160.4410  133.6500 F   0  0  0  0  0  0  0  0  0  0  0  0
  146.3290  156.7820  133.5980 C   0  0  0  0  0  0  0  0  0  0  0  0
  145.3496  156.5325  134.0323 H   0  0  0  0  0  0  0  0  0  0  0  0
  147.2560  155.7790  133.2950 C   0  0  0  0  0  0  0  0  0  0  0  0
  147.1340  154.4480  133.4790 N   0  0  0  0  0  0  0  0  0  0  0  0
  146.0060  153.7750  134.0600 C   0  0  0  0  0  0  0  0  0  0  0  0
  145.3990  152.8970  133.3880 O   0  0  0  0  0  0  0  0  0  0  0  0
  145.5360  154.1570  135.4080 C   0  0  0  0  0  0  0  0  0  0  0  0
  144.6208  154.7628  135.4812 H   0  0  0  0  0  0  0  0  0  0  0  0
  146.1510  153.8140  136.5440 C   0  0  0  0  0  0  0  0  0  0  0  0
  145.7221  154.1415  137.5025 H   0  0  0  0  0  0  0  0  0  0  0  0
  147.3160  153.0560  136.5510 O   0  0  0  0  0  0  0  0  0  0  0  0
  1  2  1  0
  2  3  1  0
  3  4  2  0
  3  5  1  0
  5  6  2  0
  6  7  1  0
  6  8  1  0
  8  9  2  0
  9 10  1  0
  9 11  1  0
 11 12  1  0
 11 13  2  0
 13 14  1  0
 14 15  1  0
 14 16  1  0
 14 17  1  0
 13 18  1  0
 18 19  1  0
 18 20  2  0
 20 21  1  0
 21 22  1  0
 22 23  2  0
 22 24  1  0
 24 25  1  0
 24 26  2  0
 26 27  1  0
 26 28  1  0
 21  5  1  0
 20  8  1  0
M  CHG  2   2  -1  28  -1
M  END
>  <UniqueID>  (74) 
74

>  <SMILES>  (74) 
[NH-]C(=O)c1cc2ccc(C(F)F)cc2n1C(=O)/C=C\[O-]

>  <Energy>  (74) 
67.84371747119708

>  <Genealogy>  (74) 
[NH-]C(=O)c1cc2ccc(C(F)F)cc2n1C(=O)C=C[O-] (protonated)
[NH-]C(=O)c1cc2ccc(C(F)F)cc2n1C(=O)/C=C\[O-] (cis-trans isomerization)
[NH-]C(=O)c1cc2ccc(C(F)F)cc2n1C(=O)/C=C\[O-] (3D coordinates assigned)
[NH-]C(=O)c1cc2ccc(C(F)F)cc2n1C(=O)/C=C\[O-] (optimized conformer: 67.84371747119708 kcal/mol)

>  <smiles>  (74) 
NC(=O)c1cc2ccc(C(F)F)cc2n1C(=O)C=CO

>  <score_type>  (74) 
oracle

>  <origin>  (74) 
adg

>  <m_score__min__energy>  (74) 
-5.75

>  <m_primary>  (74) 
energy

$$$$
74:0
     RDKit          3D

 61 63  0  0  0  0  0  0  0  0999 V2000
  149.9210  150.7750  134.6720 C   0  0  0  0  0  0  0  0  0  0  0  0
  149.3070  150.8850  133.2620 C   0  0  0  0  0  0  0  0  0  0  0  0
  150.4430  151.0290  132.2380 C   0  0  0  0  0  0  0  0  0  0  0  0
  148.4920  149.6230  132.9240 C   0  0  0  0  0  0  0  0  0  0  0  0
  148.4860  152.0570  133.1550 O   0  0  0  0  0  0  0  0  0  0  0  0
  147.2470  152.1510  132.5030 C   0  0  0  0  0  0  0  0  0  0  0  0
  146.9790  151.4400  131.4970 O   0  0  0  0  0  0  0  0  0  0  0  0
  146.2450  153.1490  132.9870 C   0  0  0  0  0  0  0  0  0  0  0  0
  146.8020  154.5050  132.9030 N   0  0  0  0  0  0  0  0  0  0  0  0
  145.9910  155.5830  132.3140 C   0  0  0  0  0  0  0  0  0  0  0  0
  145.2490  156.3430  133.3820 C   0  0  0  0  0  0  0  0  0  0  0  0
  144.5920  155.7230  134.2600 O   0  0  0  0  0  0  0  0  0  0  0  0
  145.3000  157.7760  133.4180 N   0  0  0  0  0  0  0  0  0  0  0  0
  146.4010  158.5730  133.5000 C   0  0  0  0  0  0  0  0  0  0  0  0
  147.8010  158.1260  133.3610 C   0  0  0  0  0  0  0  0  0  0  0  0
  148.4840  157.5190  134.4530 N   0  0  0  0  0  0  0  0  0  0  0  0
  148.3830  158.2330  132.2490 O   0  0  0  0  0  0  0  0  0  0  0  0
  146.0250  159.9070  133.6430 C   0  0  0  0  0  0  0  0  0  0  0  0
  144.6480  159.9020  133.6310 C   0  0  0  0  0  0  0  0  0  0  0  0
  143.7430  160.9520  133.7490 C   0  0  0  0  0  0  0  0  0  0  0  0
  142.3710  160.6460  133.7260 C   0  0  0  0  0  0  0  0  0  0  0  0
  141.9270  159.3080  133.5710 C   0  0  0  0  0  0  0  0  0  0  0  0
  140.4520  159.0060  133.6010 C   0  0  0  0  0  0  0  0  0  0  0  0
  140.0160  158.9900  134.9130 F   0  0  0  0  0  0  0  0  0  0  0  0
  140.1780  157.7770  133.0230 F   0  0  0  0  0  0  0  0  0  0  0  0
  139.7550  159.9790  132.9070 F   0  0  0  0  0  0  0  0  0  0  0  0
  142.8800  158.2670  133.4650 C   0  0  0  0  0  0  0  0  0  0  0  0
  144.2370  158.6020  133.4890 C   0  0  0  0  0  0  0  0  0  0  0  0
  148.1020  154.8010  133.4530 C   0  0  0  0  0  0  0  0  0  0  0  0
  149.0280  155.2080  132.6990 O   0  0  0  0  0  0  0  0  0  0  0  0
  148.3380  154.6050  134.8190 O   0  0  0  0  0  0  0  0  0  0  0  0
  147.3170  154.6070  135.8170 C   0  0  0  0  0  0  0  0  0  0  0  0
  147.3290  153.3780  136.5420 O   0  0  0  0  0  0  0  0  0  0  0  0
  148.3600  152.9830  137.4020 C   0  0  0  0  0  0  0  0  0  0  0  0
  148.5920  151.7630  137.6170 O   0  0  0  0  0  0  0  0  0  0  0  0
  149.1900  154.0110  138.1050 C   0  0  1  0  0  0  0  0  0  0  0  0
  149.3730  153.8300  139.5630 C   0  0  0  0  0  0  0  0  0  0  0  0
  150.3670  153.4520  138.6390 O   0  0  0  0  0  0  0  0  0  0  0  0
  149.1335  150.9161  135.4269 H   0  0  0  0  0  0  0  0  0  0  0  0
  150.3754  149.7811  134.7975 H   0  0  0  0  0  0  0  0  0  0  0  0
  150.6922  151.5493  134.7975 H   0  0  0  0  0  0  0  0  0  0  0  0
  151.4000  151.1503  132.7667 H   0  0  0  0  0  0  0  0  0  0  0  0
  150.4842  150.1289  131.6071 H   0  0  0  0  0  0  0  0  0  0  0  0
  150.2583  151.9109  131.6071 H   0  0  0  0  0  0  0  0  0  0  0  0
  148.1744  149.1313  133.8553 H   0  0  0  0  0  0  0  0  0  0  0  0
  147.6052  149.9054  132.3376 H   0  0  0  0  0  0  0  0  0  0  0  0
  149.1142  148.9309  132.3376 H   0  0  0  0  0  0  0  0  0  0  0  0
  145.3406  153.0880  132.3639 H   0  0  0  0  0  0  0  0  0  0  0  0
  145.9935  152.9275  134.0347 H   0  0  0  0  0  0  0  0  0  0  0  0
  146.6518  156.2758  131.7723 H   0  0  0  0  0  0  0  0  0  0  0  0
  145.2573  155.1354  131.6274 H   0  0  0  0  0  0  0  0  0  0  0  0
  149.0560  156.6550  134.3190 H   0  0  0  0  0  0  0  0  0  0  0  0
  146.6876  160.7792  133.7441 H   0  0  0  0  0  0  0  0  0  0  0  0
  144.0904  161.9901  133.8570 H   0  0  0  0  0  0  0  0  0  0  0  0
  141.6325  161.4546  133.8295 H   0  0  0  0  0  0  0  0  0  0  0  0
  142.5605  157.2191  133.3661 H   0  0  0  0  0  0  0  0  0  0  0  0
  147.4921  155.4405  136.5132 H   0  0  0  0  0  0  0  0  0  0  0  0
  146.3389  154.7233  135.3272 H   0  0  0  0  0  0  0  0  0  0  0  0
  148.9036  154.8641  137.4724 H   0  0  0  0  0  0  0  0  0  0  0  0
  149.5251  154.7024  140.2155 H   0  0  0  0  0  0  0  0  0  0  0  0
  148.8176  153.3310  140.3708 H   0  0  0  0  0  0  0  0  0  0  0  0
  1  2  1  0
  2  3  1  0
  2  4  1  0
  2  5  1  0
  5  6  1  0
  6  7  2  0
  6  8  1  0
  8  9  1  0
  9 10  1  0
 10 11  1  0
 11 12  2  0
 11 13  1  0
 13 14  1  0
 14 15  1  0
 15 16  1  0
 15 17  2  0
 14 18  2  0
 18 19  1  0
 19 20  2  0
 20 21  1  0
 21 22  2  0
 22 23  1  0
 23 24  1  0
 23 25  1  0
 23 26  1  0
 22 27  1  0
 27 28  2  0
  9 29  1  0
 29 30  2  0
 29 31  1  0
 31 32  1  0
 32 33  1  0
 33 34  1  0
 34 35  2  0
 34 36  1  0
 36 37  1  0
 37 38  1  0
 28 13  1  0
 38 36  1  0
 28 19  1  0
  1 39  1  0
  1 40  1  0
  1 41  1  0
  3 42  1  0
  3 43  1  0
  3 44  1  0
  4 45  1  0
  4 46  1  0
  4 47  1  0
  8 48  1  0
  8 49  1  0
 10 50  1  0
 10 51  1  0
 16 52  1  0
 18 53  1  0
 20 54  1  0
 21 55  1  0
 27 56  1  0
 32 57  1  0
 32 58  1  0
 36 59  1  1
 37 60  1  0
 37 61  1  0
M  CHG  1  16  -1
M  END
>  <UniqueID>  (75) 
75

>  <SMILES>  (75) 
CC(C)(C)OC(=O)CN(CC(=O)n1c(C([NH-])=O)cc2ccc(C(F)(F)F)cc21)C(=O)OCOC(=O)[C@H]1CO1

>  <Energy>  (75) 
420.91451502591644

>  <Genealogy>  (75) 
CC(C)(C)OC(=O)CN(CC(=O)n1c(C([NH-])=O)cc2ccc(C(F)(F)F)cc21)C(=O)OCOC(=O)C1CO1 (protonated)
CC(C)(C)OC(=O)CN(CC(=O)n1c(C([NH-])=O)cc2ccc(C(F)(F)F)cc21)C(=O)OCOC(=O)[C@H]1CO1 (chirality)
CC(C)(C)OC(=O)CN(CC(=O)n1c(C([NH-])=O)cc2ccc(C(F)(F)F)cc21)C(=O)OCOC(=O)[C@H]1CO1 (3D coordinates assigned)
CC(C)(C)OC(=O)CN(CC(=O)n1c(C([NH-])=O)cc2ccc(C(F)(F)F)cc21)C(=O)OCOC(=O)[C@H]1CO1 (nonaromatic ring conformer: 420.91451502591644 kcal/mol)

>  <smiles>  (75) 
CC(C)(C)OC(=O)CN(CC(=O)n1c(C(N)=O)cc2ccc(C(F)(F)F)cc21)C(=O)OCOC(=O)C1CO1

>  <score_type>  (75) 
oracle

>  <origin>  (75) 
adg

>  <m_score__min__energy>  (75) 
-7.71

>  <m_primary>  (75) 
energy

$$$$
75:0
     RDKit          3D

 37 39  0  0  0  0  0  0  0  0999 V2000
  149.8380  150.8540  131.4610 C   0  0  0  0  0  0  0  0  0  0  0  0
  148.7850  151.7560  131.7150 O   0  0  0  0  0  0  0  0  0  0  0  0
  149.2430  152.7640  132.5930 C   0  0  0  0  0  0  0  0  0  0  0  0
  148.2480  153.8730  132.7180 C   0  0  0  0  0  0  0  0  0  0  0  0
  147.8870  153.6010  134.1210 N   0  0  0  0  0  0  0  0  0  0  0  0
  147.0570  154.1760  135.1280 C   0  0  0  0  0  0  0  0  0  0  0  0
  147.1110  153.7390  136.3080 O   0  0  0  0  0  0  0  0  0  0  0  0
  146.1620  155.2470  134.8020 N   0  0  0  0  0  0  0  0  0  0  0  0
  144.8150  155.2990  134.9920 C   0  0  0  0  0  0  0  0  0  0  0  0
  143.9960  154.2760  135.6750 C   0  0  0  0  0  0  0  0  0  0  0  0
  144.3650  153.7720  136.9550 N   0  0  0  0  0  0  0  0  0  0  0  0
  142.9390  153.8570  135.1300 O   0  0  0  0  0  0  0  0  0  0  0  0
  144.3010  156.4970  134.4950 C   0  0  0  0  0  0  0  0  0  0  0  0
  145.3860  157.1790  133.9900 C   0  0  0  0  0  0  0  0  0  0  0  0
  145.4560  158.4180  133.3610 C   0  0  0  0  0  0  0  0  0  0  0  0
  146.7120  158.8610  132.9140 C   0  0  0  0  0  0  0  0  0  0  0  0
  147.8670  158.0570  133.0940 C   0  0  0  0  0  0  0  0  0  0  0  0
  149.1990  158.5430  132.5950 C   0  0  0  0  0  0  0  0  0  0  0  0
  149.8960  157.4910  132.0300 F   0  0  0  0  0  0  0  0  0  0  0  0
  149.0100  159.5290  131.6450 F   0  0  0  0  0  0  0  0  0  0  0  0
  147.7570  156.8030  133.7320 C   0  0  0  0  0  0  0  0  0  0  0  0
  146.4960  156.4000  134.1860 C   0  0  0  0  0  0  0  0  0  0  0  0
  148.8650  152.5060  134.0190 C   0  0  0  0  0  0  0  0  0  0  0  0
  150.2538  150.4978  132.4150 H   0  0  0  0  0  0  0  0  0  0  0  0
  149.4567  149.9981  130.8849 H   0  0  0  0  0  0  0  0  0  0  0  0
  150.6252  151.3623  130.8849 H   0  0  0  0  0  0  0  0  0  0  0  0
  150.2802  152.8842  132.2469 H   0  0  0  0  0  0  0  0  0  0  0  0
  148.6999  154.8665  132.5807 H   0  0  0  0  0  0  0  0  0  0  0  0
  147.4282  153.8958  131.9849 H   0  0  0  0  0  0  0  0  0  0  0  0
  145.2330  154.1020  137.4330 H   0  0  0  0  0  0  0  0  0  0  0  0
  143.2517  156.8270  134.5044 H   0  0  0  0  0  0  0  0  0  0  0  0
  144.5548  159.0324  133.2179 H   0  0  0  0  0  0  0  0  0  0  0  0
  146.8007  159.8399  132.4201 H   0  0  0  0  0  0  0  0  0  0  0  0
  149.7725  158.9529  133.4395 H   0  0  0  0  0  0  0  0  0  0  0  0
  148.6387  156.1596  133.8688 H   0  0  0  0  0  0  0  0  0  0  0  0
  149.7113  152.6266  134.7112 H   0  0  0  0  0  0  0  0  0  0  0  0
  148.5127  151.4944  134.2690 H   0  0  0  0  0  0  0  0  0  0  0  0
  1  2  1  0
  2  3  1  0
  3  4  1  0
  4  5  1  0
  5  6  1  0
  6  7  2  0
  6  8  1  0
  8  9  1  0
  9 10  1  0
 10 11  1  0
 10 12  2  0
  9 13  2  0
 13 14  1  0
 14 15  2  0
 15 16  1  0
 16 17  2  0
 17 18  1  0
 18 19  1  0
 18 20  1  0
 17 21  1  0
 21 22  2  0
  5 23  1  0
 23  3  1  0
 22  8  1  0
 22 14  1  0
  1 24  1  0
  1 25  1  0
  1 26  1  0
  3 27  1  0
  4 28  1  0
  4 29  1  0
 11 30  1  0
 13 31  1  0
 15 32  1  0
 16 33  1  0
 18 34  1  0
 21 35  1  0
 23 36  1  0
 23 37  1  0
M  CHG  1  11  -1
M  END
>  <UniqueID>  (76) 
76

>  <SMILES>  (76) 
COC1CN(C(=O)n2c(C([NH-])=O)cc3ccc(C(F)F)cc32)C1

>  <Energy>  (76) 
121.82966804708933

>  <Genealogy>  (76) 
COC1CN(C(=O)n2c(C([NH-])=O)cc3ccc(C(F)F)cc32)C1 (protonated)
COC1CN(C(=O)n2c(C([NH-])=O)cc3ccc(C(F)F)cc32)C1 (3D coordinates assigned)
COC1CN(C(=O)n2c(C([NH-])=O)cc3ccc(C(F)F)cc32)C1 (nonaromatic ring conformer: 121.82966804708933 kcal/mol)

>  <smiles>  (76) 
COC1CN(C(=O)n2c(C(N)=O)cc3ccc(C(F)F)cc32)C1

>  <score_type>  (76) 
oracle

>  <origin>  (76) 
adg

>  <m_score__min__energy>  (76) 
-6.2400000000000002

>  <m_primary>  (76) 
energy

$$$$
76:0
     RDKit          3D

 52 54  0  0  0  0  0  0  0  0999 V2000
  144.0340  153.9650  131.9780 C   0  0  0  0  0  0  0  0  0  0  0  0
  142.8580  154.2330  132.8350 N   0  0  1  0  0  0  0  0  0  0  0  0
  141.7080  153.2900  132.6300 C   0  0  0  0  0  0  0  0  0  0  0  0
  141.9700  151.8370  132.9750 C   0  0  0  0  0  0  0  0  0  0  0  0
  143.0100  151.5580  133.6330 O   0  0  0  0  0  0  0  0  0  0  0  0
  141.0720  150.7790  132.5650 N   0  0  0  0  0  0  0  0  0  0  0  0
  141.4720  149.3700  132.7290 C   0  0  0  0  0  0  0  0  0  0  0  0
  140.9630  148.5390  131.5450 C   0  0  0  0  0  0  0  0  0  0  0  0
  139.4230  148.6120  131.3960 C   0  0  0  0  0  0  0  0  0  0  0  0
  139.0340  148.4730  129.9440 C   0  0  0  0  0  0  0  0  0  0  0  0
  138.8380  149.5030  129.2420 O   0  0  0  0  0  0  0  0  0  0  0  0
  138.8420  147.2140  129.3800 O   0  0  0  0  0  0  0  0  0  0  0  0
  138.8110  149.8880  132.0240 C   0  0  0  0  0  0  0  0  0  0  0  0
  139.7640  151.0900  131.9600 C   0  0  0  0  0  0  0  0  0  0  0  0
  143.2410  154.3140  134.2410 C   0  0  0  0  0  0  0  0  0  0  0  0
  144.3340  153.8210  134.6390 O   0  0  0  0  0  0  0  0  0  0  0  0
  142.4390  155.0450  135.1870 N   0  0  0  0  0  0  0  0  0  0  0  0
  142.1660  156.3830  135.1780 C   0  0  0  0  0  0  0  0  0  0  0  0
  142.5570  157.3460  134.1230 C   0  0  0  0  0  0  0  0  0  0  0  0
  142.7720  156.9190  132.7810 N   0  0  0  0  0  0  0  0  0  0  0  0
  142.6760  158.5670  134.4030 O   0  0  0  0  0  0  0  0  0  0  0  0
  141.4920  156.7500  136.3420 C   0  0  0  0  0  0  0  0  0  0  0  0
  141.3500  155.5880  137.0640 C   0  0  0  0  0  0  0  0  0  0  0  0
  140.7370  155.3680  138.2930 C   0  0  0  0  0  0  0  0  0  0  0  0
  140.7180  154.0560  138.7950 C   0  0  0  0  0  0  0  0  0  0  0  0
  141.3130  152.9910  138.0660 C   0  0  0  0  0  0  0  0  0  0  0  0
  141.2140  151.5710  138.5700 C   0  0  0  0  0  0  0  0  0  0  0  0
  142.4560  151.1250  138.9880 F   0  0  0  0  0  0  0  0  0  0  0  0
  140.3330  151.4840  139.6390 F   0  0  0  0  0  0  0  0  0  0  0  0
  140.7610  150.7540  137.5470 F   0  0  0  0  0  0  0  0  0  0  0  0
  141.9080  153.2540  136.8090 C   0  0  0  0  0  0  0  0  0  0  0  0
  141.9290  154.5730  136.3460 C   0  0  0  0  0  0  0  0  0  0  0  0
  144.9111  153.7651  132.6110 H   0  0  0  0  0  0  0  0  0  0  0  0
  143.8330  153.0896  131.3429 H   0  0  0  0  0  0  0  0  0  0  0  0
  144.2322  154.8410  131.3429 H   0  0  0  0  0  0  0  0  0  0  0  0
  142.5280  155.1900  132.5660 H   0  0  0  0  0  0  0  0  0  0  0  0
  140.8717  153.6385  133.2539 H   0  0  0  0  0  0  0  0  0  0  0  0
  141.5008  153.3055  131.5498 H   0  0  0  0  0  0  0  0  0  0  0  0
  142.5692  149.3057  132.7742 H   0  0  0  0  0  0  0  0  0  0  0  0
  141.0366  148.9770  133.6596 H   0  0  0  0  0  0  0  0  0  0  0  0
  141.4263  148.9174  130.6218 H   0  0  0  0  0  0  0  0  0  0  0  0
  141.2344  147.4890  131.7288 H   0  0  0  0  0  0  0  0  0  0  0  0
  139.0026  147.7682  131.9627 H   0  0  0  0  0  0  0  0  0  0  0  0
  137.8880  150.1404  131.4814 H   0  0  0  0  0  0  0  0  0  0  0  0
  138.6115  149.6758  133.0847 H   0  0  0  0  0  0  0  0  0  0  0  0
  139.9153  151.3698  130.9070 H   0  0  0  0  0  0  0  0  0  0  0  0
  139.3117  151.9179  132.5257 H   0  0  0  0  0  0  0  0  0  0  0  0
  142.0470  156.3700  132.2650 H   0  0  0  0  0  0  0  0  0  0  0  0
  141.1469  157.7559  136.6233 H   0  0  0  0  0  0  0  0  0  0  0  0
  140.2808  156.1963  138.8550 H   0  0  0  0  0  0  0  0  0  0  0  0
  140.2373  153.8508  139.7629 H   0  0  0  0  0  0  0  0  0  0  0  0
  142.3435  152.4401  136.2107 H   0  0  0  0  0  0  0  0  0  0  0  0
  1  2  1  0
  2  3  1  0
  3  4  1  0
  4  5  2  0
  4  6  1  0
  6  7  1  0
  7  8  1  0
  8  9  1  0
  9 10  1  0
 10 11  2  0
 10 12  1  0
  9 13  1  0
 13 14  1  0
  2 15  1  0
 15 16  2  0
 15 17  1  0
 17 18  1  0
 18 19  1  0
 19 20  1  0
 19 21  2  0
 18 22  2  0
 22 23  1  0
 23 24  2  0
 24 25  1  0
 25 26  2  0
 26 27  1  0
 27 28  1  0
 27 29  1  0
 27 30  1  0
 26 31  1  0
 31 32  2  0
 14  6  1  0
 32 17  1  0
 32 23  1  0
  1 33  1  0
  1 34  1  0
  1 35  1  0
  2 36  1  6
  3 37  1  0
  3 38  1  0
  7 39  1  0
  7 40  1  0
  8 41  1  0
  8 42  1  0
  9 43  1  0
 13 44  1  0
 13 45  1  0
 14 46  1  0
 14 47  1  0
 20 48  1  0
 22 49  1  0
 24 50  1  0
 25 51  1  0
 31 52  1  0
M  CHG  3   2   1  12  -1  20  -1
M  END
>  <UniqueID>  (77) 
77

>  <SMILES>  (77) 
C[N@@H+](CC(=O)N1CCC(C(=O)[O-])CC1)C(=O)n1c(C([NH-])=O)cc2ccc(C(F)(F)F)cc21

>  <Energy>  (77) 
109.39014979949947

>  <Genealogy>  (77) 
C[NH+](CC(=O)N1CCC(C(=O)[O-])CC1)C(=O)n1c(C([NH-])=O)cc2ccc(C(F)(F)F)cc21 (protonated)
C[N@@H+](CC(=O)N1CCC(C(=O)[O-])CC1)C(=O)n1c(C([NH-])=O)cc2ccc(C(F)(F)F)cc21 (chirality)
C[N@@H+](CC(=O)N1CCC(C(=O)[O-])CC1)C(=O)n1c(C([NH-])=O)cc2ccc(C(F)(F)F)cc21 (3D coordinates assigned)
C[N@@H+](CC(=O)N1CCC(C(=O)[O-])CC1)C(=O)n1c(C([NH-])=O)cc2ccc(C(F)(F)F)cc21 (nonaromatic ring conformer: 109.39014979949947 kcal/mol)

>  <smiles>  (77) 
CN(CC(=O)N1CCC(C(=O)O)CC1)C(=O)n1c(C(N)=O)cc2ccc(C(F)(F)F)cc21

>  <score_type>  (77) 
oracle

>  <origin>  (77) 
adg

>  <m_score__min__energy>  (77) 
-8.4800000000000004

>  <m_primary>  (77) 
energy

$$$$
77:0
     RDKit          3D

 42 43  0  0  0  0  0  0  0  0999 V2000
  148.1520  154.1290  133.5070 C   0  0  0  0  0  0  0  0  0  0  0  0
  147.5440  154.9840  134.5310 N   0  0  0  0  0  0  0  0  0  0  0  0
  147.8550  154.7210  135.9440 C   0  0  0  0  0  0  0  0  0  0  0  0
  146.8950  153.7370  136.5440 C   0  0  0  0  0  0  0  0  0  0  0  0
  145.6840  153.7650  136.1940 O   0  0  0  0  0  0  0  0  0  0  0  0
  147.3480  152.7600  137.4860 N   0  0  0  0  0  0  0  0  0  0  0  0
  148.6020  152.8880  138.2140 C   0  0  0  0  0  0  0  0  0  0  0  0
  148.4650  153.9460  139.2590 C   0  0  0  0  0  0  0  0  0  0  0  0
  147.3550  154.1420  139.8250 O   0  0  0  0  0  0  0  0  0  0  0  0
  149.5630  154.7260  139.6010 O   0  0  0  0  0  0  0  0  0  0  0  0
  146.6220  156.0150  134.1030 C   0  0  0  0  0  0  0  0  0  0  0  0
  145.6410  156.2960  134.8440 O   0  0  0  0  0  0  0  0  0  0  0  0
  146.7980  156.8130  132.8650 C   0  0  0  0  0  0  0  0  0  0  0  0
  147.0070  156.2600  131.7540 O   0  0  0  0  0  0  0  0  0  0  0  0
  146.7460  158.2460  132.9250 N   0  0  0  0  0  0  0  0  0  0  0  0
  147.7690  159.1280  132.7390 C   0  0  0  0  0  0  0  0  0  0  0  0
  149.1340  158.7870  132.2880 C   0  0  0  0  0  0  0  0  0  0  0  0
  149.5730  157.4330  132.2270 N   0  0  0  0  0  0  0  0  0  0  0  0
  149.9180  159.7040  131.9220 O   0  0  0  0  0  0  0  0  0  0  0  0
  147.3400  160.4300  132.9920 C   0  0  0  0  0  0  0  0  0  0  0  0
  146.0130  160.3160  133.3450 C   0  0  0  0  0  0  0  0  0  0  0  0
  145.1020  161.2930  133.7330 C   0  0  0  0  0  0  0  0  0  0  0  0
  143.8050  160.8800  134.0810 C   0  0  0  0  0  0  0  0  0  0  0  0
  143.4390  159.5100  134.0310 C   0  0  0  0  0  0  0  0  0  0  0  0
  142.0570  159.0870  134.4580 C   0  0  0  0  0  0  0  0  0  0  0  0
  141.6350  157.9760  133.7470 F   0  0  0  0  0  0  0  0  0  0  0  0
  142.0710  158.7820  135.8060 F   0  0  0  0  0  0  0  0  0  0  0  0
  141.1520  160.1100  134.2350 F   0  0  0  0  0  0  0  0  0  0  0  0
  144.4050  158.5450  133.6620 C   0  0  0  0  0  0  0  0  0  0  0  0
  145.6810  158.9880  133.2980 C   0  0  0  0  0  0  0  0  0  0  0  0
  148.7239  153.3248  133.9931 H   0  0  0  0  0  0  0  0  0  0  0  0
  147.3622  153.6898  132.8798 H   0  0  0  0  0  0  0  0  0  0  0  0
  148.8261  154.7308  132.8798 H   0  0  0  0  0  0  0  0  0  0  0  0
  148.8748  154.3149  136.0160 H   0  0  0  0  0  0  0  0  0  0  0  0
  147.7705  155.6675  136.4980 H   0  0  0  0  0  0  0  0  0  0  0  0
  148.8473  151.9288  138.6933 H   0  0  0  0  0  0  0  0  0  0  0  0
  149.4052  153.1646  137.5152 H   0  0  0  0  0  0  0  0  0  0  0  0
  149.0970  156.7430  131.6060 H   0  0  0  0  0  0  0  0  0  0  0  0
  147.9348  161.3528  132.9242 H   0  0  0  0  0  0  0  0  0  0  0  0
  145.3879  162.3547  133.7663 H   0  0  0  0  0  0  0  0  0  0  0  0
  143.0634  161.6287  134.3964 H   0  0  0  0  0  0  0  0  0  0  0  0
  144.1590  157.4728  133.6613 H   0  0  0  0  0  0  0  0  0  0  0  0
  1  2  1  0
  2  3  1  0
  3  4  1  0
  4  5  2  0
  4  6  1  0
  6  7  1  0
  7  8  1  0
  8  9  2  0
  8 10  1  0
  2 11  1  0
 11 12  2  0
 11 13  1  0
 13 14  2  0
 13 15  1  0
 15 16  1  0
 16 17  1  0
 17 18  1  0
 17 19  2  0
 16 20  2  0
 20 21  1  0
 21 22  2  0
 22 23  1  0
 23 24  2  0
 24 25  1  0
 25 26  1  0
 25 27  1  0
 25 28  1  0
 24 29  1  0
 29 30  2  0
 30 15  1  0
 30 21  1  0
  1 31  1  0
  1 32  1  0
  1 33  1  0
  3 34  1  0
  3 35  1  0
  7 36  1  0
  7 37  1  0
 18 38  1  0
 20 39  1  0
 22 40  1  0
 23 41  1  0
 29 42  1  0
M  CHG  3   6  -1  10  -1  18  -1
M  END
>  <UniqueID>  (78) 
78

>  <SMILES>  (78) 
CN(CC(=O)[N-]CC(=O)[O-])C(=O)C(=O)n1c(C([NH-])=O)cc2ccc(C(F)(F)F)cc21

>  <Energy>  (78) 
78.62476832196145

>  <Genealogy>  (78) 
CN(CC(=O)[N-]CC(=O)[O-])C(=O)C(=O)n1c(C([NH-])=O)cc2ccc(C(F)(F)F)cc21 (protonated)
CN(CC(=O)[N-]CC(=O)[O-])C(=O)C(=O)n1c(C([NH-])=O)cc2ccc(C(F)(F)F)cc21 (3D coordinates assigned)
CN(CC(=O)[N-]CC(=O)[O-])C(=O)C(=O)n1c(C([NH-])=O)cc2ccc(C(F)(F)F)cc21 (optimized conformer: 78.62476832196145 kcal/mol)

>  <smiles>  (78) 
CN(CC(=O)NCC(=O)O)C(=O)C(=O)n1c(C(N)=O)cc2ccc(C(F)(F)F)cc21

>  <score_type>  (78) 
oracle

>  <origin>  (78) 
adg

>  <m_score__min__energy>  (78) 
-7.5

>  <m_primary>  (78) 
energy

$$$$
78:0
     RDKit          3D

 33 34  0  0  0  0  0  0  0  0999 V2000
  138.6870  158.2470  132.6380 C   0  0  0  0  0  0  0  0  0  0  0  0
  140.3560  158.7130  133.0400 S   0  0  0  0  0  0  0  0  0  0  0  0
  140.8560  159.7400  132.0640 O   0  0  0  0  0  0  0  0  0  0  0  0
  140.3850  159.2960  134.4240 O   0  0  0  0  0  0  0  0  0  0  0  0
  141.3800  157.3170  132.9940 N   0  0  0  0  0  0  0  0  0  0  0  0
  142.8060  157.4090  133.0330 C   0  0  0  0  0  0  0  0  0  0  0  0
  143.5090  156.7150  132.2500 O   0  0  0  0  0  0  0  0  0  0  0  0
  143.4520  158.3240  133.9850 C   0  0  0  0  0  0  0  0  0  0  0  0
  142.8950  158.5710  135.0890 O   0  0  0  0  0  0  0  0  0  0  0  0
  144.7140  158.9370  133.6740 N   0  0  0  0  0  0  0  0  0  0  0  0
  144.9970  160.2680  133.6010 C   0  0  0  0  0  0  0  0  0  0  0  0
  144.0160  161.3660  133.7320 C   0  0  0  0  0  0  0  0  0  0  0  0
  142.6270  161.0680  133.8480 N   0  0  0  0  0  0  0  0  0  0  0  0
  144.3930  162.5670  133.7610 O   0  0  0  0  0  0  0  0  0  0  0  0
  146.3500  160.4630  133.3330 C   0  0  0  0  0  0  0  0  0  0  0  0
  146.8920  159.2000  133.2470 C   0  0  0  0  0  0  0  0  0  0  0  0
  148.2070  158.8020  133.0260 C   0  0  0  0  0  0  0  0  0  0  0  0
  148.4860  157.4240  133.0270 C   0  0  0  0  0  0  0  0  0  0  0  0
  147.4540  156.4740  133.2380 C   0  0  0  0  0  0  0  0  0  0  0  0
  147.7770  155.0020  133.2960 C   0  0  0  0  0  0  0  0  0  0  0  0
  146.7890  154.2610  132.6710 F   0  0  0  0  0  0  0  0  0  0  0  0
  147.8720  154.5750  134.6090 F   0  0  0  0  0  0  0  0  0  0  0  0
  148.9820  154.7750  132.6590 F   0  0  0  0  0  0  0  0  0  0  0  0
  146.1360  156.9210  133.4870 C   0  0  0  0  0  0  0  0  0  0  0  0
  145.8840  158.2970  133.4600 C   0  0  0  0  0  0  0  0  0  0  0  0
  138.1172  158.0879  133.5654 H   0  0  0  0  0  0  0  0  0  0  0  0
  138.2143  159.0475  132.0500 H   0  0  0  0  0  0  0  0  0  0  0  0
  138.6974  157.3174  132.0500 H   0  0  0  0  0  0  0  0  0  0  0  0
  142.2670  160.1070  133.6580 H   0  0  0  0  0  0  0  0  0  0  0  0
  146.8745  161.4227  133.2150 H   0  0  0  0  0  0  0  0  0  0  0  0
  149.0029  159.5420  132.8559 H   0  0  0  0  0  0  0  0  0  0  0  0
  149.5172  157.0784  132.8621 H   0  0  0  0  0  0  0  0  0  0  0  0
  145.3283  156.2044  133.6969 H   0  0  0  0  0  0  0  0  0  0  0  0
  1  2  1  0
  2  3  2  0
  2  4  2  0
  2  5  1  0
  5  6  1  0
  6  7  2  0
  6  8  1  0
  8  9  2  0
  8 10  1  0
 10 11  1  0
 11 12  1  0
 12 13  1  0
 12 14  2  0
 11 15  2  0
 15 16  1  0
 16 17  2  0
 17 18  1  0
 18 19  2  0
 19 20  1  0
 20 21  1  0
 20 22  1  0
 20 23  1  0
 19 24  1  0
 24 25  2  0
 25 10  1  0
 25 16  1  0
  1 26  1  0
  1 27  1  0
  1 28  1  0
 13 29  1  0
 15 30  1  0
 17 31  1  0
 18 32  1  0
 24 33  1  0
M  CHG  2   5  -1  13  -1
M  END
>  <UniqueID>  (79) 
79

>  <SMILES>  (79) 
CS(=O)(=O)[N-]C(=O)C(=O)n1c(C([NH-])=O)cc2ccc(C(F)(F)F)cc21

>  <Energy>  (79) 
69.69191905662308

>  <Genealogy>  (79) 
CS(=O)(=O)[N-]C(=O)C(=O)n1c(C([NH-])=O)cc2ccc(C(F)(F)F)cc21 (protonated)
CS(=O)(=O)[N-]C(=O)C(=O)n1c(C([NH-])=O)cc2ccc(C(F)(F)F)cc21 (3D coordinates assigned)
CS(=O)(=O)[N-]C(=O)C(=O)n1c(C([NH-])=O)cc2ccc(C(F)(F)F)cc21 (optimized conformer: 69.69191905662308 kcal/mol)

>  <smiles>  (79) 
CS(=O)(=O)NC(=O)C(=O)n1c(C(N)=O)cc2ccc(C(F)(F)F)cc21

>  <score_type>  (79) 
oracle

>  <origin>  (79) 
adg

>  <m_score__min__energy>  (79) 
-6.6399999999999997

>  <m_primary>  (79) 
energy

$$$$
79:0
     RDKit          3D

 33 34  0  0  0  0  0  0  0  0999 V2000
  144.6090  155.3160  135.2090 C   0  0  0  0  0  0  0  0  0  0  0  0
  145.8570  155.5470  134.7790 C   0  0  0  0  0  0  0  0  0  0  0  0
  147.0130  155.0110  135.5360 C   0  0  0  0  0  0  0  0  0  0  0  0
  148.1020  155.6440  135.5820 O   0  0  0  0  0  0  0  0  0  0  0  0
  146.9210  153.7910  136.1940 O   0  0  0  0  0  0  0  0  0  0  0  0
  146.0720  156.3610  133.5540 C   0  0  0  0  0  0  0  0  0  0  0  0
  146.4210  155.7980  132.4810 O   0  0  0  0  0  0  0  0  0  0  0  0
  145.8760  157.7850  133.5630 N   0  0  0  0  0  0  0  0  0  0  0  0
  146.8170  158.7620  133.4360 C   0  0  0  0  0  0  0  0  0  0  0  0
  148.2530  158.5340  133.1550 C   0  0  0  0  0  0  0  0  0  0  0  0
  148.8330  157.2380  133.3140 N   0  0  0  0  0  0  0  0  0  0  0  0
  148.9850  159.4920  132.7890 O   0  0  0  0  0  0  0  0  0  0  0  0
  146.2250  160.0220  133.5290 C   0  0  0  0  0  0  0  0  0  0  0  0
  144.8810  159.7800  133.7090 C   0  0  0  0  0  0  0  0  0  0  0  0
  143.8220  160.6710  133.8560 C   0  0  0  0  0  0  0  0  0  0  0  0
  142.5340  160.1390  134.0360 C   0  0  0  0  0  0  0  0  0  0  0  0
  142.3310  158.7360  134.0750 C   0  0  0  0  0  0  0  0  0  0  0  0
  140.9460  158.1780  134.2430 C   0  0  0  0  0  0  0  0  0  0  0  0
  140.4250  158.5010  135.6060 C   0  0  0  0  0  0  0  0  0  0  0  0
  141.1920  158.9910  136.4780 O   0  0  0  0  0  0  0  0  0  0  0  0
  139.1060  158.2170  135.9320 O   0  0  0  0  0  0  0  0  0  0  0  0
  143.4300  157.8630  133.9100 C   0  0  0  0  0  0  0  0  0  0  0  0
  144.6970  158.4230  133.7220 C   0  0  0  0  0  0  0  0  0  0  0  0
  143.7512  155.7139  134.6470 H   0  0  0  0  0  0  0  0  0  0  0  0
  144.4424  154.7285  136.1239 H   0  0  0  0  0  0  0  0  0  0  0  0
  148.2500  156.4070  133.5540 H   0  0  0  0  0  0  0  0  0  0  0  0
  149.8540  157.0990  133.1480 H   0  0  0  0  0  0  0  0  0  0  0  0
  146.7250  161.0001  133.4710 H   0  0  0  0  0  0  0  0  0  0  0  0
  143.9882  161.7581  133.8320 H   0  0  0  0  0  0  0  0  0  0  0  0
  141.6751  160.8171  134.1477 H   0  0  0  0  0  0  0  0  0  0  0  0
  140.2815  158.6190  133.4854 H   0  0  0  0  0  0  0  0  0  0  0  0
  140.9802  157.0855  134.1198 H   0  0  0  0  0  0  0  0  0  0  0  0
  143.2921  156.7718  133.9290 H   0  0  0  0  0  0  0  0  0  0  0  0
  1  2  2  0
  2  3  1  0
  3  4  2  0
  3  5  1  0
  2  6  1  0
  6  7  2  0
  6  8  1  0
  8  9  1  0
  9 10  1  0
 10 11  1  0
 10 12  2  0
  9 13  2  0
 13 14  1  0
 14 15  2  0
 15 16  1  0
 16 17  2  0
 17 18  1  0
 18 19  1  0
 19 20  2  0
 19 21  1  0
 17 22  1  0
 22 23  2  0
 23  8  1  0
 23 14  1  0
  1 24  1  0
  1 25  1  0
 11 26  1  0
 11 27  1  0
 13 28  1  0
 15 29  1  0
 16 30  1  0
 18 31  1  0
 18 32  1  0
 22 33  1  0
M  CHG  2   5  -1  21  -1
M  END
>  <UniqueID>  (80) 
80

>  <SMILES>  (80) 
C=C(C(=O)[O-])C(=O)n1c(C(N)=O)cc2ccc(CC(=O)[O-])cc21

>  <Energy>  (80) 
72.84360784199616

>  <Genealogy>  (80) 
C=C(C(=O)[O-])C(=O)n1c(C(N)=O)cc2ccc(CC(=O)[O-])cc21 (protonated)
C=C(C(=O)[O-])C(=O)n1c(C(N)=O)cc2ccc(CC(=O)[O-])cc21 (3D coordinates assigned)
C=C(C(=O)[O-])C(=O)n1c(C(N)=O)cc2ccc(CC(=O)[O-])cc21 (optimized conformer: 72.84360784199616 kcal/mol)

>  <smiles>  (80) 
C=C(C(=O)O)C(=O)n1c(C(N)=O)cc2ccc(CC(=O)O)cc21

>  <score_type>  (80) 
oracle

>  <origin>  (80) 
adg

>  <m_score__min__energy>  (80) 
-7.04

>  <m_primary>  (80) 
energy

$$$$
80:0
     RDKit          3D

 23 24  0  0  0  0  0  0  0  0999 V2000
  141.5190  159.5580  132.7730 N   0  0  0  0  0  0  0  0  0  0  0  0
  142.4390  159.9030  133.8040 C   0  0  0  0  0  0  0  0  0  0  0  0
  142.0190  160.4860  134.8390 O   0  0  0  0  0  0  0  0  0  0  0  0
  143.8870  159.6540  133.6440 C   0  0  0  0  0  0  0  0  0  0  0  0
  144.8460  160.6610  133.7350 C   0  0  0  0  0  0  0  0  0  0  0  0
  146.0410  160.0560  133.4200 C   0  0  0  0  0  0  0  0  0  0  0  0
  147.3250  160.5900  133.3540 C   0  0  0  0  0  0  0  0  0  0  0  0
  148.3790  159.7250  133.0170 C   0  0  0  0  0  0  0  0  0  0  0  0
  148.1330  158.3560  132.7580 C   0  0  0  0  0  0  0  0  0  0  0  0
  149.2170  157.4840  132.4220 N   0  0  0  0  0  0  0  0  0  0  0  0
  146.8190  157.8490  132.8340 C   0  0  0  0  0  0  0  0  0  0  0  0
  145.7850  158.7350  133.1600 C   0  0  0  0  0  0  0  0  0  0  0  0
  144.4680  158.4680  133.3030 N   0  0  0  0  0  0  0  0  0  0  0  0
  143.8640  157.1680  133.2070 C   0  0  0  0  0  0  0  0  0  0  0  0
  142.7780  157.0020  132.5930 O   0  0  0  0  0  0  0  0  0  0  0  0
  141.7700  158.8540  132.0430 H   0  0  0  0  0  0  0  0  0  0  0  0
  144.6824  161.7155  134.0019 H   0  0  0  0  0  0  0  0  0  0  0  0
  147.5081  161.6551  133.5592 H   0  0  0  0  0  0  0  0  0  0  0  0
  149.4054  160.1156  132.9538 H   0  0  0  0  0  0  0  0  0  0  0  0
  149.9520  157.2510  133.1270 H   0  0  0  0  0  0  0  0  0  0  0  0
  149.2920  157.0670  131.4680 H   0  0  0  0  0  0  0  0  0  0  0  0
  146.6121  156.7858  132.6423 H   0  0  0  0  0  0  0  0  0  0  0  0
  144.3581  156.3049  133.6771 H   0  0  0  0  0  0  0  0  0  0  0  0
  1  2  1  0
  2  3  2  0
  2  4  1  0
  4  5  2  0
  5  6  1  0
  6  7  2  0
  7  8  1  0
  8  9  2  0
  9 10  1  0
  9 11  1  0
 11 12  2  0
 12 13  1  0
 13 14  1  0
 14 15  2  0
 13  4  1  0
 12  6  1  0
  1 16  1  0
  5 17  1  0
  7 18  1  0
  8 19  1  0
 10 20  1  0
 10 21  1  0
 11 22  1  0
 14 23  1  0
M  CHG  1   1  -1
M  END
>  <UniqueID>  (81) 
81

>  <SMILES>  (81) 
[NH-]C(=O)c1cc2ccc(N)cc2n1C=O

>  <Energy>  (81) 
61.54183139589798

>  <Genealogy>  (81) 
[NH-]C(=O)c1cc2ccc(N)cc2n1C=O (protonated)
[NH-]C(=O)c1cc2ccc(N)cc2n1C=O (3D coordinates assigned)
[NH-]C(=O)c1cc2ccc(N)cc2n1C=O (optimized conformer: 61.54183139589798 kcal/mol)

>  <smiles>  (81) 
NC(=O)c1cc2ccc(N)cc2n1C=O

>  <score_type>  (81) 
oracle

>  <origin>  (81) 
adg

>  <m_score__min__energy>  (81) 
-5.46

>  <m_primary>  (81) 
energy

$$$$
81:0
     RDKit          3D

 49 50  0  0  0  0  0  0  0  0999 V2000
  148.6260  150.0230  132.2030 C   0  0  0  0  0  0  0  0  0  0  0  0
  148.7030  151.5060  132.4070 C   0  0  0  0  0  0  0  0  0  0  0  0
  149.8970  152.2040  132.1000 C   0  0  0  0  0  0  0  0  0  0  0  0
  149.9650  153.6000  132.2380 C   0  0  0  0  0  0  0  0  0  0  0  0
  148.8260  154.2690  132.6800 C   0  0  0  0  0  0  0  0  0  0  0  0
  148.6080  155.6150  132.8630 C   0  0  0  0  0  0  0  0  0  0  0  0
  147.2870  155.7170  133.2920 C   0  0  0  0  0  0  0  0  0  0  0  0
  146.6490  156.9950  133.6640 C   0  0  0  0  0  0  0  0  0  0  0  0
  145.3060  157.2920  133.2780 N   0  0  0  0  0  0  0  0  0  0  0  0
  147.2820  157.8170  134.3790 O   0  0  0  0  0  0  0  0  0  0  0  0
  146.7060  154.4850  133.3590 N   0  0  0  0  0  0  0  0  0  0  0  0
  145.3330  154.1810  133.6510 C   0  0  0  0  0  0  0  0  0  0  0  0
  145.0220  153.6850  134.7690 O   0  0  0  0  0  0  0  0  0  0  0  0
  144.3450  154.4340  132.6940 O   0  0  0  0  0  0  0  0  0  0  0  0
  142.9750  154.6290  133.0280 C   0  0  0  0  0  0  0  0  0  0  0  0
  142.8110  155.8890  133.6700 O   0  0  0  0  0  0  0  0  0  0  0  0
  142.2440  156.9920  133.0300 C   0  0  0  0  0  0  0  0  0  0  0  0
  142.9780  157.8890  132.5290 O   0  0  0  0  0  0  0  0  0  0  0  0
  140.8510  157.0930  132.9600 O   0  0  0  0  0  0  0  0  0  0  0  0
  140.1130  158.2080  133.4600 C   0  0  1  0  0  0  0  0  0  0  0  0
  138.6860  157.7870  133.8160 C   0  0  0  0  0  0  0  0  0  0  0  0
  140.7990  158.7520  134.6750 C   0  0  0  0  0  0  0  0  0  0  0  0
  141.0120  158.0020  135.6660 O   0  0  0  0  0  0  0  0  0  0  0  0
  141.1640  160.1030  134.7080 O   0  0  0  0  0  0  0  0  0  0  0  0
  142.0100  160.7170  133.7370 C   0  0  0  0  0  0  0  0  0  0  0  0
  143.4820  160.4150  134.0300 C   0  0  0  0  0  0  0  0  0  0  0  0
  143.6170  159.2260  134.7610 O   0  0  0  0  0  0  0  0  0  0  0  0
  147.6640  153.6070  132.9850 C   0  0  0  0  0  0  0  0  0  0  0  0
  147.5620  152.2190  132.8360 C   0  0  0  0  0  0  0  0  0  0  0  0
  148.5999  149.5193  133.1805 H   0  0  0  0  0  0  0  0  0  0  0  0
  147.7139  149.7773  131.6394 H   0  0  0  0  0  0  0  0  0  0  0  0
  149.5078  149.6841  131.6394 H   0  0  0  0  0  0  0  0  0  0  0  0
  150.7790  151.6474  131.7503 H   0  0  0  0  0  0  0  0  0  0  0  0
  150.8895  154.1483  132.0042 H   0  0  0  0  0  0  0  0  0  0  0  0
  149.3238  156.4350  132.7044 H   0  0  0  0  0  0  0  0  0  0  0  0
  144.6980  156.5670  132.8390 H   0  0  0  0  0  0  0  0  0  0  0  0
  144.8860  158.2180  133.5150 H   0  0  0  0  0  0  0  0  0  0  0  0
  142.3682  154.6045  132.1108 H   0  0  0  0  0  0  0  0  0  0  0  0
  142.6491  153.8288  133.7088 H   0  0  0  0  0  0  0  0  0  0  0  0
  140.0657  158.9847  132.6825 H   0  0  0  0  0  0  0  0  0  0  0  0
  138.5755  157.7544  134.9099 H   0  0  0  0  0  0  0  0  0  0  0  0
  137.9741  158.5134  133.3970 H   0  0  0  0  0  0  0  0  0  0  0  0
  138.4824  156.7905  133.3970 H   0  0  0  0  0  0  0  0  0  0  0  0
  141.7541  160.3302  132.7395 H   0  0  0  0  0  0  0  0  0  0  0  0
  141.8589  161.8059  133.7757 H   0  0  0  0  0  0  0  0  0  0  0  0
  144.0247  160.3154  133.0784 H   0  0  0  0  0  0  0  0  0  0  0  0
  143.8964  161.2411  134.6265 H   0  0  0  0  0  0  0  0  0  0  0  0
  142.8200  158.6730  134.5520 H   0  0  0  0  0  0  0  0  0  0  0  0
  146.6172  151.6969  133.0477 H   0  0  0  0  0  0  0  0  0  0  0  0
  1  2  1  0
  2  3  2  0
  3  4  1  0
  4  5  2  0
  5  6  1  0
  6  7  2  0
  7  8  1  0
  8  9  1  0
  8 10  2  0
  7 11  1  0
 11 12  1  0
 12 13  2  0
 12 14  1  0
 14 15  1  0
 15 16  1  0
 16 17  1  0
 17 18  2  0
 17 19  1  0
 19 20  1  0
 20 21  1  0
 20 22  1  0
 22 23  2  0
 22 24  1  0
 24 25  1  0
 25 26  1  0
 26 27  1  0
 11 28  1  0
 28 29  2  0
 29  2  1  0
 28  5  1  0
  1 30  1  0
  1 31  1  0
  1 32  1  0
  3 33  1  0
  4 34  1  0
  6 35  1  0
  9 36  1  0
  9 37  1  0
 15 38  1  0
 15 39  1  0
 20 40  1  6
 21 41  1  0
 21 42  1  0
 21 43  1  0
 25 44  1  0
 25 45  1  0
 26 46  1  0
 26 47  1  0
 27 48  1  0
 29 49  1  0
M  END
>  <UniqueID>  (82) 
82

>  <SMILES>  (82) 
Cc1ccc2cc(C(N)=O)n(C(=O)OCOC(=O)O[C@@H](C)C(=O)OCCO)c2c1

>  <Energy>  (82) 
76.70816614180185

>  <Genealogy>  (82) 
Cc1ccc2cc(C(N)=O)n(C(=O)OCOC(=O)O[C@@H](C)C(=O)OCCO)c2c1 (3D coordinates assigned)
Cc1ccc2cc(C(N)=O)n(C(=O)OCOC(=O)O[C@@H](C)C(=O)OCCO)c2c1 (optimized conformer: 76.70816614180185 kcal/mol)

>  <smiles>  (82) 
Cc1ccc2cc(C(N)=O)n(C(=O)OCOC(=O)O[C@@H](C)C(=O)OCCO)c2c1

>  <score_type>  (82) 
oracle

>  <origin>  (82) 
adg

>  <m_score__min__energy>  (82) 
-5.2000000000000002

>  <m_primary>  (82) 
energy

$$$$
82:0
     RDKit          3D

 33 34  0  0  0  0  0  0  0  0999 V2000
  141.4330  153.8520  139.0750 C   0  0  0  0  0  0  0  0  0  0  0  0
  142.2590  154.9920  138.6900 N   0  0  0  0  0  0  0  0  0  0  0  0
  141.7810  156.0850  137.8860 C   0  0  0  0  0  0  0  0  0  0  0  0
  141.7210  157.4120  138.3940 C   0  0  0  0  0  0  0  0  0  0  0  0
  141.2440  158.4670  137.5950 C   0  0  0  0  0  0  0  0  0  0  0  0
  140.8400  158.1710  136.2980 C   0  0  0  0  0  0  0  0  0  0  0  0
  140.3230  158.9910  135.3180 C   0  0  0  0  0  0  0  0  0  0  0  0
  140.0910  158.1590  134.2240 C   0  0  0  0  0  0  0  0  0  0  0  0
  139.6030  158.6420  132.9160 C   0  0  0  0  0  0  0  0  0  0  0  0
  138.3370  158.2300  132.4080 N   0  0  0  0  0  0  0  0  0  0  0  0
  140.3260  159.4050  132.2220 O   0  0  0  0  0  0  0  0  0  0  0  0
  140.4420  156.8760  134.5210 N   0  0  0  0  0  0  0  0  0  0  0  0
  140.2960  155.7050  133.7040 C   0  0  0  0  0  0  0  0  0  0  0  0
  139.3170  155.6140  132.9150 O   0  0  0  0  0  0  0  0  0  0  0  0
  141.3480  154.6430  133.6980 C   0  0  0  0  0  0  0  0  0  0  0  0
  140.7180  153.3840  133.7280 O   0  0  0  0  0  0  0  0  0  0  0  0
  141.7840  152.2670  134.4510 P   0  0  0  0  0  0  0  0  0  0  0  0
  142.9600  152.9920  135.0630 O   0  0  0  0  0  0  0  0  0  0  0  0
  142.3500  151.2030  133.2650 O   0  0  0  0  0  0  0  0  0  0  0  0
  140.9820  151.3770  135.6480 O   0  0  0  0  0  0  0  0  0  0  0  0
  140.9020  156.9010  135.7890 C   0  0  0  0  0  0  0  0  0  0  0  0
  141.3610  155.8300  136.5620 C   0  0  0  0  0  0  0  0  0  0  0  0
  141.3860  153.7871  140.1721 H   0  0  0  0  0  0  0  0  0  0  0  0
  140.4179  153.9818  138.6715 H   0  0  0  0  0  0  0  0  0  0  0  0
  141.8725  152.9279  138.6715 H   0  0  0  0  0  0  0  0  0  0  0  0
  143.2500  155.0050  139.0220 H   0  0  0  0  0  0  0  0  0  0  0  0
  142.0513  157.6157  139.4233 H   0  0  0  0  0  0  0  0  0  0  0  0
  141.1923  159.4945  137.9844 H   0  0  0  0  0  0  0  0  0  0  0  0
  140.1337  160.0725  135.3851 H   0  0  0  0  0  0  0  0  0  0  0  0
  137.9620  157.2760  132.6080 H   0  0  0  0  0  0  0  0  0  0  0  0
  141.9573  154.7305  132.7863 H   0  0  0  0  0  0  0  0  0  0  0  0
  142.0007  154.7568  134.5761 H   0  0  0  0  0  0  0  0  0  0  0  0
  141.3942  154.8114  136.1480 H   0  0  0  0  0  0  0  0  0  0  0  0
  1  2  1  0
  2  3  1  0
  3  4  2  0
  4  5  1  0
  5  6  2  0
  6  7  1  0
  7  8  2  0
  8  9  1  0
  9 10  1  0
  9 11  2  0
  8 12  1  0
 12 13  1  0
 13 14  2  0
 13 15  1  0
 15 16  1  0
 16 17  1  0
 17 18  2  0
 17 19  1  0
 17 20  1  0
 12 21  1  0
 21 22  2  0
 22  3  1  0
 21  6  1  0
  1 23  1  0
  1 24  1  0
  1 25  1  0
  2 26  1  0
  4 27  1  0
  5 28  1  0
  7 29  1  0
 10 30  1  0
 15 31  1  0
 15 32  1  0
 22 33  1  0
M  CHG  3  10  -1  19  -1  20  -1
M  END
>  <UniqueID>  (83) 
83

>  <SMILES>  (83) 
CNc1ccc2cc(C([NH-])=O)n(C(=O)COP(=O)([O-])[O-])c2c1

>  <Energy>  (83) 
69.86195032270476

>  <Genealogy>  (83) 
CNc1ccc2cc(C([NH-])=O)n(C(=O)COP(=O)([O-])[O-])c2c1 (protonated)
CNc1ccc2cc(C([NH-])=O)n(C(=O)COP(=O)([O-])[O-])c2c1 (3D coordinates assigned)
CNc1ccc2cc(C([NH-])=O)n(C(=O)COP(=O)([O-])[O-])c2c1 (optimized conformer: 69.86195032270476 kcal/mol)

>  <smiles>  (83) 
CNc1ccc2cc(C(N)=O)n(C(=O)COP(=O)(O)O)c2c1

>  <score_type>  (83) 
oracle

>  <origin>  (83) 
adg

>  <m_score__min__energy>  (83) 
-6.7300000000000004

>  <m_primary>  (83) 
energy

$$$$
83:0
     RDKit          3D

 50 51  0  0  0  0  0  0  0  0999 V2000
  141.8410  159.2390  136.0900 C   0  0  0  0  0  0  0  0  0  0  0  0
  142.6850  158.9260  134.8530 C   0  0  2  0  0  0  0  0  0  0  0  0
  142.8550  160.1450  133.9860 C   0  0  0  0  0  0  0  0  0  0  0  0
  143.8090  160.9440  134.1780 O   0  0  0  0  0  0  0  0  0  0  0  0
  141.9270  160.4160  132.9880 O   0  0  0  0  0  0  0  0  0  0  0  0
  142.0730  157.8340  134.0830 N   0  0  0  0  0  0  0  0  0  0  0  0
  140.8270  157.3790  134.4830 O   0  0  0  0  0  0  0  0  0  0  0  0
  139.6360  158.0240  134.1370 C   0  0  0  0  0  0  0  0  0  0  0  0
  138.6320  157.9720  134.8980 O   0  0  0  0  0  0  0  0  0  0  0  0
  139.5330  158.7260  132.8110 C   0  0  1  0  0  0  0  0  0  0  0  0
  140.4520  158.0990  131.8610 N   0  0  0  0  0  0  0  0  0  0  0  0
  138.0900  158.6510  132.2670 C   0  0  0  0  0  0  0  0  0  0  0  0
  137.6550  159.9070  131.4930 C   0  0  0  0  0  0  0  0  0  0  0  0
  138.4790  160.1170  130.2600 C   0  0  0  0  0  0  0  0  0  0  0  0
  137.9250  160.4200  129.1710 O   0  0  0  0  0  0  0  0  0  0  0  0
  139.8560  159.9450  130.3060 O   0  0  0  0  0  0  0  0  0  0  0  0
  142.8570  157.0890  133.1270 C   0  0  0  0  0  0  0  0  0  0  0  0
  142.9340  157.4810  131.9310 O   0  0  0  0  0  0  0  0  0  0  0  0
  143.5710  155.9050  133.5240 N   0  0  0  0  0  0  0  0  0  0  0  0
  143.0690  154.6490  133.6940 C   0  0  0  0  0  0  0  0  0  0  0  0
  141.6450  154.2660  133.5980 C   0  0  0  0  0  0  0  0  0  0  0  0
  140.7090  155.1570  132.9970 N   0  0  0  0  0  0  0  0  0  0  0  0
  141.2480  153.1460  134.0150 O   0  0  0  0  0  0  0  0  0  0  0  0
  144.0840  153.7630  134.0500 C   0  0  0  0  0  0  0  0  0  0  0  0
  145.2330  154.5200  134.0880 C   0  0  0  0  0  0  0  0  0  0  0  0
  146.5380  154.1520  134.4000 C   0  0  0  0  0  0  0  0  0  0  0  0
  147.5300  155.1470  134.3550 C   0  0  0  0  0  0  0  0  0  0  0  0
  147.2100  156.4760  133.9730 C   0  0  0  0  0  0  0  0  0  0  0  0
  148.2670  157.5490  133.9720 C   0  0  0  0  0  0  0  0  0  0  0  0
  147.7220  158.7810  133.6520 F   0  0  0  0  0  0  0  0  0  0  0  0
  149.2370  157.2300  133.0410 F   0  0  0  0  0  0  0  0  0  0  0  0
  148.8580  157.6490  135.2210 F   0  0  0  0  0  0  0  0  0  0  0  0
  145.8680  156.8110  133.6820 C   0  0  0  0  0  0  0  0  0  0  0  0
  144.8970  155.8060  133.7580 C   0  0  0  0  0  0  0  0  0  0  0  0
  142.4250  159.0224  136.9967 H   0  0  0  0  0  0  0  0  0  0  0  0
  141.5579  160.3019  136.0814 H   0  0  0  0  0  0  0  0  0  0  0  0
  140.9333  158.6177  136.0814 H   0  0  0  0  0  0  0  0  0  0  0  0
  143.6823  158.6097  135.1926 H   0  0  0  0  0  0  0  0  0  0  0  0
  139.7999  159.7846  132.9456 H   0  0  0  0  0  0  0  0  0  0  0  0
  141.2380  158.7630  131.6730 H   0  0  0  0  0  0  0  0  0  0  0  0
  140.8900  157.2690  132.3270 H   0  0  0  0  0  0  0  0  0  0  0  0
  138.0177  157.7850  131.5926 H   0  0  0  0  0  0  0  0  0  0  0  0
  137.4227  158.5623  133.1369 H   0  0  0  0  0  0  0  0  0  0  0  0
  136.6001  159.7973  131.2012 H   0  0  0  0  0  0  0  0  0  0  0  0
  137.7965  160.7780  132.1498 H   0  0  0  0  0  0  0  0  0  0  0  0
  141.0030  156.1030  132.6660 H   0  0  0  0  0  0  0  0  0  0  0  0
  143.9875  152.6869  134.2568 H   0  0  0  0  0  0  0  0  0  0  0  0
  146.7856  153.1156  134.6731 H   0  0  0  0  0  0  0  0  0  0  0  0
  148.5670  154.8925  134.6191 H   0  0  0  0  0  0  0  0  0  0  0  0
  145.5930  157.8386  133.4021 H   0  0  0  0  0  0  0  0  0  0  0  0
  1  2  1  0
  2  3  1  0
  3  4  2  0
  3  5  1  0
  2  6  1  0
  6  7  1  0
  7  8  1  0
  8  9  2  0
  8 10  1  0
 10 11  1  0
 10 12  1  0
 12 13  1  0
 13 14  1  0
 14 15  2  0
 14 16  1  0
  6 17  1  0
 17 18  2  0
 17 19  1  0
 19 20  1  0
 20 21  1  0
 21 22  1  0
 21 23  2  0
 20 24  2  0
 24 25  1  0
 25 26  2  0
 26 27  1  0
 27 28  2  0
 28 29  1  0
 29 30  1  0
 29 31  1  0
 29 32  1  0
 28 33  1  0
 33 34  2  0
 34 19  1  0
 34 25  1  0
  1 35  1  0
  1 36  1  0
  1 37  1  0
  2 38  1  1
 10 39  1  1
 11 40  1  0
 11 41  1  0
 12 42  1  0
 12 43  1  0
 13 44  1  0
 13 45  1  0
 22 46  1  0
 24 47  1  0
 26 48  1  0
 27 49  1  0
 33 50  1  0
M  CHG  3   5  -1  16  -1  22  -1
M  END
>  <UniqueID>  (84) 
84

>  <SMILES>  (84) 
C[C@H](C(=O)[O-])N(OC(=O)[C@@H](N)CCC(=O)[O-])C(=O)n1c(C([NH-])=O)cc2ccc(C(F)(F)F)cc21

>  <Energy>  (84) 
82.12588377350676

>  <Genealogy>  (84) 
CC(C(=O)[O-])N(OC(=O)[C@@H](N)CCC(=O)[O-])C(=O)n1c(C([NH-])=O)cc2ccc(C(F)(F)F)cc21 (protonated)
C[C@H](C(=O)[O-])N(OC(=O)[C@@H](N)CCC(=O)[O-])C(=O)n1c(C([NH-])=O)cc2ccc(C(F)(F)F)cc21 (chirality)
C[C@H](C(=O)[O-])N(OC(=O)[C@@H](N)CCC(=O)[O-])C(=O)n1c(C([NH-])=O)cc2ccc(C(F)(F)F)cc21 (3D coordinates assigned)
C[C@H](C(=O)[O-])N(OC(=O)[C@@H](N)CCC(=O)[O-])C(=O)n1c(C([NH-])=O)cc2ccc(C(F)(F)F)cc21 (optimized conformer: 82.12588377350676 kcal/mol)

>  <smiles>  (84) 
CC(C(=O)O)N(OC(=O)[C@@H](N)CCC(=O)O)C(=O)n1c(C(N)=O)cc2ccc(C(F)(F)F)cc21

>  <score_type>  (84) 
oracle

>  <origin>  (84) 
adg

>  <m_score__min__energy>  (84) 
-7.3399999999999999

>  <m_primary>  (84) 
energy

$$$$
84:0
     RDKit          3D

 48 49  0  0  0  0  0  0  0  0999 V2000
  141.6940  152.1810  132.9350 C   0  0  0  0  0  0  0  0  0  0  0  0
  142.5930  153.4100  133.0180 C   0  0  0  0  0  0  0  0  0  0  0  0
  142.0860  154.3310  133.9670 O   0  0  0  0  0  0  0  0  0  0  0  0
  141.1320  155.1890  133.3720 C   0  0  0  0  0  0  0  0  0  0  0  0
  141.4950  156.6550  133.6910 C   0  0  1  0  0  0  0  0  0  0  0  0
  142.8780  157.1060  133.1660 C   0  0  0  0  0  0  0  0  0  0  0  0
  143.5690  158.1610  133.9960 C   0  0  0  0  0  0  0  0  0  0  0  0
  143.0010  158.5760  135.0420 O   0  0  0  0  0  0  0  0  0  0  0  0
  144.8510  158.7080  133.6230 N   0  0  0  0  0  0  0  0  0  0  0  0
  145.1890  160.0130  133.4110 C   0  0  0  0  0  0  0  0  0  0  0  0
  144.3560  161.1910  133.7330 C   0  0  0  0  0  0  0  0  0  0  0  0
  142.9300  161.1010  133.7610 N   0  0  0  0  0  0  0  0  0  0  0  0
  144.9150  162.2750  134.0540 O   0  0  0  0  0  0  0  0  0  0  0  0
  146.5130  160.1200  132.9920 C   0  0  0  0  0  0  0  0  0  0  0  0
  147.0000  158.8330  132.9940 C   0  0  0  0  0  0  0  0  0  0  0  0
  148.2670  158.3570  132.6770 C   0  0  0  0  0  0  0  0  0  0  0  0
  148.4940  156.9730  132.7700 C   0  0  0  0  0  0  0  0  0  0  0  0
  147.4620  156.0960  133.1950 C   0  0  0  0  0  0  0  0  0  0  0  0
  147.7020  154.6070  133.2290 C   0  0  0  0  0  0  0  0  0  0  0  0
  148.8660  154.3190  132.5410 F   0  0  0  0  0  0  0  0  0  0  0  0
  146.6490  153.9250  132.6390 F   0  0  0  0  0  0  0  0  0  0  0  0
  147.8260  154.1630  134.5350 F   0  0  0  0  0  0  0  0  0  0  0  0
  146.1820  156.6190  133.4940 C   0  0  0  0  0  0  0  0  0  0  0  0
  145.9830  158.0020  133.3910 C   0  0  0  0  0  0  0  0  0  0  0  0
  140.4340  157.6230  133.3200 N   0  0  0  0  0  0  0  0  0  0  0  0
  139.1100  157.1180  132.9300 C   0  0  0  0  0  0  0  0  0  0  0  0
  140.5990  159.0580  133.3780 C   0  0  0  0  0  0  0  0  0  0  0  0
  140.5160  159.6840  134.4670 O   0  0  0  0  0  0  0  0  0  0  0  0
  140.8870  159.7730  132.2180 O   0  0  0  0  0  0  0  0  0  0  0  0
  141.4445  151.8399  133.9506 H   0  0  0  0  0  0  0  0  0  0  0  0
  140.7696  152.4385  132.3973 H   0  0  0  0  0  0  0  0  0  0  0  0
  142.2194  151.3780  132.3973 H   0  0  0  0  0  0  0  0  0  0  0  0
  143.6043  153.0993  133.3193 H   0  0  0  0  0  0  0  0  0  0  0  0
  142.6242  153.8958  132.0316 H   0  0  0  0  0  0  0  0  0  0  0  0
  141.1322  155.0392  132.2822 H   0  0  0  0  0  0  0  0  0  0  0  0
  140.1325  154.9617  133.7711 H   0  0  0  0  0  0  0  0  0  0  0  0
  141.5724  156.6626  134.7882 H   0  0  0  0  0  0  0  0  0  0  0  0
  143.5316  156.2221  133.1267 H   0  0  0  0  0  0  0  0  0  0  0  0
  142.6963  157.5630  132.1820 H   0  0  0  0  0  0  0  0  0  0  0  0
  142.4470  160.1820  133.6480 H   0  0  0  0  0  0  0  0  0  0  0  0
  142.3550  161.9460  133.9760 H   0  0  0  0  0  0  0  0  0  0  0  0
  147.0540  161.0377  132.7179 H   0  0  0  0  0  0  0  0  0  0  0  0
  149.0677  159.0427  132.3629 H   0  0  0  0  0  0  0  0  0  0  0  0
  149.4821  156.5651  132.5106 H   0  0  0  0  0  0  0  0  0  0  0  0
  145.3609  155.9543  133.8007 H   0  0  0  0  0  0  0  0  0  0  0  0
  138.5226  156.8939  133.8326 H   0  0  0  0  0  0  0  0  0  0  0  0
  138.5882  157.8802  132.3327 H   0  0  0  0  0  0  0  0  0  0  0  0
  139.2283  156.2019  132.3327 H   0  0  0  0  0  0  0  0  0  0  0  0
  1  2  1  0
  2  3  1  0
  3  4  1  0
  4  5  1  0
  5  6  1  0
  6  7  1  0
  7  8  2  0
  7  9  1  0
  9 10  1  0
 10 11  1  0
 11 12  1  0
 11 13  2  0
 10 14  2  0
 14 15  1  0
 15 16  2  0
 16 17  1  0
 17 18  2  0
 18 19  1  0
 19 20  1  0
 19 21  1  0
 19 22  1  0
 18 23  1  0
 23 24  2  0
  5 25  1  0
 25 26  1  0
 25 27  1  0
 27 28  2  0
 27 29  1  0
 24  9  1  0
 24 15  1  0
  1 30  1  0
  1 31  1  0
  1 32  1  0
  2 33  1  0
  2 34  1  0
  4 35  1  0
  4 36  1  0
  5 37  1  1
  6 38  1  0
  6 39  1  0
 12 40  1  0
 12 41  1  0
 14 42  1  0
 16 43  1  0
 17 44  1  0
 23 45  1  0
 26 46  1  0
 26 47  1  0
 26 48  1  0
M  CHG  1  29  -1
M  END
>  <UniqueID>  (85) 
85

>  <SMILES>  (85) 
CCOC[C@@H](CC(=O)n1c(C(N)=O)cc2ccc(C(F)(F)F)cc21)N(C)C(=O)[O-]

>  <Energy>  (85) 
88.19300623627235

>  <Genealogy>  (85) 
CCOC[C@@H](CC(=O)n1c(C(N)=O)cc2ccc(C(F)(F)F)cc21)N(C)C(=O)[O-] (protonated)
CCOC[C@@H](CC(=O)n1c(C(N)=O)cc2ccc(C(F)(F)F)cc21)N(C)C(=O)[O-] (3D coordinates assigned)
CCOC[C@@H](CC(=O)n1c(C(N)=O)cc2ccc(C(F)(F)F)cc21)N(C)C(=O)[O-] (optimized conformer: 88.19300623627235 kcal/mol)

>  <smiles>  (85) 
CCOC[C@@H](CC(=O)n1c(C(N)=O)cc2ccc(C(F)(F)F)cc21)N(C)C(=O)O

>  <score_type>  (85) 
oracle

>  <origin>  (85) 
adg

>  <m_score__min__energy>  (85) 
-7.5899999999999999

>  <m_primary>  (85) 
energy

$$$$
85:0
     RDKit          3D

 38 39  0  0  0  0  0  0  0  0999 V2000
  144.7800  160.0110  133.7450 C   0  0  0  0  0  0  0  0  0  0  0  0
  145.9890  159.1740  133.4490 C   0  0  0  0  0  0  0  0  0  0  0  0
  147.2190  159.7930  133.1160 C   0  0  0  0  0  0  0  0  0  0  0  0
  148.3500  159.0180  132.8120 C   0  0  0  0  0  0  0  0  0  0  0  0
  148.2150  157.6330  132.8300 C   0  0  0  0  0  0  0  0  0  0  0  0
  149.1500  156.6510  132.5940 C   0  0  0  0  0  0  0  0  0  0  0  0
  148.4680  155.4470  132.7560 C   0  0  0  0  0  0  0  0  0  0  0  0
  149.0860  154.1200  132.5440 C   0  0  0  0  0  0  0  0  0  0  0  0
  148.2610  152.9840  132.2970 N   0  0  0  0  0  0  0  0  0  0  0  0
  150.3350  153.9740  132.5990 O   0  0  0  0  0  0  0  0  0  0  0  0
  147.1630  155.6750  133.0760 N   0  0  0  0  0  0  0  0  0  0  0  0
  146.1580  154.6930  133.3740 C   0  0  0  0  0  0  0  0  0  0  0  0
  146.4760  153.6590  134.0220 O   0  0  0  0  0  0  0  0  0  0  0  0
  144.7760  154.8210  132.7900 C   0  0  0  0  0  0  0  0  0  0  0  0
  144.2570  153.5430  132.1020 C   0  0  0  0  0  0  0  0  0  0  0  0
  144.6970  152.2280  132.7930 C   0  0  2  0  0  0  0  0  0  0  0  0
  145.9710  151.7270  132.2580 N   0  0  0  0  0  0  0  0  0  0  0  0
  143.6290  151.1820  132.6080 C   0  0  0  0  0  0  0  0  0  0  0  0
  143.9330  150.0300  132.2020 O   0  0  0  0  0  0  0  0  0  0  0  0
  142.3010  151.4790  132.8940 O   0  0  0  0  0  0  0  0  0  0  0  0
  147.0240  157.0180  133.1200 C   0  0  0  0  0  0  0  0  0  0  0  0
  145.8860  157.7660  133.4420 C   0  0  0  0  0  0  0  0  0  0  0  0
  144.6527  160.0991  134.8340 H   0  0  0  0  0  0  0  0  0  0  0  0
  144.9116  161.0123  133.3090 H   0  0  0  0  0  0  0  0  0  0  0  0
  143.8891  159.5354  133.3090 H   0  0  0  0  0  0  0  0  0  0  0  0
  147.2888  160.8906  133.0954 H   0  0  0  0  0  0  0  0  0  0  0  0
  149.3125  159.4909  132.5673 H   0  0  0  0  0  0  0  0  0  0  0  0
  150.2098  156.7876  132.3331 H   0  0  0  0  0  0  0  0  0  0  0  0
  147.2560  153.0950  132.0350 H   0  0  0  0  0  0  0  0  0  0  0  0
  144.0815  155.0812  133.6024 H   0  0  0  0  0  0  0  0  0  0  0  0
  144.8335  155.5964  132.0118 H   0  0  0  0  0  0  0  0  0  0  0  0
  143.1576  153.5775  132.0938 H   0  0  0  0  0  0  0  0  0  0  0  0
  144.6899  153.5296  131.0908 H   0  0  0  0  0  0  0  0  0  0  0  0
  144.8417  152.4418  133.8623 H   0  0  0  0  0  0  0  0  0  0  0  0
  146.3300  152.3530  131.5010 H   0  0  0  0  0  0  0  0  0  0  0  0
  145.8390  150.7650  131.8700 H   0  0  0  0  0  0  0  0  0  0  0  0
  146.6850  151.6600  133.0170 H   0  0  0  0  0  0  0  0  0  0  0  0
  144.9348  157.2692  133.6837 H   0  0  0  0  0  0  0  0  0  0  0  0
  1  2  1  0
  2  3  2  0
  3  4  1  0
  4  5  2  0
  5  6  1  0
  6  7  2  0
  7  8  1  0
  8  9  1  0
  8 10  2  0
  7 11  1  0
 11 12  1  0
 12 13  2  0
 12 14  1  0
 14 15  1  0
 15 16  1  0
 16 17  1  0
 16 18  1  0
 18 19  2  0
 18 20  1  0
 11 21  1  0
 21 22  2  0
 22  2  1  0
 21  5  1  0
  1 23  1  0
  1 24  1  0
  1 25  1  0
  3 26  1  0
  4 27  1  0
  6 28  1  0
  9 29  1  0
 14 30  1  0
 14 31  1  0
 15 32  1  0
 15 33  1  0
 16 34  1  1
 17 35  1  0
 17 36  1  0
 17 37  1  0
 22 38  1  0
M  CHG  3   9  -1  17   1  20  -1
M  END
>  <UniqueID>  (86) 
86

>  <SMILES>  (86) 
Cc1ccc2cc(C([NH-])=O)n(C(=O)CC[C@H]([NH3+])C(=O)[O-])c2c1

>  <Energy>  (86) 
75.14863811926561

>  <Genealogy>  (86) 
Cc1ccc2cc(C([NH-])=O)n(C(=O)CC[C@H]([NH3+])C(=O)[O-])c2c1 (protonated)
Cc1ccc2cc(C([NH-])=O)n(C(=O)CC[C@H]([NH3+])C(=O)[O-])c2c1 (3D coordinates assigned)
Cc1ccc2cc(C([NH-])=O)n(C(=O)CC[C@H]([NH3+])C(=O)[O-])c2c1 (optimized conformer: 75.14863811926561 kcal/mol)

>  <smiles>  (86) 
Cc1ccc2cc(C(N)=O)n(C(=O)CC[C@H](N)C(=O)O)c2c1

>  <score_type>  (86) 
oracle

>  <origin>  (86) 
adg

>  <m_score__min__energy>  (86) 
-6.2400000000000002

>  <m_primary>  (86) 
energy

$$$$
86:0
     RDKit          3D

 39 41  0  0  0  0  0  0  0  0999 V2000
  139.4970  157.0660  133.2030 C   0  0  0  0  0  0  0  0  0  0  0  0
  140.0880  157.5940  134.4800 C   0  0  0  0  0  0  0  0  0  0  0  0
  140.4450  158.9620  134.5850 C   0  0  0  0  0  0  0  0  0  0  0  0
  140.9880  159.4690  135.7760 C   0  0  0  0  0  0  0  0  0  0  0  0
  141.1840  158.5840  136.8320 C   0  0  0  0  0  0  0  0  0  0  0  0
  141.7420  158.7950  138.0740 C   0  0  0  0  0  0  0  0  0  0  0  0
  141.7280  157.5540  138.7080 C   0  0  0  0  0  0  0  0  0  0  0  0
  142.1850  157.3410  140.0990 C   0  0  0  0  0  0  0  0  0  0  0  0
  141.3630  156.6180  141.0110 N   0  0  0  0  0  0  0  0  0  0  0  0
  143.3020  157.7660  140.4910 O   0  0  0  0  0  0  0  0  0  0  0  0
  141.1650  156.6110  137.8980 N   0  0  0  0  0  0  0  0  0  0  0  0
  140.9940  155.2070  138.1620 C   0  0  0  0  0  0  0  0  0  0  0  0
  140.0900  154.8270  138.9550 O   0  0  0  0  0  0  0  0  0  0  0  0
  141.8780  154.2010  137.5520 C   0  0  0  0  0  0  0  0  0  0  0  0
  143.0780  154.4860  137.2910 O   0  0  0  0  0  0  0  0  0  0  0  0
  141.3570  152.9040  137.2190 N   0  0  0  0  0  0  0  0  0  0  0  0
  140.8830  151.9040  138.1790 C   0  0  1  0  0  0  0  0  0  0  0  0
  140.2090  150.7540  137.4850 C   0  0  0  0  0  0  0  0  0  0  0  0
  140.6270  150.3770  136.3570 O   0  0  0  0  0  0  0  0  0  0  0  0
  139.1590  150.0670  138.0870 O   0  0  0  0  0  0  0  0  0  0  0  0
  142.0580  151.4170  139.0510 C   0  0  0  0  0  0  0  0  0  0  0  0
  142.2070  152.1520  140.3750 C   0  0  0  0  0  0  0  0  0  0  0  0
  141.6760  150.7310  140.3520 C   0  0  0  0  0  0  0  0  0  0  0  0
  140.8510  157.2560  136.7460 C   0  0  0  0  0  0  0  0  0  0  0  0
  140.3160  156.7220  135.5670 C   0  0  0  0  0  0  0  0  0  0  0  0
  138.6957  156.3501  133.4383 H   0  0  0  0  0  0  0  0  0  0  0  0
  139.0830  157.9005  132.6180 H   0  0  0  0  0  0  0  0  0  0  0  0
  140.2798  156.5609  132.6180 H   0  0  0  0  0  0  0  0  0  0  0  0
  140.2952  159.6320  133.7256 H   0  0  0  0  0  0  0  0  0  0  0  0
  141.2505  160.5329  135.8717 H   0  0  0  0  0  0  0  0  0  0  0  0
  142.1197  159.7448  138.4804 H   0  0  0  0  0  0  0  0  0  0  0  0
  140.5440  156.0680  140.6730 H   0  0  0  0  0  0  0  0  0  0  0  0
  140.1313  152.3742  138.8300 H   0  0  0  0  0  0  0  0  0  0  0  0
  142.7211  151.1654  138.2101 H   0  0  0  0  0  0  0  0  0  0  0  0
  143.2088  152.3583  140.7798 H   0  0  0  0  0  0  0  0  0  0  0  0
  141.8470  153.1104  140.7773 H   0  0  0  0  0  0  0  0  0  0  0  0
  142.2929  149.9074  140.7408 H   0  0  0  0  0  0  0  0  0  0  0  0
  140.7714  150.2334  140.7315 H   0  0  0  0  0  0  0  0  0  0  0  0
  140.0794  155.6505  135.4897 H   0  0  0  0  0  0  0  0  0  0  0  0
  1  2  1  0
  2  3  2  0
  3  4  1  0
  4  5  2  0
  5  6  1  0
  6  7  2  0
  7  8  1  0
  8  9  1  0
  8 10  2  0
  7 11  1  0
 11 12  1  0
 12 13  2  0
 12 14  1  0
 14 15  2  0
 14 16  1  0
 16 17  1  0
 17 18  1  0
 18 19  2  0
 18 20  1  0
 17 21  1  0
 21 22  1  0
 22 23  1  0
 11 24  1  0
 24 25  2  0
 25  2  1  0
 24  5  1  0
 23 21  1  0
  1 26  1  0
  1 27  1  0
  1 28  1  0
  3 29  1  0
  4 30  1  0
  6 31  1  0
  9 32  1  0
 17 33  1  1
 21 34  1  0
 22 35  1  0
 22 36  1  0
 23 37  1  0
 23 38  1  0
 25 39  1  0
M  CHG  3   9  -1  16  -1  20  -1
M  END
>  <UniqueID>  (87) 
87

>  <SMILES>  (87) 
Cc1ccc2cc(C([NH-])=O)n(C(=O)C(=O)[N-][C@@H](C(=O)[O-])C3CC3)c2c1

>  <Energy>  (87) 
345.13959037332893

>  <Genealogy>  (87) 
Cc1ccc2cc(C([NH-])=O)n(C(=O)C(=O)[N-]C(C(=O)[O-])C3CC3)c2c1 (protonated)
Cc1ccc2cc(C([NH-])=O)n(C(=O)C(=O)[N-][C@@H](C(=O)[O-])C3CC3)c2c1 (chirality)
Cc1ccc2cc(C([NH-])=O)n(C(=O)C(=O)[N-][C@@H](C(=O)[O-])C3CC3)c2c1 (3D coordinates assigned)
Cc1ccc2cc(C([NH-])=O)n(C(=O)C(=O)[N-][C@@H](C(=O)[O-])C3CC3)c2c1 (nonaromatic ring conformer: 345.13959037332893 kcal/mol)

>  <smiles>  (87) 
Cc1ccc2cc(C(N)=O)n(C(=O)C(=O)NC(C(=O)O)C3CC3)c2c1

>  <score_type>  (87) 
oracle

>  <origin>  (87) 
adg

>  <m_score__min__energy>  (87) 
-7.7800000000000002

>  <m_primary>  (87) 
energy

$$$$
87:0
     RDKit          3D

 41 42  0  0  0  0  0  0  0  0999 V2000
  149.1020  154.4680  132.6190 C   0  0  0  0  0  0  0  0  0  0  0  0
  147.6490  154.7720  132.9800 C   0  0  0  0  0  0  0  0  0  0  0  0
  147.4250  156.2570  133.0900 C   0  0  0  0  0  0  0  0  0  0  0  0
  148.5230  157.1530  133.0280 C   0  0  0  0  0  0  0  0  0  0  0  0
  148.3300  158.5410  133.1620 C   0  0  0  0  0  0  0  0  0  0  0  0
  147.0320  159.0020  133.3640 C   0  0  0  0  0  0  0  0  0  0  0  0
  146.5680  160.2860  133.5520 C   0  0  0  0  0  0  0  0  0  0  0  0
  145.1900  160.1570  133.7230 C   0  0  0  0  0  0  0  0  0  0  0  0
  144.2780  161.3110  133.8650 C   0  0  0  0  0  0  0  0  0  0  0  0
  142.8670  161.1540  133.7070 N   0  0  0  0  0  0  0  0  0  0  0  0
  144.7540  162.4600  134.0810 O   0  0  0  0  0  0  0  0  0  0  0  0
  144.8200  158.8440  133.6530 N   0  0  0  0  0  0  0  0  0  0  0  0
  143.5150  158.2810  133.8750 C   0  0  0  0  0  0  0  0  0  0  0  0
  142.6230  158.3960  132.9900 O   0  0  0  0  0  0  0  0  0  0  0  0
  143.2310  157.6330  135.0840 O   0  0  0  0  0  0  0  0  0  0  0  0
  141.9040  157.3780  135.5430 C   0  0  0  0  0  0  0  0  0  0  0  0
  141.0710  158.6130  135.4190 C   0  0  0  0  0  0  0  0  0  0  0  0
  141.5230  159.7210  135.8310 O   0  0  0  0  0  0  0  0  0  0  0  0
  139.7870  158.5400  134.7890 N   0  0  0  0  0  0  0  0  0  0  0  0
  139.6030  158.0430  133.4320 C   0  0  0  0  0  0  0  0  0  0  0  0
  139.7970  159.1840  132.4360 C   0  0  0  0  0  0  0  0  0  0  0  0
  140.4820  160.2450  133.0420 O   0  0  0  0  0  0  0  0  0  0  0  0
  145.9580  158.1500  133.4260 C   0  0  0  0  0  0  0  0  0  0  0  0
  146.1230  156.7610  133.3090 C   0  0  0  0  0  0  0  0  0  0  0  0
  149.6906  154.3449  133.5401 H   0  0  0  0  0  0  0  0  0  0  0  0
  149.1469  153.5410  132.0285 H   0  0  0  0  0  0  0  0  0  0  0  0
  149.5147  155.2992  132.0285 H   0  0  0  0  0  0  0  0  0  0  0  0
  146.9905  154.3648  132.1986 H   0  0  0  0  0  0  0  0  0  0  0  0
  147.4225  154.3083  133.9514 H   0  0  0  0  0  0  0  0  0  0  0  0
  149.5380  156.7583  132.8733 H   0  0  0  0  0  0  0  0  0  0  0  0
  149.1782  159.2394  133.1088 H   0  0  0  0  0  0  0  0  0  0  0  0
  147.1583  161.2141  133.5645 H   0  0  0  0  0  0  0  0  0  0  0  0
  142.3930  160.2670  133.9840 H   0  0  0  0  0  0  0  0  0  0  0  0
  141.4575  156.5757  134.9373 H   0  0  0  0  0  0  0  0  0  0  0  0
  141.9409  157.0734  136.5993 H   0  0  0  0  0  0  0  0  0  0  0  0
  140.3395  157.2514  133.2294 H   0  0  0  0  0  0  0  0  0  0  0  0
  138.5862  157.6367  133.3273 H   0  0  0  0  0  0  0  0  0  0  0  0
  140.3784  158.8204  131.5759 H   0  0  0  0  0  0  0  0  0  0  0  0
  138.8112  159.5386  132.1006 H   0  0  0  0  0  0  0  0  0  0  0  0
  141.1360  159.8440  133.6680 H   0  0  0  0  0  0  0  0  0  0  0  0
  145.2609  156.0821  133.3858 H   0  0  0  0  0  0  0  0  0  0  0  0
  1  2  1  0
  2  3  1  0
  3  4  2  0
  4  5  1  0
  5  6  2  0
  6  7  1  0
  7  8  2  0
  8  9  1  0
  9 10  1  0
  9 11  2  0
  8 12  1  0
 12 13  1  0
 13 14  2  0
 13 15  1  0
 15 16  1  0
 16 17  1  0
 17 18  2  0
 17 19  1  0
 19 20  1  0
 20 21  1  0
 21 22  1  0
 12 23  1  0
 23 24  2  0
 24  3  1  0
 23  6  1  0
  1 25  1  0
  1 26  1  0
  1 27  1  0
  2 28  1  0
  2 29  1  0
  4 30  1  0
  5 31  1  0
  7 32  1  0
 10 33  1  0
 16 34  1  0
 16 35  1  0
 20 36  1  0
 20 37  1  0
 21 38  1  0
 21 39  1  0
 22 40  1  0
 24 41  1  0
M  CHG  2  10  -1  19  -1
M  END
>  <UniqueID>  (88) 
88

>  <SMILES>  (88) 
CCc1ccc2cc(C([NH-])=O)n(C(=O)OCC(=O)[N-]CCO)c2c1

>  <Energy>  (88) 
69.55743448977952

>  <Genealogy>  (88) 
CCc1ccc2cc(C([NH-])=O)n(C(=O)OCC(=O)[N-]CCO)c2c1 (protonated)
CCc1ccc2cc(C([NH-])=O)n(C(=O)OCC(=O)[N-]CCO)c2c1 (3D coordinates assigned)
CCc1ccc2cc(C([NH-])=O)n(C(=O)OCC(=O)[N-]CCO)c2c1 (optimized conformer: 69.55743448977952 kcal/mol)

>  <smiles>  (88) 
CCc1ccc2cc(C(N)=O)n(C(=O)OCC(=O)NCCO)c2c1

>  <score_type>  (88) 
oracle

>  <origin>  (88) 
adg

>  <m_score__min__energy>  (88) 
-5.54

>  <m_primary>  (88) 
energy

$$$$
88:0
     RDKit          3D

 40 42  0  0  0  0  0  0  0  0999 V2000
  141.4460  155.2270  137.7450 N   0  0  0  0  0  0  0  0  0  0  0  0
  142.0580  154.9720  136.7960 C   0  0  0  0  0  0  0  0  0  0  0  0
  142.8380  154.6470  135.5900 C   0  0  0  0  0  0  0  0  0  0  0  0
  142.2720  155.2400  134.3360 C   0  0  0  0  0  0  0  0  0  0  0  0
  143.3860  156.1740  134.0910 N   0  0  0  0  0  0  0  0  0  0  0  0
  143.7070  157.1990  133.1540 C   0  0  0  0  0  0  0  0  0  0  0  0
  142.8800  157.5060  132.2540 O   0  0  0  0  0  0  0  0  0  0  0  0
  144.9640  157.8810  133.2340 N   0  0  0  0  0  0  0  0  0  0  0  0
  145.1840  159.2090  133.4460 C   0  0  0  0  0  0  0  0  0  0  0  0
  144.1470  160.2240  133.7340 C   0  0  0  0  0  0  0  0  0  0  0  0
  142.7900  160.0190  133.3480 N   0  0  0  0  0  0  0  0  0  0  0  0
  144.4600  161.2770  134.3510 O   0  0  0  0  0  0  0  0  0  0  0  0
  146.5490  159.4870  133.4080 C   0  0  0  0  0  0  0  0  0  0  0  0
  147.1610  158.2770  133.1640 C   0  0  0  0  0  0  0  0  0  0  0  0
  148.5080  157.9650  133.0120 C   0  0  0  0  0  0  0  0  0  0  0  0
  148.8510  156.6310  132.7360 C   0  0  0  0  0  0  0  0  0  0  0  0
  147.8440  155.6330  132.6030 C   0  0  0  0  0  0  0  0  0  0  0  0
  148.1620  154.2570  132.3120 N   0  0  0  0  0  0  0  0  0  0  0  0
  149.4380  153.6000  132.6090 C   0  0  0  0  0  0  0  0  0  0  0  0
  149.2980  152.0780  132.5630 C   0  0  0  0  0  0  0  0  0  0  0  0
  147.9500  151.6950  132.5270 O   0  0  0  0  0  0  0  0  0  0  0  0
  146.4890  155.9950  132.7650 C   0  0  0  0  0  0  0  0  0  0  0  0
  146.1810  157.3260  133.0600 C   0  0  0  0  0  0  0  0  0  0  0  0
  143.9560  155.6070  135.3270 C   0  0  0  0  0  0  0  0  0  0  0  0
  142.9757  153.5684  135.7561 H   0  0  0  0  0  0  0  0  0  0  0  0
  142.1536  154.4993  133.5314 H   0  0  0  0  0  0  0  0  0  0  0  0
  141.2610  155.6693  134.3957 H   0  0  0  0  0  0  0  0  0  0  0  0
  142.5510  159.6320  132.4090 H   0  0  0  0  0  0  0  0  0  0  0  0
  147.0346  160.4646  133.5439 H   0  0  0  0  0  0  0  0  0  0  0  0
  149.2824  158.7406  133.1052 H   0  0  0  0  0  0  0  0  0  0  0  0
  149.9094  156.3542  132.6213 H   0  0  0  0  0  0  0  0  0  0  0  0
  147.4300  153.6690  131.8540 H   0  0  0  0  0  0  0  0  0  0  0  0
  150.1855  153.9145  131.8658 H   0  0  0  0  0  0  0  0  0  0  0  0
  149.7532  153.8912  133.6219 H   0  0  0  0  0  0  0  0  0  0  0  0
  149.8034  151.6980  131.6629 H   0  0  0  0  0  0  0  0  0  0  0  0
  149.7559  151.6579  133.4707 H   0  0  0  0  0  0  0  0  0  0  0  0
  147.7410  151.2920  133.4090 H   0  0  0  0  0  0  0  0  0  0  0  0
  145.6916  155.2444  132.6611 H   0  0  0  0  0  0  0  0  0  0  0  0
  144.9186  155.1021  135.1582 H   0  0  0  0  0  0  0  0  0  0  0  0
  144.2107  156.3127  136.1315 H   0  0  0  0  0  0  0  0  0  0  0  0
  1  2  3  0
  2  3  1  0
  3  4  1  0
  4  5  1  0
  5  6  1  0
  6  7  2  0
  6  8  1  0
  8  9  1  0
  9 10  1  0
 10 11  1  0
 10 12  2  0
  9 13  2  0
 13 14  1  0
 14 15  2  0
 15 16  1  0
 16 17  2  0
 17 18  1  0
 18 19  1  0
 19 20  1  0
 20 21  1  0
 17 22  1  0
 22 23  2  0
  5 24  1  0
 24  3  1  0
 23  8  1  0
 23 14  1  0
  3 25  1  0
  4 26  1  0
  4 27  1  0
 11 28  1  0
 13 29  1  0
 15 30  1  0
 16 31  1  0
 18 32  1  0
 19 33  1  0
 19 34  1  0
 20 35  1  0
 20 36  1  0
 21 37  1  0
 22 38  1  0
 24 39  1  0
 24 40  1  0
M  CHG  1  11  -1
M  END
>  <UniqueID>  (89) 
89

>  <SMILES>  (89) 
N#CC1CN(C(=O)n2c(C([NH-])=O)cc3ccc(NCCO)cc32)C1

>  <Energy>  (89) 
122.9819679015022

>  <Genealogy>  (89) 
N#CC1CN(C(=O)n2c(C([NH-])=O)cc3ccc(NCCO)cc32)C1 (protonated)
N#CC1CN(C(=O)n2c(C([NH-])=O)cc3ccc(NCCO)cc32)C1 (3D coordinates assigned)
N#CC1CN(C(=O)n2c(C([NH-])=O)cc3ccc(NCCO)cc32)C1 (nonaromatic ring conformer: 122.9819679015022 kcal/mol)

>  <smiles>  (89) 
N#CC1CN(C(=O)n2c(C(N)=O)cc3ccc(NCCO)cc32)C1

>  <score_type>  (89) 
oracle

>  <origin>  (89) 
adg

>  <m_score__min__energy>  (89) 
-7.7400000000000002

>  <m_primary>  (89) 
energy

$$$$
89:0
     RDKit          3D

 34 35  0  0  0  0  0  0  0  0999 V2000
  138.7310  161.1080  130.8210 C   0  0  0  0  0  0  0  0  0  0  0  0
  138.9990  159.8630  131.6210 C   0  0  0  0  0  0  0  0  0  0  0  0
  139.9830  159.8880  132.5430 C   0  0  0  0  0  0  0  0  0  0  0  0
  140.2460  158.8380  133.5490 C   0  0  0  0  0  0  0  0  0  0  0  0
  139.3670  158.6100  134.4210 O   0  0  0  0  0  0  0  0  0  0  0  0
  141.4400  158.0290  133.5220 N   0  0  0  0  0  0  0  0  0  0  0  0
  141.5360  156.6780  133.3620 C   0  0  0  0  0  0  0  0  0  0  0  0
  140.3980  155.7360  133.3120 C   0  0  0  0  0  0  0  0  0  0  0  0
  139.0900  156.1930  132.9640 N   0  0  0  0  0  0  0  0  0  0  0  0
  140.5780  154.5130  133.5500 O   0  0  0  0  0  0  0  0  0  0  0  0
  142.8720  156.2840  133.3450 C   0  0  0  0  0  0  0  0  0  0  0  0
  143.5960  157.4400  133.5170 C   0  0  0  0  0  0  0  0  0  0  0  0
  144.9740  157.6360  133.5670 C   0  0  0  0  0  0  0  0  0  0  0  0
  145.4480  158.9490  133.7280 C   0  0  0  0  0  0  0  0  0  0  0  0
  144.5420  160.0320  133.8440 C   0  0  0  0  0  0  0  0  0  0  0  0
  145.0610  161.4340  133.9640 C   0  0  0  0  0  0  0  0  0  0  0  0
  143.1520  159.7980  133.7740 C   0  0  0  0  0  0  0  0  0  0  0  0
  142.7100  158.4780  133.6270 C   0  0  0  0  0  0  0  0  0  0  0  0
  138.1520  158.6770  131.3670 C   0  0  0  0  0  0  0  0  0  0  0  0
  136.9770  158.6160  131.8160 O   0  0  0  0  0  0  0  0  0  0  0  0
  138.6750  157.5850  130.6860 O   0  0  0  0  0  0  0  0  0  0  0  0
  138.5496  161.9508  131.5041 H   0  0  0  0  0  0  0  0  0  0  0  0
  139.6017  161.3309  130.1869 H   0  0  0  0  0  0  0  0  0  0  0  0
  137.8457  160.9529  130.1869 H   0  0  0  0  0  0  0  0  0  0  0  0
  140.6467  160.7652  132.5464 H   0  0  0  0  0  0  0  0  0  0  0  0
  138.8920  157.2070  132.8130 H   0  0  0  0  0  0  0  0  0  0  0  0
  138.2980  155.5150  132.8980 H   0  0  0  0  0  0  0  0  0  0  0  0
  143.2646  155.2640  133.2204 H   0  0  0  0  0  0  0  0  0  0  0  0
  145.6703  156.7886  133.4830 H   0  0  0  0  0  0  0  0  0  0  0  0
  146.5311  159.1375  133.7643 H   0  0  0  0  0  0  0  0  0  0  0  0
  145.1591  161.6989  135.0271 H   0  0  0  0  0  0  0  0  0  0  0  0
  146.0446  161.5039  133.4765 H   0  0  0  0  0  0  0  0  0  0  0  0
  144.3600  162.1275  133.4765 H   0  0  0  0  0  0  0  0  0  0  0  0
  142.4353  160.6304  133.8334 H   0  0  0  0  0  0  0  0  0  0  0  0
  1  2  1  0
  2  3  2  3
  3  4  1  0
  4  5  2  0
  4  6  1  0
  6  7  1  0
  7  8  1  0
  8  9  1  0
  8 10  2  0
  7 11  2  0
 11 12  1  0
 12 13  2  0
 13 14  1  0
 14 15  2  0
 15 16  1  0
 15 17  1  0
 17 18  2  0
  2 19  1  0
 19 20  2  0
 19 21  1  0
 18  6  1  0
 18 12  1  0
  1 22  1  0
  1 23  1  0
  1 24  1  0
  3 25  1  0
  9 26  1  0
  9 27  1  0
 11 28  1  0
 13 29  1  0
 14 30  1  0
 16 31  1  0
 16 32  1  0
 16 33  1  0
 17 34  1  0
M  CHG  1  21  -1
M  END
>  <UniqueID>  (90) 
90

>  <SMILES>  (90) 
CC(=CC(=O)n1c(C(N)=O)cc2ccc(C)cc21)C(=O)[O-]

>  <Energy>  (90) 
78.41836523637521

>  <Genealogy>  (90) 
CC(=CC(=O)n1c(C(N)=O)cc2ccc(C)cc21)C(=O)[O-] (protonated)
CC(=CC(=O)n1c(C(N)=O)cc2ccc(C)cc21)C(=O)[O-] (3D coordinates assigned)
CC(=CC(=O)n1c(C(N)=O)cc2ccc(C)cc21)C(=O)[O-] (optimized conformer: 78.41836523637521 kcal/mol)

>  <smiles>  (90) 
CC(=CC(=O)n1c(C(N)=O)cc2ccc(C)cc21)C(=O)O

>  <score_type>  (90) 
oracle

>  <origin>  (90) 
adg

>  <m_score__min__energy>  (90) 
-7.1200000000000001

>  <m_primary>  (90) 
energy

$$$$
90:0
     RDKit          3D

 45 46  0  0  0  0  0  0  0  0999 V2000
  148.9390  161.8680  130.5570 C   0  0  0  0  0  0  0  0  0  0  0  0
  148.8960  160.5460  131.2640 C   0  0  0  0  0  0  0  0  0  0  0  0
  150.0240  159.6900  131.2370 C   0  0  0  0  0  0  0  0  0  0  0  0
  149.9820  158.4310  131.8600 C   0  0  0  0  0  0  0  0  0  0  0  0
  148.8000  158.0540  132.4900 C   0  0  0  0  0  0  0  0  0  0  0  0
  148.4760  156.8880  133.1460 C   0  0  0  0  0  0  0  0  0  0  0  0
  147.1550  157.0520  133.5610 C   0  0  0  0  0  0  0  0  0  0  0  0
  146.4290  156.0680  134.3890 C   0  0  0  0  0  0  0  0  0  0  0  0
  145.3590  155.3130  133.8230 N   0  0  0  0  0  0  0  0  0  0  0  0
  146.7670  155.8600  135.5840 O   0  0  0  0  0  0  0  0  0  0  0  0
  146.6800  158.2670  133.1690 N   0  0  0  0  0  0  0  0  0  0  0  0
  145.3520  158.7920  133.3280 C   0  0  0  0  0  0  0  0  0  0  0  0
  145.2010  159.9940  133.6810 O   0  0  0  0  0  0  0  0  0  0  0  0
  144.2140  157.9640  133.0440 N   0  0  0  0  0  0  0  0  0  0  0  0
  142.8540  158.4360  133.0460 C   0  0  0  0  0  0  0  0  0  0  0  0
  142.6060  159.6410  133.3330 O   0  0  0  0  0  0  0  0  0  0  0  0
  141.7700  157.5260  132.7170 N   0  0  2  0  0  0  0  0  0  0  0  0
  140.5970  158.3000  132.2550 C   0  0  0  0  0  0  0  0  0  0  0  0
  141.4840  156.5450  133.8220 C   0  0  0  0  0  0  0  0  0  0  0  0
  141.6550  157.1650  135.2370 C   0  0  0  0  0  0  0  0  0  0  0  0
  140.0320  156.0090  133.7200 C   0  0  0  0  0  0  0  0  0  0  0  0
  142.4080  155.3390  133.6770 C   0  0  0  0  0  0  0  0  0  0  0  0
  143.1060  155.1730  132.6390 O   0  0  0  0  0  0  0  0  0  0  0  0
  142.4410  154.3660  134.6720 O   0  0  0  0  0  0  0  0  0  0  0  0
  147.6980  158.8700  132.5200 C   0  0  0  0  0  0  0  0  0  0  0  0
  147.7060  160.1240  131.8980 C   0  0  0  0  0  0  0  0  0  0  0  0
  148.9654  162.6798  131.2988 H   0  0  0  0  0  0  0  0  0  0  0  0
  149.8392  161.9177  129.9268 H   0  0  0  0  0  0  0  0  0  0  0  0
  148.0439  161.9761  129.9268 H   0  0  0  0  0  0  0  0  0  0  0  0
  150.9415  160.0136  130.7236 H   0  0  0  0  0  0  0  0  0  0  0  0
  150.8567  157.7640  131.8499 H   0  0  0  0  0  0  0  0  0  0  0  0
  149.1221  156.0127  133.3083 H   0  0  0  0  0  0  0  0  0  0  0  0
  144.4630  155.1800  134.3400 H   0  0  0  0  0  0  0  0  0  0  0  0
  144.3910  156.9700  132.7800 H   0  0  0  0  0  0  0  0  0  0  0  0
  142.0760  156.9740  131.8800 H   0  0  0  0  0  0  0  0  0  0  0  0
  140.0359  158.6702  133.1257 H   0  0  0  0  0  0  0  0  0  0  0  0
  140.9361  159.1523  131.6479 H   0  0  0  0  0  0  0  0  0  0  0  0
  139.9468  157.6530  131.6479 H   0  0  0  0  0  0  0  0  0  0  0  0
  141.4443  156.4011  135.9999 H   0  0  0  0  0  0  0  0  0  0  0  0
  142.6867  157.5275  135.3562 H   0  0  0  0  0  0  0  0  0  0  0  0
  140.9550  158.0051  135.3562 H   0  0  0  0  0  0  0  0  0  0  0  0
  139.6248  155.8587  134.7307 H   0  0  0  0  0  0  0  0  0  0  0  0
  139.4097  156.7367  133.1785 H   0  0  0  0  0  0  0  0  0  0  0  0
  140.0318  155.0515  133.1785 H   0  0  0  0  0  0  0  0  0  0  0  0
  146.8107  160.7631  131.9027 H   0  0  0  0  0  0  0  0  0  0  0  0
  1  2  1  0
  2  3  2  0
  3  4  1  0
  4  5  2  0
  5  6  1  0
  6  7  2  0
  7  8  1  0
  8  9  1  0
  8 10  2  0
  7 11  1  0
 11 12  1  0
 12 13  2  0
 12 14  1  0
 14 15  1  0
 15 16  2  0
 15 17  1  0
 17 18  1  0
 17 19  1  0
 19 20  1  0
 19 21  1  0
 19 22  1  0
 22 23  2  0
 22 24  1  0
 11 25  1  0
 25 26  2  0
 26  2  1  0
 25  5  1  0
  1 27  1  0
  1 28  1  0
  1 29  1  0
  3 30  1  0
  4 31  1  0
  6 32  1  0
  9 33  1  0
 14 34  1  0
 17 35  1  6
 18 36  1  0
 18 37  1  0
 18 38  1  0
 20 39  1  0
 20 40  1  0
 20 41  1  0
 21 42  1  0
 21 43  1  0
 21 44  1  0
 26 45  1  0
M  CHG  3   9  -1  17   1  24  -1
M  END
>  <UniqueID>  (91) 
91

>  <SMILES>  (91) 
Cc1ccc2cc(C([NH-])=O)n(C(=O)NC(=O)[NH+](C)C(C)(C)C(=O)[O-])c2c1

>  <Energy>  (91) 
92.68025662380597

>  <Genealogy>  (91) 
Cc1ccc2cc(C([NH-])=O)n(C(=O)NC(=O)[NH+](C)C(C)(C)C(=O)[O-])c2c1 (protonated)
Cc1ccc2cc(C([NH-])=O)n(C(=O)NC(=O)[NH+](C)C(C)(C)C(=O)[O-])c2c1 (3D coordinates assigned)
Cc1ccc2cc(C([NH-])=O)n(C(=O)NC(=O)[NH+](C)C(C)(C)C(=O)[O-])c2c1 (optimized conformer: 92.68025662380597 kcal/mol)

>  <smiles>  (91) 
Cc1ccc2cc(C(N)=O)n(C(=O)NC(=O)N(C)C(C)(C)C(=O)O)c2c1

>  <score_type>  (91) 
oracle

>  <origin>  (91) 
adg

>  <m_score__min__energy>  (91) 
-7.0199999999999996

>  <m_primary>  (91) 
energy

$$$$
91:0
     RDKit          3D

 55 56  0  0  0  0  0  0  0  0999 V2000
  144.3880  154.4840  131.5500 C   0  0  0  0  0  0  0  0  0  0  0  0
  144.7300  154.1270  132.8840 O   0  0  0  0  0  0  0  0  0  0  0  0
  143.8560  154.3000  133.9650 C   0  0  0  0  0  0  0  0  0  0  0  0
  142.9760  153.4290  134.2160 O   0  0  0  0  0  0  0  0  0  0  0  0
  143.9520  155.5290  134.8200 C   0  0  0  0  0  0  0  0  0  0  0  0
  142.8750  156.4720  134.4750 N   0  0  0  0  0  0  0  0  0  0  0  0
  141.6030  156.3780  135.1490 C   0  0  0  0  0  0  0  0  0  0  0  0
  141.2090  155.2660  135.5930 O   0  0  0  0  0  0  0  0  0  0  0  0
  140.7900  157.5100  135.2740 O   0  0  0  0  0  0  0  0  0  0  0  0
  139.5160  157.6450  134.6510 C   0  0  0  0  0  0  0  0  0  0  0  0
  139.6160  157.3310  133.2620 O   0  0  0  0  0  0  0  0  0  0  0  0
  139.4280  158.2600  132.2310 C   0  0  0  0  0  0  0  0  0  0  0  0
  140.3930  158.6260  131.5030 O   0  0  0  0  0  0  0  0  0  0  0  0
  138.0480  158.8030  131.9800 C   0  0  0  0  0  0  0  0  0  0  0  0
  138.0330  160.1520  131.3650 N   0  0  0  0  0  0  0  0  0  0  0  0
  138.0360  160.1060  129.8940 C   0  0  0  0  0  0  0  0  0  0  0  0
  139.1040  161.0240  131.8710 C   0  0  0  0  0  0  0  0  0  0  0  0
  143.0800  157.4190  133.3980 C   0  0  0  0  0  0  0  0  0  0  0  0
  142.3440  157.4000  132.3740 O   0  0  0  0  0  0  0  0  0  0  0  0
  144.0950  158.4260  133.4900 N   0  0  0  0  0  0  0  0  0  0  0  0
  143.9150  159.7660  133.6410 C   0  0  0  0  0  0  0  0  0  0  0  0
  142.6080  160.4480  133.6970 C   0  0  0  0  0  0  0  0  0  0  0  0
  141.4350  159.7170  134.0490 N   0  0  0  0  0  0  0  0  0  0  0  0
  142.5280  161.6840  133.4820 O   0  0  0  0  0  0  0  0  0  0  0  0
  145.1440  160.4270  133.6430 C   0  0  0  0  0  0  0  0  0  0  0  0
  146.0870  159.4340  133.4780 C   0  0  0  0  0  0  0  0  0  0  0  0
  147.4720  159.5210  133.3710 C   0  0  0  0  0  0  0  0  0  0  0  0
  148.1950  158.3300  133.1890 C   0  0  0  0  0  0  0  0  0  0  0  0
  147.5290  157.0760  133.1360 C   0  0  0  0  0  0  0  0  0  0  0  0
  148.3230  155.8100  132.9080 C   0  0  0  0  0  0  0  0  0  0  0  0
  148.4220  155.0680  134.0720 F   0  0  0  0  0  0  0  0  0  0  0  0
  147.6950  155.0510  131.9400 F   0  0  0  0  0  0  0  0  0  0  0  0
  149.6050  156.1180  132.4800 F   0  0  0  0  0  0  0  0  0  0  0  0
  146.1150  157.0300  133.2250 C   0  0  0  0  0  0  0  0  0  0  0  0
  145.4250  158.2330  133.3960 C   0  0  0  0  0  0  0  0  0  0  0  0
  143.6271  155.2782  131.5666 H   0  0  0  0  0  0  0  0  0  0  0  0
  145.2848  154.8462  131.0260 H   0  0  0  0  0  0  0  0  0  0  0  0
  143.9877  153.6036  131.0260 H   0  0  0  0  0  0  0  0  0  0  0  0
  143.8603  155.2437  135.8784 H   0  0  0  0  0  0  0  0  0  0  0  0
  144.9239  156.0136  134.6453 H   0  0  0  0  0  0  0  0  0  0  0  0
  138.8020  156.9583  135.1292 H   0  0  0  0  0  0  0  0  0  0  0  0
  139.1677  158.6824  134.7625 H   0  0  0  0  0  0  0  0  0  0  0  0
  137.5209  158.1104  131.3073 H   0  0  0  0  0  0  0  0  0  0  0  0
  137.5592  158.8952  132.9611 H   0  0  0  0  0  0  0  0  0  0  0  0
  138.1040  159.0601  129.5600 H   0  0  0  0  0  0  0  0  0  0  0  0
  137.1069  160.5535  129.5113 H   0  0  0  0  0  0  0  0  0  0  0  0
  138.8994  160.6700  129.5113 H   0  0  0  0  0  0  0  0  0  0  0  0
  139.0943  161.0161  132.9709 H   0  0  0  0  0  0  0  0  0  0  0  0
  140.0764  160.6575  131.5102 H   0  0  0  0  0  0  0  0  0  0  0  0
  138.9422  162.0505  131.5102 H   0  0  0  0  0  0  0  0  0  0  0  0
  141.2030  158.8200  133.5650 H   0  0  0  0  0  0  0  0  0  0  0  0
  145.3223  161.5069  133.7525 H   0  0  0  0  0  0  0  0  0  0  0  0
  147.9849  160.4925  133.4272 H   0  0  0  0  0  0  0  0  0  0  0  0
  149.2895  158.3689  133.0863 H   0  0  0  0  0  0  0  0  0  0  0  0
  145.5757  156.0734  133.1612 H   0  0  0  0  0  0  0  0  0  0  0  0
  1  2  1  0
  2  3  1  0
  3  4  2  0
  3  5  1  0
  5  6  1  0
  6  7  1  0
  7  8  2  0
  7  9  1  0
  9 10  1  0
 10 11  1  0
 11 12  1  0
 12 13  2  0
 12 14  1  0
 14 15  1  0
 15 16  1  0
 15 17  1  0
  6 18  1  0
 18 19  2  0
 18 20  1  0
 20 21  1  0
 21 22  1  0
 22 23  1  0
 22 24  2  0
 21 25  2  0
 25 26  1  0
 26 27  2  0
 27 28  1  0
 28 29  2  0
 29 30  1  0
 30 31  1  0
 30 32  1  0
 30 33  1  0
 29 34  1  0
 34 35  2  0
 35 20  1  0
 35 26  1  0
  1 36  1  0
  1 37  1  0
  1 38  1  0
  5 39  1  0
  5 40  1  0
 10 41  1  0
 10 42  1  0
 14 43  1  0
 14 44  1  0
 16 45  1  0
 16 46  1  0
 16 47  1  0
 17 48  1  0
 17 49  1  0
 17 50  1  0
 23 51  1  0
 25 52  1  0
 27 53  1  0
 28 54  1  0
 34 55  1  0
M  CHG  1  23  -1
M  END
>  <UniqueID>  (92) 
92

>  <SMILES>  (92) 
COC(=O)CN(C(=O)OCOC(=O)CN(C)C)C(=O)n1c(C([NH-])=O)cc2ccc(C(F)(F)F)cc21

>  <Energy>  (92) 
93.08467788953553

>  <Genealogy>  (92) 
COC(=O)CN(C(=O)OCOC(=O)CN(C)C)C(=O)n1c(C([NH-])=O)cc2ccc(C(F)(F)F)cc21 (protonated)
COC(=O)CN(C(=O)OCOC(=O)CN(C)C)C(=O)n1c(C([NH-])=O)cc2ccc(C(F)(F)F)cc21 (3D coordinates assigned)
COC(=O)CN(C(=O)OCOC(=O)CN(C)C)C(=O)n1c(C([NH-])=O)cc2ccc(C(F)(F)F)cc21 (optimized conformer: 93.08467788953553 kcal/mol)

>  <smiles>  (92) 
COC(=O)CN(C(=O)OCOC(=O)CN(C)C)C(=O)n1c(C(N)=O)cc2ccc(C(F)(F)F)cc21

>  <score_type>  (92) 
oracle

>  <origin>  (92) 
adg

>  <m_score__min__energy>  (92) 
-6.21

>  <m_primary>  (92) 
energy

$$$$
92:0
     RDKit          3D

 38 39  0  0  0  0  0  0  0  0999 V2000
  139.4170  159.3340  136.3360 H   0  0  0  0  0  0  0  0  0  0  0  0
  140.4130  159.3580  136.6520 N   0  0  0  0  0  0  0  0  0  0  0  0
  141.4630  158.9050  135.8020 C   0  0  0  0  0  0  0  0  0  0  0  0
  142.3640  159.7130  135.4550 O   0  0  0  0  0  0  0  0  0  0  0  0
  141.4930  157.5140  135.3030 C   0  0  0  0  0  0  0  0  0  0  0  0
  142.4820  156.5920  135.6450 C   0  0  0  0  0  0  0  0  0  0  0  0
  143.3325  156.7480  136.3250 H   0  0  0  0  0  0  0  0  0  0  0  0
  142.1680  155.4450  134.9510 C   0  0  0  0  0  0  0  0  0  0  0  0
  142.8000  154.2060  134.9340 C   0  0  0  0  0  0  0  0  0  0  0  0
  143.7163  154.0291  135.5163 H   0  0  0  0  0  0  0  0  0  0  0  0
  142.2320  153.1870  134.1500 C   0  0  0  0  0  0  0  0  0  0  0  0
  142.7135  152.1988  134.1108 H   0  0  0  0  0  0  0  0  0  0  0  0
  141.0420  153.4190  133.4070 C   0  0  0  0  0  0  0  0  0  0  0  0
  140.4380  152.3840  132.6070 N   0  0  0  0  0  0  0  0  0  0  0  0
  139.6980  152.6650  131.9240 H   0  0  0  0  0  0  0  0  0  0  0  0
  140.8010  150.9690  132.7190 C   0  0  0  0  0  0  0  0  0  0  0  0
  141.7301  150.7937  132.1568 H   0  0  0  0  0  0  0  0  0  0  0  0
  140.9348  150.7324  133.7849 H   0  0  0  0  0  0  0  0  0  0  0  0
  139.7010  150.0550  132.1600 C   0  0  0  0  0  0  0  0  0  0  0  0
  139.1889  149.5621  132.9995 H   0  0  0  0  0  0  0  0  0  0  0  0
  139.0056  150.6784  131.5788 H   0  0  0  0  0  0  0  0  0  0  0  0
  140.2630  148.9830  131.2280 C   0  0  0  0  0  0  0  0  0  0  0  0
  140.6903  149.4621  130.3348 H   0  0  0  0  0  0  0  0  0  0  0  0
  141.0466  148.4171  131.7531 H   0  0  0  0  0  0  0  0  0  0  0  0
  139.2510  148.1210  130.8480 F   0  0  0  0  0  0  0  0  0  0  0  0
  140.4310  154.6910  133.4560 C   0  0  0  0  0  0  0  0  0  0  0  0
  139.5036  154.8910  132.8993 H   0  0  0  0  0  0  0  0  0  0  0  0
  141.0310  155.6910  134.2280 C   0  0  0  0  0  0  0  0  0  0  0  0
  140.6090  156.9570  134.4290 N   0  0  0  0  0  0  0  0  0  0  0  0
  139.4210  157.5540  133.8870 C   0  0  0  0  0  0  0  0  0  0  0  0
  138.6280  158.1540  134.6610 O   0  0  0  0  0  0  0  0  0  0  0  0
  139.1070  157.3850  132.4520 C   0  0  0  0  0  0  0  0  0  0  0  0
  139.0018  156.3535  132.0845 H   0  0  0  0  0  0  0  0  0  0  0  0
  138.9380  158.3680  131.5550 C   0  0  0  0  0  0  0  0  0  0  0  0
  138.5403  158.0820  130.5701 H   0  0  0  0  0  0  0  0  0  0  0  0
  139.2360  159.7960  131.7670 C   0  0  0  0  0  0  0  0  0  0  0  0
  140.2070  160.1190  132.5000 O   0  0  0  0  0  0  0  0  0  0  0  0
  138.4100  160.7900  131.2600 O   0  0  0  0  0  0  0  0  0  0  0  0
  1  2  1  0
  2  3  1  0
  3  4  2  0
  3  5  1  0
  5  6  2  0
  6  7  1  0
  6  8  1  0
  8  9  2  0
  9 10  1  0
  9 11  1  0
 11 12  1  0
 11 13  2  0
 13 14  1  0
 14 15  1  0
 14 16  1  0
 16 17  1  0
 16 18  1  0
 16 19  1  0
 19 20  1  0
 19 21  1  0
 19 22  1  0
 22 23  1  0
 22 24  1  0
 22 25  1  0
 13 26  1  0
 26 27  1  0
 26 28  2  0
 28 29  1  0
 29 30  1  0
 30 31  2  0
 30 32  1  0
 32 33  1  0
 32 34  2  0
 34 35  1  0
 34 36  1  0
 36 37  2  0
 36 38  1  0
 29  5  1  0
 28  8  1  0
M  CHG  2   2  -1  38  -1
M  END
>  <UniqueID>  (93) 
93

>  <SMILES>  (93) 
[NH-]C(=O)c1cc2ccc(NCCCF)cc2n1C(=O)/C=C\C(=O)[O-]

>  <Energy>  (93) 
79.19649584468766

>  <Genealogy>  (93) 
[NH-]C(=O)c1cc2ccc(NCCCF)cc2n1C(=O)/C=C\C(=O)[O-] (protonated)
[NH-]C(=O)c1cc2ccc(NCCCF)cc2n1C(=O)/C=C\C(=O)[O-] (cis-trans isomerization)
[NH-]C(=O)c1cc2ccc(NCCCF)cc2n1C(=O)/C=C\C(=O)[O-] (3D coordinates assigned)
[NH-]C(=O)c1cc2ccc(NCCCF)cc2n1C(=O)/C=C\C(=O)[O-] (optimized conformer: 79.19649584468766 kcal/mol)

>  <smiles>  (93) 
NC(=O)c1cc2ccc(NCCCF)cc2n1C(=O)/C=C\C(=O)O

>  <score_type>  (93) 
oracle

>  <origin>  (93) 
adg

>  <m_score__min__energy>  (93) 
-6.8399999999999999

>  <m_primary>  (93) 
energy

$$$$
93:0
     RDKit          3D

 44 45  0  0  0  0  0  0  0  0999 V2000
  145.1170  160.4160  133.4530 C   0  0  0  0  0  0  0  0  0  0  0  0
  146.1590  159.3590  133.2440 C   0  0  0  0  0  0  0  0  0  0  0  0
  147.5060  159.7230  132.9900 C   0  0  0  0  0  0  0  0  0  0  0  0
  148.4950  158.7380  132.8270 C   0  0  0  0  0  0  0  0  0  0  0  0
  148.1110  157.4040  132.9370 C   0  0  0  0  0  0  0  0  0  0  0  0
  148.8570  156.2510  132.8300 C   0  0  0  0  0  0  0  0  0  0  0  0
  147.9600  155.2090  133.0570 C   0  0  0  0  0  0  0  0  0  0  0  0
  148.3480  153.7830  133.0810 C   0  0  0  0  0  0  0  0  0  0  0  0
  148.2070  152.9890  134.2610 N   0  0  0  0  0  0  0  0  0  0  0  0
  148.8570  153.2680  132.0510 O   0  0  0  0  0  0  0  0  0  0  0  0
  146.7090  155.7000  133.2730 N   0  0  0  0  0  0  0  0  0  0  0  0
  145.4890  154.9630  133.4420 C   0  0  0  0  0  0  0  0  0  0  0  0
  145.1990  154.0600  132.6110 O   0  0  0  0  0  0  0  0  0  0  0  0
  144.6140  155.2220  134.5580 N   0  0  0  0  0  0  0  0  0  0  0  0
  143.5370  156.2040  134.4080 C   0  0  0  0  0  0  0  0  0  0  0  0
  144.7300  154.4570  135.8060 C   0  0  0  0  0  0  0  0  0  0  0  0
  146.1660  154.2530  136.1800 C   0  0  0  0  0  0  0  0  0  0  0  0
  147.0030  155.1690  135.9600 O   0  0  0  0  0  0  0  0  0  0  0  0
  146.5830  152.9970  136.7330 N   0  0  0  0  0  0  0  0  0  0  0  0
  147.5120  152.8150  137.8470 C   0  0  1  0  0  0  0  0  0  0  0  0
  147.0630  151.6610  138.7490 C   0  0  0  0  0  0  0  0  0  0  0  0
  148.9230  152.6440  137.3570 C   0  0  0  0  0  0  0  0  0  0  0  0
  149.1480  151.9500  136.3320 O   0  0  0  0  0  0  0  0  0  0  0  0
  149.9920  153.2160  138.0380 O   0  0  0  0  0  0  0  0  0  0  0  0
  146.8170  157.0420  133.2050 C   0  0  0  0  0  0  0  0  0  0  0  0
  145.8100  157.9970  133.3610 C   0  0  0  0  0  0  0  0  0  0  0  0
  144.9636  160.5716  134.5311 H   0  0  0  0  0  0  0  0  0  0  0  0
  145.4510  161.3566  132.9906 H   0  0  0  0  0  0  0  0  0  0  0  0
  144.1717  160.0955  132.9906 H   0  0  0  0  0  0  0  0  0  0  0  0
  147.7792  160.7862  132.9199 H   0  0  0  0  0  0  0  0  0  0  0  0
  149.5398  159.0122  132.6190 H   0  0  0  0  0  0  0  0  0  0  0  0
  149.9321  156.1700  132.6118 H   0  0  0  0  0  0  0  0  0  0  0  0
  148.0180  153.4240  135.1890 H   0  0  0  0  0  0  0  0  0  0  0  0
  148.4300  151.9700  134.2350 H   0  0  0  0  0  0  0  0  0  0  0  0
  143.1890  156.5213  135.4021 H   0  0  0  0  0  0  0  0  0  0  0  0
  143.9118  157.0777  133.8546 H   0  0  0  0  0  0  0  0  0  0  0  0
  142.7016  155.7503  133.8546 H   0  0  0  0  0  0  0  0  0  0  0  0
  144.2228  155.0063  136.6129 H   0  0  0  0  0  0  0  0  0  0  0  0
  144.2636  153.4719  135.6575 H   0  0  0  0  0  0  0  0  0  0  0  0
  147.4997  153.7278  138.4606 H   0  0  0  0  0  0  0  0  0  0  0  0
  147.1769  151.9539  139.8031 H   0  0  0  0  0  0  0  0  0  0  0  0
  146.0078  151.4259  138.5457 H   0  0  0  0  0  0  0  0  0  0  0  0
  147.6819  150.7746  138.5457 H   0  0  0  0  0  0  0  0  0  0  0  0
  144.7729  157.6955  133.5694 H   0  0  0  0  0  0  0  0  0  0  0  0
  1  2  1  0
  2  3  2  0
  3  4  1  0
  4  5  2  0
  5  6  1  0
  6  7  2  0
  7  8  1  0
  8  9  1  0
  8 10  2  0
  7 11  1  0
 11 12  1  0
 12 13  2  0
 12 14  1  0
 14 15  1  0
 14 16  1  0
 16 17  1  0
 17 18  2  0
 17 19  1  0
 19 20  1  0
 20 21  1  0
 20 22  1  0
 22 23  2  0
 22 24  1  0
 11 25  1  0
 25 26  2  0
 26  2  1  0
 25  5  1  0
  1 27  1  0
  1 28  1  0
  1 29  1  0
  3 30  1  0
  4 31  1  0
  6 32  1  0
  9 33  1  0
  9 34  1  0
 15 35  1  0
 15 36  1  0
 15 37  1  0
 16 38  1  0
 16 39  1  0
 20 40  1  1
 21 41  1  0
 21 42  1  0
 21 43  1  0
 26 44  1  0
M  CHG  2  19  -1  24  -1
M  END
>  <UniqueID>  (94) 
94

>  <SMILES>  (94) 
Cc1ccc2cc(C(N)=O)n(C(=O)N(C)CC(=O)[N-][C@@H](C)C(=O)[O-])c2c1

>  <Energy>  (94) 
77.2999712085094

>  <Genealogy>  (94) 
Cc1ccc2cc(C(N)=O)n(C(=O)N(C)CC(=O)[N-]C(C)C(=O)[O-])c2c1 (protonated)
Cc1ccc2cc(C(N)=O)n(C(=O)N(C)CC(=O)[N-][C@@H](C)C(=O)[O-])c2c1 (chirality)
Cc1ccc2cc(C(N)=O)n(C(=O)N(C)CC(=O)[N-][C@@H](C)C(=O)[O-])c2c1 (3D coordinates assigned)
Cc1ccc2cc(C(N)=O)n(C(=O)N(C)CC(=O)[N-][C@@H](C)C(=O)[O-])c2c1 (optimized conformer: 77.2999712085094 kcal/mol)

>  <smiles>  (94) 
Cc1ccc2cc(C(N)=O)n(C(=O)N(C)CC(=O)NC(C)C(=O)O)c2c1

>  <score_type>  (94) 
oracle

>  <origin>  (94) 
adg

>  <m_score__min__energy>  (94) 
-6.8600000000000003

>  <m_primary>  (94) 
energy

$$$$
94:0
     RDKit          3D

 37 38  0  0  0  0  0  0  0  0999 V2000
  142.8740  155.1970  135.8190 C   0  0  0  0  0  0  0  0  0  0  0  0
  142.4000  156.1860  134.8440 N   0  0  0  0  0  0  0  0  0  0  0  0
  141.0210  156.0930  134.3490 C   0  0  0  0  0  0  0  0  0  0  0  0
  143.2830  157.2390  134.3740 C   0  0  0  0  0  0  0  0  0  0  0  0
  142.7980  158.5660  134.1900 C   0  0  0  0  0  0  0  0  0  0  0  0
  143.6480  159.5930  133.7470 C   0  0  0  0  0  0  0  0  0  0  0  0
  144.9740  159.2750  133.4800 C   0  0  0  0  0  0  0  0  0  0  0  0
  146.0150  160.0830  133.0830 C   0  0  0  0  0  0  0  0  0  0  0  0
  147.1200  159.2410  132.9920 C   0  0  0  0  0  0  0  0  0  0  0  0
  148.4610  159.6950  132.5690 C   0  0  0  0  0  0  0  0  0  0  0  0
  149.6400  158.9850  132.9500 N   0  0  0  0  0  0  0  0  0  0  0  0
  148.5630  160.7020  131.8190 O   0  0  0  0  0  0  0  0  0  0  0  0
  146.7790  157.9650  133.3250 N   0  0  0  0  0  0  0  0  0  0  0  0
  147.6590  156.8390  133.4660 C   0  0  0  0  0  0  0  0  0  0  0  0
  148.3860  156.4930  132.4950 O   0  0  0  0  0  0  0  0  0  0  0  0
  147.6880  156.0750  134.7270 C   0  0  0  0  0  0  0  0  0  0  0  0
  147.7540  154.7430  134.7560 C   0  0  0  0  0  0  0  0  0  0  0  0
  147.8100  153.8720  136.3170 P   0  0  0  0  0  0  0  0  0  0  0  0
  148.3390  154.7950  137.3920 O   0  0  0  0  0  0  0  0  0  0  0  0
  146.2530  153.3590  136.7340 O   0  0  0  0  0  0  0  0  0  0  0  0
  148.8280  152.5280  136.1800 O   0  0  0  0  0  0  0  0  0  0  0  0
  145.4610  158.0040  133.6250 C   0  0  0  0  0  0  0  0  0  0  0  0
  144.6460  156.9670  134.0950 C   0  0  0  0  0  0  0  0  0  0  0  0
  142.6946  155.5713  136.8377 H   0  0  0  0  0  0  0  0  0  0  0  0
  142.3314  154.2510  135.6751 H   0  0  0  0  0  0  0  0  0  0  0  0
  143.9513  155.0274  135.6751 H   0  0  0  0  0  0  0  0  0  0  0  0
  140.3277  156.0462  135.2017 H   0  0  0  0  0  0  0  0  0  0  0  0
  140.7906  156.9776  133.7372 H   0  0  0  0  0  0  0  0  0  0  0  0
  140.9115  155.1854  133.7372 H   0  0  0  0  0  0  0  0  0  0  0  0
  141.7413  158.7899  134.3981 H   0  0  0  0  0  0  0  0  0  0  0  0
  143.2746  160.6193  133.6153 H   0  0  0  0  0  0  0  0  0  0  0  0
  145.9812  161.1637  132.8807 H   0  0  0  0  0  0  0  0  0  0  0  0
  150.5800  159.3540  132.6850 H   0  0  0  0  0  0  0  0  0  0  0  0
  149.5840  158.0480  133.4060 H   0  0  0  0  0  0  0  0  0  0  0  0
  147.6539  156.6241  135.6795 H   0  0  0  0  0  0  0  0  0  0  0  0
  147.7741  154.1764  133.8133 H   0  0  0  0  0  0  0  0  0  0  0  0
  145.0567  155.9577  134.2453 H   0  0  0  0  0  0  0  0  0  0  0  0
  1  2  1  0
  2  3  1  0
  2  4  1  0
  4  5  2  0
  5  6  1  0
  6  7  2  0
  7  8  1  0
  8  9  2  0
  9 10  1  0
 10 11  1  0
 10 12  2  0
  9 13  1  0
 13 14  1  0
 14 15  2  0
 14 16  1  0
 16 17  2  3
 17 18  1  0
 18 19  2  0
 18 20  1  0
 18 21  1  0
 13 22  1  0
 22 23  2  0
 23  4  1  0
 22  7  1  0
  1 24  1  0
  1 25  1  0
  1 26  1  0
  3 27  1  0
  3 28  1  0
  3 29  1  0
  5 30  1  0
  6 31  1  0
  8 32  1  0
 11 33  1  0
 11 34  1  0
 16 35  1  0
 17 36  1  0
 23 37  1  0
M  CHG  2  20  -1  21  -1
M  END
>  <UniqueID>  (95) 
95

>  <SMILES>  (95) 
CN(C)c1ccc2cc(C(N)=O)n(C(=O)C=CP(=O)([O-])[O-])c2c1

>  <Energy>  (95) 
73.82039994507538

>  <Genealogy>  (95) 
CN(C)c1ccc2cc(C(N)=O)n(C(=O)C=CP(=O)([O-])[O-])c2c1 (protonated)
CN(C)c1ccc2cc(C(N)=O)n(C(=O)C=CP(=O)([O-])[O-])c2c1 (3D coordinates assigned)
CN(C)c1ccc2cc(C(N)=O)n(C(=O)C=CP(=O)([O-])[O-])c2c1 (optimized conformer: 73.82039994507538 kcal/mol)

>  <smiles>  (95) 
CN(C)c1ccc2cc(C(N)=O)n(C(=O)C=CP(=O)(O)O)c2c1

>  <score_type>  (95) 
oracle

>  <origin>  (95) 
adg

>  <m_score__min__energy>  (95) 
-7.2699999999999996

>  <m_primary>  (95) 
energy

$$$$
95:0
     RDKit          3D

 42 43  0  0  0  0  0  0  0  0999 V2000
  148.5930  156.3070  132.9140 C   0  0  0  0  0  0  0  0  0  0  0  0
  147.7060  157.5120  133.0150 C   0  0  0  0  0  0  0  0  0  0  0  0
  148.2560  158.8100  132.8780 C   0  0  0  0  0  0  0  0  0  0  0  0
  147.4460  159.9500  133.0230 C   0  0  0  0  0  0  0  0  0  0  0  0
  146.0960  159.7590  133.3040 C   0  0  0  0  0  0  0  0  0  0  0  0
  145.1010  160.6800  133.5430 C   0  0  0  0  0  0  0  0  0  0  0  0
  143.9580  159.9280  133.8060 C   0  0  0  0  0  0  0  0  0  0  0  0
  142.6360  160.5190  134.0990 C   0  0  0  0  0  0  0  0  0  0  0  0
  141.7140  159.8780  134.9830 N   0  0  0  0  0  0  0  0  0  0  0  0
  142.2970  161.5870  133.5250 O   0  0  0  0  0  0  0  0  0  0  0  0
  144.2370  158.5960  133.7390 N   0  0  0  0  0  0  0  0  0  0  0  0
  143.3600  157.5110  134.0760 C   0  0  0  0  0  0  0  0  0  0  0  0
  143.2120  157.1990  135.2880 O   0  0  0  0  0  0  0  0  0  0  0  0
  142.6330  156.7990  133.0000 C   0  0  0  0  0  0  0  0  0  0  0  0
  141.3890  156.3000  133.0790 C   0  0  0  0  0  0  0  0  0  0  0  0
  140.4860  156.3900  134.2820 C   0  0  0  0  0  0  0  0  0  0  0  0
  140.1300  157.7930  134.5850 N   0  0  0  0  0  0  0  0  0  0  0  0
  139.3490  158.3840  133.4780 C   0  0  0  0  0  0  0  0  0  0  0  0
  139.3620  157.8610  135.8480 C   0  0  0  0  0  0  0  0  0  0  0  0
  140.2670  158.1800  137.0000 C   0  0  0  0  0  0  0  0  0  0  0  0
  140.7220  159.3050  137.1340 O   0  0  0  0  0  0  0  0  0  0  0  0
  145.5490  158.5080  133.4350 C   0  0  0  0  0  0  0  0  0  0  0  0
  146.3370  157.3570  133.3210 C   0  0  0  0  0  0  0  0  0  0  0  0
  148.8513  155.9561  133.9240 H   0  0  0  0  0  0  0  0  0  0  0  0
  148.0659  155.5081  132.3719 H   0  0  0  0  0  0  0  0  0  0  0  0
  149.5125  156.5729  132.3719 H   0  0  0  0  0  0  0  0  0  0  0  0
  149.3270  158.9273  132.6561 H   0  0  0  0  0  0  0  0  0  0  0  0
  147.8659  160.9612  132.9177 H   0  0  0  0  0  0  0  0  0  0  0  0
  145.1896  161.7763  133.5292 H   0  0  0  0  0  0  0  0  0  0  0  0
  141.8780  158.9080  135.3300 H   0  0  0  0  0  0  0  0  0  0  0  0
  140.8040  160.3370  135.2110 H   0  0  0  0  0  0  0  0  0  0  0  0
  143.1626  156.6663  132.0451 H   0  0  0  0  0  0  0  0  0  0  0  0
  140.9962  155.7823  132.1915 H   0  0  0  0  0  0  0  0  0  0  0  0
  139.5653  155.8223  134.0818 H   0  0  0  0  0  0  0  0  0  0  0  0
  141.0206  155.9734  135.1484 H   0  0  0  0  0  0  0  0  0  0  0  0
  138.5359  158.9993  133.8906 H   0  0  0  0  0  0  0  0  0  0  0  0
  140.0069  159.0125  132.8598 H   0  0  0  0  0  0  0  0  0  0  0  0
  138.9230  157.5801  132.8598 H   0  0  0  0  0  0  0  0  0  0  0  0
  138.5952  158.6450  135.7629 H   0  0  0  0  0  0  0  0  0  0  0  0
  138.8895  156.8842  136.0285 H   0  0  0  0  0  0  0  0  0  0  0  0
  140.5224  157.3962  137.7284 H   0  0  0  0  0  0  0  0  0  0  0  0
  145.9007  156.3577  133.4661 H   0  0  0  0  0  0  0  0  0  0  0  0
  1  2  1  0
  2  3  2  0
  3  4  1  0
  4  5  2  0
  5  6  1  0
  6  7  2  0
  7  8  1  0
  8  9  1  0
  8 10  2  0
  7 11  1  0
 11 12  1  0
 12 13  2  0
 12 14  1  0
 14 15  2  3
 15 16  1  0
 16 17  1  0
 17 18  1  0
 17 19  1  0
 19 20  1  0
 20 21  2  0
 11 22  1  0
 22 23  2  0
 23  2  1  0
 22  5  1  0
  1 24  1  0
  1 25  1  0
  1 26  1  0
  3 27  1  0
  4 28  1  0
  6 29  1  0
  9 30  1  0
  9 31  1  0
 14 32  1  0
 15 33  1  0
 16 34  1  0
 16 35  1  0
 18 36  1  0
 18 37  1  0
 18 38  1  0
 19 39  1  0
 19 40  1  0
 20 41  1  0
 23 42  1  0
M  END
>  <UniqueID>  (96) 
96

>  <SMILES>  (96) 
Cc1ccc2cc(C(N)=O)n(C(=O)C=CCN(C)CC=O)c2c1

>  <Energy>  (96) 
80.84645114995213

>  <Genealogy>  (96) 
Cc1ccc2cc(C(N)=O)n(C(=O)C=CCN(C)CC=O)c2c1 (3D coordinates assigned)
Cc1ccc2cc(C(N)=O)n(C(=O)C=CCN(C)CC=O)c2c1 (optimized conformer: 80.84645114995213 kcal/mol)

>  <smiles>  (96) 
Cc1ccc2cc(C(N)=O)n(C(=O)C=CCN(C)CC=O)c2c1

>  <score_type>  (96) 
oracle

>  <origin>  (96) 
adg

>  <m_score__min__energy>  (96) 
-6.5

>  <m_primary>  (96) 
energy

$$$$
96:0
     RDKit          3D

 44 45  0  0  0  0  0  0  0  0999 V2000
  140.9400  150.0230  132.9980 C   0  0  0  0  0  0  0  0  0  0  0  0
  141.3350  151.0440  133.9550 N   0  0  0  0  0  0  0  0  0  0  0  0
  141.6510  152.3780  133.5560 C   0  0  0  0  0  0  0  0  0  0  0  0
  140.9990  152.9110  132.6190 O   0  0  0  0  0  0  0  0  0  0  0  0
  142.6720  153.0790  134.2020 O   0  0  0  0  0  0  0  0  0  0  0  0
  142.5150  153.6460  135.4980 C   0  0  0  0  0  0  0  0  0  0  0  0
  143.8460  154.1050  136.0090 C   0  0  0  0  0  0  0  0  0  0  0  0
  144.1670  153.8250  137.1960 O   0  0  0  0  0  0  0  0  0  0  0  0
  144.7500  154.8730  135.1840 N   0  0  0  0  0  0  0  0  0  0  0  0
  146.1420  155.0970  135.6030 C   0  0  0  0  0  0  0  0  0  0  0  0
  146.9020  153.8070  135.6130 C   0  0  0  0  0  0  0  0  0  0  0  0
  147.5200  153.4300  134.5830 O   0  0  0  0  0  0  0  0  0  0  0  0
  146.9360  153.0270  136.7600 O   0  0  0  0  0  0  0  0  0  0  0  0
  144.2880  155.4110  133.9260 C   0  0  0  0  0  0  0  0  0  0  0  0
  144.1890  154.6610  132.9180 O   0  0  0  0  0  0  0  0  0  0  0  0
  143.9650  156.8060  133.7960 N   0  0  0  0  0  0  0  0  0  0  0  0
  142.7260  157.3660  133.7180 C   0  0  0  0  0  0  0  0  0  0  0  0
  141.4470  156.6360  133.8780 C   0  0  0  0  0  0  0  0  0  0  0  0
  141.2860  155.3150  133.3560 N   0  0  0  0  0  0  0  0  0  0  0  0
  140.4760  157.1840  134.4640 O   0  0  0  0  0  0  0  0  0  0  0  0
  142.8280  158.7470  133.5450 C   0  0  0  0  0  0  0  0  0  0  0  0
  144.1790  159.0120  133.5100 C   0  0  0  0  0  0  0  0  0  0  0  0
  144.8520  160.2200  133.3620 C   0  0  0  0  0  0  0  0  0  0  0  0
  146.2570  160.1950  133.3510 C   0  0  0  0  0  0  0  0  0  0  0  0
  146.9620  158.9680  133.4610 C   0  0  0  0  0  0  0  0  0  0  0  0
  148.4690  158.9570  133.4960 C   0  0  0  0  0  0  0  0  0  0  0  0
  148.9630  157.8220  132.8770 F   0  0  0  0  0  0  0  0  0  0  0  0
  148.9470  160.0740  132.8390 F   0  0  0  0  0  0  0  0  0  0  0  0
  148.9280  158.9710  134.8030 F   0  0  0  0  0  0  0  0  0  0  0  0
  146.2400  157.7640  133.6290 C   0  0  0  0  0  0  0  0  0  0  0  0
  144.8430  157.8230  133.6580 C   0  0  0  0  0  0  0  0  0  0  0  0
  140.5941  149.1290  133.5375 H   0  0  0  0  0  0  0  0  0  0  0  0
  140.1259  150.4079  132.3663 H   0  0  0  0  0  0  0  0  0  0  0  0
  141.8012  149.7598  132.3663 H   0  0  0  0  0  0  0  0  0  0  0  0
  141.8286  154.5037  135.4419 H   0  0  0  0  0  0  0  0  0  0  0  0
  142.1023  152.8889  136.1810 H   0  0  0  0  0  0  0  0  0  0  0  0
  146.6230  155.7948  134.9018 H   0  0  0  0  0  0  0  0  0  0  0  0
  146.1437  155.5182  136.6192 H   0  0  0  0  0  0  0  0  0  0  0  0
  142.0810  154.8000  132.9180 H   0  0  0  0  0  0  0  0  0  0  0  0
  140.3680  154.8260  133.4450 H   0  0  0  0  0  0  0  0  0  0  0  0
  142.0042  159.4704  133.4556 H   0  0  0  0  0  0  0  0  0  0  0  0
  144.3012  161.1663  133.2567 H   0  0  0  0  0  0  0  0  0  0  0  0
  146.8168  161.1371  133.2561 H   0  0  0  0  0  0  0  0  0  0  0  0
  146.7650  156.8031  133.7344 H   0  0  0  0  0  0  0  0  0  0  0  0
  1  2  1  0
  2  3  1  0
  3  4  2  0
  3  5  1  0
  5  6  1  0
  6  7  1  0
  7  8  2  0
  7  9  1  0
  9 10  1  0
 10 11  1  0
 11 12  2  0
 11 13  1  0
  9 14  1  0
 14 15  2  0
 14 16  1  0
 16 17  1  0
 17 18  1  0
 18 19  1  0
 18 20  2  0
 17 21  2  0
 21 22  1  0
 22 23  2  0
 23 24  1  0
 24 25  2  0
 25 26  1  0
 26 27  1  0
 26 28  1  0
 26 29  1  0
 25 30  1  0
 30 31  2  0
 31 16  1  0
 31 22  1  0
  1 32  1  0
  1 33  1  0
  1 34  1  0
  6 35  1  0
  6 36  1  0
 10 37  1  0
 10 38  1  0
 19 39  1  0
 19 40  1  0
 21 41  1  0
 23 42  1  0
 24 43  1  0
 30 44  1  0
M  CHG  2   2  -1  13  -1
M  END
>  <UniqueID>  (97) 
97

>  <SMILES>  (97) 
C[N-]C(=O)OCC(=O)N(CC(=O)[O-])C(=O)n1c(C(N)=O)cc2ccc(C(F)(F)F)cc21

>  <Energy>  (97) 
78.12395303088685

>  <Genealogy>  (97) 
C[N-]C(=O)OCC(=O)N(CC(=O)[O-])C(=O)n1c(C(N)=O)cc2ccc(C(F)(F)F)cc21 (protonated)
C[N-]C(=O)OCC(=O)N(CC(=O)[O-])C(=O)n1c(C(N)=O)cc2ccc(C(F)(F)F)cc21 (3D coordinates assigned)
C[N-]C(=O)OCC(=O)N(CC(=O)[O-])C(=O)n1c(C(N)=O)cc2ccc(C(F)(F)F)cc21 (optimized conformer: 78.12395303088685 kcal/mol)

>  <smiles>  (97) 
CNC(=O)OCC(=O)N(CC(=O)O)C(=O)n1c(C(N)=O)cc2ccc(C(F)(F)F)cc21

>  <score_type>  (97) 
oracle

>  <origin>  (97) 
adg

>  <m_score__min__energy>  (97) 
-6.1799999999999997

>  <m_primary>  (97) 
energy

$$$$
97:0
     RDKit          3D

 30 31  0  0  0  0  0  0  0  0999 V2000
  137.7070  158.6770  131.8530 N   0  0  0  0  0  0  0  0  0  0  0  0
  138.8300  159.5300  131.6480 C   0  0  0  0  0  0  0  0  0  0  0  0
  138.6930  160.6050  131.0060 O   0  0  0  0  0  0  0  0  0  0  0  0
  140.1730  159.1360  132.1770 C   0  0  0  0  0  0  0  0  0  0  0  0
  140.1350  157.8050  132.6830 O   0  0  0  0  0  0  0  0  0  0  0  0
  139.7570  157.4910  133.9930 C   0  0  0  0  0  0  0  0  0  0  0  0
  138.6420  157.8720  134.4440 O   0  0  0  0  0  0  0  0  0  0  0  0
  140.6330  156.7100  134.8200 N   0  0  0  0  0  0  0  0  0  0  0  0
  141.0790  156.9980  136.0760 C   0  0  0  0  0  0  0  0  0  0  0  0
  140.8760  158.2720  136.7980 C   0  0  0  0  0  0  0  0  0  0  0  0
  140.2030  159.3670  136.1810 N   0  0  0  0  0  0  0  0  0  0  0  0
  141.3480  158.4130  137.9580 O   0  0  0  0  0  0  0  0  0  0  0  0
  141.8420  155.9450  136.5770 C   0  0  0  0  0  0  0  0  0  0  0  0
  141.8600  155.0000  135.5780 C   0  0  0  0  0  0  0  0  0  0  0  0
  142.4650  153.7470  135.5420 C   0  0  0  0  0  0  0  0  0  0  0  0
  142.2940  152.9660  134.3860 C   0  0  0  0  0  0  0  0  0  0  0  0
  141.5220  153.4460  133.3010 C   0  0  0  0  0  0  0  0  0  0  0  0
  141.3450  152.6360  132.1360 N   0  0  0  0  0  0  0  0  0  0  0  0
  140.9210  154.7210  133.3720 C   0  0  0  0  0  0  0  0  0  0  0  0
  141.1230  155.4850  134.5270 C   0  0  0  0  0  0  0  0  0  0  0  0
  137.7810  157.8310  132.4590 H   0  0  0  0  0  0  0  0  0  0  0  0
  140.9138  159.1947  131.3659 H   0  0  0  0  0  0  0  0  0  0  0  0
  140.4509  159.8204  132.9921 H   0  0  0  0  0  0  0  0  0  0  0  0
  139.1790  159.3220  135.9800 H   0  0  0  0  0  0  0  0  0  0  0  0
  142.3269  155.8829  137.5624 H   0  0  0  0  0  0  0  0  0  0  0  0
  143.0586  153.3793  136.3920 H   0  0  0  0  0  0  0  0  0  0  0  0
  142.7641  151.9734  134.3239 H   0  0  0  0  0  0  0  0  0  0  0  0
  140.4020  152.2700  131.8770 H   0  0  0  0  0  0  0  0  0  0  0  0
  142.1570  152.3960  131.5240 H   0  0  0  0  0  0  0  0  0  0  0  0
  140.3100  155.1041  132.5414 H   0  0  0  0  0  0  0  0  0  0  0  0
  1  2  1  0
  2  3  2  0
  2  4  1  0
  4  5  1  0
  5  6  1  0
  6  7  2  0
  6  8  1  0
  8  9  1  0
  9 10  1  0
 10 11  1  0
 10 12  2  0
  9 13  2  0
 13 14  1  0
 14 15  2  0
 15 16  1  0
 16 17  2  0
 17 18  1  0
 17 19  1  0
 19 20  2  0
 20  8  1  0
 20 14  1  0
  1 21  1  0
  4 22  1  0
  4 23  1  0
 11 24  1  0
 13 25  1  0
 15 26  1  0
 16 27  1  0
 18 28  1  0
 18 29  1  0
 19 30  1  0
M  CHG  2   1  -1  11  -1
M  END
>  <UniqueID>  (98) 
98

>  <SMILES>  (98) 
[NH-]C(=O)COC(=O)n1c(C([NH-])=O)cc2ccc(N)cc21

>  <Energy>  (98) 
65.79703368460044

>  <Genealogy>  (98) 
[NH-]C(=O)COC(=O)n1c(C([NH-])=O)cc2ccc(N)cc21 (protonated)
[NH-]C(=O)COC(=O)n1c(C([NH-])=O)cc2ccc(N)cc21 (3D coordinates assigned)
[NH-]C(=O)COC(=O)n1c(C([NH-])=O)cc2ccc(N)cc21 (optimized conformer: 65.79703368460044 kcal/mol)

>  <smiles>  (98) 
NC(=O)COC(=O)n1c(C(N)=O)cc2ccc(N)cc21

>  <score_type>  (98) 
oracle

>  <origin>  (98) 
adg

>  <m_score__min__energy>  (98) 
-6.0800000000000001

>  <m_primary>  (98) 
energy

$$$$
