0:0
     RDKit          3D

 34 36  0  0  0  0  0  0  0  0999 V2000
  149.5860  157.2840  132.2340 N   0  0  0  0  0  0  0  0  0  0  0  0
  149.1330  158.6350  132.2530 C   0  0  0  0  0  0  0  0  0  0  0  0
  149.8750  159.5430  131.7900 O   0  0  0  0  0  0  0  0  0  0  0  0
  147.7910  158.9780  132.7690 C   0  0  0  0  0  0  0  0  0  0  0  0
  147.3610  160.2850  132.9940 C   0  0  0  0  0  0  0  0  0  0  0  0
  146.0420  160.1750  133.3730 C   0  0  0  0  0  0  0  0  0  0  0  0
  145.1240  161.1590  133.7250 C   0  0  0  0  0  0  0  0  0  0  0  0
  143.8310  160.7520  134.0950 C   0  0  0  0  0  0  0  0  0  0  0  0
  143.4790  159.3760  134.1090 C   0  0  0  0  0  0  0  0  0  0  0  0
  142.1200  158.9580  134.5110 C   0  0  0  0  0  0  0  0  0  0  0  0
  141.8080  158.4970  135.7390 N   0  0  0  0  0  0  0  0  0  0  0  0
  140.4880  158.2560  135.6230 C   0  0  0  0  0  0  0  0  0  0  0  0
  140.0220  158.5520  134.3970 N   0  0  0  0  0  0  0  0  0  0  0  0
  141.0500  158.9950  133.6950 N   0  0  0  0  0  0  0  0  0  0  0  0
  144.4410  158.4080  133.7390 C   0  0  0  0  0  0  0  0  0  0  0  0
  145.7170  158.8450  133.3710 C   0  0  0  0  0  0  0  0  0  0  0  0
  146.7810  158.0980  133.0110 N   0  0  0  0  0  0  0  0  0  0  0  0
  146.8330  156.6630  132.9910 C   0  0  0  0  0  0  0  0  0  0  0  0
  147.0440  156.0600  131.9040 O   0  0  0  0  0  0  0  0  0  0  0  0
  146.5340  155.8680  134.2310 C   0  0  0  0  0  0  0  0  0  0  0  0
  147.5930  154.7870  134.4780 C   0  0  0  0  0  0  0  0  0  0  0  0
  147.7070  154.4290  135.9300 C   0  0  0  0  0  0  0  0  0  0  0  0
  148.4710  155.0830  136.6870 O   0  0  0  0  0  0  0  0  0  0  0  0
  146.9810  153.3610  136.4420 O   0  0  0  0  0  0  0  0  0  0  0  0
  149.1220  156.5720  131.6280 H   0  0  0  0  0  0  0  0  0  0  0  0
  147.9504  161.2080  132.8907 H   0  0  0  0  0  0  0  0  0  0  0  0
  145.4018  162.2233  133.7141 H   0  0  0  0  0  0  0  0  0  0  0  0
  143.0829  161.5076  134.3770 H   0  0  0  0  0  0  0  0  0  0  0  0
  139.8628  157.8621  136.4379 H   0  0  0  0  0  0  0  0  0  0  0  0
  144.1914  157.3367  133.7407 H   0  0  0  0  0  0  0  0  0  0  0  0
  146.5109  156.5489  135.0946 H   0  0  0  0  0  0  0  0  0  0  0  0
  145.5615  155.3721  134.0954 H   0  0  0  0  0  0  0  0  0  0  0  0
  147.3182  153.8853  133.9110 H   0  0  0  0  0  0  0  0  0  0  0  0
  148.5649  155.1843  134.1501 H   0  0  0  0  0  0  0  0  0  0  0  0
  1  2  1  0
  2  3  2  0
  2  4  1  0
  4  5  2  0
  5  6  1  0
  6  7  2  0
  7  8  1  0
  8  9  2  0
  9 10  1  0
 10 11  2  0
 11 12  1  0
 12 13  2  0
 13 14  1  0
  9 15  1  0
 15 16  2  0
 16 17  1  0
 17 18  1  0
 18 19  2  0
 18 20  1  0
 20 21  1  0
 21 22  1  0
 22 23  2  0
 22 24  1  0
 17  4  1  0
 16  6  1  0
 14 10  1  0
  1 25  1  0
  5 26  1  0
  7 27  1  0
  8 28  1  0
 12 29  1  0
 15 30  1  0
 20 31  1  0
 20 32  1  0
 21 33  1  0
 21 34  1  0
M  CHG  3   1  -1  14  -1  24  -1
M  END
>  <UniqueID>  (1) 
1

>  <SMILES>  (1) 
[NH-]C(=O)c1cc2ccc(-c3ncn[n-]3)cc2n1C(=O)CCC(=O)[O-]

>  <Energy>  (1) 
104.35890131072287

>  <Genealogy>  (1) 
[NH-]C(=O)c1cc2ccc(-c3ncn[n-]3)cc2n1C(=O)CCC(=O)[O-] (protonated)
[NH-]C(=O)c1cc2ccc(-c3ncn[n-]3)cc2n1C(=O)CCC(=O)[O-] (3D coordinates assigned)
[NH-]C(=O)c1cc2ccc(-c3ncn[n-]3)cc2n1C(=O)CCC(=O)[O-] (optimized conformer: 104.35890131072287 kcal/mol)

>  <smiles>  (1) 
NC(=O)c1cc2ccc(-c3ncn[nH]3)cc2n1C(=O)CCC(=O)O

>  <score_type>  (1) 
oracle

>  <origin>  (1) 
adg

>  <m_score__min__energy>  (1) 
-7.3499999999999996

>  <m_primary>  (1) 
energy

$$$$
1:0
     RDKit          3D

 57 58  0  0  0  0  0  0  0  0999 V2000
  139.1980  158.1880  132.2160 C   0  0  0  0  0  0  0  0  0  0  0  0
  139.7170  157.4430  133.3770 N   0  0  0  0  0  0  0  0  0  0  0  0
  139.4800  156.0030  133.1830 C   0  0  0  0  0  0  0  0  0  0  0  0
  139.0910  157.9110  134.6340 C   0  0  0  0  0  0  0  0  0  0  0  0
  139.9980  157.5830  135.8290 C   0  0  0  0  0  0  0  0  0  0  0  0
  141.4540  158.0590  135.6380 C   0  0  0  0  0  0  0  0  0  0  0  0
  142.1660  157.3910  134.5310 N   0  0  0  0  0  0  0  0  0  0  0  0
  143.3080  158.1520  134.0850 C   0  0  0  0  0  0  0  0  0  0  0  0
  143.1930  159.5510  133.8630 C   0  0  0  0  0  0  0  0  0  0  0  0
  144.2960  160.3020  133.4180 C   0  0  0  0  0  0  0  0  0  0  0  0
  145.4930  159.6300  133.1940 C   0  0  0  0  0  0  0  0  0  0  0  0
  146.7160  160.1040  132.7710 C   0  0  0  0  0  0  0  0  0  0  0  0
  147.5490  158.9860  132.7230 C   0  0  0  0  0  0  0  0  0  0  0  0
  148.9560  159.0200  132.2750 C   0  0  0  0  0  0  0  0  0  0  0  0
  149.5980  157.8190  131.8560 N   0  0  0  0  0  0  0  0  0  0  0  0
  149.6050  160.0990  132.2740 O   0  0  0  0  0  0  0  0  0  0  0  0
  146.8660  157.8720  133.1030 N   0  0  0  0  0  0  0  0  0  0  0  0
  147.3580  156.5310  133.2120 C   0  0  0  0  0  0  0  0  0  0  0  0
  148.4990  156.3230  133.7060 O   0  0  0  0  0  0  0  0  0  0  0  0
  146.5800  155.3920  132.6260 C   0  0  0  0  0  0  0  0  0  0  0  0
  146.1390  154.4290  133.7350 C   0  0  0  0  0  0  0  0  0  0  0  0
  144.6630  154.1090  133.6930 C   0  0  0  0  0  0  0  0  0  0  0  0
  143.8440  154.8600  134.2940 O   0  0  0  0  0  0  0  0  0  0  0  0
  144.1730  152.9560  132.9760 N   0  0  0  0  0  0  0  0  0  0  0  0
  142.7320  152.6840  132.9570 C   0  0  0  0  0  0  0  0  0  0  0  0
  145.1000  152.0610  132.2720 C   0  0  0  0  0  0  0  0  0  0  0  0
  145.6150  158.2800  133.3890 C   0  0  0  0  0  0  0  0  0  0  0  0
  144.5440  157.5100  133.8460 C   0  0  0  0  0  0  0  0  0  0  0  0
  138.6019  159.0437  132.5661 H   0  0  0  0  0  0  0  0  0  0  0  0
  140.0393  158.5516  131.6077 H   0  0  0  0  0  0  0  0  0  0  0  0
  138.5654  157.5248  131.6077 H   0  0  0  0  0  0  0  0  0  0  0  0
  139.3988  155.5095  134.1627 H   0  0  0  0  0  0  0  0  0  0  0  0
  138.5458  155.8576  132.6207 H   0  0  0  0  0  0  0  0  0  0  0  0
  140.3183  155.5659  132.6207 H   0  0  0  0  0  0  0  0  0  0  0  0
  138.9380  158.9990  134.5812 H   0  0  0  0  0  0  0  0  0  0  0  0
  138.1242  157.4031  134.7657 H   0  0  0  0  0  0  0  0  0  0  0  0
  139.5857  158.0706  136.7247 H   0  0  0  0  0  0  0  0  0  0  0  0
  140.0232  156.4878  135.9284 H   0  0  0  0  0  0  0  0  0  0  0  0
  141.4404  159.1405  135.4373 H   0  0  0  0  0  0  0  0  0  0  0  0
  141.9945  157.8052  136.5618 H   0  0  0  0  0  0  0  0  0  0  0  0
  141.5140  157.1960  133.7370 H   0  0  0  0  0  0  0  0  0  0  0  0
  142.5000  156.4590  134.8720 H   0  0  0  0  0  0  0  0  0  0  0  0
  142.2303  160.0524  134.0412 H   0  0  0  0  0  0  0  0  0  0  0  0
  144.2145  161.3864  133.2524 H   0  0  0  0  0  0  0  0  0  0  0  0
  146.9793  161.1430  132.5238 H   0  0  0  0  0  0  0  0  0  0  0  0
  149.0530  156.9410  131.7090 H   0  0  0  0  0  0  0  0  0  0  0  0
  145.6911  155.7854  132.1111 H   0  0  0  0  0  0  0  0  0  0  0  0
  147.2175  154.8505  131.9116 H   0  0  0  0  0  0  0  0  0  0  0  0
  146.7033  153.4908  133.6282 H   0  0  0  0  0  0  0  0  0  0  0  0
  146.3390  154.9242  134.6967 H   0  0  0  0  0  0  0  0  0  0  0  0
  142.3585  152.6135  133.9893 H   0  0  0  0  0  0  0  0  0  0  0  0
  142.2117  153.4998  132.4337 H   0  0  0  0  0  0  0  0  0  0  0  0
  142.5449  151.7347  132.4337 H   0  0  0  0  0  0  0  0  0  0  0  0
  145.6892  151.4921  133.0063 H   0  0  0  0  0  0  0  0  0  0  0  0
  144.5288  151.3640  131.6411 H   0  0  0  0  0  0  0  0  0  0  0  0
  145.7765  152.6563  131.6411 H   0  0  0  0  0  0  0  0  0  0  0  0
  144.6594  156.4294  134.0160 H   0  0  0  0  0  0  0  0  0  0  0  0
  1  2  1  0
  2  3  1  0
  2  4  1  0
  4  5  1  0
  5  6  1  0
  6  7  1  0
  7  8  1  0
  8  9  2  0
  9 10  1  0
 10 11  2  0
 11 12  1  0
 12 13  2  0
 13 14  1  0
 14 15  1  0
 14 16  2  0
 13 17  1  0
 17 18  1  0
 18 19  2  0
 18 20  1  0
 20 21  1  0
 21 22  1  0
 22 23  2  0
 22 24  1  0
 24 25  1  0
 24 26  1  0
 17 27  1  0
 27 28  2  0
 28  8  1  0
 27 11  1  0
  1 29  1  0
  1 30  1  0
  1 31  1  0
  3 32  1  0
  3 33  1  0
  3 34  1  0
  4 35  1  0
  4 36  1  0
  5 37  1  0
  5 38  1  0
  6 39  1  0
  6 40  1  0
  7 41  1  0
  7 42  1  0
  9 43  1  0
 10 44  1  0
 12 45  1  0
 15 46  1  0
 20 47  1  0
 20 48  1  0
 21 49  1  0
 21 50  1  0
 25 51  1  0
 25 52  1  0
 25 53  1  0
 26 54  1  0
 26 55  1  0
 26 56  1  0
 28 57  1  0
M  CHG  2   7   1  15  -1
M  END
>  <UniqueID>  (2) 
2

>  <SMILES>  (2) 
CN(C)CCC[NH2+]c1ccc2cc(C([NH-])=O)n(C(=O)CCC(=O)N(C)C)c2c1

>  <Energy>  (2) 
89.32089859324412

>  <Genealogy>  (2) 
CN(C)CCC[NH2+]c1ccc2cc(C([NH-])=O)n(C(=O)CCC(=O)N(C)C)c2c1 (protonated)
CN(C)CCC[NH2+]c1ccc2cc(C([NH-])=O)n(C(=O)CCC(=O)N(C)C)c2c1 (3D coordinates assigned)
CN(C)CCC[NH2+]c1ccc2cc(C([NH-])=O)n(C(=O)CCC(=O)N(C)C)c2c1 (optimized conformer: 89.32089859324412 kcal/mol)

>  <smiles>  (2) 
CN(C)CCCNc1ccc2cc(C(N)=O)n(C(=O)CCC(=O)N(C)C)c2c1

>  <score_type>  (2) 
oracle

>  <origin>  (2) 
adg

>  <m_score__min__energy>  (2) 
-8.1300000000000008

>  <m_primary>  (2) 
energy

$$$$
2:0
     RDKit          3D

 34 36  0  0  0  0  0  0  0  0999 V2000
  148.2550  158.1650  134.0790 C   0  0  0  0  0  0  0  0  0  0  0  0
  147.3950  158.4940  132.8530 C   0  0  1  0  0  0  0  0  0  0  0  0
  146.0300  159.0020  133.2680 C   0  0  0  0  0  0  0  0  0  0  0  0
  145.8090  160.3870  133.4860 C   0  0  0  0  0  0  0  0  0  0  0  0
  144.5500  160.8590  133.8890 C   0  0  0  0  0  0  0  0  0  0  0  0
  143.5300  159.9300  134.0620 C   0  0  0  0  0  0  0  0  0  0  0  0
  142.2290  160.1100  134.4710 C   0  0  0  0  0  0  0  0  0  0  0  0
  141.6630  158.8380  134.4790 C   0  0  0  0  0  0  0  0  0  0  0  0
  140.2390  158.5860  134.7810 C   0  0  0  0  0  0  0  0  0  0  0  0
  139.8120  158.2830  136.1070 N   0  0  0  0  0  0  0  0  0  0  0  0
  139.3930  158.5870  133.8470 O   0  0  0  0  0  0  0  0  0  0  0  0
  142.5810  157.9040  134.0980 N   0  0  0  0  0  0  0  0  0  0  0  0
  142.4230  156.4770  134.0580 C   0  0  0  0  0  0  0  0  0  0  0  0
  141.5020  155.9570  133.3760 O   0  0  0  0  0  0  0  0  0  0  0  0
  143.2700  155.6560  134.7930 O   0  0  0  0  0  0  0  0  0  0  0  0
  143.7170  158.5900  133.8430 C   0  0  0  0  0  0  0  0  0  0  0  0
  144.9670  158.0890  133.4610 C   0  0  0  0  0  0  0  0  0  0  0  0
  148.0580  159.4700  131.9830 N   0  0  0  0  0  0  0  0  0  0  0  0
  149.3810  159.7190  131.9340 C   0  0  0  0  0  0  0  0  0  0  0  0
  149.5740  160.6400  130.9260 C   0  0  0  0  0  0  0  0  0  0  0  0
  148.3660  160.9060  130.3960 N   0  0  0  0  0  0  0  0  0  0  0  0
  147.4630  160.1850  131.0400 N   0  0  0  0  0  0  0  0  0  0  0  0
  147.6862  158.3826  134.9950 H   0  0  0  0  0  0  0  0  0  0  0  0
  148.5270  157.0993  134.0608 H   0  0  0  0  0  0  0  0  0  0  0  0
  149.1688  158.7770  134.0608 H   0  0  0  0  0  0  0  0  0  0  0  0
  147.2625  157.5619  132.2841 H   0  0  0  0  0  0  0  0  0  0  0  0
  146.6342  161.0990  133.3373 H   0  0  0  0  0  0  0  0  0  0  0  0
  144.3756  161.9311  134.0627 H   0  0  0  0  0  0  0  0  0  0  0  0
  141.7392  161.0587  134.7358 H   0  0  0  0  0  0  0  0  0  0  0  0
  139.4410  159.0290  136.7360 H   0  0  0  0  0  0  0  0  0  0  0  0
  145.1192  157.0095  133.3142 H   0  0  0  0  0  0  0  0  0  0  0  0
  150.1570  159.2739  132.5741 H   0  0  0  0  0  0  0  0  0  0  0  0
  150.5347  161.0754  130.6138 H   0  0  0  0  0  0  0  0  0  0  0  0
  148.1580  161.5570  129.6070 H   0  0  0  0  0  0  0  0  0  0  0  0
  1  2  1  0
  2  3  1  0
  3  4  2  0
  4  5  1  0
  5  6  2  0
  6  7  1  0
  7  8  2  0
  8  9  1  0
  9 10  1  0
  9 11  2  0
  8 12  1  0
 12 13  1  0
 13 14  2  0
 13 15  1  0
 12 16  1  0
 16 17  2  0
  2 18  1  0
 18 19  1  0
 19 20  2  0
 20 21  1  0
 21 22  2  0
 17  3  1  0
 22 18  1  0
 16  6  1  0
  1 23  1  0
  1 24  1  0
  1 25  1  0
  2 26  1  6
  4 27  1  0
  5 28  1  0
  7 29  1  0
 10 30  1  0
 17 31  1  0
 19 32  1  0
 20 33  1  0
 21 34  1  0
M  CHG  3  10  -1  15  -1  21   1
M  END
>  <UniqueID>  (3) 
3

>  <SMILES>  (3) 
C[C@@H](c1ccc2cc(C([NH-])=O)n(C(=O)[O-])c2c1)n1cc[nH+]n1

>  <Energy>  (3) 
109.65746809253193

>  <Genealogy>  (3) 
CC(c1ccc2cc(C([NH-])=O)n(C(=O)[O-])c2c1)n1cc[nH+]n1 (protonated)
C[C@@H](c1ccc2cc(C([NH-])=O)n(C(=O)[O-])c2c1)n1cc[nH+]n1 (chirality)
C[C@@H](c1ccc2cc(C([NH-])=O)n(C(=O)[O-])c2c1)n1cc[nH+]n1 (3D coordinates assigned)
C[C@@H](c1ccc2cc(C([NH-])=O)n(C(=O)[O-])c2c1)n1cc[nH+]n1 (optimized conformer: 109.65746809253193 kcal/mol)

>  <smiles>  (3) 
CC(c1ccc2cc(C(N)=O)n(C(=O)O)c2c1)n1ccnn1

>  <score_type>  (3) 
oracle

>  <origin>  (3) 
adg

>  <m_score__min__energy>  (3) 
-7.0999999999999996

>  <m_primary>  (3) 
energy

$$$$
3:0
     RDKit          3D

 42 43  0  0  0  0  0  0  0  0999 V2000
  147.7450  155.0990  135.5000 N   0  0  0  0  0  0  0  0  0  0  0  0
  146.6180  154.2370  135.6310 C   0  0  0  0  0  0  0  0  0  0  0  0
  146.5970  153.3690  136.5450 O   0  0  0  0  0  0  0  0  0  0  0  0
  145.4640  154.3580  134.6810 C   0  0  0  0  0  0  0  0  0  0  0  0
  144.8780  155.7760  134.6680 C   0  0  0  0  0  0  0  0  0  0  0  0
  145.6570  156.6850  133.7580 C   0  0  0  0  0  0  0  0  0  0  0  0
  146.5660  156.2010  133.0310 O   0  0  0  0  0  0  0  0  0  0  0  0
  145.4540  158.1060  133.7900 N   0  0  0  0  0  0  0  0  0  0  0  0
  146.3920  159.0900  133.6970 C   0  0  0  0  0  0  0  0  0  0  0  0
  147.8550  158.8780  133.7350 C   0  0  0  0  0  0  0  0  0  0  0  0
  148.4060  157.6600  134.2400 N   0  0  0  0  0  0  0  0  0  0  0  0
  148.6320  159.7680  133.2980 O   0  0  0  0  0  0  0  0  0  0  0  0
  145.7800  160.3430  133.6670 C   0  0  0  0  0  0  0  0  0  0  0  0
  144.4300  160.0920  133.7550 C   0  0  0  0  0  0  0  0  0  0  0  0
  143.3510  160.9720  133.7580 C   0  0  0  0  0  0  0  0  0  0  0  0
  142.0580  160.4290  133.8370 C   0  0  0  0  0  0  0  0  0  0  0  0
  141.8670  159.0260  133.9170 C   0  0  0  0  0  0  0  0  0  0  0  0
  140.4750  158.4490  133.9680 C   0  0  0  0  0  0  0  0  0  0  0  0
  139.9440  158.0990  132.5690 C   0  0  0  0  0  0  0  0  0  0  0  0
  138.5140  158.6050  132.3470 C   0  0  0  0  0  0  0  0  0  0  0  0
  138.5310  159.9440  131.6790 C   0  0  0  0  0  0  0  0  0  0  0  0
  139.4510  160.7660  131.9310 O   0  0  0  0  0  0  0  0  0  0  0  0
  137.5600  160.2650  130.7390 O   0  0  0  0  0  0  0  0  0  0  0  0
  142.9860  158.1650  133.9100 C   0  0  0  0  0  0  0  0  0  0  0  0
  144.2600  158.7350  133.8340 C   0  0  0  0  0  0  0  0  0  0  0  0
  147.9480  155.5810  134.5960 H   0  0  0  0  0  0  0  0  0  0  0  0
  145.8103  154.1073  133.6675 H   0  0  0  0  0  0  0  0  0  0  0  0
  144.6755  153.6670  135.0137 H   0  0  0  0  0  0  0  0  0  0  0  0
  143.8357  155.7290  134.3197 H   0  0  0  0  0  0  0  0  0  0  0  0
  144.9313  156.1812  135.6893 H   0  0  0  0  0  0  0  0  0  0  0  0
  149.4390  157.5090  134.2280 H   0  0  0  0  0  0  0  0  0  0  0  0
  147.8010  156.9230  134.6640 H   0  0  0  0  0  0  0  0  0  0  0  0
  146.2721  161.3237  133.5895 H   0  0  0  0  0  0  0  0  0  0  0  0
  143.5064  162.0594  133.7002 H   0  0  0  0  0  0  0  0  0  0  0  0
  141.1851  161.0984  133.8368 H   0  0  0  0  0  0  0  0  0  0  0  0
  140.4918  157.5352  134.5801 H   0  0  0  0  0  0  0  0  0  0  0  0
  139.8088  159.2082  134.4036 H   0  0  0  0  0  0  0  0  0  0  0  0
  140.6023  158.5567  131.8159 H   0  0  0  0  0  0  0  0  0  0  0  0
  139.9314  157.0028  132.4780 H   0  0  0  0  0  0  0  0  0  0  0  0
  137.9713  157.8899  131.7113 H   0  0  0  0  0  0  0  0  0  0  0  0
  138.0141  158.6997  133.3223 H   0  0  0  0  0  0  0  0  0  0  0  0
  142.8585  157.0737  133.9630 H   0  0  0  0  0  0  0  0  0  0  0  0
  1  2  1  0
  2  3  2  0
  2  4  1  0
  4  5  1  0
  5  6  1  0
  6  7  2  0
  6  8  1  0
  8  9  1  0
  9 10  1  0
 10 11  1  0
 10 12  2  0
  9 13  2  0
 13 14  1  0
 14 15  2  0
 15 16  1  0
 16 17  2  0
 17 18  1  0
 18 19  1  0
 19 20  1  0
 20 21  1  0
 21 22  2  0
 21 23  1  0
 17 24  1  0
 24 25  2  0
 25  8  1  0
 25 14  1  0
  1 26  1  0
  4 27  1  0
  4 28  1  0
  5 29  1  0
  5 30  1  0
 11 31  1  0
 11 32  1  0
 13 33  1  0
 15 34  1  0
 16 35  1  0
 18 36  1  0
 18 37  1  0
 19 38  1  0
 19 39  1  0
 20 40  1  0
 20 41  1  0
 24 42  1  0
M  CHG  2   1  -1  23  -1
M  END
>  <UniqueID>  (4) 
4

>  <SMILES>  (4) 
[NH-]C(=O)CCC(=O)n1c(C(N)=O)cc2ccc(CCCC(=O)[O-])cc21

>  <Energy>  (4) 
69.50746632748503

>  <Genealogy>  (4) 
[NH-]C(=O)CCC(=O)n1c(C(N)=O)cc2ccc(CCCC(=O)[O-])cc21 (protonated)
[NH-]C(=O)CCC(=O)n1c(C(N)=O)cc2ccc(CCCC(=O)[O-])cc21 (3D coordinates assigned)
[NH-]C(=O)CCC(=O)n1c(C(N)=O)cc2ccc(CCCC(=O)[O-])cc21 (optimized conformer: 69.50746632748503 kcal/mol)

>  <smiles>  (4) 
NC(=O)CCC(=O)n1c(C(N)=O)cc2ccc(CCCC(=O)O)cc21

>  <score_type>  (4) 
oracle

>  <origin>  (4) 
adg

>  <m_score__min__energy>  (4) 
-7.5300000000000002

>  <m_primary>  (4) 
energy

$$$$
4:0
     RDKit          3D

 29 30  0  0  0  0  0  0  0  0999 V2000
  149.6120  157.4950  132.2230 N   0  0  0  0  0  0  0  0  0  0  0  0
  149.0300  158.7760  132.4520 C   0  0  0  0  0  0  0  0  0  0  0  0
  149.7130  159.8110  132.2280 O   0  0  0  0  0  0  0  0  0  0  0  0
  147.6320  158.9080  132.9160 C   0  0  0  0  0  0  0  0  0  0  0  0
  146.9560  160.1240  132.9930 C   0  0  0  0  0  0  0  0  0  0  0  0
  145.6840  159.8100  133.4150 C   0  0  0  0  0  0  0  0  0  0  0  0
  144.5930  160.6360  133.6650 C   0  0  0  0  0  0  0  0  0  0  0  0
  143.4040  160.0370  134.1140 C   0  0  0  0  0  0  0  0  0  0  0  0
  143.3320  158.6360  134.3310 C   0  0  0  0  0  0  0  0  0  0  0  0
  142.0400  158.0020  134.7750 C   0  0  0  0  0  0  0  0  0  0  0  0
  142.2860  156.9030  135.5820 F   0  0  0  0  0  0  0  0  0  0  0  0
  141.3280  157.5920  133.6630 F   0  0  0  0  0  0  0  0  0  0  0  0
  141.2740  158.9030  135.4930 F   0  0  0  0  0  0  0  0  0  0  0  0
  144.4590  157.8300  134.0440 C   0  0  0  0  0  0  0  0  0  0  0  0
  145.6220  158.4510  133.5810 C   0  0  0  0  0  0  0  0  0  0  0  0
  146.8080  157.8830  133.2750 N   0  0  0  0  0  0  0  0  0  0  0  0
  147.1440  156.4920  133.3870 C   0  0  0  0  0  0  0  0  0  0  0  0
  147.1420  155.7680  132.3550 O   0  0  0  0  0  0  0  0  0  0  0  0
  147.3750  155.8750  134.7360 C   0  0  0  0  0  0  0  0  0  0  0  0
  146.2670  154.4760  135.0220 S   0  0  0  0  0  0  0  0  0  0  0  0
  145.0200  155.1270  135.6040 O   0  0  0  0  0  0  0  0  0  0  0  0
  146.9470  153.6740  136.3590 O   0  0  0  0  0  0  0  0  0  0  0  0
  149.0400  156.7040  131.8530 H   0  0  0  0  0  0  0  0  0  0  0  0
  147.3546  161.1235  132.7648 H   0  0  0  0  0  0  0  0  0  0  0  0
  144.6591  161.7238  133.5159 H   0  0  0  0  0  0  0  0  0  0  0  0
  142.5178  160.6616  134.2997 H   0  0  0  0  0  0  0  0  0  0  0  0
  144.4205  156.7394  134.1822 H   0  0  0  0  0  0  0  0  0  0  0  0
  148.4160  155.5246  134.7954 H   0  0  0  0  0  0  0  0  0  0  0  0
  147.1743  156.6371  135.5034 H   0  0  0  0  0  0  0  0  0  0  0  0
  1  2  1  0
  2  3  2  0
  2  4  1  0
  4  5  2  0
  5  6  1  0
  6  7  2  0
  7  8  1  0
  8  9  2  0
  9 10  1  0
 10 11  1  0
 10 12  1  0
 10 13  1  0
  9 14  1  0
 14 15  2  0
 15 16  1  0
 16 17  1  0
 17 18  2  0
 17 19  1  0
 19 20  1  0
 20 21  2  0
 20 22  1  1
 16  4  1  0
 15  6  1  0
  1 23  1  0
  5 24  1  0
  7 25  1  0
  8 26  1  0
 14 27  1  0
 19 28  1  0
 19 29  1  0
M  CHG  2   1  -1  22  -1
M  END
>  <UniqueID>  (5) 
5

>  <SMILES>  (5) 
[NH-]C(=O)c1cc2ccc(C(F)(F)F)cc2n1C(=O)C[S@](=O)[O-]

>  <Energy>  (5) 
67.24707246243949

>  <Genealogy>  (5) 
[NH-]C(=O)c1cc2ccc(C(F)(F)F)cc2n1C(=O)CS(=O)[O-] (protonated)
[NH-]C(=O)c1cc2ccc(C(F)(F)F)cc2n1C(=O)C[S@](=O)[O-] (chirality)
[NH-]C(=O)c1cc2ccc(C(F)(F)F)cc2n1C(=O)C[S@](=O)[O-] (3D coordinates assigned)
[NH-]C(=O)c1cc2ccc(C(F)(F)F)cc2n1C(=O)C[S@](=O)[O-] (optimized conformer: 67.24707246243949 kcal/mol)

>  <smiles>  (5) 
NC(=O)c1cc2ccc(C(F)(F)F)cc2n1C(=O)CS(=O)O

>  <score_type>  (5) 
oracle

>  <origin>  (5) 
adg

>  <m_score__min__energy>  (5) 
-5.8799999999999999

>  <m_primary>  (5) 
energy

$$$$
5:0
     RDKit          3D

 43 45  0  0  0  0  0  0  0  0999 V2000
  148.8850  160.3970  130.9590 C   0  0  0  0  0  0  0  0  0  0  0  0
  147.6040  160.1110  131.5060 O   0  0  0  0  0  0  0  0  0  0  0  0
  147.3750  160.0300  132.8830 C   0  0  0  0  0  0  0  0  0  0  0  0
  148.3260  159.8080  133.6820 O   0  0  0  0  0  0  0  0  0  0  0  0
  145.9960  160.2600  133.4140 C   0  0  0  0  0  0  0  0  0  0  0  0
  145.2240  158.9710  133.4140 C   0  0  0  0  0  0  0  0  0  0  0  0
  145.9090  157.7300  133.3770 C   0  0  0  0  0  0  0  0  0  0  0  0
  145.1960  156.5190  133.3560 C   0  0  0  0  0  0  0  0  0  0  0  0
  143.8050  156.5810  133.3540 C   0  0  0  0  0  0  0  0  0  0  0  0
  142.8710  155.5700  133.3610 C   0  0  0  0  0  0  0  0  0  0  0  0
  141.6340  156.2110  133.3590 C   0  0  0  0  0  0  0  0  0  0  0  0
  140.3450  155.4940  133.3000 C   0  0  0  0  0  0  0  0  0  0  0  0
  139.1380  156.1690  132.9440 N   0  0  0  0  0  0  0  0  0  0  0  0
  140.3150  154.2540  133.5220 O   0  0  0  0  0  0  0  0  0  0  0  0
  141.7960  157.5640  133.3660 N   0  0  0  0  0  0  0  0  0  0  0  0
  140.7820  158.5750  133.4790 C   0  0  0  0  0  0  0  0  0  0  0  0
  140.2360  159.0240  132.4340 O   0  0  0  0  0  0  0  0  0  0  0  0
  140.4250  159.1410  134.8320 C   0  0  0  0  0  0  0  0  0  0  0  0
  139.5660  158.2170  135.6840 C   0  0  0  0  0  0  0  0  0  0  0  0
  140.6070  158.0670  136.7130 N   0  0  0  0  0  0  0  0  0  0  0  0
  141.1180  156.6890  136.7750 C   0  0  0  0  0  0  0  0  0  0  0  0
  141.4810  158.9380  135.9110 C   0  0  0  0  0  0  0  0  0  0  0  0
  143.1290  157.7740  133.3590 C   0  0  0  0  0  0  0  0  0  0  0  0
  143.8120  158.9950  133.4000 C   0  0  0  0  0  0  0  0  0  0  0  0
  149.6047  160.5577  131.7752 H   0  0  0  0  0  0  0  0  0  0  0  0
  149.2163  159.5507  130.3393 H   0  0  0  0  0  0  0  0  0  0  0  0
  148.8249  161.3038  130.3393 H   0  0  0  0  0  0  0  0  0  0  0  0
  146.0611  160.6457  134.4421 H   0  0  0  0  0  0  0  0  0  0  0  0
  145.4796  160.9903  132.7737 H   0  0  0  0  0  0  0  0  0  0  0  0
  147.0088  157.7149  133.3646 H   0  0  0  0  0  0  0  0  0  0  0  0
  145.7206  155.5522  133.3416 H   0  0  0  0  0  0  0  0  0  0  0  0
  143.0608  154.4865  133.3669 H   0  0  0  0  0  0  0  0  0  0  0  0
  139.1550  157.1450  132.5750 H   0  0  0  0  0  0  0  0  0  0  0  0
  138.2260  155.6600  132.9670 H   0  0  0  0  0  0  0  0  0  0  0  0
  140.0984  160.1375  134.4999 H   0  0  0  0  0  0  0  0  0  0  0  0
  138.6483  158.6949  136.0575 H   0  0  0  0  0  0  0  0  0  0  0  0
  139.1445  157.3119  135.2223 H   0  0  0  0  0  0  0  0  0  0  0  0
  141.2302  156.3865  137.8266 H   0  0  0  0  0  0  0  0  0  0  0  0
  140.4109  156.0127  136.2724 H   0  0  0  0  0  0  0  0  0  0  0  0
  142.0951  156.6373  136.2724 H   0  0  0  0  0  0  0  0  0  0  0  0
  141.7633  159.8678  136.4266 H   0  0  0  0  0  0  0  0  0  0  0  0
  142.4734  158.5656  135.6169 H   0  0  0  0  0  0  0  0  0  0  0  0
  143.2634  159.9482  133.4208 H   0  0  0  0  0  0  0  0  0  0  0  0
  1  2  1  0
  2  3  1  0
  3  4  2  0
  3  5  1  0
  5  6  1  0
  6  7  2  0
  7  8  1  0
  8  9  2  0
  9 10  1  0
 10 11  2  0
 11 12  1  0
 12 13  1  0
 12 14  2  0
 11 15  1  0
 15 16  1  0
 16 17  2  0
 16 18  1  0
 18 19  1  0
 19 20  1  0
 20 21  1  0
 20 22  1  0
 15 23  1  0
 23 24  2  0
 24  6  1  0
 23  9  1  0
 22 18  1  0
  1 25  1  0
  1 26  1  0
  1 27  1  0
  5 28  1  0
  5 29  1  0
  7 30  1  0
  8 31  1  0
 10 32  1  0
 13 33  1  0
 13 34  1  0
 18 35  1  0
 19 36  1  0
 19 37  1  0
 21 38  1  0
 21 39  1  0
 21 40  1  0
 22 41  1  0
 22 42  1  0
 24 43  1  0
M  END
>  <UniqueID>  (6) 
6

>  <SMILES>  (6) 
COC(=O)Cc1ccc2cc(C(N)=O)n(C(=O)C3CN(C)C3)c2c1

>  <Energy>  (6) 
149.48110144563753

>  <Genealogy>  (6) 
COC(=O)Cc1ccc2cc(C(N)=O)n(C(=O)C3CN(C)C3)c2c1 (3D coordinates assigned)
COC(=O)Cc1ccc2cc(C(N)=O)n(C(=O)C3CN(C)C3)c2c1 (nonaromatic ring conformer: 149.48110144563753 kcal/mol)

>  <smiles>  (6) 
COC(=O)Cc1ccc2cc(C(N)=O)n(C(=O)C3CN(C)C3)c2c1

>  <score_type>  (6) 
oracle

>  <origin>  (6) 
adg

>  <m_score__min__energy>  (6) 
-7.5499999999999998

>  <m_primary>  (6) 
energy

$$$$
6:0
     RDKit          3D

 31 33  0  0  0  0  0  0  0  0999 V2000
  145.6150  160.5690  132.9990 N   0  0  0  0  0  0  0  0  0  0  0  0
  145.0510  159.4120  133.6200 C   0  0  0  0  0  0  0  0  0  0  0  0
  144.0070  159.5350  134.3150 O   0  0  0  0  0  0  0  0  0  0  0  0
  145.6350  158.0700  133.4230 C   0  0  0  0  0  0  0  0  0  0  0  0
  144.8870  156.8960  133.4160 C   0  0  0  0  0  0  0  0  0  0  0  0
  145.7970  155.8850  133.1960 C   0  0  0  0  0  0  0  0  0  0  0  0
  145.6060  154.5110  133.1110 C   0  0  0  0  0  0  0  0  0  0  0  0
  146.7370  153.6980  132.9240 C   0  0  0  0  0  0  0  0  0  0  0  0
  148.0360  154.2660  132.8590 C   0  0  0  0  0  0  0  0  0  0  0  0
  149.2390  153.3880  132.6240 C   0  0  0  0  0  0  0  0  0  0  0  0
  149.4990  152.6080  133.7380 F   0  0  0  0  0  0  0  0  0  0  0  0
  148.9940  152.5620  131.5430 F   0  0  0  0  0  0  0  0  0  0  0  0
  150.3600  154.1550  132.3610 F   0  0  0  0  0  0  0  0  0  0  0  0
  148.1860  155.6710  132.9300 C   0  0  0  0  0  0  0  0  0  0  0  0
  147.0380  156.4560  133.0880 C   0  0  0  0  0  0  0  0  0  0  0  0
  146.9540  157.7990  133.2160 N   0  0  0  0  0  0  0  0  0  0  0  0
  148.0520  158.7220  133.2850 C   0  0  0  0  0  0  0  0  0  0  0  0
  148.5540  159.0090  134.4050 O   0  0  0  0  0  0  0  0  0  0  0  0
  148.5760  159.3590  132.0670 C   0  0  0  0  0  0  0  0  0  0  0  0
  149.6960  158.9780  131.3660 C   0  0  0  0  0  0  0  0  0  0  0  0
  149.8630  159.8120  130.3260 N   0  0  0  0  0  0  0  0  0  0  0  0
  148.8350  160.6800  130.4310 C   0  0  0  0  0  0  0  0  0  0  0  0
  148.0270  160.4400  131.4850 N   0  0  0  0  0  0  0  0  0  0  0  0
  146.3520  160.4850  132.2660 H   0  0  0  0  0  0  0  0  0  0  0  0
  145.2200  161.5140  133.2000 H   0  0  0  0  0  0  0  0  0  0  0  0
  143.8005  156.7965  133.5563 H   0  0  0  0  0  0  0  0  0  0  0  0
  144.5999  154.0730  133.1878 H   0  0  0  0  0  0  0  0  0  0  0  0
  146.6141  152.6092  132.8269 H   0  0  0  0  0  0  0  0  0  0  0  0
  149.1809  156.1353  132.8626 H   0  0  0  0  0  0  0  0  0  0  0  0
  150.3488  158.1287  131.6160 H   0  0  0  0  0  0  0  0  0  0  0  0
  148.6710  161.5061  129.7235 H   0  0  0  0  0  0  0  0  0  0  0  0
  1  2  1  0
  2  3  2  0
  2  4  1  0
  4  5  2  0
  5  6  1  0
  6  7  2  0
  7  8  1  0
  8  9  2  0
  9 10  1  0
 10 11  1  0
 10 12  1  0
 10 13  1  0
  9 14  1  0
 14 15  2  0
 15 16  1  0
 16 17  1  0
 17 18  2  0
 17 19  1  0
 19 20  2  0
 20 21  1  0
 21 22  2  0
 22 23  1  0
 16  4  1  0
 23 19  1  0
 15  6  1  0
  1 24  1  0
  1 25  1  0
  5 26  1  0
  7 27  1  0
  8 28  1  0
 14 29  1  0
 20 30  1  0
 22 31  1  0
M  CHG  1  23  -1
M  END
>  <UniqueID>  (7) 
7

>  <SMILES>  (7) 
NC(=O)c1cc2ccc(C(F)(F)F)cc2n1C(=O)c1cnc[n-]1

>  <Energy>  (7) 
101.65177258837709

>  <Genealogy>  (7) 
NC(=O)c1cc2ccc(C(F)(F)F)cc2n1C(=O)c1cnc[n-]1 (protonated)
NC(=O)c1cc2ccc(C(F)(F)F)cc2n1C(=O)c1cnc[n-]1 (3D coordinates assigned)
NC(=O)c1cc2ccc(C(F)(F)F)cc2n1C(=O)c1cnc[n-]1 (optimized conformer: 101.65177258837709 kcal/mol)

>  <smiles>  (7) 
NC(=O)c1cc2ccc(C(F)(F)F)cc2n1C(=O)c1cnc[nH]1

>  <score_type>  (7) 
oracle

>  <origin>  (7) 
adg

>  <m_score__min__energy>  (7) 
-6.9900000000000002

>  <m_primary>  (7) 
energy

$$$$
7:0
     RDKit          3D

 49 52  0  0  0  0  0  0  0  0999 V2000
  142.0310  154.0540  133.3830 C   0  0  0  0  0  0  0  0  0  0  0  0
  142.0720  154.7980  134.6780 C   0  0  0  0  0  0  0  0  0  0  0  0
  141.0230  155.3160  135.2740 O   0  0  0  0  0  0  0  0  0  0  0  0
  141.4740  155.8690  136.3770 C   0  0  0  0  0  0  0  0  0  0  0  0
  140.7410  156.4680  137.2060 O   0  0  0  0  0  0  0  0  0  0  0  0
  142.7730  155.7280  136.5200 O   0  0  0  0  0  0  0  0  0  0  0  0
  143.1800  155.0590  135.4650 C   0  0  0  0  0  0  0  0  0  0  0  0
  144.6060  154.6790  135.2070 C   0  0  0  0  0  0  0  0  0  0  0  0
  145.3500  155.8250  134.8070 O   0  0  0  0  0  0  0  0  0  0  0  0
  145.2660  156.3900  133.5280 C   0  0  0  0  0  0  0  0  0  0  0  0
  145.3600  155.6580  132.5060 O   0  0  0  0  0  0  0  0  0  0  0  0
  145.0640  157.8070  133.3870 N   0  0  0  0  0  0  0  0  0  0  0  0
  146.0070  158.7460  133.0940 C   0  0  0  0  0  0  0  0  0  0  0  0
  147.3940  158.4740  132.6650 C   0  0  0  0  0  0  0  0  0  0  0  0
  147.7080  157.3340  131.8640 N   0  0  0  0  0  0  0  0  0  0  0  0
  148.3060  159.2880  132.9640 O   0  0  0  0  0  0  0  0  0  0  0  0
  145.4770  160.0280  133.1900 C   0  0  0  0  0  0  0  0  0  0  0  0
  144.1590  159.8490  133.5410 C   0  0  0  0  0  0  0  0  0  0  0  0
  143.1620  160.7930  133.7720 C   0  0  0  0  0  0  0  0  0  0  0  0
  141.8890  160.3280  134.1380 C   0  0  0  0  0  0  0  0  0  0  0  0
  141.6410  158.9410  134.2840 C   0  0  0  0  0  0  0  0  0  0  0  0
  140.2600  158.4560  134.6280 C   0  0  0  0  0  0  0  0  0  0  0  0
  139.5990  157.8910  133.4100 C   0  0  0  0  0  0  0  0  0  0  0  0
  139.5260  156.6420  133.2580 O   0  0  0  0  0  0  0  0  0  0  0  0
  139.0920  158.7540  132.3930 N   0  0  0  0  0  0  0  0  0  0  0  0
  138.9430  160.2040  132.1590 C   0  0  0  0  0  0  0  0  0  0  0  0
  138.3090  160.0740  130.8150 C   0  0  0  0  0  0  0  0  0  0  0  0
  139.0960  160.5510  129.7800 F   0  0  0  0  0  0  0  0  0  0  0  0
  136.9910  160.4970  130.7720 F   0  0  0  0  0  0  0  0  0  0  0  0
  138.4650  158.6110  131.0670 C   0  0  0  0  0  0  0  0  0  0  0  0
  142.6770  158.0120  134.0400 C   0  0  0  0  0  0  0  0  0  0  0  0
  143.9330  158.5000  133.6550 C   0  0  0  0  0  0  0  0  0  0  0  0
  141.9715  152.9739  133.5824 H   0  0  0  0  0  0  0  0  0  0  0  0
  141.1489  154.3696  132.8066 H   0  0  0  0  0  0  0  0  0  0  0  0
  142.9425  154.2708  132.8066 H   0  0  0  0  0  0  0  0  0  0  0  0
  145.0442  154.2627  136.1261 H   0  0  0  0  0  0  0  0  0  0  0  0
  144.6402  153.9277  134.4042 H   0  0  0  0  0  0  0  0  0  0  0  0
  146.9530  156.7290  131.4700 H   0  0  0  0  0  0  0  0  0  0  0  0
  148.6990  157.1320  131.6050 H   0  0  0  0  0  0  0  0  0  0  0  0
  145.9997  160.9811  133.0214 H   0  0  0  0  0  0  0  0  0  0  0  0
  143.3654  161.8693  133.6709 H   0  0  0  0  0  0  0  0  0  0  0  0
  141.0760  161.0479  134.3132 H   0  0  0  0  0  0  0  0  0  0  0  0
  140.3296  157.6756  135.4001 H   0  0  0  0  0  0  0  0  0  0  0  0
  139.6636  159.3002  135.0043 H   0  0  0  0  0  0  0  0  0  0  0  0
  138.2851  160.6889  132.8952 H   0  0  0  0  0  0  0  0  0  0  0  0
  139.8500  160.8222  132.2310 H   0  0  0  0  0  0  0  0  0  0  0  0
  137.5021  158.0807  131.1064 H   0  0  0  0  0  0  0  0  0  0  0  0
  139.0106  158.0254  130.3125 H   0  0  0  0  0  0  0  0  0  0  0  0
  142.5020  156.9315  134.1496 H   0  0  0  0  0  0  0  0  0  0  0  0
  1  2  1  0
  2  3  1  0
  3  4  1  0
  4  5  2  0
  4  6  1  0
  6  7  1  0
  7  8  1  0
  8  9  1  0
  9 10  1  0
 10 11  2  0
 10 12  1  0
 12 13  1  0
 13 14  1  0
 14 15  1  0
 14 16  2  0
 13 17  2  0
 17 18  1  0
 18 19  2  0
 19 20  1  0
 20 21  2  0
 21 22  1  0
 22 23  1  0
 23 24  2  0
 23 25  1  0
 25 26  1  0
 26 27  1  0
 27 28  1  0
 27 29  1  0
 27 30  1  0
 21 31  1  0
 31 32  2  0
  7  2  2  0
 32 12  1  0
 32 18  1  0
 30 25  1  0
  1 33  1  0
  1 34  1  0
  1 35  1  0
  8 36  1  0
  8 37  1  0
 15 38  1  0
 15 39  1  0
 17 40  1  0
 19 41  1  0
 20 42  1  0
 22 43  1  0
 22 44  1  0
 26 45  1  0
 26 46  1  0
 30 47  1  0
 30 48  1  0
 31 49  1  0
M  END
>  <UniqueID>  (8) 
8

>  <SMILES>  (8) 
Cc1oc(=O)oc1COC(=O)n1c(C(N)=O)cc2ccc(CC(=O)N3CC(F)(F)C3)cc21

>  <Energy>  (8) 
163.69863562591468

>  <Genealogy>  (8) 
Cc1oc(=O)oc1COC(=O)n1c(C(N)=O)cc2ccc(CC(=O)N3CC(F)(F)C3)cc21 (3D coordinates assigned)
Cc1oc(=O)oc1COC(=O)n1c(C(N)=O)cc2ccc(CC(=O)N3CC(F)(F)C3)cc21 (nonaromatic ring conformer: 163.69863562591468 kcal/mol)

>  <smiles>  (8) 
Cc1oc(=O)oc1COC(=O)n1c(C(N)=O)cc2ccc(CC(=O)N3CC(F)(F)C3)cc21

>  <score_type>  (8) 
oracle

>  <origin>  (8) 
adg

>  <m_score__min__energy>  (8) 
-8.2799999999999994

>  <m_primary>  (8) 
energy

$$$$
8:0
     RDKit          3D

 52 53  0  0  0  0  0  0  0  0999 V2000
  141.7540  156.9820  134.8040 C   0  0  0  0  0  0  0  0  0  0  0  0
  142.9040  157.8330  134.3540 C   0  0  0  0  0  0  0  0  0  0  0  0
  142.7150  159.2190  134.1300 C   0  0  0  0  0  0  0  0  0  0  0  0
  143.7780  160.0220  133.6840 C   0  0  0  0  0  0  0  0  0  0  0  0
  145.0050  159.4100  133.4510 C   0  0  0  0  0  0  0  0  0  0  0  0
  146.2010  159.9530  133.0420 C   0  0  0  0  0  0  0  0  0  0  0  0
  147.0920  158.8840  132.9850 C   0  0  0  0  0  0  0  0  0  0  0  0
  148.4830  159.0100  132.5020 C   0  0  0  0  0  0  0  0  0  0  0  0
  148.9820  158.1530  131.4800 N   0  0  0  0  0  0  0  0  0  0  0  0
  149.2250  159.9180  132.9650 O   0  0  0  0  0  0  0  0  0  0  0  0
  146.4740  157.7250  133.3510 N   0  0  0  0  0  0  0  0  0  0  0  0
  147.0710  156.4310  133.5210 C   0  0  0  0  0  0  0  0  0  0  0  0
  147.4320  155.7680  132.5120 O   0  0  0  0  0  0  0  0  0  0  0  0
  147.2180  155.9010  134.8080 O   0  0  0  0  0  0  0  0  0  0  0  0
  146.3080  154.9710  135.3910 C   0  0  1  0  0  0  0  0  0  0  0  0
  145.7370  154.1490  134.3710 O   0  0  0  0  0  0  0  0  0  0  0  0
  144.3620  153.9660  134.1880 C   0  0  0  0  0  0  0  0  0  0  0  0
  143.7920  154.3610  133.1330 O   0  0  0  0  0  0  0  0  0  0  0  0
  143.6240  153.3470  135.2020 O   0  0  0  0  0  0  0  0  0  0  0  0
  142.2000  153.2620  135.1970 C   0  0  1  0  0  0  0  0  0  0  0  0
  141.7680  152.8850  133.8910 O   0  0  0  0  0  0  0  0  0  0  0  0
  142.1610  151.7000  133.2620 C   0  0  0  0  0  0  0  0  0  0  0  0
  143.2980  151.1990  133.4890 O   0  0  0  0  0  0  0  0  0  0  0  0
  141.2720  151.0780  132.3790 O   0  0  0  0  0  0  0  0  0  0  0  0
  140.4690  149.9510  132.7310 C   0  0  0  0  0  0  0  0  0  0  0  0
  141.2640  148.6540  132.5430 C   0  0  0  0  0  0  0  0  0  0  0  0
  139.2180  149.9430  131.8540 C   0  0  0  0  0  0  0  0  0  0  0  0
  141.7480  152.2410  136.1990 C   0  0  0  0  0  0  0  0  0  0  0  0
  142.0480  152.3710  137.4150 O   0  0  0  0  0  0  0  0  0  0  0  0
  140.9870  151.1520  135.7920 O   0  0  0  0  0  0  0  0  0  0  0  0
  147.0600  154.0980  136.3420 C   0  0  0  0  0  0  0  0  0  0  0  0
  146.5540  153.0160  136.7420 O   0  0  0  0  0  0  0  0  0  0  0  0
  148.3130  154.4840  136.8010 O   0  0  0  0  0  0  0  0  0  0  0  0
  145.1960  158.0640  133.6320 C   0  0  0  0  0  0  0  0  0  0  0  0
  144.1600  157.2440  134.0940 C   0  0  0  0  0  0  0  0  0  0  0  0
  141.7230  156.9590  135.9033 H   0  0  0  0  0  0  0  0  0  0  0  0
  140.8135  157.4034  134.4194 H   0  0  0  0  0  0  0  0  0  0  0  0
  141.8820  155.9594  134.4194 H   0  0  0  0  0  0  0  0  0  0  0  0
  141.7275  159.6703  134.3068 H   0  0  0  0  0  0  0  0  0  0  0  0
  143.6439  161.1020  133.5239 H   0  0  0  0  0  0  0  0  0  0  0  0
  146.4094  161.0077  132.8094 H   0  0  0  0  0  0  0  0  0  0  0  0
  148.7600  157.1310  131.4790 H   0  0  0  0  0  0  0  0  0  0  0  0
  145.5093  155.5170  135.9143 H   0  0  0  0  0  0  0  0  0  0  0  0
  141.7662  154.2365  135.4659 H   0  0  0  0  0  0  0  0  0  0  0  0
  140.1750  150.0206  133.7887 H   0  0  0  0  0  0  0  0  0  0  0  0
  141.5207  148.2353  133.5273 H   0  0  0  0  0  0  0  0  0  0  0  0
  140.6552  147.9286  131.9834 H   0  0  0  0  0  0  0  0  0  0  0  0
  142.1867  148.8673  131.9834 H   0  0  0  0  0  0  0  0  0  0  0  0
  138.3225  149.9373  132.4927 H   0  0  0  0  0  0  0  0  0  0  0  0
  139.2097  150.8411  131.2189 H   0  0  0  0  0  0  0  0  0  0  0  0
  139.2212  149.0449  131.2189 H   0  0  0  0  0  0  0  0  0  0  0  0
  144.3207  156.1671  134.2506 H   0  0  0  0  0  0  0  0  0  0  0  0
  1  2  1  0
  2  3  2  0
  3  4  1  0
  4  5  2  0
  5  6  1  0
  6  7  2  0
  7  8  1  0
  8  9  1  0
  8 10  2  0
  7 11  1  0
 11 12  1  0
 12 13  2  0
 12 14  1  0
 14 15  1  0
 15 16  1  0
 16 17  1  0
 17 18  2  0
 17 19  1  0
 19 20  1  0
 20 21  1  0
 21 22  1  0
 22 23  2  0
 22 24  1  0
 24 25  1  0
 25 26  1  0
 25 27  1  0
 20 28  1  0
 28 29  2  0
 28 30  1  0
 15 31  1  0
 31 32  2  0
 31 33  1  0
 11 34  1  0
 34 35  2  0
 35  2  1  0
 34  5  1  0
  1 36  1  0
  1 37  1  0
  1 38  1  0
  3 39  1  0
  4 40  1  0
  6 41  1  0
  9 42  1  0
 15 43  1  1
 20 44  1  1
 25 45  1  0
 26 46  1  0
 26 47  1  0
 26 48  1  0
 27 49  1  0
 27 50  1  0
 27 51  1  0
 35 52  1  0
M  CHG  3   9  -1  30  -1  33  -1
M  END
>  <UniqueID>  (9) 
9

>  <SMILES>  (9) 
Cc1ccc2cc(C([NH-])=O)n(C(=O)O[C@@H](OC(=O)O[C@@H](OC(=O)OC(C)C)C(=O)[O-])C(=O)[O-])c2c1

>  <Energy>  (9) 
79.9194394837868

>  <Genealogy>  (9) 
Cc1ccc2cc(C([NH-])=O)n(C(=O)OC(OC(=O)OC(OC(=O)OC(C)C)C(=O)[O-])C(=O)[O-])c2c1 (protonated)
Cc1ccc2cc(C([NH-])=O)n(C(=O)O[C@@H](OC(=O)O[C@@H](OC(=O)OC(C)C)C(=O)[O-])C(=O)[O-])c2c1 (chirality)
Cc1ccc2cc(C([NH-])=O)n(C(=O)O[C@@H](OC(=O)O[C@@H](OC(=O)OC(C)C)C(=O)[O-])C(=O)[O-])c2c1 (3D coordinates assigned)
Cc1ccc2cc(C([NH-])=O)n(C(=O)O[C@@H](OC(=O)O[C@@H](OC(=O)OC(C)C)C(=O)[O-])C(=O)[O-])c2c1 (optimized conformer: 79.9194394837868 kcal/mol)

>  <smiles>  (9) 
Cc1ccc2cc(C(N)=O)n(C(=O)OC(OC(=O)OC(OC(=O)OC(C)C)C(=O)O)C(=O)O)c2c1

>  <score_type>  (9) 
oracle

>  <origin>  (9) 
adg

>  <m_score__min__energy>  (9) 
-7.0499999999999998

>  <m_primary>  (9) 
energy

$$$$
9:0
     RDKit          3D

 39 40  0  0  0  0  0  0  0  0999 V2000
  139.8080  158.9680  133.0020 C   0  0  0  0  0  0  0  0  0  0  0  0
  140.7170  158.2850  134.0470 C   0  0  0  0  0  0  0  0  0  0  0  0
  140.6180  156.7560  133.8530 C   0  0  0  0  0  0  0  0  0  0  0  0
  140.2350  158.5800  135.4570 C   0  0  0  0  0  0  0  0  0  0  0  0
  139.1060  158.1870  135.8560 O   0  0  0  0  0  0  0  0  0  0  0  0
  141.0750  159.2330  136.3520 O   0  0  0  0  0  0  0  0  0  0  0  0
  142.1450  158.8290  133.8710 C   0  0  0  0  0  0  0  0  0  0  0  0
  142.4420  160.2250  133.8810 C   0  0  0  0  0  0  0  0  0  0  0  0
  143.7610  160.6880  133.7440 C   0  0  0  0  0  0  0  0  0  0  0  0
  144.7750  159.7470  133.6180 C   0  0  0  0  0  0  0  0  0  0  0  0
  146.1320  159.9210  133.4640 C   0  0  0  0  0  0  0  0  0  0  0  0
  146.6640  158.6330  133.3960 C   0  0  0  0  0  0  0  0  0  0  0  0
  148.1100  158.3330  133.3220 C   0  0  0  0  0  0  0  0  0  0  0  0
  148.5910  156.9990  133.4970 N   0  0  0  0  0  0  0  0  0  0  0  0
  148.9320  159.2540  133.0790 O   0  0  0  0  0  0  0  0  0  0  0  0
  145.6710  157.7060  133.5020 N   0  0  0  0  0  0  0  0  0  0  0  0
  145.7810  156.2760  133.4210 C   0  0  0  0  0  0  0  0  0  0  0  0
  146.1980  155.7480  132.3540 O   0  0  0  0  0  0  0  0  0  0  0  0
  145.5710  155.4300  134.6480 C   0  0  0  0  0  0  0  0  0  0  0  0
  147.1160  154.6470  135.2170 P   0  0  0  0  0  0  0  0  0  0  0  0
  147.8460  154.0420  134.0390 O   0  0  0  0  0  0  0  0  0  0  0  0
  148.0990  155.8200  135.9350 O   0  0  0  0  0  0  0  0  0  0  0  0
  146.7750  153.4360  136.3470 O   0  0  0  0  0  0  0  0  0  0  0  0
  144.5240  158.4040  133.6390 C   0  0  0  0  0  0  0  0  0  0  0  0
  143.2220  157.9100  133.7610 C   0  0  0  0  0  0  0  0  0  0  0  0
  139.0311  159.5517  133.5175 H   0  0  0  0  0  0  0  0  0  0  0  0
  140.4122  159.6374  132.3721 H   0  0  0  0  0  0  0  0  0  0  0  0
  139.3332  158.2013  132.3721 H   0  0  0  0  0  0  0  0  0  0  0  0
  140.5861  156.2630  134.8358 H   0  0  0  0  0  0  0  0  0  0  0  0
  139.7024  156.5160  133.2925 H   0  0  0  0  0  0  0  0  0  0  0  0
  141.4950  156.4000  133.2925 H   0  0  0  0  0  0  0  0  0  0  0  0
  141.6238  160.9508  133.9980 H   0  0  0  0  0  0  0  0  0  0  0  0
  143.9846  161.7650  133.7367 H   0  0  0  0  0  0  0  0  0  0  0  0
  146.6802  160.8730  133.4068 H   0  0  0  0  0  0  0  0  0  0  0  0
  149.6110  156.7950  133.4060 H   0  0  0  0  0  0  0  0  0  0  0  0
  147.9490  156.2190  133.7580 H   0  0  0  0  0  0  0  0  0  0  0  0
  145.1786  156.0668  135.4545 H   0  0  0  0  0  0  0  0  0  0  0  0
  144.8621  154.6297  134.3892 H   0  0  0  0  0  0  0  0  0  0  0  0
  143.0346  156.8261  133.7716 H   0  0  0  0  0  0  0  0  0  0  0  0
  1  2  1  0
  2  3  1  0
  2  4  1  0
  4  5  2  0
  4  6  1  0
  2  7  1  0
  7  8  2  0
  8  9  1  0
  9 10  2  0
 10 11  1  0
 11 12  2  0
 12 13  1  0
 13 14  1  0
 13 15  2  0
 12 16  1  0
 16 17  1  0
 17 18  2  0
 17 19  1  0
 19 20  1  0
 20 21  2  0
 20 22  1  0
 20 23  1  0
 16 24  1  0
 24 25  2  0
 25  7  1  0
 24 10  1  0
  1 26  1  0
  1 27  1  0
  1 28  1  0
  3 29  1  0
  3 30  1  0
  3 31  1  0
  8 32  1  0
  9 33  1  0
 11 34  1  0
 14 35  1  0
 14 36  1  0
 19 37  1  0
 19 38  1  0
 25 39  1  0
M  CHG  3   6  -1  22  -1  23  -1
M  END
>  <UniqueID>  (10) 
10

>  <SMILES>  (10) 
CC(C)(C(=O)[O-])c1ccc2cc(C(N)=O)n(C(=O)CP(=O)([O-])[O-])c2c1

>  <Energy>  (10) 
78.57551522398816

>  <Genealogy>  (10) 
CC(C)(C(=O)[O-])c1ccc2cc(C(N)=O)n(C(=O)CP(=O)([O-])[O-])c2c1 (protonated)
CC(C)(C(=O)[O-])c1ccc2cc(C(N)=O)n(C(=O)CP(=O)([O-])[O-])c2c1 (3D coordinates assigned)
CC(C)(C(=O)[O-])c1ccc2cc(C(N)=O)n(C(=O)CP(=O)([O-])[O-])c2c1 (optimized conformer: 78.57551522398816 kcal/mol)

>  <smiles>  (10) 
CC(C)(C(=O)O)c1ccc2cc(C(N)=O)n(C(=O)CP(=O)(O)O)c2c1

>  <score_type>  (10) 
oracle

>  <origin>  (10) 
adg

>  <m_score__min__energy>  (10) 
-7.5700000000000003

>  <m_primary>  (10) 
energy

$$$$
10:0
     RDKit          3D

 39 40  0  0  0  0  0  0  0  0999 V2000
  142.2180  153.5370  135.3270 C   0  0  0  0  0  0  0  0  0  0  0  0
  142.6550  154.1810  133.9910 C   0  0  0  0  0  0  0  0  0  0  0  0
  143.3870  153.1210  133.1350 C   0  0  0  0  0  0  0  0  0  0  0  0
  141.4970  154.6130  133.3110 O   0  0  0  0  0  0  0  0  0  0  0  0
  143.5530  155.4370  134.2660 C   0  0  1  0  0  0  0  0  0  0  0  0
  144.9490  155.0630  134.7110 C   0  0  0  0  0  0  0  0  0  0  0  0
  145.1170  154.3970  135.7650 O   0  0  0  0  0  0  0  0  0  0  0  0
  146.0580  155.4410  133.9610 O   0  0  0  0  0  0  0  0  0  0  0  0
  143.6130  156.4280  133.1100 C   0  0  0  0  0  0  0  0  0  0  0  0
  143.6030  156.0180  131.9180 O   0  0  0  0  0  0  0  0  0  0  0  0
  143.6020  157.8470  133.3530 N   0  0  0  0  0  0  0  0  0  0  0  0
  142.5130  158.6390  133.5670 C   0  0  0  0  0  0  0  0  0  0  0  0
  141.1040  158.1950  133.5570 C   0  0  0  0  0  0  0  0  0  0  0  0
  140.7030  157.1230  132.7070 N   0  0  0  0  0  0  0  0  0  0  0  0
  140.2480  158.7450  134.3000 O   0  0  0  0  0  0  0  0  0  0  0  0
  142.9050  159.9620  133.7620 C   0  0  0  0  0  0  0  0  0  0  0  0
  144.2770  159.9530  133.6690 C   0  0  0  0  0  0  0  0  0  0  0  0
  145.1890  160.9950  133.8120 C   0  0  0  0  0  0  0  0  0  0  0  0
  146.5570  160.6910  133.7050 C   0  0  0  0  0  0  0  0  0  0  0  0
  146.9890  159.3650  133.4520 C   0  0  0  0  0  0  0  0  0  0  0  0
  148.4600  159.0400  133.4050 C   0  0  0  0  0  0  0  0  0  0  0  0
  148.6710  157.8170  132.7930 F   0  0  0  0  0  0  0  0  0  0  0  0
  148.9560  158.9900  134.6950 F   0  0  0  0  0  0  0  0  0  0  0  0
  149.1510  160.0050  132.6940 F   0  0  0  0  0  0  0  0  0  0  0  0
  146.0300  158.3310  133.3410 C   0  0  0  0  0  0  0  0  0  0  0  0
  144.6740  158.6650  133.4270 C   0  0  0  0  0  0  0  0  0  0  0  0
  142.6175  154.1258  136.1658 H   0  0  0  0  0  0  0  0  0  0  0  0
  141.1196  153.5178  135.3828 H   0  0  0  0  0  0  0  0  0  0  0  0
  142.6060  152.5092  135.3828 H   0  0  0  0  0  0  0  0  0  0  0  0
  143.8867  152.3974  133.7958 H   0  0  0  0  0  0  0  0  0  0  0  0
  142.6584  152.5955  132.5002 H   0  0  0  0  0  0  0  0  0  0  0  0
  144.1365  153.6162  132.5002 H   0  0  0  0  0  0  0  0  0  0  0  0
  141.7680  155.2640  132.6100 H   0  0  0  0  0  0  0  0  0  0  0  0
  143.0473  155.9529  135.0955 H   0  0  0  0  0  0  0  0  0  0  0  0
  141.4110  156.5100  132.2470 H   0  0  0  0  0  0  0  0  0  0  0  0
  142.2551  160.8293  133.9503 H   0  0  0  0  0  0  0  0  0  0  0  0
  144.8497  162.0238  134.0027 H   0  0  0  0  0  0  0  0  0  0  0  0
  147.3019  161.4923  133.8191 H   0  0  0  0  0  0  0  0  0  0  0  0
  146.3434  157.2874  133.1904 H   0  0  0  0  0  0  0  0  0  0  0  0
  1  2  1  0
  2  3  1  0
  2  4  1  0
  2  5  1  0
  5  6  1  0
  6  7  2  0
  6  8  1  0
  5  9  1  0
  9 10  2  0
  9 11  1  0
 11 12  1  0
 12 13  1  0
 13 14  1  0
 13 15  2  0
 12 16  2  0
 16 17  1  0
 17 18  2  0
 18 19  1  0
 19 20  2  0
 20 21  1  0
 21 22  1  0
 21 23  1  0
 21 24  1  0
 20 25  1  0
 25 26  2  0
 26 11  1  0
 26 17  1  0
  1 27  1  0
  1 28  1  0
  1 29  1  0
  3 30  1  0
  3 31  1  0
  3 32  1  0
  4 33  1  0
  5 34  1  1
 14 35  1  0
 16 36  1  0
 18 37  1  0
 19 38  1  0
 25 39  1  0
M  CHG  2   8  -1  14  -1
M  END
>  <UniqueID>  (11) 
11

>  <SMILES>  (11) 
CC(C)(O)[C@@H](C(=O)[O-])C(=O)n1c(C([NH-])=O)cc2ccc(C(F)(F)F)cc21

>  <Energy>  (11) 
80.98974704572954

>  <Genealogy>  (11) 
CC(C)(O)C(C(=O)[O-])C(=O)n1c(C([NH-])=O)cc2ccc(C(F)(F)F)cc21 (protonated)
CC(C)(O)[C@@H](C(=O)[O-])C(=O)n1c(C([NH-])=O)cc2ccc(C(F)(F)F)cc21 (chirality)
CC(C)(O)[C@@H](C(=O)[O-])C(=O)n1c(C([NH-])=O)cc2ccc(C(F)(F)F)cc21 (3D coordinates assigned)
CC(C)(O)[C@@H](C(=O)[O-])C(=O)n1c(C([NH-])=O)cc2ccc(C(F)(F)F)cc21 (optimized conformer: 80.98974704572954 kcal/mol)

>  <smiles>  (11) 
CC(C)(O)C(C(=O)O)C(=O)n1c(C(N)=O)cc2ccc(C(F)(F)F)cc21

>  <score_type>  (11) 
oracle

>  <origin>  (11) 
adg

>  <m_score__min__energy>  (11) 
-6.0099999999999998

>  <m_primary>  (11) 
energy

$$$$
11:0
     RDKit          3D

 42 44  0  0  0  0  0  0  0  0999 V2000
  150.0390  150.3600  132.2480 C   0  0  0  0  0  0  0  0  0  0  0  0
  149.4090  151.6260  131.8380 N   0  0  0  0  0  0  0  0  0  0  0  0
  147.9250  151.5290  131.9070 C   0  0  0  0  0  0  0  0  0  0  0  0
  147.2890  152.4650  132.9410 C   0  0  0  0  0  0  0  0  0  0  0  0
  147.7780  153.8330  132.7360 N   0  0  0  0  0  0  0  0  0  0  0  0
  146.9110  154.9620  132.9620 C   0  0  0  0  0  0  0  0  0  0  0  0
  145.5140  154.7720  133.1310 C   0  0  0  0  0  0  0  0  0  0  0  0
  144.6630  155.8630  133.3670 C   0  0  0  0  0  0  0  0  0  0  0  0
  145.2290  157.1330  133.4230 C   0  0  0  0  0  0  0  0  0  0  0  0
  144.6430  158.3610  133.6110 C   0  0  0  0  0  0  0  0  0  0  0  0
  145.6830  159.2860  133.5580 C   0  0  0  0  0  0  0  0  0  0  0  0
  145.4930  160.7440  133.7280 C   0  0  0  0  0  0  0  0  0  0  0  0
  146.5950  161.6300  133.9370 N   0  0  0  0  0  0  0  0  0  0  0  0
  144.3230  161.2120  133.7310 O   0  0  0  0  0  0  0  0  0  0  0  0
  146.8690  158.6460  133.3330 N   0  0  0  0  0  0  0  0  0  0  0  0
  148.1680  159.2160  133.1200 C   0  0  0  0  0  0  0  0  0  0  0  0
  148.7620  159.7630  134.0850 O   0  0  0  0  0  0  0  0  0  0  0  0
  148.8320  159.1970  131.7710 C   0  0  0  0  0  0  0  0  0  0  0  0
  148.8220  160.8040  130.9850 Cl  0  0  0  0  0  0  0  0  0  0  0  0
  146.5720  157.3350  133.2620 C   0  0  0  0  0  0  0  0  0  0  0  0
  147.4460  156.2700  133.0240 C   0  0  0  0  0  0  0  0  0  0  0  0
  149.1920  154.0410  132.4000 C   0  0  0  0  0  0  0  0  0  0  0  0
  149.9920  152.7510  132.6070 C   0  0  0  0  0  0  0  0  0  0  0  0
  150.0672  150.3033  133.3462 H   0  0  0  0  0  0  0  0  0  0  0  0
  149.4561  149.5153  131.8521 H   0  0  0  0  0  0  0  0  0  0  0  0
  151.0643  150.3156  131.8521 H   0  0  0  0  0  0  0  0  0  0  0  0
  147.5152  151.7772  130.9168 H   0  0  0  0  0  0  0  0  0  0  0  0
  147.6862  150.5010  132.2172 H   0  0  0  0  0  0  0  0  0  0  0  0
  146.1951  152.4467  132.8269 H   0  0  0  0  0  0  0  0  0  0  0  0
  147.5604  152.1287  133.9526 H   0  0  0  0  0  0  0  0  0  0  0  0
  145.0934  153.7571  133.0763 H   0  0  0  0  0  0  0  0  0  0  0  0
  143.5811  155.7184  133.5036 H   0  0  0  0  0  0  0  0  0  0  0  0
  143.5749  158.5703  133.7702 H   0  0  0  0  0  0  0  0  0  0  0  0
  146.4480  162.6660  133.8980 H   0  0  0  0  0  0  0  0  0  0  0  0
  147.5500  161.2740  134.1480 H   0  0  0  0  0  0  0  0  0  0  0  0
  149.8751  158.8706  131.8950 H   0  0  0  0  0  0  0  0  0  0  0  0
  148.2676  158.5052  131.1284 H   0  0  0  0  0  0  0  0  0  0  0  0
  148.5235  156.4450  132.8883 H   0  0  0  0  0  0  0  0  0  0  0  0
  149.2715  154.3505  131.3474 H   0  0  0  0  0  0  0  0  0  0  0  0
  149.6014  154.8212  133.0586 H   0  0  0  0  0  0  0  0  0  0  0  0
  151.0275  152.9142  132.2736 H   0  0  0  0  0  0  0  0  0  0  0  0
  149.9632  152.4925  133.6758 H   0  0  0  0  0  0  0  0  0  0  0  0
  1  2  1  0
  2  3  1  0
  3  4  1  0
  4  5  1  0
  5  6  1  0
  6  7  2  0
  7  8  1  0
  8  9  2  0
  9 10  1  0
 10 11  2  0
 11 12  1  0
 12 13  1  0
 12 14  2  0
 11 15  1  0
 15 16  1  0
 16 17  2  0
 16 18  1  0
 18 19  1  0
 15 20  1  0
 20 21  2  0
  5 22  1  0
 22 23  1  0
 23  2  1  0
 21  6  1  0
 20  9  1  0
  1 24  1  0
  1 25  1  0
  1 26  1  0
  3 27  1  0
  3 28  1  0
  4 29  1  0
  4 30  1  0
  7 31  1  0
  8 32  1  0
 10 33  1  0
 13 34  1  0
 13 35  1  0
 18 36  1  0
 18 37  1  0
 21 38  1  0
 22 39  1  0
 22 40  1  0
 23 41  1  0
 23 42  1  0
M  END
>  <UniqueID>  (12) 
12

>  <SMILES>  (12) 
CN1CCN(c2ccc3cc(C(N)=O)n(C(=O)CCl)c3c2)CC1

>  <Energy>  (12) 
93.76342326279735

>  <Genealogy>  (12) 
CN1CCN(c2ccc3cc(C(N)=O)n(C(=O)CCl)c3c2)CC1 (3D coordinates assigned)
CN1CCN(c2ccc3cc(C(N)=O)n(C(=O)CCl)c3c2)CC1 (nonaromatic ring conformer: 93.76342326279735 kcal/mol)

>  <smiles>  (12) 
CN1CCN(c2ccc3cc(C(N)=O)n(C(=O)CCl)c3c2)CC1

>  <score_type>  (12) 
oracle

>  <origin>  (12) 
adg

>  <m_score__min__energy>  (12) 
-7.5700000000000003

>  <m_primary>  (12) 
energy

$$$$
12:0
     RDKit          3D

 36 37  0  0  0  0  0  0  0  0999 V2000
  138.8190  159.0950  130.7690 C   0  0  0  0  0  0  0  0  0  0  0  0
  138.9410  160.4100  131.5300 C   0  0  0  0  0  0  0  0  0  0  0  0
  139.8020  160.2610  132.6570 O   0  0  0  0  0  0  0  0  0  0  0  0
  139.9200  159.0710  133.3850 C   0  0  0  0  0  0  0  0  0  0  0  0
  138.9220  158.5880  133.9850 O   0  0  0  0  0  0  0  0  0  0  0  0
  141.1800  158.3840  133.4230 N   0  0  0  0  0  0  0  0  0  0  0  0
  141.4100  157.0470  133.2860 C   0  0  0  0  0  0  0  0  0  0  0  0
  140.3790  155.9910  133.2230 C   0  0  0  0  0  0  0  0  0  0  0  0
  139.1450  156.2070  132.5430 N   0  0  0  0  0  0  0  0  0  0  0  0
  140.5700  154.8970  133.8190 O   0  0  0  0  0  0  0  0  0  0  0  0
  142.7780  156.7840  133.2980 C   0  0  0  0  0  0  0  0  0  0  0  0
  143.3840  158.0090  133.4570 C   0  0  0  0  0  0  0  0  0  0  0  0
  144.7320  158.3370  133.5260 C   0  0  0  0  0  0  0  0  0  0  0  0
  145.0770  159.6910  133.6660 C   0  0  0  0  0  0  0  0  0  0  0  0
  144.0750  160.7020  133.7260 C   0  0  0  0  0  0  0  0  0  0  0  0
  144.4420  162.1010  133.8600 N   0  0  0  0  0  0  0  0  0  0  0  0
  145.7090  162.4840  134.4960 C   0  0  0  0  0  0  0  0  0  0  0  0
  143.5510  163.1570  133.3620 C   0  0  0  0  0  0  0  0  0  0  0  0
  142.7110  160.3170  133.6500 C   0  0  0  0  0  0  0  0  0  0  0  0
  142.3990  158.9580  133.5310 C   0  0  0  0  0  0  0  0  0  0  0  0
  138.7418  158.2631  131.4845 H   0  0  0  0  0  0  0  0  0  0  0  0
  137.9193  159.1194  130.1366 H   0  0  0  0  0  0  0  0  0  0  0  0
  139.7079  158.9535  130.1366 H   0  0  0  0  0  0  0  0  0  0  0  0
  139.3532  161.1785  130.8596 H   0  0  0  0  0  0  0  0  0  0  0  0
  137.9431  160.7083  131.8838 H   0  0  0  0  0  0  0  0  0  0  0  0
  138.3600  156.7180  133.0030 H   0  0  0  0  0  0  0  0  0  0  0  0
  143.2695  155.8047  133.2010 H   0  0  0  0  0  0  0  0  0  0  0  0
  145.5071  157.5583  133.4725 H   0  0  0  0  0  0  0  0  0  0  0  0
  146.1376  159.9755  133.7304 H   0  0  0  0  0  0  0  0  0  0  0  0
  145.5954  162.4497  135.5896 H   0  0  0  0  0  0  0  0  0  0  0  0
  146.5002  161.7849  134.1874 H   0  0  0  0  0  0  0  0  0  0  0  0
  145.9804  163.5043  134.1874 H   0  0  0  0  0  0  0  0  0  0  0  0
  143.1018  163.6894  134.2133 H   0  0  0  0  0  0  0  0  0  0  0  0
  144.1284  163.8654  132.7498 H   0  0  0  0  0  0  0  0  0  0  0  0
  142.7555  162.7071  132.7498 H   0  0  0  0  0  0  0  0  0  0  0  0
  141.9132  161.0735  133.6840 H   0  0  0  0  0  0  0  0  0  0  0  0
  1  2  1  0
  2  3  1  0
  3  4  1  0
  4  5  2  0
  4  6  1  0
  6  7  1  0
  7  8  1  0
  8  9  1  0
  8 10  2  0
  7 11  2  0
 11 12  1  0
 12 13  2  0
 13 14  1  0
 14 15  2  0
 15 16  1  0
 16 17  1  0
 16 18  1  0
 15 19  1  0
 19 20  2  0
 20  6  1  0
 20 12  1  0
  1 21  1  0
  1 22  1  0
  1 23  1  0
  2 24  1  0
  2 25  1  0
  9 26  1  0
 11 27  1  0
 13 28  1  0
 14 29  1  0
 17 30  1  0
 17 31  1  0
 17 32  1  0
 18 33  1  0
 18 34  1  0
 18 35  1  0
 19 36  1  0
M  CHG  1   9  -1
M  END
>  <UniqueID>  (13) 
13

>  <SMILES>  (13) 
CCOC(=O)n1c(C([NH-])=O)cc2ccc(N(C)C)cc21

>  <Energy>  (13) 
72.54287457938953

>  <Genealogy>  (13) 
CCOC(=O)n1c(C([NH-])=O)cc2ccc(N(C)C)cc21 (protonated)
CCOC(=O)n1c(C([NH-])=O)cc2ccc(N(C)C)cc21 (3D coordinates assigned)
CCOC(=O)n1c(C([NH-])=O)cc2ccc(N(C)C)cc21 (optimized conformer: 72.54287457938953 kcal/mol)

>  <smiles>  (13) 
CCOC(=O)n1c(C(N)=O)cc2ccc(N(C)C)cc21

>  <score_type>  (13) 
oracle

>  <origin>  (13) 
adg

>  <m_score__min__energy>  (13) 
-5.4900000000000002

>  <m_primary>  (13) 
energy

$$$$
13:0
     RDKit          3D

 44 46  0  0  0  0  0  0  0  0999 V2000
  149.3910  158.7430  133.0180 N   0  0  0  0  0  0  0  0  0  0  0  0
  148.2700  159.4590  132.4950 C   0  0  0  0  0  0  0  0  0  0  0  0
  148.4520  160.2970  131.5710 O   0  0  0  0  0  0  0  0  0  0  0  0
  146.8990  159.1920  132.9720 C   0  0  0  0  0  0  0  0  0  0  0  0
  145.8770  160.1370  132.9360 C   0  0  0  0  0  0  0  0  0  0  0  0
  144.7630  159.4850  133.4130 C   0  0  0  0  0  0  0  0  0  0  0  0
  143.4700  159.9550  133.6100 C   0  0  0  0  0  0  0  0  0  0  0  0
  142.5250  159.0730  134.1590 C   0  0  0  0  0  0  0  0  0  0  0  0
  142.8840  157.7490  134.5130 C   0  0  0  0  0  0  0  0  0  0  0  0
  141.8870  156.8840  135.0880 N   0  0  0  0  0  0  0  0  0  0  0  0
  141.8570  155.4360  134.8670 C   0  0  0  0  0  0  0  0  0  0  0  0
  141.9200  155.0910  133.3750 C   0  0  0  0  0  0  0  0  0  0  0  0
  143.0160  154.1600  133.0970 N   0  0  0  0  0  0  0  0  0  0  0  0
  142.8980  152.8370  133.4100 C   0  0  0  0  0  0  0  0  0  0  0  0
  143.9150  151.9840  133.1300 N   0  0  0  0  0  0  0  0  0  0  0  0
  145.0520  152.4310  132.5400 C   0  0  0  0  0  0  0  0  0  0  0  0
  146.1140  151.5220  132.2500 N   0  0  0  0  0  0  0  0  0  0  0  0
  145.1630  153.7850  132.2210 C   0  0  0  0  0  0  0  0  0  0  0  0
  144.1280  154.6120  132.5120 N   0  0  0  0  0  0  0  0  0  0  0  0
  144.2130  157.3090  134.2990 C   0  0  0  0  0  0  0  0  0  0  0  0
  145.1290  158.2010  133.7270 C   0  0  0  0  0  0  0  0  0  0  0  0
  146.4410  158.0060  133.4620 N   0  0  0  0  0  0  0  0  0  0  0  0
  147.2120  156.8290  133.7570 C   0  0  0  0  0  0  0  0  0  0  0  0
  147.9810  156.3460  132.8820 O   0  0  0  0  0  0  0  0  0  0  0  0
  147.1000  156.2010  135.0380 N   0  0  0  0  0  0  0  0  0  0  0  0
  146.7620  154.7950  135.2140 C   0  0  0  0  0  0  0  0  0  0  0  0
  145.3890  154.6350  135.1770 F   0  0  0  0  0  0  0  0  0  0  0  0
  147.3320  154.0590  134.1930 F   0  0  0  0  0  0  0  0  0  0  0  0
  147.2490  154.3430  136.4260 F   0  0  0  0  0  0  0  0  0  0  0  0
  149.2590  157.9240  133.6520 H   0  0  0  0  0  0  0  0  0  0  0  0
  150.3560  158.9770  132.7000 H   0  0  0  0  0  0  0  0  0  0  0  0
  145.9455  161.1817  132.5984 H   0  0  0  0  0  0  0  0  0  0  0  0
  143.1952  160.9864  133.3440 H   0  0  0  0  0  0  0  0  0  0  0  0
  141.4914  159.4150  134.3164 H   0  0  0  0  0  0  0  0  0  0  0  0
  141.1470  157.3210  135.6860 H   0  0  0  0  0  0  0  0  0  0  0  0
  142.7189  154.9794  135.3756 H   0  0  0  0  0  0  0  0  0  0  0  0
  140.9108  155.0462  135.2704 H   0  0  0  0  0  0  0  0  0  0  0  0
  140.9692  154.6279  133.0725 H   0  0  0  0  0  0  0  0  0  0  0  0
  142.0951  156.0174  132.8083 H   0  0  0  0  0  0  0  0  0  0  0  0
  141.9806  152.4632  133.8881 H   0  0  0  0  0  0  0  0  0  0  0  0
  146.2280  151.1160  131.2950 H   0  0  0  0  0  0  0  0  0  0  0  0
  146.7930  151.2530  132.9960 H   0  0  0  0  0  0  0  0  0  0  0  0
  146.0734  154.1746  131.7422 H   0  0  0  0  0  0  0  0  0  0  0  0
  144.5191  156.2894  134.5758 H   0  0  0  0  0  0  0  0  0  0  0  0
  1  2  1  0
  2  3  2  0
  2  4  1  0
  4  5  2  0
  5  6  1  0
  6  7  2  0
  7  8  1  0
  8  9  2  0
  9 10  1  0
 10 11  1  0
 11 12  1  0
 12 13  1  0
 13 14  2  0
 14 15  1  0
 15 16  2  0
 16 17  1  0
 16 18  1  0
 18 19  2  0
  9 20  1  0
 20 21  2  0
 21 22  1  0
 22 23  1  0
 23 24  2  0
 23 25  1  0
 25 26  1  0
 26 27  1  0
 26 28  1  0
 26 29  1  0
 22  4  1  0
 21  6  1  0
 19 13  1  0
  1 30  1  0
  1 31  1  0
  5 32  1  0
  7 33  1  0
  8 34  1  0
 10 35  1  0
 11 36  1  0
 11 37  1  0
 12 38  1  0
 12 39  1  0
 14 40  1  0
 17 41  1  0
 17 42  1  0
 18 43  1  0
 20 44  1  0
M  CHG  2  13   1  25  -1
M  END
>  <UniqueID>  (14) 
14

>  <SMILES>  (14) 
NC(=O)c1cc2ccc(NCC[n+]3cnc(N)cn3)cc2n1C(=O)[N-]C(F)(F)F

>  <Energy>  (14) 
80.92123988798657

>  <Genealogy>  (14) 
NC(=O)c1cc2ccc(NCC[n+]3cnc(N)cn3)cc2n1C(=O)[N-]C(F)(F)F (protonated)
NC(=O)c1cc2ccc(NCC[n+]3cnc(N)cn3)cc2n1C(=O)[N-]C(F)(F)F (3D coordinates assigned)
NC(=O)c1cc2ccc(NCC[n+]3cnc(N)cn3)cc2n1C(=O)[N-]C(F)(F)F (optimized conformer: 80.92123988798657 kcal/mol)

>  <smiles>  (14) 
NC(=O)c1cc2ccc(NCC[n+]3cnc(N)cn3)cc2n1C(=O)NC(F)(F)F

>  <score_type>  (14) 
oracle

>  <origin>  (14) 
adg

>  <m_score__min__energy>  (14) 
-7.7999999999999998

>  <m_primary>  (14) 
energy

$$$$
14:0
     RDKit          3D

 50 52  0  0  0  0  0  0  0  0999 V2000
  148.4570  158.3770  131.3640 N   0  0  0  0  0  0  0  0  0  0  0  0
  148.0980  158.5270  132.7350 C   0  0  0  0  0  0  0  0  0  0  0  0
  149.0060  158.5700  133.6080 O   0  0  0  0  0  0  0  0  0  0  0  0
  146.6840  158.6620  133.1440 C   0  0  0  0  0  0  0  0  0  0  0  0
  145.9730  159.8610  133.0880 C   0  0  0  0  0  0  0  0  0  0  0  0
  144.6950  159.5480  133.4910 C   0  0  0  0  0  0  0  0  0  0  0  0
  143.5730  160.3590  133.6310 C   0  0  0  0  0  0  0  0  0  0  0  0
  142.3810  159.7620  134.0800 C   0  0  0  0  0  0  0  0  0  0  0  0
  142.3320  158.3760  134.3780 C   0  0  0  0  0  0  0  0  0  0  0  0
  141.0450  157.7420  134.8540 C   0  0  0  0  0  0  0  0  0  0  0  0
  140.0660  157.4430  133.7030 C   0  0  0  0  0  0  0  0  0  0  0  0
  138.8200  158.3610  133.6540 C   0  0  0  0  0  0  0  0  0  0  0  0
  138.4780  158.9700  132.3430 N   0  0  0  0  0  0  0  0  0  0  0  0
  138.8860  158.2820  131.1180 C   0  0  0  0  0  0  0  0  0  0  0  0
  138.7200  159.3060  130.0140 C   0  0  0  0  0  0  0  0  0  0  0  0
  138.9890  160.6410  130.6920 C   0  0  0  0  0  0  0  0  0  0  0  0
  138.8530  160.3760  132.1900 C   0  0  0  0  0  0  0  0  0  0  0  0
  143.5050  157.5990  134.2640 C   0  0  0  0  0  0  0  0  0  0  0  0
  144.6650  158.2100  133.7830 C   0  0  0  0  0  0  0  0  0  0  0  0
  145.8750  157.6510  133.5680 N   0  0  0  0  0  0  0  0  0  0  0  0
  146.2280  156.2760  133.7840 C   0  0  0  0  0  0  0  0  0  0  0  0
  145.8270  155.6930  134.8280 O   0  0  0  0  0  0  0  0  0  0  0  0
  147.0240  155.5020  132.7560 C   0  0  1  0  0  0  0  0  0  0  0  0
  146.9770  156.1310  131.4970 O   0  0  0  0  0  0  0  0  0  0  0  0
  148.4850  155.3120  133.2020 C   0  0  0  0  0  0  0  0  0  0  0  0
  149.3620  155.8570  132.2550 O   0  0  0  0  0  0  0  0  0  0  0  0
  148.6400  157.4340  130.9560 H   0  0  0  0  0  0  0  0  0  0  0  0
  146.3535  160.8478  132.7857 H   0  0  0  0  0  0  0  0  0  0  0  0
  143.6167  161.4331  133.3979 H   0  0  0  0  0  0  0  0  0  0  0  0
  141.4769  160.3767  134.2014 H   0  0  0  0  0  0  0  0  0  0  0  0
  141.2860  156.7980  135.3647 H   0  0  0  0  0  0  0  0  0  0  0  0
  140.5534  158.4573  135.5298 H   0  0  0  0  0  0  0  0  0  0  0  0
  140.6102  157.5541  132.7535 H   0  0  0  0  0  0  0  0  0  0  0  0
  139.6918  156.4226  133.8726 H   0  0  0  0  0  0  0  0  0  0  0  0
  137.9551  157.7629  133.9770 H   0  0  0  0  0  0  0  0  0  0  0  0
  139.0679  159.2114  134.3062 H   0  0  0  0  0  0  0  0  0  0  0  0
  139.9346  157.9574  131.1887 H   0  0  0  0  0  0  0  0  0  0  0  0
  138.2863  157.3783  130.9345 H   0  0  0  0  0  0  0  0  0  0  0  0
  139.4440  159.1273  129.2054 H   0  0  0  0  0  0  0  0  0  0  0  0
  137.7233  159.2647  129.5505 H   0  0  0  0  0  0  0  0  0  0  0  0
  140.0034  160.9944  130.4552 H   0  0  0  0  0  0  0  0  0  0  0  0
  138.2896  161.4187  130.3512 H   0  0  0  0  0  0  0  0  0  0  0  0
  139.8103  160.5690  132.6963 H   0  0  0  0  0  0  0  0  0  0  0  0
  138.0953  161.0356  132.6383 H   0  0  0  0  0  0  0  0  0  0  0  0
  143.5054  156.5362  134.5477 H   0  0  0  0  0  0  0  0  0  0  0  0
  146.5603  154.5085  132.6667 H   0  0  0  0  0  0  0  0  0  0  0  0
  147.9030  156.4110  131.2670 H   0  0  0  0  0  0  0  0  0  0  0  0
  148.6370  155.8156  134.1681 H   0  0  0  0  0  0  0  0  0  0  0  0
  148.6902  154.2357  133.2989 H   0  0  0  0  0  0  0  0  0  0  0  0
  149.0000  156.7490  132.0100 H   0  0  0  0  0  0  0  0  0  0  0  0
  1  2  1  0
  2  3  2  0
  2  4  1  0
  4  5  2  0
  5  6  1  0
  6  7  2  0
  7  8  1  0
  8  9  2  0
  9 10  1  0
 10 11  1  0
 11 12  1  0
 12 13  1  0
 13 14  1  0
 14 15  1  0
 15 16  1  0
 16 17  1  0
  9 18  1  0
 18 19  2  0
 19 20  1  0
 20 21  1  0
 21 22  2  0
 21 23  1  0
 23 24  1  0
 23 25  1  0
 25 26  1  0
 20  4  1  0
 19  6  1  0
 17 13  1  0
  1 27  1  0
  5 28  1  0
  7 29  1  0
  8 30  1  0
 10 31  1  0
 10 32  1  0
 11 33  1  0
 11 34  1  0
 12 35  1  0
 12 36  1  0
 14 37  1  0
 14 38  1  0
 15 39  1  0
 15 40  1  0
 16 41  1  0
 16 42  1  0
 17 43  1  0
 17 44  1  0
 18 45  1  0
 23 46  1  6
 24 47  1  0
 25 48  1  0
 25 49  1  0
 26 50  1  0
M  CHG  1   1  -1
M  END
>  <UniqueID>  (15) 
15

>  <SMILES>  (15) 
[NH-]C(=O)c1cc2ccc(CCCN3CCCC3)cc2n1C(=O)[C@@H](O)CO

>  <Energy>  (15) 
97.09532596790547

>  <Genealogy>  (15) 
[NH-]C(=O)c1cc2ccc(CCCN3CCCC3)cc2n1C(=O)C(O)CO (protonated)
[NH-]C(=O)c1cc2ccc(CCCN3CCCC3)cc2n1C(=O)[C@@H](O)CO (chirality)
[NH-]C(=O)c1cc2ccc(CCCN3CCCC3)cc2n1C(=O)[C@@H](O)CO (3D coordinates assigned)
[NH-]C(=O)c1cc2ccc(CCCN3CCCC3)cc2n1C(=O)[C@@H](O)CO (nonaromatic ring conformer: 97.09532596790547 kcal/mol)

>  <smiles>  (15) 
NC(=O)c1cc2ccc(CCCN3CCCC3)cc2n1C(=O)C(O)CO

>  <score_type>  (15) 
oracle

>  <origin>  (15) 
adg

>  <m_score__min__energy>  (15) 
-7.5599999999999996

>  <m_primary>  (15) 
energy

$$$$
15:0
     RDKit          3D

 46 47  0  0  0  0  0  0  0  0999 V2000
  138.3690  159.7560  130.7260 C   0  0  0  0  0  0  0  0  0  0  0  0
  137.8970  158.9820  131.8200 O   0  0  0  0  0  0  0  0  0  0  0  0
  138.7510  158.4410  132.7840 C   0  0  0  0  0  0  0  0  0  0  0  0
  138.3590  157.5080  133.5370 O   0  0  0  0  0  0  0  0  0  0  0  0
  140.0740  158.9680  132.9150 N   0  0  0  0  0  0  0  0  0  0  0  0
  140.6150  159.5070  134.1600 C   0  0  0  0  0  0  0  0  0  0  0  0
  141.7420  158.6250  134.7090 C   0  0  0  0  0  0  0  0  0  0  0  0
  143.0950  159.0970  134.2370 C   0  0  0  0  0  0  0  0  0  0  0  0
  143.3770  160.4830  134.1520 C   0  0  0  0  0  0  0  0  0  0  0  0
  144.6380  160.9310  133.7220 C   0  0  0  0  0  0  0  0  0  0  0  0
  145.5990  159.9720  133.4090 C   0  0  0  0  0  0  0  0  0  0  0  0
  146.8900  160.1240  132.9550 C   0  0  0  0  0  0  0  0  0  0  0  0
  147.3880  158.8270  132.8160 C   0  0  0  0  0  0  0  0  0  0  0  0
  148.7810  158.5090  132.4270 C   0  0  0  0  0  0  0  0  0  0  0  0
  149.1180  157.2240  131.9010 N   0  0  0  0  0  0  0  0  0  0  0  0
  149.6810  159.3820  132.5320 O   0  0  0  0  0  0  0  0  0  0  0  0
  146.4410  157.9150  133.1720 N   0  0  0  0  0  0  0  0  0  0  0  0
  146.5450  156.4840  133.1450 C   0  0  0  0  0  0  0  0  0  0  0  0
  145.6720  155.8040  132.5390 O   0  0  0  0  0  0  0  0  0  0  0  0
  147.6230  155.8540  133.7790 O   0  0  0  0  0  0  0  0  0  0  0  0
  147.6460  154.4660  134.1100 C   0  0  0  0  0  0  0  0  0  0  0  0
  147.9660  153.6070  132.8810 C   0  0  0  0  0  0  0  0  0  0  0  0
  149.4580  153.5940  132.5410 C   0  0  0  0  0  0  0  0  0  0  0  0
  149.8760  154.8940  132.2330 O   0  0  0  0  0  0  0  0  0  0  0  0
  145.3520  158.6300  133.5240 C   0  0  0  0  0  0  0  0  0  0  0  0
  144.0970  158.1550  133.9170 C   0  0  0  0  0  0  0  0  0  0  0  0
  138.9066  160.6375  131.1054 H   0  0  0  0  0  0  0  0  0  0  0  0
  139.0497  159.1472  130.1128 H   0  0  0  0  0  0  0  0  0  0  0  0
  137.5161  160.0825  130.1128 H   0  0  0  0  0  0  0  0  0  0  0  0
  141.0101  160.5161  133.9712 H   0  0  0  0  0  0  0  0  0  0  0  0
  139.8057  159.5373  134.9044 H   0  0  0  0  0  0  0  0  0  0  0  0
  141.7164  158.6558  135.8083 H   0  0  0  0  0  0  0  0  0  0  0  0
  141.5873  157.5998  134.3416 H   0  0  0  0  0  0  0  0  0  0  0  0
  142.6023  161.2147  134.4249 H   0  0  0  0  0  0  0  0  0  0  0  0
  144.8592  162.0050  133.6353 H   0  0  0  0  0  0  0  0  0  0  0  0
  147.4170  161.0667  132.7462 H   0  0  0  0  0  0  0  0  0  0  0  0
  148.4150  156.4540  131.8550 H   0  0  0  0  0  0  0  0  0  0  0  0
  150.0960  157.0240  131.5950 H   0  0  0  0  0  0  0  0  0  0  0  0
  148.4142  154.2932  134.8781 H   0  0  0  0  0  0  0  0  0  0  0  0
  146.6516  154.1811  134.4841 H   0  0  0  0  0  0  0  0  0  0  0  0
  147.6413  152.5748  133.0790 H   0  0  0  0  0  0  0  0  0  0  0  0
  147.4338  154.0437  132.0231 H   0  0  0  0  0  0  0  0  0  0  0  0
  150.0279  153.2201  133.4044 H   0  0  0  0  0  0  0  0  0  0  0  0
  149.6320  152.9374  131.6758 H   0  0  0  0  0  0  0  0  0  0  0  0
  149.5810  155.4640  132.9900 H   0  0  0  0  0  0  0  0  0  0  0  0
  143.8955  157.0752  133.9754 H   0  0  0  0  0  0  0  0  0  0  0  0
  1  2  1  0
  2  3  1  0
  3  4  2  0
  3  5  1  0
  5  6  1  0
  6  7  1  0
  7  8  1  0
  8  9  2  0
  9 10  1  0
 10 11  2  0
 11 12  1  0
 12 13  2  0
 13 14  1  0
 14 15  1  0
 14 16  2  0
 13 17  1  0
 17 18  1  0
 18 19  2  0
 18 20  1  0
 20 21  1  0
 21 22  1  0
 22 23  1  0
 23 24  1  0
 17 25  1  0
 25 26  2  0
 26  8  1  0
 25 11  1  0
  1 27  1  0
  1 28  1  0
  1 29  1  0
  6 30  1  0
  6 31  1  0
  7 32  1  0
  7 33  1  0
  9 34  1  0
 10 35  1  0
 12 36  1  0
 15 37  1  0
 15 38  1  0
 21 39  1  0
 21 40  1  0
 22 41  1  0
 22 42  1  0
 23 43  1  0
 23 44  1  0
 24 45  1  0
 26 46  1  0
M  CHG  1   5  -1
M  END
>  <UniqueID>  (16) 
16

>  <SMILES>  (16) 
COC(=O)[N-]CCc1ccc2cc(C(N)=O)n(C(=O)OCCCO)c2c1

>  <Energy>  (16) 
71.48936603083918

>  <Genealogy>  (16) 
COC(=O)[N-]CCc1ccc2cc(C(N)=O)n(C(=O)OCCCO)c2c1 (protonated)
COC(=O)[N-]CCc1ccc2cc(C(N)=O)n(C(=O)OCCCO)c2c1 (3D coordinates assigned)
COC(=O)[N-]CCc1ccc2cc(C(N)=O)n(C(=O)OCCCO)c2c1 (optimized conformer: 71.48936603083918 kcal/mol)

>  <smiles>  (16) 
COC(=O)NCCc1ccc2cc(C(N)=O)n(C(=O)OCCCO)c2c1

>  <score_type>  (16) 
oracle

>  <origin>  (16) 
adg

>  <m_score__min__energy>  (16) 
-6.0599999999999996

>  <m_primary>  (16) 
energy

$$$$
16:0
     RDKit          3D

 43 45  0  0  0  0  0  0  0  0999 V2000
  145.7120  160.2800  133.7290 C   0  0  0  0  0  0  0  0  0  0  0  0
  146.2410  159.2650  133.5210 N   0  0  0  0  0  0  0  0  0  0  0  0
  146.8590  158.0590  133.2710 C   0  0  0  0  0  0  0  0  0  0  0  0
  148.2020  158.0850  132.9630 C   0  0  0  0  0  0  0  0  0  0  0  0
  148.8500  156.8950  132.7080 C   0  0  0  0  0  0  0  0  0  0  0  0
  148.1400  155.7030  132.7670 C   0  0  0  0  0  0  0  0  0  0  0  0
  148.5350  154.4080  132.5600 C   0  0  0  0  0  0  0  0  0  0  0  0
  147.4400  153.5520  132.7370 C   0  0  0  0  0  0  0  0  0  0  0  0
  147.5280  152.1230  132.5930 C   0  0  0  0  0  0  0  0  0  0  0  0
  146.2990  151.3560  132.5590 N   0  0  0  0  0  0  0  0  0  0  0  0
  148.5660  151.4420  132.4910 O   0  0  0  0  0  0  0  0  0  0  0  0
  146.3960  154.3400  133.0480 N   0  0  0  0  0  0  0  0  0  0  0  0
  145.0660  153.9530  133.3130 C   0  0  0  0  0  0  0  0  0  0  0  0
  144.7980  153.2080  134.3220 O   0  0  0  0  0  0  0  0  0  0  0  0
  143.9600  154.3090  132.5630 O   0  0  0  0  0  0  0  0  0  0  0  0
  142.7110  154.5720  133.1940 C   0  0  0  0  0  0  0  0  0  0  0  0
  141.7570  153.4300  133.0640 C   0  0  0  0  0  0  0  0  0  0  0  0
  142.2890  152.1690  133.6570 C   0  0  0  0  0  0  0  0  0  0  0  0
  141.8850  151.0190  132.8660 N   0  0  0  0  0  0  0  0  0  0  0  0
  140.5460  150.8170  132.7090 C   0  0  0  0  0  0  0  0  0  0  0  0
  140.0750  149.7490  131.9740 C   0  0  0  0  0  0  0  0  0  0  0  0
  138.7290  149.5490  131.8180 F   0  0  0  0  0  0  0  0  0  0  0  0
  140.9930  148.8920  131.4020 C   0  0  0  0  0  0  0  0  0  0  0  0
  140.5820  147.9110  130.7260 O   0  0  0  0  0  0  0  0  0  0  0  0
  142.3100  149.1250  131.5800 N   0  0  0  0  0  0  0  0  0  0  0  0
  142.7570  150.1700  132.3000 C   0  0  0  0  0  0  0  0  0  0  0  0
  143.9950  150.3640  132.4500 O   0  0  0  0  0  0  0  0  0  0  0  0
  146.8000  155.6430  133.0710 C   0  0  0  0  0  0  0  0  0  0  0  0
  146.1690  156.8470  133.3230 C   0  0  0  0  0  0  0  0  0  0  0  0
  148.7478  159.0391  132.9213 H   0  0  0  0  0  0  0  0  0  0  0  0
  149.9216  156.8899  132.4596 H   0  0  0  0  0  0  0  0  0  0  0  0
  149.5541  154.0893  132.2957 H   0  0  0  0  0  0  0  0  0  0  0  0
  146.0930  150.7190  131.7560 H   0  0  0  0  0  0  0  0  0  0  0  0
  145.6550  151.4830  133.3700 H   0  0  0  0  0  0  0  0  0  0  0  0
  142.8883  154.7646  134.2624 H   0  0  0  0  0  0  0  0  0  0  0  0
  142.2607  155.4440  132.6972 H   0  0  0  0  0  0  0  0  0  0  0  0
  140.8203  153.6931  133.5772 H   0  0  0  0  0  0  0  0  0  0  0  0
  141.5948  153.2514  131.9908 H   0  0  0  0  0  0  0  0  0  0  0  0
  143.3875  152.2191  133.6864 H   0  0  0  0  0  0  0  0  0  0  0  0
  141.8846  152.0584  134.6740 H   0  0  0  0  0  0  0  0  0  0  0  0
  139.8329  151.5137  133.1738 H   0  0  0  0  0  0  0  0  0  0  0  0
  142.9640  148.4500  131.1280 H   0  0  0  0  0  0  0  0  0  0  0  0
  145.0972  156.8498  133.5705 H   0  0  0  0  0  0  0  0  0  0  0  0
  1  2  3  0
  2  3  1  0
  3  4  2  0
  4  5  1  0
  5  6  2  0
  6  7  1  0
  7  8  2  0
  8  9  1  0
  9 10  1  0
  9 11  2  0
  8 12  1  0
 12 13  1  0
 13 14  2  0
 13 15  1  0
 15 16  1  0
 16 17  1  0
 17 18  1  0
 18 19  1  0
 19 20  1  0
 20 21  2  0
 21 22  1  0
 21 23  1  0
 23 24  2  0
 23 25  1  0
 25 26  1  0
 26 27  2  0
 12 28  1  0
 28 29  2  0
 29  3  1  0
 28  6  1  0
 26 19  1  0
  4 30  1  0
  5 31  1  0
  7 32  1  0
 10 33  1  0
 10 34  1  0
 16 35  1  0
 16 36  1  0
 17 37  1  0
 17 38  1  0
 18 39  1  0
 18 40  1  0
 20 41  1  0
 25 42  1  0
 29 43  1  0
M  CHG  2   1  -1   2   1
M  END
>  <smiles>  (17) 
[C-]#[N+]c1ccc2cc(C(N)=O)n(C(=O)OCCCn3cc(F)c(=O)[nH]c3=O)c2c1

>  <score_type>  (17) 
oracle

>  <origin>  (17) 
adg

>  <m_score__min__energy>  (17) 
-8.6300000000000008

>  <m_primary>  (17) 
energy

$$$$
17:0
     RDKit          3D

 31 32  0  0  0  0  0  0  0  0999 V2000
  149.7860  157.2270  132.2190 N   0  0  0  0  0  0  0  0  0  0  0  0
  148.6890  156.4090  132.6160 C   0  0  0  0  0  0  0  0  0  0  0  0
  148.8650  155.1680  132.7480 O   0  0  0  0  0  0  0  0  0  0  0  0
  147.3610  156.9940  132.9000 C   0  0  0  0  0  0  0  0  0  0  0  0
  146.2210  156.2340  133.1570 C   0  0  0  0  0  0  0  0  0  0  0  0
  145.2210  157.1470  133.4050 C   0  0  0  0  0  0  0  0  0  0  0  0
  143.8760  156.9450  133.6990 C   0  0  0  0  0  0  0  0  0  0  0  0
  143.0640  158.0800  133.8760 C   0  0  0  0  0  0  0  0  0  0  0  0
  143.6060  159.3830  133.7510 C   0  0  0  0  0  0  0  0  0  0  0  0
  142.7170  160.5810  133.9270 C   0  0  0  0  0  0  0  0  0  0  0  0
  143.4430  161.7360  133.6970 F   0  0  0  0  0  0  0  0  0  0  0  0
  141.6650  160.5180  133.0310 F   0  0  0  0  0  0  0  0  0  0  0  0
  144.9750  159.5480  133.4460 C   0  0  0  0  0  0  0  0  0  0  0  0
  145.7620  158.4010  133.2940 C   0  0  0  0  0  0  0  0  0  0  0  0
  147.0740  158.3230  132.9890 N   0  0  0  0  0  0  0  0  0  0  0  0
  147.9540  159.4300  132.7490 C   0  0  0  0  0  0  0  0  0  0  0  0
  148.8510  159.7100  133.5900 O   0  0  0  0  0  0  0  0  0  0  0  0
  147.7810  160.2930  131.5370 C   0  0  0  0  0  0  0  0  0  0  0  0
  149.1170  160.7530  131.0440 C   0  0  0  0  0  0  0  0  0  0  0  0
  150.3050  160.0580  131.4210 N   0  0  0  0  0  0  0  0  0  0  0  0
  149.1980  161.7870  130.3280 O   0  0  0  0  0  0  0  0  0  0  0  0
  150.0410  158.0840  132.7580 H   0  0  0  0  0  0  0  0  0  0  0  0
  146.1381  155.1371  133.1608 H   0  0  0  0  0  0  0  0  0  0  0  0
  143.4610  155.9304  133.7901 H   0  0  0  0  0  0  0  0  0  0  0  0
  141.9974  157.9546  134.1139 H   0  0  0  0  0  0  0  0  0  0  0  0
  142.3241  160.5900  134.9544 H   0  0  0  0  0  0  0  0  0  0  0  0
  145.4110  160.5513  133.3310 H   0  0  0  0  0  0  0  0  0  0  0  0
  147.2797  159.7153  130.7465 H   0  0  0  0  0  0  0  0  0  0  0  0
  147.1710  161.1695  131.8008 H   0  0  0  0  0  0  0  0  0  0  0  0
  150.2560  159.2150  132.0340 H   0  0  0  0  0  0  0  0  0  0  0  0
  151.2370  160.3930  131.0930 H   0  0  0  0  0  0  0  0  0  0  0  0
  1  2  1  0
  2  3  2  0
  2  4  1  0
  4  5  2  0
  5  6  1  0
  6  7  2  0
  7  8  1  0
  8  9  2  0
  9 10  1  0
 10 11  1  0
 10 12  1  0
  9 13  1  0
 13 14  2  0
 14 15  1  0
 15 16  1  0
 16 17  2  0
 16 18  1  0
 18 19  1  0
 19 20  1  0
 19 21  2  0
 15  4  1  0
 14  6  1  0
  1 22  1  0
  5 23  1  0
  7 24  1  0
  8 25  1  0
 10 26  1  0
 13 27  1  0
 18 28  1  0
 18 29  1  0
 20 30  1  0
 20 31  1  0
M  CHG  1   1  -1
M  END
>  <UniqueID>  (18) 
17

>  <SMILES>  (18) 
[NH-]C(=O)c1cc2ccc(C(F)F)cc2n1C(=O)CC(N)=O

>  <Energy>  (18) 
67.0393509664568

>  <Genealogy>  (18) 
[NH-]C(=O)c1cc2ccc(C(F)F)cc2n1C(=O)CC(N)=O (protonated)
[NH-]C(=O)c1cc2ccc(C(F)F)cc2n1C(=O)CC(N)=O (3D coordinates assigned)
[NH-]C(=O)c1cc2ccc(C(F)F)cc2n1C(=O)CC(N)=O (optimized conformer: 67.0393509664568 kcal/mol)

>  <smiles>  (18) 
NC(=O)CC(=O)n1c(C(N)=O)cc2ccc(C(F)F)cc21

>  <score_type>  (18) 
oracle

>  <origin>  (18) 
adg

>  <m_score__min__energy>  (18) 
-6.21

>  <m_primary>  (18) 
energy

$$$$
18:0
     RDKit          3D

 42 43  0  0  0  0  0  0  0  0999 V2000
  148.9170  151.5390  132.2080 C   0  0  0  0  0  0  0  0  0  0  0  0
  149.6840  152.7210  132.2670 O   0  0  0  0  0  0  0  0  0  0  0  0
  148.8530  153.8520  132.4820 C   0  0  2  0  0  0  0  0  0  0  0  0
  149.6270  155.0170  132.3570 O   0  0  0  0  0  0  0  0  0  0  0  0
  148.2290  153.7760  133.8870 C   0  0  0  0  0  0  0  0  0  0  0  0
  146.7030  153.6080  133.8270 C   0  0  0  0  0  0  0  0  0  0  0  0
  145.9620  154.9510  133.8520 C   0  0  0  0  0  0  0  0  0  0  0  0
  146.8800  156.0440  133.8200 O   0  0  0  0  0  0  0  0  0  0  0  0
  147.0730  156.8630  132.7020 C   0  0  0  0  0  0  0  0  0  0  0  0
  147.3360  156.3590  131.5760 O   0  0  0  0  0  0  0  0  0  0  0  0
  146.9310  158.2840  132.8310 N   0  0  0  0  0  0  0  0  0  0  0  0
  147.8970  159.2360  132.6920 C   0  0  0  0  0  0  0  0  0  0  0  0
  149.2740  159.0090  132.2050 C   0  0  0  0  0  0  0  0  0  0  0  0
  149.8170  157.6950  132.1260 N   0  0  0  0  0  0  0  0  0  0  0  0
  149.9650  159.9870  131.8120 O   0  0  0  0  0  0  0  0  0  0  0  0
  147.3910  160.4930  133.0160 C   0  0  0  0  0  0  0  0  0  0  0  0
  146.0740  160.2810  133.3560 C   0  0  0  0  0  0  0  0  0  0  0  0
  145.1080  161.1790  133.7960 C   0  0  0  0  0  0  0  0  0  0  0  0
  143.8400  160.6720  134.1290 C   0  0  0  0  0  0  0  0  0  0  0  0
  143.5580  159.2860  134.0090 C   0  0  0  0  0  0  0  0  0  0  0  0
  142.2160  158.7440  134.4330 C   0  0  0  0  0  0  0  0  0  0  0  0
  142.0220  157.4690  133.9320 F   0  0  0  0  0  0  0  0  0  0  0  0
  141.2190  159.5740  133.9550 F   0  0  0  0  0  0  0  0  0  0  0  0
  142.1300  158.6850  135.8140 F   0  0  0  0  0  0  0  0  0  0  0  0
  144.5750  158.4040  133.5800 C   0  0  0  0  0  0  0  0  0  0  0  0
  145.8220  158.9400  133.2380 C   0  0  0  0  0  0  0  0  0  0  0  0
  148.6940  151.1953  133.2288 H   0  0  0  0  0  0  0  0  0  0  0  0
  147.9760  151.7388  131.6746 H   0  0  0  0  0  0  0  0  0  0  0  0
  149.4828  150.7610  131.6746 H   0  0  0  0  0  0  0  0  0  0  0  0
  148.0435  153.8701  131.7375 H   0  0  0  0  0  0  0  0  0  0  0  0
  149.0580  155.7030  131.9150 H   0  0  0  0  0  0  0  0  0  0  0  0
  148.6607  152.9173  134.4220 H   0  0  0  0  0  0  0  0  0  0  0  0
  148.4482  154.7190  134.4092 H   0  0  0  0  0  0  0  0  0  0  0  0
  146.4427  153.0789  132.8984 H   0  0  0  0  0  0  0  0  0  0  0  0
  146.3944  153.0397  134.7168 H   0  0  0  0  0  0  0  0  0  0  0  0
  145.2994  155.0123  132.9761 H   0  0  0  0  0  0  0  0  0  0  0  0
  145.3785  155.0113  134.7825 H   0  0  0  0  0  0  0  0  0  0  0  0
  149.3970  156.9770  131.4950 H   0  0  0  0  0  0  0  0  0  0  0  0
  147.9298  161.4519  133.0029 H   0  0  0  0  0  0  0  0  0  0  0  0
  145.3292  162.2532  133.8809 H   0  0  0  0  0  0  0  0  0  0  0  0
  143.0573  161.3571  134.4867 H   0  0  0  0  0  0  0  0  0  0  0  0
  144.3911  157.3214  133.5162 H   0  0  0  0  0  0  0  0  0  0  0  0
  1  2  1  0
  2  3  1  0
  3  4  1  0
  3  5  1  0
  5  6  1  0
  6  7  1  0
  7  8  1  0
  8  9  1  0
  9 10  2  0
  9 11  1  0
 11 12  1  0
 12 13  1  0
 13 14  1  0
 13 15  2  0
 12 16  2  0
 16 17  1  0
 17 18  2  0
 18 19  1  0
 19 20  2  0
 20 21  1  0
 21 22  1  0
 21 23  1  0
 21 24  1  0
 20 25  1  0
 25 26  2  0
 26 11  1  0
 26 17  1  0
  1 27  1  0
  1 28  1  0
  1 29  1  0
  3 30  1  6
  4 31  1  0
  5 32  1  0
  5 33  1  0
  6 34  1  0
  6 35  1  0
  7 36  1  0
  7 37  1  0
 14 38  1  0
 16 39  1  0
 18 40  1  0
 19 41  1  0
 25 42  1  0
M  CHG  1  14  -1
M  END
>  <UniqueID>  (19) 
18

>  <SMILES>  (19) 
CO[C@H](O)CCCOC(=O)n1c(C([NH-])=O)cc2ccc(C(F)(F)F)cc21

>  <Energy>  (19) 
78.4463996400408

>  <Genealogy>  (19) 
CO[C@H](O)CCCOC(=O)n1c(C([NH-])=O)cc2ccc(C(F)(F)F)cc21 (protonated)
CO[C@H](O)CCCOC(=O)n1c(C([NH-])=O)cc2ccc(C(F)(F)F)cc21 (3D coordinates assigned)
CO[C@H](O)CCCOC(=O)n1c(C([NH-])=O)cc2ccc(C(F)(F)F)cc21 (optimized conformer: 78.4463996400408 kcal/mol)

>  <smiles>  (19) 
CO[C@H](O)CCCOC(=O)n1c(C(N)=O)cc2ccc(C(F)(F)F)cc21

>  <score_type>  (19) 
oracle

>  <origin>  (19) 
adg

>  <m_score__min__energy>  (19) 
-5.8600000000000003

>  <m_primary>  (19) 
energy

$$$$
19:0
     RDKit          3D

 50 52  0  0  0  0  0  0  0  0999 V2000
  139.9030  159.7260  131.8040 C   0  0  0  0  0  0  0  0  0  0  0  0
  140.1340  158.5910  132.7110 N   0  0  0  0  0  0  0  0  0  0  0  0
  139.3220  157.4310  132.2970 C   0  0  0  0  0  0  0  0  0  0  0  0
  139.3160  156.3090  133.3610 C   0  0  0  0  0  0  0  0  0  0  0  0
  140.3000  156.5150  134.4460 N   0  0  0  0  0  0  0  0  0  0  0  0
  141.6320  155.9090  134.2210 C   0  0  0  0  0  0  0  0  0  0  0  0
  142.7990  156.8390  134.5770 C   0  0  0  0  0  0  0  0  0  0  0  0
  143.3560  157.4830  133.3410 C   0  0  0  0  0  0  0  0  0  0  0  0
  142.6870  157.4660  132.2740 O   0  0  0  0  0  0  0  0  0  0  0  0
  144.6240  158.1530  133.3790 N   0  0  0  0  0  0  0  0  0  0  0  0
  144.8590  159.4950  133.4490 C   0  0  0  0  0  0  0  0  0  0  0  0
  143.8330  160.5560  133.5600 C   0  0  0  0  0  0  0  0  0  0  0  0
  142.4520  160.2720  133.3510 N   0  0  0  0  0  0  0  0  0  0  0  0
  144.1780  161.7260  133.8720 O   0  0  0  0  0  0  0  0  0  0  0  0
  146.2310  159.7460  133.4700 C   0  0  0  0  0  0  0  0  0  0  0  0
  146.8300  158.5080  133.4140 C   0  0  0  0  0  0  0  0  0  0  0  0
  148.1770  158.1620  133.4270 C   0  0  0  0  0  0  0  0  0  0  0  0
  148.5090  156.7980  133.3620 C   0  0  0  0  0  0  0  0  0  0  0  0
  147.4960  155.8070  133.2580 C   0  0  0  0  0  0  0  0  0  0  0  0
  147.8520  154.3380  133.2370 C   0  0  0  0  0  0  0  0  0  0  0  0
  149.1540  154.1210  132.4710 C   0  0  0  0  0  0  0  0  0  0  0  0
  148.0040  153.8710  134.5330 F   0  0  0  0  0  0  0  0  0  0  0  0
  146.8440  153.6010  132.6360 F   0  0  0  0  0  0  0  0  0  0  0  0
  146.1380  156.2020  133.2560 C   0  0  0  0  0  0  0  0  0  0  0  0
  145.8390  157.5650  133.3520 C   0  0  0  0  0  0  0  0  0  0  0  0
  140.3100  157.8660  135.0530 C   0  0  0  0  0  0  0  0  0  0  0  0
  139.8150  158.9610  134.0950 C   0  0  0  0  0  0  0  0  0  0  0  0
  139.7179  160.6354  132.3945 H   0  0  0  0  0  0  0  0  0  0  0  0
  140.7893  159.8747  131.1697 H   0  0  0  0  0  0  0  0  0  0  0  0
  139.0291  159.5165  131.1697 H   0  0  0  0  0  0  0  0  0  0  0  0
  138.2875  157.7651  132.1294 H   0  0  0  0  0  0  0  0  0  0  0  0
  139.7656  157.0207  131.3778 H   0  0  0  0  0  0  0  0  0  0  0  0
  138.3119  156.2587  133.8074 H   0  0  0  0  0  0  0  0  0  0  0  0
  139.5933  155.3766  132.8474 H   0  0  0  0  0  0  0  0  0  0  0  0
  141.7098  155.0018  134.8381 H   0  0  0  0  0  0  0  0  0  0  0  0
  141.7096  155.6919  133.1454 H   0  0  0  0  0  0  0  0  0  0  0  0
  142.4418  157.6213  135.2628 H   0  0  0  0  0  0  0  0  0  0  0  0
  143.5918  156.2462  135.0566 H   0  0  0  0  0  0  0  0  0  0  0  0
  142.1520  159.5300  132.6820 H   0  0  0  0  0  0  0  0  0  0  0  0
  146.7287  160.7257  133.5206 H   0  0  0  0  0  0  0  0  0  0  0  0
  148.9592  158.9331  133.4864 H   0  0  0  0  0  0  0  0  0  0  0  0
  149.5657  156.4939  133.3920 H   0  0  0  0  0  0  0  0  0  0  0  0
  149.9803  153.9833  133.1839 H   0  0  0  0  0  0  0  0  0  0  0  0
  149.0624  153.2257  131.8385 H   0  0  0  0  0  0  0  0  0  0  0  0
  149.3577  154.9976  131.8385 H   0  0  0  0  0  0  0  0  0  0  0  0
  145.3349  155.4541  133.1806 H   0  0  0  0  0  0  0  0  0  0  0  0
  139.6591  157.8562  135.9397 H   0  0  0  0  0  0  0  0  0  0  0  0
  141.3531  158.1023  135.3103 H   0  0  0  0  0  0  0  0  0  0  0  0
  138.7260  159.0743  134.2011 H   0  0  0  0  0  0  0  0  0  0  0  0
  140.3118  159.9111  134.3410 H   0  0  0  0  0  0  0  0  0  0  0  0
  1  2  1  0
  2  3  1  0
  3  4  1  0
  4  5  1  0
  5  6  1  0
  6  7  1  0
  7  8  1  0
  8  9  2  0
  8 10  1  0
 10 11  1  0
 11 12  1  0
 12 13  1  0
 12 14  2  0
 11 15  2  0
 15 16  1  0
 16 17  2  0
 17 18  1  0
 18 19  2  0
 19 20  1  0
 20 21  1  0
 20 22  1  0
 20 23  1  0
 19 24  1  0
 24 25  2  0
  5 26  1  0
 26 27  1  0
 27  2  1  0
 25 10  1  0
 25 16  1  0
  1 28  1  0
  1 29  1  0
  1 30  1  0
  3 31  1  0
  3 32  1  0
  4 33  1  0
  4 34  1  0
  6 35  1  0
  6 36  1  0
  7 37  1  0
  7 38  1  0
 13 39  1  0
 15 40  1  0
 17 41  1  0
 18 42  1  0
 21 43  1  0
 21 44  1  0
 21 45  1  0
 24 46  1  0
 26 47  1  0
 26 48  1  0
 27 49  1  0
 27 50  1  0
M  CHG  1  13  -1
M  END
>  <UniqueID>  (20) 
19

>  <SMILES>  (20) 
CN1CCN(CCC(=O)n2c(C([NH-])=O)cc3ccc(C(C)(F)F)cc32)CC1

>  <Energy>  (20) 
99.6160211747324

>  <Genealogy>  (20) 
CN1CCN(CCC(=O)n2c(C([NH-])=O)cc3ccc(C(C)(F)F)cc32)CC1 (protonated)
CN1CCN(CCC(=O)n2c(C([NH-])=O)cc3ccc(C(C)(F)F)cc32)CC1 (3D coordinates assigned)
CN1CCN(CCC(=O)n2c(C([NH-])=O)cc3ccc(C(C)(F)F)cc32)CC1 (nonaromatic ring conformer: 99.6160211747324 kcal/mol)

>  <smiles>  (20) 
CN1CCN(CCC(=O)n2c(C(N)=O)cc3ccc(C(C)(F)F)cc32)CC1

>  <score_type>  (20) 
oracle

>  <origin>  (20) 
adg

>  <m_score__min__energy>  (20) 
-8.25

>  <m_primary>  (20) 
energy

$$$$
20:0
     RDKit          3D

 35 36  0  0  0  0  0  0  0  0999 V2000
  145.3390  154.6490  134.8750 C   0  0  0  0  0  0  0  0  0  0  0  0
  144.3700  154.0190  133.9730 N   0  0  0  0  0  0  0  0  0  0  0  0
  144.8000  152.9930  133.0190 C   0  0  0  0  0  0  0  0  0  0  0  0
  143.0020  154.4720  133.9550 C   0  0  0  0  0  0  0  0  0  0  0  0
  142.2590  154.1990  132.9740 O   0  0  0  0  0  0  0  0  0  0  0  0
  142.4710  155.2470  135.0390 N   0  0  0  0  0  0  0  0  0  0  0  0
  142.1860  156.5790  135.0450 C   0  0  0  0  0  0  0  0  0  0  0  0
  142.5030  157.5340  133.9630 C   0  0  0  0  0  0  0  0  0  0  0  0
  142.3070  157.1990  132.5880 N   0  0  0  0  0  0  0  0  0  0  0  0
  142.9920  158.6580  134.2570 O   0  0  0  0  0  0  0  0  0  0  0  0
  141.5250  156.9310  136.2200 C   0  0  0  0  0  0  0  0  0  0  0  0
  141.4100  155.7610  136.9390 C   0  0  0  0  0  0  0  0  0  0  0  0
  140.8140  155.5200  138.1720 C   0  0  0  0  0  0  0  0  0  0  0  0
  140.7980  154.1970  138.6490 C   0  0  0  0  0  0  0  0  0  0  0  0
  141.3530  153.1450  137.8780 C   0  0  0  0  0  0  0  0  0  0  0  0
  141.3520  151.7390  138.4060 C   0  0  0  0  0  0  0  0  0  0  0  0
  140.4280  150.8880  137.5960 C   0  0  0  0  0  0  0  0  0  0  0  0
  140.6100  150.7570  136.3570 O   0  0  0  0  0  0  0  0  0  0  0  0
  139.3950  150.1960  138.2170 O   0  0  0  0  0  0  0  0  0  0  0  0
  141.9530  153.4300  136.6310 C   0  0  0  0  0  0  0  0  0  0  0  0
  141.9790  154.7590  136.1970 C   0  0  0  0  0  0  0  0  0  0  0  0
  145.0464  154.4588  135.9182 H   0  0  0  0  0  0  0  0  0  0  0  0
  146.3384  154.2275  134.6918 H   0  0  0  0  0  0  0  0  0  0  0  0
  145.3593  155.7334  134.6918 H   0  0  0  0  0  0  0  0  0  0  0  0
  145.1685  152.1137  133.5676 H   0  0  0  0  0  0  0  0  0  0  0  0
  143.9488  152.7005  132.3867 H   0  0  0  0  0  0  0  0  0  0  0  0
  145.6054  153.3948  132.3867 H   0  0  0  0  0  0  0  0  0  0  0  0
  142.0990  156.2210  132.2910 H   0  0  0  0  0  0  0  0  0  0  0  0
  142.4780  157.9150  131.8480 H   0  0  0  0  0  0  0  0  0  0  0  0
  141.1703  157.9305  136.5117 H   0  0  0  0  0  0  0  0  0  0  0  0
  140.3688  156.3388  138.7563 H   0  0  0  0  0  0  0  0  0  0  0  0
  140.3507  153.9766  139.6295 H   0  0  0  0  0  0  0  0  0  0  0  0
  142.3705  151.3276  138.3480 H   0  0  0  0  0  0  0  0  0  0  0  0
  141.0111  151.7469  139.4518 H   0  0  0  0  0  0  0  0  0  0  0  0
  142.3883  152.6274  136.0176 H   0  0  0  0  0  0  0  0  0  0  0  0
  1  2  1  0
  2  3  1  0
  2  4  1  0
  4  5  2  0
  4  6  1  0
  6  7  1  0
  7  8  1  0
  8  9  1  0
  8 10  2  0
  7 11  2  0
 11 12  1  0
 12 13  2  0
 13 14  1  0
 14 15  2  0
 15 16  1  0
 16 17  1  0
 17 18  2  0
 17 19  1  0
 15 20  1  0
 20 21  2  0
 21  6  1  0
 21 12  1  0
  1 22  1  0
  1 23  1  0
  1 24  1  0
  3 25  1  0
  3 26  1  0
  3 27  1  0
  9 28  1  0
  9 29  1  0
 11 30  1  0
 13 31  1  0
 14 32  1  0
 16 33  1  0
 16 34  1  0
 20 35  1  0
M  CHG  1  19  -1
M  END
>  <UniqueID>  (21) 
20

>  <SMILES>  (21) 
CN(C)C(=O)n1c(C(N)=O)cc2ccc(CC(=O)[O-])cc21

>  <Energy>  (21) 
71.09758291356763

>  <Genealogy>  (21) 
CN(C)C(=O)n1c(C(N)=O)cc2ccc(CC(=O)[O-])cc21 (protonated)
CN(C)C(=O)n1c(C(N)=O)cc2ccc(CC(=O)[O-])cc21 (3D coordinates assigned)
CN(C)C(=O)n1c(C(N)=O)cc2ccc(CC(=O)[O-])cc21 (optimized conformer: 71.09758291356763 kcal/mol)

>  <smiles>  (21) 
CN(C)C(=O)n1c(C(N)=O)cc2ccc(CC(=O)O)cc21

>  <score_type>  (21) 
oracle

>  <origin>  (21) 
adg

>  <m_score__min__energy>  (21) 
-7.2000000000000002

>  <m_primary>  (21) 
energy

$$$$
21:0
     RDKit          3D

 41 44  0  0  0  0  0  0  0  0999 V2000
  145.5460  161.5060  133.7930 N   0  0  0  0  0  0  0  0  0  0  0  0
  144.1240  161.6340  133.7290 C   0  0  0  0  0  0  0  0  0  0  0  0
  143.6170  162.7810  133.6160 O   0  0  0  0  0  0  0  0  0  0  0  0
  143.2500  160.4430  133.8110 C   0  0  0  0  0  0  0  0  0  0  0  0
  141.9100  160.4720  134.1970 C   0  0  0  0  0  0  0  0  0  0  0  0
  141.4650  159.1750  134.0700 C   0  0  0  0  0  0  0  0  0  0  0  0
  140.2210  158.6220  134.3520 C   0  0  0  0  0  0  0  0  0  0  0  0
  140.0600  157.2370  134.1790 C   0  0  0  0  0  0  0  0  0  0  0  0
  141.1400  156.4330  133.7300 C   0  0  0  0  0  0  0  0  0  0  0  0
  140.9700  154.9740  133.5810 C   0  0  0  0  0  0  0  0  0  0  0  0
  141.7540  154.0500  134.1680 N   0  0  0  0  0  0  0  0  0  0  0  0
  141.2620  152.8880  133.7700 N   0  0  0  0  0  0  0  0  0  0  0  0
  140.2240  153.0900  132.9750 N   0  0  0  0  0  0  0  0  0  0  0  0
  140.0130  154.3880  132.8350 N   0  0  0  0  0  0  0  0  0  0  0  0
  142.3870  157.0340  133.4450 C   0  0  0  0  0  0  0  0  0  0  0  0
  142.5130  158.4150  133.6220 C   0  0  0  0  0  0  0  0  0  0  0  0
  143.6140  159.1770  133.4620 N   0  0  0  0  0  0  0  0  0  0  0  0
  144.9180  158.7060  133.0880 C   0  0  0  0  0  0  0  0  0  0  0  0
  145.5490  159.2820  132.1630 O   0  0  0  0  0  0  0  0  0  0  0  0
  145.4860  157.4650  133.7060 C   0  0  0  0  0  0  0  0  0  0  0  0
  146.6740  157.8010  134.4010 O   0  0  0  0  0  0  0  0  0  0  0  0
  147.8290  157.5040  133.6400 C   0  0  0  0  0  0  0  0  0  0  0  0
  148.2400  158.6870  132.8180 C   0  0  0  0  0  0  0  0  0  0  0  0
  147.9240  159.9610  133.1410 N   0  0  0  0  0  0  0  0  0  0  0  0
  148.3650  160.8450  132.2080 C   0  0  0  0  0  0  0  0  0  0  0  0
  149.0240  160.2690  131.1260 C   0  0  0  0  0  0  0  0  0  0  0  0
  149.5670  160.9860  129.9670 C   0  0  0  0  0  0  0  0  0  0  0  0
  149.9880  160.3470  128.9680 O   0  0  0  0  0  0  0  0  0  0  0  0
  149.6100  162.3740  129.9610 O   0  0  0  0  0  0  0  0  0  0  0  0
  149.0610  158.6020  131.3510 S   0  0  0  0  0  0  0  0  0  0  0  0
  146.0080  160.5710  133.8180 H   0  0  0  0  0  0  0  0  0  0  0  0
  146.1490  162.3580  133.7680 H   0  0  0  0  0  0  0  0  0  0  0  0
  141.3314  161.3456  134.5318 H   0  0  0  0  0  0  0  0  0  0  0  0
  139.3877  159.2500  134.7002 H   0  0  0  0  0  0  0  0  0  0  0  0
  139.0870  156.7710  134.3937 H   0  0  0  0  0  0  0  0  0  0  0  0
  143.2367  156.4306  133.0929 H   0  0  0  0  0  0  0  0  0  0  0  0
  144.7565  157.0349  134.4081 H   0  0  0  0  0  0  0  0  0  0  0  0
  145.7091  156.7266  132.9218 H   0  0  0  0  0  0  0  0  0  0  0  0
  148.6502  157.2342  134.3203 H   0  0  0  0  0  0  0  0  0  0  0  0
  147.6018  156.6659  132.9648 H   0  0  0  0  0  0  0  0  0  0  0  0
  148.2131  161.9305  132.3006 H   0  0  0  0  0  0  0  0  0  0  0  0
  1  2  1  0
  2  3  2  0
  2  4  1  0
  4  5  2  0
  5  6  1  0
  6  7  2  0
  7  8  1  0
  8  9  2  0
  9 10  1  0
 10 11  1  0
 11 12  2  0
 12 13  1  0
 13 14  1  0
  9 15  1  0
 15 16  2  0
 16 17  1  0
 17 18  1  0
 18 19  2  0
 18 20  1  0
 20 21  1  0
 21 22  1  0
 22 23  1  0
 23 24  2  0
 24 25  1  0
 25 26  2  0
 26 27  1  0
 27 28  2  0
 27 29  1  0
 26 30  1  0
 17  4  1  0
 30 23  1  0
 16  6  1  0
 14 10  2  0
  1 31  1  0
  1 32  1  0
  5 33  1  0
  7 34  1  0
  8 35  1  0
 15 36  1  0
 20 37  1  0
 20 38  1  0
 22 39  1  0
 22 40  1  0
 25 41  1  0
M  CHG  2  13  -1  29  -1
M  END
>  <UniqueID>  (22) 
21

>  <SMILES>  (22) 
NC(=O)c1cc2ccc(-c3nn[n-]n3)cc2n1C(=O)COCc1ncc(C(=O)[O-])s1

>  <Energy>  (22) 
148.01438363271777

>  <Genealogy>  (22) 
NC(=O)c1cc2ccc(-c3nn[n-]n3)cc2n1C(=O)COCc1ncc(C(=O)[O-])s1 (protonated)
NC(=O)c1cc2ccc(-c3nn[n-]n3)cc2n1C(=O)COCc1ncc(C(=O)[O-])s1 (3D coordinates assigned)
NC(=O)c1cc2ccc(-c3nn[n-]n3)cc2n1C(=O)COCc1ncc(C(=O)[O-])s1 (optimized conformer: 148.01438363271777 kcal/mol)

>  <smiles>  (22) 
NC(=O)c1cc2ccc(-c3nn[nH]n3)cc2n1C(=O)COCc1ncc(C(=O)O)s1

>  <score_type>  (22) 
oracle

>  <origin>  (22) 
adg

>  <m_score__min__energy>  (22) 
-8.75

>  <m_primary>  (22) 
energy

$$$$
22:0
     RDKit          3D

 52 54  0  0  0  0  0  0  0  0999 V2000
  137.3890  159.9370  131.1010 C   0  0  0  0  0  0  0  0  0  0  0  0
  138.7940  159.9880  130.5040 C   0  0  0  0  0  0  0  0  0  0  0  0
  139.8380  159.3140  131.4000 C   0  0  0  0  0  0  0  0  0  0  0  0
  140.0560  160.0690  132.5920 O   0  0  0  0  0  0  0  0  0  0  0  0
  141.1340  159.8630  133.4620 C   0  0  0  0  0  0  0  0  0  0  0  0
  141.8070  160.8410  133.8870 O   0  0  0  0  0  0  0  0  0  0  0  0
  141.4880  158.5250  133.8520 N   0  0  0  0  0  0  0  0  0  0  0  0
  140.6590  157.5450  134.3160 C   0  0  0  0  0  0  0  0  0  0  0  0
  139.1820  157.6240  134.3780 C   0  0  0  0  0  0  0  0  0  0  0  0
  138.3790  157.0560  133.3430 N   0  0  0  0  0  0  0  0  0  0  0  0
  138.6200  158.2250  135.3310 O   0  0  0  0  0  0  0  0  0  0  0  0
  141.3890  156.4020  134.6400 C   0  0  0  0  0  0  0  0  0  0  0  0
  142.6990  156.7120  134.3550 C   0  0  0  0  0  0  0  0  0  0  0  0
  143.8490  155.9410  134.4890 C   0  0  0  0  0  0  0  0  0  0  0  0
  145.0770  156.5250  134.1380 C   0  0  0  0  0  0  0  0  0  0  0  0
  145.1360  157.8610  133.6710 C   0  0  0  0  0  0  0  0  0  0  0  0
  146.3980  158.4490  133.3130 N   0  0  0  0  0  0  0  0  0  0  0  0
  147.6250  157.6470  133.3300 C   0  0  0  0  0  0  0  0  0  0  0  0
  148.5080  158.0620  132.1510 C   0  0  0  0  0  0  0  0  0  0  0  0
  148.8800  159.4930  132.2180 N   0  0  0  0  0  0  0  0  0  0  0  0
  149.3290  160.0900  130.6370 S   0  0  0  0  0  0  0  0  0  0  0  0
  149.1240  161.8580  130.5140 C   0  0  0  0  0  0  0  0  0  0  0  0
  150.7700  159.7500  130.3730 O   0  0  0  0  0  0  0  0  0  0  0  0
  148.4780  159.4290  129.5890 O   0  0  0  0  0  0  0  0  0  0  0  0
  147.8880  160.3780  132.8790 C   0  0  0  0  0  0  0  0  0  0  0  0
  146.4500  159.8360  132.8380 C   0  0  0  0  0  0  0  0  0  0  0  0
  143.9450  158.6120  133.5450 C   0  0  0  0  0  0  0  0  0  0  0  0
  142.7330  157.9990  133.8820 C   0  0  0  0  0  0  0  0  0  0  0  0
  137.4568  159.9395  132.1989 H   0  0  0  0  0  0  0  0  0  0  0  0
  136.8166  160.8150  130.7670 H   0  0  0  0  0  0  0  0  0  0  0  0
  136.8818  159.0198  130.7670 H   0  0  0  0  0  0  0  0  0  0  0  0
  138.7821  159.4765  129.5302 H   0  0  0  0  0  0  0  0  0  0  0  0
  139.0751  161.0466  130.4020 H   0  0  0  0  0  0  0  0  0  0  0  0
  139.4835  158.3086  131.6712 H   0  0  0  0  0  0  0  0  0  0  0  0
  140.7866  159.2529  130.8465 H   0  0  0  0  0  0  0  0  0  0  0  0
  138.8050  156.4940  132.5720 H   0  0  0  0  0  0  0  0  0  0  0  0
  137.3400  157.1570  133.3700 H   0  0  0  0  0  0  0  0  0  0  0  0
  141.0001  155.4535  135.0389 H   0  0  0  0  0  0  0  0  0  0  0  0
  143.7981  154.9061  134.8584 H   0  0  0  0  0  0  0  0  0  0  0  0
  146.0033  155.9384  134.2267 H   0  0  0  0  0  0  0  0  0  0  0  0
  148.1646  157.8184  134.2731 H   0  0  0  0  0  0  0  0  0  0  0  0
  147.3724  156.5796  133.2474 H   0  0  0  0  0  0  0  0  0  0  0  0
  149.4253  157.4550  132.1625 H   0  0  0  0  0  0  0  0  0  0  0  0
  147.9379  157.9006  131.2242 H   0  0  0  0  0  0  0  0  0  0  0  0
  149.0736  162.2924  131.5234 H   0  0  0  0  0  0  0  0  0  0  0  0
  149.9781  162.2893  129.9714 H   0  0  0  0  0  0  0  0  0  0  0  0
  148.1938  162.0824  129.9714 H   0  0  0  0  0  0  0  0  0  0  0  0
  148.1818  160.5032  133.9316 H   0  0  0  0  0  0  0  0  0  0  0  0
  147.8882  161.3291  132.3264 H   0  0  0  0  0  0  0  0  0  0  0  0
  145.8116  160.4605  133.4802 H   0  0  0  0  0  0  0  0  0  0  0  0
  146.0941  159.8640  131.7975 H   0  0  0  0  0  0  0  0  0  0  0  0
  143.9703  159.6530  133.1906 H   0  0  0  0  0  0  0  0  0  0  0  0
  1  2  1  0
  2  3  1  0
  3  4  1  0
  4  5  1  0
  5  6  2  0
  5  7  1  0
  7  8  1  0
  8  9  1  0
  9 10  1  0
  9 11  2  0
  8 12  2  0
 12 13  1  0
 13 14  2  0
 14 15  1  0
 15 16  2  0
 16 17  1  0
 17 18  1  0
 18 19  1  0
 19 20  1  0
 20 21  1  0
 21 22  1  0
 21 23  2  0
 21 24  2  0
 20 25  1  0
 25 26  1  0
 16 27  1  0
 27 28  2  0
 28  7  1  0
 28 13  1  0
 26 17  1  0
  1 29  1  0
  1 30  1  0
  1 31  1  0
  2 32  1  0
  2 33  1  0
  3 34  1  0
  3 35  1  0
 10 36  1  0
 10 37  1  0
 12 38  1  0
 14 39  1  0
 15 40  1  0
 18 41  1  0
 18 42  1  0
 19 43  1  0
 19 44  1  0
 22 45  1  0
 22 46  1  0
 22 47  1  0
 25 48  1  0
 25 49  1  0
 26 50  1  0
 26 51  1  0
 27 52  1  0
M  END
>  <UniqueID>  (23) 
22

>  <SMILES>  (23) 
CCCOC(=O)n1c(C(N)=O)cc2ccc(N3CCN(S(C)(=O)=O)CC3)cc21

>  <Energy>  (23) 
92.6275776027544

>  <Genealogy>  (23) 
CCCOC(=O)n1c(C(N)=O)cc2ccc(N3CCN(S(C)(=O)=O)CC3)cc21 (3D coordinates assigned)
CCCOC(=O)n1c(C(N)=O)cc2ccc(N3CCN(S(C)(=O)=O)CC3)cc21 (nonaromatic ring conformer: 92.6275776027544 kcal/mol)

>  <smiles>  (23) 
CCCOC(=O)n1c(C(N)=O)cc2ccc(N3CCN(S(C)(=O)=O)CC3)cc21

>  <score_type>  (23) 
oracle

>  <origin>  (23) 
adg

>  <m_score__min__energy>  (23) 
-9.4700000000000006

>  <m_primary>  (23) 
energy

$$$$
23:0
     RDKit          3D

 37 38  0  0  0  0  0  0  0  0999 V2000
  149.6190  161.4750  129.9630 C   0  0  0  0  0  0  0  0  0  0  0  0
  149.5940  160.7680  131.0960 C   0  0  0  0  0  0  0  0  0  0  0  0
  149.8240  159.2820  131.1070 C   0  0  0  0  0  0  0  0  0  0  0  0
  148.8610  158.6020  132.0420 C   0  0  0  0  0  0  0  0  0  0  0  0
  147.8590  159.3580  132.7010 C   0  0  0  0  0  0  0  0  0  0  0  0
  146.9660  158.7390  133.5920 C   0  0  0  0  0  0  0  0  0  0  0  0
  147.1110  157.3730  133.8160 C   0  0  0  0  0  0  0  0  0  0  0  0
  146.3750  156.5230  134.6110 C   0  0  0  0  0  0  0  0  0  0  0  0
  146.9630  155.2690  134.4540 C   0  0  0  0  0  0  0  0  0  0  0  0
  146.5330  154.0710  135.2050 C   0  0  0  0  0  0  0  0  0  0  0  0
  147.4130  153.4200  136.1160 N   0  0  0  0  0  0  0  0  0  0  0  0
  145.3540  153.6430  135.0740 O   0  0  0  0  0  0  0  0  0  0  0  0
  148.0150  155.3400  133.5910 N   0  0  0  0  0  0  0  0  0  0  0  0
  148.8370  154.2670  133.1050 C   0  0  0  0  0  0  0  0  0  0  0  0
  149.7140  154.4920  132.2270 O   0  0  0  0  0  0  0  0  0  0  0  0
  148.6700  152.9790  133.6280 O   0  0  0  0  0  0  0  0  0  0  0  0
  149.5700  151.9010  133.3770 C   0  0  1  0  0  0  0  0  0  0  0  0
  149.6090  150.9540  134.5780 C   0  0  0  0  0  0  0  0  0  0  0  0
  149.1080  151.1570  132.1620 C   0  0  0  0  0  0  0  0  0  0  0  0
  149.9470  150.6030  131.4020 O   0  0  0  0  0  0  0  0  0  0  0  0
  147.7510  151.0370  131.8900 O   0  0  0  0  0  0  0  0  0  0  0  0
  148.0930  156.6340  133.2110 C   0  0  0  0  0  0  0  0  0  0  0  0
  148.9820  157.2190  132.3010 C   0  0  0  0  0  0  0  0  0  0  0  0
  149.4469  162.5612  129.9886 H   0  0  0  0  0  0  0  0  0  0  0  0
  149.8117  160.9711  129.0044 H   0  0  0  0  0  0  0  0  0  0  0  0
  149.4000  161.2867  132.0464 H   0  0  0  0  0  0  0  0  0  0  0  0
  149.6804  158.8868  130.0905 H   0  0  0  0  0  0  0  0  0  0  0  0
  150.8500  159.0853  131.4514 H   0  0  0  0  0  0  0  0  0  0  0  0
  147.7799  160.4389  132.5131 H   0  0  0  0  0  0  0  0  0  0  0  0
  146.1771  159.3160  134.0967 H   0  0  0  0  0  0  0  0  0  0  0  0
  145.5075  156.7792  135.2369 H   0  0  0  0  0  0  0  0  0  0  0  0
  148.2200  152.8550  135.7700 H   0  0  0  0  0  0  0  0  0  0  0  0
  150.5817  152.2996  133.2112 H   0  0  0  0  0  0  0  0  0  0  0  0
  149.5848  151.5405  135.5083 H   0  0  0  0  0  0  0  0  0  0  0  0
  148.7377  150.2834  134.5446 H   0  0  0  0  0  0  0  0  0  0  0  0
  150.5325  150.3573  134.5446 H   0  0  0  0  0  0  0  0  0  0  0  0
  149.7547  156.6168  131.8007 H   0  0  0  0  0  0  0  0  0  0  0  0
  1  2  2  0
  2  3  1  0
  3  4  1  0
  4  5  2  0
  5  6  1  0
  6  7  2  0
  7  8  1  0
  8  9  2  0
  9 10  1  0
 10 11  1  0
 10 12  2  0
  9 13  1  0
 13 14  1  0
 14 15  2  0
 14 16  1  0
 16 17  1  0
 17 18  1  0
 17 19  1  0
 19 20  2  0
 19 21  1  0
 13 22  1  0
 22 23  2  0
 23  4  1  0
 22  7  1  0
  1 24  1  0
  1 25  1  0
  2 26  1  0
  3 27  1  0
  3 28  1  0
  5 29  1  0
  6 30  1  0
  8 31  1  0
 11 32  1  0
 17 33  1  6
 18 34  1  0
 18 35  1  0
 18 36  1  0
 23 37  1  0
M  CHG  2  11  -1  21  -1
M  END
>  <UniqueID>  (24) 
23

>  <SMILES>  (24) 
C=CCc1ccc2cc(C([NH-])=O)n(C(=O)O[C@@H](C)C(=O)[O-])c2c1

>  <Energy>  (24) 
68.05141736048434

>  <Genealogy>  (24) 
C=CCc1ccc2cc(C([NH-])=O)n(C(=O)OC(C)C(=O)[O-])c2c1 (protonated)
C=CCc1ccc2cc(C([NH-])=O)n(C(=O)O[C@@H](C)C(=O)[O-])c2c1 (chirality)
C=CCc1ccc2cc(C([NH-])=O)n(C(=O)O[C@@H](C)C(=O)[O-])c2c1 (3D coordinates assigned)
C=CCc1ccc2cc(C([NH-])=O)n(C(=O)O[C@@H](C)C(=O)[O-])c2c1 (optimized conformer: 68.05141736048434 kcal/mol)

>  <smiles>  (24) 
C=CCc1ccc2cc(C(N)=O)n(C(=O)OC(C)C(=O)O)c2c1

>  <score_type>  (24) 
oracle

>  <origin>  (24) 
adg

>  <m_score__min__energy>  (24) 
-6.8300000000000001

>  <m_primary>  (24) 
energy

$$$$
24:0
     RDKit          3D

 42 44  0  0  0  0  0  0  0  0999 V2000
  137.8560  160.4860  130.0310 C   0  0  0  0  0  0  0  0  0  0  0  0
  137.7220  159.5260  131.0730 O   0  0  0  0  0  0  0  0  0  0  0  0
  138.7600  159.1360  131.9330 C   0  0  0  0  0  0  0  0  0  0  0  0
  139.7840  160.0160  132.3120 C   0  0  0  0  0  0  0  0  0  0  0  0
  140.7860  159.5780  133.1740 C   0  0  0  0  0  0  0  0  0  0  0  0
  140.7790  158.2630  133.6600 C   0  0  0  0  0  0  0  0  0  0  0  0
  141.8660  157.8110  134.5680 C   0  0  0  0  0  0  0  0  0  0  0  0
  141.6050  157.5480  135.7710 O   0  0  0  0  0  0  0  0  0  0  0  0
  143.2200  157.6990  134.1050 N   0  0  0  0  0  0  0  0  0  0  0  0
  143.8980  156.5680  133.7590 C   0  0  0  0  0  0  0  0  0  0  0  0
  143.3480  155.1950  133.7360 C   0  0  0  0  0  0  0  0  0  0  0  0
  142.2360  154.8320  134.5460 N   0  0  0  0  0  0  0  0  0  0  0  0
  143.8650  154.3300  132.9800 O   0  0  0  0  0  0  0  0  0  0  0  0
  145.1930  156.8860  133.3530 C   0  0  0  0  0  0  0  0  0  0  0  0
  145.2870  158.2560  133.4630 C   0  0  0  0  0  0  0  0  0  0  0  0
  146.3510  159.1110  133.1870 C   0  0  0  0  0  0  0  0  0  0  0  0
  146.1630  160.4870  133.3990 C   0  0  0  0  0  0  0  0  0  0  0  0
  144.9230  160.9820  133.8760 C   0  0  0  0  0  0  0  0  0  0  0  0
  144.7480  162.4550  134.1140 C   0  0  0  0  0  0  0  0  0  0  0  0
  143.9880  163.0090  133.1000 F   0  0  0  0  0  0  0  0  0  0  0  0
  145.9860  163.0700  134.1460 F   0  0  0  0  0  0  0  0  0  0  0  0
  143.8670  160.0840  134.1470 C   0  0  0  0  0  0  0  0  0  0  0  0
  144.0820  158.7210  133.9210 C   0  0  0  0  0  0  0  0  0  0  0  0
  139.7250  157.4060  133.2720 C   0  0  0  0  0  0  0  0  0  0  0  0
  139.6750  156.1020  133.7890 O   0  0  0  0  0  0  0  0  0  0  0  0
  139.7450  154.9160  133.0060 C   0  0  0  0  0  0  0  0  0  0  0  0
  138.7610  157.8620  132.4150 N   0  0  0  0  0  0  0  0  0  0  0  0
  137.9955  161.4854  130.4689 H   0  0  0  0  0  0  0  0  0  0  0  0
  138.7276  160.2331  129.4094 H   0  0  0  0  0  0  0  0  0  0  0  0
  136.9485  160.4815  129.4094 H   0  0  0  0  0  0  0  0  0  0  0  0
  139.7956  161.0475  131.9301 H   0  0  0  0  0  0  0  0  0  0  0  0
  141.5879  160.2680  133.4755 H   0  0  0  0  0  0  0  0  0  0  0  0
  141.5190  155.5390  134.8250 H   0  0  0  0  0  0  0  0  0  0  0  0
  145.9750  156.1898  133.0158 H   0  0  0  0  0  0  0  0  0  0  0  0
  147.3096  158.7208  132.8143 H   0  0  0  0  0  0  0  0  0  0  0  0
  146.9859  161.1872  133.1929 H   0  0  0  0  0  0  0  0  0  0  0  0
  144.2359  162.6047  135.0760 H   0  0  0  0  0  0  0  0  0  0  0  0
  142.9005  160.4475  134.5260 H   0  0  0  0  0  0  0  0  0  0  0  0
  139.7967  154.0407  133.6702 H   0  0  0  0  0  0  0  0  0  0  0  0
  138.8496  154.8423  132.3713 H   0  0  0  0  0  0  0  0  0  0  0  0
  140.6428  154.9481  132.3713 H   0  0  0  0  0  0  0  0  0  0  0  0
  137.9820  157.2350  132.1180 H   0  0  0  0  0  0  0  0  0  0  0  0
  1  2  1  0
  2  3  1  0
  3  4  2  0
  4  5  1  0
  5  6  2  0
  6  7  1  0
  7  8  2  0
  7  9  1  0
  9 10  1  0
 10 11  1  0
 11 12  1  0
 11 13  2  0
 10 14  2  0
 14 15  1  0
 15 16  2  0
 16 17  1  0
 17 18  2  0
 18 19  1  0
 19 20  1  0
 19 21  1  0
 18 22  1  0
 22 23  2  0
  6 24  1  0
 24 25  1  0
 25 26  1  0
 24 27  2  0
 27  3  1  0
 23  9  1  0
 23 15  1  0
  1 28  1  0
  1 29  1  0
  1 30  1  0
  4 31  1  0
  5 32  1  0
 12 33  1  0
 14 34  1  0
 16 35  1  0
 17 36  1  0
 19 37  1  0
 22 38  1  0
 26 39  1  0
 26 40  1  0
 26 41  1  0
 27 42  1  0
M  CHG  2  12  -1  27   1
M  END
>  <UniqueID>  (25) 
24

>  <SMILES>  (25) 
COc1ccc(C(=O)n2c(C([NH-])=O)cc3ccc(C(F)F)cc32)c(OC)[nH+]1

>  <Energy>  (25) 
84.43478461755416

>  <Genealogy>  (25) 
COc1ccc(C(=O)n2c(C([NH-])=O)cc3ccc(C(F)F)cc32)c(OC)[nH+]1 (protonated)
COc1ccc(C(=O)n2c(C([NH-])=O)cc3ccc(C(F)F)cc32)c(OC)[nH+]1 (3D coordinates assigned)
COc1ccc(C(=O)n2c(C([NH-])=O)cc3ccc(C(F)F)cc32)c(OC)[nH+]1 (optimized conformer: 84.43478461755416 kcal/mol)

>  <smiles>  (25) 
COc1ccc(C(=O)n2c(C(N)=O)cc3ccc(C(F)F)cc32)c(OC)n1

>  <score_type>  (25) 
oracle

>  <origin>  (25) 
adg

>  <m_score__min__energy>  (25) 
-5.9199999999999999

>  <m_primary>  (25) 
energy

$$$$
25:0
     RDKit          3D

 42 43  0  0  0  0  0  0  0  0999 V2000
  139.9080  160.1550  132.4500 C   0  0  0  0  0  0  0  0  0  0  0  0
  139.7270  158.7480  131.8630 C   0  0  0  0  0  0  0  0  0  0  0  0
  138.6270  158.7380  130.7950 C   0  0  0  0  0  0  0  0  0  0  0  0
  139.5020  157.6760  132.9560 C   0  0  0  0  0  0  0  0  0  0  0  0
  139.5080  158.2180  134.3950 C   0  0  0  0  0  0  0  0  0  0  0  0
  140.6510  157.6270  135.1770 C   0  0  0  0  0  0  0  0  0  0  0  0
  140.6630  157.7280  136.3950 O   0  0  0  0  0  0  0  0  0  0  0  0
  141.7940  156.9400  134.4810 C   0  0  0  0  0  0  0  0  0  0  0  0
  142.8810  157.9310  134.1730 C   0  0  0  0  0  0  0  0  0  0  0  0
  142.6520  159.3170  134.3620 C   0  0  0  0  0  0  0  0  0  0  0  0
  143.6680  160.2520  134.1060 C   0  0  0  0  0  0  0  0  0  0  0  0
  144.9010  159.7730  133.6740 C   0  0  0  0  0  0  0  0  0  0  0  0
  146.0510  160.4550  133.3490 C   0  0  0  0  0  0  0  0  0  0  0  0
  146.9740  159.4740  132.9920 C   0  0  0  0  0  0  0  0  0  0  0  0
  148.3870  159.7650  132.6670 C   0  0  0  0  0  0  0  0  0  0  0  0
  149.4380  158.9620  133.2070 N   0  0  0  0  0  0  0  0  0  0  0  0
  148.6750  160.7000  131.8730 O   0  0  0  0  0  0  0  0  0  0  0  0
  146.4140  158.2330  133.0830 N   0  0  0  0  0  0  0  0  0  0  0  0
  146.9890  156.9620  132.7340 C   0  0  0  0  0  0  0  0  0  0  0  0
  148.0150  156.5310  133.3220 O   0  0  0  0  0  0  0  0  0  0  0  0
  145.1470  158.4340  133.5080 C   0  0  0  0  0  0  0  0  0  0  0  0
  144.1500  157.4810  133.7470 C   0  0  0  0  0  0  0  0  0  0  0  0
  139.9006  160.0977  133.5485 H   0  0  0  0  0  0  0  0  0  0  0  0
  140.8673  160.5731  132.1110 H   0  0  0  0  0  0  0  0  0  0  0  0
  139.0857  160.8023  132.1110 H   0  0  0  0  0  0  0  0  0  0  0  0
  140.6695  158.4732  131.3669 H   0  0  0  0  0  0  0  0  0  0  0  0
  137.6415  158.7291  131.2837 H   0  0  0  0  0  0  0  0  0  0  0  0
  138.7170  159.6370  130.1675 H   0  0  0  0  0  0  0  0  0  0  0  0
  138.7333  157.8408  130.1675 H   0  0  0  0  0  0  0  0  0  0  0  0
  138.5279  157.1988  132.7732 H   0  0  0  0  0  0  0  0  0  0  0  0
  140.3464  156.9747  132.8834 H   0  0  0  0  0  0  0  0  0  0  0  0
  139.6150  159.3125  134.3690 H   0  0  0  0  0  0  0  0  0  0  0  0
  138.5622  157.9406  134.8833 H   0  0  0  0  0  0  0  0  0  0  0  0
  142.1955  156.1504  135.1332 H   0  0  0  0  0  0  0  0  0  0  0  0
  141.4309  156.4997  133.5406 H   0  0  0  0  0  0  0  0  0  0  0  0
  141.6687  159.6636  134.7127 H   0  0  0  0  0  0  0  0  0  0  0  0
  143.4946  161.3296  134.2427 H   0  0  0  0  0  0  0  0  0  0  0  0
  146.2083  161.5435  133.3671 H   0  0  0  0  0  0  0  0  0  0  0  0
  150.4310  159.1510  132.9440 H   0  0  0  0  0  0  0  0  0  0  0  0
  149.2390  158.2050  133.8970 H   0  0  0  0  0  0  0  0  0  0  0  0
  146.5250  156.3571  131.9410 H   0  0  0  0  0  0  0  0  0  0  0  0
  144.3499  156.4085  133.6065 H   0  0  0  0  0  0  0  0  0  0  0  0
  1  2  1  0
  2  3  1  0
  2  4  1  0
  4  5  1  0
  5  6  1  0
  6  7  2  0
  6  8  1  0
  8  9  1  0
  9 10  2  0
 10 11  1  0
 11 12  2  0
 12 13  1  0
 13 14  2  0
 14 15  1  0
 15 16  1  0
 15 17  2  0
 14 18  1  0
 18 19  1  0
 19 20  2  0
 18 21  1  0
 21 22  2  0
 22  9  1  0
 21 12  1  0
  1 23  1  0
  1 24  1  0
  1 25  1  0
  2 26  1  0
  3 27  1  0
  3 28  1  0
  3 29  1  0
  4 30  1  0
  4 31  1  0
  5 32  1  0
  5 33  1  0
  8 34  1  0
  8 35  1  0
 10 36  1  0
 11 37  1  0
 13 38  1  0
 16 39  1  0
 16 40  1  0
 19 41  1  0
 22 42  1  0
M  END
>  <UniqueID>  (26) 
25

>  <SMILES>  (26) 
CC(C)CCC(=O)Cc1ccc2cc(C(N)=O)n(C=O)c2c1

>  <Energy>  (26) 
69.82559924863313

>  <Genealogy>  (26) 
CC(C)CCC(=O)Cc1ccc2cc(C(N)=O)n(C=O)c2c1 (3D coordinates assigned)
CC(C)CCC(=O)Cc1ccc2cc(C(N)=O)n(C=O)c2c1 (optimized conformer: 69.82559924863313 kcal/mol)

>  <smiles>  (26) 
CC(C)CCC(=O)Cc1ccc2cc(C(N)=O)n(C=O)c2c1

>  <score_type>  (26) 
oracle

>  <origin>  (26) 
adg

>  <m_score__min__energy>  (26) 
-7.7599999999999998

>  <m_primary>  (26) 
energy

$$$$
26:0
     RDKit          3D

 25 26  0  0  0  0  0  0  0  0999 V2000
  146.6470  152.8980  133.1470 N   0  0  0  0  0  0  0  0  0  0  0  0
  146.7140  153.9770  134.0800 C   0  0  0  0  0  0  0  0  0  0  0  0
  146.5320  153.7450  135.3050 O   0  0  0  0  0  0  0  0  0  0  0  0
  147.0550  155.3460  133.6440 C   0  0  0  0  0  0  0  0  0  0  0  0
  146.2090  156.4360  133.8170 C   0  0  0  0  0  0  0  0  0  0  0  0
  146.8990  157.5140  133.3140 C   0  0  0  0  0  0  0  0  0  0  0  0
  146.5190  158.8500  133.2220 C   0  0  0  0  0  0  0  0  0  0  0  0
  147.4140  159.7510  132.6240 C   0  0  0  0  0  0  0  0  0  0  0  0
  148.6630  159.3020  132.1250 C   0  0  0  0  0  0  0  0  0  0  0  0
  149.6110  160.2660  131.4710 C   0  0  0  0  0  0  0  0  0  0  0  0
  148.9270  161.4060  131.0900 F   0  0  0  0  0  0  0  0  0  0  0  0
  150.1790  159.6790  130.3560 F   0  0  0  0  0  0  0  0  0  0  0  0
  149.0130  157.9380  132.2320 C   0  0  0  0  0  0  0  0  0  0  0  0
  148.1090  157.0620  132.8500 C   0  0  0  0  0  0  0  0  0  0  0  0
  148.2180  155.7250  133.0440 N   0  0  0  0  0  0  0  0  0  0  0  0
  149.2710  154.8510  132.6030 C   0  0  0  0  0  0  0  0  0  0  0  0
  149.0190  153.7130  132.1290 O   0  0  0  0  0  0  0  0  0  0  0  0
  146.3610  151.9450  133.4670 H   0  0  0  0  0  0  0  0  0  0  0  0
  146.9700  153.0170  132.1620 H   0  0  0  0  0  0  0  0  0  0  0  0
  145.2027  156.4360  134.2613 H   0  0  0  0  0  0  0  0  0  0  0  0
  145.5460  159.1897  133.6066 H   0  0  0  0  0  0  0  0  0  0  0  0
  147.1442  160.8142  132.5418 H   0  0  0  0  0  0  0  0  0  0  0  0
  150.4021  160.5341  132.1867 H   0  0  0  0  0  0  0  0  0  0  0  0
  149.9729  157.5711  131.8395 H   0  0  0  0  0  0  0  0  0  0  0  0
  150.3166  155.1834  132.6814 H   0  0  0  0  0  0  0  0  0  0  0  0
  1  2  1  0
  2  3  2  0
  2  4  1  0
  4  5  2  0
  5  6  1  0
  6  7  2  0
  7  8  1  0
  8  9  2  0
  9 10  1  0
 10 11  1  0
 10 12  1  0
  9 13  1  0
 13 14  2  0
 14 15  1  0
 15 16  1  0
 16 17  2  0
 15  4  1  0
 14  6  1  0
  1 18  1  0
  1 19  1  0
  5 20  1  0
  7 21  1  0
  8 22  1  0
 10 23  1  0
 13 24  1  0
 16 25  1  0
M  END
>  <UniqueID>  (27) 
26

>  <SMILES>  (27) 
NC(=O)c1cc2ccc(C(F)F)cc2n1C=O

>  <Energy>  (27) 
63.69453552206854

>  <Genealogy>  (27) 
NC(=O)c1cc2ccc(C(F)F)cc2n1C=O (3D coordinates assigned)
NC(=O)c1cc2ccc(C(F)F)cc2n1C=O (optimized conformer: 63.69453552206854 kcal/mol)

>  <smiles>  (27) 
NC(=O)c1cc2ccc(C(F)F)cc2n1C=O

>  <score_type>  (27) 
oracle

>  <origin>  (27) 
adg

>  <m_score__min__energy>  (27) 
-5.5899999999999999

>  <m_primary>  (27) 
energy

$$$$
27:0
     RDKit          3D

 31 33  0  0  0  0  0  0  0  0999 V2000
  142.6990  160.3450  133.4030 N   0  0  0  0  0  0  0  0  0  0  0  0
  144.0540  160.6740  133.7010 C   0  0  0  0  0  0  0  0  0  0  0  0
  144.3270  161.8180  134.1510 O   0  0  0  0  0  0  0  0  0  0  0  0
  145.1230  159.6840  133.4580 C   0  0  0  0  0  0  0  0  0  0  0  0
  146.4770  160.0050  133.3710 C   0  0  0  0  0  0  0  0  0  0  0  0
  147.1270  158.8020  133.2070 C   0  0  0  0  0  0  0  0  0  0  0  0
  148.4830  158.5240  133.0690 C   0  0  0  0  0  0  0  0  0  0  0  0
  148.8670  157.1820  132.9100 C   0  0  0  0  0  0  0  0  0  0  0  0
  147.8990  156.1430  132.8900 C   0  0  0  0  0  0  0  0  0  0  0  0
  148.3410  154.7410  132.7160 C   0  0  0  0  0  0  0  0  0  0  0  0
  147.6160  153.5950  133.0010 C   0  0  0  0  0  0  0  0  0  0  0  0
  148.4420  152.5390  132.6810 C   0  0  0  0  0  0  0  0  0  0  0  0
  149.6160  153.0950  132.2210 C   0  0  0  0  0  0  0  0  0  0  0  0
  149.5260  154.4050  132.2540 O   0  0  0  0  0  0  0  0  0  0  0  0
  146.5290  156.4690  133.0350 C   0  0  0  0  0  0  0  0  0  0  0  0
  146.1800  157.8130  133.1980 C   0  0  0  0  0  0  0  0  0  0  0  0
  144.9470  158.3390  133.3440 N   0  0  0  0  0  0  0  0  0  0  0  0
  143.7160  157.6030  133.3640 C   0  0  0  0  0  0  0  0  0  0  0  0
  142.9580  157.6340  132.3580 O   0  0  0  0  0  0  0  0  0  0  0  0
  143.2730  156.8750  134.5970 C   0  0  0  0  0  0  0  0  0  0  0  0
  142.7520  157.7560  135.5270 F   0  0  0  0  0  0  0  0  0  0  0  0
  142.3000  155.9550  134.2570 F   0  0  0  0  0  0  0  0  0  0  0  0
  144.3490  156.2100  135.1570 F   0  0  0  0  0  0  0  0  0  0  0  0
  142.4620  159.7290  132.5930 H   0  0  0  0  0  0  0  0  0  0  0  0
  146.9298  161.0062  133.4224 H   0  0  0  0  0  0  0  0  0  0  0  0
  149.2314  159.3300  133.0839 H   0  0  0  0  0  0  0  0  0  0  0  0
  149.9326  156.9324  132.7994 H   0  0  0  0  0  0  0  0  0  0  0  0
  146.5925  153.5395  133.4002 H   0  0  0  0  0  0  0  0  0  0  0  0
  148.2106  151.4677  132.7741 H   0  0  0  0  0  0  0  0  0  0  0  0
  150.4944  152.5283  131.8785 H   0  0  0  0  0  0  0  0  0  0  0  0
  145.7582  155.6843  133.0198 H   0  0  0  0  0  0  0  0  0  0  0  0
  1  2  1  0
  2  3  2  0
  2  4  1  0
  4  5  2  0
  5  6  1  0
  6  7  2  0
  7  8  1  0
  8  9  2  0
  9 10  1  0
 10 11  2  0
 11 12  1  0
 12 13  2  0
 13 14  1  0
  9 15  1  0
 15 16  2  0
 16 17  1  0
 17 18  1  0
 18 19  2  0
 18 20  1  0
 20 21  1  0
 20 22  1  0
 20 23  1  0
 17  4  1  0
 16  6  1  0
 14 10  1  0
  1 24  1  0
  5 25  1  0
  7 26  1  0
  8 27  1  0
 11 28  1  0
 12 29  1  0
 13 30  1  0
 15 31  1  0
M  CHG  1   1  -1
M  END
>  <UniqueID>  (28) 
27

>  <SMILES>  (28) 
[NH-]C(=O)c1cc2ccc(-c3ccco3)cc2n1C(=O)C(F)(F)F

>  <Energy>  (28) 
100.24742495418482

>  <Genealogy>  (28) 
[NH-]C(=O)c1cc2ccc(-c3ccco3)cc2n1C(=O)C(F)(F)F (protonated)
[NH-]C(=O)c1cc2ccc(-c3ccco3)cc2n1C(=O)C(F)(F)F (3D coordinates assigned)
[NH-]C(=O)c1cc2ccc(-c3ccco3)cc2n1C(=O)C(F)(F)F (optimized conformer: 100.24742495418482 kcal/mol)

>  <smiles>  (28) 
NC(=O)c1cc2ccc(-c3ccco3)cc2n1C(=O)C(F)(F)F

>  <score_type>  (28) 
oracle

>  <origin>  (28) 
adg

>  <m_score__min__energy>  (28) 
-6.1399999999999997

>  <m_primary>  (28) 
energy

$$$$
28:0
     RDKit          3D

 34 35  0  0  0  0  0  0  0  0999 V2000
  148.7540  150.9700  131.9640 N   0  0  0  0  0  0  0  0  0  0  0  0
  149.1560  152.0220  132.2340 C   0  0  0  0  0  0  0  0  0  0  0  0
  149.6630  153.3540  132.5750 C   0  0  0  0  0  0  0  0  0  0  0  0
  148.5180  154.3120  132.7460 C   0  0  0  0  0  0  0  0  0  0  0  0
  147.2090  153.8210  132.9740 C   0  0  0  0  0  0  0  0  0  0  0  0
  146.1410  154.7080  133.1840 C   0  0  0  0  0  0  0  0  0  0  0  0
  146.4080  156.0740  133.1500 C   0  0  0  0  0  0  0  0  0  0  0  0
  145.5770  157.1410  133.3920 C   0  0  0  0  0  0  0  0  0  0  0  0
  146.3820  158.2720  133.2830 C   0  0  0  0  0  0  0  0  0  0  0  0
  145.8850  159.6430  133.5380 C   0  0  0  0  0  0  0  0  0  0  0  0
  146.6120  160.8030  133.1300 N   0  0  0  0  0  0  0  0  0  0  0  0
  144.7670  159.7930  134.1010 O   0  0  0  0  0  0  0  0  0  0  0  0
  147.6640  157.9200  132.9720 N   0  0  0  0  0  0  0  0  0  0  0  0
  148.8080  158.7890  132.8990 C   0  0  0  0  0  0  0  0  0  0  0  0
  148.9160  159.7300  133.7310 O   0  0  0  0  0  0  0  0  0  0  0  0
  149.9000  158.6030  131.8730 C   0  0  0  0  0  0  0  0  0  0  0  0
  149.9520  159.6930  130.7900 C   0  0  0  0  0  0  0  0  0  0  0  0
  148.7410  160.5740  130.8180 C   0  0  0  0  0  0  0  0  0  0  0  0
  147.6240  160.1290  130.4450 O   0  0  0  0  0  0  0  0  0  0  0  0
  148.8440  161.8840  131.2680 O   0  0  0  0  0  0  0  0  0  0  0  0
  147.6660  156.5660  132.9140 C   0  0  0  0  0  0  0  0  0  0  0  0
  148.7550  155.7040  132.7390 C   0  0  0  0  0  0  0  0  0  0  0  0
  150.2336  153.2972  133.5137 H   0  0  0  0  0  0  0  0  0  0  0  0
  150.3141  153.7110  131.7634 H   0  0  0  0  0  0  0  0  0  0  0  0
  147.0277  152.7361  132.9866 H   0  0  0  0  0  0  0  0  0  0  0  0
  145.1232  154.3346  133.3700 H   0  0  0  0  0  0  0  0  0  0  0  0
  144.5021  157.1087  133.6232 H   0  0  0  0  0  0  0  0  0  0  0  0
  146.2580  161.7540  133.3800 H   0  0  0  0  0  0  0  0  0  0  0  0
  147.4440  160.7400  132.5080 H   0  0  0  0  0  0  0  0  0  0  0  0
  150.8665  158.5945  132.3981 H   0  0  0  0  0  0  0  0  0  0  0  0
  149.6830  157.6576  131.3542 H   0  0  0  0  0  0  0  0  0  0  0  0
  150.8456  160.3132  130.9537 H   0  0  0  0  0  0  0  0  0  0  0  0
  149.9857  159.1949  129.8098 H   0  0  0  0  0  0  0  0  0  0  0  0
  149.7711  156.1015  132.5994 H   0  0  0  0  0  0  0  0  0  0  0  0
  1  2  3  0
  2  3  1  0
  3  4  1  0
  4  5  2  0
  5  6  1  0
  6  7  2  0
  7  8  1  0
  8  9  2  0
  9 10  1  0
 10 11  1  0
 10 12  2  0
  9 13  1  0
 13 14  1  0
 14 15  2  0
 14 16  1  0
 16 17  1  0
 17 18  1  0
 18 19  2  0
 18 20  1  0
 13 21  1  0
 21 22  2  0
 22  4  1  0
 21  7  1  0
  3 23  1  0
  3 24  1  0
  5 25  1  0
  6 26  1  0
  8 27  1  0
 11 28  1  0
 11 29  1  0
 16 30  1  0
 16 31  1  0
 17 32  1  0
 17 33  1  0
 22 34  1  0
M  CHG  1  20  -1
M  END
>  <UniqueID>  (29) 
28

>  <SMILES>  (29) 
N#CCc1ccc2cc(C(N)=O)n(C(=O)CCC(=O)[O-])c2c1

>  <Energy>  (29) 
70.30720452070145

>  <Genealogy>  (29) 
N#CCc1ccc2cc(C(N)=O)n(C(=O)CCC(=O)[O-])c2c1 (protonated)
N#CCc1ccc2cc(C(N)=O)n(C(=O)CCC(=O)[O-])c2c1 (3D coordinates assigned)
N#CCc1ccc2cc(C(N)=O)n(C(=O)CCC(=O)[O-])c2c1 (optimized conformer: 70.30720452070145 kcal/mol)

>  <smiles>  (29) 
N#CCc1ccc2cc(C(N)=O)n(C(=O)CCC(=O)O)c2c1

>  <score_type>  (29) 
oracle

>  <origin>  (29) 
adg

>  <m_score__min__energy>  (29) 
-7.04

>  <m_primary>  (29) 
energy

$$$$
29:0
     RDKit          3D

 46 47  0  0  0  0  0  0  0  0999 V2000
  147.9530  156.3770  134.4650 C   0  0  0  0  0  0  0  0  0  0  0  0
  146.7140  155.7160  133.8650 C   0  0  0  0  0  0  0  0  0  0  0  0
  146.9990  154.2490  133.5300 C   0  0  0  0  0  0  0  0  0  0  0  0
  145.6410  155.8080  134.8030 O   0  0  0  0  0  0  0  0  0  0  0  0
  144.2900  155.7750  134.4390 C   0  0  0  0  0  0  0  0  0  0  0  0
  143.4770  155.0290  135.0510 O   0  0  0  0  0  0  0  0  0  0  0  0
  143.8200  156.6220  133.3340 C   0  0  0  0  0  0  0  0  0  0  0  0
  143.5840  156.1020  132.2110 O   0  0  0  0  0  0  0  0  0  0  0  0
  143.6320  158.0340  133.5170 N   0  0  0  0  0  0  0  0  0  0  0  0
  142.4660  158.6910  133.7720 C   0  0  0  0  0  0  0  0  0  0  0  0
  141.1210  158.0780  133.8080 C   0  0  0  0  0  0  0  0  0  0  0  0
  140.8290  156.9590  132.9750 N   0  0  0  0  0  0  0  0  0  0  0  0
  140.2320  158.5210  134.5820 O   0  0  0  0  0  0  0  0  0  0  0  0
  142.7030  160.0540  133.9490 C   0  0  0  0  0  0  0  0  0  0  0  0
  144.0630  160.2100  133.8000 C   0  0  0  0  0  0  0  0  0  0  0  0
  144.8520  161.3530  133.9000 C   0  0  0  0  0  0  0  0  0  0  0  0
  146.2390  161.2120  133.7360 C   0  0  0  0  0  0  0  0  0  0  0  0
  146.8100  159.9400  133.4730 C   0  0  0  0  0  0  0  0  0  0  0  0
  148.3060  159.7950  133.3460 C   0  0  0  0  0  0  0  0  0  0  0  0
  148.7180  159.1870  132.0240 C   0  0  0  0  0  0  0  0  0  0  0  0
  148.8300  157.9330  131.9220 O   0  0  0  0  0  0  0  0  0  0  0  0
  148.9790  160.0190  130.8730 N   0  0  0  0  0  0  0  0  0  0  0  0
  149.3720  159.3870  129.6090 C   0  0  0  0  0  0  0  0  0  0  0  0
  148.8520  161.4790  130.9570 C   0  0  0  0  0  0  0  0  0  0  0  0
  145.9800  158.8010  133.3910 C   0  0  0  0  0  0  0  0  0  0  0  0
  144.6000  158.9750  133.5420 C   0  0  0  0  0  0  0  0  0  0  0  0
  147.8910  156.3439  135.5627 H   0  0  0  0  0  0  0  0  0  0  0  0
  148.8530  155.8392  134.1322 H   0  0  0  0  0  0  0  0  0  0  0  0
  148.0075  157.4240  134.1322 H   0  0  0  0  0  0  0  0  0  0  0  0
  146.4382  156.2323  132.9337 H   0  0  0  0  0  0  0  0  0  0  0  0
  147.1105  153.6751  134.4618 H   0  0  0  0  0  0  0  0  0  0  0  0
  146.1639  153.8378  132.9438 H   0  0  0  0  0  0  0  0  0  0  0  0
  147.9273  154.1804  132.9438 H   0  0  0  0  0  0  0  0  0  0  0  0
  141.4920  156.6590  132.2260 H   0  0  0  0  0  0  0  0  0  0  0  0
  141.9612  160.8377  134.1623 H   0  0  0  0  0  0  0  0  0  0  0  0
  144.4022  162.3364  134.1014 H   0  0  0  0  0  0  0  0  0  0  0  0
  146.8893  162.0959  133.8121 H   0  0  0  0  0  0  0  0  0  0  0  0
  148.7659  160.7903  133.4353 H   0  0  0  0  0  0  0  0  0  0  0  0
  148.6457  159.1198  134.1451 H   0  0  0  0  0  0  0  0  0  0  0  0
  149.9421  158.4701  129.8192 H   0  0  0  0  0  0  0  0  0  0  0  0
  148.4716  159.1342  129.0299 H   0  0  0  0  0  0  0  0  0  0  0  0
  149.9970  160.0827  129.0299 H   0  0  0  0  0  0  0  0  0  0  0  0
  148.8254  161.7846  132.0134 H   0  0  0  0  0  0  0  0  0  0  0  0
  149.7125  161.9511  130.4603 H   0  0  0  0  0  0  0  0  0  0  0  0
  147.9229  161.7954  130.4603 H   0  0  0  0  0  0  0  0  0  0  0  0
  146.4070  157.8030  133.2131 H   0  0  0  0  0  0  0  0  0  0  0  0
  1  2  1  0
  2  3  1  0
  2  4  1  0
  4  5  1  0
  5  6  2  0
  5  7  1  0
  7  8  2  0
  7  9  1  0
  9 10  1  0
 10 11  1  0
 11 12  1  0
 11 13  2  0
 10 14  2  0
 14 15  1  0
 15 16  2  0
 16 17  1  0
 17 18  2  0
 18 19  1  0
 19 20  1  0
 20 21  2  0
 20 22  1  0
 22 23  1  0
 22 24  1  0
 18 25  1  0
 25 26  2  0
 26  9  1  0
 26 15  1  0
  1 27  1  0
  1 28  1  0
  1 29  1  0
  2 30  1  0
  3 31  1  0
  3 32  1  0
  3 33  1  0
 12 34  1  0
 14 35  1  0
 16 36  1  0
 17 37  1  0
 19 38  1  0
 19 39  1  0
 23 40  1  0
 23 41  1  0
 23 42  1  0
 24 43  1  0
 24 44  1  0
 24 45  1  0
 25 46  1  0
M  CHG  1  12  -1
M  END
>  <UniqueID>  (30) 
29

>  <SMILES>  (30) 
CC(C)OC(=O)C(=O)n1c(C([NH-])=O)cc2ccc(CC(=O)N(C)C)cc21

>  <Energy>  (30) 
75.82836157287917

>  <Genealogy>  (30) 
CC(C)OC(=O)C(=O)n1c(C([NH-])=O)cc2ccc(CC(=O)N(C)C)cc21 (protonated)
CC(C)OC(=O)C(=O)n1c(C([NH-])=O)cc2ccc(CC(=O)N(C)C)cc21 (3D coordinates assigned)
CC(C)OC(=O)C(=O)n1c(C([NH-])=O)cc2ccc(CC(=O)N(C)C)cc21 (optimized conformer: 75.82836157287917 kcal/mol)

>  <smiles>  (30) 
CC(C)OC(=O)C(=O)n1c(C(N)=O)cc2ccc(CC(=O)N(C)C)cc21

>  <score_type>  (30) 
oracle

>  <origin>  (30) 
adg

>  <m_score__min__energy>  (30) 
-7.3399999999999999

>  <m_primary>  (30) 
energy

$$$$
30:0
     RDKit          3D

 25 26  0  0  0  0  0  0  0  0999 V2000
  138.5130  157.8720  131.1120 N   0  0  0  0  0  0  0  0  0  0  0  0
  139.6110  158.5970  131.6690 C   0  0  0  0  0  0  0  0  0  0  0  0
  140.3070  159.3340  130.9210 O   0  0  0  0  0  0  0  0  0  0  0  0
  139.9830  158.4470  133.0900 C   0  0  0  0  0  0  0  0  0  0  0  0
  140.2340  159.5250  133.9320 C   0  0  0  0  0  0  0  0  0  0  0  0
  140.6110  158.9680  135.1330 C   0  0  0  0  0  0  0  0  0  0  0  0
  140.9720  159.5820  136.3270 C   0  0  0  0  0  0  0  0  0  0  0  0
  141.2880  158.7610  137.4210 C   0  0  0  0  0  0  0  0  0  0  0  0
  141.2100  157.3490  137.3140 C   0  0  0  0  0  0  0  0  0  0  0  0
  141.5870  156.4770  138.4860 C   0  0  0  0  0  0  0  0  0  0  0  0
  142.4940  155.5050  138.1000 F   0  0  0  0  0  0  0  0  0  0  0  0
  140.4690  155.8440  139.0030 F   0  0  0  0  0  0  0  0  0  0  0  0
  142.1580  157.2600  139.4710 F   0  0  0  0  0  0  0  0  0  0  0  0
  140.8600  156.7620  136.0760 C   0  0  0  0  0  0  0  0  0  0  0  0
  140.5710  157.6040  134.9950 C   0  0  0  0  0  0  0  0  0  0  0  0
  140.1830  157.2670  133.7430 N   0  0  0  0  0  0  0  0  0  0  0  0
  139.9130  155.9440  133.2500 C   0  0  0  0  0  0  0  0  0  0  0  0
  138.7350  155.5880  132.9820 O   0  0  0  0  0  0  0  0  0  0  0  0
  140.9530  155.0410  133.0570 O   0  0  0  0  0  0  0  0  0  0  0  0
  138.2410  158.0170  130.1150 H   0  0  0  0  0  0  0  0  0  0  0  0
  138.0230  157.1310  131.6600 H   0  0  0  0  0  0  0  0  0  0  0  0
  140.1493  160.5947  133.6899 H   0  0  0  0  0  0  0  0  0  0  0  0
  141.0089  160.6781  136.4119 H   0  0  0  0  0  0  0  0  0  0  0  0
  141.5996  159.2180  138.3718 H   0  0  0  0  0  0  0  0  0  0  0  0
  140.8157  155.6685  135.9646 H   0  0  0  0  0  0  0  0  0  0  0  0
  1  2  1  0
  2  3  2  0
  2  4  1  0
  4  5  2  0
  5  6  1  0
  6  7  2  0
  7  8  1  0
  8  9  2  0
  9 10  1  0
 10 11  1  0
 10 12  1  0
 10 13  1  0
  9 14  1  0
 14 15  2  0
 15 16  1  0
 16 17  1  0
 17 18  2  0
 17 19  1  0
 16  4  1  0
 15  6  1  0
  1 20  1  0
  1 21  1  0
  5 22  1  0
  7 23  1  0
  8 24  1  0
 14 25  1  0
M  CHG  1  19  -1
M  END
>  <UniqueID>  (31) 
30

>  <SMILES>  (31) 
NC(=O)c1cc2ccc(C(F)(F)F)cc2n1C(=O)[O-]

>  <Energy>  (31) 
66.32011356530815

>  <Genealogy>  (31) 
NC(=O)c1cc2ccc(C(F)(F)F)cc2n1C(=O)[O-] (protonated)
NC(=O)c1cc2ccc(C(F)(F)F)cc2n1C(=O)[O-] (3D coordinates assigned)
NC(=O)c1cc2ccc(C(F)(F)F)cc2n1C(=O)[O-] (optimized conformer: 66.32011356530815 kcal/mol)

>  <smiles>  (31) 
NC(=O)c1cc2ccc(C(F)(F)F)cc2n1C(=O)O

>  <score_type>  (31) 
oracle

>  <origin>  (31) 
adg

>  <m_score__min__energy>  (31) 
-5.3499999999999996

>  <m_primary>  (31) 
energy

$$$$
31:0
     RDKit          3D

 43 45  0  0  0  0  0  0  0  0999 V2000
  147.4160  154.8680  133.1550 C   0  0  0  0  0  0  0  0  0  0  0  0
  147.1660  156.3470  133.1810 C   0  0  0  0  0  0  0  0  0  0  0  0
  148.2540  157.2460  133.0620 C   0  0  0  0  0  0  0  0  0  0  0  0
  148.0430  158.6340  133.1150 C   0  0  0  0  0  0  0  0  0  0  0  0
  146.7410  159.0900  133.2940 C   0  0  0  0  0  0  0  0  0  0  0  0
  146.2600  160.3740  133.4100 C   0  0  0  0  0  0  0  0  0  0  0  0
  144.8880  160.2390  133.6060 C   0  0  0  0  0  0  0  0  0  0  0  0
  143.9620  161.3840  133.7350 C   0  0  0  0  0  0  0  0  0  0  0  0
  142.5520  161.1640  133.7040 N   0  0  0  0  0  0  0  0  0  0  0  0
  144.4010  162.5530  133.8920 O   0  0  0  0  0  0  0  0  0  0  0  0
  144.5320  158.9220  133.6080 N   0  0  0  0  0  0  0  0  0  0  0  0
  143.2270  158.3760  133.8650 C   0  0  0  0  0  0  0  0  0  0  0  0
  142.7490  158.4300  135.0310 O   0  0  0  0  0  0  0  0  0  0  0  0
  142.3870  157.8360  132.7450 C   0  0  0  0  0  0  0  0  0  0  0  0
  140.6500  158.1890  132.9960 S   0  0  0  0  0  0  0  0  0  0  0  0
  139.9220  156.9110  133.3080 O   0  0  0  0  0  0  0  0  0  0  0  0
  140.4970  159.1350  134.1560 O   0  0  0  0  0  0  0  0  0  0  0  0
  139.9840  158.9060  131.5480 N   0  0  0  0  0  0  0  0  0  0  0  0
  139.7910  160.3580  131.7430 C   0  0  0  0  0  0  0  0  0  0  0  0
  138.7110  160.9000  130.7920 C   0  0  0  0  0  0  0  0  0  0  0  0
  137.4310  160.3100  130.9830 O   0  0  0  0  0  0  0  0  0  0  0  0
  137.4800  158.9950  131.5230 C   0  0  0  0  0  0  0  0  0  0  0  0
  138.7460  158.2120  131.1280 C   0  0  0  0  0  0  0  0  0  0  0  0
  145.6780  158.2310  133.4150 C   0  0  0  0  0  0  0  0  0  0  0  0
  145.8610  156.8450  133.3840 C   0  0  0  0  0  0  0  0  0  0  0  0
  147.4801  154.4888  134.1856 H   0  0  0  0  0  0  0  0  0  0  0  0
  146.5900  154.3657  132.6302 H   0  0  0  0  0  0  0  0  0  0  0  0
  148.3612  154.6651  132.6302 H   0  0  0  0  0  0  0  0  0  0  0  0
  149.2729  156.8541  132.9269 H   0  0  0  0  0  0  0  0  0  0  0  0
  148.8819  159.3388  133.0179 H   0  0  0  0  0  0  0  0  0  0  0  0
  146.8371  161.3091  133.3588 H   0  0  0  0  0  0  0  0  0  0  0  0
  142.1280  160.3370  134.1800 H   0  0  0  0  0  0  0  0  0  0  0  0
  142.7122  158.2967  131.8005 H   0  0  0  0  0  0  0  0  0  0  0  0
  142.5155  156.7440  132.7137 H   0  0  0  0  0  0  0  0  0  0  0  0
  139.4822  160.5440  132.7822 H   0  0  0  0  0  0  0  0  0  0  0  0
  140.7397  160.8711  131.5267 H   0  0  0  0  0  0  0  0  0  0  0  0
  138.6205  161.9846  130.9517 H   0  0  0  0  0  0  0  0  0  0  0  0
  139.0298  160.6509  129.7691 H   0  0  0  0  0  0  0  0  0  0  0  0
  137.4447  159.0682  132.6200 H   0  0  0  0  0  0  0  0  0  0  0  0
  136.6201  158.4457  131.1120 H   0  0  0  0  0  0  0  0  0  0  0  0
  138.7145  157.2221  131.6067 H   0  0  0  0  0  0  0  0  0  0  0  0
  138.7620  158.1250  130.0316 H   0  0  0  0  0  0  0  0  0  0  0  0
  145.0099  156.1605  133.5145 H   0  0  0  0  0  0  0  0  0  0  0  0
  1  2  1  0
  2  3  2  0
  3  4  1  0
  4  5  2  0
  5  6  1  0
  6  7  2  0
  7  8  1  0
  8  9  1  0
  8 10  2  0
  7 11  1  0
 11 12  1  0
 12 13  2  0
 12 14  1  0
 14 15  1  0
 15 16  2  0
 15 17  2  0
 15 18  1  0
 18 19  1  0
 19 20  1  0
 20 21  1  0
 21 22  1  0
 22 23  1  0
 11 24  1  0
 24 25  2  0
 25  2  1  0
 24  5  1  0
 23 18  1  0
  1 26  1  0
  1 27  1  0
  1 28  1  0
  3 29  1  0
  4 30  1  0
  6 31  1  0
  9 32  1  0
 14 33  1  0
 14 34  1  0
 19 35  1  0
 19 36  1  0
 20 37  1  0
 20 38  1  0
 22 39  1  0
 22 40  1  0
 23 41  1  0
 23 42  1  0
 25 43  1  0
M  CHG  1   9  -1
M  END
>  <UniqueID>  (32) 
31

>  <SMILES>  (32) 
Cc1ccc2cc(C([NH-])=O)n(C(=O)CS(=O)(=O)N3CCOCC3)c2c1

>  <Energy>  (32) 
90.7633679250781

>  <Genealogy>  (32) 
Cc1ccc2cc(C([NH-])=O)n(C(=O)CS(=O)(=O)N3CCOCC3)c2c1 (protonated)
Cc1ccc2cc(C([NH-])=O)n(C(=O)CS(=O)(=O)N3CCOCC3)c2c1 (3D coordinates assigned)
Cc1ccc2cc(C([NH-])=O)n(C(=O)CS(=O)(=O)N3CCOCC3)c2c1 (nonaromatic ring conformer: 90.7633679250781 kcal/mol)

>  <smiles>  (32) 
Cc1ccc2cc(C(N)=O)n(C(=O)CS(=O)(=O)N3CCOCC3)c2c1

>  <score_type>  (32) 
oracle

>  <origin>  (32) 
adg

>  <m_score__min__energy>  (32) 
-7.7999999999999998

>  <m_primary>  (32) 
energy

$$$$
32:0
     RDKit          3D

 35 36  0  0  0  0  0  0  0  0999 V2000
  139.4000  155.8020  132.2870 N   0  0  0  0  0  0  0  0  0  0  0  0
  140.5370  155.5810  133.1200 C   0  0  0  0  0  0  0  0  0  0  0  0
  140.6340  154.5000  133.7590 O   0  0  0  0  0  0  0  0  0  0  0  0
  141.5980  156.6040  133.2040 C   0  0  0  0  0  0  0  0  0  0  0  0
  142.9630  156.3150  133.1960 C   0  0  0  0  0  0  0  0  0  0  0  0
  143.5940  157.5280  133.3590 C   0  0  0  0  0  0  0  0  0  0  0  0
  144.9510  157.8360  133.4190 C   0  0  0  0  0  0  0  0  0  0  0  0
  145.3130  159.1850  133.5800 C   0  0  0  0  0  0  0  0  0  0  0  0
  144.3220  160.1940  133.6770 C   0  0  0  0  0  0  0  0  0  0  0  0
  144.7320  161.6290  133.8410 C   0  0  0  0  0  0  0  0  0  0  0  0
  143.6680  162.4560  133.5310 F   0  0  0  0  0  0  0  0  0  0  0  0
  145.1210  161.8560  135.1480 F   0  0  0  0  0  0  0  0  0  0  0  0
  142.9550  159.8420  133.6140 C   0  0  0  0  0  0  0  0  0  0  0  0
  142.6260  158.4930  133.4590 C   0  0  0  0  0  0  0  0  0  0  0  0
  141.3990  157.9430  133.3600 N   0  0  0  0  0  0  0  0  0  0  0  0
  140.1530  158.6530  133.3620 C   0  0  0  0  0  0  0  0  0  0  0  0
  139.9570  159.5590  132.5080 O   0  0  0  0  0  0  0  0  0  0  0  0
  139.0600  158.2540  134.3260 C   0  0  1  0  0  0  0  0  0  0  0  0
  138.0170  157.4750  133.6520 N   0  0  0  0  0  0  0  0  0  0  0  0
  139.6230  157.5540  135.5900 C   0  0  0  0  0  0  0  0  0  0  0  0
  140.6620  158.3430  136.4030 C   0  0  0  0  0  0  0  0  0  0  0  0
  140.6050  159.6930  136.1170 F   0  0  0  0  0  0  0  0  0  0  0  0
  141.9370  157.8720  136.1480 F   0  0  0  0  0  0  0  0  0  0  0  0
  140.4000  158.1710  137.7510 F   0  0  0  0  0  0  0  0  0  0  0  0
  138.4330  155.6370  132.6450 H   0  0  0  0  0  0  0  0  0  0  0  0
  143.4349  155.3278  133.0834 H   0  0  0  0  0  0  0  0  0  0  0  0
  145.7154  157.0487  133.3428 H   0  0  0  0  0  0  0  0  0  0  0  0
  146.3767  159.4605  133.6312 H   0  0  0  0  0  0  0  0  0  0  0  0
  145.5729  161.8428  133.1648 H   0  0  0  0  0  0  0  0  0  0  0  0
  142.1705  160.6098  133.6851 H   0  0  0  0  0  0  0  0  0  0  0  0
  138.5796  159.1749  134.6882 H   0  0  0  0  0  0  0  0  0  0  0  0
  138.1320  156.4670  133.9020 H   0  0  0  0  0  0  0  0  0  0  0  0
  138.1140  157.5620  132.6140 H   0  0  0  0  0  0  0  0  0  0  0  0
  138.7755  157.3325  136.2553 H   0  0  0  0  0  0  0  0  0  0  0  0
  140.1555  156.6658  135.2192 H   0  0  0  0  0  0  0  0  0  0  0  0
  1  2  1  0
  2  3  2  0
  2  4  1  0
  4  5  2  0
  5  6  1  0
  6  7  2  0
  7  8  1  0
  8  9  2  0
  9 10  1  0
 10 11  1  0
 10 12  1  0
  9 13  1  0
 13 14  2  0
 14 15  1  0
 15 16  1  0
 16 17  2  0
 16 18  1  0
 18 19  1  0
 18 20  1  0
 20 21  1  0
 21 22  1  0
 21 23  1  0
 21 24  1  0
 15  4  1  0
 14  6  1  0
  1 25  1  0
  5 26  1  0
  7 27  1  0
  8 28  1  0
 10 29  1  0
 13 30  1  0
 18 31  1  1
 19 32  1  0
 19 33  1  0
 20 34  1  0
 20 35  1  0
M  CHG  1   1  -1
M  END
>  <UniqueID>  (33) 
32

>  <SMILES>  (33) 
[NH-]C(=O)c1cc2ccc(C(F)F)cc2n1C(=O)[C@@H](N)CC(F)(F)F

>  <Energy>  (33) 
73.92192330852924

>  <Genealogy>  (33) 
[NH-]C(=O)c1cc2ccc(C(F)F)cc2n1C(=O)[C@@H](N)CC(F)(F)F (protonated)
[NH-]C(=O)c1cc2ccc(C(F)F)cc2n1C(=O)[C@@H](N)CC(F)(F)F (3D coordinates assigned)
[NH-]C(=O)c1cc2ccc(C(F)F)cc2n1C(=O)[C@@H](N)CC(F)(F)F (optimized conformer: 73.92192330852924 kcal/mol)

>  <smiles>  (33) 
NC(=O)c1cc2ccc(C(F)F)cc2n1C(=O)[C@@H](N)CC(F)(F)F

>  <score_type>  (33) 
oracle

>  <origin>  (33) 
adg

>  <m_score__min__energy>  (33) 
-6.3300000000000001

>  <m_primary>  (33) 
energy

$$$$
33:0
     RDKit          3D

 38 39  0  0  0  0  0  0  0  0999 V2000
  141.0770  157.2990  134.5610 C   0  0  0  0  0  0  0  0  0  0  0  0
  142.0540  157.4890  135.5600 O   0  0  0  0  0  0  0  0  0  0  0  0
  142.1080  158.8500  135.9460 C   0  0  0  0  0  0  0  0  0  0  0  0
  142.2790  159.7420  134.7130 C   0  0  0  0  0  0  0  0  0  0  0  0
  143.5790  160.4060  134.7340 N   0  0  0  0  0  0  0  0  0  0  0  0
  144.7300  160.1190  133.9230 C   0  0  0  0  0  0  0  0  0  0  0  0
  145.6050  161.0170  133.8040 O   0  0  0  0  0  0  0  0  0  0  0  0
  144.9400  158.8310  133.2200 C   0  0  0  0  0  0  0  0  0  0  0  0
  144.0000  158.2690  132.5990 O   0  0  0  0  0  0  0  0  0  0  0  0
  146.2280  158.1980  133.2460 N   0  0  0  0  0  0  0  0  0  0  0  0
  146.5550  157.0140  133.8360 C   0  0  0  0  0  0  0  0  0  0  0  0
  145.6440  156.2010  134.6750 C   0  0  0  0  0  0  0  0  0  0  0  0
  144.2690  156.5590  134.8300 N   0  0  0  0  0  0  0  0  0  0  0  0
  146.0750  155.1700  135.2560 O   0  0  0  0  0  0  0  0  0  0  0  0
  147.8910  156.6990  133.5830 C   0  0  0  0  0  0  0  0  0  0  0  0
  148.3680  157.7300  132.8030 C   0  0  0  0  0  0  0  0  0  0  0  0
  149.6270  157.9240  132.2440 C   0  0  0  0  0  0  0  0  0  0  0  0
  149.8290  159.0660  131.4520 C   0  0  0  0  0  0  0  0  0  0  0  0
  148.7730  159.9860  131.2290 C   0  0  0  0  0  0  0  0  0  0  0  0
  149.0050  161.1940  130.3670 C   0  0  0  0  0  0  0  0  0  0  0  0
  149.4070  160.7940  129.1060 F   0  0  0  0  0  0  0  0  0  0  0  0
  149.9860  161.9880  130.9300 F   0  0  0  0  0  0  0  0  0  0  0  0
  147.5070  159.7550  131.8120 C   0  0  0  0  0  0  0  0  0  0  0  0
  147.3430  158.6190  132.6110 C   0  0  0  0  0  0  0  0  0  0  0  0
  140.1018  157.1093  135.0332 H   0  0  0  0  0  0  0  0  0  0  0  0
  141.0121  158.2013  133.9353 H   0  0  0  0  0  0  0  0  0  0  0  0
  141.3550  156.4381  133.9353 H   0  0  0  0  0  0  0  0  0  0  0  0
  141.1747  159.1187  136.4625 H   0  0  0  0  0  0  0  0  0  0  0  0
  142.9653  158.9989  136.6189 H   0  0  0  0  0  0  0  0  0  0  0  0
  142.2038  159.1235  133.8064 H   0  0  0  0  0  0  0  0  0  0  0  0
  141.4899  160.5083  134.7181 H   0  0  0  0  0  0  0  0  0  0  0  0
  143.8830  157.4400  134.4240 H   0  0  0  0  0  0  0  0  0  0  0  0
  143.6330  155.9560  135.3980 H   0  0  0  0  0  0  0  0  0  0  0  0
  148.4454  155.8154  133.9321 H   0  0  0  0  0  0  0  0  0  0  0  0
  150.4404  157.2041  132.4173 H   0  0  0  0  0  0  0  0  0  0  0  0
  150.8153  159.2486  131.0005 H   0  0  0  0  0  0  0  0  0  0  0  0
  148.0696  161.7677  130.2904 H   0  0  0  0  0  0  0  0  0  0  0  0
  146.6720  160.4506  131.6419 H   0  0  0  0  0  0  0  0  0  0  0  0
  1  2  1  0
  2  3  1  0
  3  4  1  0
  4  5  1  0
  5  6  1  0
  6  7  2  0
  6  8  1  0
  8  9  2  0
  8 10  1  0
 10 11  1  0
 11 12  1  0
 12 13  1  0
 12 14  2  0
 11 15  2  0
 15 16  1  0
 16 17  2  0
 17 18  1  0
 18 19  2  0
 19 20  1  0
 20 21  1  0
 20 22  1  0
 19 23  1  0
 23 24  2  0
 24 10  1  0
 24 16  1  0
  1 25  1  0
  1 26  1  0
  1 27  1  0
  3 28  1  0
  3 29  1  0
  4 30  1  0
  4 31  1  0
 13 32  1  0
 13 33  1  0
 15 34  1  0
 17 35  1  0
 18 36  1  0
 20 37  1  0
 23 38  1  0
M  CHG  1   5  -1
M  END
>  <UniqueID>  (34) 
33

>  <SMILES>  (34) 
COCC[N-]C(=O)C(=O)n1c(C(N)=O)cc2ccc(C(F)F)cc21

>  <Energy>  (34) 
78.44951705773343

>  <Genealogy>  (34) 
COCC[N-]C(=O)C(=O)n1c(C(N)=O)cc2ccc(C(F)F)cc21 (protonated)
COCC[N-]C(=O)C(=O)n1c(C(N)=O)cc2ccc(C(F)F)cc21 (3D coordinates assigned)
COCC[N-]C(=O)C(=O)n1c(C(N)=O)cc2ccc(C(F)F)cc21 (optimized conformer: 78.44951705773343 kcal/mol)

>  <smiles>  (34) 
COCCNC(=O)C(=O)n1c(C(N)=O)cc2ccc(C(F)F)cc21

>  <score_type>  (34) 
oracle

>  <origin>  (34) 
adg

>  <m_score__min__energy>  (34) 
-5.9100000000000001

>  <m_primary>  (34) 
energy

$$$$
34:0
     RDKit          3D

 59 61  0  0  0  0  0  0  0  0999 V2000
  139.6980  149.3570  129.4150 C   0  0  0  0  0  0  0  0  0  0  0  0
  139.3810  148.5150  130.5830 N   0  0  0  0  0  0  0  0  0  0  0  0
  138.3850  149.1550  131.4670 C   0  0  0  0  0  0  0  0  0  0  0  0
  138.9490  150.4120  132.1520 C   0  0  0  0  0  0  0  0  0  0  0  0
  140.3530  150.2110  132.5260 N   0  0  0  0  0  0  0  0  0  0  0  0
  141.2070  151.3490  132.7480 C   0  0  0  0  0  0  0  0  0  0  0  0
  142.6170  151.2080  132.6940 C   0  0  0  0  0  0  0  0  0  0  0  0
  143.4570  152.3230  132.8500 C   0  0  0  0  0  0  0  0  0  0  0  0
  142.8620  153.5630  133.0660 C   0  0  0  0  0  0  0  0  0  0  0  0
  143.4340  154.8080  133.2000 C   0  0  0  0  0  0  0  0  0  0  0  0
  142.3660  155.6860  133.3680 C   0  0  0  0  0  0  0  0  0  0  0  0
  142.5280  157.1330  133.5980 C   0  0  0  0  0  0  0  0  0  0  0  0
  141.8710  157.7860  134.6850 N   0  0  0  0  0  0  0  0  0  0  0  0
  143.2950  157.7950  132.8510 O   0  0  0  0  0  0  0  0  0  0  0  0
  141.1810  155.0150  133.3260 N   0  0  0  0  0  0  0  0  0  0  0  0
  139.8570  155.5680  133.3790 C   0  0  0  0  0  0  0  0  0  0  0  0
  138.9240  155.0430  132.7120 O   0  0  0  0  0  0  0  0  0  0  0  0
  139.6110  156.6910  134.1730 O   0  0  0  0  0  0  0  0  0  0  0  0
  138.8680  157.8170  133.7220 C   0  0  0  0  0  0  0  0  0  0  0  0
  139.0480  157.9990  132.2070 C   0  0  0  0  0  0  0  0  0  0  0  0
  139.3850  159.4470  131.7230 C   0  0  0  0  0  0  0  0  0  0  0  0
  140.1620  159.4060  130.3880 C   0  0  0  0  0  0  0  0  0  0  0  0
  138.0530  160.1900  131.4730 C   0  0  0  0  0  0  0  0  0  0  0  0
  140.2190  160.2400  132.7660 C   0  0  0  0  0  0  0  0  0  0  0  0
  141.5110  159.7040  132.9110 O   0  0  0  0  0  0  0  0  0  0  0  0
  141.5010  153.7160  133.1420 C   0  0  0  0  0  0  0  0  0  0  0  0
  140.6420  152.6260  132.9660 C   0  0  0  0  0  0  0  0  0  0  0  0
  140.8710  148.8430  132.6150 C   0  0  0  0  0  0  0  0  0  0  0  0
  140.6100  148.0810  131.3010 C   0  0  0  0  0  0  0  0  0  0  0  0
  140.0663  150.3353  129.7574 H   0  0  0  0  0  0  0  0  0  0  0  0
  140.4726  148.8655  128.8081 H   0  0  0  0  0  0  0  0  0  0  0  0
  138.7915  149.4984  128.8081 H   0  0  0  0  0  0  0  0  0  0  0  0
  137.5082  149.4401  130.8670 H   0  0  0  0  0  0  0  0  0  0  0  0
  138.1116  148.4334  132.2509 H   0  0  0  0  0  0  0  0  0  0  0  0
  138.8779  151.2637  131.4594 H   0  0  0  0  0  0  0  0  0  0  0  0
  138.3649  150.6116  133.0625 H   0  0  0  0  0  0  0  0  0  0  0  0
  143.0580  150.2140  132.5280 H   0  0  0  0  0  0  0  0  0  0  0  0
  144.5511  152.2196  132.8030 H   0  0  0  0  0  0  0  0  0  0  0  0
  144.5054  155.0563  133.1789 H   0  0  0  0  0  0  0  0  0  0  0  0
  141.3710  157.2370  135.4200 H   0  0  0  0  0  0  0  0  0  0  0  0
  141.9500  158.8210  134.8030 H   0  0  0  0  0  0  0  0  0  0  0  0
  137.8021  157.6622  133.9453 H   0  0  0  0  0  0  0  0  0  0  0  0
  139.2326  158.7177  134.2376 H   0  0  0  0  0  0  0  0  0  0  0  0
  139.8657  157.3379  131.8840 H   0  0  0  0  0  0  0  0  0  0  0  0
  138.0708  157.7590  131.7626 H   0  0  0  0  0  0  0  0  0  0  0  0
  141.2411  159.3491  130.5934 H   0  0  0  0  0  0  0  0  0  0  0  0
  139.8517  158.5230  129.8101 H   0  0  0  0  0  0  0  0  0  0  0  0
  139.9463  160.3168  129.8101 H   0  0  0  0  0  0  0  0  0  0  0  0
  137.5905  160.4480  132.4371 H   0  0  0  0  0  0  0  0  0  0  0  0
  138.2478  161.1098  130.9020 H   0  0  0  0  0  0  0  0  0  0  0  0
  137.3727  159.5410  130.9020 H   0  0  0  0  0  0  0  0  0  0  0  0
  140.3014  161.2862  132.4363 H   0  0  0  0  0  0  0  0  0  0  0  0
  139.7078  160.1736  133.7377 H   0  0  0  0  0  0  0  0  0  0  0  0
  141.6840  159.1420  132.1110 H   0  0  0  0  0  0  0  0  0  0  0  0
  139.5506  152.7599  132.9966 H   0  0  0  0  0  0  0  0  0  0  0  0
  141.9540  148.8775  132.8046 H   0  0  0  0  0  0  0  0  0  0  0  0
  140.3589  148.3212  133.4369 H   0  0  0  0  0  0  0  0  0  0  0  0
  141.4720  148.2346  130.6351 H   0  0  0  0  0  0  0  0  0  0  0  0
  140.4650  147.0242  131.5696 H   0  0  0  0  0  0  0  0  0  0  0  0
  1  2  1  0
  2  3  1  0
  3  4  1  0
  4  5  1  0
  5  6  1  0
  6  7  2  0
  7  8  1  0
  8  9  2  0
  9 10  1  0
 10 11  2  0
 11 12  1  0
 12 13  1  0
 12 14  2  0
 11 15  1  0
 15 16  1  0
 16 17  2  0
 16 18  1  0
 18 19  1  0
 19 20  1  0
 20 21  1  0
 21 22  1  0
 21 23  1  0
 21 24  1  0
 24 25  1  0
 15 26  1  0
 26 27  2  0
  5 28  1  0
 28 29  1  0
 29  2  1  0
 27  6  1  0
 26  9  1  0
  1 30  1  0
  1 31  1  0
  1 32  1  0
  3 33  1  0
  3 34  1  0
  4 35  1  0
  4 36  1  0
  7 37  1  0
  8 38  1  0
 10 39  1  0
 13 40  1  0
 13 41  1  0
 19 42  1  0
 19 43  1  0
 20 44  1  0
 20 45  1  0
 22 46  1  0
 22 47  1  0
 22 48  1  0
 23 49  1  0
 23 50  1  0
 23 51  1  0
 24 52  1  0
 24 53  1  0
 25 54  1  0
 27 55  1  0
 28 56  1  0
 28 57  1  0
 29 58  1  0
 29 59  1  0
M  END
>  <UniqueID>  (35) 
34

>  <SMILES>  (35) 
CN1CCN(c2ccc3cc(C(N)=O)n(C(=O)OCCC(C)(C)CO)c3c2)CC1

>  <Energy>  (35) 
103.84049965621793

>  <Genealogy>  (35) 
CN1CCN(c2ccc3cc(C(N)=O)n(C(=O)OCCC(C)(C)CO)c3c2)CC1 (3D coordinates assigned)
CN1CCN(c2ccc3cc(C(N)=O)n(C(=O)OCCC(C)(C)CO)c3c2)CC1 (nonaromatic ring conformer: 103.84049965621793 kcal/mol)

>  <smiles>  (35) 
CN1CCN(c2ccc3cc(C(N)=O)n(C(=O)OCCC(C)(C)CO)c3c2)CC1

>  <score_type>  (35) 
oracle

>  <origin>  (35) 
adg

>  <m_score__min__energy>  (35) 
-8.1799999999999997

>  <m_primary>  (35) 
energy

$$$$
35:0
     RDKit          3D

 28 29  0  0  0  0  0  0  0  0999 V2000
  144.3050  160.4540  133.7640 C   0  0  0  0  0  0  0  0  0  0  0  0
  145.1750  159.7490  133.0420 C   0  0  0  0  0  0  0  0  0  0  0  0
  146.6350  159.8680  133.2140 C   0  0  0  0  0  0  0  0  0  0  0  0
  147.1060  160.9210  133.7200 O   0  0  0  0  0  0  0  0  0  0  0  0
  147.5280  158.8130  132.8260 N   0  0  0  0  0  0  0  0  0  0  0  0
  148.6600  158.9150  132.0750 C   0  0  0  0  0  0  0  0  0  0  0  0
  149.1430  160.1370  131.3980 C   0  0  0  0  0  0  0  0  0  0  0  0
  148.2570  161.2130  131.1040 N   0  0  0  0  0  0  0  0  0  0  0  0
  150.3520  160.2230  131.0530 O   0  0  0  0  0  0  0  0  0  0  0  0
  149.2990  157.6780  131.9910 C   0  0  0  0  0  0  0  0  0  0  0  0
  148.5190  156.8120  132.7240 C   0  0  0  0  0  0  0  0  0  0  0  0
  148.6820  155.4550  132.9820 C   0  0  0  0  0  0  0  0  0  0  0  0
  147.7250  154.8180  133.7900 C   0  0  0  0  0  0  0  0  0  0  0  0
  146.6400  155.5480  134.3440 C   0  0  0  0  0  0  0  0  0  0  0  0
  145.5970  154.8450  135.1730 C   0  0  0  0  0  0  0  0  0  0  0  0
  146.1140  154.4820  136.4050 F   0  0  0  0  0  0  0  0  0  0  0  0
  145.1570  153.6980  134.5340 F   0  0  0  0  0  0  0  0  0  0  0  0
  144.5220  155.6920  135.3680 F   0  0  0  0  0  0  0  0  0  0  0  0
  146.4990  156.9230  134.0410 C   0  0  0  0  0  0  0  0  0  0  0  0
  147.4600  157.5240  133.2220 C   0  0  0  0  0  0  0  0  0  0  0  0
  143.2246  160.3298  133.5984 H   0  0  0  0  0  0  0  0  0  0  0  0
  144.6671  161.1602  134.5257 H   0  0  0  0  0  0  0  0  0  0  0  0
  144.7884  159.0493  132.2864 H   0  0  0  0  0  0  0  0  0  0  0  0
  147.8180  161.7730  131.8680 H   0  0  0  0  0  0  0  0  0  0  0  0
  150.2294  157.4438  131.4529 H   0  0  0  0  0  0  0  0  0  0  0  0
  149.5342  154.8974  132.5662 H   0  0  0  0  0  0  0  0  0  0  0  0
  147.8173  153.7414  133.9958 H   0  0  0  0  0  0  0  0  0  0  0  0
  145.6547  157.5045  134.4397 H   0  0  0  0  0  0  0  0  0  0  0  0
  1  2  2  0
  2  3  1  0
  3  4  2  0
  3  5  1  0
  5  6  1  0
  6  7  1  0
  7  8  1  0
  7  9  2  0
  6 10  2  0
 10 11  1  0
 11 12  2  0
 12 13  1  0
 13 14  2  0
 14 15  1  0
 15 16  1  0
 15 17  1  0
 15 18  1  0
 14 19  1  0
 19 20  2  0
 20  5  1  0
 20 11  1  0
  1 21  1  0
  1 22  1  0
  2 23  1  0
  8 24  1  0
 10 25  1  0
 12 26  1  0
 13 27  1  0
 19 28  1  0
M  CHG  1   8  -1
M  END
>  <UniqueID>  (36) 
35

>  <SMILES>  (36) 
C=CC(=O)n1c(C([NH-])=O)cc2ccc(C(F)(F)F)cc21

>  <Energy>  (36) 
67.65074253825436

>  <Genealogy>  (36) 
C=CC(=O)n1c(C([NH-])=O)cc2ccc(C(F)(F)F)cc21 (protonated)
C=CC(=O)n1c(C([NH-])=O)cc2ccc(C(F)(F)F)cc21 (3D coordinates assigned)
C=CC(=O)n1c(C([NH-])=O)cc2ccc(C(F)(F)F)cc21 (optimized conformer: 67.65074253825436 kcal/mol)

>  <smiles>  (36) 
C=CC(=O)n1c(C(N)=O)cc2ccc(C(F)(F)F)cc21

>  <score_type>  (36) 
oracle

>  <origin>  (36) 
adg

>  <m_score__min__energy>  (36) 
-5.9500000000000002

>  <m_primary>  (36) 
energy

$$$$
36:0
     RDKit          3D

 34 36  0  0  0  0  0  0  0  0999 V2000
  138.9600  158.8360  131.0880 C   0  0  0  0  0  0  0  0  0  0  0  0
  139.7320  158.1040  132.1350 C   0  0  0  0  0  0  0  0  0  0  0  0
  141.0420  158.3090  132.3870 N   0  0  0  0  0  0  0  0  0  0  0  0
  141.5290  157.4670  133.3420 C   0  0  0  0  0  0  0  0  0  0  0  0
  142.9390  157.5060  133.7800 C   0  0  0  0  0  0  0  0  0  0  0  0
  143.4780  156.4630  134.2360 O   0  0  0  0  0  0  0  0  0  0  0  0
  143.7060  158.7160  133.6940 N   0  0  0  0  0  0  0  0  0  0  0  0
  143.2670  159.9930  133.8690 C   0  0  0  0  0  0  0  0  0  0  0  0
  141.8630  160.3970  134.0920 C   0  0  0  0  0  0  0  0  0  0  0  0
  141.0640  160.8230  132.9900 N   0  0  0  0  0  0  0  0  0  0  0  0
  141.3550  160.3540  135.2420 O   0  0  0  0  0  0  0  0  0  0  0  0
  144.3280  160.8910  133.7650 C   0  0  0  0  0  0  0  0  0  0  0  0
  145.4410  160.1150  133.5240 C   0  0  0  0  0  0  0  0  0  0  0  0
  146.7720  160.4810  133.3600 C   0  0  0  0  0  0  0  0  0  0  0  0
  147.7160  159.4600  133.1540 C   0  0  0  0  0  0  0  0  0  0  0  0
  147.3150  158.1000  133.1050 C   0  0  0  0  0  0  0  0  0  0  0  0
  148.3440  157.0090  132.9400 C   0  0  0  0  0  0  0  0  0  0  0  0
  149.4470  157.4800  132.2510 F   0  0  0  0  0  0  0  0  0  0  0  0
  148.7680  156.5480  134.1740 F   0  0  0  0  0  0  0  0  0  0  0  0
  147.7840  155.9600  132.2350 F   0  0  0  0  0  0  0  0  0  0  0  0
  145.9550  157.7680  133.3030 C   0  0  0  0  0  0  0  0  0  0  0  0
  145.0380  158.8060  133.4900 C   0  0  0  0  0  0  0  0  0  0  0  0
  140.5950  156.5600  133.8430 C   0  0  0  0  0  0  0  0  0  0  0  0
  139.1300  156.8390  133.0630 S   0  0  0  0  0  0  0  0  0  0  0  0
  138.2425  159.5163  131.5700 H   0  0  0  0  0  0  0  0  0  0  0  0
  139.6523  159.4173  130.4612 H   0  0  0  0  0  0  0  0  0  0  0  0
  138.4163  158.1138  130.4612 H   0  0  0  0  0  0  0  0  0  0  0  0
  141.6150  159.0330  131.8970 H   0  0  0  0  0  0  0  0  0  0  0  0
  141.1900  160.4040  132.0420 H   0  0  0  0  0  0  0  0  0  0  0  0
  144.2858  161.9864  133.8560 H   0  0  0  0  0  0  0  0  0  0  0  0
  147.0772  161.5374  133.3905 H   0  0  0  0  0  0  0  0  0  0  0  0
  148.7779  159.7185  133.0294 H   0  0  0  0  0  0  0  0  0  0  0  0
  145.6266  156.7182  133.3097 H   0  0  0  0  0  0  0  0  0  0  0  0
  140.7830  155.7967  134.6125 H   0  0  0  0  0  0  0  0  0  0  0  0
  1  2  1  0
  2  3  2  0
  3  4  1  0
  4  5  1  0
  5  6  2  0
  5  7  1  0
  7  8  1  0
  8  9  1  0
  9 10  1  0
  9 11  2  0
  8 12  2  0
 12 13  1  0
 13 14  2  0
 14 15  1  0
 15 16  2  0
 16 17  1  0
 17 18  1  0
 17 19  1  0
 17 20  1  0
 16 21  1  0
 21 22  2  0
  4 23  2  0
 23 24  1  0
 24  2  1  0
 22  7  1  0
 22 13  1  0
  1 25  1  0
  1 26  1  0
  1 27  1  0
  3 28  1  0
 10 29  1  0
 12 30  1  0
 14 31  1  0
 15 32  1  0
 21 33  1  0
 23 34  1  0
M  CHG  2   3   1  10  -1
M  END
>  <UniqueID>  (37) 
36

>  <SMILES>  (37) 
Cc1[nH+]c(C(=O)n2c(C([NH-])=O)cc3ccc(C(F)(F)F)cc32)cs1

>  <Energy>  (37) 
103.50943111803255

>  <Genealogy>  (37) 
Cc1[nH+]c(C(=O)n2c(C([NH-])=O)cc3ccc(C(F)(F)F)cc32)cs1 (protonated)
Cc1[nH+]c(C(=O)n2c(C([NH-])=O)cc3ccc(C(F)(F)F)cc32)cs1 (3D coordinates assigned)
Cc1[nH+]c(C(=O)n2c(C([NH-])=O)cc3ccc(C(F)(F)F)cc32)cs1 (optimized conformer: 103.50943111803255 kcal/mol)

>  <smiles>  (37) 
Cc1nc(C(=O)n2c(C(N)=O)cc3ccc(C(F)(F)F)cc32)cs1

>  <score_type>  (37) 
oracle

>  <origin>  (37) 
adg

>  <m_score__min__energy>  (37) 
-6.6399999999999997

>  <m_primary>  (37) 
energy

$$$$
37:0
     RDKit          3D

 49 51  0  0  0  0  0  0  0  0999 V2000
  149.3720  152.6490  132.5420 C   0  0  0  0  0  0  0  0  0  0  0  0
  148.7060  153.8580  132.8920 O   0  0  0  0  0  0  0  0  0  0  0  0
  147.3910  153.8810  133.3650 C   0  0  0  0  0  0  0  0  0  0  0  0
  147.1260  153.4200  134.5140 O   0  0  0  0  0  0  0  0  0  0  0  0
  146.3580  154.4950  132.5580 N   0  0  2  0  0  0  0  0  0  0  0  0
  146.1410  155.8940  132.9860 C   0  0  0  0  0  0  0  0  0  0  0  0
  145.4200  155.9690  134.3380 C   0  0  0  0  0  0  0  0  0  0  0  0
  144.2700  155.0540  134.3890 N   0  0  0  0  0  0  0  0  0  0  0  0
  143.6900  154.8000  135.6860 C   0  0  0  0  0  0  0  0  0  0  0  0
  144.2400  153.9630  136.4540 O   0  0  0  0  0  0  0  0  0  0  0  0
  142.5400  155.5270  136.1530 N   0  0  0  0  0  0  0  0  0  0  0  0
  141.6280  155.1180  137.0830 C   0  0  0  0  0  0  0  0  0  0  0  0
  141.5400  153.7650  137.6740 C   0  0  0  0  0  0  0  0  0  0  0  0
  141.7680  152.6180  136.8560 N   0  0  0  0  0  0  0  0  0  0  0  0
  141.2930  153.6110  138.8990 O   0  0  0  0  0  0  0  0  0  0  0  0
  140.7390  156.1440  137.3840 C   0  0  0  0  0  0  0  0  0  0  0  0
  141.1340  157.2090  136.6090 C   0  0  0  0  0  0  0  0  0  0  0  0
  140.6130  158.4940  136.5270 C   0  0  0  0  0  0  0  0  0  0  0  0
  141.2420  159.4090  135.6630 C   0  0  0  0  0  0  0  0  0  0  0  0
  142.3690  159.0190  134.8930 C   0  0  0  0  0  0  0  0  0  0  0  0
  143.0570  159.9920  133.9660 C   0  0  0  0  0  0  0  0  0  0  0  0
  143.7350  159.2910  132.9840 F   0  0  0  0  0  0  0  0  0  0  0  0
  142.1160  160.8140  133.3670 F   0  0  0  0  0  0  0  0  0  0  0  0
  143.9560  160.7910  134.6470 F   0  0  0  0  0  0  0  0  0  0  0  0
  142.8780  157.7060  135.0210 C   0  0  0  0  0  0  0  0  0  0  0  0
  142.2270  156.8140  135.8810 C   0  0  0  0  0  0  0  0  0  0  0  0
  143.8690  154.3570  133.1440 C   0  0  2  0  0  0  0  0  0  0  0  0
  142.7370  153.3180  133.3200 C   0  0  0  0  0  0  0  0  0  0  0  0
  143.1340  152.3090  134.2110 O   0  0  0  0  0  0  0  0  0  0  0  0
  145.1100  153.6740  132.5110 C   0  0  0  0  0  0  0  0  0  0  0  0
  149.6665  152.1144  133.4572 H   0  0  0  0  0  0  0  0  0  0  0  0
  148.6953  152.0160  131.9492 H   0  0  0  0  0  0  0  0  0  0  0  0
  150.2687  152.8827  131.9492 H   0  0  0  0  0  0  0  0  0  0  0  0
  146.7370  154.5390  131.5800 H   0  0  0  0  0  0  0  0  0  0  0  0
  147.1163  156.3951  133.0739 H   0  0  0  0  0  0  0  0  0  0  0  0
  145.5098  156.3887  132.2331 H   0  0  0  0  0  0  0  0  0  0  0  0
  146.1275  155.6981  135.1355 H   0  0  0  0  0  0  0  0  0  0  0  0
  145.0494  156.9957  134.4741 H   0  0  0  0  0  0  0  0  0  0  0  0
  142.6660  152.4970  136.3340 H   0  0  0  0  0  0  0  0  0  0  0  0
  139.8979  156.1107  138.0921 H   0  0  0  0  0  0  0  0  0  0  0  0
  139.7344  158.7876  137.1202 H   0  0  0  0  0  0  0  0  0  0  0  0
  140.8569  160.4363  135.5834 H   0  0  0  0  0  0  0  0  0  0  0  0
  143.7679  157.3918  134.4559 H   0  0  0  0  0  0  0  0  0  0  0  0
  143.4589  155.1345  132.4827 H   0  0  0  0  0  0  0  0  0  0  0  0
  141.8423  153.8203  133.7164 H   0  0  0  0  0  0  0  0  0  0  0  0
  142.5138  152.8642  132.3432 H   0  0  0  0  0  0  0  0  0  0  0  0
  143.0630  152.7060  135.1320 H   0  0  0  0  0  0  0  0  0  0  0  0
  145.2968  152.7331  133.0493 H   0  0  0  0  0  0  0  0  0  0  0  0
  144.8753  153.5204  131.4474 H   0  0  0  0  0  0  0  0  0  0  0  0
  1  2  1  0
  2  3  1  0
  3  4  2  0
  3  5  1  0
  5  6  1  0
  6  7  1  0
  7  8  1  0
  8  9  1  0
  9 10  2  0
  9 11  1  0
 11 12  1  0
 12 13  1  0
 13 14  1  0
 13 15  2  0
 12 16  2  0
 16 17  1  0
 17 18  2  0
 18 19  1  0
 19 20  2  0
 20 21  1  0
 21 22  1  0
 21 23  1  0
 21 24  1  0
 20 25  1  0
 25 26  2  0
  8 27  1  0
 27 28  1  0
 28 29  1  0
 27 30  1  0
 30  5  1  0
 26 11  1  0
 26 17  1  0
  1 31  1  0
  1 32  1  0
  1 33  1  0
  5 34  1  6
  6 35  1  0
  6 36  1  0
  7 37  1  0
  7 38  1  0
 14 39  1  0
 16 40  1  0
 18 41  1  0
 19 42  1  0
 25 43  1  0
 27 44  1  6
 28 45  1  0
 28 46  1  0
 29 47  1  0
 30 48  1  0
 30 49  1  0
M  CHG  2   5   1  14  -1
M  END
>  <UniqueID>  (38) 
37

>  <SMILES>  (38) 
COC(=O)[N@@H+]1CCN(C(=O)n2c(C([NH-])=O)cc3ccc(C(F)(F)F)cc32)[C@H](CO)C1

>  <Energy>  (38) 
104.0448623489654

>  <Genealogy>  (38) 
COC(=O)[NH+]1CCN(C(=O)n2c(C([NH-])=O)cc3ccc(C(F)(F)F)cc32)[C@H](CO)C1 (protonated)
COC(=O)[N@@H+]1CCN(C(=O)n2c(C([NH-])=O)cc3ccc(C(F)(F)F)cc32)[C@H](CO)C1 (chirality)
COC(=O)[N@@H+]1CCN(C(=O)n2c(C([NH-])=O)cc3ccc(C(F)(F)F)cc32)[C@H](CO)C1 (3D coordinates assigned)
COC(=O)[N@@H+]1CCN(C(=O)n2c(C([NH-])=O)cc3ccc(C(F)(F)F)cc32)[C@H](CO)C1 (nonaromatic ring conformer: 104.0448623489654 kcal/mol)

>  <smiles>  (38) 
COC(=O)N1CCN(C(=O)n2c(C(N)=O)cc3ccc(C(F)(F)F)cc32)[C@H](CO)C1

>  <score_type>  (38) 
oracle

>  <origin>  (38) 
adg

>  <m_score__min__energy>  (38) 
-5.1799999999999997

>  <m_primary>  (38) 
energy

$$$$
38:0
     RDKit          3D

 33 35  0  0  0  0  0  0  0  0999 V2000
  142.6960  160.8280  133.7540 N   0  0  0  0  0  0  0  0  0  0  0  0
  144.0730  161.1980  133.7390 C   0  0  0  0  0  0  0  0  0  0  0  0
  144.3830  162.4180  133.7780 O   0  0  0  0  0  0  0  0  0  0  0  0
  145.1340  160.1760  133.6210 C   0  0  0  0  0  0  0  0  0  0  0  0
  146.4830  160.4880  133.4650 C   0  0  0  0  0  0  0  0  0  0  0  0
  147.1210  159.2790  133.3040 C   0  0  0  0  0  0  0  0  0  0  0  0
  148.4690  158.9980  133.1090 C   0  0  0  0  0  0  0  0  0  0  0  0
  148.8510  157.6510  132.9950 C   0  0  0  0  0  0  0  0  0  0  0  0
  147.8900  156.6120  133.1040 C   0  0  0  0  0  0  0  0  0  0  0  0
  148.3070  155.1720  132.9430 C   0  0  0  0  0  0  0  0  0  0  0  0
  148.4590  154.6000  134.1930 F   0  0  0  0  0  0  0  0  0  0  0  0
  147.3520  154.4620  132.2360 F   0  0  0  0  0  0  0  0  0  0  0  0
  149.5060  155.0840  132.2570 F   0  0  0  0  0  0  0  0  0  0  0  0
  146.5260  156.9410  133.2790 C   0  0  0  0  0  0  0  0  0  0  0  0
  146.1720  158.2930  133.3700 C   0  0  0  0  0  0  0  0  0  0  0  0
  144.9460  158.8260  133.5670 N   0  0  0  0  0  0  0  0  0  0  0  0
  143.7270  158.0950  133.7630 C   0  0  0  0  0  0  0  0  0  0  0  0
  143.1930  157.4870  132.7940 O   0  0  0  0  0  0  0  0  0  0  0  0
  143.1200  158.0860  135.0210 O   0  0  0  0  0  0  0  0  0  0  0  0
  141.7270  157.8490  135.2020 C   0  0  0  0  0  0  0  0  0  0  0  0
  140.8950  158.3660  134.0540 C   0  0  0  0  0  0  0  0  0  0  0  0
  140.3230  159.3850  134.8390 O   0  0  0  0  0  0  0  0  0  0  0  0
  141.0610  158.9680  135.9630 C   0  0  0  0  0  0  0  0  0  0  0  0
  142.3700  159.9950  134.2920 H   0  0  0  0  0  0  0  0  0  0  0  0
  146.9409  161.4882  133.4695 H   0  0  0  0  0  0  0  0  0  0  0  0
  149.2131  159.8056  133.0460 H   0  0  0  0  0  0  0  0  0  0  0  0
  149.9071  157.3985  132.8192 H   0  0  0  0  0  0  0  0  0  0  0  0
  145.7607  156.1534  133.3422 H   0  0  0  0  0  0  0  0  0  0  0  0
  141.7397  156.7973  135.5242 H   0  0  0  0  0  0  0  0  0  0  0  0
  141.4952  158.7449  133.2136 H   0  0  0  0  0  0  0  0  0  0  0  0
  140.2315  157.6688  133.5214 H   0  0  0  0  0  0  0  0  0  0  0  0
  141.7661  159.7280  136.3307 H   0  0  0  0  0  0  0  0  0  0  0  0
  140.5245  158.7323  136.8939 H   0  0  0  0  0  0  0  0  0  0  0  0
  1  2  1  0
  2  3  2  0
  2  4  1  0
  4  5  2  0
  5  6  1  0
  6  7  2  0
  7  8  1  0
  8  9  2  0
  9 10  1  0
 10 11  1  0
 10 12  1  0
 10 13  1  0
  9 14  1  0
 14 15  2  0
 15 16  1  0
 16 17  1  0
 17 18  2  0
 17 19  1  0
 19 20  1  0
 20 21  1  0
 21 22  1  0
 22 23  1  0
 16  4  1  0
 23 20  1  0
 15  6  1  0
  1 24  1  0
  5 25  1  0
  7 26  1  0
  8 27  1  0
 14 28  1  0
 20 29  1  0
 21 30  1  0
 21 31  1  0
 23 32  1  0
 23 33  1  0
M  CHG  1   1  -1
M  END
>  <UniqueID>  (39) 
38

>  <SMILES>  (39) 
[NH-]C(=O)c1cc2ccc(C(F)(F)F)cc2n1C(=O)OC1COC1

>  <Energy>  (39) 
135.40105104585533

>  <Genealogy>  (39) 
[NH-]C(=O)c1cc2ccc(C(F)(F)F)cc2n1C(=O)OC1COC1 (protonated)
[NH-]C(=O)c1cc2ccc(C(F)(F)F)cc2n1C(=O)OC1COC1 (3D coordinates assigned)
[NH-]C(=O)c1cc2ccc(C(F)(F)F)cc2n1C(=O)OC1COC1 (nonaromatic ring conformer: 135.40105104585533 kcal/mol)

>  <smiles>  (39) 
NC(=O)c1cc2ccc(C(F)(F)F)cc2n1C(=O)OC1COC1

>  <score_type>  (39) 
oracle

>  <origin>  (39) 
adg

>  <m_score__min__energy>  (39) 
-6.0599999999999996

>  <m_primary>  (39) 
energy

$$$$
39:0
     RDKit          3D

 32 33  0  0  0  0  0  0  0  0999 V2000
  146.2290  162.0620  134.1200 N   0  0  0  0  0  0  0  0  0  0  0  0
  145.1250  161.1920  133.8860 C   0  0  0  0  0  0  0  0  0  0  0  0
  143.9540  161.6480  133.9710 O   0  0  0  0  0  0  0  0  0  0  0  0
  145.3320  159.7610  133.5780 C   0  0  0  0  0  0  0  0  0  0  0  0
  144.3230  158.8010  133.6450 C   0  0  0  0  0  0  0  0  0  0  0  0
  144.9330  157.6070  133.3350 C   0  0  0  0  0  0  0  0  0  0  0  0
  144.4000  156.3260  133.2400 C   0  0  0  0  0  0  0  0  0  0  0  0
  145.2620  155.2780  132.8750 C   0  0  0  0  0  0  0  0  0  0  0  0
  146.6310  155.5280  132.6010 C   0  0  0  0  0  0  0  0  0  0  0  0
  147.5080  154.4420  132.2320 N   0  0  0  0  0  0  0  0  0  0  0  0
  148.3490  154.0100  133.3620 C   0  0  0  0  0  0  0  0  0  0  0  0
  149.2510  152.8190  133.0080 C   0  0  0  0  0  0  0  0  0  0  0  0
  149.4120  152.7200  131.6370 F   0  0  0  0  0  0  0  0  0  0  0  0
  147.1340  156.8460  132.7030 C   0  0  0  0  0  0  0  0  0  0  0  0
  146.2560  157.8640  133.0910 C   0  0  0  0  0  0  0  0  0  0  0  0
  146.5190  159.1800  133.2420 N   0  0  0  0  0  0  0  0  0  0  0  0
  147.7790  159.8280  133.0060 C   0  0  0  0  0  0  0  0  0  0  0  0
  148.5190  160.1240  133.9810 O   0  0  0  0  0  0  0  0  0  0  0  0
  148.2170  160.1480  131.6400 C   0  0  0  0  0  0  0  0  0  0  0  0
  147.3790  160.4840  130.7630 O   0  0  0  0  0  0  0  0  0  0  0  0
  149.5630  160.0660  131.3040 O   0  0  0  0  0  0  0  0  0  0  0  0
  147.1370  161.6920  134.4800 H   0  0  0  0  0  0  0  0  0  0  0  0
  143.2637  158.9636  133.8931 H   0  0  0  0  0  0  0  0  0  0  0  0
  143.3355  156.1388  133.4445 H   0  0  0  0  0  0  0  0  0  0  0  0
  144.8708  154.2526  132.8010 H   0  0  0  0  0  0  0  0  0  0  0  0
  148.1120  154.7110  131.4200 H   0  0  0  0  0  0  0  0  0  0  0  0
  146.9240  153.6310  131.9220 H   0  0  0  0  0  0  0  0  0  0  0  0
  148.9845  154.8533  133.6703 H   0  0  0  0  0  0  0  0  0  0  0  0
  147.6777  153.6891  134.1721 H   0  0  0  0  0  0  0  0  0  0  0  0
  150.2355  152.9589  133.4784 H   0  0  0  0  0  0  0  0  0  0  0  0
  148.7804  151.8959  133.3772 H   0  0  0  0  0  0  0  0  0  0  0  0
  148.1892  157.0652  132.4828 H   0  0  0  0  0  0  0  0  0  0  0  0
  1  2  1  0
  2  3  2  0
  2  4  1  0
  4  5  2  0
  5  6  1  0
  6  7  2  0
  7  8  1  0
  8  9  2  0
  9 10  1  0
 10 11  1  0
 11 12  1  0
 12 13  1  0
  9 14  1  0
 14 15  2  0
 15 16  1  0
 16 17  1  0
 17 18  2  0
 17 19  1  0
 19 20  2  0
 19 21  1  0
 16  4  1  0
 15  6  1  0
  1 22  1  0
  5 23  1  0
  7 24  1  0
  8 25  1  0
 10 26  1  0
 10 27  1  0
 11 28  1  0
 11 29  1  0
 12 30  1  0
 12 31  1  0
 14 32  1  0
M  CHG  3   1  -1  10   1  21  -1
M  END
>  <UniqueID>  (40) 
39

>  <SMILES>  (40) 
[NH-]C(=O)c1cc2ccc([NH2+]CCF)cc2n1C(=O)C(=O)[O-]

>  <Energy>  (40) 
71.18905802363099

>  <Genealogy>  (40) 
[NH-]C(=O)c1cc2ccc([NH2+]CCF)cc2n1C(=O)C(=O)[O-] (protonated)
[NH-]C(=O)c1cc2ccc([NH2+]CCF)cc2n1C(=O)C(=O)[O-] (3D coordinates assigned)
[NH-]C(=O)c1cc2ccc([NH2+]CCF)cc2n1C(=O)C(=O)[O-] (optimized conformer: 71.18905802363099 kcal/mol)

>  <smiles>  (40) 
NC(=O)c1cc2ccc(NCCF)cc2n1C(=O)C(=O)O

>  <score_type>  (40) 
oracle

>  <origin>  (40) 
adg

>  <m_score__min__energy>  (40) 
-5.29

>  <m_primary>  (40) 
energy

$$$$
40:0
     RDKit          3D

 44 46  0  0  0  0  0  0  0  0999 V2000
  142.5640  158.7650  133.0700 N   0  0  0  0  0  0  0  0  0  0  0  0
  143.4010  157.8110  133.7160 C   0  0  0  0  0  0  0  0  0  0  0  0
  144.3990  158.2100  134.3750 O   0  0  0  0  0  0  0  0  0  0  0  0
  143.1510  156.3630  133.5720 C   0  0  0  0  0  0  0  0  0  0  0  0
  144.1670  155.4100  133.5450 C   0  0  0  0  0  0  0  0  0  0  0  0
  143.5360  154.2110  133.3090 C   0  0  0  0  0  0  0  0  0  0  0  0
  144.0640  152.9290  133.2000 C   0  0  0  0  0  0  0  0  0  0  0  0
  143.1730  151.8650  132.9890 C   0  0  0  0  0  0  0  0  0  0  0  0
  141.7750  152.0960  132.8970 C   0  0  0  0  0  0  0  0  0  0  0  0
  140.8680  150.9920  132.7040 N   0  0  0  0  0  0  0  0  0  0  0  0
  141.3490  149.6110  132.8760 C   0  0  0  0  0  0  0  0  0  0  0  0
  141.3160  148.8620  131.5440 C   0  0  0  0  0  0  0  0  0  0  0  0
  139.6700  148.9190  130.8620 S   0  0  0  0  0  0  0  0  0  0  0  0
  139.7190  149.4400  129.4520 O   0  0  0  0  0  0  0  0  0  0  0  0
  139.0600  147.5470  130.8690 O   0  0  0  0  0  0  0  0  0  0  0  0
  138.6980  150.0160  131.8770 C   0  0  0  0  0  0  0  0  0  0  0  0
  139.5000  151.2780  132.2210 C   0  0  0  0  0  0  0  0  0  0  0  0
  141.2790  153.4140  133.0170 C   0  0  0  0  0  0  0  0  0  0  0  0
  142.1920  154.4580  133.2060 C   0  0  0  0  0  0  0  0  0  0  0  0
  141.9370  155.7760  133.3680 N   0  0  0  0  0  0  0  0  0  0  0  0
  140.6410  156.3930  133.4300 C   0  0  0  0  0  0  0  0  0  0  0  0
  139.8600  156.1180  134.3810 O   0  0  0  0  0  0  0  0  0  0  0  0
  140.2690  157.3310  132.4590 O   0  0  0  0  0  0  0  0  0  0  0  0
  139.1980  158.2610  132.6320 C   0  0  1  0  0  0  0  0  0  0  0  0
  139.1040  158.5890  133.9730 F   0  0  0  0  0  0  0  0  0  0  0  0
  139.4310  159.5300  131.8100 C   0  0  0  0  0  0  0  0  0  0  0  0
  140.4910  159.3520  130.9100 O   0  0  0  0  0  0  0  0  0  0  0  0
  142.0550  158.5240  132.1920 H   0  0  0  0  0  0  0  0  0  0  0  0
  145.2449  155.5804  133.6831 H   0  0  0  0  0  0  0  0  0  0  0  0
  145.1473  152.7540  133.2768 H   0  0  0  0  0  0  0  0  0  0  0  0
  143.5623  150.8406  132.8938 H   0  0  0  0  0  0  0  0  0  0  0  0
  142.3819  149.6320  133.2538 H   0  0  0  0  0  0  0  0  0  0  0  0
  140.6935  149.0928  133.5915 H   0  0  0  0  0  0  0  0  0  0  0  0
  142.0191  149.3339  130.8419 H   0  0  0  0  0  0  0  0  0  0  0  0
  141.6055  147.8136  131.7088 H   0  0  0  0  0  0  0  0  0  0  0  0
  137.7872  150.3030  131.3311 H   0  0  0  0  0  0  0  0  0  0  0  0
  138.4321  149.4971  132.8097 H   0  0  0  0  0  0  0  0  0  0  0  0
  139.5726  151.9018  131.3179 H   0  0  0  0  0  0  0  0  0  0  0  0
  138.9678  151.7880  133.0375 H   0  0  0  0  0  0  0  0  0  0  0  0
  140.1989  153.6150  132.9630 H   0  0  0  0  0  0  0  0  0  0  0  0
  138.2641  157.7954  132.2840 H   0  0  0  0  0  0  0  0  0  0  0  0
  138.5163  159.7684  131.2474 H   0  0  0  0  0  0  0  0  0  0  0  0
  139.6842  160.3525  132.4951 H   0  0  0  0  0  0  0  0  0  0  0  0
  141.2440  158.9620  131.4260 H   0  0  0  0  0  0  0  0  0  0  0  0
  1  2  1  0
  2  3  2  0
  2  4  1  0
  4  5  2  0
  5  6  1  0
  6  7  2  0
  7  8  1  0
  8  9  2  0
  9 10  1  0
 10 11  1  0
 11 12  1  0
 12 13  1  0
 13 14  2  0
 13 15  2  0
 13 16  1  0
 16 17  1  0
  9 18  1  0
 18 19  2  0
 19 20  1  0
 20 21  1  0
 21 22  2  0
 21 23  1  0
 23 24  1  0
 24 25  1  0
 24 26  1  0
 26 27  1  0
 20  4  1  0
 19  6  1  0
 17 10  1  0
  1 28  1  0
  5 29  1  0
  7 30  1  0
  8 31  1  0
 11 32  1  0
 11 33  1  0
 12 34  1  0
 12 35  1  0
 16 36  1  0
 16 37  1  0
 17 38  1  0
 17 39  1  0
 18 40  1  0
 24 41  1  6
 26 42  1  0
 26 43  1  0
 27 44  1  0
M  CHG  1   1  -1
M  END
>  <UniqueID>  (41) 
40

>  <SMILES>  (41) 
[NH-]C(=O)c1cc2ccc(N3CCS(=O)(=O)CC3)cc2n1C(=O)O[C@@H](F)CO

>  <Energy>  (41) 
80.6077833021855

>  <Genealogy>  (41) 
[NH-]C(=O)c1cc2ccc(N3CCS(=O)(=O)CC3)cc2n1C(=O)OC(F)CO (protonated)
[NH-]C(=O)c1cc2ccc(N3CCS(=O)(=O)CC3)cc2n1C(=O)O[C@@H](F)CO (chirality)
[NH-]C(=O)c1cc2ccc(N3CCS(=O)(=O)CC3)cc2n1C(=O)O[C@@H](F)CO (3D coordinates assigned)
[NH-]C(=O)c1cc2ccc(N3CCS(=O)(=O)CC3)cc2n1C(=O)O[C@@H](F)CO (nonaromatic ring conformer: 80.6077833021855 kcal/mol)

>  <smiles>  (41) 
NC(=O)c1cc2ccc(N3CCS(=O)(=O)CC3)cc2n1C(=O)OC(F)CO

>  <score_type>  (41) 
oracle

>  <origin>  (41) 
adg

>  <m_score__min__energy>  (41) 
-7.3200000000000003

>  <m_primary>  (41) 
energy

$$$$
41:0
     RDKit          3D

 52 53  0  0  0  0  0  0  0  0999 V2000
  137.9480  159.2440  131.1190 C   0  0  0  0  0  0  0  0  0  0  0  0
  138.7050  158.6130  132.2810 C   0  0  0  0  0  0  0  0  0  0  0  0
  140.3060  159.4540  132.5330 S   0  0  0  0  0  0  0  0  0  0  0  0
  140.4430  159.0900  134.3250 C   0  0  0  0  0  0  0  0  0  0  0  0
  141.8100  159.5120  134.8930 C   0  0  1  0  0  0  0  0  0  0  0  0
  142.1060  158.7340  136.1000 N   0  0  0  0  0  0  0  0  0  0  0  0
  141.4690  158.9870  137.3590 C   0  0  0  0  0  0  0  0  0  0  0  0
  140.6740  159.9540  137.4960 O   0  0  0  0  0  0  0  0  0  0  0  0
  141.7230  158.1520  138.4390 O   0  0  0  0  0  0  0  0  0  0  0  0
  142.9450  159.3800  133.8950 C   0  0  0  0  0  0  0  0  0  0  0  0
  143.1610  160.3160  133.0800 O   0  0  0  0  0  0  0  0  0  0  0  0
  143.7580  158.2000  133.8250 N   0  0  0  0  0  0  0  0  0  0  0  0
  143.3840  156.9020  134.0020 C   0  0  0  0  0  0  0  0  0  0  0  0
  142.0060  156.4250  134.2370 C   0  0  0  0  0  0  0  0  0  0  0  0
  141.0890  156.2760  133.1570 N   0  0  0  0  0  0  0  0  0  0  0  0
  141.6430  156.1110  135.4010 O   0  0  0  0  0  0  0  0  0  0  0  0
  144.4860  156.0560  133.8800 C   0  0  0  0  0  0  0  0  0  0  0  0
  145.5510  156.8840  133.6010 C   0  0  0  0  0  0  0  0  0  0  0  0
  146.8910  156.5810  133.3760 C   0  0  0  0  0  0  0  0  0  0  0  0
  147.7700  157.6460  133.1120 C   0  0  0  0  0  0  0  0  0  0  0  0
  147.2990  158.9830  133.0870 C   0  0  0  0  0  0  0  0  0  0  0  0
  148.2420  160.1140  132.7680 C   0  0  0  0  0  0  0  0  0  0  0  0
  149.4910  159.6090  132.0300 C   0  0  0  0  0  0  0  0  0  0  0  0
  149.7540  160.4050  130.8090 N   0  0  0  0  0  0  0  0  0  0  0  0
  148.8610  161.5740  130.7360 C   0  0  0  0  0  0  0  0  0  0  0  0
  149.5750  159.5730  129.6100 C   0  0  0  0  0  0  0  0  0  0  0  0
  145.9300  159.2500  133.3110 C   0  0  0  0  0  0  0  0  0  0  0  0
  145.0810  158.1710  133.5670 C   0  0  0  0  0  0  0  0  0  0  0  0
  137.1583  159.9023  131.5102 H   0  0  0  0  0  0  0  0  0  0  0  0
  138.6447  159.8325  130.5040 H   0  0  0  0  0  0  0  0  0  0  0  0
  137.4945  158.4527  130.5040 H   0  0  0  0  0  0  0  0  0  0  0  0
  138.1017  158.7012  133.1966 H   0  0  0  0  0  0  0  0  0  0  0  0
  138.8919  157.5538  132.0506 H   0  0  0  0  0  0  0  0  0  0  0  0
  139.6517  159.6353  134.8603 H   0  0  0  0  0  0  0  0  0  0  0  0
  140.3375  158.0036  134.4615 H   0  0  0  0  0  0  0  0  0  0  0  0
  141.7357  160.5819  135.1373 H   0  0  0  0  0  0  0  0  0  0  0  0
  142.7210  157.8910  136.0250 H   0  0  0  0  0  0  0  0  0  0  0  0
  141.2970  156.6770  132.2160 H   0  0  0  0  0  0  0  0  0  0  0  0
  144.5015  154.9611  133.9843 H   0  0  0  0  0  0  0  0  0  0  0  0
  147.2505  155.5418  133.4039 H   0  0  0  0  0  0  0  0  0  0  0  0
  148.8338  157.4399  132.9229 H   0  0  0  0  0  0  0  0  0  0  0  0
  147.7218  160.8457  132.1324 H   0  0  0  0  0  0  0  0  0  0  0  0
  148.5612  160.5767  133.7136 H   0  0  0  0  0  0  0  0  0  0  0  0
  150.3591  159.6854  132.7013 H   0  0  0  0  0  0  0  0  0  0  0  0
  149.3194  158.5640  131.7326 H   0  0  0  0  0  0  0  0  0  0  0  0
  148.6075  161.9059  131.7536 H   0  0  0  0  0  0  0  0  0  0  0  0
  149.3680  162.3898  130.1999 H   0  0  0  0  0  0  0  0  0  0  0  0
  147.9406  161.2994  130.1999 H   0  0  0  0  0  0  0  0  0  0  0  0
  149.3525  158.5387  129.9113 H   0  0  0  0  0  0  0  0  0  0  0  0
  148.7412  159.9678  129.0109 H   0  0  0  0  0  0  0  0  0  0  0  0
  150.4974  159.5900  129.0109 H   0  0  0  0  0  0  0  0  0  0  0  0
  145.5433  160.2795  133.2845 H   0  0  0  0  0  0  0  0  0  0  0  0
  1  2  1  0
  2  3  1  0
  3  4  1  0
  4  5  1  0
  5  6  1  0
  6  7  1  0
  7  8  2  0
  7  9  1  0
  5 10  1  0
 10 11  2  0
 10 12  1  0
 12 13  1  0
 13 14  1  0
 14 15  1  0
 14 16  2  0
 13 17  2  0
 17 18  1  0
 18 19  2  0
 19 20  1  0
 20 21  2  0
 21 22  1  0
 22 23  1  0
 23 24  1  0
 24 25  1  0
 24 26  1  0
 21 27  1  0
 27 28  2  0
 28 12  1  0
 28 18  1  0
  1 29  1  0
  1 30  1  0
  1 31  1  0
  2 32  1  0
  2 33  1  0
  4 34  1  0
  4 35  1  0
  5 36  1  1
  6 37  1  0
 15 38  1  0
 17 39  1  0
 19 40  1  0
 20 41  1  0
 22 42  1  0
 22 43  1  0
 23 44  1  0
 23 45  1  0
 25 46  1  0
 25 47  1  0
 25 48  1  0
 26 49  1  0
 26 50  1  0
 26 51  1  0
 27 52  1  0
M  CHG  2   9  -1  15  -1
M  END
>  <UniqueID>  (42) 
41

>  <SMILES>  (42) 
CCSC[C@@H](NC(=O)[O-])C(=O)n1c(C([NH-])=O)cc2ccc(CCN(C)C)cc21

>  <Energy>  (42) 
79.49920380588804

>  <Genealogy>  (42) 
CCSCC(NC(=O)[O-])C(=O)n1c(C([NH-])=O)cc2ccc(CCN(C)C)cc21 (protonated)
CCSC[C@@H](NC(=O)[O-])C(=O)n1c(C([NH-])=O)cc2ccc(CCN(C)C)cc21 (chirality)
CCSC[C@@H](NC(=O)[O-])C(=O)n1c(C([NH-])=O)cc2ccc(CCN(C)C)cc21 (3D coordinates assigned)
CCSC[C@@H](NC(=O)[O-])C(=O)n1c(C([NH-])=O)cc2ccc(CCN(C)C)cc21 (optimized conformer: 79.49920380588804 kcal/mol)

>  <smiles>  (42) 
CCSCC(NC(=O)O)C(=O)n1c(C(N)=O)cc2ccc(CCN(C)C)cc21

>  <score_type>  (42) 
oracle

>  <origin>  (42) 
adg

>  <m_score__min__energy>  (42) 
-7.9299999999999997

>  <m_primary>  (42) 
energy

$$$$
42:0
     RDKit          3D

 43 44  0  0  0  0  0  0  0  0999 V2000
  139.0600  160.4760  130.9610 C   0  0  0  0  0  0  0  0  0  0  0  0
  139.9040  159.4510  131.4360 O   0  0  0  0  0  0  0  0  0  0  0  0
  139.1260  158.3230  131.7760 C   0  0  0  0  0  0  0  0  0  0  0  0
  138.7650  158.3990  133.2600 C   0  0  0  0  0  0  0  0  0  0  0  0
  139.9310  158.4280  134.0660 O   0  0  0  0  0  0  0  0  0  0  0  0
  140.3200  157.1220  134.4500 C   0  0  0  0  0  0  0  0  0  0  0  0
  141.4200  157.1660  135.5180 C   0  0  0  0  0  0  0  0  0  0  0  0
  142.7260  156.8950  134.9250 N   0  0  0  0  0  0  0  0  0  0  0  0
  143.1310  157.3430  133.6230 C   0  0  0  0  0  0  0  0  0  0  0  0
  142.4910  156.9520  132.6130 O   0  0  0  0  0  0  0  0  0  0  0  0
  144.2520  158.2240  133.4550 N   0  0  0  0  0  0  0  0  0  0  0  0
  144.2350  159.5810  133.3300 C   0  0  0  0  0  0  0  0  0  0  0  0
  143.0170  160.4280  133.3890 C   0  0  0  0  0  0  0  0  0  0  0  0
  141.7320  159.9060  133.0400 N   0  0  0  0  0  0  0  0  0  0  0  0
  143.1030  161.6330  133.7440 O   0  0  0  0  0  0  0  0  0  0  0  0
  145.5370  160.0650  133.1840 C   0  0  0  0  0  0  0  0  0  0  0  0
  146.3470  158.9510  133.2110 C   0  0  0  0  0  0  0  0  0  0  0  0
  147.7300  158.8440  133.0960 C   0  0  0  0  0  0  0  0  0  0  0  0
  148.2970  157.5590  133.1460 C   0  0  0  0  0  0  0  0  0  0  0  0
  147.4820  156.4110  133.3220 C   0  0  0  0  0  0  0  0  0  0  0  0
  148.1000  155.0370  133.3200 C   0  0  0  0  0  0  0  0  0  0  0  0
  149.3510  155.1020  132.7340 F   0  0  0  0  0  0  0  0  0  0  0  0
  147.3160  154.1460  132.6070 F   0  0  0  0  0  0  0  0  0  0  0  0
  148.2320  154.5600  134.6120 F   0  0  0  0  0  0  0  0  0  0  0  0
  146.0780  156.5620  133.4110 C   0  0  0  0  0  0  0  0  0  0  0  0
  145.5460  157.8540  133.3700 C   0  0  0  0  0  0  0  0  0  0  0  0
  138.6185  161.0122  131.8140 H   0  0  0  0  0  0  0  0  0  0  0  0
  139.6449  161.1786  130.3492 H   0  0  0  0  0  0  0  0  0  0  0  0
  138.2582  160.0368  130.3492 H   0  0  0  0  0  0  0  0  0  0  0  0
  138.2065  158.3132  131.1724 H   0  0  0  0  0  0  0  0  0  0  0  0
  139.6964  157.4035  131.5779 H   0  0  0  0  0  0  0  0  0  0  0  0
  138.1796  159.3124  133.4414 H   0  0  0  0  0  0  0  0  0  0  0  0
  138.1787  157.5065  133.5241 H   0  0  0  0  0  0  0  0  0  0  0  0
  139.4461  156.5914  134.8558 H   0  0  0  0  0  0  0  0  0  0  0  0
  140.7124  156.5995  133.5651 H   0  0  0  0  0  0  0  0  0  0  0  0
  141.4338  158.1636  135.9813 H   0  0  0  0  0  0  0  0  0  0  0  0
  141.2088  156.3965  136.2751 H   0  0  0  0  0  0  0  0  0  0  0  0
  141.5940  158.9110  132.7580 H   0  0  0  0  0  0  0  0  0  0  0  0
  140.8930  160.5270  133.0710 H   0  0  0  0  0  0  0  0  0  0  0  0
  145.8495  161.1136  133.0713 H   0  0  0  0  0  0  0  0  0  0  0  0
  148.3595  159.7372  132.9699 H   0  0  0  0  0  0  0  0  0  0  0  0
  149.3863  157.4418  133.0474 H   0  0  0  0  0  0  0  0  0  0  0  0
  145.4217  155.6848  133.5099 H   0  0  0  0  0  0  0  0  0  0  0  0
  1  2  1  0
  2  3  1  0
  3  4  1  0
  4  5  1  0
  5  6  1  0
  6  7  1  0
  7  8  1  0
  8  9  1  0
  9 10  2  0
  9 11  1  0
 11 12  1  0
 12 13  1  0
 13 14  1  0
 13 15  2  0
 12 16  2  0
 16 17  1  0
 17 18  2  0
 18 19  1  0
 19 20  2  0
 20 21  1  0
 21 22  1  0
 21 23  1  0
 21 24  1  0
 20 25  1  0
 25 26  2  0
 26 11  1  0
 26 17  1  0
  1 27  1  0
  1 28  1  0
  1 29  1  0
  3 30  1  0
  3 31  1  0
  4 32  1  0
  4 33  1  0
  6 34  1  0
  6 35  1  0
  7 36  1  0
  7 37  1  0
 14 38  1  0
 14 39  1  0
 16 40  1  0
 18 41  1  0
 19 42  1  0
 25 43  1  0
M  CHG  1   8  -1
M  END
>  <UniqueID>  (43) 
42

>  <SMILES>  (43) 
COCCOCC[N-]C(=O)n1c(C(N)=O)cc2ccc(C(F)(F)F)cc21

>  <Energy>  (43) 
78.29733462468403

>  <Genealogy>  (43) 
COCCOCC[N-]C(=O)n1c(C(N)=O)cc2ccc(C(F)(F)F)cc21 (protonated)
COCCOCC[N-]C(=O)n1c(C(N)=O)cc2ccc(C(F)(F)F)cc21 (3D coordinates assigned)
COCCOCC[N-]C(=O)n1c(C(N)=O)cc2ccc(C(F)(F)F)cc21 (optimized conformer: 78.29733462468403 kcal/mol)

>  <smiles>  (43) 
COCCOCCNC(=O)n1c(C(N)=O)cc2ccc(C(F)(F)F)cc21

>  <score_type>  (43) 
oracle

>  <origin>  (43) 
adg

>  <m_score__min__energy>  (43) 
-5.6900000000000004

>  <m_primary>  (43) 
energy

$$$$
43:0
     RDKit          3D

 38 39  0  0  0  0  0  0  0  0999 V2000
  138.0430  159.3890  131.1550 N   0  0  0  0  0  0  0  0  0  0  0  0
  138.8280  158.7680  131.7350 C   0  0  0  0  0  0  0  0  0  0  0  0
  139.8270  157.9810  132.4680 C   0  0  0  0  0  0  0  0  0  0  0  0
  139.1690  156.9170  133.3480 C   0  0  0  0  0  0  0  0  0  0  0  0
  139.3980  155.6070  132.8290 O   0  0  0  0  0  0  0  0  0  0  0  0
  140.4280  154.7630  133.2600 C   0  0  0  0  0  0  0  0  0  0  0  0
  140.4010  153.5270  133.0160 O   0  0  0  0  0  0  0  0  0  0  0  0
  141.5640  155.3420  134.0460 C   0  0  0  0  0  0  0  0  0  0  0  0
  142.9050  155.1780  133.3170 C   0  0  0  0  0  0  0  0  0  0  0  0
  143.7220  156.4450  133.3390 C   0  0  0  0  0  0  0  0  0  0  0  0
  145.1220  156.3940  133.1170 C   0  0  0  0  0  0  0  0  0  0  0  0
  145.8980  157.5640  133.1660 C   0  0  0  0  0  0  0  0  0  0  0  0
  145.2520  158.7630  133.4490 C   0  0  0  0  0  0  0  0  0  0  0  0
  145.7600  160.0390  133.5340 C   0  0  0  0  0  0  0  0  0  0  0  0
  144.6680  160.8480  133.8330 C   0  0  0  0  0  0  0  0  0  0  0  0
  144.7800  162.2990  134.0800 C   0  0  0  0  0  0  0  0  0  0  0  0
  143.9000  163.2280  133.4430 N   0  0  0  0  0  0  0  0  0  0  0  0
  145.6270  162.7230  134.9100 O   0  0  0  0  0  0  0  0  0  0  0  0
  143.5270  160.1090  133.9170 N   0  0  0  0  0  0  0  0  0  0  0  0
  142.1850  160.5960  134.0920 C   0  0  0  0  0  0  0  0  0  0  0  0
  141.7570  161.5560  133.3990 O   0  0  0  0  0  0  0  0  0  0  0  0
  141.3450  160.0140  135.0340 O   0  0  0  0  0  0  0  0  0  0  0  0
  143.9020  158.8310  133.6810 C   0  0  0  0  0  0  0  0  0  0  0  0
  143.1010  157.6840  133.6140 C   0  0  0  0  0  0  0  0  0  0  0  0
  140.4918  157.4855  131.7452 H   0  0  0  0  0  0  0  0  0  0  0  0
  140.3937  158.6636  133.1183 H   0  0  0  0  0  0  0  0  0  0  0  0
  139.5892  156.9799  134.3626 H   0  0  0  0  0  0  0  0  0  0  0  0
  138.0846  157.1008  133.3664 H   0  0  0  0  0  0  0  0  0  0  0  0
  141.3754  156.4136  134.2074 H   0  0  0  0  0  0  0  0  0  0  0  0
  141.6272  154.8027  135.0027 H   0  0  0  0  0  0  0  0  0  0  0  0
  143.4790  154.3774  133.8064 H   0  0  0  0  0  0  0  0  0  0  0  0
  142.6912  154.9314  132.2665 H   0  0  0  0  0  0  0  0  0  0  0  0
  145.6048  155.4288  132.9044 H   0  0  0  0  0  0  0  0  0  0  0  0
  146.9828  157.5330  132.9862 H   0  0  0  0  0  0  0  0  0  0  0  0
  146.8053  160.3524  133.3953 H   0  0  0  0  0  0  0  0  0  0  0  0
  143.0850  162.8980  132.8810 H   0  0  0  0  0  0  0  0  0  0  0  0
  144.0170  164.2530  133.6010 H   0  0  0  0  0  0  0  0  0  0  0  0
  142.0141  157.7463  133.7717 H   0  0  0  0  0  0  0  0  0  0  0  0
  1  2  3  0
  2  3  1  0
  3  4  1  0
  4  5  1  0
  5  6  1  0
  6  7  2  0
  6  8  1  0
  8  9  1  0
  9 10  1  0
 10 11  2  0
 11 12  1  0
 12 13  2  0
 13 14  1  0
 14 15  2  0
 15 16  1  0
 16 17  1  0
 16 18  2  0
 15 19  1  0
 19 20  1  0
 20 21  2  0
 20 22  1  0
 19 23  1  0
 23 24  2  0
 24 10  1  0
 23 13  1  0
  3 25  1  0
  3 26  1  0
  4 27  1  0
  4 28  1  0
  8 29  1  0
  8 30  1  0
  9 31  1  0
  9 32  1  0
 11 33  1  0
 12 34  1  0
 14 35  1  0
 17 36  1  0
 17 37  1  0
 24 38  1  0
M  CHG  1  22  -1
M  END
>  <UniqueID>  (44) 
43

>  <SMILES>  (44) 
N#CCCOC(=O)CCc1ccc2cc(C(N)=O)n(C(=O)[O-])c2c1

>  <Energy>  (44) 
68.77384629272952

>  <Genealogy>  (44) 
N#CCCOC(=O)CCc1ccc2cc(C(N)=O)n(C(=O)[O-])c2c1 (protonated)
N#CCCOC(=O)CCc1ccc2cc(C(N)=O)n(C(=O)[O-])c2c1 (3D coordinates assigned)
N#CCCOC(=O)CCc1ccc2cc(C(N)=O)n(C(=O)[O-])c2c1 (optimized conformer: 68.77384629272952 kcal/mol)

>  <smiles>  (44) 
N#CCCOC(=O)CCc1ccc2cc(C(N)=O)n(C(=O)O)c2c1

>  <score_type>  (44) 
oracle

>  <origin>  (44) 
adg

>  <m_score__min__energy>  (44) 
-7.0599999999999996

>  <m_primary>  (44) 
energy

$$$$
44:0
     RDKit          3D

 35 36  0  0  0  0  0  0  0  0999 V2000
  145.8230  161.2120  133.9900 N   0  0  0  0  0  0  0  0  0  0  0  0
  144.9270  160.1440  133.6920 C   0  0  0  0  0  0  0  0  0  0  0  0
  143.6870  160.3610  133.6950 O   0  0  0  0  0  0  0  0  0  0  0  0
  145.4320  158.7810  133.4270 C   0  0  0  0  0  0  0  0  0  0  0  0
  144.6510  157.6330  133.5400 C   0  0  0  0  0  0  0  0  0  0  0  0
  145.5110  156.5820  133.3090 C   0  0  0  0  0  0  0  0  0  0  0  0
  145.2720  155.2110  133.2980 C   0  0  0  0  0  0  0  0  0  0  0  0
  146.3510  154.3560  133.0150 C   0  0  0  0  0  0  0  0  0  0  0  0
  147.6390  154.8830  132.7370 C   0  0  0  0  0  0  0  0  0  0  0  0
  148.7890  153.9480  132.4590 C   0  0  1  0  0  0  0  0  0  0  0  0
  149.9960  154.6120  132.5970 F   0  0  0  0  0  0  0  0  0  0  0  0
  148.7550  152.7440  133.3990 C   0  0  0  0  0  0  0  0  0  0  0  0
  149.9440  152.0390  133.3310 F   0  0  0  0  0  0  0  0  0  0  0  0
  147.8440  156.2810  132.7740 C   0  0  0  0  0  0  0  0  0  0  0  0
  146.7540  157.1050  133.0660 C   0  0  0  0  0  0  0  0  0  0  0  0
  146.7200  158.4530  133.1270 N   0  0  0  0  0  0  0  0  0  0  0  0
  147.8150  159.3340  132.8360 C   0  0  0  0  0  0  0  0  0  0  0  0
  148.2780  160.0750  133.7440 O   0  0  0  0  0  0  0  0  0  0  0  0
  148.4830  159.3080  131.4890 C   0  0  0  0  0  0  0  0  0  0  0  0
  148.1940  160.5860  130.6920 C   0  0  0  0  0  0  0  0  0  0  0  0
  149.4310  161.1430  130.0520 C   0  0  0  0  0  0  0  0  0  0  0  0
  149.6270  162.3860  130.0270 O   0  0  0  0  0  0  0  0  0  0  0  0
  150.3750  160.2870  129.5000 O   0  0  0  0  0  0  0  0  0  0  0  0
  146.6080  161.4500  133.3450 H   0  0  0  0  0  0  0  0  0  0  0  0
  143.5758  157.5775  133.7657 H   0  0  0  0  0  0  0  0  0  0  0  0
  144.2692  154.8088  133.5045 H   0  0  0  0  0  0  0  0  0  0  0  0
  146.1955  153.2671  133.0089 H   0  0  0  0  0  0  0  0  0  0  0  0
  148.6889  153.5893  131.4239 H   0  0  0  0  0  0  0  0  0  0  0  0
  148.6012  153.0947  134.4302 H   0  0  0  0  0  0  0  0  0  0  0  0
  147.9316  152.0806  133.0958 H   0  0  0  0  0  0  0  0  0  0  0  0
  148.8377  156.7100  132.5777 H   0  0  0  0  0  0  0  0  0  0  0  0
  149.5697  159.2137  131.6310 H   0  0  0  0  0  0  0  0  0  0  0  0
  148.0855  158.4522  130.9238 H   0  0  0  0  0  0  0  0  0  0  0  0
  147.4606  160.3553  129.9053 H   0  0  0  0  0  0  0  0  0  0  0  0
  147.8048  161.3408  131.3911 H   0  0  0  0  0  0  0  0  0  0  0  0
  1  2  1  0
  2  3  2  0
  2  4  1  0
  4  5  2  0
  5  6  1  0
  6  7  2  0
  7  8  1  0
  8  9  2  0
  9 10  1  0
 10 11  1  0
 10 12  1  0
 12 13  1  0
  9 14  1  0
 14 15  2  0
 15 16  1  0
 16 17  1  0
 17 18  2  0
 17 19  1  0
 19 20  1  0
 20 21  1  0
 21 22  2  0
 21 23  1  0
 16  4  1  0
 15  6  1  0
  1 24  1  0
  5 25  1  0
  7 26  1  0
  8 27  1  0
 10 28  1  6
 12 29  1  0
 12 30  1  0
 14 31  1  0
 19 32  1  0
 19 33  1  0
 20 34  1  0
 20 35  1  0
M  CHG  2   1  -1  23  -1
M  END
>  <UniqueID>  (45) 
44

>  <SMILES>  (45) 
[NH-]C(=O)c1cc2ccc([C@@H](F)CF)cc2n1C(=O)CCC(=O)[O-]

>  <Energy>  (45) 
68.4043042503232

>  <Genealogy>  (45) 
[NH-]C(=O)c1cc2ccc(C(F)CF)cc2n1C(=O)CCC(=O)[O-] (protonated)
[NH-]C(=O)c1cc2ccc([C@@H](F)CF)cc2n1C(=O)CCC(=O)[O-] (chirality)
[NH-]C(=O)c1cc2ccc([C@@H](F)CF)cc2n1C(=O)CCC(=O)[O-] (3D coordinates assigned)
[NH-]C(=O)c1cc2ccc([C@@H](F)CF)cc2n1C(=O)CCC(=O)[O-] (optimized conformer: 68.4043042503232 kcal/mol)

>  <smiles>  (45) 
NC(=O)c1cc2ccc(C(F)CF)cc2n1C(=O)CCC(=O)O

>  <score_type>  (45) 
oracle

>  <origin>  (45) 
adg

>  <m_score__min__energy>  (45) 
-6.1900000000000004

>  <m_primary>  (45) 
energy

$$$$
45:0
     RDKit          3D

 33 34  0  0  0  0  0  0  0  0999 V2000
  149.4490  152.1740  132.5000 C   0  0  0  0  0  0  0  0  0  0  0  0
  148.3090  153.1800  132.5990 C   0  0  0  0  0  0  0  0  0  0  0  0
  148.8480  154.5760  132.6970 C   0  0  0  0  0  0  0  0  0  0  0  0
  150.0000  154.8320  132.2540 O   0  0  0  0  0  0  0  0  0  0  0  0
  148.0860  155.6090  133.3380 N   0  0  0  0  0  0  0  0  0  0  0  0
  147.2670  155.4890  134.4190 C   0  0  0  0  0  0  0  0  0  0  0  0
  146.9390  154.2260  135.1160 C   0  0  0  0  0  0  0  0  0  0  0  0
  145.9350  153.3630  134.5860 N   0  0  0  0  0  0  0  0  0  0  0  0
  147.5440  153.8950  136.1690 O   0  0  0  0  0  0  0  0  0  0  0  0
  146.7290  156.7280  134.7630 C   0  0  0  0  0  0  0  0  0  0  0  0
  147.2540  157.6180  133.8520 C   0  0  0  0  0  0  0  0  0  0  0  0
  147.0660  158.9910  133.7290 C   0  0  0  0  0  0  0  0  0  0  0  0
  147.7550  159.6620  132.7040 C   0  0  0  0  0  0  0  0  0  0  0  0
  148.6300  158.9550  131.8390 C   0  0  0  0  0  0  0  0  0  0  0  0
  149.3480  159.6770  130.7260 C   0  0  1  0  0  0  0  0  0  0  0  0
  149.0130  161.1650  130.7460 C   0  0  0  0  0  0  0  0  0  0  0  0
  150.7170  159.5070  130.8520 F   0  0  0  0  0  0  0  0  0  0  0  0
  148.7860  157.5600  131.9880 C   0  0  0  0  0  0  0  0  0  0  0  0
  148.0730  156.9170  133.0050 C   0  0  0  0  0  0  0  0  0  0  0  0
  149.7739  151.8873  133.5111 H   0  0  0  0  0  0  0  0  0  0  0  0
  149.1038  151.2808  131.9587 H   0  0  0  0  0  0  0  0  0  0  0  0
  150.2924  152.6276  131.9587 H   0  0  0  0  0  0  0  0  0  0  0  0
  147.6754  153.0985  131.7035 H   0  0  0  0  0  0  0  0  0  0  0  0
  147.7193  152.9620  133.5016 H   0  0  0  0  0  0  0  0  0  0  0  0
  146.1940  152.4860  134.0820 H   0  0  0  0  0  0  0  0  0  0  0  0
  146.0335  156.9481  135.5863 H   0  0  0  0  0  0  0  0  0  0  0  0
  146.3983  159.5350  134.4133 H   0  0  0  0  0  0  0  0  0  0  0  0
  147.6147  160.7449  132.5711 H   0  0  0  0  0  0  0  0  0  0  0  0
  149.0150  159.2512  129.7680 H   0  0  0  0  0  0  0  0  0  0  0  0
  148.9355  161.5094  131.7878 H   0  0  0  0  0  0  0  0  0  0  0  0
  149.8072  161.7266  130.2323 H   0  0  0  0  0  0  0  0  0  0  0  0
  148.0548  161.3320  130.2323 H   0  0  0  0  0  0  0  0  0  0  0  0
  149.4517  156.9928  131.3209 H   0  0  0  0  0  0  0  0  0  0  0  0
  1  2  1  0
  2  3  1  0
  3  4  2  0
  3  5  1  0
  5  6  1  0
  6  7  1  0
  7  8  1  0
  7  9  2  0
  6 10  2  0
 10 11  1  0
 11 12  2  0
 12 13  1  0
 13 14  2  0
 14 15  1  0
 15 16  1  0
 15 17  1  0
 14 18  1  0
 18 19  2  0
 19  5  1  0
 19 11  1  0
  1 20  1  0
  1 21  1  0
  1 22  1  0
  2 23  1  0
  2 24  1  0
  8 25  1  0
 10 26  1  0
 12 27  1  0
 13 28  1  0
 15 29  1  6
 16 30  1  0
 16 31  1  0
 16 32  1  0
 18 33  1  0
M  CHG  1   8  -1
M  END
>  <UniqueID>  (46) 
45

>  <SMILES>  (46) 
CCC(=O)n1c(C([NH-])=O)cc2ccc([C@@H](C)F)cc21

>  <Energy>  (46) 
66.02326199567085

>  <Genealogy>  (46) 
CCC(=O)n1c(C([NH-])=O)cc2ccc(C(C)F)cc21 (protonated)
CCC(=O)n1c(C([NH-])=O)cc2ccc([C@@H](C)F)cc21 (chirality)
CCC(=O)n1c(C([NH-])=O)cc2ccc([C@@H](C)F)cc21 (3D coordinates assigned)
CCC(=O)n1c(C([NH-])=O)cc2ccc([C@@H](C)F)cc21 (optimized conformer: 66.02326199567085 kcal/mol)

>  <smiles>  (46) 
CCC(=O)n1c(C(N)=O)cc2ccc(C(C)F)cc21

>  <score_type>  (46) 
oracle

>  <origin>  (46) 
adg

>  <m_score__min__energy>  (46) 
-6.4699999999999998

>  <m_primary>  (46) 
energy

$$$$
46:0
     RDKit          3D

 40 42  0  0  0  0  0  0  0  0999 V2000
  143.5750  153.6570  134.5630 C   0  0  0  0  0  0  0  0  0  0  0  0
  143.4420  152.6940  133.4640 N   0  0  0  0  0  0  0  0  0  0  0  0
  142.1140  152.1910  133.1000 C   0  0  0  0  0  0  0  0  0  0  0  0
  144.6020  152.1430  132.8020 C   0  0  0  0  0  0  0  0  0  0  0  0
  144.5060  151.0230  132.2300 O   0  0  0  0  0  0  0  0  0  0  0  0
  145.9030  152.8560  132.7580 C   0  0  0  0  0  0  0  0  0  0  0  0
  145.9580  154.2520  132.9150 C   0  0  0  0  0  0  0  0  0  0  0  0
  147.1990  154.9110  132.8980 C   0  0  0  0  0  0  0  0  0  0  0  0
  147.2740  156.3870  133.0530 C   0  0  0  0  0  0  0  0  0  0  0  0
  148.5140  157.0610  132.9020 C   0  0  0  0  0  0  0  0  0  0  0  0
  148.6000  158.4540  133.0590 C   0  0  0  0  0  0  0  0  0  0  0  0
  147.4330  159.1500  133.3560 C   0  0  0  0  0  0  0  0  0  0  0  0
  147.2390  160.4930  133.5840 C   0  0  0  0  0  0  0  0  0  0  0  0
  145.8770  160.6300  133.8450 C   0  0  0  0  0  0  0  0  0  0  0  0
  145.2220  161.9360  134.0620 C   0  0  0  0  0  0  0  0  0  0  0  0
  145.9170  163.0110  134.6920 N   0  0  0  0  0  0  0  0  0  0  0  0
  144.0150  162.0920  133.7350 O   0  0  0  0  0  0  0  0  0  0  0  0
  145.2560  159.4180  133.7900 N   0  0  0  0  0  0  0  0  0  0  0  0
  143.8810  159.1180  134.0830 C   0  0  0  0  0  0  0  0  0  0  0  0
  143.3030  159.6690  135.0550 O   0  0  0  0  0  0  0  0  0  0  0  0
  143.1840  158.1970  133.3100 O   0  0  0  0  0  0  0  0  0  0  0  0
  146.2220  158.5230  133.4880 C   0  0  0  0  0  0  0  0  0  0  0  0
  146.1110  157.1330  133.3570 C   0  0  0  0  0  0  0  0  0  0  0  0
  148.3670  154.1500  132.7340 C   0  0  0  0  0  0  0  0  0  0  0  0
  148.2750  152.7670  132.5910 C   0  0  0  0  0  0  0  0  0  0  0  0
  147.0610  152.1580  132.6100 N   0  0  0  0  0  0  0  0  0  0  0  0
  143.5020  153.1282  135.5248 H   0  0  0  0  0  0  0  0  0  0  0  0
  144.5511  154.1595  134.4941 H   0  0  0  0  0  0  0  0  0  0  0  0
  142.7717  154.4053  134.4941 H   0  0  0  0  0  0  0  0  0  0  0  0
  141.5410  151.9740  134.0136 H   0  0  0  0  0  0  0  0  0  0  0  0
  141.5841  152.9507  132.5067 H   0  0  0  0  0  0  0  0  0  0  0  0
  142.2204  151.2709  132.5067 H   0  0  0  0  0  0  0  0  0  0  0  0
  145.0306  154.8278  133.0510 H   0  0  0  0  0  0  0  0  0  0  0  0
  149.4191  156.4850  132.6589 H   0  0  0  0  0  0  0  0  0  0  0  0
  149.5608  158.9785  132.9504 H   0  0  0  0  0  0  0  0  0  0  0  0
  147.9977  161.2892  133.5644 H   0  0  0  0  0  0  0  0  0  0  0  0
  146.9590  163.0150  134.7500 H   0  0  0  0  0  0  0  0  0  0  0  0
  145.1404  156.6321  133.4877 H   0  0  0  0  0  0  0  0  0  0  0  0
  149.3502  154.6430  132.7184 H   0  0  0  0  0  0  0  0  0  0  0  0
  149.1878  152.1669  132.4624 H   0  0  0  0  0  0  0  0  0  0  0  0
  1  2  1  0
  2  3  1  0
  2  4  1  0
  4  5  2  0
  4  6  1  0
  6  7  2  0
  7  8  1  0
  8  9  1  0
  9 10  2  0
 10 11  1  0
 11 12  2  0
 12 13  1  0
 13 14  2  0
 14 15  1  0
 15 16  1  0
 15 17  2  0
 14 18  1  0
 18 19  1  0
 19 20  2  0
 19 21  1  0
 18 22  1  0
 22 23  2  0
  8 24  2  0
 24 25  1  0
 25 26  2  0
 26  6  1  0
 23  9  1  0
 22 12  1  0
  1 27  1  0
  1 28  1  0
  1 29  1  0
  3 30  1  0
  3 31  1  0
  3 32  1  0
  7 33  1  0
 10 34  1  0
 11 35  1  0
 13 36  1  0
 16 37  1  0
 23 38  1  0
 24 39  1  0
 25 40  1  0
M  CHG  2  16  -1  21  -1
M  END
>  <UniqueID>  (47) 
46

>  <SMILES>  (47) 
CN(C)C(=O)c1cc(-c2ccc3cc(C([NH-])=O)n(C(=O)[O-])c3c2)ccn1

>  <Energy>  (47) 
89.69445256107855

>  <Genealogy>  (47) 
CN(C)C(=O)c1cc(-c2ccc3cc(C([NH-])=O)n(C(=O)[O-])c3c2)ccn1 (protonated)
CN(C)C(=O)c1cc(-c2ccc3cc(C([NH-])=O)n(C(=O)[O-])c3c2)ccn1 (3D coordinates assigned)
CN(C)C(=O)c1cc(-c2ccc3cc(C([NH-])=O)n(C(=O)[O-])c3c2)ccn1 (optimized conformer: 89.69445256107855 kcal/mol)

>  <smiles>  (47) 
CN(C)C(=O)c1cc(-c2ccc3cc(C(N)=O)n(C(=O)O)c3c2)ccn1

>  <score_type>  (47) 
oracle

>  <origin>  (47) 
adg

>  <m_score__min__energy>  (47) 
-7.8700000000000001

>  <m_primary>  (47) 
energy

$$$$
47:0
     RDKit          3D

 34 35  0  0  0  0  0  0  0  0999 V2000
  148.1650  155.0690  133.8970 C   0  0  0  0  0  0  0  0  0  0  0  0
  147.0740  156.1190  133.6470 C   0  0  1  0  0  0  0  0  0  0  0  0
  147.6990  157.4680  133.2560 C   0  0  0  0  0  0  0  0  0  0  0  0
  147.7030  157.6190  131.8620 O   0  0  0  0  0  0  0  0  0  0  0  0
  146.1510  155.6560  132.6000 N   0  0  0  0  0  0  0  0  0  0  0  0
  145.3930  154.4310  132.6570 C   0  0  0  0  0  0  0  0  0  0  0  0
  146.0810  153.1960  132.5400 C   0  0  0  0  0  0  0  0  0  0  0  0
  145.3920  151.9760  132.6050 C   0  0  0  0  0  0  0  0  0  0  0  0
  144.0140  152.0130  132.7810 C   0  0  0  0  0  0  0  0  0  0  0  0
  143.1130  150.9820  132.9110 C   0  0  0  0  0  0  0  0  0  0  0  0
  141.8750  151.5960  133.0820 C   0  0  0  0  0  0  0  0  0  0  0  0
  140.6080  150.8480  133.1970 C   0  0  0  0  0  0  0  0  0  0  0  0
  139.4370  151.2660  132.4960 N   0  0  0  0  0  0  0  0  0  0  0  0
  140.5740  149.7900  133.8800 O   0  0  0  0  0  0  0  0  0  0  0  0
  142.0040  152.9530  133.0720 N   0  0  0  0  0  0  0  0  0  0  0  0
  140.9780  153.9260  133.3350 C   0  0  0  0  0  0  0  0  0  0  0  0
  139.9420  153.9720  132.6210 O   0  0  0  0  0  0  0  0  0  0  0  0
  141.1230  154.8300  134.3800 O   0  0  0  0  0  0  0  0  0  0  0  0
  143.3230  153.1930  132.8830 C   0  0  0  0  0  0  0  0  0  0  0  0
  143.9880  154.4250  132.8460 C   0  0  0  0  0  0  0  0  0  0  0  0
  148.3039  154.9353  134.9800 H   0  0  0  0  0  0  0  0  0  0  0  0
  147.8637  154.1124  133.4451 H   0  0  0  0  0  0  0  0  0  0  0  0
  149.1093  155.4067  133.4451 H   0  0  0  0  0  0  0  0  0  0  0  0
  146.5061  156.2599  134.5785 H   0  0  0  0  0  0  0  0  0  0  0  0
  147.1139  158.2829  133.7072 H   0  0  0  0  0  0  0  0  0  0  0  0
  148.7360  157.5001  133.6214 H   0  0  0  0  0  0  0  0  0  0  0  0
  148.0910  156.7820  131.4950 H   0  0  0  0  0  0  0  0  0  0  0  0
  146.0160  156.2670  131.7610 H   0  0  0  0  0  0  0  0  0  0  0  0
  147.1715  153.1951  132.3961 H   0  0  0  0  0  0  0  0  0  0  0  0
  145.9265  151.0184  132.5192 H   0  0  0  0  0  0  0  0  0  0  0  0
  143.3251  149.9029  132.8853 H   0  0  0  0  0  0  0  0  0  0  0  0
  138.5390  150.7460  132.6180 H   0  0  0  0  0  0  0  0  0  0  0  0
  139.4740  152.0380  131.7940 H   0  0  0  0  0  0  0  0  0  0  0  0
  143.4323  155.3673  132.9611 H   0  0  0  0  0  0  0  0  0  0  0  0
  1  2  1  0
  2  3  1  0
  3  4  1  0
  2  5  1  0
  5  6  1  0
  6  7  2  0
  7  8  1  0
  8  9  2  0
  9 10  1  0
 10 11  2  0
 11 12  1  0
 12 13  1  0
 12 14  2  0
 11 15  1  0
 15 16  1  0
 16 17  2  0
 16 18  1  0
 15 19  1  0
 19 20  2  0
 20  6  1  0
 19  9  1  0
  1 21  1  0
  1 22  1  0
  1 23  1  0
  2 24  1  1
  3 25  1  0
  3 26  1  0
  4 27  1  0
  5 28  1  0
  7 29  1  0
  8 30  1  0
 10 31  1  0
 13 32  1  0
 13 33  1  0
 20 34  1  0
M  CHG  1  18  -1
M  END
>  <UniqueID>  (48) 
47

>  <SMILES>  (48) 
C[C@@H](CO)Nc1ccc2cc(C(N)=O)n(C(=O)[O-])c2c1

>  <Energy>  (48) 
70.72145640704481

>  <Genealogy>  (48) 
CC(CO)Nc1ccc2cc(C(N)=O)n(C(=O)[O-])c2c1 (protonated)
C[C@@H](CO)Nc1ccc2cc(C(N)=O)n(C(=O)[O-])c2c1 (chirality)
C[C@@H](CO)Nc1ccc2cc(C(N)=O)n(C(=O)[O-])c2c1 (3D coordinates assigned)
C[C@@H](CO)Nc1ccc2cc(C(N)=O)n(C(=O)[O-])c2c1 (optimized conformer: 70.72145640704481 kcal/mol)

>  <smiles>  (48) 
CC(CO)Nc1ccc2cc(C(N)=O)n(C(=O)O)c2c1

>  <score_type>  (48) 
oracle

>  <origin>  (48) 
adg

>  <m_score__min__energy>  (48) 
-6.4500000000000002

>  <m_primary>  (48) 
energy

$$$$
48:0
     RDKit          3D

 41 43  0  0  0  0  0  0  0  0999 V2000
  136.7360  160.0980  130.4050 C   0  0  0  0  0  0  0  0  0  0  0  0
  137.6290  159.8990  131.1200 N   0  0  0  0  0  0  0  0  0  0  0  0
  138.6880  159.6410  131.9870 C   0  0  0  0  0  0  0  0  0  0  0  0
  138.6200  158.4620  132.6990 C   0  0  0  0  0  0  0  0  0  0  0  0
  139.6380  158.1580  133.5690 C   0  0  0  0  0  0  0  0  0  0  0  0
  140.7420  159.0020  133.7570 C   0  0  0  0  0  0  0  0  0  0  0  0
  141.7560  158.5500  134.7080 C   0  0  0  0  0  0  0  0  0  0  0  0
  143.1010  159.0770  134.4270 N   0  0  0  0  0  0  0  0  0  0  0  0
  144.1640  158.2820  133.9730 C   0  0  0  0  0  0  0  0  0  0  0  0
  143.8750  157.0360  133.8480 O   0  0  0  0  0  0  0  0  0  0  0  0
  145.4760  158.6850  133.6570 N   0  0  0  0  0  0  0  0  0  0  0  0
  146.0740  159.8850  133.6980 C   0  0  0  0  0  0  0  0  0  0  0  0
  145.5230  161.2200  133.8200 C   0  0  0  0  0  0  0  0  0  0  0  0
  146.4300  162.3140  134.1100 N   0  0  0  0  0  0  0  0  0  0  0  0
  144.3280  161.5570  133.7040 O   0  0  0  0  0  0  0  0  0  0  0  0
  147.4540  159.7240  133.4460 C   0  0  0  0  0  0  0  0  0  0  0  0
  147.6730  158.3910  133.2450 C   0  0  0  0  0  0  0  0  0  0  0  0
  148.8520  157.7330  132.9680 C   0  0  0  0  0  0  0  0  0  0  0  0
  148.8450  156.3650  132.8060 C   0  0  0  0  0  0  0  0  0  0  0  0
  147.6470  155.7150  132.9300 C   0  0  0  0  0  0  0  0  0  0  0  0
  147.6530  154.2310  132.7540 C   0  0  0  0  0  0  0  0  0  0  0  0
  147.9130  153.6010  133.9410 F   0  0  0  0  0  0  0  0  0  0  0  0
  148.6300  153.8350  131.8680 F   0  0  0  0  0  0  0  0  0  0  0  0
  146.3980  153.8320  132.3300 F   0  0  0  0  0  0  0  0  0  0  0  0
  146.4620  156.3900  133.2110 C   0  0  0  0  0  0  0  0  0  0  0  0
  146.4560  157.7740  133.3770 C   0  0  0  0  0  0  0  0  0  0  0  0
  140.7550  160.1500  133.0290 C   0  0  0  0  0  0  0  0  0  0  0  0
  139.7510  160.4960  132.1410 C   0  0  0  0  0  0  0  0  0  0  0  0
  137.7673  157.7787  132.5726 H   0  0  0  0  0  0  0  0  0  0  0  0
  139.5856  157.2186  134.1390 H   0  0  0  0  0  0  0  0  0  0  0  0
  141.4580  158.8756  135.7156 H   0  0  0  0  0  0  0  0  0  0  0  0
  141.8135  157.4548  134.6233 H   0  0  0  0  0  0  0  0  0  0  0  0
  143.2250  160.0770  134.6300 H   0  0  0  0  0  0  0  0  0  0  0  0
  146.8220  162.4540  135.0660 H   0  0  0  0  0  0  0  0  0  0  0  0
  146.6350  162.9210  133.2890 H   0  0  0  0  0  0  0  0  0  0  0  0
  148.2104  160.5221  133.4170 H   0  0  0  0  0  0  0  0  0  0  0  0
  149.7923  158.2965  132.8769 H   0  0  0  0  0  0  0  0  0  0  0  0
  149.7708  155.8138  132.5845 H   0  0  0  0  0  0  0  0  0  0  0  0
  145.5221  155.8260  133.3028 H   0  0  0  0  0  0  0  0  0  0  0  0
  141.6049  160.8376  133.1516 H   0  0  0  0  0  0  0  0  0  0  0  0
  139.8038  161.4355  131.5712 H   0  0  0  0  0  0  0  0  0  0  0  0
  1  2  3  0
  2  3  1  0
  3  4  2  0
  4  5  1  0
  5  6  2  0
  6  7  1  0
  7  8  1  0
  8  9  1  0
  9 10  2  0
  9 11  1  0
 11 12  1  0
 12 13  1  0
 13 14  1  0
 13 15  2  0
 12 16  2  0
 16 17  1  0
 17 18  2  0
 18 19  1  0
 19 20  2  0
 20 21  1  0
 21 22  1  0
 21 23  1  0
 21 24  1  0
 20 25  1  0
 25 26  2  0
  6 27  1  0
 27 28  2  0
 28  3  1  0
 26 11  1  0
 26 17  1  0
  4 29  1  0
  5 30  1  0
  7 31  1  0
  7 32  1  0
  8 33  1  0
 14 34  1  0
 14 35  1  0
 16 36  1  0
 18 37  1  0
 19 38  1  0
 25 39  1  0
 27 40  1  0
 28 41  1  0
M  CHG  2   1  -1   2   1
M  END
>  <smiles>  (49) 
[C-]#[N+]c1ccc(CNC(=O)n2c(C(N)=O)cc3ccc(C(F)(F)F)cc32)cc1

>  <score_type>  (49) 
oracle

>  <origin>  (49) 
adg

>  <m_score__min__energy>  (49) 
-9.0199999999999996

>  <m_primary>  (49) 
energy

$$$$
49:0
     RDKit          3D

 37 38  0  0  0  0  0  0  0  0999 V2000
  139.0830  147.5130  130.3290 C   0  0  0  0  0  0  0  0  0  0  0  0
  139.8580  149.1390  130.0620 S   0  0  0  0  0  0  0  0  0  0  0  0
  139.4320  149.7590  131.6940 C   0  0  0  0  0  0  0  0  0  0  0  0
  138.3800  150.3600  131.8490 O   0  0  0  0  0  0  0  0  0  0  0  0
  140.3900  149.6070  132.8400 C   0  0  0  0  0  0  0  0  0  0  0  0
  141.3710  150.7470  132.8770 C   0  0  0  0  0  0  0  0  0  0  0  0
  142.7640  150.4940  132.8030 C   0  0  0  0  0  0  0  0  0  0  0  0
  143.6860  151.5520  132.8440 C   0  0  0  0  0  0  0  0  0  0  0  0
  143.1880  152.8470  132.9670 C   0  0  0  0  0  0  0  0  0  0  0  0
  143.8520  154.0530  132.9930 C   0  0  0  0  0  0  0  0  0  0  0  0
  142.8550  155.0230  133.1070 C   0  0  0  0  0  0  0  0  0  0  0  0
  143.1180  156.4740  133.2280 C   0  0  0  0  0  0  0  0  0  0  0  0
  142.3710  157.4190  132.4580 N   0  0  0  0  0  0  0  0  0  0  0  0
  144.0190  156.8890  134.0050 O   0  0  0  0  0  0  0  0  0  0  0  0
  141.6260  154.4380  133.1530 N   0  0  0  0  0  0  0  0  0  0  0  0
  140.3500  155.0950  133.1980 C   0  0  0  0  0  0  0  0  0  0  0  0
  139.2940  154.4410  132.9670 O   0  0  0  0  0  0  0  0  0  0  0  0
  140.2880  156.4630  133.4870 O   0  0  0  0  0  0  0  0  0  0  0  0
  139.1050  157.2450  133.3310 C   0  0  0  0  0  0  0  0  0  0  0  0
  139.2980  158.2940  132.2790 C   0  0  0  0  0  0  0  0  0  0  0  0
  138.3600  158.5740  131.4820 O   0  0  0  0  0  0  0  0  0  0  0  0
  140.5030  158.9870  132.1960 O   0  0  0  0  0  0  0  0  0  0  0  0
  141.8460  153.1060  133.0640 C   0  0  0  0  0  0  0  0  0  0  0  0
  140.9040  152.0730  133.0140 C   0  0  0  0  0  0  0  0  0  0  0  0
  138.9924  147.3229  131.4086 H   0  0  0  0  0  0  0  0  0  0  0  0
  138.0835  147.5034  129.8698 H   0  0  0  0  0  0  0  0  0  0  0  0
  139.7050  146.7305  129.8698 H   0  0  0  0  0  0  0  0  0  0  0  0
  139.8234  149.5892  133.7827 H   0  0  0  0  0  0  0  0  0  0  0  0
  140.9481  148.6683  132.7083 H   0  0  0  0  0  0  0  0  0  0  0  0
  143.1258  149.4591  132.7126 H   0  0  0  0  0  0  0  0  0  0  0  0
  144.7680  151.3641  132.7809 H   0  0  0  0  0  0  0  0  0  0  0  0
  144.9382  154.2172  132.9360 H   0  0  0  0  0  0  0  0  0  0  0  0
  142.6080  158.4330  132.5080 H   0  0  0  0  0  0  0  0  0  0  0  0
  141.5650  157.1190  131.8640 H   0  0  0  0  0  0  0  0  0  0  0  0
  138.2737  156.5874  133.0368 H   0  0  0  0  0  0  0  0  0  0  0  0
  138.8801  157.7404  134.2870 H   0  0  0  0  0  0  0  0  0  0  0  0
  139.8272  152.2879  133.0797 H   0  0  0  0  0  0  0  0  0  0  0  0
  1  2  1  0
  2  3  1  0
  3  4  2  0
  3  5  1  0
  5  6  1  0
  6  7  2  0
  7  8  1  0
  8  9  2  0
  9 10  1  0
 10 11  2  0
 11 12  1  0
 12 13  1  0
 12 14  2  0
 11 15  1  0
 15 16  1  0
 16 17  2  0
 16 18  1  0
 18 19  1  0
 19 20  1  0
 20 21  2  0
 20 22  1  0
 15 23  1  0
 23 24  2  0
 24  6  1  0
 23  9  1  0
  1 25  1  0
  1 26  1  0
  1 27  1  0
  5 28  1  0
  5 29  1  0
  7 30  1  0
  8 31  1  0
 10 32  1  0
 13 33  1  0
 13 34  1  0
 19 35  1  0
 19 36  1  0
 24 37  1  0
M  CHG  1  22  -1
M  END
>  <UniqueID>  (50) 
48

>  <SMILES>  (50) 
CSC(=O)Cc1ccc2cc(C(N)=O)n(C(=O)OCC(=O)[O-])c2c1

>  <Energy>  (50) 
67.03450484482079

>  <Genealogy>  (50) 
CSC(=O)Cc1ccc2cc(C(N)=O)n(C(=O)OCC(=O)[O-])c2c1 (protonated)
CSC(=O)Cc1ccc2cc(C(N)=O)n(C(=O)OCC(=O)[O-])c2c1 (3D coordinates assigned)
CSC(=O)Cc1ccc2cc(C(N)=O)n(C(=O)OCC(=O)[O-])c2c1 (optimized conformer: 67.03450484482079 kcal/mol)

>  <smiles>  (50) 
CSC(=O)Cc1ccc2cc(C(N)=O)n(C(=O)OCC(=O)O)c2c1

>  <score_type>  (50) 
oracle

>  <origin>  (50) 
adg

>  <m_score__min__energy>  (50) 
-7.2000000000000002

>  <m_primary>  (50) 
energy

$$$$
50:0
     RDKit          3D

 37 38  0  0  0  0  0  0  0  0999 V2000
  147.5770  150.8010  132.2170 C   0  0  0  0  0  0  0  0  0  0  0  0
  147.8620  152.2250  132.1030 N   0  0  0  0  0  0  0  0  0  0  0  0
  148.9620  152.8330  132.7910 C   0  0  0  0  0  0  0  0  0  0  0  0
  149.7220  152.1350  133.5170 O   0  0  0  0  0  0  0  0  0  0  0  0
  149.2460  154.2930  132.6160 C   0  0  0  0  0  0  0  0  0  0  0  0
  148.0350  155.1020  132.9870 C   0  0  0  0  0  0  0  0  0  0  0  0
  146.8540  154.4540  133.4300 C   0  0  0  0  0  0  0  0  0  0  0  0
  145.7010  155.1960  133.7340 C   0  0  0  0  0  0  0  0  0  0  0  0
  145.7570  156.5790  133.5830 C   0  0  0  0  0  0  0  0  0  0  0  0
  144.7830  157.5310  133.7770 C   0  0  0  0  0  0  0  0  0  0  0  0
  145.3850  158.7470  133.4590 C   0  0  0  0  0  0  0  0  0  0  0  0
  144.7140  160.0540  133.6100 C   0  0  0  0  0  0  0  0  0  0  0  0
  145.4700  161.1990  133.9950 N   0  0  0  0  0  0  0  0  0  0  0  0
  143.4850  160.1800  133.3670 O   0  0  0  0  0  0  0  0  0  0  0  0
  146.6800  158.5530  133.0760 N   0  0  0  0  0  0  0  0  0  0  0  0
  147.6150  159.5320  132.6000 C   0  0  0  0  0  0  0  0  0  0  0  0
  148.0130  160.4480  133.3710 O   0  0  0  0  0  0  0  0  0  0  0  0
  148.1190  159.4490  131.2630 N   0  0  0  0  0  0  0  0  0  0  0  0
  149.5300  159.5860  130.9220 C   0  0  0  0  0  0  0  0  0  0  0  0
  149.7220  160.7150  129.9620 C   0  0  0  0  0  0  0  0  0  0  0  0
  149.9670  160.4830  128.7490 O   0  0  0  0  0  0  0  0  0  0  0  0
  149.5900  162.0270  130.3990 O   0  0  0  0  0  0  0  0  0  0  0  0
  146.8930  157.2210  133.1610 C   0  0  0  0  0  0  0  0  0  0  0  0
  148.0500  156.5050  132.8360 C   0  0  0  0  0  0  0  0  0  0  0  0
  147.5212  150.5221  133.2796 H   0  0  0  0  0  0  0  0  0  0  0  0
  146.6166  150.5790  131.7287 H   0  0  0  0  0  0  0  0  0  0  0  0
  148.3780  150.2265  131.7287 H   0  0  0  0  0  0  0  0  0  0  0  0
  147.2470  152.8150  131.4970 H   0  0  0  0  0  0  0  0  0  0  0  0
  150.0878  154.5802  133.2632 H   0  0  0  0  0  0  0  0  0  0  0  0
  149.5004  154.4870  131.5635 H   0  0  0  0  0  0  0  0  0  0  0  0
  146.8408  153.3593  133.5366 H   0  0  0  0  0  0  0  0  0  0  0  0
  144.7824  154.7000  134.0806 H   0  0  0  0  0  0  0  0  0  0  0  0
  143.7482  157.3671  134.1121 H   0  0  0  0  0  0  0  0  0  0  0  0
  146.1860  161.6090  133.3560 H   0  0  0  0  0  0  0  0  0  0  0  0
  150.1072  159.7850  131.8370 H   0  0  0  0  0  0  0  0  0  0  0  0
  149.8781  158.6536  130.4535 H   0  0  0  0  0  0  0  0  0  0  0  0
  148.9495  157.0229  132.4717 H   0  0  0  0  0  0  0  0  0  0  0  0
  1  2  1  0
  2  3  1  0
  3  4  2  0
  3  5  1  0
  5  6  1  0
  6  7  2  0
  7  8  1  0
  8  9  2  0
  9 10  1  0
 10 11  2  0
 11 12  1  0
 12 13  1  0
 12 14  2  0
 11 15  1  0
 15 16  1  0
 16 17  2  0
 16 18  1  0
 18 19  1  0
 19 20  1  0
 20 21  2  0
 20 22  1  0
 15 23  1  0
 23 24  2  0
 24  6  1  0
 23  9  1  0
  1 25  1  0
  1 26  1  0
  1 27  1  0
  2 28  1  0
  5 29  1  0
  5 30  1  0
  7 31  1  0
  8 32  1  0
 10 33  1  0
 13 34  1  0
 19 35  1  0
 19 36  1  0
 24 37  1  0
M  CHG  3  13  -1  18  -1  22  -1
M  END
>  <UniqueID>  (51) 
49

>  <SMILES>  (51) 
CNC(=O)Cc1ccc2cc(C([NH-])=O)n(C(=O)[N-]CC(=O)[O-])c2c1

>  <Energy>  (51) 
68.06515251725993

>  <Genealogy>  (51) 
CNC(=O)Cc1ccc2cc(C([NH-])=O)n(C(=O)[N-]CC(=O)[O-])c2c1 (protonated)
CNC(=O)Cc1ccc2cc(C([NH-])=O)n(C(=O)[N-]CC(=O)[O-])c2c1 (3D coordinates assigned)
CNC(=O)Cc1ccc2cc(C([NH-])=O)n(C(=O)[N-]CC(=O)[O-])c2c1 (optimized conformer: 68.06515251725993 kcal/mol)

>  <smiles>  (51) 
CNC(=O)Cc1ccc2cc(C(N)=O)n(C(=O)NCC(=O)O)c2c1

>  <score_type>  (51) 
oracle

>  <origin>  (51) 
adg

>  <m_score__min__energy>  (51) 
-7.2300000000000004

>  <m_primary>  (51) 
energy

$$$$
51:0
     RDKit          3D

 38 39  0  0  0  0  0  0  0  0999 V2000
  141.4470  149.1990  131.9570 C   0  0  0  0  0  0  0  0  0  0  0  0
  140.9630  150.5850  131.9420 N   0  0  0  0  0  0  0  0  0  0  0  0
  139.5250  150.6190  132.2350 C   0  0  0  0  0  0  0  0  0  0  0  0
  141.8360  151.5260  133.1290 S   0  0  0  0  0  0  0  0  0  0  0  0
  141.1750  151.4030  134.4730 O   0  0  0  0  0  0  0  0  0  0  0  0
  143.2520  151.0290  133.2340 O   0  0  0  0  0  0  0  0  0  0  0  0
  141.8760  153.2450  132.6470 C   0  0  0  0  0  0  0  0  0  0  0  0
  140.6940  153.9740  133.2160 C   0  0  0  0  0  0  0  0  0  0  0  0
  139.5290  153.5610  132.9750 O   0  0  0  0  0  0  0  0  0  0  0  0
  140.8810  155.1160  134.0640 N   0  0  0  0  0  0  0  0  0  0  0  0
  141.5150  155.1710  135.2700 C   0  0  0  0  0  0  0  0  0  0  0  0
  142.1510  154.0330  135.9740 C   0  0  0  0  0  0  0  0  0  0  0  0
  143.2260  153.3060  135.3880 N   0  0  0  0  0  0  0  0  0  0  0  0
  141.7450  153.7090  137.1220 O   0  0  0  0  0  0  0  0  0  0  0  0
  141.5310  156.4790  135.7490 C   0  0  0  0  0  0  0  0  0  0  0  0
  140.8720  157.2250  134.8000 C   0  0  0  0  0  0  0  0  0  0  0  0
  140.5790  158.5850  134.7740 C   0  0  0  0  0  0  0  0  0  0  0  0
  139.8530  159.0810  133.6770 C   0  0  0  0  0  0  0  0  0  0  0  0
  139.4470  158.2190  132.6260 C   0  0  0  0  0  0  0  0  0  0  0  0
  138.6040  158.7450  131.4930 C   0  0  0  0  0  0  0  0  0  0  0  0
  139.0120  160.0290  131.1780 F   0  0  0  0  0  0  0  0  0  0  0  0
  137.2680  158.7720  131.8520 F   0  0  0  0  0  0  0  0  0  0  0  0
  138.7340  157.9460  130.3700 F   0  0  0  0  0  0  0  0  0  0  0  0
  139.7500  156.8400  132.7010 C   0  0  0  0  0  0  0  0  0  0  0  0
  140.4860  156.3800  133.7960 C   0  0  0  0  0  0  0  0  0  0  0  0
  141.5644  148.8629  132.9978 H   0  0  0  0  0  0  0  0  0  0  0  0
  140.7217  148.5517  131.4422 H   0  0  0  0  0  0  0  0  0  0  0  0
  142.4176  149.1440  131.4422 H   0  0  0  0  0  0  0  0  0  0  0  0
  139.3728  150.6226  133.3244 H   0  0  0  0  0  0  0  0  0  0  0  0
  139.0836  151.5278  131.8001 H   0  0  0  0  0  0  0  0  0  0  0  0
  139.0411  149.7320  131.8001 H   0  0  0  0  0  0  0  0  0  0  0  0
  142.8015  153.7056  133.0228 H   0  0  0  0  0  0  0  0  0  0  0  0
  141.8412  153.3094  131.5494 H   0  0  0  0  0  0  0  0  0  0  0  0
  143.0580  152.4020  134.8940 H   0  0  0  0  0  0  0  0  0  0  0  0
  141.9766  156.8391  136.6880 H   0  0  0  0  0  0  0  0  0  0  0  0
  140.9052  159.2512  135.5863 H   0  0  0  0  0  0  0  0  0  0  0  0
  139.5968  160.1498  133.6331 H   0  0  0  0  0  0  0  0  0  0  0  0
  139.4144  156.1460  131.9163 H   0  0  0  0  0  0  0  0  0  0  0  0
  1  2  1  0
  2  3  1  0
  2  4  1  0
  4  5  2  0
  4  6  2  0
  4  7  1  0
  7  8  1  0
  8  9  2  0
  8 10  1  0
 10 11  1  0
 11 12  1  0
 12 13  1  0
 12 14  2  0
 11 15  2  0
 15 16  1  0
 16 17  2  0
 17 18  1  0
 18 19  2  0
 19 20  1  0
 20 21  1  0
 20 22  1  0
 20 23  1  0
 19 24  1  0
 24 25  2  0
 25 10  1  0
 25 16  1  0
  1 26  1  0
  1 27  1  0
  1 28  1  0
  3 29  1  0
  3 30  1  0
  3 31  1  0
  7 32  1  0
  7 33  1  0
 13 34  1  0
 15 35  1  0
 17 36  1  0
 18 37  1  0
 24 38  1  0
M  CHG  1  13  -1
M  END
>  <UniqueID>  (52) 
50

>  <SMILES>  (52) 
CN(C)S(=O)(=O)CC(=O)n1c(C([NH-])=O)cc2ccc(C(F)(F)F)cc21

>  <Energy>  (52) 
68.7344685591165

>  <Genealogy>  (52) 
CN(C)S(=O)(=O)CC(=O)n1c(C([NH-])=O)cc2ccc(C(F)(F)F)cc21 (protonated)
CN(C)S(=O)(=O)CC(=O)n1c(C([NH-])=O)cc2ccc(C(F)(F)F)cc21 (3D coordinates assigned)
CN(C)S(=O)(=O)CC(=O)n1c(C([NH-])=O)cc2ccc(C(F)(F)F)cc21 (optimized conformer: 68.7344685591165 kcal/mol)

>  <smiles>  (52) 
CN(C)S(=O)(=O)CC(=O)n1c(C(N)=O)cc2ccc(C(F)(F)F)cc21

>  <score_type>  (52) 
oracle

>  <origin>  (52) 
adg

>  <m_score__min__energy>  (52) 
-6.5899999999999999

>  <m_primary>  (52) 
energy

$$$$
52:0
     RDKit          3D

 39 40  0  0  0  0  0  0  0  0999 V2000
  139.8720  157.5170  136.8370 C   0  0  0  0  0  0  0  0  0  0  0  0
  140.7220  158.1390  135.7090 C   0  0  0  0  0  0  0  0  0  0  0  0
  141.3230  159.4690  136.2160 C   0  0  0  0  0  0  0  0  0  0  0  0
  141.8510  157.1660  135.3050 C   0  0  0  0  0  0  0  0  0  0  0  0
  143.0630  157.8740  135.0530 O   0  0  0  0  0  0  0  0  0  0  0  0
  143.4500  158.2800  133.7730 C   0  0  0  0  0  0  0  0  0  0  0  0
  142.6970  158.0720  132.7830 O   0  0  0  0  0  0  0  0  0  0  0  0
  144.7220  158.9170  133.5850 N   0  0  0  0  0  0  0  0  0  0  0  0
  144.9980  160.2500  133.6460 C   0  0  0  0  0  0  0  0  0  0  0  0
  144.0010  161.3370  133.7320 C   0  0  0  0  0  0  0  0  0  0  0  0
  142.6070  161.0560  133.6510 N   0  0  0  0  0  0  0  0  0  0  0  0
  144.3860  162.5320  133.8280 O   0  0  0  0  0  0  0  0  0  0  0  0
  146.3680  160.4730  133.5290 C   0  0  0  0  0  0  0  0  0  0  0  0
  146.9280  159.2240  133.3840 C   0  0  0  0  0  0  0  0  0  0  0  0
  148.2600  158.8530  133.2270 C   0  0  0  0  0  0  0  0  0  0  0  0
  148.5540  157.4830  133.1240 C   0  0  0  0  0  0  0  0  0  0  0  0
  147.5240  156.5100  133.2040 C   0  0  0  0  0  0  0  0  0  0  0  0
  147.8480  155.0460  133.0530 C   0  0  0  0  0  0  0  0  0  0  0  0
  146.7850  154.3650  132.4870 F   0  0  0  0  0  0  0  0  0  0  0  0
  148.9560  154.8720  132.2410 F   0  0  0  0  0  0  0  0  0  0  0  0
  148.1150  154.5080  134.2990 F   0  0  0  0  0  0  0  0  0  0  0  0
  146.1790  156.9300  133.3390 C   0  0  0  0  0  0  0  0  0  0  0  0
  145.9140  158.3020  133.4220 C   0  0  0  0  0  0  0  0  0  0  0  0
  139.8560  158.3980  134.4910 C   0  0  0  0  0  0  0  0  0  0  0  0
  138.7720  157.7750  134.3340 O   0  0  0  0  0  0  0  0  0  0  0  0
  140.2000  159.3880  133.5750 O   0  0  0  0  0  0  0  0  0  0  0  0
  140.2818  157.8169  137.8128 H   0  0  0  0  0  0  0  0  0  0  0  0
  138.8338  157.8702  136.7511 H   0  0  0  0  0  0  0  0  0  0  0  0
  139.8946  156.4206  136.7511 H   0  0  0  0  0  0  0  0  0  0  0  0
  141.3255  159.4745  137.3160 H   0  0  0  0  0  0  0  0  0  0  0  0
  142.3542  159.5698  135.8465 H   0  0  0  0  0  0  0  0  0  0  0  0
  140.7172  160.3095  135.8465 H   0  0  0  0  0  0  0  0  0  0  0  0
  142.0163  156.4467  136.1206 H   0  0  0  0  0  0  0  0  0  0  0  0
  141.5518  156.6405  134.3861 H   0  0  0  0  0  0  0  0  0  0  0  0
  142.2620  160.0770  133.5310 H   0  0  0  0  0  0  0  0  0  0  0  0
  146.8907  161.4407  133.5484 H   0  0  0  0  0  0  0  0  0  0  0  0
  149.0580  159.6089  133.1849 H   0  0  0  0  0  0  0  0  0  0  0  0
  149.5957  157.1605  132.9795 H   0  0  0  0  0  0  0  0  0  0  0  0
  145.3611  156.1954  133.3778 H   0  0  0  0  0  0  0  0  0  0  0  0
  1  2  1  0
  2  3  1  0
  2  4  1  0
  4  5  1  0
  5  6  1  0
  6  7  2  0
  6  8  1  0
  8  9  1  0
  9 10  1  0
 10 11  1  0
 10 12  2  0
  9 13  2  0
 13 14  1  0
 14 15  2  0
 15 16  1  0
 16 17  2  0
 17 18  1  0
 18 19  1  0
 18 20  1  0
 18 21  1  0
 17 22  1  0
 22 23  2  0
  2 24  1  0
 24 25  2  0
 24 26  1  0
 23  8  1  0
 23 14  1  0
  1 27  1  0
  1 28  1  0
  1 29  1  0
  3 30  1  0
  3 31  1  0
  3 32  1  0
  4 33  1  0
  4 34  1  0
 11 35  1  0
 13 36  1  0
 15 37  1  0
 16 38  1  0
 22 39  1  0
M  CHG  2  11  -1  26  -1
M  END
>  <UniqueID>  (53) 
51

>  <SMILES>  (53) 
CC(C)(COC(=O)n1c(C([NH-])=O)cc2ccc(C(F)(F)F)cc21)C(=O)[O-]

>  <Energy>  (53) 
73.55977578720827

>  <Genealogy>  (53) 
CC(C)(COC(=O)n1c(C([NH-])=O)cc2ccc(C(F)(F)F)cc21)C(=O)[O-] (protonated)
CC(C)(COC(=O)n1c(C([NH-])=O)cc2ccc(C(F)(F)F)cc21)C(=O)[O-] (3D coordinates assigned)
CC(C)(COC(=O)n1c(C([NH-])=O)cc2ccc(C(F)(F)F)cc21)C(=O)[O-] (optimized conformer: 73.55977578720827 kcal/mol)

>  <smiles>  (53) 
CC(C)(COC(=O)n1c(C(N)=O)cc2ccc(C(F)(F)F)cc21)C(=O)O

>  <score_type>  (53) 
oracle

>  <origin>  (53) 
adg

>  <m_score__min__energy>  (53) 
-6.5700000000000003

>  <m_primary>  (53) 
energy

$$$$
53:0
     RDKit          3D

 33 34  0  0  0  0  0  0  0  0999 V2000
  149.2640  161.6780  130.3970 C   0  0  0  0  0  0  0  0  0  0  0  0
  149.6060  160.4010  130.2060 C   0  0  0  0  0  0  0  0  0  0  0  0
  149.5870  159.4110  131.3310 C   0  0  0  0  0  0  0  0  0  0  0  0
  148.2970  159.4030  131.9340 O   0  0  0  0  0  0  0  0  0  0  0  0
  148.0160  158.7040  133.1110 C   0  0  0  0  0  0  0  0  0  0  0  0
  148.7110  158.9010  134.1470 O   0  0  0  0  0  0  0  0  0  0  0  0
  146.9370  157.7550  133.1400 N   0  0  0  0  0  0  0  0  0  0  0  0
  145.6180  158.0060  133.3770 C   0  0  0  0  0  0  0  0  0  0  0  0
  144.9970  159.3400  133.4950 C   0  0  0  0  0  0  0  0  0  0  0  0
  145.5870  160.4880  132.8820 N   0  0  0  0  0  0  0  0  0  0  0  0
  143.8990  159.4600  134.1000 O   0  0  0  0  0  0  0  0  0  0  0  0
  144.8960  156.8170  133.4440 C   0  0  0  0  0  0  0  0  0  0  0  0
  145.8190  155.8200  133.2250 C   0  0  0  0  0  0  0  0  0  0  0  0
  145.6490  154.4400  133.1830 C   0  0  0  0  0  0  0  0  0  0  0  0
  146.7840  153.6420  132.9680 C   0  0  0  0  0  0  0  0  0  0  0  0
  148.0680  154.2290  132.8260 C   0  0  0  0  0  0  0  0  0  0  0  0
  149.2740  153.3660  132.5580 C   0  0  0  0  0  0  0  0  0  0  0  0
  149.0400  152.5180  131.4880 F   0  0  0  0  0  0  0  0  0  0  0  0
  150.3560  154.1740  132.2660 F   0  0  0  0  0  0  0  0  0  0  0  0
  149.5760  152.5910  133.6650 F   0  0  0  0  0  0  0  0  0  0  0  0
  148.1960  155.6380  132.8530 C   0  0  0  0  0  0  0  0  0  0  0  0
  147.0430  156.4100  133.0470 C   0  0  0  0  0  0  0  0  0  0  0  0
  149.2862  162.3852  129.5548 H   0  0  0  0  0  0  0  0  0  0  0  0
  148.9602  162.0224  131.3965 H   0  0  0  0  0  0  0  0  0  0  0  0
  149.9080  160.0690  129.2017 H   0  0  0  0  0  0  0  0  0  0  0  0
  149.8157  158.4082  130.9410 H   0  0  0  0  0  0  0  0  0  0  0  0
  150.3407  159.6933  132.0808 H   0  0  0  0  0  0  0  0  0  0  0  0
  146.4000  160.3940  132.2340 H   0  0  0  0  0  0  0  0  0  0  0  0
  145.1550  161.4290  133.0090 H   0  0  0  0  0  0  0  0  0  0  0  0
  143.8185  156.6998  133.6318 H   0  0  0  0  0  0  0  0  0  0  0  0
  144.6550  153.9875  133.3143 H   0  0  0  0  0  0  0  0  0  0  0  0
  146.6766  152.5489  132.9089 H   0  0  0  0  0  0  0  0  0  0  0  0
  149.1782  156.1162  132.7246 H   0  0  0  0  0  0  0  0  0  0  0  0
  1  2  2  0
  2  3  1  0
  3  4  1  0
  4  5  1  0
  5  6  2  0
  5  7  1  0
  7  8  1  0
  8  9  1  0
  9 10  1  0
  9 11  2  0
  8 12  2  0
 12 13  1  0
 13 14  2  0
 14 15  1  0
 15 16  2  0
 16 17  1  0
 17 18  1  0
 17 19  1  0
 17 20  1  0
 16 21  1  0
 21 22  2  0
 22  7  1  0
 22 13  1  0
  1 23  1  0
  1 24  1  0
  2 25  1  0
  3 26  1  0
  3 27  1  0
 10 28  1  0
 10 29  1  0
 12 30  1  0
 14 31  1  0
 15 32  1  0
 21 33  1  0
M  END
>  <UniqueID>  (54) 
52

>  <SMILES>  (54) 
C=CCOC(=O)n1c(C(N)=O)cc2ccc(C(F)(F)F)cc21

>  <Energy>  (54) 
67.82028403869158

>  <Genealogy>  (54) 
C=CCOC(=O)n1c(C(N)=O)cc2ccc(C(F)(F)F)cc21 (3D coordinates assigned)
C=CCOC(=O)n1c(C(N)=O)cc2ccc(C(F)(F)F)cc21 (optimized conformer: 67.82028403869158 kcal/mol)

>  <smiles>  (54) 
C=CCOC(=O)n1c(C(N)=O)cc2ccc(C(F)(F)F)cc21

>  <score_type>  (54) 
oracle

>  <origin>  (54) 
adg

>  <m_score__min__energy>  (54) 
-6.46

>  <m_primary>  (54) 
energy

$$$$
54:0
     RDKit          3D

 49 51  0  0  0  0  0  0  0  0999 V2000
  139.1170  146.6960  129.7850 C   0  0  0  0  0  0  0  0  0  0  0  0
  139.2820  147.8450  130.6670 N   0  0  0  0  0  0  0  0  0  0  0  0
  140.4460  148.4480  130.9710 C   0  0  0  0  0  0  0  0  0  0  0  0
  140.1650  149.5700  131.7380 C   0  0  0  0  0  0  0  0  0  0  0  0
  141.1310  150.5560  132.2820 C   0  0  0  0  0  0  0  0  0  0  0  0
  142.4910  150.1970  132.4720 C   0  0  0  0  0  0  0  0  0  0  0  0
  143.4140  151.1240  132.9800 C   0  0  0  0  0  0  0  0  0  0  0  0
  142.9560  152.4000  133.2910 C   0  0  0  0  0  0  0  0  0  0  0  0
  143.6460  153.4920  133.7640 C   0  0  0  0  0  0  0  0  0  0  0  0
  142.6980  154.5070  133.8680 C   0  0  0  0  0  0  0  0  0  0  0  0
  142.9980  155.8420  134.4230 C   0  0  0  0  0  0  0  0  0  0  0  0
  142.1510  156.4310  135.4070 N   0  0  0  0  0  0  0  0  0  0  0  0
  144.0460  156.4460  134.0660 O   0  0  0  0  0  0  0  0  0  0  0  0
  141.4710  154.0650  133.4660 N   0  0  0  0  0  0  0  0  0  0  0  0
  140.2820  154.8490  133.2800 C   0  0  0  0  0  0  0  0  0  0  0  0
  139.1930  154.2860  132.9830 O   0  0  0  0  0  0  0  0  0  0  0  0
  140.3440  156.2420  133.4070 O   0  0  0  0  0  0  0  0  0  0  0  0
  139.5570  157.1360  132.6250 C   0  0  0  0  0  0  0  0  0  0  0  0
  139.3460  158.4180  133.3640 C   0  0  0  0  0  0  0  0  0  0  0  0
  138.6990  159.3560  132.8230 O   0  0  0  0  0  0  0  0  0  0  0  0
  139.8360  158.5440  134.6700 O   0  0  0  0  0  0  0  0  0  0  0  0
  139.2660  157.8770  135.7930 C   0  0  0  0  0  0  0  0  0  0  0  0
  140.1150  158.0810  137.0510 C   0  0  0  0  0  0  0  0  0  0  0  0
  141.0680  159.2730  136.9100 C   0  0  0  0  0  0  0  0  0  0  0  0
  142.0400  159.0070  135.9360 O   0  0  0  0  0  0  0  0  0  0  0  0
  141.6470  152.7670  133.1240 C   0  0  0  0  0  0  0  0  0  0  0  0
  140.7060  151.8650  132.6100 C   0  0  0  0  0  0  0  0  0  0  0  0
  138.7820  149.5900  131.8530 C   0  0  0  0  0  0  0  0  0  0  0  0
  138.2810  148.5320  131.1890 N   0  0  0  0  0  0  0  0  0  0  0  0
  138.9863  145.7859  130.3889 H   0  0  0  0  0  0  0  0  0  0  0  0
  138.2311  146.8452  129.1503 H   0  0  0  0  0  0  0  0  0  0  0  0
  140.0091  146.5899  129.1503 H   0  0  0  0  0  0  0  0  0  0  0  0
  141.4470  148.1101  130.6646 H   0  0  0  0  0  0  0  0  0  0  0  0
  142.8254  149.1803  132.2181 H   0  0  0  0  0  0  0  0  0  0  0  0
  144.4689  150.8495  133.1279 H   0  0  0  0  0  0  0  0  0  0  0  0
  144.7170  153.5509  134.0079 H   0  0  0  0  0  0  0  0  0  0  0  0
  141.3740  157.0730  135.1310 H   0  0  0  0  0  0  0  0  0  0  0  0
  140.0761  157.3437  131.6777 H   0  0  0  0  0  0  0  0  0  0  0  0
  138.5800  156.6724  132.4236 H   0  0  0  0  0  0  0  0  0  0  0  0
  138.2570  158.2765  135.9729 H   0  0  0  0  0  0  0  0  0  0  0  0
  139.2245  156.8000  135.5729 H   0  0  0  0  0  0  0  0  0  0  0  0
  139.4465  158.2593  137.9062 H   0  0  0  0  0  0  0  0  0  0  0  0
  140.7213  157.1759  137.2037 H   0  0  0  0  0  0  0  0  0  0  0  0
  140.4936  160.1637  136.6155 H   0  0  0  0  0  0  0  0  0  0  0  0
  141.5670  159.4478  137.8746 H   0  0  0  0  0  0  0  0  0  0  0  0
  141.7960  158.1400  135.5210 H   0  0  0  0  0  0  0  0  0  0  0  0
  139.6587  152.1683  132.4645 H   0  0  0  0  0  0  0  0  0  0  0  0
  138.1938  150.3444  132.3960 H   0  0  0  0  0  0  0  0  0  0  0  0
  137.2680  148.2990  131.0770 H   0  0  0  0  0  0  0  0  0  0  0  0
  1  2  1  0
  2  3  1  0
  3  4  2  0
  4  5  1  0
  5  6  2  0
  6  7  1  0
  7  8  2  0
  8  9  1  0
  9 10  2  0
 10 11  1  0
 11 12  1  0
 11 13  2  0
 10 14  1  0
 14 15  1  0
 15 16  2  0
 15 17  1  0
 17 18  1  0
 18 19  1  0
 19 20  2  0
 19 21  1  0
 21 22  1  0
 22 23  1  0
 23 24  1  0
 24 25  1  0
 14 26  1  0
 26 27  2  0
  4 28  1  0
 28 29  2  0
 29  2  1  0
 27  5  1  0
 26  8  1  0
  1 30  1  0
  1 31  1  0
  1 32  1  0
  3 33  1  0
  6 34  1  0
  7 35  1  0
  9 36  1  0
 12 37  1  0
 18 38  1  0
 18 39  1  0
 22 40  1  0
 22 41  1  0
 23 42  1  0
 23 43  1  0
 24 44  1  0
 24 45  1  0
 25 46  1  0
 27 47  1  0
 28 48  1  0
 29 49  1  0
M  CHG  2  12  -1  29   1
M  END
>  <UniqueID>  (55) 
53

>  <SMILES>  (55) 
Cn1cc(-c2ccc3cc(C([NH-])=O)n(C(=O)OCC(=O)OCCCO)c3c2)c[nH+]1

>  <Energy>  (55) 
110.5825105658197

>  <Genealogy>  (55) 
Cn1cc(-c2ccc3cc(C([NH-])=O)n(C(=O)OCC(=O)OCCCO)c3c2)c[nH+]1 (protonated)
Cn1cc(-c2ccc3cc(C([NH-])=O)n(C(=O)OCC(=O)OCCCO)c3c2)c[nH+]1 (3D coordinates assigned)
Cn1cc(-c2ccc3cc(C([NH-])=O)n(C(=O)OCC(=O)OCCCO)c3c2)c[nH+]1 (optimized conformer: 110.5825105658197 kcal/mol)

>  <smiles>  (55) 
Cn1cc(-c2ccc3cc(C(N)=O)n(C(=O)OCC(=O)OCCCO)c3c2)cn1

>  <score_type>  (55) 
oracle

>  <origin>  (55) 
adg

>  <m_score__min__energy>  (55) 
-7.0300000000000002

>  <m_primary>  (55) 
energy

$$$$
55:0
     RDKit          3D

 49 51  0  0  0  0  0  0  0  0999 V2000
  148.7600  158.2870  131.4690 N   0  0  0  0  0  0  0  0  0  0  0  0
  148.3110  158.9120  132.6690 C   0  0  0  0  0  0  0  0  0  0  0  0
  149.1590  159.3990  133.4640 O   0  0  0  0  0  0  0  0  0  0  0  0
  146.8760  158.9460  133.0200 C   0  0  0  0  0  0  0  0  0  0  0  0
  146.1740  160.1270  133.2550 C   0  0  0  0  0  0  0  0  0  0  0  0
  144.9160  159.7330  133.6500 C   0  0  0  0  0  0  0  0  0  0  0  0
  143.8130  160.4950  134.0240 C   0  0  0  0  0  0  0  0  0  0  0  0
  142.6350  159.8170  134.3840 C   0  0  0  0  0  0  0  0  0  0  0  0
  142.5760  158.4020  134.3420 C   0  0  0  0  0  0  0  0  0  0  0  0
  141.3270  157.6740  134.7550 C   0  0  0  0  0  0  0  0  0  0  0  0
  140.6990  156.9590  133.5540 C   0  0  0  0  0  0  0  0  0  0  0  0
  139.3820  157.4310  133.3340 O   0  0  0  0  0  0  0  0  0  0  0  0
  139.2420  157.9860  132.0360 C   0  0  0  0  0  0  0  0  0  0  0  0
  140.3460  159.0410  131.8250 C   0  0  0  0  0  0  0  0  0  0  0  0
  139.8440  160.4400  132.2140 C   0  0  0  0  0  0  0  0  0  0  0  0
  138.7290  160.8920  131.4520 O   0  0  0  0  0  0  0  0  0  0  0  0
  137.8910  159.8480  130.9660 C   0  0  0  0  0  0  0  0  0  0  0  0
  137.8400  158.6150  131.8820 C   0  0  0  0  0  0  0  0  0  0  0  0
  143.7170  157.6640  133.9590 C   0  0  0  0  0  0  0  0  0  0  0  0
  144.8850  158.3620  133.6350 C   0  0  0  0  0  0  0  0  0  0  0  0
  146.0790  157.8630  133.2500 N   0  0  0  0  0  0  0  0  0  0  0  0
  146.3980  156.4720  133.0780 C   0  0  0  0  0  0  0  0  0  0  0  0
  146.8330  156.0550  131.9700 O   0  0  0  0  0  0  0  0  0  0  0  0
  146.1870  155.5810  134.1350 O   0  0  0  0  0  0  0  0  0  0  0  0
  147.2480  154.9190  134.8140 C   0  0  0  0  0  0  0  0  0  0  0  0
  147.9270  153.9380  133.8680 C   0  0  0  0  0  0  0  0  0  0  0  0
  148.8710  154.6000  133.1030 F   0  0  0  0  0  0  0  0  0  0  0  0
  146.9870  153.3630  133.0330 F   0  0  0  0  0  0  0  0  0  0  0  0
  148.5510  152.9440  134.5990 F   0  0  0  0  0  0  0  0  0  0  0  0
  148.3210  157.4030  131.1280 H   0  0  0  0  0  0  0  0  0  0  0  0
  146.5467  161.1563  133.1475 H   0  0  0  0  0  0  0  0  0  0  0  0
  143.8614  161.5938  134.0375 H   0  0  0  0  0  0  0  0  0  0  0  0
  141.7513  160.3902  134.7011 H   0  0  0  0  0  0  0  0  0  0  0  0
  141.5793  156.9317  135.5265 H   0  0  0  0  0  0  0  0  0  0  0  0
  140.6053  158.4034  135.1513 H   0  0  0  0  0  0  0  0  0  0  0  0
  141.3077  157.1515  132.6582 H   0  0  0  0  0  0  0  0  0  0  0  0
  140.6621  155.8791  133.7599 H   0  0  0  0  0  0  0  0  0  0  0  0
  139.3464  157.1994  131.2742 H   0  0  0  0  0  0  0  0  0  0  0  0
  141.2151  158.7834  132.4481 H   0  0  0  0  0  0  0  0  0  0  0  0
  140.6271  159.0499  130.7615 H   0  0  0  0  0  0  0  0  0  0  0  0
  139.5518  160.4194  133.2743 H   0  0  0  0  0  0  0  0  0  0  0  0
  140.6689  161.1394  132.0133 H   0  0  0  0  0  0  0  0  0  0  0  0
  136.8701  160.2438  130.8603 H   0  0  0  0  0  0  0  0  0  0  0  0
  138.3161  159.5168  130.0070 H   0  0  0  0  0  0  0  0  0  0  0  0
  137.4698  158.9172  132.8728 H   0  0  0  0  0  0  0  0  0  0  0  0
  137.1674  157.8699  131.4321 H   0  0  0  0  0  0  0  0  0  0  0  0
  143.6881  156.5652  133.9164 H   0  0  0  0  0  0  0  0  0  0  0  0
  147.9818  155.6623  135.1590 H   0  0  0  0  0  0  0  0  0  0  0  0
  146.8433  154.3721  135.6783 H   0  0  0  0  0  0  0  0  0  0  0  0
  1  2  1  0
  2  3  2  0
  2  4  1  0
  4  5  2  0
  5  6  1  0
  6  7  2  0
  7  8  1  0
  8  9  2  0
  9 10  1  0
 10 11  1  0
 11 12  1  0
 12 13  1  0
 13 14  1  0
 14 15  1  0
 15 16  1  0
 16 17  1  0
 17 18  1  0
  9 19  1  0
 19 20  2  0
 20 21  1  0
 21 22  1  0
 22 23  2  0
 22 24  1  0
 24 25  1  0
 25 26  1  0
 26 27  1  0
 26 28  1  0
 26 29  1  0
 21  4  1  0
 20  6  1  0
 18 13  1  0
  1 30  1  0
  5 31  1  0
  7 32  1  0
  8 33  1  0
 10 34  1  0
 10 35  1  0
 11 36  1  0
 11 37  1  0
 13 38  1  0
 14 39  1  0
 14 40  1  0
 15 41  1  0
 15 42  1  0
 17 43  1  0
 17 44  1  0
 18 45  1  0
 18 46  1  0
 19 47  1  0
 25 48  1  0
 25 49  1  0
M  CHG  1   1  -1
M  END
>  <UniqueID>  (56) 
54

>  <SMILES>  (56) 
[NH-]C(=O)c1cc2ccc(CCOC3CCOCC3)cc2n1C(=O)OCC(F)(F)F

>  <Energy>  (56) 
93.82734695230273

>  <Genealogy>  (56) 
[NH-]C(=O)c1cc2ccc(CCOC3CCOCC3)cc2n1C(=O)OCC(F)(F)F (protonated)
[NH-]C(=O)c1cc2ccc(CCOC3CCOCC3)cc2n1C(=O)OCC(F)(F)F (3D coordinates assigned)
[NH-]C(=O)c1cc2ccc(CCOC3CCOCC3)cc2n1C(=O)OCC(F)(F)F (nonaromatic ring conformer: 93.82734695230273 kcal/mol)

>  <smiles>  (56) 
NC(=O)c1cc2ccc(CCOC3CCOCC3)cc2n1C(=O)OCC(F)(F)F

>  <score_type>  (56) 
oracle

>  <origin>  (56) 
adg

>  <m_score__min__energy>  (56) 
-7.4699999999999998

>  <m_primary>  (56) 
energy

$$$$
56:0
     RDKit          3D

 38 39  0  0  0  0  0  0  0  0999 V2000
  148.9230  160.3730  130.9940 C   0  0  0  0  0  0  0  0  0  0  0  0
  148.8990  159.0270  131.7100 C   0  0  0  0  0  0  0  0  0  0  0  0
  148.1320  159.1260  132.9960 C   0  0  0  0  0  0  0  0  0  0  0  0
  148.5140  159.9280  133.8890 O   0  0  0  0  0  0  0  0  0  0  0  0
  146.9900  158.2890  133.2300 N   0  0  0  0  0  0  0  0  0  0  0  0
  145.7030  158.6770  133.4620 C   0  0  0  0  0  0  0  0  0  0  0  0
  145.2280  160.0700  133.6090 C   0  0  0  0  0  0  0  0  0  0  0  0
  146.1450  161.1500  133.7570 N   0  0  0  0  0  0  0  0  0  0  0  0
  143.9910  160.3070  133.6260 O   0  0  0  0  0  0  0  0  0  0  0  0
  144.8770  157.5620  133.5910 C   0  0  0  0  0  0  0  0  0  0  0  0
  145.7030  156.4730  133.4280 C   0  0  0  0  0  0  0  0  0  0  0  0
  145.4090  155.1120  133.4470 C   0  0  0  0  0  0  0  0  0  0  0  0
  146.4620  154.2080  133.2220 C   0  0  0  0  0  0  0  0  0  0  0  0
  147.7760  154.6770  132.9730 C   0  0  0  0  0  0  0  0  0  0  0  0
  148.9030  153.7010  132.7460 C   0  0  0  0  0  0  0  0  0  0  0  0
  148.3940  152.3190  132.3200 C   0  0  0  0  0  0  0  0  0  0  0  0
  149.5250  151.0040  132.7650 S   0  0  0  0  0  0  0  0  0  0  0  0
  149.2440  150.5520  134.4090 N   0  0  0  0  0  0  0  0  0  0  0  0
  149.2990  149.8120  131.8760 O   0  0  0  0  0  0  0  0  0  0  0  0
  150.9440  151.4760  132.6170 O   0  0  0  0  0  0  0  0  0  0  0  0
  148.0340  156.0660  132.9580 C   0  0  0  0  0  0  0  0  0  0  0  0
  146.9720  156.9400  133.2070 C   0  0  0  0  0  0  0  0  0  0  0  0
  148.9375  161.1836  131.7375 H   0  0  0  0  0  0  0  0  0  0  0  0
  149.8224  160.4372  130.3640 H   0  0  0  0  0  0  0  0  0  0  0  0
  148.0264  160.4692  130.3640 H   0  0  0  0  0  0  0  0  0  0  0  0
  148.4197  158.2803  131.0599 H   0  0  0  0  0  0  0  0  0  0  0  0
  149.9330  158.7273  131.9361 H   0  0  0  0  0  0  0  0  0  0  0  0
  146.9560  161.2600  133.1090 H   0  0  0  0  0  0  0  0  0  0  0  0
  143.7938  157.5539  133.7826 H   0  0  0  0  0  0  0  0  0  0  0  0
  144.3850  154.7554  133.6323 H   0  0  0  0  0  0  0  0  0  0  0  0
  146.2641  153.1261  133.2394 H   0  0  0  0  0  0  0  0  0  0  0  0
  149.5599  154.0955  131.9568 H   0  0  0  0  0  0  0  0  0  0  0  0
  149.4451  153.5836  133.6959 H   0  0  0  0  0  0  0  0  0  0  0  0
  147.4267  152.1331  132.8097 H   0  0  0  0  0  0  0  0  0  0  0  0
  148.2989  152.3212  131.2241 H   0  0  0  0  0  0  0  0  0  0  0  0
  148.4700  149.8500  134.4050 H   0  0  0  0  0  0  0  0  0  0  0  0
  148.8800  151.3990  134.9010 H   0  0  0  0  0  0  0  0  0  0  0  0
  149.0448  156.4498  132.7555 H   0  0  0  0  0  0  0  0  0  0  0  0
  1  2  1  0
  2  3  1  0
  3  4  2  0
  3  5  1  0
  5  6  1  0
  6  7  1  0
  7  8  1  0
  7  9  2  0
  6 10  2  0
 10 11  1  0
 11 12  2  0
 12 13  1  0
 13 14  2  0
 14 15  1  0
 15 16  1  0
 16 17  1  0
 17 18  1  0
 17 19  2  0
 17 20  2  0
 14 21  1  0
 21 22  2  0
 22  5  1  0
 22 11  1  0
  1 23  1  0
  1 24  1  0
  1 25  1  0
  2 26  1  0
  2 27  1  0
  8 28  1  0
 10 29  1  0
 12 30  1  0
 13 31  1  0
 15 32  1  0
 15 33  1  0
 16 34  1  0
 16 35  1  0
 18 36  1  0
 18 37  1  0
 21 38  1  0
M  CHG  1   8  -1
M  END
>  <UniqueID>  (57) 
55

>  <SMILES>  (57) 
CCC(=O)n1c(C([NH-])=O)cc2ccc(CCS(N)(=O)=O)cc21

>  <Energy>  (57) 
65.61667866294945

>  <Genealogy>  (57) 
CCC(=O)n1c(C([NH-])=O)cc2ccc(CCS(N)(=O)=O)cc21 (protonated)
CCC(=O)n1c(C([NH-])=O)cc2ccc(CCS(N)(=O)=O)cc21 (3D coordinates assigned)
CCC(=O)n1c(C([NH-])=O)cc2ccc(CCS(N)(=O)=O)cc21 (optimized conformer: 65.61667866294945 kcal/mol)

>  <smiles>  (57) 
CCC(=O)n1c(C(N)=O)cc2ccc(CCS(N)(=O)=O)cc21

>  <score_type>  (57) 
oracle

>  <origin>  (57) 
adg

>  <m_score__min__energy>  (57) 
-8.0299999999999994

>  <m_primary>  (57) 
energy

$$$$
57:0
     RDKit          3D

 53 54  0  0  0  0  0  0  0  0999 V2000
  148.0530  152.6800  137.8310 C   0  0  0  0  0  0  0  0  0  0  0  0
  147.0770  153.0220  136.8550 O   0  0  0  0  0  0  0  0  0  0  0  0
  147.2180  154.1170  135.9950 C   0  0  0  0  0  0  0  0  0  0  0  0
  148.0080  155.0550  136.2950 O   0  0  0  0  0  0  0  0  0  0  0  0
  146.4620  154.1750  134.7700 N   0  0  0  0  0  0  0  0  0  0  0  0
  145.0020  154.0830  134.8250 C   0  0  0  0  0  0  0  0  0  0  0  0
  147.1530  154.2360  133.4730 C   0  0  0  0  0  0  0  0  0  0  0  0
  146.7660  155.4970  132.6930 C   0  0  0  0  0  0  0  0  0  0  0  0
  147.3030  156.7410  133.3460 C   0  0  0  0  0  0  0  0  0  0  0  0
  148.4280  156.6940  133.9140 O   0  0  0  0  0  0  0  0  0  0  0  0
  146.6000  157.9940  133.2590 N   0  0  0  0  0  0  0  0  0  0  0  0
  147.0960  159.2120  132.8990 C   0  0  0  0  0  0  0  0  0  0  0  0
  148.4350  159.4580  132.3220 C   0  0  0  0  0  0  0  0  0  0  0  0
  149.6040  158.9060  132.9300 N   0  0  0  0  0  0  0  0  0  0  0  0
  148.5570  160.1860  131.3000 O   0  0  0  0  0  0  0  0  0  0  0  0
  146.1070  160.1900  132.9930 C   0  0  0  0  0  0  0  0  0  0  0  0
  144.9760  159.5240  133.4040 C   0  0  0  0  0  0  0  0  0  0  0  0
  143.6880  160.0040  133.6250 C   0  0  0  0  0  0  0  0  0  0  0  0
  142.7030  159.0840  134.0200 C   0  0  0  0  0  0  0  0  0  0  0  0
  143.0160  157.7110  134.1770 C   0  0  0  0  0  0  0  0  0  0  0  0
  141.9460  156.7410  134.6050 C   0  0  0  0  0  0  0  0  0  0  0  0
  142.0480  156.4110  136.0990 C   0  0  0  0  0  0  0  0  0  0  0  0
  140.8300  156.8310  136.8290 N   0  0  0  0  0  0  0  0  0  0  0  0
  140.8960  156.3830  138.2300 C   0  0  0  0  0  0  0  0  0  0  0  0
  140.6700  158.2950  136.7890 C   0  0  0  0  0  0  0  0  0  0  0  0
  144.3370  157.2620  133.9530 C   0  0  0  0  0  0  0  0  0  0  0  0
  145.2980  158.2000  133.5540 C   0  0  0  0  0  0  0  0  0  0  0  0
  147.6329  152.8272  138.8369 H   0  0  0  0  0  0  0  0  0  0  0  0
  148.3435  151.6265  137.7055 H   0  0  0  0  0  0  0  0  0  0  0  0
  148.9376  153.3217  137.7055 H   0  0  0  0  0  0  0  0  0  0  0  0
  144.6752  154.0624  135.8751 H   0  0  0  0  0  0  0  0  0  0  0  0
  144.5604  154.9551  134.3206 H   0  0  0  0  0  0  0  0  0  0  0  0
  144.6734  153.1624  134.3206 H   0  0  0  0  0  0  0  0  0  0  0  0
  148.2393  154.2412  133.6460 H   0  0  0  0  0  0  0  0  0  0  0  0
  146.8567  153.3576  132.8808 H   0  0  0  0  0  0  0  0  0  0  0  0
  147.1735  155.4249  131.6738 H   0  0  0  0  0  0  0  0  0  0  0  0
  145.6683  155.5657  132.6744 H   0  0  0  0  0  0  0  0  0  0  0  0
  149.5360  158.2570  133.7440 H   0  0  0  0  0  0  0  0  0  0  0  0
  150.5480  159.1080  132.5310 H   0  0  0  0  0  0  0  0  0  0  0  0
  146.2093  161.2650  132.7832 H   0  0  0  0  0  0  0  0  0  0  0  0
  143.4494  161.0698  133.4944 H   0  0  0  0  0  0  0  0  0  0  0  0
  141.6773  159.4332  134.2096 H   0  0  0  0  0  0  0  0  0  0  0  0
  140.9601  157.1856  134.4041 H   0  0  0  0  0  0  0  0  0  0  0  0
  142.0797  155.8086  134.0368 H   0  0  0  0  0  0  0  0  0  0  0  0
  142.1800  155.3254  136.2176 H   0  0  0  0  0  0  0  0  0  0  0  0
  142.9073  156.9563  136.5163 H   0  0  0  0  0  0  0  0  0  0  0  0
  140.7686  157.2477  138.8978 H   0  0  0  0  0  0  0  0  0  0  0  0
  140.0958  155.6524  138.4194 H   0  0  0  0  0  0  0  0  0  0  0  0
  141.8729  155.9142  138.4194 H   0  0  0  0  0  0  0  0  0  0  0  0
  140.6271  158.6873  137.8158 H   0  0  0  0  0  0  0  0  0  0  0  0
  141.5245  158.7429  136.2607 H   0  0  0  0  0  0  0  0  0  0  0  0
  139.7389  158.5478  136.2607 H   0  0  0  0  0  0  0  0  0  0  0  0
  144.6038  156.2035  134.0884 H   0  0  0  0  0  0  0  0  0  0  0  0
  1  2  1  0
  2  3  1  0
  3  4  2  0
  3  5  1  0
  5  6  1  0
  5  7  1  0
  7  8  1  0
  8  9  1  0
  9 10  2  0
  9 11  1  0
 11 12  1  0
 12 13  1  0
 13 14  1  0
 13 15  2  0
 12 16  2  0
 16 17  1  0
 17 18  2  0
 18 19  1  0
 19 20  2  0
 20 21  1  0
 21 22  1  0
 22 23  1  0
 23 24  1  0
 23 25  1  0
 20 26  1  0
 26 27  2  0
 27 11  1  0
 27 17  1  0
  1 28  1  0
  1 29  1  0
  1 30  1  0
  6 31  1  0
  6 32  1  0
  6 33  1  0
  7 34  1  0
  7 35  1  0
  8 36  1  0
  8 37  1  0
 14 38  1  0
 14 39  1  0
 16 40  1  0
 18 41  1  0
 19 42  1  0
 21 43  1  0
 21 44  1  0
 22 45  1  0
 22 46  1  0
 24 47  1  0
 24 48  1  0
 24 49  1  0
 25 50  1  0
 25 51  1  0
 25 52  1  0
 26 53  1  0
M  END
>  <UniqueID>  (58) 
56

>  <SMILES>  (58) 
COC(=O)N(C)CCC(=O)n1c(C(N)=O)cc2ccc(CCN(C)C)cc21

>  <Energy>  (58) 
77.79008813044544

>  <Genealogy>  (58) 
COC(=O)N(C)CCC(=O)n1c(C(N)=O)cc2ccc(CCN(C)C)cc21 (3D coordinates assigned)
COC(=O)N(C)CCC(=O)n1c(C(N)=O)cc2ccc(CCN(C)C)cc21 (optimized conformer: 77.79008813044544 kcal/mol)

>  <smiles>  (58) 
COC(=O)N(C)CCC(=O)n1c(C(N)=O)cc2ccc(CCN(C)C)cc21

>  <score_type>  (58) 
oracle

>  <origin>  (58) 
adg

>  <m_score__min__energy>  (58) 
-7.2999999999999998

>  <m_primary>  (58) 
energy

$$$$
58:0
     RDKit          3D

 38 40  0  0  0  0  0  0  0  0999 V2000
  142.7240  160.1570  133.3340 N   0  0  0  0  0  0  0  0  0  0  0  0
  144.0860  160.5120  133.5620 C   0  0  0  0  0  0  0  0  0  0  0  0
  144.3700  161.6980  133.8730 O   0  0  0  0  0  0  0  0  0  0  0  0
  145.1410  159.4850  133.4630 C   0  0  0  0  0  0  0  0  0  0  0  0
  146.5060  159.7740  133.4590 C   0  0  0  0  0  0  0  0  0  0  0  0
  147.1350  158.5640  133.2690 C   0  0  0  0  0  0  0  0  0  0  0  0
  148.4900  158.2590  133.1860 C   0  0  0  0  0  0  0  0  0  0  0  0
  148.8520  156.9130  133.0020 C   0  0  0  0  0  0  0  0  0  0  0  0
  147.8590  155.9080  132.9100 C   0  0  0  0  0  0  0  0  0  0  0  0
  148.2400  154.5440  132.7310 N   0  0  0  0  0  0  0  0  0  0  0  0
  147.6460  153.2100  132.9500 C   0  0  0  0  0  0  0  0  0  0  0  0
  148.8270  152.4300  132.4570 C   0  0  0  0  0  0  0  0  0  0  0  0
  149.5400  151.5770  133.5220 C   0  0  0  0  0  0  0  0  0  0  0  0
  149.0970  150.2460  133.5020 O   0  0  0  0  0  0  0  0  0  0  0  0
  149.4100  153.7940  132.2360 C   0  0  0  0  0  0  0  0  0  0  0  0
  146.4960  156.2530  132.9970 C   0  0  0  0  0  0  0  0  0  0  0  0
  146.1650  157.6010  133.1700 C   0  0  0  0  0  0  0  0  0  0  0  0
  144.9380  158.1480  133.2920 N   0  0  0  0  0  0  0  0  0  0  0  0
  143.6960  157.4290  133.3000 C   0  0  0  0  0  0  0  0  0  0  0  0
  142.9250  157.5140  132.3060 O   0  0  0  0  0  0  0  0  0  0  0  0
  143.4000  156.4490  134.3980 C   0  0  0  0  0  0  0  0  0  0  0  0
  142.0960  155.2700  133.9170 S   0  0  0  0  0  0  0  0  0  0  0  0
  142.4440  159.6170  132.4860 H   0  0  0  0  0  0  0  0  0  0  0  0
  146.9792  160.7594  133.5816 H   0  0  0  0  0  0  0  0  0  0  0  0
  149.2542  159.0465  133.2620 H   0  0  0  0  0  0  0  0  0  0  0  0
  149.9147  156.6386  132.9290 H   0  0  0  0  0  0  0  0  0  0  0  0
  147.4193  153.0143  134.0084 H   0  0  0  0  0  0  0  0  0  0  0  0
  146.6761  153.0079  132.4720 H   0  0  0  0  0  0  0  0  0  0  0  0
  148.7703  151.6521  131.6813 H   0  0  0  0  0  0  0  0  0  0  0  0
  150.6225  151.5955  133.3275 H   0  0  0  0  0  0  0  0  0  0  0  0
  149.3101  152.0003  134.5109 H   0  0  0  0  0  0  0  0  0  0  0  0
  148.3320  150.2010  134.1330 H   0  0  0  0  0  0  0  0  0  0  0  0
  150.3141  153.9721  132.8367 H   0  0  0  0  0  0  0  0  0  0  0  0
  149.7647  154.0298  131.2218 H   0  0  0  0  0  0  0  0  0  0  0  0
  145.7131  155.4831  132.9307 H   0  0  0  0  0  0  0  0  0  0  0  0
  144.3174  155.8894  134.6330 H   0  0  0  0  0  0  0  0  0  0  0  0
  143.0462  157.0125  135.2740 H   0  0  0  0  0  0  0  0  0  0  0  0
  142.0980  155.6760  132.5700 H   0  0  0  0  0  0  0  0  0  0  0  0
  1  2  1  0
  2  3  2  0
  2  4  1  0
  4  5  2  0
  5  6  1  0
  6  7  2  0
  7  8  1  0
  8  9  2  0
  9 10  1  0
 10 11  1  0
 11 12  1  0
 12 13  1  0
 13 14  1  0
 12 15  1  0
  9 16  1  0
 16 17  2  0
 17 18  1  0
 18 19  1  0
 19 20  2  0
 19 21  1  0
 21 22  1  0
 18  4  1  0
 17  6  1  0
 15 10  1  0
  1 23  1  0
  5 24  1  0
  7 25  1  0
  8 26  1  0
 11 27  1  0
 11 28  1  0
 12 29  1  0
 13 30  1  0
 13 31  1  0
 14 32  1  0
 15 33  1  0
 15 34  1  0
 16 35  1  0
 21 36  1  0
 21 37  1  0
 22 38  1  0
M  CHG  1   1  -1
M  END
>  <UniqueID>  (59) 
57

>  <SMILES>  (59) 
[NH-]C(=O)c1cc2ccc(N3CC(CO)C3)cc2n1C(=O)CS

>  <Energy>  (59) 
121.46504291345275

>  <Genealogy>  (59) 
[NH-]C(=O)c1cc2ccc(N3CC(CO)C3)cc2n1C(=O)CS (protonated)
[NH-]C(=O)c1cc2ccc(N3CC(CO)C3)cc2n1C(=O)CS (3D coordinates assigned)
[NH-]C(=O)c1cc2ccc(N3CC(CO)C3)cc2n1C(=O)CS (nonaromatic ring conformer: 121.46504291345275 kcal/mol)

>  <smiles>  (59) 
NC(=O)c1cc2ccc(N3CC(CO)C3)cc2n1C(=O)CS

>  <score_type>  (59) 
oracle

>  <origin>  (59) 
adg

>  <m_score__min__energy>  (59) 
-6.8200000000000003

>  <m_primary>  (59) 
energy

$$$$
59:0
     RDKit          3D

 34 36  0  0  0  0  0  0  0  0999 V2000
  148.8960  157.3150  131.8670 N   0  0  0  0  0  0  0  0  0  0  0  0
  148.6320  158.5080  132.6080 C   0  0  0  0  0  0  0  0  0  0  0  0
  149.5990  159.2400  132.9460 O   0  0  0  0  0  0  0  0  0  0  0  0
  147.2460  158.8970  132.9610 C   0  0  0  0  0  0  0  0  0  0  0  0
  146.7920  160.2120  133.0620 C   0  0  0  0  0  0  0  0  0  0  0  0
  145.4780  160.1170  133.4660 C   0  0  0  0  0  0  0  0  0  0  0  0
  144.5440  161.1150  133.7230 C   0  0  0  0  0  0  0  0  0  0  0  0
  143.2520  160.7220  134.1120 C   0  0  0  0  0  0  0  0  0  0  0  0
  142.9090  159.3480  134.2140 C   0  0  0  0  0  0  0  0  0  0  0  0
  141.5300  158.9470  134.6730 C   0  0  0  0  0  0  0  0  0  0  0  0
  140.5730  159.3920  133.7770 F   0  0  0  0  0  0  0  0  0  0  0  0
  141.2830  159.5080  135.9120 F   0  0  0  0  0  0  0  0  0  0  0  0
  141.4250  157.5710  134.7730 F   0  0  0  0  0  0  0  0  0  0  0  0
  143.8950  158.3650  133.9660 C   0  0  0  0  0  0  0  0  0  0  0  0
  145.1760  158.7880  133.5970 C   0  0  0  0  0  0  0  0  0  0  0  0
  146.2520  158.0290  133.2990 N   0  0  0  0  0  0  0  0  0  0  0  0
  146.3030  156.5940  133.2860 C   0  0  0  0  0  0  0  0  0  0  0  0
  145.4450  155.9520  132.6230 O   0  0  0  0  0  0  0  0  0  0  0  0
  147.3640  155.8800  134.0230 C   0  0  0  0  0  0  0  0  0  0  0  0
  147.6490  156.2460  135.1950 O   0  0  0  0  0  0  0  0  0  0  0  0
  148.1170  154.7660  133.4170 C   0  0  0  0  0  0  0  0  0  0  0  0
  147.8840  153.4220  133.6390 C   0  0  0  0  0  0  0  0  0  0  0  0
  148.8150  152.7510  132.8760 C   0  0  0  0  0  0  0  0  0  0  0  0
  149.5550  153.7230  132.2330 C   0  0  0  0  0  0  0  0  0  0  0  0
  149.1160  154.9120  132.5750 O   0  0  0  0  0  0  0  0  0  0  0  0
  149.8730  157.0860  131.5770 H   0  0  0  0  0  0  0  0  0  0  0  0
  148.1400  156.6360  131.6360 H   0  0  0  0  0  0  0  0  0  0  0  0
  147.3625  161.1309  132.8615 H   0  0  0  0  0  0  0  0  0  0  0  0
  144.8082  162.1783  133.6249 H   0  0  0  0  0  0  0  0  0  0  0  0
  142.4969  161.4886  134.3403 H   0  0  0  0  0  0  0  0  0  0  0  0
  143.6603  157.2945  134.0610 H   0  0  0  0  0  0  0  0  0  0  0  0
  147.1151  152.9797  134.2896 H   0  0  0  0  0  0  0  0  0  0  0  0
  148.9427  151.6614  132.7956 H   0  0  0  0  0  0  0  0  0  0  0  0
  150.3865  153.5304  131.5392 H   0  0  0  0  0  0  0  0  0  0  0  0
  1  2  1  0
  2  3  2  0
  2  4  1  0
  4  5  2  0
  5  6  1  0
  6  7  2  0
  7  8  1  0
  8  9  2  0
  9 10  1  0
 10 11  1  0
 10 12  1  0
 10 13  1  0
  9 14  1  0
 14 15  2  0
 15 16  1  0
 16 17  1  0
 17 18  2  0
 17 19  1  0
 19 20  2  0
 19 21  1  0
 21 22  2  0
 22 23  1  0
 23 24  2  0
 24 25  1  0
 16  4  1  0
 25 21  1  0
 15  6  1  0
  1 26  1  0
  1 27  1  0
  5 28  1  0
  7 29  1  0
  8 30  1  0
 14 31  1  0
 22 32  1  0
 23 33  1  0
 24 34  1  0
M  END
>  <UniqueID>  (60) 
58

>  <SMILES>  (60) 
NC(=O)c1cc2ccc(C(F)(F)F)cc2n1C(=O)C(=O)c1ccco1

>  <Energy>  (60) 
102.32032711051824

>  <Genealogy>  (60) 
NC(=O)c1cc2ccc(C(F)(F)F)cc2n1C(=O)C(=O)c1ccco1 (3D coordinates assigned)
NC(=O)c1cc2ccc(C(F)(F)F)cc2n1C(=O)C(=O)c1ccco1 (optimized conformer: 102.32032711051824 kcal/mol)

>  <smiles>  (60) 
NC(=O)c1cc2ccc(C(F)(F)F)cc2n1C(=O)C(=O)c1ccco1

>  <score_type>  (60) 
oracle

>  <origin>  (60) 
adg

>  <m_score__min__energy>  (60) 
-7.6299999999999999

>  <m_primary>  (60) 
energy

$$$$
60:0
     RDKit          3D

 36 37  0  0  0  0  0  0  0  0999 V2000
  148.2260  153.3630  134.2040 N   0  0  0  0  0  0  0  0  0  0  0  0
  148.3410  154.2630  133.1040 C   0  0  0  0  0  0  0  0  0  0  0  0
  148.9680  153.9010  132.0740 O   0  0  0  0  0  0  0  0  0  0  0  0
  147.7370  155.6070  133.1850 C   0  0  0  0  0  0  0  0  0  0  0  0
  148.4180  156.7910  132.9040 C   0  0  0  0  0  0  0  0  0  0  0  0
  147.4930  157.7970  133.0900 C   0  0  0  0  0  0  0  0  0  0  0  0
  147.6210  159.1740  132.9440 C   0  0  0  0  0  0  0  0  0  0  0  0
  146.4920  159.9710  133.2040 C   0  0  0  0  0  0  0  0  0  0  0  0
  145.2680  159.3840  133.6220 C   0  0  0  0  0  0  0  0  0  0  0  0
  144.0530  160.2460  133.8510 C   0  0  0  0  0  0  0  0  0  0  0  0
  144.3490  161.5790  133.6240 F   0  0  0  0  0  0  0  0  0  0  0  0
  143.6020  160.1200  135.1530 F   0  0  0  0  0  0  0  0  0  0  0  0
  143.0480  159.8540  132.9870 F   0  0  0  0  0  0  0  0  0  0  0  0
  145.1750  157.9770  133.7350 C   0  0  0  0  0  0  0  0  0  0  0  0
  146.3130  157.2140  133.4660 C   0  0  0  0  0  0  0  0  0  0  0  0
  146.4470  155.8750  133.5260 N   0  0  0  0  0  0  0  0  0  0  0  0
  145.4280  154.9450  133.9110 C   0  0  0  0  0  0  0  0  0  0  0  0
  145.5510  154.2980  134.9860 O   0  0  0  0  0  0  0  0  0  0  0  0
  144.2910  154.6550  132.9730 C   0  0  0  0  0  0  0  0  0  0  0  0
  144.7320  153.7700  131.7970 C   0  0  0  0  0  0  0  0  0  0  0  0
  145.0550  152.3310  132.2340 C   0  0  0  0  0  0  0  0  0  0  0  0
  146.3620  152.2310  132.8840 N   0  0  0  0  0  0  0  0  0  0  0  0
  147.2900  153.0580  134.5520 H   0  0  0  0  0  0  0  0  0  0  0  0
  149.4693  156.8995  132.5989 H   0  0  0  0  0  0  0  0  0  0  0  0
  148.5753  159.6255  132.6349 H   0  0  0  0  0  0  0  0  0  0  0  0
  146.5576  161.0623  133.0822 H   0  0  0  0  0  0  0  0  0  0  0  0
  144.2299  157.4961  134.0274 H   0  0  0  0  0  0  0  0  0  0  0  0
  143.4945  154.1381  133.5283 H   0  0  0  0  0  0  0  0  0  0  0  0
  143.9323  155.6115  132.5650 H   0  0  0  0  0  0  0  0  0  0  0  0
  143.9212  153.7399  131.0542 H   0  0  0  0  0  0  0  0  0  0  0  0
  145.6496  154.2060  131.3752 H   0  0  0  0  0  0  0  0  0  0  0  0
  144.2817  151.9930  132.9395 H   0  0  0  0  0  0  0  0  0  0  0  0
  145.0771  151.7012  131.3324 H   0  0  0  0  0  0  0  0  0  0  0  0
  146.2890  152.6130  133.8540 H   0  0  0  0  0  0  0  0  0  0  0  0
  147.0760  152.7860  132.3580 H   0  0  0  0  0  0  0  0  0  0  0  0
  146.6620  151.2320  132.9450 H   0  0  0  0  0  0  0  0  0  0  0  0
  1  2  1  0
  2  3  2  0
  2  4  1  0
  4  5  2  0
  5  6  1  0
  6  7  2  0
  7  8  1  0
  8  9  2  0
  9 10  1  0
 10 11  1  0
 10 12  1  0
 10 13  1  0
  9 14  1  0
 14 15  2  0
 15 16  1  0
 16 17  1  0
 17 18  2  0
 17 19  1  0
 19 20  1  0
 20 21  1  0
 21 22  1  0
 16  4  1  0
 15  6  1  0
  1 23  1  0
  5 24  1  0
  7 25  1  0
  8 26  1  0
 14 27  1  0
 19 28  1  0
 19 29  1  0
 20 30  1  0
 20 31  1  0
 21 32  1  0
 21 33  1  0
 22 34  1  0
 22 35  1  0
 22 36  1  0
M  CHG  2   1  -1  22   1
M  END
>  <UniqueID>  (61) 
59

>  <SMILES>  (61) 
[NH-]C(=O)c1cc2ccc(C(F)(F)F)cc2n1C(=O)CCC[NH3+]

>  <Energy>  (61) 
72.43969059167594

>  <Genealogy>  (61) 
[NH-]C(=O)c1cc2ccc(C(F)(F)F)cc2n1C(=O)CCC[NH3+] (protonated)
[NH-]C(=O)c1cc2ccc(C(F)(F)F)cc2n1C(=O)CCC[NH3+] (3D coordinates assigned)
[NH-]C(=O)c1cc2ccc(C(F)(F)F)cc2n1C(=O)CCC[NH3+] (optimized conformer: 72.43969059167594 kcal/mol)

>  <smiles>  (61) 
NCCCC(=O)n1c(C(N)=O)cc2ccc(C(F)(F)F)cc21

>  <score_type>  (61) 
oracle

>  <origin>  (61) 
adg

>  <m_score__min__energy>  (61) 
-5.3099999999999996

>  <m_primary>  (61) 
energy

$$$$
61:0
     RDKit          3D

 35 36  0  0  0  0  0  0  0  0999 V2000
  148.1600  154.2570  133.2610 C   0  0  0  0  0  0  0  0  0  0  0  0
  148.1070  154.5720  134.6470 O   0  0  0  0  0  0  0  0  0  0  0  0
  147.0920  154.1040  135.4870 C   0  0  0  0  0  0  0  0  0  0  0  0
  147.3580  153.3430  136.4570 O   0  0  0  0  0  0  0  0  0  0  0  0
  145.6820  154.5100  135.2230 C   0  0  0  0  0  0  0  0  0  0  0  0
  145.6300  155.9200  135.0420 O   0  0  0  0  0  0  0  0  0  0  0  0
  145.3940  156.5190  133.8020 C   0  0  0  0  0  0  0  0  0  0  0  0
  145.2860  155.8090  132.7650 O   0  0  0  0  0  0  0  0  0  0  0  0
  145.2840  157.9490  133.7090 N   0  0  0  0  0  0  0  0  0  0  0  0
  146.2970  158.8620  133.7150 C   0  0  0  0  0  0  0  0  0  0  0  0
  147.7400  158.5550  133.6580 C   0  0  0  0  0  0  0  0  0  0  0  0
  148.2690  157.3740  134.2630 N   0  0  0  0  0  0  0  0  0  0  0  0
  148.5100  159.3160  133.0160 O   0  0  0  0  0  0  0  0  0  0  0  0
  145.7910  160.1590  133.7290 C   0  0  0  0  0  0  0  0  0  0  0  0
  144.4230  160.0150  133.7170 C   0  0  0  0  0  0  0  0  0  0  0  0
  143.4220  160.9820  133.7350 C   0  0  0  0  0  0  0  0  0  0  0  0
  142.0870  160.5480  133.7520 C   0  0  0  0  0  0  0  0  0  0  0  0
  141.7760  159.1660  133.7600 C   0  0  0  0  0  0  0  0  0  0  0  0
  140.3410  158.7230  133.7990 C   0  0  0  0  0  0  0  0  0  0  0  0
  139.5670  159.5800  133.0370 F   0  0  0  0  0  0  0  0  0  0  0  0
  139.8860  158.7360  135.1050 F   0  0  0  0  0  0  0  0  0  0  0  0
  142.8180  158.2130  133.7470 C   0  0  0  0  0  0  0  0  0  0  0  0
  144.1410  158.6710  133.7070 C   0  0  0  0  0  0  0  0  0  0  0  0
  148.3414  153.1792  133.1366 H   0  0  0  0  0  0  0  0  0  0  0  0
  147.2041  154.5250  132.7872 H   0  0  0  0  0  0  0  0  0  0  0  0
  148.9755  154.8231  132.7872 H   0  0  0  0  0  0  0  0  0  0  0  0
  145.3182  154.0083  134.3142 H   0  0  0  0  0  0  0  0  0  0  0  0
  145.0477  154.2219  136.0743 H   0  0  0  0  0  0  0  0  0  0  0  0
  147.6380  156.6390  134.6530 H   0  0  0  0  0  0  0  0  0  0  0  0
  149.2970  157.1910  134.2460 H   0  0  0  0  0  0  0  0  0  0  0  0
  146.3631  161.0984  133.7460 H   0  0  0  0  0  0  0  0  0  0  0  0
  143.6695  162.0538  133.7359 H   0  0  0  0  0  0  0  0  0  0  0  0
  141.2739  161.2889  133.7592 H   0  0  0  0  0  0  0  0  0  0  0  0
  140.2673  157.7033  133.3932 H   0  0  0  0  0  0  0  0  0  0  0  0
  142.5958  157.1359  133.7678 H   0  0  0  0  0  0  0  0  0  0  0  0
  1  2  1  0
  2  3  1  0
  3  4  2  0
  3  5  1  0
  5  6  1  0
  6  7  1  0
  7  8  2  0
  7  9  1  0
  9 10  1  0
 10 11  1  0
 11 12  1  0
 11 13  2  0
 10 14  2  0
 14 15  1  0
 15 16  2  0
 16 17  1  0
 17 18  2  0
 18 19  1  0
 19 20  1  0
 19 21  1  0
 18 22  1  0
 22 23  2  0
 23  9  1  0
 23 15  1  0
  1 24  1  0
  1 25  1  0
  1 26  1  0
  5 27  1  0
  5 28  1  0
 12 29  1  0
 12 30  1  0
 14 31  1  0
 16 32  1  0
 17 33  1  0
 19 34  1  0
 22 35  1  0
M  END
>  <UniqueID>  (62) 
60

>  <SMILES>  (62) 
COC(=O)COC(=O)n1c(C(N)=O)cc2ccc(C(F)F)cc21

>  <Energy>  (62) 
68.50320212582146

>  <Genealogy>  (62) 
COC(=O)COC(=O)n1c(C(N)=O)cc2ccc(C(F)F)cc21 (3D coordinates assigned)
COC(=O)COC(=O)n1c(C(N)=O)cc2ccc(C(F)F)cc21 (optimized conformer: 68.50320212582146 kcal/mol)

>  <smiles>  (62) 
COC(=O)COC(=O)n1c(C(N)=O)cc2ccc(C(F)F)cc21

>  <score_type>  (62) 
oracle

>  <origin>  (62) 
adg

>  <m_score__min__energy>  (62) 
-5.3899999999999997

>  <m_primary>  (62) 
energy

$$$$
62:0
     RDKit          3D

 43 45  0  0  0  0  0  0  0  0999 V2000
  141.0360  159.7500  134.9260 N   0  0  0  0  0  0  0  0  0  0  0  0
  141.8710  160.5640  134.1060 C   0  0  0  0  0  0  0  0  0  0  0  0
  141.3930  161.6010  133.5750 O   0  0  0  0  0  0  0  0  0  0  0  0
  143.2840  160.1890  133.8900 C   0  0  0  0  0  0  0  0  0  0  0  0
  144.3520  161.0820  133.9770 C   0  0  0  0  0  0  0  0  0  0  0  0
  145.4750  160.3340  133.7020 C   0  0  0  0  0  0  0  0  0  0  0  0
  146.8140  160.7090  133.6440 C   0  0  0  0  0  0  0  0  0  0  0  0
  147.7630  159.7190  133.3370 C   0  0  0  0  0  0  0  0  0  0  0  0
  147.3650  158.3740  133.1150 C   0  0  0  0  0  0  0  0  0  0  0  0
  148.3870  157.3320  132.7380 C   0  0  0  0  0  0  0  0  0  0  0  0
  148.8560  156.6780  133.8650 F   0  0  0  0  0  0  0  0  0  0  0  0
  147.8330  156.3890  131.8910 F   0  0  0  0  0  0  0  0  0  0  0  0
  149.4480  157.9460  132.0990 F   0  0  0  0  0  0  0  0  0  0  0  0
  145.9920  158.0390  133.1610 C   0  0  0  0  0  0  0  0  0  0  0  0
  145.0720  159.0470  133.4610 C   0  0  0  0  0  0  0  0  0  0  0  0
  143.7320  158.9470  133.5620 N   0  0  0  0  0  0  0  0  0  0  0  0
  142.9540  157.7490  133.4180 C   0  0  0  0  0  0  0  0  0  0  0  0
  142.3990  157.5210  132.3090 O   0  0  0  0  0  0  0  0  0  0  0  0
  142.7010  156.8050  134.5880 C   0  0  2  0  0  0  0  0  0  0  0  0
  143.0760  155.3530  134.2830 C   0  0  0  0  0  0  0  0  0  0  0  0
  141.8070  154.7350  133.7410 C   0  0  0  0  0  0  0  0  0  0  0  0
  140.6730  155.6020  134.2800 C   0  0  0  0  0  0  0  0  0  0  0  0
  141.2640  156.7770  134.9530 N   0  0  1  0  0  0  0  0  0  0  0  0
  141.0960  156.6940  136.3950 C   0  0  0  0  0  0  0  0  0  0  0  0
  141.7110  155.8550  137.0410 O   0  0  0  0  0  0  0  0  0  0  0  0
  140.1450  157.6290  137.0990 C   0  0  0  0  0  0  0  0  0  0  0  0
  139.3070  158.2870  136.1870 O   0  0  0  0  0  0  0  0  0  0  0  0
  140.5520  158.9110  134.5330 H   0  0  0  0  0  0  0  0  0  0  0  0
  144.3068  162.1551  134.2147 H   0  0  0  0  0  0  0  0  0  0  0  0
  147.1202  161.7486  133.8327 H   0  0  0  0  0  0  0  0  0  0  0  0
  148.8271  159.9892  133.2678 H   0  0  0  0  0  0  0  0  0  0  0  0
  145.6563  157.0099  132.9654 H   0  0  0  0  0  0  0  0  0  0  0  0
  143.3301  157.1978  135.4004 H   0  0  0  0  0  0  0  0  0  0  0  0
  143.8798  155.3091  133.5334 H   0  0  0  0  0  0  0  0  0  0  0  0
  143.4500  154.8240  135.1720 H   0  0  0  0  0  0  0  0  0  0  0  0
  141.8119  154.7476  132.6411 H   0  0  0  0  0  0  0  0  0  0  0  0
  141.7001  153.6840  134.0475 H   0  0  0  0  0  0  0  0  0  0  0  0
  140.0316  155.9329  133.4499 H   0  0  0  0  0  0  0  0  0  0  0  0
  140.0624  155.0264  134.9912 H   0  0  0  0  0  0  0  0  0  0  0  0
  140.7630  157.6360  134.6180 H   0  0  0  0  0  0  0  0  0  0  0  0
  139.5264  157.0495  137.8000 H   0  0  0  0  0  0  0  0  0  0  0  0
  140.7363  158.3860  137.6350 H   0  0  0  0  0  0  0  0  0  0  0  0
  139.4500  159.2600  136.3210 H   0  0  0  0  0  0  0  0  0  0  0  0
  1  2  1  0
  2  3  2  0
  2  4  1  0
  4  5  2  0
  5  6  1  0
  6  7  2  0
  7  8  1  0
  8  9  2  0
  9 10  1  0
 10 11  1  0
 10 12  1  0
 10 13  1  0
  9 14  1  0
 14 15  2  0
 15 16  1  0
 16 17  1  0
 17 18  2  0
 17 19  1  0
 19 20  1  0
 20 21  1  0
 21 22  1  0
 22 23  1  0
 23 24  1  0
 24 25  2  0
 24 26  1  0
 26 27  1  0
 16  4  1  0
 23 19  1  0
 15  6  1  0
  1 28  1  0
  5 29  1  0
  7 30  1  0
  8 31  1  0
 14 32  1  0
 19 33  1  1
 20 34  1  0
 20 35  1  0
 21 36  1  0
 21 37  1  0
 22 38  1  0
 22 39  1  0
 23 40  1  6
 26 41  1  0
 26 42  1  0
 27 43  1  0
M  CHG  2   1  -1  23   1
M  END
>  <UniqueID>  (63) 
61

>  <SMILES>  (63) 
[NH-]C(=O)c1cc2ccc(C(F)(F)F)cc2n1C(=O)[C@@H]1CCC[N@H+]1C(=O)CO

>  <Energy>  (63) 
91.69775157782063

>  <Genealogy>  (63) 
[NH-]C(=O)c1cc2ccc(C(F)(F)F)cc2n1C(=O)[C@@H]1CCC[NH+]1C(=O)CO (protonated)
[NH-]C(=O)c1cc2ccc(C(F)(F)F)cc2n1C(=O)[C@@H]1CCC[N@H+]1C(=O)CO (chirality)
[NH-]C(=O)c1cc2ccc(C(F)(F)F)cc2n1C(=O)[C@@H]1CCC[N@H+]1C(=O)CO (3D coordinates assigned)
[NH-]C(=O)c1cc2ccc(C(F)(F)F)cc2n1C(=O)[C@@H]1CCC[N@H+]1C(=O)CO (nonaromatic ring conformer: 91.69775157782063 kcal/mol)

>  <smiles>  (63) 
NC(=O)c1cc2ccc(C(F)(F)F)cc2n1C(=O)[C@@H]1CCCN1C(=O)CO

>  <score_type>  (63) 
oracle

>  <origin>  (63) 
adg

>  <m_score__min__energy>  (63) 
-5.9199999999999999

>  <m_primary>  (63) 
energy

$$$$
63:0
     RDKit          3D

 39 40  0  0  0  0  0  0  0  0999 V2000
  141.1440  157.6880  135.9870 C   0  0  0  0  0  0  0  0  0  0  0  0
  141.9490  158.0710  134.8160 N   0  0  0  0  0  0  0  0  0  0  0  0
  141.1700  157.8450  133.5870 C   0  0  0  0  0  0  0  0  0  0  0  0
  142.3760  159.4850  134.9210 C   0  0  0  0  0  0  0  0  0  0  0  0
  142.7660  160.0480  133.5500 C   0  0  0  0  0  0  0  0  0  0  0  0
  143.9690  159.3880  133.0510 N   0  0  0  0  0  0  0  0  0  0  0  0
  145.2980  159.7520  133.4390 C   0  0  0  0  0  0  0  0  0  0  0  0
  145.5080  160.8420  134.0390 O   0  0  0  0  0  0  0  0  0  0  0  0
  146.3950  158.8720  133.1490 N   0  0  0  0  0  0  0  0  0  0  0  0
  146.6120  157.6250  133.6510 C   0  0  0  0  0  0  0  0  0  0  0  0
  145.6670  156.8480  134.4790 C   0  0  0  0  0  0  0  0  0  0  0  0
  144.2670  157.1280  134.4660 N   0  0  0  0  0  0  0  0  0  0  0  0
  146.0980  155.8890  135.1740 O   0  0  0  0  0  0  0  0  0  0  0  0
  147.8570  157.1440  133.2510 C   0  0  0  0  0  0  0  0  0  0  0  0
  148.3990  158.1430  132.4750 C   0  0  0  0  0  0  0  0  0  0  0  0
  149.6370  158.2120  131.8410 C   0  0  0  0  0  0  0  0  0  0  0  0
  149.9570  159.3930  131.1500 C   0  0  0  0  0  0  0  0  0  0  0  0
  149.0480  160.4770  131.1170 C   0  0  0  0  0  0  0  0  0  0  0  0
  149.3950  161.6810  130.4270 N   0  0  0  0  0  0  0  0  0  0  0  0
  147.8040  160.3740  131.7710 C   0  0  0  0  0  0  0  0  0  0  0  0
  147.4990  159.1780  132.4320 C   0  0  0  0  0  0  0  0  0  0  0  0
  141.6886  157.9471  136.9069 H   0  0  0  0  0  0  0  0  0  0  0  0
  140.1850  158.2264  135.9646 H   0  0  0  0  0  0  0  0  0  0  0  0
  140.9567  156.6043  135.9646 H   0  0  0  0  0  0  0  0  0  0  0  0
  140.1447  157.5476  133.8523 H   0  0  0  0  0  0  0  0  0  0  0  0
  141.1414  158.7719  132.9953 H   0  0  0  0  0  0  0  0  0  0  0  0
  141.6419  157.0467  132.9953 H   0  0  0  0  0  0  0  0  0  0  0  0
  141.5473  160.0808  135.3313 H   0  0  0  0  0  0  0  0  0  0  0  0
  143.2539  159.5362  135.5818 H   0  0  0  0  0  0  0  0  0  0  0  0
  141.9410  159.8810  132.8418 H   0  0  0  0  0  0  0  0  0  0  0  0
  142.9662  161.1249  133.6509 H   0  0  0  0  0  0  0  0  0  0  0  0
  143.8540  157.7900  133.7720 H   0  0  0  0  0  0  0  0  0  0  0  0
  143.6220  156.5990  135.0940 H   0  0  0  0  0  0  0  0  0  0  0  0
  148.3098  156.1734  133.5018 H   0  0  0  0  0  0  0  0  0  0  0  0
  150.3421  157.3686  131.8799 H   0  0  0  0  0  0  0  0  0  0  0  0
  150.9228  159.4756  130.6300 H   0  0  0  0  0  0  0  0  0  0  0  0
  148.6720  162.2260  129.9050 H   0  0  0  0  0  0  0  0  0  0  0  0
  150.3780  162.0340  130.4300 H   0  0  0  0  0  0  0  0  0  0  0  0
  147.0910  161.2116  131.7624 H   0  0  0  0  0  0  0  0  0  0  0  0
  1  2  1  0
  2  3  1  0
  2  4  1  0
  4  5  1  0
  5  6  1  0
  6  7  1  0
  7  8  2  0
  7  9  1  0
  9 10  1  0
 10 11  1  0
 11 12  1  0
 11 13  2  0
 10 14  2  0
 14 15  1  0
 15 16  2  0
 16 17  1  0
 17 18  2  0
 18 19  1  0
 18 20  1  0
 20 21  2  0
 21  9  1  0
 21 15  1  0
  1 22  1  0
  1 23  1  0
  1 24  1  0
  3 25  1  0
  3 26  1  0
  3 27  1  0
  4 28  1  0
  4 29  1  0
  5 30  1  0
  5 31  1  0
 12 32  1  0
 12 33  1  0
 14 34  1  0
 16 35  1  0
 17 36  1  0
 19 37  1  0
 19 38  1  0
 20 39  1  0
M  CHG  1   6  -1
M  END
>  <UniqueID>  (64) 
62

>  <SMILES>  (64) 
CN(C)CC[N-]C(=O)n1c(C(N)=O)cc2ccc(N)cc21

>  <Energy>  (64) 
74.49412952061684

>  <Genealogy>  (64) 
CN(C)CC[N-]C(=O)n1c(C(N)=O)cc2ccc(N)cc21 (protonated)
CN(C)CC[N-]C(=O)n1c(C(N)=O)cc2ccc(N)cc21 (3D coordinates assigned)
CN(C)CC[N-]C(=O)n1c(C(N)=O)cc2ccc(N)cc21 (optimized conformer: 74.49412952061684 kcal/mol)

>  <smiles>  (64) 
CN(C)CCNC(=O)n1c(C(N)=O)cc2ccc(N)cc21

>  <score_type>  (64) 
oracle

>  <origin>  (64) 
adg

>  <m_score__min__energy>  (64) 
-6.6699999999999999

>  <m_primary>  (64) 
energy

$$$$
64:0
     RDKit          3D

 54 56  0  0  0  0  0  0  0  0999 V2000
  137.8810  159.8440  130.8130 C   0  0  0  0  0  0  0  0  0  0  0  0
  138.6100  159.3210  131.8010 C   0  0  0  0  0  0  0  0  0  0  0  0
  139.8550  160.0050  132.3060 C   0  0  0  0  0  0  0  0  0  0  0  0
  140.2650  159.4790  133.6350 N   0  0  0  0  0  0  0  0  0  0  0  0
  139.6400  158.1470  133.8240 C   0  0  0  0  0  0  0  0  0  0  0  0
  141.7440  159.3990  133.8860 C   0  0  1  0  0  0  0  0  0  0  0  0
  142.1870  159.3520  135.3870 C   0  0  0  0  0  0  0  0  0  0  0  0
  141.0440  159.4120  136.4230 C   0  0  0  0  0  0  0  0  0  0  0  0
  141.3970  158.3870  137.8950 S   0  0  0  0  0  0  0  0  0  0  0  0
  140.4810  156.9350  137.2900 C   0  0  0  0  0  0  0  0  0  0  0  0
  142.3640  158.2510  133.0920 C   0  0  0  0  0  0  0  0  0  0  0  0
  141.7880  157.8190  132.0570 O   0  0  0  0  0  0  0  0  0  0  0  0
  143.4730  157.5010  133.6100 N   0  0  0  0  0  0  0  0  0  0  0  0
  143.4710  156.2680  134.1860 C   0  0  0  0  0  0  0  0  0  0  0  0
  142.2740  155.4660  134.5040 C   0  0  0  0  0  0  0  0  0  0  0  0
  141.2340  155.3040  133.5460 N   0  0  0  0  0  0  0  0  0  0  0  0
  142.1490  154.9540  135.6480 O   0  0  0  0  0  0  0  0  0  0  0  0
  144.7710  155.8710  134.4930 C   0  0  0  0  0  0  0  0  0  0  0  0
  145.5730  156.9200  134.1040 C   0  0  0  0  0  0  0  0  0  0  0  0
  146.9560  157.0640  134.1620 C   0  0  0  0  0  0  0  0  0  0  0  0
  147.5160  158.2530  133.6610 C   0  0  0  0  0  0  0  0  0  0  0  0
  146.6870  159.2750  133.1240 C   0  0  0  0  0  0  0  0  0  0  0  0
  147.2470  160.4800  132.5780 N   0  0  0  0  0  0  0  0  0  0  0  0
  148.2800  160.5080  131.5840 C   0  0  0  0  0  0  0  0  0  0  0  0
  149.0110  159.4320  131.2220 N   0  0  0  0  0  0  0  0  0  0  0  0
  149.8540  159.9330  130.2990 C   0  0  0  0  0  0  0  0  0  0  0  0
  149.6080  161.2780  130.1430 C   0  0  0  0  0  0  0  0  0  0  0  0
  148.6320  161.6040  130.9530 O   0  0  0  0  0  0  0  0  0  0  0  0
  145.2910  159.0800  133.0670 C   0  0  0  0  0  0  0  0  0  0  0  0
  144.7640  157.8920  133.5800 C   0  0  0  0  0  0  0  0  0  0  0  0
  136.9766  159.3250  130.4627 H   0  0  0  0  0  0  0  0  0  0  0  0
  138.1845  160.7940  130.3490 H   0  0  0  0  0  0  0  0  0  0  0  0
  138.2957  158.3704  132.2567 H   0  0  0  0  0  0  0  0  0  0  0  0
  140.6712  159.8373  131.5879 H   0  0  0  0  0  0  0  0  0  0  0  0
  139.6403  161.0787  132.4111 H   0  0  0  0  0  0  0  0  0  0  0  0
  139.5416  157.9374  134.8994 H   0  0  0  0  0  0  0  0  0  0  0  0
  138.6444  158.1395  133.3564 H   0  0  0  0  0  0  0  0  0  0  0  0
  140.2705  157.3764  133.3564 H   0  0  0  0  0  0  0  0  0  0  0  0
  142.1350  160.3623  133.5266 H   0  0  0  0  0  0  0  0  0  0  0  0
  142.7399  158.4147  135.5473 H   0  0  0  0  0  0  0  0  0  0  0  0
  142.7891  160.2578  135.5511 H   0  0  0  0  0  0  0  0  0  0  0  0
  140.9085  160.4560  136.7418 H   0  0  0  0  0  0  0  0  0  0  0  0
  140.1336  159.0192  135.9467 H   0  0  0  0  0  0  0  0  0  0  0  0
  140.1126  156.3510  138.1463 H   0  0  0  0  0  0  0  0  0  0  0  0
  139.6288  157.2675  136.6791 H   0  0  0  0  0  0  0  0  0  0  0  0
  141.1481  156.3091  136.6791 H   0  0  0  0  0  0  0  0  0  0  0  0
  141.2930  155.7590  132.6080 H   0  0  0  0  0  0  0  0  0  0  0  0
  145.0886  154.9217  134.9490 H   0  0  0  0  0  0  0  0  0  0  0  0
  147.5913  156.2726  134.5864 H   0  0  0  0  0  0  0  0  0  0  0  0
  148.6068  158.3934  133.6850 H   0  0  0  0  0  0  0  0  0  0  0  0
  146.9540  161.3950  132.9880 H   0  0  0  0  0  0  0  0  0  0  0  0
  150.6184  159.3581  129.7557 H   0  0  0  0  0  0  0  0  0  0  0  0
  150.1371  161.9583  129.4595 H   0  0  0  0  0  0  0  0  0  0  0  0
  144.6330  159.8450  132.6291 H   0  0  0  0  0  0  0  0  0  0  0  0
  1  2  2  0
  2  3  1  0
  3  4  1  0
  4  5  1  0
  4  6  1  0
  6  7  1  0
  7  8  1  0
  8  9  1  0
  9 10  1  0
  6 11  1  0
 11 12  2  0
 11 13  1  0
 13 14  1  0
 14 15  1  0
 15 16  1  0
 15 17  2  0
 14 18  2  0
 18 19  1  0
 19 20  2  0
 20 21  1  0
 21 22  2  0
 22 23  1  0
 23 24  1  0
 24 25  2  0
 25 26  1  0
 26 27  2  0
 27 28  1  0
 22 29  1  0
 29 30  2  0
 30 13  1  0
 30 19  1  0
 28 24  1  0
  1 31  1  0
  1 32  1  0
  2 33  1  0
  3 34  1  0
  3 35  1  0
  5 36  1  0
  5 37  1  0
  5 38  1  0
  6 39  1  6
  7 40  1  0
  7 41  1  0
  8 42  1  0
  8 43  1  0
 10 44  1  0
 10 45  1  0
 10 46  1  0
 16 47  1  0
 18 48  1  0
 20 49  1  0
 21 50  1  0
 23 51  1  0
 26 52  1  0
 27 53  1  0
 29 54  1  0
M  CHG  1  16  -1
M  END
>  <UniqueID>  (65) 
63

>  <SMILES>  (65) 
C=CCN(C)[C@@H](CCSC)C(=O)n1c(C([NH-])=O)cc2ccc(Nc3ncco3)cc21

>  <Energy>  (65) 
136.70425998960172

>  <Genealogy>  (65) 
C=CCN(C)C(CCSC)C(=O)n1c(C([NH-])=O)cc2ccc(Nc3ncco3)cc21 (protonated)
C=CCN(C)[C@@H](CCSC)C(=O)n1c(C([NH-])=O)cc2ccc(Nc3ncco3)cc21 (chirality)
C=CCN(C)[C@@H](CCSC)C(=O)n1c(C([NH-])=O)cc2ccc(Nc3ncco3)cc21 (3D coordinates assigned)
C=CCN(C)[C@@H](CCSC)C(=O)n1c(C([NH-])=O)cc2ccc(Nc3ncco3)cc21 (optimized conformer: 136.70425998960172 kcal/mol)

>  <smiles>  (65) 
C=CCN(C)C(CCSC)C(=O)n1c(C(N)=O)cc2ccc(Nc3ncco3)cc21

>  <score_type>  (65) 
oracle

>  <origin>  (65) 
adg

>  <m_score__min__energy>  (65) 
-8.8200000000000003

>  <m_primary>  (65) 
energy

$$$$
65:0
     RDKit          3D

 54 55  0  0  0  0  0  0  0  0999 V2000
  137.4010  160.0780  130.7200 C   0  0  0  0  0  0  0  0  0  0  0  0
  138.3530  159.1680  130.9440 C   0  0  0  0  0  0  0  0  0  0  0  0
  139.6290  159.5190  131.6590 C   0  0  0  0  0  0  0  0  0  0  0  0
  139.5850  159.0650  133.1270 C   0  0  0  0  0  0  0  0  0  0  0  0
  140.6470  157.9910  133.4350 C   0  0  1  0  0  0  0  0  0  0  0  0
  141.1060  157.4130  132.2400 O   0  0  0  0  0  0  0  0  0  0  0  0
  141.8210  158.5630  134.1910 C   0  0  0  0  0  0  0  0  0  0  0  0
  142.5840  159.5460  133.6870 C   0  0  0  0  0  0  0  0  0  0  0  0
  143.7710  160.0890  134.4380 C   0  0  0  0  0  0  0  0  0  0  0  0
  144.8660  160.5930  133.4890 C   0  0  0  0  0  0  0  0  0  0  0  0
  145.9310  159.5530  133.2580 C   0  0  0  0  0  0  0  0  0  0  0  0
  147.2790  159.9480  133.0700 C   0  0  0  0  0  0  0  0  0  0  0  0
  148.2930  158.9860  132.9190 C   0  0  0  0  0  0  0  0  0  0  0  0
  147.9310  157.6440  132.9710 C   0  0  0  0  0  0  0  0  0  0  0  0
  148.7110  156.5100  132.9080 C   0  0  0  0  0  0  0  0  0  0  0  0
  147.8250  155.4420  133.0620 C   0  0  0  0  0  0  0  0  0  0  0  0
  148.2140  154.0160  132.9940 C   0  0  0  0  0  0  0  0  0  0  0  0
  147.4590  153.0150  133.6790 N   0  0  0  0  0  0  0  0  0  0  0  0
  149.2360  153.6740  132.3440 O   0  0  0  0  0  0  0  0  0  0  0  0
  146.5510  155.9030  133.2140 N   0  0  0  0  0  0  0  0  0  0  0  0
  145.3670  155.1470  133.5110 C   0  0  0  0  0  0  0  0  0  0  0  0
  145.2120  154.6660  134.6650 O   0  0  0  0  0  0  0  0  0  0  0  0
  144.4020  154.7950  132.4130 C   0  0  0  0  0  0  0  0  0  0  0  0
  143.2740  153.8830  132.9080 C   0  0  0  0  0  0  0  0  0  0  0  0
  142.1050  154.7000  133.3570 C   0  0  0  0  0  0  0  0  0  0  0  0
  142.2630  155.6210  134.2030 O   0  0  0  0  0  0  0  0  0  0  0  0
  140.8310  154.4090  132.8840 O   0  0  0  0  0  0  0  0  0  0  0  0
  146.6320  157.2480  133.1500 C   0  0  0  0  0  0  0  0  0  0  0  0
  145.6010  158.1810  133.2970 C   0  0  0  0  0  0  0  0  0  0  0  0
  136.4784  159.7909  130.1942 H   0  0  0  0  0  0  0  0  0  0  0  0
  137.5397  161.1145  131.0613 H   0  0  0  0  0  0  0  0  0  0  0  0
  138.1998  158.1356  130.5967 H   0  0  0  0  0  0  0  0  0  0  0  0
  140.4713  159.0227  131.1548 H   0  0  0  0  0  0  0  0  0  0  0  0
  139.7530  160.6117  131.6353 H   0  0  0  0  0  0  0  0  0  0  0  0
  139.7647  159.9368  133.7732 H   0  0  0  0  0  0  0  0  0  0  0  0
  138.5945  158.6252  133.3155 H   0  0  0  0  0  0  0  0  0  0  0  0
  140.1691  157.2276  134.0666 H   0  0  0  0  0  0  0  0  0  0  0  0
  141.3400  156.4700  132.4490 H   0  0  0  0  0  0  0  0  0  0  0  0
  142.0593  158.1617  135.1871 H   0  0  0  0  0  0  0  0  0  0  0  0
  142.3359  159.9653  132.7008 H   0  0  0  0  0  0  0  0  0  0  0  0
  143.4388  160.9236  135.0730 H   0  0  0  0  0  0  0  0  0  0  0  0
  144.1934  159.2738  135.0439 H   0  0  0  0  0  0  0  0  0  0  0  0
  144.4077  160.8534  132.5235 H   0  0  0  0  0  0  0  0  0  0  0  0
  145.3410  161.4706  133.9518 H   0  0  0  0  0  0  0  0  0  0  0  0
  147.5344  161.0176  133.0420 H   0  0  0  0  0  0  0  0  0  0  0  0
  149.3402  159.2853  132.7645 H   0  0  0  0  0  0  0  0  0  0  0  0
  149.8006  156.4573  132.7664 H   0  0  0  0  0  0  0  0  0  0  0  0
  147.7690  152.0190  133.6560 H   0  0  0  0  0  0  0  0  0  0  0  0
  146.5650  153.2470  134.1670 H   0  0  0  0  0  0  0  0  0  0  0  0
  143.9611  155.7219  132.0175 H   0  0  0  0  0  0  0  0  0  0  0  0
  144.9582  154.2537  131.6335 H   0  0  0  0  0  0  0  0  0  0  0  0
  142.9594  153.2184  132.0899 H   0  0  0  0  0  0  0  0  0  0  0  0
  143.6417  153.2879  133.7569 H   0  0  0  0  0  0  0  0  0  0  0  0
  144.5602  157.8545  133.4393 H   0  0  0  0  0  0  0  0  0  0  0  0
  1  2  2  0
  2  3  1  0
  3  4  1  0
  4  5  1  0
  5  6  1  0
  5  7  1  0
  7  8  2  3
  8  9  1  0
  9 10  1  0
 10 11  1  0
 11 12  2  0
 12 13  1  0
 13 14  2  0
 14 15  1  0
 15 16  2  0
 16 17  1  0
 17 18  1  0
 17 19  2  0
 16 20  1  0
 20 21  1  0
 21 22  2  0
 21 23  1  0
 23 24  1  0
 24 25  1  0
 25 26  2  0
 25 27  1  0
 20 28  1  0
 28 29  2  0
 29 11  1  0
 28 14  1  0
  1 30  1  0
  1 31  1  0
  2 32  1  0
  3 33  1  0
  3 34  1  0
  4 35  1  0
  4 36  1  0
  5 37  1  1
  6 38  1  0
  7 39  1  0
  8 40  1  0
  9 41  1  0
  9 42  1  0
 10 43  1  0
 10 44  1  0
 12 45  1  0
 13 46  1  0
 15 47  1  0
 18 48  1  0
 18 49  1  0
 23 50  1  0
 23 51  1  0
 24 52  1  0
 24 53  1  0
 29 54  1  0
M  CHG  1  27  -1
M  END
>  <UniqueID>  (66) 
64

>  <SMILES>  (66) 
C=CCC[C@@H](O)C=CCCc1ccc2cc(C(N)=O)n(C(=O)CCC(=O)[O-])c2c1

>  <Energy>  (66) 
75.44503668140705

>  <Genealogy>  (66) 
C=CCC[C@@H](O)C=CCCc1ccc2cc(C(N)=O)n(C(=O)CCC(=O)[O-])c2c1 (protonated)
C=CCC[C@@H](O)C=CCCc1ccc2cc(C(N)=O)n(C(=O)CCC(=O)[O-])c2c1 (3D coordinates assigned)
C=CCC[C@@H](O)C=CCCc1ccc2cc(C(N)=O)n(C(=O)CCC(=O)[O-])c2c1 (optimized conformer: 75.44503668140705 kcal/mol)

>  <smiles>  (66) 
C=CCC[C@@H](O)C=CCCc1ccc2cc(C(N)=O)n(C(=O)CCC(=O)O)c2c1

>  <score_type>  (66) 
oracle

>  <origin>  (66) 
adg

>  <m_score__min__energy>  (66) 
-8.3699999999999992

>  <m_primary>  (66) 
energy

$$$$
66:0
     RDKit          3D

 43 44  0  0  0  0  0  0  0  0999 V2000
  140.3360  159.2810  132.2550 C   0  0  0  0  0  0  0  0  0  0  0  0
  140.9800  159.9630  133.3820 N   0  0  0  0  0  0  0  0  0  0  0  0
  140.6110  159.3490  134.6650 C   0  0  0  0  0  0  0  0  0  0  0  0
  141.6270  158.2720  135.0580 C   0  0  0  0  0  0  0  0  0  0  0  0
  142.9880  158.7640  134.8710 N   0  0  0  0  0  0  0  0  0  0  0  0
  143.7240  158.6150  133.6530 C   0  0  0  0  0  0  0  0  0  0  0  0
  143.1700  158.1200  132.6340 O   0  0  0  0  0  0  0  0  0  0  0  0
  145.0880  159.0570  133.5810 N   0  0  0  0  0  0  0  0  0  0  0  0
  145.5550  160.3380  133.6010 C   0  0  0  0  0  0  0  0  0  0  0  0
  144.7560  161.5480  133.8860 C   0  0  0  0  0  0  0  0  0  0  0  0
  143.3410  161.5470  133.7260 N   0  0  0  0  0  0  0  0  0  0  0  0
  145.3280  162.5840  134.3230 O   0  0  0  0  0  0  0  0  0  0  0  0
  146.9330  160.3590  133.3950 C   0  0  0  0  0  0  0  0  0  0  0  0
  147.3010  159.0390  133.2550 C   0  0  0  0  0  0  0  0  0  0  0  0
  148.5520  158.4800  133.0110 C   0  0  0  0  0  0  0  0  0  0  0  0
  148.6320  157.0840  132.8750 C   0  0  0  0  0  0  0  0  0  0  0  0
  147.4710  156.2790  132.9870 C   0  0  0  0  0  0  0  0  0  0  0  0
  147.5630  154.7900  132.7900 C   0  0  0  0  0  0  0  0  0  0  0  0
  149.0240  154.3610  132.6070 C   0  0  0  0  0  0  0  0  0  0  0  0
  149.1380  152.8840  132.2160 C   0  0  0  0  0  0  0  0  0  0  0  0
  150.3710  152.3510  132.6200 O   0  0  0  0  0  0  0  0  0  0  0  0
  146.2170  156.8840  133.2240 C   0  0  0  0  0  0  0  0  0  0  0  0
  146.1690  158.2740  133.3710 C   0  0  0  0  0  0  0  0  0  0  0  0
  139.6277  158.5309  132.6366 H   0  0  0  0  0  0  0  0  0  0  0  0
  139.7956  160.0169  131.6415 H   0  0  0  0  0  0  0  0  0  0  0  0
  141.1016  158.7836  131.6415 H   0  0  0  0  0  0  0  0  0  0  0  0
  142.0140  159.8520  133.2580 H   0  0  0  0  0  0  0  0  0  0  0  0
  140.5872  160.1253  135.4440 H   0  0  0  0  0  0  0  0  0  0  0  0
  139.6201  158.8823  134.5634 H   0  0  0  0  0  0  0  0  0  0  0  0
  141.4805  158.0039  136.1147 H   0  0  0  0  0  0  0  0  0  0  0  0
  141.4759  157.3891  134.4195 H   0  0  0  0  0  0  0  0  0  0  0  0
  142.7610  160.7490  134.0690 H   0  0  0  0  0  0  0  0  0  0  0  0
  147.5877  161.2419  133.3531 H   0  0  0  0  0  0  0  0  0  0  0  0
  149.4492  159.1109  132.9273 H   0  0  0  0  0  0  0  0  0  0  0  0
  149.6057  156.6110  132.6796 H   0  0  0  0  0  0  0  0  0  0  0  0
  147.1443  154.2818  133.6712 H   0  0  0  0  0  0  0  0  0  0  0  0
  146.9962  154.5150  131.8883 H   0  0  0  0  0  0  0  0  0  0  0  0
  149.4791  154.9750  131.8159 H   0  0  0  0  0  0  0  0  0  0  0  0
  149.5447  154.5024  133.5656 H   0  0  0  0  0  0  0  0  0  0  0  0
  148.3266  152.3202  132.6995 H   0  0  0  0  0  0  0  0  0  0  0  0
  149.0634  152.8044  131.1214 H   0  0  0  0  0  0  0  0  0  0  0  0
  151.0420  152.6480  131.9510 H   0  0  0  0  0  0  0  0  0  0  0  0
  145.3017  156.2776  133.2912 H   0  0  0  0  0  0  0  0  0  0  0  0
  1  2  1  0
  2  3  1  0
  3  4  1  0
  4  5  1  0
  5  6  1  0
  6  7  2  0
  6  8  1  0
  8  9  1  0
  9 10  1  0
 10 11  1  0
 10 12  2  0
  9 13  2  0
 13 14  1  0
 14 15  2  0
 15 16  1  0
 16 17  2  0
 17 18  1  0
 18 19  1  0
 19 20  1  0
 20 21  1  0
 17 22  1  0
 22 23  2  0
 23  8  1  0
 23 14  1  0
  1 24  1  0
  1 25  1  0
  1 26  1  0
  2 27  1  0
  3 28  1  0
  3 29  1  0
  4 30  1  0
  4 31  1  0
 11 32  1  0
 13 33  1  0
 15 34  1  0
 16 35  1  0
 18 36  1  0
 18 37  1  0
 19 38  1  0
 19 39  1  0
 20 40  1  0
 20 41  1  0
 21 42  1  0
 22 43  1  0
M  CHG  2   5  -1  11  -1
M  END
>  <UniqueID>  (67) 
65

>  <SMILES>  (67) 
CNCC[N-]C(=O)n1c(C([NH-])=O)cc2ccc(CCCO)cc21

>  <Energy>  (67) 
72.67038049537746

>  <Genealogy>  (67) 
CNCC[N-]C(=O)n1c(C([NH-])=O)cc2ccc(CCCO)cc21 (protonated)
CNCC[N-]C(=O)n1c(C([NH-])=O)cc2ccc(CCCO)cc21 (3D coordinates assigned)
CNCC[N-]C(=O)n1c(C([NH-])=O)cc2ccc(CCCO)cc21 (optimized conformer: 72.67038049537746 kcal/mol)

>  <smiles>  (67) 
CNCCNC(=O)n1c(C(N)=O)cc2ccc(CCCO)cc21

>  <score_type>  (67) 
oracle

>  <origin>  (67) 
adg

>  <m_score__min__energy>  (67) 
-6.5099999999999998

>  <m_primary>  (67) 
energy

$$$$
67:0
     RDKit          3D

 41 43  0  0  0  0  0  0  0  0999 V2000
  142.5370  160.8960  133.6610 H   0  0  0  0  0  0  0  0  0  0  0  0
  143.1070  161.7710  133.6930 N   0  0  0  0  0  0  0  0  0  0  0  0
  144.5110  161.7240  133.9260 C   0  0  0  0  0  0  0  0  0  0  0  0
  145.0960  162.7520  134.3580 O   0  0  0  0  0  0  0  0  0  0  0  0
  145.2890  160.4880  133.6850 C   0  0  0  0  0  0  0  0  0  0  0  0
  146.6400  160.4830  133.3430 C   0  0  0  0  0  0  0  0  0  0  0  0
  147.2897  161.3560  133.1821 H   0  0  0  0  0  0  0  0  0  0  0  0
  146.9900  159.1540  133.2490 C   0  0  0  0  0  0  0  0  0  0  0  0
  148.2090  158.5680  132.9250 C   0  0  0  0  0  0  0  0  0  0  0  0
  149.0950  159.1838  132.7113 H   0  0  0  0  0  0  0  0  0  0  0  0
  148.2740  157.1650  132.8790 C   0  0  0  0  0  0  0  0  0  0  0  0
  149.2262  156.6734  132.6309 H   0  0  0  0  0  0  0  0  0  0  0  0
  147.1250  156.3730  133.1490 C   0  0  0  0  0  0  0  0  0  0  0  0
  147.2010  154.8910  133.0900 C   0  0  0  0  0  0  0  0  0  0  0  0
  148.4450  154.2370  133.1060 C   0  0  0  0  0  0  0  0  0  0  0  0
  149.3758  154.8204  133.1638 H   0  0  0  0  0  0  0  0  0  0  0  0
  148.4930  152.8410  133.0480 C   0  0  0  0  0  0  0  0  0  0  0  0
  149.4646  152.3255  133.0599 H   0  0  0  0  0  0  0  0  0  0  0  0
  147.3440  152.1180  132.9770 N   0  0  0  0  0  0  0  0  0  0  0  0
  147.3970  151.0750  132.9350 H   0  0  0  0  0  0  0  0  0  0  0  0
  146.1260  152.7240  132.9610 C   0  0  0  0  0  0  0  0  0  0  0  0
  145.2117  152.1150  132.9045 H   0  0  0  0  0  0  0  0  0  0  0  0
  146.0320  154.1170  133.0160 C   0  0  0  0  0  0  0  0  0  0  0  0
  145.0463  154.6051  133.0014 H   0  0  0  0  0  0  0  0  0  0  0  0
  145.9040  157.0110  133.4730 C   0  0  0  0  0  0  0  0  0  0  0  0
  144.9978  156.4215  133.6761 H   0  0  0  0  0  0  0  0  0  0  0  0
  145.8760  158.4080  133.5290 C   0  0  0  0  0  0  0  0  0  0  0  0
  144.8250  159.2110  133.8000 N   0  0  0  0  0  0  0  0  0  0  0  0
  143.4950  158.7820  134.1230 C   0  0  0  0  0  0  0  0  0  0  0  0
  142.8900  159.3000  135.0990 O   0  0  0  0  0  0  0  0  0  0  0  0
  142.8460  157.6730  133.3480 C   0  0  0  0  0  0  0  0  0  0  0  0
  142.5238  156.8838  134.0432 H   0  0  0  0  0  0  0  0  0  0  0  0
  143.5710  157.2654  132.6281 H   0  0  0  0  0  0  0  0  0  0  0  0
  141.6590  158.1910  132.6050 C   0  0  0  0  0  0  0  0  0  0  0  0
  141.1492  157.5495  131.8711 H   0  0  0  0  0  0  0  0  0  0  0  0
  141.2280  159.3910  132.8210 N   0  0  0  0  0  0  0  0  0  0  0  0
  140.1420  159.8820  132.1340 O   0  0  0  0  0  0  0  0  0  0  0  0
  138.8480  159.3530  132.3720 C   0  0  0  0  0  0  0  0  0  0  0  0
  138.6745  159.2821  133.4559 H   0  0  0  0  0  0  0  0  0  0  0  0
  138.0930  160.0146  131.9223 H   0  0  0  0  0  0  0  0  0  0  0  0
  138.7727  158.3519  131.9223 H   0  0  0  0  0  0  0  0  0  0  0  0
  1  2  1  0
  2  3  1  0
  3  4  2  0
  3  5  1  0
  5  6  2  0
  6  7  1  0
  6  8  1  0
  8  9  2  0
  9 10  1  0
  9 11  1  0
 11 12  1  0
 11 13  2  0
 13 14  1  0
 14 15  2  0
 15 16  1  0
 15 17  1  0
 17 18  1  0
 17 19  2  0
 19 20  1  0
 19 21  1  0
 21 22  1  0
 21 23  2  0
 23 24  1  0
 13 25  1  0
 25 26  1  0
 25 27  2  0
 27 28  1  0
 28 29  1  0
 29 30  2  0
 29 31  1  0
 31 32  1  0
 31 33  1  0
 31 34  1  0
 34 35  1  0
 34 36  2  0
 36 37  1  0
 37 38  1  0
 38 39  1  0
 38 40  1  0
 38 41  1  0
 28  5  1  0
 27  8  1  0
 23 14  1  0
M  CHG  2   2  -1  19   1
M  END
>  <UniqueID>  (68) 
66

>  <SMILES>  (68) 
CO/N=C/CC(=O)n1c(C([NH-])=O)cc2ccc(-c3cc[nH+]cc3)cc21

>  <Energy>  (68) 
80.56163977528009

>  <Genealogy>  (68) 
CO/N=C/CC(=O)n1c(C([NH-])=O)cc2ccc(-c3cc[nH+]cc3)cc21 (protonated)
CO/N=C/CC(=O)n1c(C([NH-])=O)cc2ccc(-c3cc[nH+]cc3)cc21 (cis-trans isomerization)
CO/N=C/CC(=O)n1c(C([NH-])=O)cc2ccc(-c3cc[nH+]cc3)cc21 (3D coordinates assigned)
CO/N=C/CC(=O)n1c(C([NH-])=O)cc2ccc(-c3cc[nH+]cc3)cc21 (optimized conformer: 80.56163977528009 kcal/mol)

>  <smiles>  (68) 
CO/N=C/CC(=O)n1c(C(N)=O)cc2ccc(-c3ccncc3)cc21

>  <score_type>  (68) 
oracle

>  <origin>  (68) 
adg

>  <m_score__min__energy>  (68) 
-7

>  <m_primary>  (68) 
energy

$$$$
68:0
     RDKit          3D

 30 31  0  0  0  0  0  0  0  0999 V2000
  146.3170  160.8510  133.3810 N   0  0  0  0  0  0  0  0  0  0  0  0
  145.4530  159.7310  133.5550 C   0  0  0  0  0  0  0  0  0  0  0  0
  144.2720  159.9180  133.9490 O   0  0  0  0  0  0  0  0  0  0  0  0
  145.9410  158.3530  133.3350 C   0  0  0  0  0  0  0  0  0  0  0  0
  145.1270  157.2270  133.4390 C   0  0  0  0  0  0  0  0  0  0  0  0
  145.9690  156.1520  133.2580 C   0  0  0  0  0  0  0  0  0  0  0  0
  145.6910  154.7880  133.2640 C   0  0  0  0  0  0  0  0  0  0  0  0
  146.7530  153.8990  133.0300 C   0  0  0  0  0  0  0  0  0  0  0  0
  148.0620  154.3840  132.7700 C   0  0  0  0  0  0  0  0  0  0  0  0
  149.2010  153.4190  132.5580 C   0  0  0  0  0  0  0  0  0  0  0  0
  150.3670  154.0990  132.2500 F   0  0  0  0  0  0  0  0  0  0  0  0
  148.8870  152.5670  131.5160 F   0  0  0  0  0  0  0  0  0  0  0  0
  149.4260  152.6720  133.7000 F   0  0  0  0  0  0  0  0  0  0  0  0
  148.3070  155.7770  132.7960 C   0  0  0  0  0  0  0  0  0  0  0  0
  147.2330  156.6380  133.0500 C   0  0  0  0  0  0  0  0  0  0  0  0
  147.2330  157.9890  133.0910 N   0  0  0  0  0  0  0  0  0  0  0  0
  148.3580  158.8450  132.8430 C   0  0  0  0  0  0  0  0  0  0  0  0
  148.6410  159.7650  133.6600 O   0  0  0  0  0  0  0  0  0  0  0  0
  149.1220  158.6690  131.6840 O   0  0  0  0  0  0  0  0  0  0  0  0
  149.9040  159.7050  131.0960 C   0  0  0  0  0  0  0  0  0  0  0  0
  149.0260  160.8310  130.6530 C   0  0  0  0  0  0  0  0  0  0  0  0
  147.7780  160.6750  130.5840 O   0  0  0  0  0  0  0  0  0  0  0  0
  149.5840  162.0650  130.3450 O   0  0  0  0  0  0  0  0  0  0  0  0
  147.0210  160.8720  132.6100 H   0  0  0  0  0  0  0  0  0  0  0  0
  144.0433  157.2019  133.6258 H   0  0  0  0  0  0  0  0  0  0  0  0
  144.6713  154.4179  133.4464 H   0  0  0  0  0  0  0  0  0  0  0  0
  146.5686  152.8147  133.0484 H   0  0  0  0  0  0  0  0  0  0  0  0
  149.3177  156.1742  132.6208 H   0  0  0  0  0  0  0  0  0  0  0  0
  150.6270  160.0784  131.8362 H   0  0  0  0  0  0  0  0  0  0  0  0
  150.4345  159.3000  130.2216 H   0  0  0  0  0  0  0  0  0  0  0  0
  1  2  1  0
  2  3  2  0
  2  4  1  0
  4  5  2  0
  5  6  1  0
  6  7  2  0
  7  8  1  0
  8  9  2  0
  9 10  1  0
 10 11  1  0
 10 12  1  0
 10 13  1  0
  9 14  1  0
 14 15  2  0
 15 16  1  0
 16 17  1  0
 17 18  2  0
 17 19  1  0
 19 20  1  0
 20 21  1  0
 21 22  2  0
 21 23  1  0
 16  4  1  0
 15  6  1  0
  1 24  1  0
  5 25  1  0
  7 26  1  0
  8 27  1  0
 14 28  1  0
 20 29  1  0
 20 30  1  0
M  CHG  2   1  -1  23  -1
M  END
>  <UniqueID>  (69) 
67

>  <SMILES>  (69) 
[NH-]C(=O)c1cc2ccc(C(F)(F)F)cc2n1C(=O)OCC(=O)[O-]

>  <Energy>  (69) 
68.1197885670329

>  <Genealogy>  (69) 
[NH-]C(=O)c1cc2ccc(C(F)(F)F)cc2n1C(=O)OCC(=O)[O-] (protonated)
[NH-]C(=O)c1cc2ccc(C(F)(F)F)cc2n1C(=O)OCC(=O)[O-] (3D coordinates assigned)
[NH-]C(=O)c1cc2ccc(C(F)(F)F)cc2n1C(=O)OCC(=O)[O-] (optimized conformer: 68.1197885670329 kcal/mol)

>  <smiles>  (69) 
NC(=O)c1cc2ccc(C(F)(F)F)cc2n1C(=O)OCC(=O)O

>  <score_type>  (69) 
oracle

>  <origin>  (69) 
adg

>  <m_score__min__energy>  (69) 
-5.5199999999999996

>  <m_primary>  (69) 
energy

$$$$
69:0
     RDKit          3D

 44 47  0  0  0  0  0  0  0  0999 V2000
  145.9780  162.9700  134.9130 N   0  0  0  0  0  0  0  0  0  0  0  0
  144.9210  162.4050  134.1440 C   0  0  0  0  0  0  0  0  0  0  0  0
  144.0250  163.1590  133.6790 O   0  0  0  0  0  0  0  0  0  0  0  0
  144.8920  160.9590  133.8370 C   0  0  0  0  0  0  0  0  0  0  0  0
  146.0320  160.2220  133.5240 C   0  0  0  0  0  0  0  0  0  0  0  0
  145.6020  158.9210  133.3970 C   0  0  0  0  0  0  0  0  0  0  0  0
  146.3160  157.7710  133.0810 C   0  0  0  0  0  0  0  0  0  0  0  0
  145.6080  156.5600  132.9870 C   0  0  0  0  0  0  0  0  0  0  0  0
  144.2050  156.5200  133.2000 C   0  0  0  0  0  0  0  0  0  0  0  0
  143.4660  155.2380  133.0850 C   0  0  0  0  0  0  0  0  0  0  0  0
  142.2040  155.0810  133.6720 C   0  0  0  0  0  0  0  0  0  0  0  0
  141.5180  153.8720  133.5580 C   0  0  0  0  0  0  0  0  0  0  0  0
  142.0950  152.8050  132.8480 C   0  0  0  0  0  0  0  0  0  0  0  0
  141.3980  151.5450  132.7160 N   0  0  0  0  0  0  0  0  0  0  0  0
  140.0230  151.4180  132.2530 C   0  0  0  0  0  0  0  0  0  0  0  0
  139.6530  149.9550  132.4500 C   0  0  0  0  0  0  0  0  0  0  0  0
  140.9770  149.2040  132.5790 C   0  0  1  0  0  0  0  0  0  0  0  0
  141.3430  148.6830  131.3280 O   0  0  0  0  0  0  0  0  0  0  0  0
  141.9900  150.2550  133.0340 C   0  0  0  0  0  0  0  0  0  0  0  0
  143.3280  152.9790  132.2800 N   0  0  0  0  0  0  0  0  0  0  0  0
  144.0120  154.1500  132.3830 C   0  0  0  0  0  0  0  0  0  0  0  0
  143.5170  157.7150  133.5180 C   0  0  0  0  0  0  0  0  0  0  0  0
  144.2500  158.9020  133.6250 C   0  0  0  0  0  0  0  0  0  0  0  0
  143.7980  160.1470  133.8940 N   0  0  0  0  0  0  0  0  0  0  0  0
  142.4270  160.5260  134.1030 C   0  0  0  0  0  0  0  0  0  0  0  0
  141.7290  159.9350  134.9670 O   0  0  0  0  0  0  0  0  0  0  0  0
  141.8690  161.5670  133.3720 O   0  0  0  0  0  0  0  0  0  0  0  0
  146.9500  162.5920  134.8510 H   0  0  0  0  0  0  0  0  0  0  0  0
  147.0581  160.5998  133.4039 H   0  0  0  0  0  0  0  0  0  0  0  0
  147.4020  157.8073  132.9097 H   0  0  0  0  0  0  0  0  0  0  0  0
  146.1476  155.6324  132.7455 H   0  0  0  0  0  0  0  0  0  0  0  0
  141.7512  155.9163  134.2263 H   0  0  0  0  0  0  0  0  0  0  0  0
  140.5279  153.7538  134.0226 H   0  0  0  0  0  0  0  0  0  0  0  0
  139.3582  152.0643  132.8449 H   0  0  0  0  0  0  0  0  0  0  0  0
  139.9199  151.7238  131.2014 H   0  0  0  0  0  0  0  0  0  0  0  0
  139.0522  149.8315  133.3631 H   0  0  0  0  0  0  0  0  0  0  0  0
  139.0513  149.5734  131.6119 H   0  0  0  0  0  0  0  0  0  0  0  0
  140.9181  148.3627  133.2852 H   0  0  0  0  0  0  0  0  0  0  0  0
  141.6950  147.7700  131.4940 H   0  0  0  0  0  0  0  0  0  0  0  0
  142.1671  150.1720  134.1165 H   0  0  0  0  0  0  0  0  0  0  0  0
  142.9608  150.1225  132.5341 H   0  0  0  0  0  0  0  0  0  0  0  0
  143.7810  152.2020  131.7510 H   0  0  0  0  0  0  0  0  0  0  0  0
  145.0016  154.2463  131.9125 H   0  0  0  0  0  0  0  0  0  0  0  0
  142.4287  157.7108  133.6777 H   0  0  0  0  0  0  0  0  0  0  0  0
  1  2  1  0
  2  3  2  0
  2  4  1  0
  4  5  2  0
  5  6  1  0
  6  7  2  0
  7  8  1  0
  8  9  2  0
  9 10  1  0
 10 11  2  0
 11 12  1  0
 12 13  2  0
 13 14  1  0
 14 15  1  0
 15 16  1  0
 16 17  1  0
 17 18  1  0
 17 19  1  0
 13 20  1  0
 20 21  2  0
  9 22  1  0
 22 23  2  0
 23 24  1  0
 24 25  1  0
 25 26  2  0
 25 27  1  0
 24  4  1  0
 23  6  1  0
 21 10  1  0
 19 14  1  0
  1 28  1  0
  5 29  1  0
  7 30  1  0
  8 31  1  0
 11 32  1  0
 12 33  1  0
 15 34  1  0
 15 35  1  0
 16 36  1  0
 16 37  1  0
 17 38  1  1
 18 39  1  0
 19 40  1  0
 19 41  1  0
 20 42  1  0
 21 43  1  0
 22 44  1  0
M  CHG  3   1  -1  20   1  27  -1
M  END
>  <UniqueID>  (70) 
68

>  <SMILES>  (70) 
[NH-]C(=O)c1cc2ccc(-c3ccc(N4CC[C@@H](O)C4)[nH+]c3)cc2n1C(=O)[O-]

>  <Energy>  (70) 
94.5774716182879

>  <Genealogy>  (70) 
[NH-]C(=O)c1cc2ccc(-c3ccc(N4CCC(O)C4)[nH+]c3)cc2n1C(=O)[O-] (protonated)
[NH-]C(=O)c1cc2ccc(-c3ccc(N4CC[C@@H](O)C4)[nH+]c3)cc2n1C(=O)[O-] (chirality)
[NH-]C(=O)c1cc2ccc(-c3ccc(N4CC[C@@H](O)C4)[nH+]c3)cc2n1C(=O)[O-] (3D coordinates assigned)
[NH-]C(=O)c1cc2ccc(-c3ccc(N4CC[C@@H](O)C4)[nH+]c3)cc2n1C(=O)[O-] (nonaromatic ring conformer: 94.5774716182879 kcal/mol)

>  <smiles>  (70) 
NC(=O)c1cc2ccc(-c3ccc(N4CCC(O)C4)nc3)cc2n1C(=O)O

>  <score_type>  (70) 
oracle

>  <origin>  (70) 
adg

>  <m_score__min__energy>  (70) 
-8.3399999999999999

>  <m_primary>  (70) 
energy

$$$$
70:0
     RDKit          3D

 60 62  0  0  0  0  0  0  0  0999 V2000
  139.2610  146.9680  130.3060 C   0  0  0  0  0  0  0  0  0  0  0  0
  139.6330  148.3620  130.0000 N   0  0  0  0  0  0  0  0  0  0  0  0
  138.4250  149.1150  129.6180 C   0  0  0  0  0  0  0  0  0  0  0  0
  140.2960  149.0030  131.1590 C   0  0  0  0  0  0  0  0  0  0  0  0
  139.6870  150.3830  131.4470 C   0  0  0  0  0  0  0  0  0  0  0  0
  140.1920  150.9310  132.7100 N   0  0  0  0  0  0  0  0  0  0  0  0
  141.3520  151.7810  132.7860 C   0  0  0  0  0  0  0  0  0  0  0  0
  142.6320  151.2060  132.6920 C   0  0  0  0  0  0  0  0  0  0  0  0
  142.7710  149.8680  132.5120 F   0  0  0  0  0  0  0  0  0  0  0  0
  143.7770  152.0040  132.7620 C   0  0  0  0  0  0  0  0  0  0  0  0
  143.6680  153.3900  132.9510 C   0  0  0  0  0  0  0  0  0  0  0  0
  144.8820  154.2330  133.0480 C   0  0  0  0  0  0  0  0  0  0  0  0
  146.1680  153.6340  133.0590 C   0  0  0  0  0  0  0  0  0  0  0  0
  147.3270  154.4240  133.1150 C   0  0  0  0  0  0  0  0  0  0  0  0
  147.1740  155.8050  133.1760 C   0  0  0  0  0  0  0  0  0  0  0  0
  148.1230  156.8010  133.2150 C   0  0  0  0  0  0  0  0  0  0  0  0
  147.4040  157.9920  133.2780 C   0  0  0  0  0  0  0  0  0  0  0  0
  148.0370  159.3190  133.4260 C   0  0  0  0  0  0  0  0  0  0  0  0
  147.7040  160.3910  132.5460 N   0  0  0  0  0  0  0  0  0  0  0  0
  148.8470  159.5210  134.3700 O   0  0  0  0  0  0  0  0  0  0  0  0
  146.0640  157.7420  133.2700 N   0  0  0  0  0  0  0  0  0  0  0  0
  144.9930  158.6970  133.2750 C   0  0  0  0  0  0  0  0  0  0  0  0
  145.2060  159.8660  133.6940 O   0  0  0  0  0  0  0  0  0  0  0  0
  143.7220  158.3110  132.8200 O   0  0  0  0  0  0  0  0  0  0  0  0
  142.4880  158.4280  133.5460 C   0  0  0  0  0  0  0  0  0  0  0  0
  141.3800  157.8380  132.6600 C   0  0  0  0  0  0  0  0  0  0  0  0
  142.5550  157.6290  134.8610 C   0  0  0  0  0  0  0  0  0  0  0  0
  142.1630  159.9090  133.8230 C   0  0  0  0  0  0  0  0  0  0  0  0
  145.9390  156.4000  133.2030 C   0  0  0  0  0  0  0  0  0  0  0  0
  144.7670  155.6400  133.1190 C   0  0  0  0  0  0  0  0  0  0  0  0
  142.3930  153.9650  133.0610 C   0  0  0  0  0  0  0  0  0  0  0  0
  141.2440  153.1750  132.9730 C   0  0  0  0  0  0  0  0  0  0  0  0
  140.0370  153.7770  133.1100 F   0  0  0  0  0  0  0  0  0  0  0  0
  139.2240  146.8293  131.3966 H   0  0  0  0  0  0  0  0  0  0  0  0
  138.2730  146.7491  129.8748 H   0  0  0  0  0  0  0  0  0  0  0  0
  140.0086  146.2859  129.8748 H   0  0  0  0  0  0  0  0  0  0  0  0
  137.8964  149.4445  130.5246 H   0  0  0  0  0  0  0  0  0  0  0  0
  138.7136  149.9934  129.0221 H   0  0  0  0  0  0  0  0  0  0  0  0
  137.7634  148.4691  129.0221 H   0  0  0  0  0  0  0  0  0  0  0  0
  140.1709  148.3626  132.0446 H   0  0  0  0  0  0  0  0  0  0  0  0
  141.3630  149.1326  130.9250 H   0  0  0  0  0  0  0  0  0  0  0  0
  139.9486  151.0690  130.6279 H   0  0  0  0  0  0  0  0  0  0  0  0
  138.5954  150.2730  131.5261 H   0  0  0  0  0  0  0  0  0  0  0  0
  139.7930  150.5680  133.6090 H   0  0  0  0  0  0  0  0  0  0  0  0
  144.7710  151.5422  132.6682 H   0  0  0  0  0  0  0  0  0  0  0  0
  146.2579  152.5383  133.0233 H   0  0  0  0  0  0  0  0  0  0  0  0
  148.3264  153.9645  133.1108 H   0  0  0  0  0  0  0  0  0  0  0  0
  149.2164  156.6817  133.1997 H   0  0  0  0  0  0  0  0  0  0  0  0
  146.7830  160.8790  132.6170 H   0  0  0  0  0  0  0  0  0  0  0  0
  140.5877  157.4161  133.2959 H   0  0  0  0  0  0  0  0  0  0  0  0
  140.9574  158.6305  132.0249 H   0  0  0  0  0  0  0  0  0  0  0  0
  141.8017  157.0450  132.0249 H   0  0  0  0  0  0  0  0  0  0  0  0
  142.4970  158.3212  135.7140 H   0  0  0  0  0  0  0  0  0  0  0  0
  141.7129  156.9226  134.9041 H   0  0  0  0  0  0  0  0  0  0  0  0
  143.5029  157.0726  134.9041 H   0  0  0  0  0  0  0  0  0  0  0  0
  142.1256  160.0793  134.9091 H   0  0  0  0  0  0  0  0  0  0  0  0
  142.9430  160.5449  133.3788 H   0  0  0  0  0  0  0  0  0  0  0  0
  141.1884  160.1598  133.3788 H   0  0  0  0  0  0  0  0  0  0  0  0
  143.7801  156.1258  133.1085 H   0  0  0  0  0  0  0  0  0  0  0  0
  142.2969  155.0495  133.2182 H   0  0  0  0  0  0  0  0  0  0  0  0
  1  2  1  0
  2  3  1  0
  2  4  1  0
  4  5  1  0
  5  6  1  0
  6  7  1  0
  7  8  2  0
  8  9  1  0
  8 10  1  0
 10 11  2  0
 11 12  1  0
 12 13  2  0
 13 14  1  0
 14 15  2  0
 15 16  1  0
 16 17  2  0
 17 18  1  0
 18 19  1  0
 18 20  2  0
 17 21  1  0
 21 22  1  0
 22 23  2  0
 22 24  1  0
 24 25  1  0
 25 26  1  0
 25 27  1  0
 25 28  1  0
 21 29  1  0
 29 30  2  0
 11 31  1  0
 31 32  2  0
 32 33  1  0
 32  7  1  0
 30 12  1  0
 29 15  1  0
  1 34  1  0
  1 35  1  0
  1 36  1  0
  3 37  1  0
  3 38  1  0
  3 39  1  0
  4 40  1  0
  4 41  1  0
  5 42  1  0
  5 43  1  0
  6 44  1  0
 10 45  1  0
 13 46  1  0
 14 47  1  0
 16 48  1  0
 19 49  1  0
 26 50  1  0
 26 51  1  0
 26 52  1  0
 27 53  1  0
 27 54  1  0
 27 55  1  0
 28 56  1  0
 28 57  1  0
 28 58  1  0
 30 59  1  0
 31 60  1  0
M  CHG  1  19  -1
M  END
>  <UniqueID>  (71) 
69

>  <SMILES>  (71) 
CN(C)CCNc1c(F)cc(-c2ccc3cc(C([NH-])=O)n(C(=O)OC(C)(C)C)c3c2)cc1F

>  <Energy>  (71) 
103.13984079544767

>  <Genealogy>  (71) 
CN(C)CCNc1c(F)cc(-c2ccc3cc(C([NH-])=O)n(C(=O)OC(C)(C)C)c3c2)cc1F (protonated)
CN(C)CCNc1c(F)cc(-c2ccc3cc(C([NH-])=O)n(C(=O)OC(C)(C)C)c3c2)cc1F (3D coordinates assigned)
CN(C)CCNc1c(F)cc(-c2ccc3cc(C([NH-])=O)n(C(=O)OC(C)(C)C)c3c2)cc1F (optimized conformer: 103.13984079544767 kcal/mol)

>  <smiles>  (71) 
CN(C)CCNc1c(F)cc(-c2ccc3cc(C(N)=O)n(C(=O)OC(C)(C)C)c3c2)cc1F

>  <score_type>  (71) 
oracle

>  <origin>  (71) 
adg

>  <m_score__min__energy>  (71) 
-9.2599999999999998

>  <m_primary>  (71) 
energy

$$$$
71:0
     RDKit          3D

 43 45  0  0  0  0  0  0  0  0999 V2000
  139.1990  149.4840  130.3440 C   0  0  0  0  0  0  0  0  0  0  0  0
  139.5980  150.4000  131.3370 O   0  0  0  0  0  0  0  0  0  0  0  0
  140.2430  149.7290  132.4060 C   0  0  0  0  0  0  0  0  0  0  0  0
  140.9820  150.7420  133.2810 C   0  0  0  0  0  0  0  0  0  0  0  0
  141.2660  151.9680  132.5360 N   0  0  0  0  0  0  0  0  0  0  0  0
  142.4140  152.7900  132.8030 C   0  0  0  0  0  0  0  0  0  0  0  0
  143.6590  152.2390  132.8310 N   0  0  0  0  0  0  0  0  0  0  0  0
  144.7700  152.9800  133.0730 C   0  0  0  0  0  0  0  0  0  0  0  0
  144.6600  154.3500  133.3090 C   0  0  0  0  0  0  0  0  0  0  0  0
  143.3950  154.9590  133.2970 C   0  0  0  0  0  0  0  0  0  0  0  0
  143.2720  156.4140  133.5550 C   0  0  0  0  0  0  0  0  0  0  0  0
  142.0190  156.9750  133.9180 C   0  0  0  0  0  0  0  0  0  0  0  0
  141.8930  158.3520  134.1600 C   0  0  0  0  0  0  0  0  0  0  0  0
  143.0330  159.1420  134.0480 C   0  0  0  0  0  0  0  0  0  0  0  0
  143.1860  160.5010  134.2000 C   0  0  0  0  0  0  0  0  0  0  0  0
  144.5360  160.7470  133.9630 C   0  0  0  0  0  0  0  0  0  0  0  0
  145.1550  162.0790  134.1010 C   0  0  0  0  0  0  0  0  0  0  0  0
  146.5700  162.2290  134.2300 N   0  0  0  0  0  0  0  0  0  0  0  0
  144.4190  163.1010  134.1620 O   0  0  0  0  0  0  0  0  0  0  0  0
  145.1900  159.5900  133.6600 N   0  0  0  0  0  0  0  0  0  0  0  0
  146.5540  159.4340  133.2360 C   0  0  0  0  0  0  0  0  0  0  0  0
  147.0800  160.2870  132.4730 O   0  0  0  0  0  0  0  0  0  0  0  0
  147.5260  158.0900  133.8100 Cl  0  0  0  0  0  0  0  0  0  0  0  0
  144.2560  158.6160  133.7220 C   0  0  0  0  0  0  0  0  0  0  0  0
  144.4080  157.2500  133.4570 C   0  0  0  0  0  0  0  0  0  0  0  0
  142.2610  154.1680  133.0340 C   0  0  0  0  0  0  0  0  0  0  0  0
  141.0270  154.7320  132.9720 F   0  0  0  0  0  0  0  0  0  0  0  0
  138.8032  148.5753  130.8211 H   0  0  0  0  0  0  0  0  0  0  0  0
  138.4177  149.9394  129.7177 H   0  0  0  0  0  0  0  0  0  0  0  0
  140.0645  149.2220  129.7177 H   0  0  0  0  0  0  0  0  0  0  0  0
  139.4921  149.2014  133.0125 H   0  0  0  0  0  0  0  0  0  0  0  0
  140.9645  149.0054  131.9988 H   0  0  0  0  0  0  0  0  0  0  0  0
  140.3580  150.9872  134.1531 H   0  0  0  0  0  0  0  0  0  0  0  0
  141.9356  150.2980  133.6027 H   0  0  0  0  0  0  0  0  0  0  0  0
  140.6130  152.2300  131.7630 H   0  0  0  0  0  0  0  0  0  0  0  0
  145.7592  152.4990  133.0830 H   0  0  0  0  0  0  0  0  0  0  0  0
  145.5605  154.9510  133.5037 H   0  0  0  0  0  0  0  0  0  0  0  0
  141.1376  156.3235  134.0106 H   0  0  0  0  0  0  0  0  0  0  0  0
  140.9223  158.7933  134.4301 H   0  0  0  0  0  0  0  0  0  0  0  0
  142.4082  161.2360  134.4544 H   0  0  0  0  0  0  0  0  0  0  0  0
  147.1910  161.3980  134.3450 H   0  0  0  0  0  0  0  0  0  0  0  0
  146.9930  163.1820  134.2910 H   0  0  0  0  0  0  0  0  0  0  0  0
  145.3887  156.8365  133.1789 H   0  0  0  0  0  0  0  0  0  0  0  0
  1  2  1  0
  2  3  1  0
  3  4  1  0
  4  5  1  0
  5  6  1  0
  6  7  2  0
  7  8  1  0
  8  9  2  0
  9 10  1  0
 10 11  1  0
 11 12  2  0
 12 13  1  0
 13 14  2  0
 14 15  1  0
 15 16  2  0
 16 17  1  0
 17 18  1  0
 17 19  2  0
 16 20  1  0
 20 21  1  0
 21 22  2  0
 21 23  1  0
 20 24  1  0
 24 25  2  0
 10 26  2  0
 26 27  1  0
 26  6  1  0
 25 11  1  0
 24 14  1  0
  1 28  1  0
  1 29  1  0
  1 30  1  0
  3 31  1  0
  3 32  1  0
  4 33  1  0
  4 34  1  0
  5 35  1  0
  8 36  1  0
  9 37  1  0
 12 38  1  0
 13 39  1  0
 15 40  1  0
 18 41  1  0
 18 42  1  0
 25 43  1  0
M  END
>  <UniqueID>  (72) 
70

>  <SMILES>  (72) 
COCCNc1nccc(-c2ccc3cc(C(N)=O)n(C(=O)Cl)c3c2)c1F

>  <Energy>  (72) 
91.14744780778673

>  <Genealogy>  (72) 
COCCNc1nccc(-c2ccc3cc(C(N)=O)n(C(=O)Cl)c3c2)c1F (3D coordinates assigned)
COCCNc1nccc(-c2ccc3cc(C(N)=O)n(C(=O)Cl)c3c2)c1F (optimized conformer: 91.14744780778673 kcal/mol)

>  <smiles>  (72) 
COCCNc1nccc(-c2ccc3cc(C(N)=O)n(C(=O)Cl)c3c2)c1F

>  <score_type>  (72) 
oracle

>  <origin>  (72) 
adg

>  <m_score__min__energy>  (72) 
-8.1099999999999994

>  <m_primary>  (72) 
energy

$$$$
72:0
     RDKit          3D

 46 48  0  0  0  0  0  0  0  0999 V2000
  147.6520  159.8500  132.3810 C   0  0  0  0  0  0  0  0  0  0  0  0
  146.2360  159.7280  132.3410 O   0  0  0  0  0  0  0  0  0  0  0  0
  145.5250  158.8970  133.2110 C   0  0  0  0  0  0  0  0  0  0  0  0
  146.0630  157.8600  133.6850 O   0  0  0  0  0  0  0  0  0  0  0  0
  144.1650  159.2160  133.5460 N   0  0  0  0  0  0  0  0  0  0  0  0
  143.6410  160.4340  133.8600 C   0  0  0  0  0  0  0  0  0  0  0  0
  144.3440  161.7310  133.7830 C   0  0  0  0  0  0  0  0  0  0  0  0
  145.7290  161.8360  134.1060 N   0  0  0  0  0  0  0  0  0  0  0  0
  143.7260  162.7540  133.3820 O   0  0  0  0  0  0  0  0  0  0  0  0
  142.2890  160.3150  134.1830 C   0  0  0  0  0  0  0  0  0  0  0  0
  141.9980  158.9790  134.0440 C   0  0  0  0  0  0  0  0  0  0  0  0
  140.7960  158.3010  134.2230 C   0  0  0  0  0  0  0  0  0  0  0  0
  140.7810  156.9150  133.9960 C   0  0  0  0  0  0  0  0  0  0  0  0
  141.9610  156.2310  133.6070 C   0  0  0  0  0  0  0  0  0  0  0  0
  141.9210  154.8230  133.3030 N   0  0  0  0  0  0  0  0  0  0  0  0
  140.6310  154.1790  133.0430 C   0  0  0  0  0  0  0  0  0  0  0  0
  143.1620  154.0310  133.2840 C   0  0  0  0  0  0  0  0  0  0  0  0
  144.0080  154.3450  132.0400 C   0  0  0  0  0  0  0  0  0  0  0  0
  145.4880  154.3220  132.3350 C   0  0  0  0  0  0  0  0  0  0  0  0
  146.1300  153.1130  132.6520 C   0  0  0  0  0  0  0  0  0  0  0  0
  147.4850  153.1210  132.9840 C   0  0  0  0  0  0  0  0  0  0  0  0
  148.1880  154.3250  132.9990 C   0  0  0  0  0  0  0  0  0  0  0  0
  147.5270  155.5070  132.6640 C   0  0  0  0  0  0  0  0  0  0  0  0
  146.2060  155.4850  132.3360 N   0  0  0  0  0  0  0  0  0  0  0  0
  143.1680  156.9520  133.4640 C   0  0  0  0  0  0  0  0  0  0  0  0
  143.1460  158.3360  133.6630 C   0  0  0  0  0  0  0  0  0  0  0  0
  147.9881  159.8790  133.4280 H   0  0  0  0  0  0  0  0  0  0  0  0
  148.1088  158.9879  131.8730 H   0  0  0  0  0  0  0  0  0  0  0  0
  147.9546  160.7776  131.8730 H   0  0  0  0  0  0  0  0  0  0  0  0
  146.4640  161.6180  133.3960 H   0  0  0  0  0  0  0  0  0  0  0  0
  141.6020  161.1194  134.4847 H   0  0  0  0  0  0  0  0  0  0  0  0
  139.8852  158.8344  134.5329 H   0  0  0  0  0  0  0  0  0  0  0  0
  139.8434  156.3536  134.1214 H   0  0  0  0  0  0  0  0  0  0  0  0
  140.1435  153.9356  133.9986 H   0  0  0  0  0  0  0  0  0  0  0  0
  139.9893  154.8625  132.4676 H   0  0  0  0  0  0  0  0  0  0  0  0
  140.7916  153.2554  132.4676 H   0  0  0  0  0  0  0  0  0  0  0  0
  143.7493  154.2641  134.1844 H   0  0  0  0  0  0  0  0  0  0  0  0
  142.8922  152.9649  133.2594 H   0  0  0  0  0  0  0  0  0  0  0  0
  143.7898  153.5955  131.2650 H   0  0  0  0  0  0  0  0  0  0  0  0
  143.7472  155.3588  131.7020 H   0  0  0  0  0  0  0  0  0  0  0  0
  145.5684  152.1673  132.6385 H   0  0  0  0  0  0  0  0  0  0  0  0
  147.9973  152.1801  133.2332 H   0  0  0  0  0  0  0  0  0  0  0  0
  149.2534  154.3427  133.2723 H   0  0  0  0  0  0  0  0  0  0  0  0
  148.0754  156.4605  132.6649 H   0  0  0  0  0  0  0  0  0  0  0  0
  145.7370  156.3860  132.0940 H   0  0  0  0  0  0  0  0  0  0  0  0
  144.1036  156.4362  133.2021 H   0  0  0  0  0  0  0  0  0  0  0  0
  1  2  1  0
  2  3  1  0
  3  4  2  0
  3  5  1  0
  5  6  1  0
  6  7  1  0
  7  8  1  0
  7  9  2  0
  6 10  2  0
 10 11  1  0
 11 12  2  0
 12 13  1  0
 13 14  2  0
 14 15  1  0
 15 16  1  0
 15 17  1  0
 17 18  1  0
 18 19  1  0
 19 20  2  0
 20 21  1  0
 21 22  2  0
 22 23  1  0
 23 24  2  0
 14 25  1  0
 25 26  2  0
 26  5  1  0
 26 11  1  0
 24 19  1  0
  1 27  1  0
  1 28  1  0
  1 29  1  0
  8 30  1  0
 10 31  1  0
 12 32  1  0
 13 33  1  0
 16 34  1  0
 16 35  1  0
 16 36  1  0
 17 37  1  0
 17 38  1  0
 18 39  1  0
 18 40  1  0
 20 41  1  0
 21 42  1  0
 22 43  1  0
 23 44  1  0
 24 45  1  0
 25 46  1  0
M  CHG  2   8  -1  24   1
M  END
>  <UniqueID>  (73) 
71

>  <SMILES>  (73) 
COC(=O)n1c(C([NH-])=O)cc2ccc(N(C)CCc3cccc[nH+]3)cc21

>  <Energy>  (73) 
81.87228253597476

>  <Genealogy>  (73) 
COC(=O)n1c(C([NH-])=O)cc2ccc(N(C)CCc3cccc[nH+]3)cc21 (protonated)
COC(=O)n1c(C([NH-])=O)cc2ccc(N(C)CCc3cccc[nH+]3)cc21 (3D coordinates assigned)
COC(=O)n1c(C([NH-])=O)cc2ccc(N(C)CCc3cccc[nH+]3)cc21 (optimized conformer: 81.87228253597476 kcal/mol)

>  <smiles>  (73) 
COC(=O)n1c(C(N)=O)cc2ccc(N(C)CCc3ccccn3)cc21

>  <score_type>  (73) 
oracle

>  <origin>  (73) 
adg

>  <m_score__min__energy>  (73) 
-7.21

>  <m_primary>  (73) 
energy

$$$$
73:0
     RDKit          3D

 42 44  0  0  0  0  0  0  0  0999 V2000
  137.2100  159.3020  131.1070 C   0  0  0  0  0  0  0  0  0  0  0  0
  138.8240  159.1230  131.8360 S   0  0  0  0  0  0  0  0  0  0  0  0
  139.8320  158.8820  130.7470 O   0  0  0  0  0  0  0  0  0  0  0  0
  139.1650  160.4010  132.5510 O   0  0  0  0  0  0  0  0  0  0  0  0
  138.8070  157.7830  132.9650 N   0  0  0  0  0  0  0  0  0  0  0  0
  139.8260  156.7580  132.6190 C   0  0  0  0  0  0  0  0  0  0  0  0
  141.0200  156.7130  133.5870 C   0  0  0  0  0  0  0  0  0  0  0  0
  141.3280  158.0620  134.0710 N   0  0  0  0  0  0  0  0  0  0  0  0
  142.6370  158.6400  133.8990 C   0  0  0  0  0  0  0  0  0  0  0  0
  142.8060  160.0470  133.9280 C   0  0  0  0  0  0  0  0  0  0  0  0
  144.0720  160.6230  133.7330 C   0  0  0  0  0  0  0  0  0  0  0  0
  145.1490  159.7720  133.5100 C   0  0  0  0  0  0  0  0  0  0  0  0
  146.4700  160.0650  133.2620 C   0  0  0  0  0  0  0  0  0  0  0  0
  147.0970  158.8300  133.0960 C   0  0  0  0  0  0  0  0  0  0  0  0
  148.5540  158.6670  132.9010 C   0  0  0  0  0  0  0  0  0  0  0  0
  149.0620  157.7480  131.9330 N   0  0  0  0  0  0  0  0  0  0  0  0
  149.3630  159.3660  133.5670 O   0  0  0  0  0  0  0  0  0  0  0  0
  146.1970  157.8150  133.2340 N   0  0  0  0  0  0  0  0  0  0  0  0
  146.4360  156.4070  133.0640 C   0  0  0  0  0  0  0  0  0  0  0  0
  146.9990  155.9770  132.0240 O   0  0  0  0  0  0  0  0  0  0  0  0
  146.0640  155.5080  134.0560 O   0  0  0  0  0  0  0  0  0  0  0  0
  145.0090  158.4080  133.4880 C   0  0  0  0  0  0  0  0  0  0  0  0
  143.7570  157.8080  133.6630 C   0  0  0  0  0  0  0  0  0  0  0  0
  140.2570  158.8390  134.7040 C   0  0  0  0  0  0  0  0  0  0  0  0
  138.8790  158.2460  134.3660 C   0  0  0  0  0  0  0  0  0  0  0  0
  136.4554  159.3857  131.9030 H   0  0  0  0  0  0  0  0  0  0  0  0
  137.1876  160.2081  130.4838 H   0  0  0  0  0  0  0  0  0  0  0  0
  136.9896  158.4228  130.4838 H   0  0  0  0  0  0  0  0  0  0  0  0
  139.3397  155.7713  132.6231 H   0  0  0  0  0  0  0  0  0  0  0  0
  140.2268  157.0279  131.6308 H   0  0  0  0  0  0  0  0  0  0  0  0
  140.7707  156.0678  134.4423 H   0  0  0  0  0  0  0  0  0  0  0  0
  141.8970  156.3116  133.0581 H   0  0  0  0  0  0  0  0  0  0  0  0
  141.9353  160.6954  134.1053 H   0  0  0  0  0  0  0  0  0  0  0  0
  144.2076  161.7144  133.7560 H   0  0  0  0  0  0  0  0  0  0  0  0
  146.9333  161.0611  133.2064 H   0  0  0  0  0  0  0  0  0  0  0  0
  148.4260  157.1140  131.4000 H   0  0  0  0  0  0  0  0  0  0  0  0
  150.0920  157.6690  131.7750 H   0  0  0  0  0  0  0  0  0  0  0  0
  143.6460  156.7145  133.6181 H   0  0  0  0  0  0  0  0  0  0  0  0
  140.3978  158.8252  135.7949 H   0  0  0  0  0  0  0  0  0  0  0  0
  140.2992  159.8710  134.3255 H   0  0  0  0  0  0  0  0  0  0  0  0
  138.6858  157.3928  135.0329 H   0  0  0  0  0  0  0  0  0  0  0  0
  138.1253  159.0353  134.5033 H   0  0  0  0  0  0  0  0  0  0  0  0
  1  2  1  0
  2  3  2  0
  2  4  2  0
  2  5  1  0
  5  6  1  0
  6  7  1  0
  7  8  1  0
  8  9  1  0
  9 10  2  0
 10 11  1  0
 11 12  2  0
 12 13  1  0
 13 14  2  0
 14 15  1  0
 15 16  1  0
 15 17  2  0
 14 18  1  0
 18 19  1  0
 19 20  2  0
 19 21  1  0
 18 22  1  0
 22 23  2  0
  8 24  1  0
 24 25  1  0
 25  5  1  0
 23  9  1  0
 22 12  1  0
  1 26  1  0
  1 27  1  0
  1 28  1  0
  6 29  1  0
  6 30  1  0
  7 31  1  0
  7 32  1  0
 10 33  1  0
 11 34  1  0
 13 35  1  0
 16 36  1  0
 16 37  1  0
 23 38  1  0
 24 39  1  0
 24 40  1  0
 25 41  1  0
 25 42  1  0
M  CHG  1  21  -1
M  END
>  <UniqueID>  (74) 
72

>  <SMILES>  (74) 
CS(=O)(=O)N1CCN(c2ccc3cc(C(N)=O)n(C(=O)[O-])c3c2)CC1

>  <Energy>  (74) 
88.30775825108802

>  <Genealogy>  (74) 
CS(=O)(=O)N1CCN(c2ccc3cc(C(N)=O)n(C(=O)[O-])c3c2)CC1 (protonated)
CS(=O)(=O)N1CCN(c2ccc3cc(C(N)=O)n(C(=O)[O-])c3c2)CC1 (3D coordinates assigned)
CS(=O)(=O)N1CCN(c2ccc3cc(C(N)=O)n(C(=O)[O-])c3c2)CC1 (nonaromatic ring conformer: 88.30775825108802 kcal/mol)

>  <smiles>  (74) 
CS(=O)(=O)N1CCN(c2ccc3cc(C(N)=O)n(C(=O)O)c3c2)CC1

>  <score_type>  (74) 
oracle

>  <origin>  (74) 
adg

>  <m_score__min__energy>  (74) 
-7.8700000000000001

>  <m_primary>  (74) 
energy

$$$$
74:0
     RDKit          3D

 47 48  0  0  0  0  0  0  0  0999 V2000
  144.3500  154.4770  131.4460 C   0  0  0  0  0  0  0  0  0  0  0  0
  144.1620  154.7690  132.7320 C   0  0  0  0  0  0  0  0  0  0  0  0
  145.2780  154.8830  133.6910 C   0  0  0  0  0  0  0  0  0  0  0  0
  145.2720  154.2140  134.7590 O   0  0  0  0  0  0  0  0  0  0  0  0
  146.4030  155.7270  133.3910 N   0  0  0  0  0  0  0  0  0  0  0  0
  147.6850  155.3480  133.1180 C   0  0  0  0  0  0  0  0  0  0  0  0
  148.1460  153.9550  132.9310 C   0  0  0  0  0  0  0  0  0  0  0  0
  147.4710  152.8700  133.5710 N   0  0  0  0  0  0  0  0  0  0  0  0
  149.1580  153.7140  132.2210 O   0  0  0  0  0  0  0  0  0  0  0  0
  148.4920  156.4700  132.9320 C   0  0  0  0  0  0  0  0  0  0  0  0
  147.6580  157.5530  133.0970 C   0  0  0  0  0  0  0  0  0  0  0  0
  147.9310  158.9150  133.0160 C   0  0  0  0  0  0  0  0  0  0  0  0
  146.8740  159.8120  133.2390 C   0  0  0  0  0  0  0  0  0  0  0  0
  145.5730  159.3360  133.5470 C   0  0  0  0  0  0  0  0  0  0  0  0
  144.4360  160.3050  133.7390 C   0  0  0  0  0  0  0  0  0  0  0  0
  143.1640  159.6010  134.2280 C   0  0  0  0  0  0  0  0  0  0  0  0
  141.9320  160.2260  133.6480 C   0  0  0  0  0  0  0  0  0  0  0  0
  141.7550  161.4700  133.7420 O   0  0  0  0  0  0  0  0  0  0  0  0
  140.9880  159.4090  132.9450 N   0  0  0  0  0  0  0  0  0  0  0  0
  140.8450  157.9760  133.1630 C   0  0  0  0  0  0  0  0  0  0  0  0
  139.4430  157.5440  132.8740 C   0  0  0  0  0  0  0  0  0  0  0  0
  139.1240  156.3290  132.9970 O   0  0  0  0  0  0  0  0  0  0  0  0
  138.4930  158.4990  132.4940 O   0  0  0  0  0  0  0  0  0  0  0  0
  138.3410  158.9630  131.1550 C   0  0  0  0  0  0  0  0  0  0  0  0
  138.5810  160.4680  131.0790 C   0  0  0  0  0  0  0  0  0  0  0  0
  145.3330  157.9460  133.6130 C   0  0  0  0  0  0  0  0  0  0  0  0
  146.4030  157.0760  133.3730 C   0  0  0  0  0  0  0  0  0  0  0  0
  143.4877  154.4023  130.7672 H   0  0  0  0  0  0  0  0  0  0  0  0
  145.3676  154.3106  131.0628 H   0  0  0  0  0  0  0  0  0  0  0  0
  143.1357  154.9314  133.0930 H   0  0  0  0  0  0  0  0  0  0  0  0
  147.8290  151.8950  133.4620 H   0  0  0  0  0  0  0  0  0  0  0  0
  146.5950  153.0210  134.1180 H   0  0  0  0  0  0  0  0  0  0  0  0
  149.5676  156.4863  132.7021 H   0  0  0  0  0  0  0  0  0  0  0  0
  148.9433  159.2777  132.7845 H   0  0  0  0  0  0  0  0  0  0  0  0
  147.0562  160.8949  133.1743 H   0  0  0  0  0  0  0  0  0  0  0  0
  144.7331  161.0599  134.4819 H   0  0  0  0  0  0  0  0  0  0  0  0
  144.2166  160.7715  132.7673 H   0  0  0  0  0  0  0  0  0  0  0  0
  143.2032  158.5434  133.9281 H   0  0  0  0  0  0  0  0  0  0  0  0
  143.1163  159.6965  135.3228 H   0  0  0  0  0  0  0  0  0  0  0  0
  141.5352  157.4371  132.4972 H   0  0  0  0  0  0  0  0  0  0  0  0
  141.0799  157.7489  134.2134 H   0  0  0  0  0  0  0  0  0  0  0  0
  139.0671  158.4478  130.5090 H   0  0  0  0  0  0  0  0  0  0  0  0
  137.3155  158.7495  130.8194 H   0  0  0  0  0  0  0  0  0  0  0  0
  138.6468  160.8807  132.0965 H   0  0  0  0  0  0  0  0  0  0  0  0
  139.5215  160.6627  130.5428 H   0  0  0  0  0  0  0  0  0  0  0  0
  137.7477  160.9456  130.5428 H   0  0  0  0  0  0  0  0  0  0  0  0
  144.3311  157.5569  133.8470 H   0  0  0  0  0  0  0  0  0  0  0  0
  1  2  2  0
  2  3  1  0
  3  4  2  0
  3  5  1  0
  5  6  1  0
  6  7  1  0
  7  8  1  0
  7  9  2  0
  6 10  2  0
 10 11  1  0
 11 12  2  0
 12 13  1  0
 13 14  2  0
 14 15  1  0
 15 16  1  0
 16 17  1  0
 17 18  2  0
 17 19  1  0
 19 20  1  0
 20 21  1  0
 21 22  2  0
 21 23  1  0
 23 24  1  0
 24 25  1  0
 14 26  1  0
 26 27  2  0
 27  5  1  0
 27 11  1  0
  1 28  1  0
  1 29  1  0
  2 30  1  0
  8 31  1  0
  8 32  1  0
 10 33  1  0
 12 34  1  0
 13 35  1  0
 15 36  1  0
 15 37  1  0
 16 38  1  0
 16 39  1  0
 20 40  1  0
 20 41  1  0
 24 42  1  0
 24 43  1  0
 25 44  1  0
 25 45  1  0
 25 46  1  0
 26 47  1  0
M  CHG  1  19  -1
M  END
>  <UniqueID>  (75) 
73

>  <SMILES>  (75) 
C=CC(=O)n1c(C(N)=O)cc2ccc(CCC(=O)[N-]CC(=O)OCC)cc21

>  <Energy>  (75) 
73.01203610591827

>  <Genealogy>  (75) 
C=CC(=O)n1c(C(N)=O)cc2ccc(CCC(=O)[N-]CC(=O)OCC)cc21 (protonated)
C=CC(=O)n1c(C(N)=O)cc2ccc(CCC(=O)[N-]CC(=O)OCC)cc21 (3D coordinates assigned)
C=CC(=O)n1c(C(N)=O)cc2ccc(CCC(=O)[N-]CC(=O)OCC)cc21 (optimized conformer: 73.01203610591827 kcal/mol)

>  <smiles>  (75) 
C=CC(=O)n1c(C(N)=O)cc2ccc(CCC(=O)NCC(=O)OCC)cc21

>  <score_type>  (75) 
oracle

>  <origin>  (75) 
adg

>  <m_score__min__energy>  (75) 
-7.8300000000000001

>  <m_primary>  (75) 
energy

$$$$
75:0
     RDKit          3D

 32 33  0  0  0  0  0  0  0  0999 V2000
  143.0120  161.3070  133.4100 N   0  0  0  0  0  0  0  0  0  0  0  0
  144.3900  161.4760  133.7310 C   0  0  0  0  0  0  0  0  0  0  0  0
  144.8000  162.6040  134.1150 O   0  0  0  0  0  0  0  0  0  0  0  0
  145.3510  160.3660  133.5650 C   0  0  0  0  0  0  0  0  0  0  0  0
  146.7300  160.5530  133.4870 C   0  0  0  0  0  0  0  0  0  0  0  0
  147.2540  159.3040  133.2430 C   0  0  0  0  0  0  0  0  0  0  0  0
  148.5780  158.9050  133.0830 C   0  0  0  0  0  0  0  0  0  0  0  0
  148.8340  157.5410  132.8690 C   0  0  0  0  0  0  0  0  0  0  0  0
  147.7700  156.6050  132.8250 C   0  0  0  0  0  0  0  0  0  0  0  0
  148.0670  155.1480  132.6120 C   0  0  0  0  0  0  0  0  0  0  0  0
  149.4310  154.9630  132.4840 F   0  0  0  0  0  0  0  0  0  0  0  0
  147.6080  154.4170  133.6930 F   0  0  0  0  0  0  0  0  0  0  0  0
  146.4390  157.0460  132.9950 C   0  0  0  0  0  0  0  0  0  0  0  0
  146.2120  158.4150  133.1870 C   0  0  0  0  0  0  0  0  0  0  0  0
  145.0360  159.0500  133.3870 N   0  0  0  0  0  0  0  0  0  0  0  0
  143.7430  158.4320  133.4750 C   0  0  0  0  0  0  0  0  0  0  0  0
  143.3570  157.6430  132.5690 O   0  0  0  0  0  0  0  0  0  0  0  0
  142.9050  158.7300  134.5530 O   0  0  0  0  0  0  0  0  0  0  0  0
  141.5610  158.2700  134.6340 C   0  0  0  0  0  0  0  0  0  0  0  0
  140.6580  159.1760  133.8070 C   0  0  0  0  0  0  0  0  0  0  0  0
  141.1660  159.2910  132.5070 O   0  0  0  0  0  0  0  0  0  0  0  0
  142.5680  160.3630  133.4280 H   0  0  0  0  0  0  0  0  0  0  0  0
  147.2821  161.4980  133.5971 H   0  0  0  0  0  0  0  0  0  0  0  0
  149.3989  159.6361  133.1230 H   0  0  0  0  0  0  0  0  0  0  0  0
  149.8696  157.1955  132.7343 H   0  0  0  0  0  0  0  0  0  0  0  0
  147.5625  154.8084  131.6954 H   0  0  0  0  0  0  0  0  0  0  0  0
  145.6019  156.3326  132.9771 H   0  0  0  0  0  0  0  0  0  0  0  0
  141.5022  157.2424  134.2461 H   0  0  0  0  0  0  0  0  0  0  0  0
  141.2323  158.2878  135.6836 H   0  0  0  0  0  0  0  0  0  0  0  0
  139.6464  158.7459  133.7673 H   0  0  0  0  0  0  0  0  0  0  0  0
  140.6184  160.1723  134.2716 H   0  0  0  0  0  0  0  0  0  0  0  0
  142.1400  159.4480  132.6060 H   0  0  0  0  0  0  0  0  0  0  0  0
  1  2  1  0
  2  3  2  0
  2  4  1  0
  4  5  2  0
  5  6  1  0
  6  7  2  0
  7  8  1  0
  8  9  2  0
  9 10  1  0
 10 11  1  0
 10 12  1  0
  9 13  1  0
 13 14  2  0
 14 15  1  0
 15 16  1  0
 16 17  2  0
 16 18  1  0
 18 19  1  0
 19 20  1  0
 20 21  1  0
 15  4  1  0
 14  6  1  0
  1 22  1  0
  5 23  1  0
  7 24  1  0
  8 25  1  0
 10 26  1  0
 13 27  1  0
 19 28  1  0
 19 29  1  0
 20 30  1  0
 20 31  1  0
 21 32  1  0
M  CHG  1   1  -1
M  END
>  <UniqueID>  (76) 
74

>  <SMILES>  (76) 
[NH-]C(=O)c1cc2ccc(C(F)F)cc2n1C(=O)OCCO

>  <Energy>  (76) 
65.97374938376896

>  <Genealogy>  (76) 
[NH-]C(=O)c1cc2ccc(C(F)F)cc2n1C(=O)OCCO (protonated)
[NH-]C(=O)c1cc2ccc(C(F)F)cc2n1C(=O)OCCO (3D coordinates assigned)
[NH-]C(=O)c1cc2ccc(C(F)F)cc2n1C(=O)OCCO (optimized conformer: 65.97374938376896 kcal/mol)

>  <smiles>  (76) 
NC(=O)c1cc2ccc(C(F)F)cc2n1C(=O)OCCO

>  <score_type>  (76) 
oracle

>  <origin>  (76) 
adg

>  <m_score__min__energy>  (76) 
-5.0800000000000001

>  <m_primary>  (76) 
energy

$$$$
76:0
     RDKit          3D

 44 45  0  0  0  0  0  0  0  0999 V2000
  140.2930  157.8120  136.9630 C   0  0  0  0  0  0  0  0  0  0  0  0
  139.8810  158.6090  135.8760 O   0  0  0  0  0  0  0  0  0  0  0  0
  140.2540  157.9810  134.6680 C   0  0  0  0  0  0  0  0  0  0  0  0
  141.6180  157.3110  134.8320 C   0  0  0  0  0  0  0  0  0  0  0  0
  142.7290  158.2110  134.3540 C   0  0  0  0  0  0  0  0  0  0  0  0
  142.4890  159.5930  134.1550 C   0  0  0  0  0  0  0  0  0  0  0  0
  143.5250  160.4480  133.7390 C   0  0  0  0  0  0  0  0  0  0  0  0
  144.7860  159.8940  133.5400 C   0  0  0  0  0  0  0  0  0  0  0  0
  145.9600  160.4830  133.1270 C   0  0  0  0  0  0  0  0  0  0  0  0
  146.9000  159.4530  133.1000 C   0  0  0  0  0  0  0  0  0  0  0  0
  148.3370  159.6450  132.8020 C   0  0  0  0  0  0  0  0  0  0  0  0
  149.3020  158.6640  133.1910 N   0  0  0  0  0  0  0  0  0  0  0  0
  148.7190  160.6610  132.1650 O   0  0  0  0  0  0  0  0  0  0  0  0
  146.3260  158.2760  133.4770 N   0  0  0  0  0  0  0  0  0  0  0  0
  146.9300  156.9730  133.5240 C   0  0  0  0  0  0  0  0  0  0  0  0
  147.7380  156.6920  134.4490 O   0  0  0  0  0  0  0  0  0  0  0  0
  146.5550  155.9190  132.5230 C   0  0  0  0  0  0  0  0  0  0  0  0
  147.0910  154.5490  132.9500 C   0  0  0  0  0  0  0  0  0  0  0  0
  148.8740  154.5540  133.0110 S   0  0  0  0  0  0  0  0  0  0  0  0
  149.5670  153.2830  131.9760 C   0  0  0  0  0  0  0  0  0  0  0  0
  149.4740  156.0610  132.5650 O   0  0  0  0  0  0  0  0  0  0  0  0
  145.0360  158.5620  133.7460 C   0  0  0  0  0  0  0  0  0  0  0  0
  144.0240  157.6860  134.1470 C   0  0  0  0  0  0  0  0  0  0  0  0
  140.0329  158.3152  137.9059 H   0  0  0  0  0  0  0  0  0  0  0  0
  139.7860  156.8370  136.9157 H   0  0  0  0  0  0  0  0  0  0  0  0
  141.3817  157.6618  136.9157 H   0  0  0  0  0  0  0  0  0  0  0  0
  139.5034  157.2213  134.4045 H   0  0  0  0  0  0  0  0  0  0  0  0
  140.3138  158.7357  133.8699 H   0  0  0  0  0  0  0  0  0  0  0  0
  141.7776  157.0777  135.8951 H   0  0  0  0  0  0  0  0  0  0  0  0
  141.6296  156.3923  134.2271 H   0  0  0  0  0  0  0  0  0  0  0  0
  141.4823  160.0013  134.3276 H   0  0  0  0  0  0  0  0  0  0  0  0
  143.3444  161.5208  133.5760 H   0  0  0  0  0  0  0  0  0  0  0  0
  146.1221  161.5408  132.8725 H   0  0  0  0  0  0  0  0  0  0  0  0
  149.0380  157.8510  133.7920 H   0  0  0  0  0  0  0  0  0  0  0  0
  150.3070  158.7840  132.9350 H   0  0  0  0  0  0  0  0  0  0  0  0
  145.4589  155.8692  132.4450 H   0  0  0  0  0  0  0  0  0  0  0  0
  146.9961  156.1831  131.5505 H   0  0  0  0  0  0  0  0  0  0  0  0
  146.6972  154.3030  133.9472 H   0  0  0  0  0  0  0  0  0  0  0  0
  146.7666  153.7994  132.2132 H   0  0  0  0  0  0  0  0  0  0  0  0
  149.9985  152.4916  132.6064 H   0  0  0  0  0  0  0  0  0  0  0  0
  148.7769  152.8560  131.3409 H   0  0  0  0  0  0  0  0  0  0  0  0
  150.3540  153.7159  131.3409 H   0  0  0  0  0  0  0  0  0  0  0  0
  149.6110  156.5380  133.4240 H   0  0  0  0  0  0  0  0  0  0  0  0
  144.2302  156.6160  134.2975 H   0  0  0  0  0  0  0  0  0  0  0  0
  1  2  1  0
  2  3  1  0
  3  4  1  0
  4  5  1  0
  5  6  2  0
  6  7  1  0
  7  8  2  0
  8  9  1  0
  9 10  2  0
 10 11  1  0
 11 12  1  0
 11 13  2  0
 10 14  1  0
 14 15  1  0
 15 16  2  0
 15 17  1  0
 17 18  1  0
 18 19  1  0
 19 20  1  0
 19 21  1  6
 14 22  1  0
 22 23  2  0
 23  5  1  0
 22  8  1  0
  1 24  1  0
  1 25  1  0
  1 26  1  0
  3 27  1  0
  3 28  1  0
  4 29  1  0
  4 30  1  0
  6 31  1  0
  7 32  1  0
  9 33  1  0
 12 34  1  0
 12 35  1  0
 17 36  1  0
 17 37  1  0
 18 38  1  0
 18 39  1  0
 20 40  1  0
 20 41  1  0
 20 42  1  0
 21 43  1  0
 23 44  1  0
M  CHG  1  19   1
M  END
>  <UniqueID>  (77) 
75

>  <SMILES>  (77) 
COCCc1ccc2cc(C(N)=O)n(C(=O)CC[S@@+](C)O)c2c1

>  <Energy>  (77) 
71.15580239367988

>  <Genealogy>  (77) 
COCCc1ccc2cc(C(N)=O)n(C(=O)CC[S+](C)O)c2c1 (protonated)
COCCc1ccc2cc(C(N)=O)n(C(=O)CC[S@@+](C)O)c2c1 (chirality)
COCCc1ccc2cc(C(N)=O)n(C(=O)CC[S@@+](C)O)c2c1 (3D coordinates assigned)
COCCc1ccc2cc(C(N)=O)n(C(=O)CC[S@@+](C)O)c2c1 (optimized conformer: 71.15580239367988 kcal/mol)

>  <smiles>  (77) 
COCCc1ccc2cc(C(N)=O)n(C(=O)CC[S+](C)[O-])c2c1

>  <score_type>  (77) 
oracle

>  <origin>  (77) 
adg

>  <m_score__min__energy>  (77) 
-6.3499999999999996

>  <m_primary>  (77) 
energy

$$$$
77:0
     RDKit          3D

 34 36  0  0  0  0  0  0  0  0999 V2000
  148.9080  163.1120  130.2180 N   0  0  0  0  0  0  0  0  0  0  0  0
  148.8880  162.0410  130.6530 C   0  0  0  0  0  0  0  0  0  0  0  0
  148.8650  160.7080  131.1960 C   0  0  0  0  0  0  0  0  0  0  0  0
  150.0110  159.9110  131.1430 C   0  0  0  0  0  0  0  0  0  0  0  0
  149.9890  158.6150  131.6650 C   0  0  0  0  0  0  0  0  0  0  0  0
  148.8210  158.0990  132.2470 C   0  0  0  0  0  0  0  0  0  0  0  0
  148.8190  156.7430  132.7120 N   0  0  0  0  0  0  0  0  0  0  0  0
  147.6630  158.9130  132.3230 C   0  0  0  0  0  0  0  0  0  0  0  0
  146.4200  158.4480  132.9770 C   0  0  0  0  0  0  0  0  0  0  0  0
  146.3100  157.1100  133.4290 C   0  0  0  0  0  0  0  0  0  0  0  0
  145.1370  156.6620  134.0610 C   0  0  0  0  0  0  0  0  0  0  0  0
  144.1030  157.5770  134.2410 C   0  0  0  0  0  0  0  0  0  0  0  0
  142.8570  157.4050  134.7980 C   0  0  0  0  0  0  0  0  0  0  0  0
  142.2390  158.6500  134.7110 C   0  0  0  0  0  0  0  0  0  0  0  0
  140.9050  158.9340  135.2790 C   0  0  0  0  0  0  0  0  0  0  0  0
  140.7550  159.3090  136.6460 N   0  0  0  0  0  0  0  0  0  0  0  0
  139.8790  158.7960  134.5610 O   0  0  0  0  0  0  0  0  0  0  0  0
  143.0660  159.5550  134.1140 N   0  0  0  0  0  0  0  0  0  0  0  0
  142.7670  160.9140  133.7570 C   0  0  0  0  0  0  0  0  0  0  0  0
  141.5900  161.2520  133.4640 O   0  0  0  0  0  0  0  0  0  0  0  0
  143.7690  161.8770  133.7610 O   0  0  0  0  0  0  0  0  0  0  0  0
  144.2050  158.8830  133.8350 C   0  0  0  0  0  0  0  0  0  0  0  0
  145.3540  159.3510  133.1870 C   0  0  0  0  0  0  0  0  0  0  0  0
  147.6960  160.2100  131.7830 C   0  0  0  0  0  0  0  0  0  0  0  0
  150.9327  160.3044  130.6894 H   0  0  0  0  0  0  0  0  0  0  0  0
  150.8955  157.9936  131.6193 H   0  0  0  0  0  0  0  0  0  0  0  0
  149.2150  156.5030  133.6480 H   0  0  0  0  0  0  0  0  0  0  0  0
  148.4950  155.9530  132.1120 H   0  0  0  0  0  0  0  0  0  0  0  0
  147.1503  156.4151  133.2841 H   0  0  0  0  0  0  0  0  0  0  0  0
  145.0390  155.6210  134.4027 H   0  0  0  0  0  0  0  0  0  0  0  0
  142.4379  156.4806  135.2220 H   0  0  0  0  0  0  0  0  0  0  0  0
  139.8100  159.3610  137.0880 H   0  0  0  0  0  0  0  0  0  0  0  0
  145.4252  160.3956  132.8497 H   0  0  0  0  0  0  0  0  0  0  0  0
  146.7949  160.8396  131.8220 H   0  0  0  0  0  0  0  0  0  0  0  0
  1  2  3  0
  2  3  1  0
  3  4  2  0
  4  5  1  0
  5  6  2  0
  6  7  1  0
  6  8  1  0
  8  9  1  0
  9 10  2  0
 10 11  1  0
 11 12  2  0
 12 13  1  0
 13 14  2  0
 14 15  1  0
 15 16  1  0
 15 17  2  0
 14 18  1  0
 18 19  1  0
 19 20  2  0
 19 21  1  0
 18 22  1  0
 22 23  2  0
  8 24  2  0
 24  3  1  0
 23  9  1  0
 22 12  1  0
  4 25  1  0
  5 26  1  0
  7 27  1  0
  7 28  1  0
 10 29  1  0
 11 30  1  0
 13 31  1  0
 16 32  1  0
 23 33  1  0
 24 34  1  0
M  CHG  2  16  -1  21  -1
M  END
>  <UniqueID>  (78) 
76

>  <SMILES>  (78) 
N#Cc1ccc(N)c(-c2ccc3cc(C([NH-])=O)n(C(=O)[O-])c3c2)c1

>  <Energy>  (78) 
83.26069575304302

>  <Genealogy>  (78) 
N#Cc1ccc(N)c(-c2ccc3cc(C([NH-])=O)n(C(=O)[O-])c3c2)c1 (protonated)
N#Cc1ccc(N)c(-c2ccc3cc(C([NH-])=O)n(C(=O)[O-])c3c2)c1 (3D coordinates assigned)
N#Cc1ccc(N)c(-c2ccc3cc(C([NH-])=O)n(C(=O)[O-])c3c2)c1 (optimized conformer: 83.26069575304302 kcal/mol)

>  <smiles>  (78) 
N#Cc1ccc(N)c(-c2ccc3cc(C(N)=O)n(C(=O)O)c3c2)c1

>  <score_type>  (78) 
oracle

>  <origin>  (78) 
adg

>  <m_score__min__energy>  (78) 
-8.4499999999999993

>  <m_primary>  (78) 
energy

$$$$
78:0
     RDKit          3D

 31 32  0  0  0  0  0  0  0  0999 V2000
  149.0420  153.7680  132.5600 C   0  0  0  0  0  0  0  0  0  0  0  0
  148.6880  154.9170  132.6560 C   0  0  0  0  0  0  0  0  0  0  0  0
  148.2650  156.2880  132.7690 C   0  0  0  0  0  0  0  0  0  0  0  0
  149.1920  157.3320  132.5450 C   0  0  0  0  0  0  0  0  0  0  0  0
  148.7880  158.6750  132.6410 C   0  0  0  0  0  0  0  0  0  0  0  0
  147.4600  158.9350  132.9690 C   0  0  0  0  0  0  0  0  0  0  0  0
  146.8000  160.1340  133.1020 C   0  0  0  0  0  0  0  0  0  0  0  0
  145.4860  159.8000  133.4250 C   0  0  0  0  0  0  0  0  0  0  0  0
  144.4450  160.8000  133.7400 C   0  0  0  0  0  0  0  0  0  0  0  0
  143.0900  160.5530  133.3690 N   0  0  0  0  0  0  0  0  0  0  0  0
  144.7440  161.8880  134.2990 O   0  0  0  0  0  0  0  0  0  0  0  0
  145.3390  158.4460  133.4860 N   0  0  0  0  0  0  0  0  0  0  0  0
  144.1310  157.7040  133.7120 C   0  0  0  0  0  0  0  0  0  0  0  0
  144.0140  156.9930  134.7480 O   0  0  0  0  0  0  0  0  0  0  0  0
  143.0940  157.7600  132.7720 O   0  0  0  0  0  0  0  0  0  0  0  0
  141.8080  157.1820  132.9850 C   0  0  0  0  0  0  0  0  0  0  0  0
  140.7250  158.2570  133.0130 C   0  0  0  0  0  0  0  0  0  0  0  0
  140.9350  159.1680  131.9690 O   0  0  0  0  0  0  0  0  0  0  0  0
  146.5570  157.9300  133.2050 C   0  0  0  0  0  0  0  0  0  0  0  0
  146.9270  156.5850  133.0990 C   0  0  0  0  0  0  0  0  0  0  0  0
  149.3649  152.7201  132.4724 H   0  0  0  0  0  0  0  0  0  0  0  0
  150.2357  157.0918  132.2941 H   0  0  0  0  0  0  0  0  0  0  0  0
  149.4990  159.4951  132.4625 H   0  0  0  0  0  0  0  0  0  0  0  0
  147.2202  161.1432  132.9794 H   0  0  0  0  0  0  0  0  0  0  0  0
  142.8580  159.8980  132.5900 H   0  0  0  0  0  0  0  0  0  0  0  0
  141.5920  156.4744  132.1710 H   0  0  0  0  0  0  0  0  0  0  0  0
  141.8126  156.6627  133.9547 H   0  0  0  0  0  0  0  0  0  0  0  0
  139.7386  157.7851  132.8934 H   0  0  0  0  0  0  0  0  0  0  0  0
  140.7661  158.7898  133.9745 H   0  0  0  0  0  0  0  0  0  0  0  0
  141.9070  159.3670  131.9700 H   0  0  0  0  0  0  0  0  0  0  0  0
  146.1946  155.7819  133.2684 H   0  0  0  0  0  0  0  0  0  0  0  0
  1  2  3  0
  2  3  1  0
  3  4  2  0
  4  5  1  0
  5  6  2  0
  6  7  1  0
  7  8  2  0
  8  9  1  0
  9 10  1  0
  9 11  2  0
  8 12  1  0
 12 13  1  0
 13 14  2  0
 13 15  1  0
 15 16  1  0
 16 17  1  0
 17 18  1  0
 12 19  1  0
 19 20  2  0
 20  3  1  0
 19  6  1  0
  1 21  1  0
  4 22  1  0
  5 23  1  0
  7 24  1  0
 10 25  1  0
 16 26  1  0
 16 27  1  0
 17 28  1  0
 17 29  1  0
 18 30  1  0
 20 31  1  0
M  CHG  1  10  -1
M  END
>  <UniqueID>  (79) 
77

>  <SMILES>  (79) 
C#Cc1ccc2cc(C([NH-])=O)n(C(=O)OCCO)c2c1

>  <Energy>  (79) 
64.35423804410544

>  <Genealogy>  (79) 
C#Cc1ccc2cc(C([NH-])=O)n(C(=O)OCCO)c2c1 (protonated)
C#Cc1ccc2cc(C([NH-])=O)n(C(=O)OCCO)c2c1 (3D coordinates assigned)
C#Cc1ccc2cc(C([NH-])=O)n(C(=O)OCCO)c2c1 (optimized conformer: 64.35423804410544 kcal/mol)

>  <smiles>  (79) 
C#Cc1ccc2cc(C(N)=O)n(C(=O)OCCO)c2c1

>  <score_type>  (79) 
oracle

>  <origin>  (79) 
adg

>  <m_score__min__energy>  (79) 
-6.0899999999999999

>  <m_primary>  (79) 
energy

$$$$
79:0
     RDKit          3D

 45 46  0  0  0  0  0  0  0  0999 V2000
  140.2220  155.4210  133.3780 C   0  0  0  0  0  0  0  0  0  0  0  0
  139.4290  156.5650  133.0860 O   0  0  0  0  0  0  0  0  0  0  0  0
  139.5830  157.7790  133.7630 C   0  0  0  0  0  0  0  0  0  0  0  0
  138.7160  158.1670  134.5930 O   0  0  0  0  0  0  0  0  0  0  0  0
  140.8170  158.5980  133.5350 C   0  0  0  0  0  0  0  0  0  0  0  0
  141.9080  158.2660  134.5590 C   0  0  0  0  0  0  0  0  0  0  0  0
  143.2290  158.8890  134.1870 C   0  0  0  0  0  0  0  0  0  0  0  0
  143.3540  160.2980  134.1060 C   0  0  0  0  0  0  0  0  0  0  0  0
  144.5660  160.8880  133.7110 C   0  0  0  0  0  0  0  0  0  0  0  0
  145.6320  160.0460  133.4040 C   0  0  0  0  0  0  0  0  0  0  0  0
  146.8980  160.3490  132.9600 C   0  0  0  0  0  0  0  0  0  0  0  0
  147.5320  159.1200  132.7890 C   0  0  0  0  0  0  0  0  0  0  0  0
  148.9480  158.9810  132.3950 C   0  0  0  0  0  0  0  0  0  0  0  0
  149.5160  157.6830  132.2300 N   0  0  0  0  0  0  0  0  0  0  0  0
  149.6530  159.9980  132.1650 O   0  0  0  0  0  0  0  0  0  0  0  0
  146.6890  158.0970  133.1090 N   0  0  0  0  0  0  0  0  0  0  0  0
  146.9330  156.6880  132.9820 C   0  0  0  0  0  0  0  0  0  0  0  0
  147.2160  156.1980  131.8550 O   0  0  0  0  0  0  0  0  0  0  0  0
  146.8920  155.8700  134.1170 O   0  0  0  0  0  0  0  0  0  0  0  0
  146.7360  154.4540  134.0420 C   0  0  0  0  0  0  0  0  0  0  0  0
  147.9540  153.8050  134.3980 O   0  0  0  0  0  0  0  0  0  0  0  0
  148.7110  153.0580  133.4890 C   0  0  0  0  0  0  0  0  0  0  0  0
  148.9530  151.8380  133.7010 O   0  0  0  0  0  0  0  0  0  0  0  0
  149.2100  153.7050  132.2390 C   0  0  0  0  0  0  0  0  0  0  0  0
  149.4850  155.1160  132.4850 N   0  0  0  0  0  0  0  0  0  0  0  0
  145.5300  158.6810  133.4860 C   0  0  0  0  0  0  0  0  0  0  0  0
  144.3300  158.0660  133.8620 C   0  0  0  0  0  0  0  0  0  0  0  0
  140.3051  155.3011  134.4683 H   0  0  0  0  0  0  0  0  0  0  0  0
  139.7489  154.5269  132.9458 H   0  0  0  0  0  0  0  0  0  0  0  0
  141.2252  155.5502  132.9458 H   0  0  0  0  0  0  0  0  0  0  0  0
  141.2006  158.3929  132.5247 H   0  0  0  0  0  0  0  0  0  0  0  0
  140.5519  159.6599  133.6448 H   0  0  0  0  0  0  0  0  0  0  0  0
  141.5996  158.6455  135.5443 H   0  0  0  0  0  0  0  0  0  0  0  0
  142.0376  157.1739  134.5805 H   0  0  0  0  0  0  0  0  0  0  0  0
  142.4934  160.9362  134.3549 H   0  0  0  0  0  0  0  0  0  0  0  0
  144.6699  161.9812  133.6462 H   0  0  0  0  0  0  0  0  0  0  0  0
  147.3200  161.3485  132.7786 H   0  0  0  0  0  0  0  0  0  0  0  0
  149.1610  157.0320  131.4950 H   0  0  0  0  0  0  0  0  0  0  0  0
  145.9408  154.1389  134.7337 H   0  0  0  0  0  0  0  0  0  0  0  0
  146.4693  154.1764  133.0116 H   0  0  0  0  0  0  0  0  0  0  0  0
  150.1341  153.2048  131.9135 H   0  0  0  0  0  0  0  0  0  0  0  0
  148.4432  153.6172  131.4552 H   0  0  0  0  0  0  0  0  0  0  0  0
  149.2900  155.6360  131.5990 H   0  0  0  0  0  0  0  0  0  0  0  0
  148.8000  155.4670  133.1940 H   0  0  0  0  0  0  0  0  0  0  0  0
  144.2466  156.9699  133.9033 H   0  0  0  0  0  0  0  0  0  0  0  0
  1  2  1  0
  2  3  1  0
  3  4  2  0
  3  5  1  0
  5  6  1  0
  6  7  1  0
  7  8  2  0
  8  9  1  0
  9 10  2  0
 10 11  1  0
 11 12  2  0
 12 13  1  0
 13 14  1  0
 13 15  2  0
 12 16  1  0
 16 17  1  0
 17 18  2  0
 17 19  1  0
 19 20  1  0
 20 21  1  0
 21 22  1  0
 22 23  2  0
 22 24  1  0
 24 25  1  0
 16 26  1  0
 26 27  2  0
 27  7  1  0
 26 10  1  0
  1 28  1  0
  1 29  1  0
  1 30  1  0
  5 31  1  0
  5 32  1  0
  6 33  1  0
  6 34  1  0
  8 35  1  0
  9 36  1  0
 11 37  1  0
 14 38  1  0
 20 39  1  0
 20 40  1  0
 24 41  1  0
 24 42  1  0
 25 43  1  0
 25 44  1  0
 27 45  1  0
M  CHG  1  14  -1
M  END
>  <UniqueID>  (80) 
78

>  <SMILES>  (80) 
COC(=O)CCc1ccc2cc(C([NH-])=O)n(C(=O)OCOC(=O)CN)c2c1

>  <Energy>  (80) 
71.23674232825324

>  <Genealogy>  (80) 
COC(=O)CCc1ccc2cc(C([NH-])=O)n(C(=O)OCOC(=O)CN)c2c1 (protonated)
COC(=O)CCc1ccc2cc(C([NH-])=O)n(C(=O)OCOC(=O)CN)c2c1 (3D coordinates assigned)
COC(=O)CCc1ccc2cc(C([NH-])=O)n(C(=O)OCOC(=O)CN)c2c1 (optimized conformer: 71.23674232825324 kcal/mol)

>  <smiles>  (80) 
COC(=O)CCc1ccc2cc(C(N)=O)n(C(=O)OCOC(=O)CN)c2c1

>  <score_type>  (80) 
oracle

>  <origin>  (80) 
adg

>  <m_score__min__energy>  (80) 
-5.54

>  <m_primary>  (80) 
energy

$$$$
80:0
     RDKit          3D

 38 39  0  0  0  0  0  0  0  0999 V2000
  146.2490  161.9820  133.5390 H   0  0  0  0  0  0  0  0  0  0  0  0
  145.4690  161.8540  134.2220 N   0  0  0  0  0  0  0  0  0  0  0  0
  144.1120  161.8140  133.7850 C   0  0  0  0  0  0  0  0  0  0  0  0
  143.5710  162.8660  133.3550 O   0  0  0  0  0  0  0  0  0  0  0  0
  143.3490  160.5520  133.8680 C   0  0  0  0  0  0  0  0  0  0  0  0
  142.0060  160.4800  134.2390 C   0  0  0  0  0  0  0  0  0  0  0  0
  141.3587  161.3066  134.5674 H   0  0  0  0  0  0  0  0  0  0  0  0
  141.6640  159.1520  134.1060 C   0  0  0  0  0  0  0  0  0  0  0  0
  140.4510  158.5090  134.3370 C   0  0  0  0  0  0  0  0  0  0  0  0
  139.5672  159.0703  134.6744 H   0  0  0  0  0  0  0  0  0  0  0  0
  140.3900  157.1210  134.1260 C   0  0  0  0  0  0  0  0  0  0  0  0
  139.4400  156.5886  134.2810 H   0  0  0  0  0  0  0  0  0  0  0  0
  141.5410  156.3980  133.7150 C   0  0  0  0  0  0  0  0  0  0  0  0
  141.4560  154.9160  133.4480 C   0  0  0  0  0  0  0  0  0  0  0  0
  140.3390  154.6160  132.6900 F   0  0  0  0  0  0  0  0  0  0  0  0
  141.3730  154.2140  134.6380 F   0  0  0  0  0  0  0  0  0  0  0  0
  142.5880  154.5110  132.7640 F   0  0  0  0  0  0  0  0  0  0  0  0
  142.7480  157.0920  133.4710 C   0  0  0  0  0  0  0  0  0  0  0  0
  143.6457  156.5568  133.1278 H   0  0  0  0  0  0  0  0  0  0  0  0
  142.7740  158.4740  133.6760 C   0  0  0  0  0  0  0  0  0  0  0  0
  143.8160  159.3190  133.5280 N   0  0  0  0  0  0  0  0  0  0  0  0
  145.1510  158.9510  133.1550 C   0  0  0  0  0  0  0  0  0  0  0  0
  145.5360  157.7650  133.3390 O   0  0  0  0  0  0  0  0  0  0  0  0
  146.0310  159.9330  132.5870 N   0  0  0  0  0  0  0  0  0  0  0  0
  145.6100  160.8480  132.3110 H   0  0  0  0  0  0  0  0  0  0  0  0
  147.4540  159.7660  132.4260 C   0  0  0  0  0  0  0  0  0  0  0  0
  148.4190  158.9020  133.6880 S   0  0  0  0  0  0  0  0  0  0  0  0
  148.4980  157.3550  132.7360 C   0  0  0  0  0  0  0  0  0  0  0  0
  148.5416  156.5007  133.4276 H   0  0  0  0  0  0  0  0  0  0  0  0
  147.6031  157.2684  132.1022 H   0  0  0  0  0  0  0  0  0  0  0  0
  149.3971  157.3600  132.1022 H   0  0  0  0  0  0  0  0  0  0  0  0
  148.0510  160.3180  131.3560 C   0  0  0  0  0  0  0  0  0  0  0  0
  147.4211  160.8561  130.6323 H   0  0  0  0  0  0  0  0  0  0  0  0
  149.5030  160.2450  131.0940 C   0  0  0  0  0  0  0  0  0  0  0  0
  150.2087  160.2779  131.9372 H   0  0  0  0  0  0  0  0  0  0  0  0
  149.9690  160.1400  129.8520 C   0  0  0  0  0  0  0  0  0  0  0  0
  151.0532  160.0867  129.6740 H   0  0  0  0  0  0  0  0  0  0  0  0
  149.2700  160.1065  129.0033 H   0  0  0  0  0  0  0  0  0  0  0  0
  1  2  1  0
  2  3  1  0
  3  4  2  0
  3  5  1  0
  5  6  2  0
  6  7  1  0
  6  8  1  0
  8  9  2  0
  9 10  1  0
  9 11  1  0
 11 12  1  0
 11 13  2  0
 13 14  1  0
 14 15  1  0
 14 16  1  0
 14 17  1  0
 13 18  1  0
 18 19  1  0
 18 20  2  0
 20 21  1  0
 21 22  1  0
 22 23  2  0
 22 24  1  0
 24 25  1  0
 24 26  1  0
 26 27  1  0
 27 28  1  0
 28 29  1  0
 28 30  1  0
 28 31  1  0
 26 32  2  0
 32 33  1  0
 32 34  1  0
 34 35  1  0
 34 36  2  0
 36 37  1  0
 36 38  1  0
 21  5  1  0
 20  8  1  0
M  CHG  1   2  -1
M  END
>  <UniqueID>  (81) 
79

>  <SMILES>  (81) 
C=C/C=C(/NC(=O)n1c(C([NH-])=O)cc2ccc(C(F)(F)F)cc21)SC

>  <Energy>  (81) 
74.39695606566644

>  <Genealogy>  (81) 
C=C/C=C(/NC(=O)n1c(C([NH-])=O)cc2ccc(C(F)(F)F)cc21)SC (protonated)
C=C/C=C(/NC(=O)n1c(C([NH-])=O)cc2ccc(C(F)(F)F)cc21)SC (cis-trans isomerization)
C=C/C=C(/NC(=O)n1c(C([NH-])=O)cc2ccc(C(F)(F)F)cc21)SC (3D coordinates assigned)
C=C/C=C(/NC(=O)n1c(C([NH-])=O)cc2ccc(C(F)(F)F)cc21)SC (optimized conformer: 74.39695606566644 kcal/mol)

>  <smiles>  (81) 
C=C/C=C(/NC(=O)n1c(C(N)=O)cc2ccc(C(F)(F)F)cc21)SC

>  <score_type>  (81) 
oracle

>  <origin>  (81) 
adg

>  <m_score__min__energy>  (81) 
-8.0299999999999994

>  <m_primary>  (81) 
energy

$$$$
81:0
     RDKit          3D

 36 38  0  0  0  0  0  0  0  0999 V2000
  139.2390  146.9910  130.3440 C   0  0  0  0  0  0  0  0  0  0  0  0
  140.2970  148.0060  130.3510 N   0  0  0  0  0  0  0  0  0  0  0  0
  139.7610  149.3310  130.6850 C   0  0  0  0  0  0  0  0  0  0  0  0
  140.6520  150.0220  131.6690 C   0  0  0  0  0  0  0  0  0  0  0  0
  140.4950  151.3010  132.0610 N   0  0  0  0  0  0  0  0  0  0  0  0
  141.5090  151.5200  132.9220 C   0  0  0  0  0  0  0  0  0  0  0  0
  141.7650  152.7990  133.6300 C   0  0  0  0  0  0  0  0  0  0  0  0
  142.8560  152.9120  134.5330 C   0  0  0  0  0  0  0  0  0  0  0  0
  143.1000  154.1140  135.2200 C   0  0  0  0  0  0  0  0  0  0  0  0
  142.2490  155.1870  134.9820 C   0  0  0  0  0  0  0  0  0  0  0  0
  142.2440  156.4480  135.5300 C   0  0  0  0  0  0  0  0  0  0  0  0
  141.1650  157.1030  134.9380 C   0  0  0  0  0  0  0  0  0  0  0  0
  140.8450  158.5240  135.1840 C   0  0  0  0  0  0  0  0  0  0  0  0
  140.4470  158.9750  136.4760 N   0  0  0  0  0  0  0  0  0  0  0  0
  140.8760  159.3450  134.2280 O   0  0  0  0  0  0  0  0  0  0  0  0
  140.5230  156.2740  134.0660 N   0  0  0  0  0  0  0  0  0  0  0  0
  139.3220  156.5370  133.3230 C   0  0  0  0  0  0  0  0  0  0  0  0
  139.1140  155.9560  132.2250 O   0  0  0  0  0  0  0  0  0  0  0  0
  138.3890  157.4520  133.7950 O   0  0  0  0  0  0  0  0  0  0  0  0
  141.2010  155.1050  134.1030 C   0  0  0  0  0  0  0  0  0  0  0  0
  140.9210  153.9150  133.4200 C   0  0  0  0  0  0  0  0  0  0  0  0
  142.2480  150.3530  133.0180 C   0  0  0  0  0  0  0  0  0  0  0  0
  141.6950  149.4570  132.2330 O   0  0  0  0  0  0  0  0  0  0  0  0
  138.9708  146.7337  131.3793 H   0  0  0  0  0  0  0  0  0  0  0  0
  138.3544  147.3870  129.8237 H   0  0  0  0  0  0  0  0  0  0  0  0
  139.5980  146.0908  129.8237 H   0  0  0  0  0  0  0  0  0  0  0  0
  140.9760  147.7400  131.1020 H   0  0  0  0  0  0  0  0  0  0  0  0
  139.6945  149.9364  129.7690 H   0  0  0  0  0  0  0  0  0  0  0  0
  138.7631  149.2097  131.1315 H   0  0  0  0  0  0  0  0  0  0  0  0
  139.7400  151.9580  131.7640 H   0  0  0  0  0  0  0  0  0  0  0  0
  143.5177  152.0486  134.6966 H   0  0  0  0  0  0  0  0  0  0  0  0
  143.9396  154.2028  135.9251 H   0  0  0  0  0  0  0  0  0  0  0  0
  142.9426  156.8537  136.2766 H   0  0  0  0  0  0  0  0  0  0  0  0
  139.4820  159.3370  136.6450 H   0  0  0  0  0  0  0  0  0  0  0  0
  140.0631  153.8493  132.7347 H   0  0  0  0  0  0  0  0  0  0  0  0
  143.1413  150.2028  133.6421 H   0  0  0  0  0  0  0  0  0  0  0  0
  1  2  1  0
  2  3  1  0
  3  4  1  0
  4  5  2  0
  5  6  1  0
  6  7  1  0
  7  8  2  0
  8  9  1  0
  9 10  2  0
 10 11  1  0
 11 12  2  0
 12 13  1  0
 13 14  1  0
 13 15  2  0
 12 16  1  0
 16 17  1  0
 17 18  2  0
 17 19  1  0
 16 20  1  0
 20 21  2  0
  6 22  2  0
 22 23  1  0
 23  4  1  0
 21  7  1  0
 20 10  1  0
  1 24  1  0
  1 25  1  0
  1 26  1  0
  2 27  1  0
  3 28  1  0
  3 29  1  0
  5 30  1  0
  8 31  1  0
  9 32  1  0
 11 33  1  0
 14 34  1  0
 21 35  1  0
 22 36  1  0
M  CHG  3   5   1  14  -1  19  -1
M  END
>  <UniqueID>  (82) 
80

>  <SMILES>  (82) 
CNCc1[nH+]c(-c2ccc3cc(C([NH-])=O)n(C(=O)[O-])c3c2)co1

>  <Energy>  (82) 
108.93074559206745

>  <Genealogy>  (82) 
CNCc1[nH+]c(-c2ccc3cc(C([NH-])=O)n(C(=O)[O-])c3c2)co1 (protonated)
CNCc1[nH+]c(-c2ccc3cc(C([NH-])=O)n(C(=O)[O-])c3c2)co1 (3D coordinates assigned)
CNCc1[nH+]c(-c2ccc3cc(C([NH-])=O)n(C(=O)[O-])c3c2)co1 (optimized conformer: 108.93074559206745 kcal/mol)

>  <smiles>  (82) 
CNCc1nc(-c2ccc3cc(C(N)=O)n(C(=O)O)c3c2)co1

>  <score_type>  (82) 
oracle

>  <origin>  (82) 
adg

>  <m_score__min__energy>  (82) 
-6.8300000000000001

>  <m_primary>  (82) 
energy

$$$$
82:0
     RDKit          3D

 37 39  0  0  0  0  0  0  0  0999 V2000
  148.3050  154.9480  132.6080 C   0  0  0  0  0  0  0  0  0  0  0  0
  147.8850  156.3710  132.8310 C   0  0  0  0  0  0  0  0  0  0  0  0
  148.8480  157.4100  132.7920 C   0  0  0  0  0  0  0  0  0  0  0  0
  148.4630  158.7490  132.9770 C   0  0  0  0  0  0  0  0  0  0  0  0
  147.1130  159.0170  133.1760 C   0  0  0  0  0  0  0  0  0  0  0  0
  146.4710  160.2140  133.4030 C   0  0  0  0  0  0  0  0  0  0  0  0
  145.1230  159.8900  133.5380 C   0  0  0  0  0  0  0  0  0  0  0  0
  144.0570  160.8990  133.7120 C   0  0  0  0  0  0  0  0  0  0  0  0
  142.7020  160.5960  133.3900 N   0  0  0  0  0  0  0  0  0  0  0  0
  144.3530  162.0580  134.1070 O   0  0  0  0  0  0  0  0  0  0  0  0
  144.9380  158.5460  133.4060 N   0  0  0  0  0  0  0  0  0  0  0  0
  143.7230  157.8010  133.5750 C   0  0  0  0  0  0  0  0  0  0  0  0
  142.8410  157.8290  132.6740 O   0  0  0  0  0  0  0  0  0  0  0  0
  143.5280  157.0150  134.7550 N   0  0  0  0  0  0  0  0  0  0  0  0
  142.2260  156.7480  135.3580 C   0  0  0  0  0  0  0  0  0  0  0  0
  141.4760  158.0660  135.6060 C   0  0  0  0  0  0  0  0  0  0  0  0
  139.9970  158.0010  135.2660 C   0  0  0  0  0  0  0  0  0  0  0  0
  139.5830  158.2320  136.6510 N   0  0  0  0  0  0  0  0  0  0  0  0
  140.9960  158.2810  137.0340 C   0  0  0  0  0  0  0  0  0  0  0  0
  146.1650  158.0270  133.1840 C   0  0  0  0  0  0  0  0  0  0  0  0
  146.5210  156.6820  133.0210 C   0  0  0  0  0  0  0  0  0  0  0  0
  148.4513  154.4524  133.5791 H   0  0  0  0  0  0  0  0  0  0  0  0
  147.5244  154.4199  132.0407 H   0  0  0  0  0  0  0  0  0  0  0  0
  149.2472  154.9284  132.0407 H   0  0  0  0  0  0  0  0  0  0  0  0
  149.9060  157.1664  132.6154 H   0  0  0  0  0  0  0  0  0  0  0  0
  149.2064  159.5597  132.9648 H   0  0  0  0  0  0  0  0  0  0  0  0
  146.9260  161.2136  133.4646 H   0  0  0  0  0  0  0  0  0  0  0  0
  142.4680  159.9620  132.5940 H   0  0  0  0  0  0  0  0  0  0  0  0
  141.6344  156.1153  134.6800 H   0  0  0  0  0  0  0  0  0  0  0  0
  142.3741  156.2329  136.3186 H   0  0  0  0  0  0  0  0  0  0  0  0
  142.1897  158.7425  135.1131 H   0  0  0  0  0  0  0  0  0  0  0  0
  139.6729  158.7939  134.5759 H   0  0  0  0  0  0  0  0  0  0  0  0
  139.6148  157.1122  134.7426 H   0  0  0  0  0  0  0  0  0  0  0  0
  139.1870  159.2000  136.7220 H   0  0  0  0  0  0  0  0  0  0  0  0
  141.3008  159.2501  137.4559 H   0  0  0  0  0  0  0  0  0  0  0  0
  141.3546  157.6006  137.8204 H   0  0  0  0  0  0  0  0  0  0  0  0
  145.7584  155.8895  133.0405 H   0  0  0  0  0  0  0  0  0  0  0  0
  1  2  1  0
  2  3  2  0
  3  4  1  0
  4  5  2  0
  5  6  1  0
  6  7  2  0
  7  8  1  0
  8  9  1  0
  8 10  2  0
  7 11  1  0
 11 12  1  0
 12 13  2  0
 12 14  1  0
 14 15  1  0
 15 16  1  0
 16 17  1  0
 17 18  1  0
 18 19  1  0
 11 20  1  0
 20 21  2  0
 21  2  1  0
 20  5  1  0
 19 16  1  0
  1 22  1  0
  1 23  1  0
  1 24  1  0
  3 25  1  0
  4 26  1  0
  6 27  1  0
  9 28  1  0
 15 29  1  0
 15 30  1  0
 16 31  1  0
 17 32  1  0
 17 33  1  0
 18 34  1  0
 19 35  1  0
 19 36  1  0
 21 37  1  0
M  CHG  2   9  -1  14  -1
M  END
>  <UniqueID>  (83) 
81

>  <SMILES>  (83) 
Cc1ccc2cc(C([NH-])=O)n(C(=O)[N-]CC3CNC3)c2c1

>  <Energy>  (83) 
141.17114371901766

>  <Genealogy>  (83) 
Cc1ccc2cc(C([NH-])=O)n(C(=O)[N-]CC3CNC3)c2c1 (protonated)
Cc1ccc2cc(C([NH-])=O)n(C(=O)[N-]CC3CNC3)c2c1 (3D coordinates assigned)
Cc1ccc2cc(C([NH-])=O)n(C(=O)[N-]CC3CNC3)c2c1 (nonaromatic ring conformer: 141.17114371901766 kcal/mol)

>  <smiles>  (83) 
Cc1ccc2cc(C(N)=O)n(C(=O)NCC3CNC3)c2c1

>  <score_type>  (83) 
oracle

>  <origin>  (83) 
adg

>  <m_score__min__energy>  (83) 
-7.1900000000000004

>  <m_primary>  (83) 
energy

$$$$
83:0
     RDKit          3D

 38 39  0  0  0  0  0  0  0  0999 V2000
  149.2500  157.9960  132.1860 C   0  0  0  0  0  0  0  0  0  0  0  0
  148.9560  159.4030  132.5060 N   0  0  0  0  0  0  0  0  0  0  0  0
  148.0610  159.5390  133.6770 C   0  0  0  0  0  0  0  0  0  0  0  0
  146.7200  160.1640  133.2740 C   0  0  0  0  0  0  0  0  0  0  0  0
  145.5950  159.1690  133.3910 C   0  0  0  0  0  0  0  0  0  0  0  0
  145.8780  157.7960  133.5940 C   0  0  0  0  0  0  0  0  0  0  0  0
  144.8360  156.8630  133.7330 C   0  0  0  0  0  0  0  0  0  0  0  0
  143.5280  157.3350  133.6810 C   0  0  0  0  0  0  0  0  0  0  0  0
  142.3370  156.6510  133.7670 C   0  0  0  0  0  0  0  0  0  0  0  0
  141.3450  157.6210  133.6490 C   0  0  0  0  0  0  0  0  0  0  0  0
  139.9020  157.3260  133.7790 C   0  0  0  0  0  0  0  0  0  0  0  0
  139.2830  156.3280  132.9730 N   0  0  0  0  0  0  0  0  0  0  0  0
  139.1980  158.0000  134.5780 O   0  0  0  0  0  0  0  0  0  0  0  0
  141.8990  158.8560  133.4880 N   0  0  0  0  0  0  0  0  0  0  0  0
  141.2180  160.0980  133.2390 C   0  0  0  0  0  0  0  0  0  0  0  0
  140.1800  160.1220  132.5270 O   0  0  0  0  0  0  0  0  0  0  0  0
  141.6830  161.2780  133.8070 O   0  0  0  0  0  0  0  0  0  0  0  0
  143.2370  158.6640  133.5120 C   0  0  0  0  0  0  0  0  0  0  0  0
  144.2540  159.6120  133.3510 C   0  0  0  0  0  0  0  0  0  0  0  0
  148.4890  160.1710  131.3280 C   0  0  0  0  0  0  0  0  0  0  0  0
  149.6110  160.8670  130.5380 C   0  0  0  0  0  0  0  0  0  0  0  0
  149.7190  160.2830  129.2910 F   0  0  0  0  0  0  0  0  0  0  0  0
  149.3230  162.2100  130.3670 F   0  0  0  0  0  0  0  0  0  0  0  0
  149.3693  157.4251  133.1186 H   0  0  0  0  0  0  0  0  0  0  0  0
  148.4210  157.5723  131.6002 H   0  0  0  0  0  0  0  0  0  0  0  0
  150.1793  157.9397  131.6002 H   0  0  0  0  0  0  0  0  0  0  0  0
  147.8788  158.5435  134.1081 H   0  0  0  0  0  0  0  0  0  0  0  0
  148.5461  160.1954  134.4145 H   0  0  0  0  0  0  0  0  0  0  0  0
  146.5113  161.0199  133.9327 H   0  0  0  0  0  0  0  0  0  0  0  0
  146.7893  160.4879  132.2250 H   0  0  0  0  0  0  0  0  0  0  0  0
  146.9232  157.4567  133.6433 H   0  0  0  0  0  0  0  0  0  0  0  0
  145.0478  155.7934  133.8783 H   0  0  0  0  0  0  0  0  0  0  0  0
  142.1981  155.5680  133.9006 H   0  0  0  0  0  0  0  0  0  0  0  0
  138.2460  156.2000  132.9780 H   0  0  0  0  0  0  0  0  0  0  0  0
  144.0153  160.6747  133.1973 H   0  0  0  0  0  0  0  0  0  0  0  0
  147.9691  159.4784  130.6497 H   0  0  0  0  0  0  0  0  0  0  0  0
  147.8343  160.9674  131.7116 H   0  0  0  0  0  0  0  0  0  0  0  0
  150.5512  160.7629  131.0994 H   0  0  0  0  0  0  0  0  0  0  0  0
  1  2  1  0
  2  3  1  0
  3  4  1  0
  4  5  1  0
  5  6  2  0
  6  7  1  0
  7  8  2  0
  8  9  1  0
  9 10  2  0
 10 11  1  0
 11 12  1  0
 11 13  2  0
 10 14  1  0
 14 15  1  0
 15 16  2  0
 15 17  1  0
 14 18  1  0
 18 19  2  0
  2 20  1  0
 20 21  1  0
 21 22  1  0
 21 23  1  0
 19  5  1  0
 18  8  1  0
  1 24  1  0
  1 25  1  0
  1 26  1  0
  3 27  1  0
  3 28  1  0
  4 29  1  0
  4 30  1  0
  6 31  1  0
  7 32  1  0
  9 33  1  0
 12 34  1  0
 19 35  1  0
 20 36  1  0
 20 37  1  0
 21 38  1  0
M  CHG  2  12  -1  17  -1
M  END
>  <UniqueID>  (84) 
82

>  <SMILES>  (84) 
CN(CCc1ccc2cc(C([NH-])=O)n(C(=O)[O-])c2c1)CC(F)F

>  <Energy>  (84) 
78.03041181707158

>  <Genealogy>  (84) 
CN(CCc1ccc2cc(C([NH-])=O)n(C(=O)[O-])c2c1)CC(F)F (protonated)
CN(CCc1ccc2cc(C([NH-])=O)n(C(=O)[O-])c2c1)CC(F)F (3D coordinates assigned)
CN(CCc1ccc2cc(C([NH-])=O)n(C(=O)[O-])c2c1)CC(F)F (optimized conformer: 78.03041181707158 kcal/mol)

>  <smiles>  (84) 
CN(CCc1ccc2cc(C(N)=O)n(C(=O)O)c2c1)CC(F)F

>  <score_type>  (84) 
oracle

>  <origin>  (84) 
adg

>  <m_score__min__energy>  (84) 
-6.3700000000000001

>  <m_primary>  (84) 
energy

$$$$
84:0
     RDKit          3D

 38 40  0  0  0  0  0  0  0  0999 V2000
  139.5030  156.3290  132.9890 C   0  0  0  0  0  0  0  0  0  0  0  0
  139.8100  157.7920  132.9750 C   0  0  0  0  0  0  0  0  0  0  0  0
  139.2450  158.6550  132.1640 O   0  0  0  0  0  0  0  0  0  0  0  0
  139.7700  159.8220  132.4530 C   0  0  0  0  0  0  0  0  0  0  0  0
  139.4590  160.8940  131.8700 O   0  0  0  0  0  0  0  0  0  0  0  0
  140.6580  159.7490  133.4180 O   0  0  0  0  0  0  0  0  0  0  0  0
  140.7090  158.4850  133.7690 C   0  0  0  0  0  0  0  0  0  0  0  0
  141.6140  157.9450  134.8360 C   0  0  0  0  0  0  0  0  0  0  0  0
  142.9310  158.4810  134.7170 O   0  0  0  0  0  0  0  0  0  0  0  0
  143.7480  158.2850  133.5970 C   0  0  0  0  0  0  0  0  0  0  0  0
  143.3410  157.5810  132.6340 O   0  0  0  0  0  0  0  0  0  0  0  0
  145.0480  158.9010  133.5410 N   0  0  0  0  0  0  0  0  0  0  0  0
  145.3360  160.2330  133.5890 C   0  0  0  0  0  0  0  0  0  0  0  0
  144.3830  161.3160  133.8990 C   0  0  0  0  0  0  0  0  0  0  0  0
  142.9770  161.1360  133.7320 N   0  0  0  0  0  0  0  0  0  0  0  0
  144.8130  162.3940  134.3870 O   0  0  0  0  0  0  0  0  0  0  0  0
  146.6900  160.4550  133.3590 C   0  0  0  0  0  0  0  0  0  0  0  0
  147.2380  159.2060  133.1790 C   0  0  0  0  0  0  0  0  0  0  0  0
  148.5530  158.8390  132.9040 C   0  0  0  0  0  0  0  0  0  0  0  0
  148.8340  157.4740  132.7340 C   0  0  0  0  0  0  0  0  0  0  0  0
  147.7980  156.5100  132.8180 C   0  0  0  0  0  0  0  0  0  0  0  0
  148.1170  155.0540  132.6560 C   0  0  0  0  0  0  0  0  0  0  0  0
  149.4880  154.8840  132.6020 F   0  0  0  0  0  0  0  0  0  0  0  0
  146.4780  156.9180  133.1070 C   0  0  0  0  0  0  0  0  0  0  0  0
  146.2280  158.2840  133.2920 C   0  0  0  0  0  0  0  0  0  0  0  0
  139.4297  155.9797  134.0295 H   0  0  0  0  0  0  0  0  0  0  0  0
  138.5477  156.1499  132.4739 H   0  0  0  0  0  0  0  0  0  0  0  0
  140.3057  155.7810  132.4739 H   0  0  0  0  0  0  0  0  0  0  0  0
  141.2057  158.2126  135.8217 H   0  0  0  0  0  0  0  0  0  0  0  0
  141.6716  156.8523  134.7230 H   0  0  0  0  0  0  0  0  0  0  0  0
  142.5810  160.2040  133.4780 H   0  0  0  0  0  0  0  0  0  0  0  0
  142.3250  161.9300  133.9250 H   0  0  0  0  0  0  0  0  0  0  0  0
  147.2114  161.4231  133.3277 H   0  0  0  0  0  0  0  0  0  0  0  0
  149.3473  159.5956  132.8225 H   0  0  0  0  0  0  0  0  0  0  0  0
  149.8660  157.1500  132.5341 H   0  0  0  0  0  0  0  0  0  0  0  0
  147.7117  154.4929  133.5109 H   0  0  0  0  0  0  0  0  0  0  0  0
  147.6653  154.6819  131.7246 H   0  0  0  0  0  0  0  0  0  0  0  0
  145.6651  156.1811  133.1851 H   0  0  0  0  0  0  0  0  0  0  0  0
  1  2  1  0
  2  3  1  0
  3  4  1  0
  4  5  2  0
  4  6  1  0
  6  7  1  0
  7  8  1  0
  8  9  1  0
  9 10  1  0
 10 11  2  0
 10 12  1  0
 12 13  1  0
 13 14  1  0
 14 15  1  0
 14 16  2  0
 13 17  2  0
 17 18  1  0
 18 19  2  0
 19 20  1  0
 20 21  2  0
 21 22  1  0
 22 23  1  0
 21 24  1  0
 24 25  2  0
  7  2  2  0
 25 12  1  0
 25 18  1  0
  1 26  1  0
  1 27  1  0
  1 28  1  0
  8 29  1  0
  8 30  1  0
 15 31  1  0
 15 32  1  0
 17 33  1  0
 19 34  1  0
 20 35  1  0
 22 36  1  0
 22 37  1  0
 24 38  1  0
M  END
>  <UniqueID>  (85) 
83

>  <SMILES>  (85) 
Cc1oc(=O)oc1COC(=O)n1c(C(N)=O)cc2ccc(CF)cc21

>  <Energy>  (85) 
108.64531276621585

>  <Genealogy>  (85) 
Cc1oc(=O)oc1COC(=O)n1c(C(N)=O)cc2ccc(CF)cc21 (3D coordinates assigned)
Cc1oc(=O)oc1COC(=O)n1c(C(N)=O)cc2ccc(CF)cc21 (optimized conformer: 108.64531276621585 kcal/mol)

>  <smiles>  (85) 
Cc1oc(=O)oc1COC(=O)n1c(C(N)=O)cc2ccc(CF)cc21

>  <score_type>  (85) 
oracle

>  <origin>  (85) 
adg

>  <m_score__min__energy>  (85) 
-6.4699999999999998

>  <m_primary>  (85) 
energy

$$$$
85:0
     RDKit          3D

 48 50  0  0  0  0  0  0  0  0999 V2000
  145.4740  161.8750  134.1600 C   0  0  0  0  0  0  0  0  0  0  0  0
  145.0640  160.5160  133.7850 N   0  0  0  0  0  0  0  0  0  0  0  0
  143.6310  160.1980  133.7340 C   0  0  0  0  0  0  0  0  0  0  0  0
  146.0580  159.5040  133.4730 C   0  0  0  0  0  0  0  0  0  0  0  0
  147.2850  159.8560  132.8410 C   0  0  0  0  0  0  0  0  0  0  0  0
  148.2420  158.8800  132.5200 C   0  0  0  0  0  0  0  0  0  0  0  0
  147.9670  157.5610  132.8530 C   0  0  0  0  0  0  0  0  0  0  0  0
  148.6910  156.4170  132.6080 C   0  0  0  0  0  0  0  0  0  0  0  0
  147.9230  155.3770  133.1250 C   0  0  0  0  0  0  0  0  0  0  0  0
  148.3270  153.9570  133.0650 C   0  0  0  0  0  0  0  0  0  0  0  0
  147.4570  152.9150  133.5110 N   0  0  0  0  0  0  0  0  0  0  0  0
  149.4790  153.6600  132.6520 O   0  0  0  0  0  0  0  0  0  0  0  0
  146.7700  155.8570  133.6690 N   0  0  0  0  0  0  0  0  0  0  0  0
  145.6700  155.0880  134.1820 C   0  0  0  0  0  0  0  0  0  0  0  0
  145.7370  154.6360  135.3560 O   0  0  0  0  0  0  0  0  0  0  0  0
  144.3900  154.9660  133.3810 C   0  0  0  0  0  0  0  0  0  0  0  0
  143.6000  153.6260  133.5230 C   0  0  0  0  0  0  0  0  0  0  0  0
  144.5370  152.5730  133.6100 O   0  0  0  0  0  0  0  0  0  0  0  0
  142.6980  153.5980  134.7850 C   0  0  0  0  0  0  0  0  0  0  0  0
  141.8770  152.2880  134.8620 C   0  0  0  0  0  0  0  0  0  0  0  0
  141.8430  151.5680  133.6400 O   0  0  0  0  0  0  0  0  0  0  0  0
  141.5390  152.4370  132.5690 C   0  0  0  0  0  0  0  0  0  0  0  0
  142.7330  153.3570  132.2610 C   0  0  0  0  0  0  0  0  0  0  0  0
  146.8080  157.1960  133.4840 C   0  0  0  0  0  0  0  0  0  0  0  0
  145.8220  158.1400  133.7860 C   0  0  0  0  0  0  0  0  0  0  0  0
  145.4999  161.9608  135.2563 H   0  0  0  0  0  0  0  0  0  0  0  0
  146.4745  162.0818  133.7523 H   0  0  0  0  0  0  0  0  0  0  0  0
  144.7548  162.6006  133.7523 H   0  0  0  0  0  0  0  0  0  0  0  0
  143.2381  160.1108  134.7577 H   0  0  0  0  0  0  0  0  0  0  0  0
  143.0963  160.9993  133.2030 H   0  0  0  0  0  0  0  0  0  0  0  0
  143.4854  159.2457  133.2030 H   0  0  0  0  0  0  0  0  0  0  0  0
  147.4862  160.9103  132.6003 H   0  0  0  0  0  0  0  0  0  0  0  0
  149.1825  159.1529  132.0191 H   0  0  0  0  0  0  0  0  0  0  0  0
  149.6686  156.3403  132.1097 H   0  0  0  0  0  0  0  0  0  0  0  0
  147.7400  151.9160  133.4010 H   0  0  0  0  0  0  0  0  0  0  0  0
  146.5860  153.1270  134.0440 H   0  0  0  0  0  0  0  0  0  0  0  0
  143.7218  155.7819  133.6937 H   0  0  0  0  0  0  0  0  0  0  0  0
  144.7027  155.0075  132.3272 H   0  0  0  0  0  0  0  0  0  0  0  0
  144.0420  151.7120  133.6010 H   0  0  0  0  0  0  0  0  0  0  0  0
  143.3323  153.6763  135.6803 H   0  0  0  0  0  0  0  0  0  0  0  0
  141.9969  154.4438  134.7289 H   0  0  0  0  0  0  0  0  0  0  0  0
  142.3224  151.6430  135.6337 H   0  0  0  0  0  0  0  0  0  0  0  0
  140.8407  152.5695  135.1002 H   0  0  0  0  0  0  0  0  0  0  0  0
  141.3027  151.8404  131.6756 H   0  0  0  0  0  0  0  0  0  0  0  0
  140.6765  153.0586  132.8512 H   0  0  0  0  0  0  0  0  0  0  0  0
  143.3606  152.8799  131.4938 H   0  0  0  0  0  0  0  0  0  0  0  0
  142.3377  154.3209  131.9079 H   0  0  0  0  0  0  0  0  0  0  0  0
  144.8782  157.8304  134.2587 H   0  0  0  0  0  0  0  0  0  0  0  0
  1  2  1  0
  2  3  1  0
  2  4  1  0
  4  5  2  0
  5  6  1  0
  6  7  2  0
  7  8  1  0
  8  9  2  0
  9 10  1  0
 10 11  1  0
 10 12  2  0
  9 13  1  0
 13 14  1  0
 14 15  2  0
 14 16  1  0
 16 17  1  0
 17 18  1  0
 17 19  1  0
 19 20  1  0
 20 21  1  0
 21 22  1  0
 22 23  1  0
 13 24  1  0
 24 25  2  0
 25  4  1  0
 24  7  1  0
 23 17  1  0
  1 26  1  0
  1 27  1  0
  1 28  1  0
  3 29  1  0
  3 30  1  0
  3 31  1  0
  5 32  1  0
  6 33  1  0
  8 34  1  0
 11 35  1  0
 11 36  1  0
 16 37  1  0
 16 38  1  0
 18 39  1  0
 19 40  1  0
 19 41  1  0
 20 42  1  0
 20 43  1  0
 22 44  1  0
 22 45  1  0
 23 46  1  0
 23 47  1  0
 25 48  1  0
M  END
>  <UniqueID>  (86) 
84

>  <SMILES>  (86) 
CN(C)c1ccc2cc(C(N)=O)n(C(=O)CC3(O)CCOCC3)c2c1

>  <Energy>  (86) 
101.9158357396992

>  <Genealogy>  (86) 
CN(C)c1ccc2cc(C(N)=O)n(C(=O)CC3(O)CCOCC3)c2c1 (3D coordinates assigned)
CN(C)c1ccc2cc(C(N)=O)n(C(=O)CC3(O)CCOCC3)c2c1 (nonaromatic ring conformer: 101.9158357396992 kcal/mol)

>  <smiles>  (86) 
CN(C)c1ccc2cc(C(N)=O)n(C(=O)CC3(O)CCOCC3)c2c1

>  <score_type>  (86) 
oracle

>  <origin>  (86) 
adg

>  <m_score__min__energy>  (86) 
-8.3599999999999994

>  <m_primary>  (86) 
energy

$$$$
86:0
     RDKit          3D

 40 42  0  0  0  0  0  0  0  0999 V2000
  140.9790  150.0470  133.3550 C   0  0  0  0  0  0  0  0  0  0  0  0
  141.6770  151.2520  133.6410 O   0  0  0  0  0  0  0  0  0  0  0  0
  141.6650  151.8500  134.9050 C   0  0  0  0  0  0  0  0  0  0  0  0
  141.0180  151.3180  135.8500 O   0  0  0  0  0  0  0  0  0  0  0  0
  142.4090  153.1090  135.1320 C   0  0  0  0  0  0  0  0  0  0  0  0
  142.9240  153.4260  136.3990 C   0  0  0  0  0  0  0  0  0  0  0  0
  143.6040  154.5870  136.5930 N   0  0  0  0  0  0  0  0  0  0  0  0
  143.8040  155.4770  135.5850 C   0  0  0  0  0  0  0  0  0  0  0  0
  143.3060  155.2170  134.2980 C   0  0  0  0  0  0  0  0  0  0  0  0
  143.5140  156.1880  133.1970 C   0  0  0  0  0  0  0  0  0  0  0  0
  143.7640  155.7720  132.0330 O   0  0  0  0  0  0  0  0  0  0  0  0
  143.4430  157.6040  133.4330 N   0  0  0  0  0  0  0  0  0  0  0  0
  142.3240  158.3680  133.5730 C   0  0  0  0  0  0  0  0  0  0  0  0
  140.9360  157.8640  133.6120 C   0  0  0  0  0  0  0  0  0  0  0  0
  140.6270  156.5900  133.0470 N   0  0  0  0  0  0  0  0  0  0  0  0
  140.0140  158.5520  134.1220 O   0  0  0  0  0  0  0  0  0  0  0  0
  142.6680  159.7090  133.7310 C   0  0  0  0  0  0  0  0  0  0  0  0
  144.0440  159.7410  133.6790 C   0  0  0  0  0  0  0  0  0  0  0  0
  144.9200  160.8200  133.7620 C   0  0  0  0  0  0  0  0  0  0  0  0
  146.2970  160.5590  133.6520 C   0  0  0  0  0  0  0  0  0  0  0  0
  146.7740  159.2340  133.4720 C   0  0  0  0  0  0  0  0  0  0  0  0
  148.2480  158.9730  133.3030 C   0  0  0  0  0  0  0  0  0  0  0  0
  148.8270  159.9430  132.5030 F   0  0  0  0  0  0  0  0  0  0  0  0
  148.4630  157.7410  132.7100 F   0  0  0  0  0  0  0  0  0  0  0  0
  148.8580  158.9880  134.5440 F   0  0  0  0  0  0  0  0  0  0  0  0
  145.8480  158.1700  133.3630 C   0  0  0  0  0  0  0  0  0  0  0  0
  144.4860  158.4580  133.4930 C   0  0  0  0  0  0  0  0  0  0  0  0
  142.6140  154.0150  134.0800 C   0  0  0  0  0  0  0  0  0  0  0  0
  140.6944  149.5557  134.2971 H   0  0  0  0  0  0  0  0  0  0  0  0
  140.0741  150.2767  132.7733 H   0  0  0  0  0  0  0  0  0  0  0  0
  141.6284  149.3763  132.7733 H   0  0  0  0  0  0  0  0  0  0  0  0
  142.7765  152.7313  137.2391 H   0  0  0  0  0  0  0  0  0  0  0  0
  143.9800  154.8030  137.5440 H   0  0  0  0  0  0  0  0  0  0  0  0
  144.3594  156.4066  135.7787 H   0  0  0  0  0  0  0  0  0  0  0  0
  141.3660  156.0170  132.5820 H   0  0  0  0  0  0  0  0  0  0  0  0
  141.9857  160.5609  133.8681 H   0  0  0  0  0  0  0  0  0  0  0  0
  144.5465  161.8442  133.9090 H   0  0  0  0  0  0  0  0  0  0  0  0
  147.0137  161.3917  133.7060 H   0  0  0  0  0  0  0  0  0  0  0  0
  146.1913  157.1410  133.1804 H   0  0  0  0  0  0  0  0  0  0  0  0
  142.2293  153.7814  133.0763 H   0  0  0  0  0  0  0  0  0  0  0  0
  1  2  1  0
  2  3  1  0
  3  4  2  0
  3  5  1  0
  5  6  2  0
  6  7  1  0
  7  8  2  0
  8  9  1  0
  9 10  1  0
 10 11  2  0
 10 12  1  0
 12 13  1  0
 13 14  1  0
 14 15  1  0
 14 16  2  0
 13 17  2  0
 17 18  1  0
 18 19  2  0
 19 20  1  0
 20 21  2  0
 21 22  1  0
 22 23  1  0
 22 24  1  0
 22 25  1  0
 21 26  1  0
 26 27  2  0
  9 28  2  0
 28  5  1  0
 27 12  1  0
 27 18  1  0
  1 29  1  0
  1 30  1  0
  1 31  1  0
  6 32  1  0
  7 33  1  0
  8 34  1  0
 15 35  1  0
 17 36  1  0
 19 37  1  0
 20 38  1  0
 26 39  1  0
 28 40  1  0
M  CHG  2   7   1  15  -1
M  END
>  <UniqueID>  (87) 
85

>  <SMILES>  (87) 
COC(=O)c1c[nH+]cc(C(=O)n2c(C([NH-])=O)cc3ccc(C(F)(F)F)cc32)c1

>  <Energy>  (87) 
81.37634988642189

>  <Genealogy>  (87) 
COC(=O)c1c[nH+]cc(C(=O)n2c(C([NH-])=O)cc3ccc(C(F)(F)F)cc32)c1 (protonated)
COC(=O)c1c[nH+]cc(C(=O)n2c(C([NH-])=O)cc3ccc(C(F)(F)F)cc32)c1 (3D coordinates assigned)
COC(=O)c1c[nH+]cc(C(=O)n2c(C([NH-])=O)cc3ccc(C(F)(F)F)cc32)c1 (optimized conformer: 81.37634988642189 kcal/mol)

>  <smiles>  (87) 
COC(=O)c1cncc(C(=O)n2c(C(N)=O)cc3ccc(C(F)(F)F)cc32)c1

>  <score_type>  (87) 
oracle

>  <origin>  (87) 
adg

>  <m_score__min__energy>  (87) 
-6.6900000000000004

>  <m_primary>  (87) 
energy

$$$$
87:0
     RDKit          3D

 28 29  0  0  0  0  0  0  0  0999 V2000
  149.5580  151.4850  134.1830 N   0  0  0  0  0  0  0  0  0  0  0  0
  148.9940  152.2150  133.4860 C   0  0  0  0  0  0  0  0  0  0  0  0
  148.2790  153.1420  132.6040 C   0  0  0  0  0  0  0  0  0  0  0  0
  148.8000  154.5340  132.7960 C   0  0  0  0  0  0  0  0  0  0  0  0
  149.9820  154.8090  132.4550 O   0  0  0  0  0  0  0  0  0  0  0  0
  147.9750  155.5490  133.3850 N   0  0  0  0  0  0  0  0  0  0  0  0
  147.1130  155.4180  134.4320 C   0  0  0  0  0  0  0  0  0  0  0  0
  146.7630  154.1550  135.1160 C   0  0  0  0  0  0  0  0  0  0  0  0
  147.7140  153.4680  135.9250 N   0  0  0  0  0  0  0  0  0  0  0  0
  145.6150  153.6590  134.9620 O   0  0  0  0  0  0  0  0  0  0  0  0
  146.5510  156.6530  134.7560 C   0  0  0  0  0  0  0  0  0  0  0  0
  147.1030  157.5490  133.8680 C   0  0  0  0  0  0  0  0  0  0  0  0
  146.9230  158.9240  133.7550 C   0  0  0  0  0  0  0  0  0  0  0  0
  147.6570  159.6050  132.7700 C   0  0  0  0  0  0  0  0  0  0  0  0
  148.5460  158.9050  131.9120 C   0  0  0  0  0  0  0  0  0  0  0  0
  149.3740  159.6580  130.9020 C   0  0  0  0  0  0  0  0  0  0  0  0
  149.0000  159.3190  129.6130 F   0  0  0  0  0  0  0  0  0  0  0  0
  150.7180  159.3610  131.0530 F   0  0  0  0  0  0  0  0  0  0  0  0
  149.1900  161.0160  131.0830 F   0  0  0  0  0  0  0  0  0  0  0  0
  148.7200  157.5120  132.0780 C   0  0  0  0  0  0  0  0  0  0  0  0
  147.9600  156.8580  133.0540 C   0  0  0  0  0  0  0  0  0  0  0  0
  148.4283  152.8379  131.5575 H   0  0  0  0  0  0  0  0  0  0  0  0
  147.2068  153.1200  132.8486 H   0  0  0  0  0  0  0  0  0  0  0  0
  148.3010  152.7010  135.5310 H   0  0  0  0  0  0  0  0  0  0  0  0
  145.8219  156.8658  135.5517 H   0  0  0  0  0  0  0  0  0  0  0  0
  146.2274  159.4611  134.4166 H   0  0  0  0  0  0  0  0  0  0  0  0
  147.5418  160.6936  132.6619 H   0  0  0  0  0  0  0  0  0  0  0  0
  149.4356  156.9556  131.4549 H   0  0  0  0  0  0  0  0  0  0  0  0
  1  2  3  0
  2  3  1  0
  3  4  1  0
  4  5  2  0
  4  6  1  0
  6  7  1  0
  7  8  1  0
  8  9  1  0
  8 10  2  0
  7 11  2  0
 11 12  1  0
 12 13  2  0
 13 14  1  0
 14 15  2  0
 15 16  1  0
 16 17  1  0
 16 18  1  0
 16 19  1  0
 15 20  1  0
 20 21  2  0
 21  6  1  0
 21 12  1  0
  3 22  1  0
  3 23  1  0
  9 24  1  0
 11 25  1  0
 13 26  1  0
 14 27  1  0
 20 28  1  0
M  CHG  1   9  -1
M  END
>  <UniqueID>  (88) 
86

>  <SMILES>  (88) 
N#CCC(=O)n1c(C([NH-])=O)cc2ccc(C(F)(F)F)cc21

>  <Energy>  (88) 
66.58653929389442

>  <Genealogy>  (88) 
N#CCC(=O)n1c(C([NH-])=O)cc2ccc(C(F)(F)F)cc21 (protonated)
N#CCC(=O)n1c(C([NH-])=O)cc2ccc(C(F)(F)F)cc21 (3D coordinates assigned)
N#CCC(=O)n1c(C([NH-])=O)cc2ccc(C(F)(F)F)cc21 (optimized conformer: 66.58653929389442 kcal/mol)

>  <smiles>  (88) 
N#CCC(=O)n1c(C(N)=O)cc2ccc(C(F)(F)F)cc21

>  <score_type>  (88) 
oracle

>  <origin>  (88) 
adg

>  <m_score__min__energy>  (88) 
-6.2000000000000002

>  <m_primary>  (88) 
energy

$$$$
88:0
     RDKit          3D

 51 52  0  0  0  0  0  0  0  0999 V2000
  147.3580  159.8210  132.1780 C   0  0  0  0  0  0  0  0  0  0  0  0
  146.6260  158.6740  132.7400 N   0  0  0  0  0  0  0  0  0  0  0  0
  145.3730  159.1450  133.3560 C   0  0  0  0  0  0  0  0  0  0  0  0
  147.4720  157.9660  133.7260 C   0  0  0  0  0  0  0  0  0  0  0  0
  147.4310  156.4450  133.5080 C   0  0  0  0  0  0  0  0  0  0  0  0
  146.3220  156.0620  132.6310 N   0  0  0  0  0  0  0  0  0  0  0  0
  145.6200  154.8040  132.6960 C   0  0  0  0  0  0  0  0  0  0  0  0
  146.3620  153.5990  132.6100 C   0  0  0  0  0  0  0  0  0  0  0  0
  145.7230  152.3510  132.6840 C   0  0  0  0  0  0  0  0  0  0  0  0
  144.3400  152.3340  132.8330 C   0  0  0  0  0  0  0  0  0  0  0  0
  143.4780  151.2700  132.9770 C   0  0  0  0  0  0  0  0  0  0  0  0
  142.2150  151.8390  133.1170 C   0  0  0  0  0  0  0  0  0  0  0  0
  140.9750  151.0460  133.2500 C   0  0  0  0  0  0  0  0  0  0  0  0
  139.7860  151.4080  132.5450 N   0  0  0  0  0  0  0  0  0  0  0  0
  140.9820  150.0010  133.9530 O   0  0  0  0  0  0  0  0  0  0  0  0
  142.2910  153.1980  133.0740 N   0  0  0  0  0  0  0  0  0  0  0  0
  141.2400  154.1440  133.3260 C   0  0  0  0  0  0  0  0  0  0  0  0
  140.1910  154.1130  132.6300 O   0  0  0  0  0  0  0  0  0  0  0  0
  141.3920  155.0810  134.3600 O   0  0  0  0  0  0  0  0  0  0  0  0
  141.1060  156.4850  134.2850 C   0  0  0  0  0  0  0  0  0  0  0  0
  139.6880  156.7150  133.7270 C   0  0  0  0  0  0  0  0  0  0  0  0
  142.1570  157.2090  133.4230 C   0  0  0  0  0  0  0  0  0  0  0  0
  141.1700  157.0360  135.7170 C   0  0  0  0  0  0  0  0  0  0  0  0
  143.6000  153.4850  132.8960 C   0  0  0  0  0  0  0  0  0  0  0  0
  144.2130  154.7440  132.8390 C   0  0  0  0  0  0  0  0  0  0  0  0
  147.7533  160.4404  132.9966 H   0  0  0  0  0  0  0  0  0  0  0  0
  148.1909  159.4566  131.5587 H   0  0  0  0  0  0  0  0  0  0  0  0
  146.6767  160.4230  131.5587 H   0  0  0  0  0  0  0  0  0  0  0  0
  145.4670  159.1097  134.4514 H   0  0  0  0  0  0  0  0  0  0  0  0
  145.1743  160.1792  133.0382 H   0  0  0  0  0  0  0  0  0  0  0  0
  144.5423  158.4978  133.0382 H   0  0  0  0  0  0  0  0  0  0  0  0
  148.5102  158.3148  133.6232 H   0  0  0  0  0  0  0  0  0  0  0  0
  147.0863  158.1827  134.7331 H   0  0  0  0  0  0  0  0  0  0  0  0
  148.3777  156.1232  133.0496 H   0  0  0  0  0  0  0  0  0  0  0  0
  147.2855  155.9585  134.4838 H   0  0  0  0  0  0  0  0  0  0  0  0
  146.0320  156.7540  131.9030 H   0  0  0  0  0  0  0  0  0  0  0  0
  147.4538  153.6424  132.4835 H   0  0  0  0  0  0  0  0  0  0  0  0
  146.2984  151.4153  132.6260 H   0  0  0  0  0  0  0  0  0  0  0  0
  143.7326  150.1999  132.9807 H   0  0  0  0  0  0  0  0  0  0  0  0
  138.9100  150.8570  132.6810 H   0  0  0  0  0  0  0  0  0  0  0  0
  139.7940  152.1610  131.8230 H   0  0  0  0  0  0  0  0  0  0  0  0
  138.9800  156.8298  134.5610 H   0  0  0  0  0  0  0  0  0  0  0  0
  139.6798  157.6262  133.1109 H   0  0  0  0  0  0  0  0  0  0  0  0
  139.3922  155.8531  133.1109 H   0  0  0  0  0  0  0  0  0  0  0  0
  142.8853  157.7107  134.0772 H   0  0  0  0  0  0  0  0  0  0  0  0
  142.6777  156.4771  132.7881 H   0  0  0  0  0  0  0  0  0  0  0  0
  141.6587  157.9564  132.7881 H   0  0  0  0  0  0  0  0  0  0  0  0
  141.0737  156.2069  136.4335 H   0  0  0  0  0  0  0  0  0  0  0  0
  142.1332  157.5442  135.8716 H   0  0  0  0  0  0  0  0  0  0  0  0
  140.3489  157.7515  135.8716 H   0  0  0  0  0  0  0  0  0  0  0  0
  143.6144  155.6646  132.9039 H   0  0  0  0  0  0  0  0  0  0  0  0
  1  2  1  0
  2  3  1  0
  2  4  1  0
  4  5  1  0
  5  6  1  0
  6  7  1  0
  7  8  2  0
  8  9  1  0
  9 10  2  0
 10 11  1  0
 11 12  2  0
 12 13  1  0
 13 14  1  0
 13 15  2  0
 12 16  1  0
 16 17  1  0
 17 18  2  0
 17 19  1  0
 19 20  1  0
 20 21  1  0
 20 22  1  0
 20 23  1  0
 16 24  1  0
 24 25  2  0
 25  7  1  0
 24 10  1  0
  1 26  1  0
  1 27  1  0
  1 28  1  0
  3 29  1  0
  3 30  1  0
  3 31  1  0
  4 32  1  0
  4 33  1  0
  5 34  1  0
  5 35  1  0
  6 36  1  0
  8 37  1  0
  9 38  1  0
 11 39  1  0
 14 40  1  0
 14 41  1  0
 21 42  1  0
 21 43  1  0
 21 44  1  0
 22 45  1  0
 22 46  1  0
 22 47  1  0
 23 48  1  0
 23 49  1  0
 23 50  1  0
 25 51  1  0
M  END
>  <UniqueID>  (89) 
87

>  <SMILES>  (89) 
CN(C)CCNc1ccc2cc(C(N)=O)n(C(=O)OC(C)(C)C)c2c1

>  <Energy>  (89) 
82.37141934440778

>  <Genealogy>  (89) 
CN(C)CCNc1ccc2cc(C(N)=O)n(C(=O)OC(C)(C)C)c2c1 (3D coordinates assigned)
CN(C)CCNc1ccc2cc(C(N)=O)n(C(=O)OC(C)(C)C)c2c1 (optimized conformer: 82.37141934440778 kcal/mol)

>  <smiles>  (89) 
CN(C)CCNc1ccc2cc(C(N)=O)n(C(=O)OC(C)(C)C)c2c1

>  <score_type>  (89) 
oracle

>  <origin>  (89) 
adg

>  <m_score__min__energy>  (89) 
-7.8300000000000001

>  <m_primary>  (89) 
energy

$$$$
89:0
     RDKit          3D

 46 48  0  0  0  0  0  0  0  0999 V2000
  141.9740  159.2730  134.6080 C   0  0  0  0  0  0  0  0  0  0  0  0
  143.3970  159.4220  134.1620 C   0  0  0  0  0  0  0  0  0  0  0  0
  143.9910  160.7080  134.1000 C   0  0  0  0  0  0  0  0  0  0  0  0
  145.3380  160.8560  133.7310 C   0  0  0  0  0  0  0  0  0  0  0  0
  146.0640  159.7050  133.4340 C   0  0  0  0  0  0  0  0  0  0  0  0
  147.3860  159.5590  133.0810 C   0  0  0  0  0  0  0  0  0  0  0  0
  147.5780  158.1860  132.9310 C   0  0  0  0  0  0  0  0  0  0  0  0
  148.8560  157.5790  132.5020 C   0  0  0  0  0  0  0  0  0  0  0  0
  148.9730  156.1610  132.4100 N   0  0  0  0  0  0  0  0  0  0  0  0
  149.8550  158.2990  132.2370 O   0  0  0  0  0  0  0  0  0  0  0  0
  146.4200  157.5110  133.1820 N   0  0  0  0  0  0  0  0  0  0  0  0
  146.2250  156.0880  133.1840 C   0  0  0  0  0  0  0  0  0  0  0  0
  146.1350  155.4730  132.0870 O   0  0  0  0  0  0  0  0  0  0  0  0
  146.0380  155.3460  134.4800 C   0  0  0  0  0  0  0  0  0  0  0  0
  146.5880  153.9090  134.4310 C   0  0  0  0  0  0  0  0  0  0  0  0
  148.0790  153.8610  134.0340 C   0  0  0  0  0  0  0  0  0  0  0  0
  148.2560  153.4980  132.6040 N   0  0  0  0  0  0  0  0  0  0  0  0
  149.6660  153.2040  132.2760 C   0  0  0  0  0  0  0  0  0  0  0  0
  149.8590  151.6920  132.3340 C   0  0  0  0  0  0  0  0  0  0  0  0
  148.4720  151.1040  132.5000 C   0  0  0  0  0  0  0  0  0  0  0  0
  147.5260  152.2660  132.2660 C   0  0  0  0  0  0  0  0  0  0  0  0
  145.5030  158.4550  133.4900 C   0  0  0  0  0  0  0  0  0  0  0  0
  144.1700  158.2770  133.8720 C   0  0  0  0  0  0  0  0  0  0  0  0
  141.9328  159.2687  135.7072 H   0  0  0  0  0  0  0  0  0  0  0  0
  141.3788  160.1137  134.2221 H   0  0  0  0  0  0  0  0  0  0  0  0
  141.5659  158.3272  134.2221 H   0  0  0  0  0  0  0  0  0  0  0  0
  143.3915  161.5976  134.3431 H   0  0  0  0  0  0  0  0  0  0  0  0
  145.8053  161.8504  133.6782 H   0  0  0  0  0  0  0  0  0  0  0  0
  148.1323  160.3557  132.9459 H   0  0  0  0  0  0  0  0  0  0  0  0
  148.2880  155.6010  131.8560 H   0  0  0  0  0  0  0  0  0  0  0  0
  146.5602  155.8949  135.2775 H   0  0  0  0  0  0  0  0  0  0  0  0
  144.9565  155.2798  134.6699 H   0  0  0  0  0  0  0  0  0  0  0  0
  146.4726  153.4528  135.4253 H   0  0  0  0  0  0  0  0  0  0  0  0
  146.0201  153.3592  133.6660 H   0  0  0  0  0  0  0  0  0  0  0  0
  148.5263  154.8507  134.2085 H   0  0  0  0  0  0  0  0  0  0  0  0
  148.5721  153.0917  134.6464 H   0  0  0  0  0  0  0  0  0  0  0  0
  147.9020  154.2760  131.9980 H   0  0  0  0  0  0  0  0  0  0  0  0
  149.8985  153.5713  131.2655 H   0  0  0  0  0  0  0  0  0  0  0  0
  150.3364  153.7022  132.9919 H   0  0  0  0  0  0  0  0  0  0  0  0
  150.3200  151.3289  131.4036 H   0  0  0  0  0  0  0  0  0  0  0  0
  150.5236  151.4004  133.1606 H   0  0  0  0  0  0  0  0  0  0  0  0
  148.2979  150.3081  131.7609 H   0  0  0  0  0  0  0  0  0  0  0  0
  148.3311  150.6479  133.4910 H   0  0  0  0  0  0  0  0  0  0  0  0
  147.2134  152.2907  131.2117 H   0  0  0  0  0  0  0  0  0  0  0  0
  146.6234  152.1650  132.8865 H   0  0  0  0  0  0  0  0  0  0  0  0
  143.7343  157.2696  133.9448 H   0  0  0  0  0  0  0  0  0  0  0  0
  1  2  1  0
  2  3  2  0
  3  4  1  0
  4  5  2  0
  5  6  1  0
  6  7  2  0
  7  8  1  0
  8  9  1  0
  8 10  2  0
  7 11  1  0
 11 12  1  0
 12 13  2  0
 12 14  1  0
 14 15  1  0
 15 16  1  0
 16 17  1  0
 17 18  1  0
 18 19  1  0
 19 20  1  0
 20 21  1  0
 11 22  1  0
 22 23  2  0
 23  2  1  0
 22  5  1  0
 21 17  1  0
  1 24  1  0
  1 25  1  0
  1 26  1  0
  3 27  1  0
  4 28  1  0
  6 29  1  0
  9 30  1  0
 14 31  1  0
 14 32  1  0
 15 33  1  0
 15 34  1  0
 16 35  1  0
 16 36  1  0
 17 37  1  0
 18 38  1  0
 18 39  1  0
 19 40  1  0
 19 41  1  0
 20 42  1  0
 20 43  1  0
 21 44  1  0
 21 45  1  0
 23 46  1  0
M  CHG  2   9  -1  17   1
M  END
>  <UniqueID>  (90) 
88

>  <SMILES>  (90) 
Cc1ccc2cc(C([NH-])=O)n(C(=O)CCC[NH+]3CCCC3)c2c1

>  <Energy>  (90) 
88.03058938657563

>  <Genealogy>  (90) 
Cc1ccc2cc(C([NH-])=O)n(C(=O)CCC[NH+]3CCCC3)c2c1 (protonated)
Cc1ccc2cc(C([NH-])=O)n(C(=O)CCC[NH+]3CCCC3)c2c1 (3D coordinates assigned)
Cc1ccc2cc(C([NH-])=O)n(C(=O)CCC[NH+]3CCCC3)c2c1 (nonaromatic ring conformer: 88.03058938657563 kcal/mol)

>  <smiles>  (90) 
Cc1ccc2cc(C(N)=O)n(C(=O)CCCN3CCCC3)c2c1

>  <score_type>  (90) 
oracle

>  <origin>  (90) 
adg

>  <m_score__min__energy>  (90) 
-6.5199999999999996

>  <m_primary>  (90) 
energy

$$$$
90:0
     RDKit          3D

 30 31  0  0  0  0  0  0  0  0999 V2000
  146.9000  160.8490  133.2370 N   0  0  0  0  0  0  0  0  0  0  0  0
  145.9080  159.8290  133.3590 C   0  0  0  0  0  0  0  0  0  0  0  0
  144.7000  160.1580  133.4950 O   0  0  0  0  0  0  0  0  0  0  0  0
  146.2640  158.3960  133.2800 C   0  0  0  0  0  0  0  0  0  0  0  0
  145.3290  157.3650  133.3620 C   0  0  0  0  0  0  0  0  0  0  0  0
  146.0510  156.2050  133.1930 C   0  0  0  0  0  0  0  0  0  0  0  0
  145.6330  154.8790  133.2100 C   0  0  0  0  0  0  0  0  0  0  0  0
  146.6080  153.8790  133.0510 C   0  0  0  0  0  0  0  0  0  0  0  0
  147.9750  154.2180  132.8690 C   0  0  0  0  0  0  0  0  0  0  0  0
  149.0180  153.1360  132.7620 C   0  0  0  0  0  0  0  0  0  0  0  0
  149.2350  152.5420  133.9920 F   0  0  0  0  0  0  0  0  0  0  0  0
  148.5850  152.1740  131.8680 F   0  0  0  0  0  0  0  0  0  0  0  0
  150.2200  153.6580  132.3150 F   0  0  0  0  0  0  0  0  0  0  0  0
  148.3620  155.5780  132.8820 C   0  0  0  0  0  0  0  0  0  0  0  0
  147.3670  156.5520  133.0260 C   0  0  0  0  0  0  0  0  0  0  0  0
  147.5140  157.8920  133.0830 N   0  0  0  0  0  0  0  0  0  0  0  0
  148.7630  158.6010  133.0650 C   0  0  0  0  0  0  0  0  0  0  0  0
  149.1160  159.2700  134.0730 O   0  0  0  0  0  0  0  0  0  0  0  0
  149.6030  158.6390  131.8240 C   0  0  0  0  0  0  0  0  0  0  0  0
  149.1230  159.7310  130.9250 C   0  0  0  0  0  0  0  0  0  0  0  0
  148.8230  159.4790  129.7280 O   0  0  0  0  0  0  0  0  0  0  0  0
  148.9570  161.0180  131.4210 O   0  0  0  0  0  0  0  0  0  0  0  0
  147.8750  160.6250  132.9410 H   0  0  0  0  0  0  0  0  0  0  0  0
  146.6350  161.8520  133.3540 H   0  0  0  0  0  0  0  0  0  0  0  0
  144.2454  157.4585  133.5266 H   0  0  0  0  0  0  0  0  0  0  0  0
  144.5722  154.6205  133.3438 H   0  0  0  0  0  0  0  0  0  0  0  0
  146.3084  152.8207  133.0677 H   0  0  0  0  0  0  0  0  0  0  0  0
  149.4195  155.8637  132.7814 H   0  0  0  0  0  0  0  0  0  0  0  0
  150.6519  158.8253  132.0979 H   0  0  0  0  0  0  0  0  0  0  0  0
  149.5238  157.6748  131.3006 H   0  0  0  0  0  0  0  0  0  0  0  0
  1  2  1  0
  2  3  2  0
  2  4  1  0
  4  5  2  0
  5  6  1  0
  6  7  2  0
  7  8  1  0
  8  9  2  0
  9 10  1  0
 10 11  1  0
 10 12  1  0
 10 13  1  0
  9 14  1  0
 14 15  2  0
 15 16  1  0
 16 17  1  0
 17 18  2  0
 17 19  1  0
 19 20  1  0
 20 21  2  0
 20 22  1  0
 16  4  1  0
 15  6  1  0
  1 23  1  0
  1 24  1  0
  5 25  1  0
  7 26  1  0
  8 27  1  0
 14 28  1  0
 19 29  1  0
 19 30  1  0
M  CHG  1  22  -1
M  END
>  <UniqueID>  (91) 
89

>  <SMILES>  (91) 
NC(=O)c1cc2ccc(C(F)(F)F)cc2n1C(=O)CC(=O)[O-]

>  <Energy>  (91) 
69.34175457501502

>  <Genealogy>  (91) 
NC(=O)c1cc2ccc(C(F)(F)F)cc2n1C(=O)CC(=O)[O-] (protonated)
NC(=O)c1cc2ccc(C(F)(F)F)cc2n1C(=O)CC(=O)[O-] (3D coordinates assigned)
NC(=O)c1cc2ccc(C(F)(F)F)cc2n1C(=O)CC(=O)[O-] (optimized conformer: 69.34175457501502 kcal/mol)

>  <smiles>  (91) 
NC(=O)c1cc2ccc(C(F)(F)F)cc2n1C(=O)CC(=O)O

>  <score_type>  (91) 
oracle

>  <origin>  (91) 
adg

>  <m_score__min__energy>  (91) 
-6.0099999999999998

>  <m_primary>  (91) 
energy

$$$$
91:0
     RDKit          3D

 43 44  0  0  0  0  0  0  0  0999 V2000
  149.9840  160.1880  129.5270 C   0  0  0  0  0  0  0  0  0  0  0  0
  148.8670  160.8540  130.3210 C   0  0  0  0  0  0  0  0  0  0  0  0
  148.7820  160.2740  131.6980 C   0  0  0  0  0  0  0  0  0  0  0  0
  148.1120  160.8640  132.5870 O   0  0  0  0  0  0  0  0  0  0  0  0
  149.4990  159.0770  132.0080 N   0  0  0  0  0  0  0  0  0  0  0  0
  148.8380  157.8540  132.4450 C   0  0  0  0  0  0  0  0  0  0  0  0
  147.9450  158.1300  133.6570 C   0  0  0  0  0  0  0  0  0  0  0  0
  146.8240  157.0990  133.8360 C   0  0  0  0  0  0  0  0  0  0  0  0
  145.5770  157.7410  134.1010 O   0  0  0  0  0  0  0  0  0  0  0  0
  145.0570  158.7880  133.3290 C   0  0  0  0  0  0  0  0  0  0  0  0
  145.7770  159.3670  132.4700 O   0  0  0  0  0  0  0  0  0  0  0  0
  143.7060  159.2270  133.5420 N   0  0  0  0  0  0  0  0  0  0  0  0
  143.2650  160.4920  133.7990 C   0  0  0  0  0  0  0  0  0  0  0  0
  144.0810  161.7250  133.7600 C   0  0  0  0  0  0  0  0  0  0  0  0
  145.4760  161.6930  134.0510 N   0  0  0  0  0  0  0  0  0  0  0  0
  143.5490  162.8130  133.4140 O   0  0  0  0  0  0  0  0  0  0  0  0
  141.8940  160.4930  134.0420 C   0  0  0  0  0  0  0  0  0  0  0  0
  141.5000  159.1820  133.9150 C   0  0  0  0  0  0  0  0  0  0  0  0
  140.2440  158.6080  134.0750 C   0  0  0  0  0  0  0  0  0  0  0  0
  140.1310  157.2160  133.9250 C   0  0  0  0  0  0  0  0  0  0  0  0
  141.2660  156.4260  133.6100 C   0  0  0  0  0  0  0  0  0  0  0  0
  141.1450  154.9250  133.5160 C   0  0  0  0  0  0  0  0  0  0  0  0
  141.2830  154.3780  134.7770 F   0  0  0  0  0  0  0  0  0  0  0  0
  142.1270  154.4070  132.6890 F   0  0  0  0  0  0  0  0  0  0  0  0
  139.9120  154.5670  133.0000 F   0  0  0  0  0  0  0  0  0  0  0  0
  142.5320  157.0450  133.4800 C   0  0  0  0  0  0  0  0  0  0  0  0
  142.6100  158.4370  133.6150 C   0  0  0  0  0  0  0  0  0  0  0  0
  150.7170  159.7510  130.2211 H   0  0  0  0  0  0  0  0  0  0  0  0
  149.5607  159.3947  128.8933 H   0  0  0  0  0  0  0  0  0  0  0  0
  150.4807  160.9375  128.8933 H   0  0  0  0  0  0  0  0  0  0  0  0
  149.0694  161.9327  130.3949 H   0  0  0  0  0  0  0  0  0  0  0  0
  147.9119  160.6808  129.8035 H   0  0  0  0  0  0  0  0  0  0  0  0
  148.2211  157.4624  131.6227 H   0  0  0  0  0  0  0  0  0  0  0  0
  149.6044  157.1176  132.7286 H   0  0  0  0  0  0  0  0  0  0  0  0
  148.5721  158.1234  134.5607 H   0  0  0  0  0  0  0  0  0  0  0  0
  147.4649  159.1056  133.4907 H   0  0  0  0  0  0  0  0  0  0  0  0
  146.7334  156.5026  132.9162 H   0  0  0  0  0  0  0  0  0  0  0  0
  147.0746  156.4532  134.6905 H   0  0  0  0  0  0  0  0  0  0  0  0
  146.1590  161.3230  133.3540 H   0  0  0  0  0  0  0  0  0  0  0  0
  141.2605  161.3590  134.2842 H   0  0  0  0  0  0  0  0  0  0  0  0
  139.3650  159.2254  134.3120 H   0  0  0  0  0  0  0  0  0  0  0  0
  139.1510  156.7331  134.0533 H   0  0  0  0  0  0  0  0  0  0  0  0
  143.4331  156.4474  133.2778 H   0  0  0  0  0  0  0  0  0  0  0  0
  1  2  1  0
  2  3  1  0
  3  4  2  0
  3  5  1  0
  5  6  1  0
  6  7  1  0
  7  8  1  0
  8  9  1  0
  9 10  1  0
 10 11  2  0
 10 12  1  0
 12 13  1  0
 13 14  1  0
 14 15  1  0
 14 16  2  0
 13 17  2  0
 17 18  1  0
 18 19  2  0
 19 20  1  0
 20 21  2  0
 21 22  1  0
 22 23  1  0
 22 24  1  0
 22 25  1  0
 21 26  1  0
 26 27  2  0
 27 12  1  0
 27 18  1  0
  1 28  1  0
  1 29  1  0
  1 30  1  0
  2 31  1  0
  2 32  1  0
  6 33  1  0
  6 34  1  0
  7 35  1  0
  7 36  1  0
  8 37  1  0
  8 38  1  0
 15 39  1  0
 17 40  1  0
 19 41  1  0
 20 42  1  0
 26 43  1  0
M  CHG  2   5  -1  15  -1
M  END
>  <UniqueID>  (92) 
90

>  <SMILES>  (92) 
CCC(=O)[N-]CCCOC(=O)n1c(C([NH-])=O)cc2ccc(C(F)(F)F)cc21

>  <Energy>  (92) 
70.77936528639258

>  <Genealogy>  (92) 
CCC(=O)[N-]CCCOC(=O)n1c(C([NH-])=O)cc2ccc(C(F)(F)F)cc21 (protonated)
CCC(=O)[N-]CCCOC(=O)n1c(C([NH-])=O)cc2ccc(C(F)(F)F)cc21 (3D coordinates assigned)
CCC(=O)[N-]CCCOC(=O)n1c(C([NH-])=O)cc2ccc(C(F)(F)F)cc21 (optimized conformer: 70.77936528639258 kcal/mol)

>  <smiles>  (92) 
CCC(=O)NCCCOC(=O)n1c(C(N)=O)cc2ccc(C(F)(F)F)cc21

>  <score_type>  (92) 
oracle

>  <origin>  (92) 
adg

>  <m_score__min__energy>  (92) 
-6.5700000000000003

>  <m_primary>  (92) 
energy

$$$$
92:0
     RDKit          3D

 48 50  0  0  0  0  0  0  0  0999 V2000
  148.1060  153.1670  134.1400 N   0  0  0  0  0  0  0  0  0  0  0  0
  148.4050  154.2360  133.2480 C   0  0  0  0  0  0  0  0  0  0  0  0
  149.3040  154.0860  132.3800 O   0  0  0  0  0  0  0  0  0  0  0  0
  147.6980  155.5230  133.3770 C   0  0  0  0  0  0  0  0  0  0  0  0
  148.2520  156.7410  132.9930 C   0  0  0  0  0  0  0  0  0  0  0  0
  147.2350  157.6580  133.1200 C   0  0  0  0  0  0  0  0  0  0  0  0
  147.2280  159.0270  132.8740 C   0  0  0  0  0  0  0  0  0  0  0  0
  146.0400  159.7350  133.1220 C   0  0  0  0  0  0  0  0  0  0  0  0
  144.8910  159.0720  133.6280 C   0  0  0  0  0  0  0  0  0  0  0  0
  143.6160  159.8420  133.8560 C   0  0  0  0  0  0  0  0  0  0  0  0
  143.1690  159.6680  135.1540 F   0  0  0  0  0  0  0  0  0  0  0  0
  142.6210  159.4130  132.9950 F   0  0  0  0  0  0  0  0  0  0  0  0
  143.8530  161.1850  133.6360 F   0  0  0  0  0  0  0  0  0  0  0  0
  144.9300  157.6740  133.8370 C   0  0  0  0  0  0  0  0  0  0  0  0
  146.1250  156.9940  133.5710 C   0  0  0  0  0  0  0  0  0  0  0  0
  146.3970  155.6820  133.7510 N   0  0  0  0  0  0  0  0  0  0  0  0
  145.5050  154.7010  134.3090 C   0  0  0  0  0  0  0  0  0  0  0  0
  145.6820  154.2960  135.4890 O   0  0  0  0  0  0  0  0  0  0  0  0
  144.4310  154.0570  133.4760 C   0  0  0  0  0  0  0  0  0  0  0  0
  144.9860  152.4600  132.7810 S   0  0  0  0  0  0  0  0  0  0  0  0
  143.3480  151.7260  132.6890 C   0  0  0  0  0  0  0  0  0  0  0  0
  142.2080  152.5300  132.7230 C   0  0  0  0  0  0  0  0  0  0  0  0
  140.9500  151.9410  132.6010 C   0  0  0  0  0  0  0  0  0  0  0  0
  140.8200  150.5820  132.4820 N   0  0  0  0  0  0  0  0  0  0  0  0
  139.4750  150.0120  132.3070 C   0  0  0  0  0  0  0  0  0  0  0  0
  139.3020  149.4980  130.8720 C   0  0  0  0  0  0  0  0  0  0  0  0
  139.0660  147.9850  130.8250 C   0  0  0  0  0  0  0  0  0  0  0  0
  140.2120  147.3050  130.3890 O   0  0  0  0  0  0  0  0  0  0  0  0
  141.9350  149.7800  132.4660 C   0  0  0  0  0  0  0  0  0  0  0  0
  141.8300  148.5300  132.3350 O   0  0  0  0  0  0  0  0  0  0  0  0
  143.2100  150.3430  132.5820 C   0  0  0  0  0  0  0  0  0  0  0  0
  147.1320  153.0070  134.4810 H   0  0  0  0  0  0  0  0  0  0  0  0
  149.2830  156.9297  132.6593 H   0  0  0  0  0  0  0  0  0  0  0  0
  148.1251  159.5397  132.4968 H   0  0  0  0  0  0  0  0  0  0  0  0
  145.9996  160.8159  132.9217 H   0  0  0  0  0  0  0  0  0  0  0  0
  144.0431  157.1337  134.1997 H   0  0  0  0  0  0  0  0  0  0  0  0
  143.5461  153.8840  134.1060 H   0  0  0  0  0  0  0  0  0  0  0  0
  144.1924  154.7316  132.6406 H   0  0  0  0  0  0  0  0  0  0  0  0
  142.3009  153.6193  132.8450 H   0  0  0  0  0  0  0  0  0  0  0  0
  140.0510  152.5749  132.6003 H   0  0  0  0  0  0  0  0  0  0  0  0
  139.3392  149.1777  133.0110 H   0  0  0  0  0  0  0  0  0  0  0  0
  138.7252  150.7928  132.5022 H   0  0  0  0  0  0  0  0  0  0  0  0
  138.4396  150.0056  130.4152 H   0  0  0  0  0  0  0  0  0  0  0  0
  140.2299  149.7128  130.3216 H   0  0  0  0  0  0  0  0  0  0  0  0
  138.8012  147.6320  131.8326 H   0  0  0  0  0  0  0  0  0  0  0  0
  138.2503  147.7822  130.1154 H   0  0  0  0  0  0  0  0  0  0  0  0
  140.8590  147.3220  131.1410 H   0  0  0  0  0  0  0  0  0  0  0  0
  144.1003  149.6971  132.5888 H   0  0  0  0  0  0  0  0  0  0  0  0
  1  2  1  0
  2  3  2  0
  2  4  1  0
  4  5  2  0
  5  6  1  0
  6  7  2  0
  7  8  1  0
  8  9  2  0
  9 10  1  0
 10 11  1  0
 10 12  1  0
 10 13  1  0
  9 14  1  0
 14 15  2  0
 15 16  1  0
 16 17  1  0
 17 18  2  0
 17 19  1  0
 19 20  1  0
 20 21  1  0
 21 22  1  0
 22 23  2  0
 23 24  1  0
 24 25  1  0
 25 26  1  0
 26 27  1  0
 27 28  1  0
 24 29  1  0
 29 30  2  0
 29 31  1  0
 16  4  1  0
 31 21  2  0
 15  6  1  0
  1 32  1  0
  5 33  1  0
  7 34  1  0
  8 35  1  0
 14 36  1  0
 19 37  1  0
 19 38  1  0
 22 39  1  0
 23 40  1  0
 25 41  1  0
 25 42  1  0
 26 43  1  0
 26 44  1  0
 27 45  1  0
 27 46  1  0
 28 47  1  0
 31 48  1  0
M  CHG  1   1  -1
M  END
>  <UniqueID>  (93) 
91

>  <SMILES>  (93) 
[NH-]C(=O)c1cc2ccc(C(F)(F)F)cc2n1C(=O)CSc1ccn(CCCO)c(=O)c1

>  <Energy>  (93) 
79.09298833417658

>  <Genealogy>  (93) 
[NH-]C(=O)c1cc2ccc(C(F)(F)F)cc2n1C(=O)CSc1ccn(CCCO)c(=O)c1 (protonated)
[NH-]C(=O)c1cc2ccc(C(F)(F)F)cc2n1C(=O)CSc1ccn(CCCO)c(=O)c1 (3D coordinates assigned)
[NH-]C(=O)c1cc2ccc(C(F)(F)F)cc2n1C(=O)CSc1ccn(CCCO)c(=O)c1 (optimized conformer: 79.09298833417658 kcal/mol)

>  <smiles>  (93) 
NC(=O)c1cc2ccc(C(F)(F)F)cc2n1C(=O)CSc1ccn(CCCO)c(=O)c1

>  <score_type>  (93) 
oracle

>  <origin>  (93) 
adg

>  <m_score__min__energy>  (93) 
-8.1699999999999999

>  <m_primary>  (93) 
energy

$$$$
93:0
     RDKit          3D

 36 38  0  0  0  0  0  0  0  0999 V2000
  149.6070  158.6020  132.1380 C   0  0  0  0  0  0  0  0  0  0  0  0
  148.8530  159.4120  131.0860 C   0  0  0  0  0  0  0  0  0  0  0  0
  149.5230  160.7740  130.8800 C   0  0  0  0  0  0  0  0  0  0  0  0
  147.5050  159.5880  131.5190 O   0  0  0  0  0  0  0  0  0  0  0  0
  147.1130  159.5670  132.8620 C   0  0  0  0  0  0  0  0  0  0  0  0
  147.7110  160.2800  133.7140 O   0  0  0  0  0  0  0  0  0  0  0  0
  146.0390  158.7080  133.2740 N   0  0  0  0  0  0  0  0  0  0  0  0
  144.8010  159.0640  133.7190 C   0  0  0  0  0  0  0  0  0  0  0  0
  144.2390  160.4320  133.7230 C   0  0  0  0  0  0  0  0  0  0  0  0
  145.0840  161.5730  133.8310 N   0  0  0  0  0  0  0  0  0  0  0  0
  142.9970  160.5960  133.5780 O   0  0  0  0  0  0  0  0  0  0  0  0
  144.0790  157.9380  134.1070 C   0  0  0  0  0  0  0  0  0  0  0  0
  144.9160  156.8710  133.8750 C   0  0  0  0  0  0  0  0  0  0  0  0
  144.7140  155.5120  134.0920 C   0  0  0  0  0  0  0  0  0  0  0  0
  145.7660  154.6310  133.7900 C   0  0  0  0  0  0  0  0  0  0  0  0
  147.0020  155.1200  133.2860 C   0  0  0  0  0  0  0  0  0  0  0  0
  148.1210  154.2000  132.9760 C   0  0  0  0  0  0  0  0  0  0  0  0
  149.2590  154.5720  132.3560 N   0  0  0  0  0  0  0  0  0  0  0  0
  149.9860  153.4670  132.2730 N   0  0  0  0  0  0  0  0  0  0  0  0
  149.3310  152.4530  132.8160 N   0  0  0  0  0  0  0  0  0  0  0  0
  148.1650  152.8850  133.2610 N   0  0  0  0  0  0  0  0  0  0  0  0
  147.1650  156.5110  133.0820 C   0  0  0  0  0  0  0  0  0  0  0  0
  146.0920  157.3610  133.3740 C   0  0  0  0  0  0  0  0  0  0  0  0
  149.3012  158.9305  133.1423 H   0  0  0  0  0  0  0  0  0  0  0  0
  149.3741  157.5340  132.0148 H   0  0  0  0  0  0  0  0  0  0  0  0
  150.6889  158.7579  132.0148 H   0  0  0  0  0  0  0  0  0  0  0  0
  148.8682  158.8733  130.1271 H   0  0  0  0  0  0  0  0  0  0  0  0
  149.7449  161.2252  131.8584 H   0  0  0  0  0  0  0  0  0  0  0  0
  150.4585  160.6410  130.3169 H   0  0  0  0  0  0  0  0  0  0  0  0
  148.8467  161.4339  130.3169 H   0  0  0  0  0  0  0  0  0  0  0  0
  146.0110  161.6040  133.3510 H   0  0  0  0  0  0  0  0  0  0  0  0
  143.0570  157.9081  134.5126 H   0  0  0  0  0  0  0  0  0  0  0  0
  143.7585  155.1379  134.4885 H   0  0  0  0  0  0  0  0  0  0  0  0
  145.6317  153.5503  133.9453 H   0  0  0  0  0  0  0  0  0  0  0  0
  147.4520  152.2890  133.7350 H   0  0  0  0  0  0  0  0  0  0  0  0
  148.1147  156.9155  132.7021 H   0  0  0  0  0  0  0  0  0  0  0  0
  1  2  1  0
  2  3  1  0
  2  4  1  0
  4  5  1  0
  5  6  2  0
  5  7  1  0
  7  8  1  0
  8  9  1  0
  9 10  1  0
  9 11  2  0
  8 12  2  0
 12 13  1  0
 13 14  2  0
 14 15  1  0
 15 16  2  0
 16 17  1  0
 17 18  2  0
 18 19  1  0
 19 20  1  0
 20 21  2  0
 16 22  1  0
 22 23  2  0
 23  7  1  0
 23 13  1  0
 21 17  1  0
  1 24  1  0
  1 25  1  0
  1 26  1  0
  2 27  1  0
  3 28  1  0
  3 29  1  0
  3 30  1  0
 10 31  1  0
 12 32  1  0
 14 33  1  0
 15 34  1  0
 21 35  1  0
 22 36  1  0
M  CHG  3  10  -1  19  -1  21   1
M  END
>  <UniqueID>  (94) 
92

>  <SMILES>  (94) 
CC(C)OC(=O)n1c(C([NH-])=O)cc2ccc(-c3n[n-]n[nH+]3)cc21

>  <Energy>  (94) 
111.84120799483489

>  <Genealogy>  (94) 
CC(C)OC(=O)n1c(C([NH-])=O)cc2ccc(-c3n[n-]n[nH+]3)cc21 (protonated)
CC(C)OC(=O)n1c(C([NH-])=O)cc2ccc(-c3n[n-]n[nH+]3)cc21 (3D coordinates assigned)
CC(C)OC(=O)n1c(C([NH-])=O)cc2ccc(-c3n[n-]n[nH+]3)cc21 (optimized conformer: 111.84120799483489 kcal/mol)

>  <smiles>  (94) 
CC(C)OC(=O)n1c(C(N)=O)cc2ccc(-c3nn[nH]n3)cc21

>  <score_type>  (94) 
oracle

>  <origin>  (94) 
adg

>  <m_score__min__energy>  (94) 
-7.9100000000000001

>  <m_primary>  (94) 
energy

$$$$
94:0
     RDKit          3D

 46 48  0  0  0  0  0  0  0  0999 V2000
  147.7540  160.4960  130.4410 C   0  0  0  0  0  0  0  0  0  0  0  0
  148.9340  161.0450  131.1320 N   0  0  0  0  0  0  0  0  0  0  0  0
  149.4850  162.1750  130.3620 C   0  0  0  0  0  0  0  0  0  0  0  0
  149.9670  160.0090  131.3490 C   0  0  0  0  0  0  0  0  0  0  0  0
  149.3020  158.6700  131.7180 C   0  0  0  0  0  0  0  0  0  0  0  0
  148.6160  158.6930  133.0600 C   0  0  0  0  0  0  0  0  0  0  0  0
  149.1750  159.3060  134.0120 O   0  0  0  0  0  0  0  0  0  0  0  0
  147.3500  158.0480  133.2860 N   0  0  0  0  0  0  0  0  0  0  0  0
  146.1520  158.6620  133.4880 C   0  0  0  0  0  0  0  0  0  0  0  0
  145.9420  160.1030  133.6940 C   0  0  0  0  0  0  0  0  0  0  0  0
  146.9400  161.0560  133.3230 N   0  0  0  0  0  0  0  0  0  0  0  0
  144.8810  160.5090  134.2450 O   0  0  0  0  0  0  0  0  0  0  0  0
  145.1210  157.7290  133.5220 C   0  0  0  0  0  0  0  0  0  0  0  0
  145.7300  156.5070  133.3360 C   0  0  0  0  0  0  0  0  0  0  0  0
  145.1740  155.2370  133.2600 C   0  0  0  0  0  0  0  0  0  0  0  0
  146.0350  154.1520  133.0320 C   0  0  0  0  0  0  0  0  0  0  0  0
  147.4270  154.3510  132.8690 C   0  0  0  0  0  0  0  0  0  0  0  0
  148.3280  153.1910  132.6380 C   0  0  0  0  0  0  0  0  0  0  0  0
  149.7140  153.1950  132.5630 C   0  0  0  0  0  0  0  0  0  0  0  0
  150.1540  151.9500  132.3100 N   0  0  0  0  0  0  0  0  0  0  0  0
  149.0960  151.1550  132.2450 N   0  0  0  0  0  0  0  0  0  0  0  0
  149.1640  149.7490  131.8890 C   0  0  0  0  0  0  0  0  0  0  0  0
  147.9740  151.8690  132.4190 C   0  0  0  0  0  0  0  0  0  0  0  0
  147.9480  155.6650  132.9340 C   0  0  0  0  0  0  0  0  0  0  0  0
  147.0730  156.7250  133.1920 C   0  0  0  0  0  0  0  0  0  0  0  0
  147.0194  160.1542  131.1850 H   0  0  0  0  0  0  0  0  0  0  0  0
  147.3020  161.2763  129.8111 H   0  0  0  0  0  0  0  0  0  0  0  0
  148.0597  159.6476  129.8111 H   0  0  0  0  0  0  0  0  0  0  0  0
  149.8594  162.9429  131.0549 H   0  0  0  0  0  0  0  0  0  0  0  0
  150.3106  161.8190  129.7283 H   0  0  0  0  0  0  0  0  0  0  0  0
  148.6961  162.6063  129.7283 H   0  0  0  0  0  0  0  0  0  0  0  0
  150.5545  159.8821  130.4278 H   0  0  0  0  0  0  0  0  0  0  0  0
  150.6258  160.3234  132.1719 H   0  0  0  0  0  0  0  0  0  0  0  0
  148.5545  158.4279  130.9482 H   0  0  0  0  0  0  0  0  0  0  0  0
  150.1002  157.9151  131.7738 H   0  0  0  0  0  0  0  0  0  0  0  0
  146.7200  162.0780  133.3400 H   0  0  0  0  0  0  0  0  0  0  0  0
  147.9210  160.7630  133.1150 H   0  0  0  0  0  0  0  0  0  0  0  0
  144.0483  157.9249  133.6665 H   0  0  0  0  0  0  0  0  0  0  0  0
  144.0906  155.0855  133.3751 H   0  0  0  0  0  0  0  0  0  0  0  0
  145.6225  153.1336  132.9793 H   0  0  0  0  0  0  0  0  0  0  0  0
  150.3539  154.0805  132.6909 H   0  0  0  0  0  0  0  0  0  0  0  0
  149.1935  149.1400  132.8045 H   0  0  0  0  0  0  0  0  0  0  0  0
  148.2779  149.4775  131.2964 H   0  0  0  0  0  0  0  0  0  0  0  0
  150.0721  149.5643  131.2964 H   0  0  0  0  0  0  0  0  0  0  0  0
  146.9481  151.4730  132.3924 H   0  0  0  0  0  0  0  0  0  0  0  0
  149.0220  155.8494  132.7843 H   0  0  0  0  0  0  0  0  0  0  0  0
  1  2  1  0
  2  3  1  0
  2  4  1  0
  4  5  1  0
  5  6  1  0
  6  7  2  0
  6  8  1  0
  8  9  1  0
  9 10  1  0
 10 11  1  0
 10 12  2  0
  9 13  2  0
 13 14  1  0
 14 15  2  0
 15 16  1  0
 16 17  2  0
 17 18  1  0
 18 19  1  0
 19 20  2  0
 20 21  1  0
 21 22  1  0
 21 23  1  0
 17 24  1  0
 24 25  2  0
 25  8  1  0
 25 14  1  0
 23 18  2  0
  1 26  1  0
  1 27  1  0
  1 28  1  0
  3 29  1  0
  3 30  1  0
  3 31  1  0
  4 32  1  0
  4 33  1  0
  5 34  1  0
  5 35  1  0
 11 36  1  0
 11 37  1  0
 13 38  1  0
 15 39  1  0
 16 40  1  0
 19 41  1  0
 22 42  1  0
 22 43  1  0
 22 44  1  0
 23 45  1  0
 24 46  1  0
M  END
>  <UniqueID>  (95) 
93

>  <SMILES>  (95) 
CN(C)CCC(=O)n1c(C(N)=O)cc2ccc(-c3cnn(C)c3)cc21

>  <Energy>  (95) 
120.41780929693104

>  <Genealogy>  (95) 
CN(C)CCC(=O)n1c(C(N)=O)cc2ccc(-c3cnn(C)c3)cc21 (3D coordinates assigned)
CN(C)CCC(=O)n1c(C(N)=O)cc2ccc(-c3cnn(C)c3)cc21 (optimized conformer: 120.41780929693104 kcal/mol)

>  <smiles>  (95) 
CN(C)CCC(=O)n1c(C(N)=O)cc2ccc(-c3cnn(C)c3)cc21

>  <score_type>  (95) 
oracle

>  <origin>  (95) 
adg

>  <m_score__min__energy>  (95) 
-8

>  <m_primary>  (95) 
energy

$$$$
95:0
     RDKit          3D

 35 36  0  0  0  0  0  0  0  0999 V2000
  148.2150  157.3700  134.3230 N   0  0  0  0  0  0  0  0  0  0  0  0
  147.7000  158.5460  133.6960 C   0  0  0  0  0  0  0  0  0  0  0  0
  148.5000  159.3740  133.1850 O   0  0  0  0  0  0  0  0  0  0  0  0
  146.2530  158.8400  133.6950 C   0  0  0  0  0  0  0  0  0  0  0  0
  145.7330  160.1300  133.6500 C   0  0  0  0  0  0  0  0  0  0  0  0
  144.3680  159.9750  133.7340 C   0  0  0  0  0  0  0  0  0  0  0  0
  143.3570  160.9310  133.7270 C   0  0  0  0  0  0  0  0  0  0  0  0
  142.0270  160.4850  133.7920 C   0  0  0  0  0  0  0  0  0  0  0  0
  141.7330  159.1000  133.8440 C   0  0  0  0  0  0  0  0  0  0  0  0
  140.3040  158.6320  133.9290 C   0  0  0  0  0  0  0  0  0  0  0  0
  139.9370  158.2300  135.3580 C   0  0  0  0  0  0  0  0  0  0  0  0
  140.2870  159.2520  136.2510 O   0  0  0  0  0  0  0  0  0  0  0  0
  142.7850  158.1570  133.8550 C   0  0  0  0  0  0  0  0  0  0  0  0
  144.1020  158.6310  133.8120 C   0  0  0  0  0  0  0  0  0  0  0  0
  145.2510  157.9190  133.7860 N   0  0  0  0  0  0  0  0  0  0  0  0
  145.3730  156.4890  133.7490 C   0  0  0  0  0  0  0  0  0  0  0  0
  145.2080  155.8720  132.6600 O   0  0  0  0  0  0  0  0  0  0  0  0
  145.6740  155.7840  134.9200 O   0  0  0  0  0  0  0  0  0  0  0  0
  146.0650  154.4140  134.9300 C   0  0  0  0  0  0  0  0  0  0  0  0
  147.1290  154.1860  135.9560 C   0  0  0  0  0  0  0  0  0  0  0  0
  148.0480  155.0300  136.1180 O   0  0  0  0  0  0  0  0  0  0  0  0
  147.0890  153.0510  136.7550 O   0  0  0  0  0  0  0  0  0  0  0  0
  147.6040  156.7560  134.9040 H   0  0  0  0  0  0  0  0  0  0  0  0
  149.2370  157.1590  134.2780 H   0  0  0  0  0  0  0  0  0  0  0  0
  146.2935  161.0727  133.5653 H   0  0  0  0  0  0  0  0  0  0  0  0
  143.5925  162.0041  133.6722 H   0  0  0  0  0  0  0  0  0  0  0  0
  141.2063  161.2173  133.8027 H   0  0  0  0  0  0  0  0  0  0  0  0
  139.6399  159.4464  133.6038 H   0  0  0  0  0  0  0  0  0  0  0  0
  140.1867  157.7523  133.2790 H   0  0  0  0  0  0  0  0  0  0  0  0
  138.8536  158.0495  135.4183 H   0  0  0  0  0  0  0  0  0  0  0  0
  140.4846  157.3145  135.6262 H   0  0  0  0  0  0  0  0  0  0  0  0
  139.5150  159.3550  136.8660 H   0  0  0  0  0  0  0  0  0  0  0  0
  142.5749  157.0780  133.8963 H   0  0  0  0  0  0  0  0  0  0  0  0
  145.1916  153.7890  135.1677 H   0  0  0  0  0  0  0  0  0  0  0  0
  146.4603  154.1472  133.9388 H   0  0  0  0  0  0  0  0  0  0  0  0
  1  2  1  0
  2  3  2  0
  2  4  1  0
  4  5  2  0
  5  6  1  0
  6  7  2  0
  7  8  1  0
  8  9  2  0
  9 10  1  0
 10 11  1  0
 11 12  1  0
  9 13  1  0
 13 14  2  0
 14 15  1  0
 15 16  1  0
 16 17  2  0
 16 18  1  0
 18 19  1  0
 19 20  1  0
 20 21  2  0
 20 22  1  0
 15  4  1  0
 14  6  1  0
  1 23  1  0
  1 24  1  0
  5 25  1  0
  7 26  1  0
  8 27  1  0
 10 28  1  0
 10 29  1  0
 11 30  1  0
 11 31  1  0
 12 32  1  0
 13 33  1  0
 19 34  1  0
 19 35  1  0
M  CHG  1  22  -1
M  END
>  <UniqueID>  (96) 
94

>  <SMILES>  (96) 
NC(=O)c1cc2ccc(CCO)cc2n1C(=O)OCC(=O)[O-]

>  <Energy>  (96) 
69.05140957433312

>  <Genealogy>  (96) 
NC(=O)c1cc2ccc(CCO)cc2n1C(=O)OCC(=O)[O-] (protonated)
NC(=O)c1cc2ccc(CCO)cc2n1C(=O)OCC(=O)[O-] (3D coordinates assigned)
NC(=O)c1cc2ccc(CCO)cc2n1C(=O)OCC(=O)[O-] (optimized conformer: 69.05140957433312 kcal/mol)

>  <smiles>  (96) 
NC(=O)c1cc2ccc(CCO)cc2n1C(=O)OCC(=O)O

>  <score_type>  (96) 
oracle

>  <origin>  (96) 
adg

>  <m_score__min__energy>  (96) 
-6.2300000000000004

>  <m_primary>  (96) 
energy

$$$$
96:0
     RDKit          3D

 44 45  0  0  0  0  0  0  0  0999 V2000
  141.3360  159.7290  133.0080 C   0  0  0  0  0  0  0  0  0  0  0  0
  140.7420  158.4660  132.8130 O   0  0  0  0  0  0  0  0  0  0  0  0
  139.7520  158.2220  133.7990 C   0  0  0  0  0  0  0  0  0  0  0  0
  139.2280  156.7940  133.6620 C   0  0  0  0  0  0  0  0  0  0  0  0
  140.2960  155.8520  133.7390 O   0  0  0  0  0  0  0  0  0  0  0  0
  140.2300  154.5650  133.1900 C   0  0  0  0  0  0  0  0  0  0  0  0
  139.1240  154.0850  132.8200 O   0  0  0  0  0  0  0  0  0  0  0  0
  141.4300  153.7880  133.0580 N   0  0  0  0  0  0  0  0  0  0  0  0
  142.7080  154.1980  133.2880 C   0  0  0  0  0  0  0  0  0  0  0  0
  143.1370  155.5860  133.5540 C   0  0  0  0  0  0  0  0  0  0  0  0
  142.4520  156.6970  132.9720 N   0  0  0  0  0  0  0  0  0  0  0  0
  144.1560  155.7930  134.2650 O   0  0  0  0  0  0  0  0  0  0  0  0
  143.5920  153.1250  133.2030 C   0  0  0  0  0  0  0  0  0  0  0  0
  142.8100  152.0340  132.9030 C   0  0  0  0  0  0  0  0  0  0  0  0
  143.1670  150.7010  132.7220 C   0  0  0  0  0  0  0  0  0  0  0  0
  142.1430  149.7740  132.4640 C   0  0  0  0  0  0  0  0  0  0  0  0
  140.7890  150.1900  132.4110 C   0  0  0  0  0  0  0  0  0  0  0  0
  139.7000  149.1920  132.1200 C   0  0  0  0  0  0  0  0  0  0  0  0
  139.6360  148.8530  130.6180 C   0  0  1  0  0  0  0  0  0  0  0  0
  140.9350  148.7710  130.0900 O   0  0  0  0  0  0  0  0  0  0  0  0
  138.9300  147.5100  130.3870 C   0  0  0  0  0  0  0  0  0  0  0  0
  139.8570  146.4580  130.3310 O   0  0  0  0  0  0  0  0  0  0  0  0
  140.4660  151.5530  132.5920 C   0  0  0  0  0  0  0  0  0  0  0  0
  141.5090  152.4590  132.8240 C   0  0  0  0  0  0  0  0  0  0  0  0
  141.4295  159.9278  134.0858 H   0  0  0  0  0  0  0  0  0  0  0  0
  142.3338  159.7403  132.5452 H   0  0  0  0  0  0  0  0  0  0  0  0
  140.7083  160.5048  132.5452 H   0  0  0  0  0  0  0  0  0  0  0  0
  140.1911  158.3558  134.7986 H   0  0  0  0  0  0  0  0  0  0  0  0
  138.9206  158.9292  133.6624 H   0  0  0  0  0  0  0  0  0  0  0  0
  138.5116  156.5937  134.4723 H   0  0  0  0  0  0  0  0  0  0  0  0
  138.7378  156.6913  132.6827 H   0  0  0  0  0  0  0  0  0  0  0  0
  141.7150  156.5570  132.2470 H   0  0  0  0  0  0  0  0  0  0  0  0
  142.7430  157.6720  133.2080 H   0  0  0  0  0  0  0  0  0  0  0  0
  144.6825  153.1457  133.3454 H   0  0  0  0  0  0  0  0  0  0  0  0
  144.2185  150.3829  132.7792 H   0  0  0  0  0  0  0  0  0  0  0  0
  142.3945  148.7155  132.3016 H   0  0  0  0  0  0  0  0  0  0  0  0
  139.8981  148.2704  132.6870 H   0  0  0  0  0  0  0  0  0  0  0  0
  138.7371  149.6332  132.4171 H   0  0  0  0  0  0  0  0  0  0  0  0
  139.0694  149.6514  130.1164 H   0  0  0  0  0  0  0  0  0  0  0  0
  140.9470  147.9980  129.4650 H   0  0  0  0  0  0  0  0  0  0  0  0
  138.2269  147.3264  131.2128 H   0  0  0  0  0  0  0  0  0  0  0  0
  138.3938  147.5562  129.4277 H   0  0  0  0  0  0  0  0  0  0  0  0
  140.6640  146.7640  130.8220 H   0  0  0  0  0  0  0  0  0  0  0  0
  139.4212  151.8947  132.5518 H   0  0  0  0  0  0  0  0  0  0  0  0
  1  2  1  0
  2  3  1  0
  3  4  1  0
  4  5  1  0
  5  6  1  0
  6  7  2  0
  6  8  1  0
  8  9  1  0
  9 10  1  0
 10 11  1  0
 10 12  2  0
  9 13  2  0
 13 14  1  0
 14 15  2  0
 15 16  1  0
 16 17  2  0
 17 18  1  0
 18 19  1  0
 19 20  1  0
 19 21  1  0
 21 22  1  0
 17 23  1  0
 23 24  2  0
 24  8  1  0
 24 14  1  0
  1 25  1  0
  1 26  1  0
  1 27  1  0
  3 28  1  0
  3 29  1  0
  4 30  1  0
  4 31  1  0
 11 32  1  0
 11 33  1  0
 13 34  1  0
 15 35  1  0
 16 36  1  0
 18 37  1  0
 18 38  1  0
 19 39  1  6
 20 40  1  0
 21 41  1  0
 21 42  1  0
 22 43  1  0
 23 44  1  0
M  END
>  <UniqueID>  (97) 
95

>  <SMILES>  (97) 
COCCOC(=O)n1c(C(N)=O)cc2ccc(C[C@@H](O)CO)cc21

>  <Energy>  (97) 
77.49200273782044

>  <Genealogy>  (97) 
COCCOC(=O)n1c(C(N)=O)cc2ccc(C[C@@H](O)CO)cc21 (chirality)
COCCOC(=O)n1c(C(N)=O)cc2ccc(C[C@@H](O)CO)cc21 (3D coordinates assigned)
COCCOC(=O)n1c(C(N)=O)cc2ccc(C[C@@H](O)CO)cc21 (optimized conformer: 77.49200273782044 kcal/mol)

>  <smiles>  (97) 
COCCOC(=O)n1c(C(N)=O)cc2ccc(CC(O)CO)cc21

>  <score_type>  (97) 
oracle

>  <origin>  (97) 
adg

>  <m_score__min__energy>  (97) 
-7.0800000000000001

>  <m_primary>  (97) 
energy

$$$$
97:0
     RDKit          3D

 35 36  0  0  0  0  0  0  0  0999 V2000
  150.0020  159.7390  130.7270 C   0  0  0  0  0  0  0  0  0  0  0  0
  148.9300  160.8060  130.9200 C   0  0  0  0  0  0  0  0  0  0  0  0
  147.7270  160.2250  131.5040 N   0  0  0  0  0  0  0  0  0  0  0  0
  147.6670  159.6850  132.8290 C   0  0  0  0  0  0  0  0  0  0  0  0
  148.4760  160.0810  133.7110 O   0  0  0  0  0  0  0  0  0  0  0  0
  146.6970  158.6760  133.1490 N   0  0  0  0  0  0  0  0  0  0  0  0
  145.4060  158.8560  133.5510 C   0  0  0  0  0  0  0  0  0  0  0  0
  144.6920  160.1480  133.6240 C   0  0  0  0  0  0  0  0  0  0  0  0
  143.2860  160.1960  133.3940 N   0  0  0  0  0  0  0  0  0  0  0  0
  145.3160  161.2180  133.8550 O   0  0  0  0  0  0  0  0  0  0  0  0
  144.8030  157.6290  133.8170 C   0  0  0  0  0  0  0  0  0  0  0  0
  145.7680  156.6830  133.5590 C   0  0  0  0  0  0  0  0  0  0  0  0
  145.7120  155.2960  133.6590 C   0  0  0  0  0  0  0  0  0  0  0  0
  146.8720  154.5660  133.3470 C   0  0  0  0  0  0  0  0  0  0  0  0
  148.0620  155.2320  132.9590 C   0  0  0  0  0  0  0  0  0  0  0  0
  149.2910  154.4360  132.6080 C   0  0  0  0  0  0  0  0  0  0  0  0
  148.9990  152.9320  132.6130 C   0  0  0  0  0  0  0  0  0  0  0  0
  150.1870  152.1900  132.5610 O   0  0  0  0  0  0  0  0  0  0  0  0
  148.0770  156.6410  132.8600 C   0  0  0  0  0  0  0  0  0  0  0  0
  146.9020  157.3410  133.1570 C   0  0  0  0  0  0  0  0  0  0  0  0
  150.3528  159.3898  131.7093 H   0  0  0  0  0  0  0  0  0  0  0  0
  149.5797  158.8921  130.1662 H   0  0  0  0  0  0  0  0  0  0  0  0
  150.8469  160.1653  130.1662 H   0  0  0  0  0  0  0  0  0  0  0  0
  149.3154  161.5887  131.5900 H   0  0  0  0  0  0  0  0  0  0  0  0
  148.6765  161.2354  129.9395 H   0  0  0  0  0  0  0  0  0  0  0  0
  142.8610  159.7240  132.5650 H   0  0  0  0  0  0  0  0  0  0  0  0
  143.7729  157.4534  134.1607 H   0  0  0  0  0  0  0  0  0  0  0  0
  144.7887  154.7868  133.9724 H   0  0  0  0  0  0  0  0  0  0  0  0
  146.8564  153.4676  133.4044 H   0  0  0  0  0  0  0  0  0  0  0  0
  149.6351  154.7311  131.6057 H   0  0  0  0  0  0  0  0  0  0  0  0
  150.0657  154.6423  133.3612 H   0  0  0  0  0  0  0  0  0  0  0  0
  148.4538  152.6744  133.5330 H   0  0  0  0  0  0  0  0  0  0  0  0
  148.3947  152.6891  131.7265 H   0  0  0  0  0  0  0  0  0  0  0  0
  150.8320  152.7230  132.0290 H   0  0  0  0  0  0  0  0  0  0  0  0
  148.9897  157.1749  132.5569 H   0  0  0  0  0  0  0  0  0  0  0  0
  1  2  1  0
  2  3  1  0
  3  4  1  0
  4  5  2  0
  4  6  1  0
  6  7  1  0
  7  8  1  0
  8  9  1  0
  8 10  2  0
  7 11  2  0
 11 12  1  0
 12 13  2  0
 13 14  1  0
 14 15  2  0
 15 16  1  0
 16 17  1  0
 17 18  1  0
 15 19  1  0
 19 20  2  0
 20  6  1  0
 20 12  1  0
  1 21  1  0
  1 22  1  0
  1 23  1  0
  2 24  1  0
  2 25  1  0
  9 26  1  0
 11 27  1  0
 13 28  1  0
 14 29  1  0
 16 30  1  0
 16 31  1  0
 17 32  1  0
 17 33  1  0
 18 34  1  0
 19 35  1  0
M  CHG  2   3  -1   9  -1
M  END
>  <UniqueID>  (98) 
96

>  <SMILES>  (98) 
CC[N-]C(=O)n1c(C([NH-])=O)cc2ccc(CCO)cc21

>  <Energy>  (98) 
66.66871426894122

>  <Genealogy>  (98) 
CC[N-]C(=O)n1c(C([NH-])=O)cc2ccc(CCO)cc21 (protonated)
CC[N-]C(=O)n1c(C([NH-])=O)cc2ccc(CCO)cc21 (3D coordinates assigned)
CC[N-]C(=O)n1c(C([NH-])=O)cc2ccc(CCO)cc21 (optimized conformer: 66.66871426894122 kcal/mol)

>  <smiles>  (98) 
CCNC(=O)n1c(C(N)=O)cc2ccc(CCO)cc21

>  <score_type>  (98) 
oracle

>  <origin>  (98) 
adg

>  <m_score__min__energy>  (98) 
-6.4900000000000002

>  <m_primary>  (98) 
energy

$$$$
98:0
     RDKit          3D

 45 47  0  0  0  0  0  0  0  0999 V2000
  139.4830  149.6370  132.5800 C   0  0  0  0  0  0  0  0  0  0  0  0
  140.7960  149.6270  131.9350 N   0  0  0  0  0  0  0  0  0  0  0  0
  140.9860  148.8490  130.7100 C   0  0  0  0  0  0  0  0  0  0  0  0
  141.9200  150.3260  132.5030 C   0  0  0  0  0  0  0  0  0  0  0  0
  143.0660  149.8010  132.4500 O   0  0  0  0  0  0  0  0  0  0  0  0
  141.7730  151.6540  133.1300 C   0  0  0  0  0  0  0  0  0  0  0  0
  141.0760  152.7250  132.6030 C   0  0  0  0  0  0  0  0  0  0  0  0
  141.1730  153.7470  133.5300 C   0  0  0  0  0  0  0  0  0  0  0  0
  140.5870  155.0910  133.3460 C   0  0  0  0  0  0  0  0  0  0  0  0
  139.4460  155.2010  132.8220 O   0  0  0  0  0  0  0  0  0  0  0  0
  141.3130  156.2770  133.6990 N   0  0  0  0  0  0  0  0  0  0  0  0
  140.8090  157.4610  134.1490 C   0  0  0  0  0  0  0  0  0  0  0  0
  139.3990  157.7180  134.5110 C   0  0  0  0  0  0  0  0  0  0  0  0
  138.3640  157.6430  133.5350 N   0  0  0  0  0  0  0  0  0  0  0  0
  139.1010  157.9810  135.7070 O   0  0  0  0  0  0  0  0  0  0  0  0
  141.8280  158.4030  134.2830 C   0  0  0  0  0  0  0  0  0  0  0  0
  142.9790  157.7550  133.8930 C   0  0  0  0  0  0  0  0  0  0  0  0
  144.2890  158.2190  133.8200 C   0  0  0  0  0  0  0  0  0  0  0  0
  145.2770  157.3310  133.3620 C   0  0  0  0  0  0  0  0  0  0  0  0
  144.9390  156.0080  132.9810 C   0  0  0  0  0  0  0  0  0  0  0  0
  146.0090  155.0760  132.4890 C   0  0  0  0  0  0  0  0  0  0  0  0
  147.2550  155.5920  132.7960 F   0  0  0  0  0  0  0  0  0  0  0  0
  145.8640  153.8410  133.0930 F   0  0  0  0  0  0  0  0  0  0  0  0
  143.5970  155.5750  133.0640 C   0  0  0  0  0  0  0  0  0  0  0  0
  142.6390  156.4760  133.5400 C   0  0  0  0  0  0  0  0  0  0  0  0
  141.8670  153.3220  134.6120 N   0  0  0  0  0  0  0  0  0  0  0  0
  142.1510  154.0540  135.8440 C   0  0  0  0  0  0  0  0  0  0  0  0
  142.2400  152.0500  134.3700 C   0  0  0  0  0  0  0  0  0  0  0  0
  139.6112  149.6360  133.6725 H   0  0  0  0  0  0  0  0  0  0  0  0
  138.9321  150.5394  132.2762 H   0  0  0  0  0  0  0  0  0  0  0  0
  138.9184  148.7431  132.2762 H   0  0  0  0  0  0  0  0  0  0  0  0
  141.2395  147.8108  130.9706 H   0  0  0  0  0  0  0  0  0  0  0  0
  140.0581  148.8627  130.1194 H   0  0  0  0  0  0  0  0  0  0  0  0
  141.8031  149.2888  130.1194 H   0  0  0  0  0  0  0  0  0  0  0  0
  140.5489  152.7580  131.6381 H   0  0  0  0  0  0  0  0  0  0  0  0
  137.9720  156.7210  133.2380 H   0  0  0  0  0  0  0  0  0  0  0  0
  141.7329  159.4434  134.6273 H   0  0  0  0  0  0  0  0  0  0  0  0
  144.5431  159.2487  134.1117 H   0  0  0  0  0  0  0  0  0  0  0  0
  146.3229  157.6657  133.2985 H   0  0  0  0  0  0  0  0  0  0  0  0
  145.9167  154.9652  131.3985 H   0  0  0  0  0  0  0  0  0  0  0  0
  143.3129  154.5561  132.7622 H   0  0  0  0  0  0  0  0  0  0  0  0
  141.9059  153.4224  136.7106 H   0  0  0  0  0  0  0  0  0  0  0  0
  143.2178  154.3205  135.8745 H   0  0  0  0  0  0  0  0  0  0  0  0
  141.5431  154.9703  135.8745 H   0  0  0  0  0  0  0  0  0  0  0  0
  142.8274  151.4214  135.0554 H   0  0  0  0  0  0  0  0  0  0  0  0
  1  2  1  0
  2  3  1  0
  2  4  1  0
  4  5  2  0
  4  6  1  0
  6  7  1  0
  7  8  2  0
  8  9  1  0
  9 10  2  0
  9 11  1  0
 11 12  1  0
 12 13  1  0
 13 14  1  0
 13 15  2  0
 12 16  2  0
 16 17  1  0
 17 18  2  0
 18 19  1  0
 19 20  2  0
 20 21  1  0
 21 22  1  0
 21 23  1  0
 20 24  1  0
 24 25  2  0
  8 26  1  0
 26 27  1  0
 26 28  1  0
 28  6  2  0
 25 11  1  0
 25 17  1  0
  1 29  1  0
  1 30  1  0
  1 31  1  0
  3 32  1  0
  3 33  1  0
  3 34  1  0
  7 35  1  0
 14 36  1  0
 16 37  1  0
 18 38  1  0
 19 39  1  0
 21 40  1  0
 24 41  1  0
 27 42  1  0
 27 43  1  0
 27 44  1  0
 28 45  1  0
M  CHG  1  14  -1
M  END
>  <UniqueID>  (99) 
97

>  <SMILES>  (99) 
CN(C)C(=O)c1cc(C(=O)n2c(C([NH-])=O)cc3ccc(C(F)F)cc32)n(C)c1

>  <Energy>  (99) 
113.67850209837604

>  <Genealogy>  (99) 
CN(C)C(=O)c1cc(C(=O)n2c(C([NH-])=O)cc3ccc(C(F)F)cc32)n(C)c1 (protonated)
CN(C)C(=O)c1cc(C(=O)n2c(C([NH-])=O)cc3ccc(C(F)F)cc32)n(C)c1 (3D coordinates assigned)
CN(C)C(=O)c1cc(C(=O)n2c(C([NH-])=O)cc3ccc(C(F)F)cc32)n(C)c1 (optimized conformer: 113.67850209837604 kcal/mol)

>  <smiles>  (99) 
CN(C)C(=O)c1cc(C(=O)n2c(C(N)=O)cc3ccc(C(F)F)cc32)n(C)c1

>  <score_type>  (99) 
oracle

>  <origin>  (99) 
adg

>  <m_score__min__energy>  (99) 
-7.3099999999999996

>  <m_primary>  (99) 
energy

$$$$
