0:0
     RDKit          3D

 34 36  0  0  0  0  0  0  0  0999 V2000
  145.1380  161.8670  134.4390 C   0  0  0  0  0  0  0  0  0  0  0  0
  143.8060  161.6050  133.7450 C   0  0  0  0  0  0  0  0  0  0  0  0
  143.5500  160.1270  133.6280 C   0  0  0  0  0  0  0  0  0  0  0  0
  144.6340  159.2130  133.6310 C   0  0  0  0  0  0  0  0  0  0  0  0
  144.4040  157.8290  133.5520 C   0  0  0  0  0  0  0  0  0  0  0  0
  143.0850  157.3890  133.4900 C   0  0  0  0  0  0  0  0  0  0  0  0
  142.5770  156.1130  133.3930 C   0  0  0  0  0  0  0  0  0  0  0  0
  141.1910  156.2680  133.3650 C   0  0  0  0  0  0  0  0  0  0  0  0
  140.2410  155.1360  133.3110 C   0  0  0  0  0  0  0  0  0  0  0  0
  138.9050  155.3200  132.8510 N   0  0  0  0  0  0  0  0  0  0  0  0
  140.6060  153.9950  133.7020 O   0  0  0  0  0  0  0  0  0  0  0  0
  140.8600  157.5870  133.4440 N   0  0  0  0  0  0  0  0  0  0  0  0
  139.5480  158.1670  133.3850 C   0  0  0  0  0  0  0  0  0  0  0  0
  138.7270  157.9440  134.3140 O   0  0  0  0  0  0  0  0  0  0  0  0
  139.1520  159.0170  132.2490 C   0  0  0  0  0  0  0  0  0  0  0  0
  138.4580  158.6170  131.1260 C   0  0  0  0  0  0  0  0  0  0  0  0
  138.3110  159.7550  130.3590 C   0  0  0  0  0  0  0  0  0  0  0  0
  138.8680  160.7780  130.9670 O   0  0  0  0  0  0  0  0  0  0  0  0
  139.3810  160.3720  132.1060 C   0  0  0  0  0  0  0  0  0  0  0  0
  142.0280  158.2590  133.5130 C   0  0  0  0  0  0  0  0  0  0  0  0
  142.2260  159.6430  133.5720 C   0  0  0  0  0  0  0  0  0  0  0  0
  144.9951  161.8389  135.5293 H   0  0  0  0  0  0  0  0  0  0  0  0
  145.8633  161.0943  134.1442 H   0  0  0  0  0  0  0  0  0  0  0  0
  145.5166  162.8568  134.1442 H   0  0  0  0  0  0  0  0  0  0  0  0
  142.9969  162.0666  134.3300 H   0  0  0  0  0  0  0  0  0  0  0  0
  143.8416  162.0392  132.7349 H   0  0  0  0  0  0  0  0  0  0  0  0
  145.6650  159.5910  133.6958 H   0  0  0  0  0  0  0  0  0  0  0  0
  145.2408  157.1151  133.5395 H   0  0  0  0  0  0  0  0  0  0  0  0
  143.1437  155.1713  133.3473 H   0  0  0  0  0  0  0  0  0  0  0  0
  138.3810  156.2000  133.0600 H   0  0  0  0  0  0  0  0  0  0  0  0
  138.0977  157.6045  130.8913 H   0  0  0  0  0  0  0  0  0  0  0  0
  137.8033  159.7990  129.3842 H   0  0  0  0  0  0  0  0  0  0  0  0
  139.9089  161.0093  132.8307 H   0  0  0  0  0  0  0  0  0  0  0  0
  141.3715  160.3356  133.5747 H   0  0  0  0  0  0  0  0  0  0  0  0
  1  2  1  0
  2  3  1  0
  3  4  2  0
  4  5  1  0
  5  6  2  0
  6  7  1  0
  7  8  2  0
  8  9  1  0
  9 10  1  0
  9 11  2  0
  8 12  1  0
 12 13  1  0
 13 14  2  0
 13 15  1  0
 15 16  1  0
 16 17  2  0
 17 18  1  0
 18 19  1  0
 12 20  1  0
 20 21  2  0
 21  3  1  0
 20  6  1  0
 19 15  2  0
  1 22  1  0
  1 23  1  0
  1 24  1  0
  2 25  1  0
  2 26  1  0
  4 27  1  0
  5 28  1  0
  7 29  1  0
 10 30  1  0
 16 31  1  0
 17 32  1  0
 19 33  1  0
 21 34  1  0
M  CHG  1  10  -1
M  END
>  <UniqueID>  (1) 
1

>  <SMILES>  (1) 
CCc1ccc2cc(C([NH-])=O)n(C(=O)c3ccoc3)c2c1

>  <Energy>  (1) 
98.40470773299667

>  <Genealogy>  (1) 
CCc1ccc2cc(C([NH-])=O)n(C(=O)c3ccoc3)c2c1 (protonated)
CCc1ccc2cc(C([NH-])=O)n(C(=O)c3ccoc3)c2c1 (3D coordinates assigned)
CCc1ccc2cc(C([NH-])=O)n(C(=O)c3ccoc3)c2c1 (optimized conformer: 98.40470773299667 kcal/mol)

>  <smiles>  (1) 
CCc1ccc2cc(C(N)=O)n(C(=O)c3ccoc3)c2c1

>  <score_type>  (1) 
oracle

>  <origin>  (1) 
adg

>  <m_score__min__energy>  (1) 
-6.9199999999999999

>  <m_primary>  (1) 
energy

$$$$
1:0
     RDKit          3D

 35 36  0  0  0  0  0  0  0  0999 V2000
  139.9350  156.2960  133.0490 C   0  0  0  0  0  0  0  0  0  0  0  0
  139.5170  157.7510  133.3480 C   0  0  0  0  0  0  0  0  0  0  0  0
  139.8860  158.6470  132.1490 C   0  0  0  0  0  0  0  0  0  0  0  0
  138.1260  157.8150  133.5650 O   0  0  0  0  0  0  0  0  0  0  0  0
  140.2450  158.2820  134.6090 C   0  0  0  0  0  0  0  0  0  0  0  0
  141.5920  158.8940  134.3030 C   0  0  0  0  0  0  0  0  0  0  0  0
  141.7010  160.2850  134.0510 C   0  0  0  0  0  0  0  0  0  0  0  0
  142.9420  160.8590  133.7330 C   0  0  0  0  0  0  0  0  0  0  0  0
  144.0540  160.0240  133.6840 C   0  0  0  0  0  0  0  0  0  0  0  0
  145.3620  160.3140  133.3680 C   0  0  0  0  0  0  0  0  0  0  0  0
  146.0390  159.1010  133.4610 C   0  0  0  0  0  0  0  0  0  0  0  0
  147.4950  158.9680  133.2610 C   0  0  0  0  0  0  0  0  0  0  0  0
  148.2450  157.9610  133.9390 N   0  0  0  0  0  0  0  0  0  0  0  0
  148.0960  159.7940  132.5230 O   0  0  0  0  0  0  0  0  0  0  0  0
  145.1850  158.0960  133.8060 N   0  0  0  0  0  0  0  0  0  0  0  0
  145.4790  156.6900  133.8790 C   0  0  0  0  0  0  0  0  0  0  0  0
  144.9760  155.8870  133.0500 O   0  0  0  0  0  0  0  0  0  0  0  0
  146.3310  156.2030  134.8640 O   0  0  0  0  0  0  0  0  0  0  0  0
  143.9720  158.6790  133.9440 C   0  0  0  0  0  0  0  0  0  0  0  0
  142.7430  158.0780  134.2420 C   0  0  0  0  0  0  0  0  0  0  0  0
  140.0898  155.7571  133.9954 H   0  0  0  0  0  0  0  0  0  0  0  0
  139.1433  155.7989  132.4692 H   0  0  0  0  0  0  0  0  0  0  0  0
  140.8698  156.2948  132.4692 H   0  0  0  0  0  0  0  0  0  0  0  0
  140.2809  159.6059  132.5157 H   0  0  0  0  0  0  0  0  0  0  0  0
  140.6507  158.1452  131.5379 H   0  0  0  0  0  0  0  0  0  0  0  0
  138.9897  158.8292  131.5379 H   0  0  0  0  0  0  0  0  0  0  0  0
  137.6870  157.1870  132.9330 H   0  0  0  0  0  0  0  0  0  0  0  0
  139.6122  159.0474  135.0821 H   0  0  0  0  0  0  0  0  0  0  0  0
  140.4188  157.4226  135.2732 H   0  0  0  0  0  0  0  0  0  0  0  0
  140.8047  160.9204  134.1052 H   0  0  0  0  0  0  0  0  0  0  0  0
  143.0326  161.9361  133.5288 H   0  0  0  0  0  0  0  0  0  0  0  0
  145.7824  161.2944  133.0994 H   0  0  0  0  0  0  0  0  0  0  0  0
  147.8080  157.3700  134.6800 H   0  0  0  0  0  0  0  0  0  0  0  0
  149.2690  157.8590  133.7590 H   0  0  0  0  0  0  0  0  0  0  0  0
  142.6756  156.9953  134.4244 H   0  0  0  0  0  0  0  0  0  0  0  0
  1  2  1  0
  2  3  1  0
  2  4  1  0
  2  5  1  0
  5  6  1  0
  6  7  2  0
  7  8  1  0
  8  9  2  0
  9 10  1  0
 10 11  2  0
 11 12  1  0
 12 13  1  0
 12 14  2  0
 11 15  1  0
 15 16  1  0
 16 17  2  0
 16 18  1  0
 15 19  1  0
 19 20  2  0
 20  6  1  0
 19  9  1  0
  1 21  1  0
  1 22  1  0
  1 23  1  0
  3 24  1  0
  3 25  1  0
  3 26  1  0
  4 27  1  0
  5 28  1  0
  5 29  1  0
  7 30  1  0
  8 31  1  0
 10 32  1  0
 13 33  1  0
 13 34  1  0
 20 35  1  0
M  CHG  1  18  -1
M  END
>  <UniqueID>  (2) 
2

>  <SMILES>  (2) 
CC(C)(O)Cc1ccc2cc(C(N)=O)n(C(=O)[O-])c2c1

>  <Energy>  (2) 
71.45763292947935

>  <Genealogy>  (2) 
CC(C)(O)Cc1ccc2cc(C(N)=O)n(C(=O)[O-])c2c1 (protonated)
CC(C)(O)Cc1ccc2cc(C(N)=O)n(C(=O)[O-])c2c1 (3D coordinates assigned)
CC(C)(O)Cc1ccc2cc(C(N)=O)n(C(=O)[O-])c2c1 (optimized conformer: 71.45763292947935 kcal/mol)

>  <smiles>  (2) 
CC(C)(O)Cc1ccc2cc(C(N)=O)n(C(=O)O)c2c1

>  <score_type>  (2) 
oracle

>  <origin>  (2) 
adg

>  <m_score__min__energy>  (2) 
-7.0999999999999996

>  <m_primary>  (2) 
energy

$$$$
2:0
     RDKit          3D

 42 43  0  0  0  0  0  0  0  0999 V2000
  149.6140  151.5400  134.0890 C   0  0  0  0  0  0  0  0  0  0  0  0
  148.8930  151.5670  132.7250 C   0  0  0  0  0  0  0  0  0  0  0  0
  148.0400  150.2890  132.5670 C   0  0  0  0  0  0  0  0  0  0  0  0
  149.9580  151.5870  131.6090 C   0  0  0  0  0  0  0  0  0  0  0  0
  148.0160  152.8450  132.5880 C   0  0  0  0  0  0  0  0  0  0  0  0
  148.7370  154.1310  132.9090 C   0  0  0  0  0  0  0  0  0  0  0  0
  149.9480  154.2610  132.5880 O   0  0  0  0  0  0  0  0  0  0  0  0
  148.0480  155.2310  133.5270 N   0  0  0  0  0  0  0  0  0  0  0  0
  147.0700  155.1860  134.4750 C   0  0  0  0  0  0  0  0  0  0  0  0
  146.6280  153.9790  135.2010 C   0  0  0  0  0  0  0  0  0  0  0  0
  147.3660  153.5180  136.3310 N   0  0  0  0  0  0  0  0  0  0  0  0
  145.6220  153.3270  134.8110 O   0  0  0  0  0  0  0  0  0  0  0  0
  146.6060  156.4700  134.7560 C   0  0  0  0  0  0  0  0  0  0  0  0
  147.3510  157.3100  133.9600 C   0  0  0  0  0  0  0  0  0  0  0  0
  147.3050  158.6950  133.8240 C   0  0  0  0  0  0  0  0  0  0  0  0
  148.1810  159.2960  132.9030 C   0  0  0  0  0  0  0  0  0  0  0  0
  149.0890  158.5080  132.1510 C   0  0  0  0  0  0  0  0  0  0  0  0
  149.9820  159.1520  131.1280 C   0  0  0  0  0  0  0  0  0  0  0  0
  149.2510  160.2600  130.4380 C   0  0  0  0  0  0  0  0  0  0  0  0
  149.5880  161.6170  130.7170 N   0  0  0  0  0  0  0  0  0  0  0  0
  148.3670  159.9960  129.5800 O   0  0  0  0  0  0  0  0  0  0  0  0
  149.1070  157.1060  132.3170 C   0  0  0  0  0  0  0  0  0  0  0  0
  148.2220  156.5370  133.2380 C   0  0  0  0  0  0  0  0  0  0  0  0
  148.8692  151.5679  134.8980 H   0  0  0  0  0  0  0  0  0  0  0  0
  150.2098  150.6189  134.1707 H   0  0  0  0  0  0  0  0  0  0  0  0
  150.2770  152.4139  134.1707 H   0  0  0  0  0  0  0  0  0  0  0  0
  147.7786  149.8974  133.5611 H   0  0  0  0  0  0  0  0  0  0  0  0
  147.1199  150.5284  132.0137 H   0  0  0  0  0  0  0  0  0  0  0  0
  148.6140  149.5311  132.0137 H   0  0  0  0  0  0  0  0  0  0  0  0
  150.9612  151.6058  132.0598 H   0  0  0  0  0  0  0  0  0  0  0  0
  149.8529  150.6867  130.9857 H   0  0  0  0  0  0  0  0  0  0  0  0
  149.8192  152.4827  130.9857 H   0  0  0  0  0  0  0  0  0  0  0  0
  147.6523  152.9036  131.5515 H   0  0  0  0  0  0  0  0  0  0  0  0
  147.2025  152.7486  133.3221 H   0  0  0  0  0  0  0  0  0  0  0  0
  146.9100  152.9340  137.0660 H   0  0  0  0  0  0  0  0  0  0  0  0
  145.8126  156.7521  135.4638 H   0  0  0  0  0  0  0  0  0  0  0  0
  146.6050  159.3002  134.4187 H   0  0  0  0  0  0  0  0  0  0  0  0
  148.1618  160.3871  132.7645 H   0  0  0  0  0  0  0  0  0  0  0  0
  150.8738  159.5589  131.6271 H   0  0  0  0  0  0  0  0  0  0  0  0
  150.2824  158.3989  130.3847 H   0  0  0  0  0  0  0  0  0  0  0  0
  150.5850  161.9100  130.8230 H   0  0  0  0  0  0  0  0  0  0  0  0
  149.7991  156.4778  131.7370 H   0  0  0  0  0  0  0  0  0  0  0  0
  1  2  1  0
  2  3  1  0
  2  4  1  0
  2  5  1  0
  5  6  1  0
  6  7  2  0
  6  8  1  0
  8  9  1  0
  9 10  1  0
 10 11  1  0
 10 12  2  0
  9 13  2  0
 13 14  1  0
 14 15  2  0
 15 16  1  0
 16 17  2  0
 17 18  1  0
 18 19  1  0
 19 20  1  0
 19 21  2  0
 17 22  1  0
 22 23  2  0
 23  8  1  0
 23 14  1  0
  1 24  1  0
  1 25  1  0
  1 26  1  0
  3 27  1  0
  3 28  1  0
  3 29  1  0
  4 30  1  0
  4 31  1  0
  4 32  1  0
  5 33  1  0
  5 34  1  0
 11 35  1  0
 13 36  1  0
 15 37  1  0
 16 38  1  0
 18 39  1  0
 18 40  1  0
 20 41  1  0
 22 42  1  0
M  CHG  2  11  -1  20  -1
M  END
>  <UniqueID>  (3) 
3

>  <SMILES>  (3) 
CC(C)(C)CC(=O)n1c(C([NH-])=O)cc2ccc(CC([NH-])=O)cc21

>  <Energy>  (3) 
72.59598830312363

>  <Genealogy>  (3) 
CC(C)(C)CC(=O)n1c(C([NH-])=O)cc2ccc(CC([NH-])=O)cc21 (protonated)
CC(C)(C)CC(=O)n1c(C([NH-])=O)cc2ccc(CC([NH-])=O)cc21 (3D coordinates assigned)
CC(C)(C)CC(=O)n1c(C([NH-])=O)cc2ccc(CC([NH-])=O)cc21 (optimized conformer: 72.59598830312363 kcal/mol)

>  <smiles>  (3) 
CC(C)(C)CC(=O)n1c(C(N)=O)cc2ccc(CC(N)=O)cc21

>  <score_type>  (3) 
oracle

>  <origin>  (3) 
adg

>  <m_score__min__energy>  (3) 
-7.75

>  <m_primary>  (3) 
energy

$$$$
3:0
     RDKit          3D

 34 36  0  0  0  0  0  0  0  0999 V2000
  146.5610  154.9310  135.2230 C   0  0  0  0  0  0  0  0  0  0  0  0
  145.6470  155.6500  134.4040 O   0  0  0  0  0  0  0  0  0  0  0  0
  146.0650  156.5120  133.3860 C   0  0  0  0  0  0  0  0  0  0  0  0
  146.5490  156.0470  132.3190 O   0  0  0  0  0  0  0  0  0  0  0  0
  145.9440  157.9350  133.5620 N   0  0  0  0  0  0  0  0  0  0  0  0
  146.9510  158.8530  133.5690 C   0  0  0  0  0  0  0  0  0  0  0  0
  148.3960  158.5510  133.5670 C   0  0  0  0  0  0  0  0  0  0  0  0
  148.9670  157.6680  132.5990 N   0  0  0  0  0  0  0  0  0  0  0  0
  149.1310  159.0360  134.4680 O   0  0  0  0  0  0  0  0  0  0  0  0
  146.4390  160.1450  133.6320 C   0  0  0  0  0  0  0  0  0  0  0  0
  145.0730  159.9920  133.6770 C   0  0  0  0  0  0  0  0  0  0  0  0
  144.0680  160.9540  133.7300 C   0  0  0  0  0  0  0  0  0  0  0  0
  142.7350  160.5140  133.7270 C   0  0  0  0  0  0  0  0  0  0  0  0
  142.4250  159.1300  133.6600 C   0  0  0  0  0  0  0  0  0  0  0  0
  141.0100  158.6770  133.6440 C   0  0  0  0  0  0  0  0  0  0  0  0
  140.2630  158.6670  132.4560 C   0  0  0  0  0  0  0  0  0  0  0  0
  138.9710  158.2470  132.4660 N   0  0  0  0  0  0  0  0  0  0  0  0
  138.3780  157.8350  133.6150 C   0  0  0  0  0  0  0  0  0  0  0  0
  139.0770  157.8360  134.7790 N   0  0  0  0  0  0  0  0  0  0  0  0
  140.3720  158.2440  134.8160 C   0  0  0  0  0  0  0  0  0  0  0  0
  143.4770  158.1850  133.6050 C   0  0  0  0  0  0  0  0  0  0  0  0
  144.7980  158.6490  133.6320 C   0  0  0  0  0  0  0  0  0  0  0  0
  146.3273  155.1149  136.2820 H   0  0  0  0  0  0  0  0  0  0  0  0
  146.4760  153.8551  135.0102 H   0  0  0  0  0  0  0  0  0  0  0  0
  147.5866  155.2670  135.0102 H   0  0  0  0  0  0  0  0  0  0  0  0
  148.3630  157.1230  131.9460 H   0  0  0  0  0  0  0  0  0  0  0  0
  149.9970  157.5000  132.5870 H   0  0  0  0  0  0  0  0  0  0  0  0
  147.0057  161.0877  133.6434 H   0  0  0  0  0  0  0  0  0  0  0  0
  144.3110  162.0260  133.7729 H   0  0  0  0  0  0  0  0  0  0  0  0
  141.9200  161.2510  133.7772 H   0  0  0  0  0  0  0  0  0  0  0  0
  140.7246  159.0000  131.5147 H   0  0  0  0  0  0  0  0  0  0  0  0
  137.3303  157.5000  133.6033 H   0  0  0  0  0  0  0  0  0  0  0  0
  140.9225  158.2349  135.7683 H   0  0  0  0  0  0  0  0  0  0  0  0
  143.2615  157.1081  133.5423 H   0  0  0  0  0  0  0  0  0  0  0  0
  1  2  1  0
  2  3  1  0
  3  4  2  0
  3  5  1  0
  5  6  1  0
  6  7  1  0
  7  8  1  0
  7  9  2  0
  6 10  2  0
 10 11  1  0
 11 12  2  0
 12 13  1  0
 13 14  2  0
 14 15  1  0
 15 16  2  0
 16 17  1  0
 17 18  2  0
 18 19  1  0
 19 20  2  0
 14 21  1  0
 21 22  2  0
 22  5  1  0
 22 11  1  0
 20 15  1  0
  1 23  1  0
  1 24  1  0
  1 25  1  0
  8 26  1  0
  8 27  1  0
 10 28  1  0
 12 29  1  0
 13 30  1  0
 16 31  1  0
 18 32  1  0
 20 33  1  0
 21 34  1  0
M  END
>  <UniqueID>  (4) 
4

>  <SMILES>  (4) 
COC(=O)n1c(C(N)=O)cc2ccc(-c3cncnc3)cc21

>  <Energy>  (4) 
80.48641508730009

>  <Genealogy>  (4) 
COC(=O)n1c(C(N)=O)cc2ccc(-c3cncnc3)cc21 (3D coordinates assigned)
COC(=O)n1c(C(N)=O)cc2ccc(-c3cncnc3)cc21 (optimized conformer: 80.48641508730009 kcal/mol)

>  <smiles>  (4) 
COC(=O)n1c(C(N)=O)cc2ccc(-c3cncnc3)cc21

>  <score_type>  (4) 
oracle

>  <origin>  (4) 
adg

>  <m_score__min__energy>  (4) 
-6.5499999999999998

>  <m_primary>  (4) 
energy

$$$$
4:0
     RDKit          3D

 52 55  0  0  0  0  0  0  0  0999 V2000
  138.3620  159.8780  130.9880 C   0  0  0  0  0  0  0  0  0  0  0  0
  138.9780  158.6460  131.4850 N   0  0  0  0  0  0  0  0  0  0  0  0
  138.4180  158.2410  132.7830 C   0  0  0  0  0  0  0  0  0  0  0  0
  139.4440  158.2960  133.8840 C   0  0  0  0  0  0  0  0  0  0  0  0
  139.1160  157.9100  135.1890 C   0  0  0  0  0  0  0  0  0  0  0  0
  140.1000  157.9400  136.1770 C   0  0  0  0  0  0  0  0  0  0  0  0
  141.3960  158.3500  135.8600 C   0  0  0  0  0  0  0  0  0  0  0  0
  141.6990  158.7350  134.5410 C   0  0  0  0  0  0  0  0  0  0  0  0
  143.0640  159.1620  134.1440 C   0  0  0  0  0  0  0  0  0  0  0  0
  143.3740  160.5450  134.0730 C   0  0  0  0  0  0  0  0  0  0  0  0
  144.6620  160.9780  133.7180 C   0  0  0  0  0  0  0  0  0  0  0  0
  145.6190  160.0120  133.4310 C   0  0  0  0  0  0  0  0  0  0  0  0
  146.9490  160.1540  133.1090 C   0  0  0  0  0  0  0  0  0  0  0  0
  147.4330  158.8580  132.9620 C   0  0  0  0  0  0  0  0  0  0  0  0
  148.8290  158.5450  132.5910 C   0  0  0  0  0  0  0  0  0  0  0  0
  149.1600  157.3500  131.8820 N   0  0  0  0  0  0  0  0  0  0  0  0
  149.7390  159.3710  132.8630 O   0  0  0  0  0  0  0  0  0  0  0  0
  146.4460  157.9470  133.1910 N   0  0  0  0  0  0  0  0  0  0  0  0
  146.5880  156.5170  133.2560 C   0  0  0  0  0  0  0  0  0  0  0  0
  146.9520  155.8860  132.2280 O   0  0  0  0  0  0  0  0  0  0  0  0
  146.1830  155.7580  134.4910 C   0  0  0  0  0  0  0  0  0  0  0  0
  146.6980  154.3120  134.4910 C   0  0  0  0  0  0  0  0  0  0  0  0
  147.0180  153.8650  135.8450 N   0  0  0  0  0  0  0  0  0  0  0  0
  148.2440  153.8250  136.4000 C   0  0  0  0  0  0  0  0  0  0  0  0
  148.1220  153.3420  137.6850 C   0  0  0  0  0  0  0  0  0  0  0  0
  146.7690  153.1080  137.8460 C   0  0  0  0  0  0  0  0  0  0  0  0
  146.1160  153.4340  136.7130 N   0  0  0  0  0  0  0  0  0  0  0  0
  145.3410  158.6700  133.4800 C   0  0  0  0  0  0  0  0  0  0  0  0
  144.0740  158.2110  133.8600 C   0  0  0  0  0  0  0  0  0  0  0  0
  140.7150  158.6870  133.5970 N   0  0  0  0  0  0  0  0  0  0  0  0
  138.0503  160.5013  131.8391 H   0  0  0  0  0  0  0  0  0  0  0  0
  139.0898  160.4307  130.3758 H   0  0  0  0  0  0  0  0  0  0  0  0
  137.4831  159.6274  130.3758 H   0  0  0  0  0  0  0  0  0  0  0  0
  140.0080  158.8030  131.5820 H   0  0  0  0  0  0  0  0  0  0  0  0
  137.5879  158.9164  133.0375 H   0  0  0  0  0  0  0  0  0  0  0  0
  138.0725  157.2005  132.6933 H   0  0  0  0  0  0  0  0  0  0  0  0
  138.0932  157.5865  135.4326 H   0  0  0  0  0  0  0  0  0  0  0  0
  139.8546  157.6404  137.2066 H   0  0  0  0  0  0  0  0  0  0  0  0
  142.1752  158.3720  136.6361 H   0  0  0  0  0  0  0  0  0  0  0  0
  142.5949  161.2879  134.2991 H   0  0  0  0  0  0  0  0  0  0  0  0
  144.9060  162.0495  133.6686 H   0  0  0  0  0  0  0  0  0  0  0  0
  147.5104  161.0928  132.9925 H   0  0  0  0  0  0  0  0  0  0  0  0
  150.1570  157.1260  131.6710 H   0  0  0  0  0  0  0  0  0  0  0  0
  148.4170  156.7420  131.4720 H   0  0  0  0  0  0  0  0  0  0  0  0
  146.5890  156.2765  135.3721 H   0  0  0  0  0  0  0  0  0  0  0  0
  145.0839  155.7200  134.5131 H   0  0  0  0  0  0  0  0  0  0  0  0
  145.9227  153.6550  134.0701 H   0  0  0  0  0  0  0  0  0  0  0  0
  147.6144  154.2686  133.8842 H   0  0  0  0  0  0  0  0  0  0  0  0
  149.1824  154.1262  135.9114 H   0  0  0  0  0  0  0  0  0  0  0  0
  148.9239  153.1788  138.4200 H   0  0  0  0  0  0  0  0  0  0  0  0
  146.2975  152.7157  138.7592 H   0  0  0  0  0  0  0  0  0  0  0  0
  143.8673  157.1333  133.9364 H   0  0  0  0  0  0  0  0  0  0  0  0
  1  2  1  0
  2  3  1  0
  3  4  1  0
  4  5  2  0
  5  6  1  0
  6  7  2  0
  7  8  1  0
  8  9  1  0
  9 10  2  0
 10 11  1  0
 11 12  2  0
 12 13  1  0
 13 14  2  0
 14 15  1  0
 15 16  1  0
 15 17  2  0
 14 18  1  0
 18 19  1  0
 19 20  2  0
 19 21  1  0
 21 22  1  0
 22 23  1  0
 23 24  1  0
 24 25  2  0
 25 26  1  0
 26 27  2  0
 18 28  1  0
 28 29  2  0
  8 30  2  0
 30  4  1  0
 29  9  1  0
 28 12  1  0
 27 23  1  0
  1 31  1  0
  1 32  1  0
  1 33  1  0
  2 34  1  0
  3 35  1  0
  3 36  1  0
  5 37  1  0
  6 38  1  0
  7 39  1  0
 10 40  1  0
 11 41  1  0
 13 42  1  0
 16 43  1  0
 16 44  1  0
 21 45  1  0
 21 46  1  0
 22 47  1  0
 22 48  1  0
 24 49  1  0
 25 50  1  0
 26 51  1  0
 29 52  1  0
M  END
>  <UniqueID>  (5) 
5

>  <SMILES>  (5) 
CNCc1cccc(-c2ccc3cc(C(N)=O)n(C(=O)CCn4cccn4)c3c2)n1

>  <Energy>  (5) 
125.89184627807391

>  <Genealogy>  (5) 
CNCc1cccc(-c2ccc3cc(C(N)=O)n(C(=O)CCn4cccn4)c3c2)n1 (3D coordinates assigned)
CNCc1cccc(-c2ccc3cc(C(N)=O)n(C(=O)CCn4cccn4)c3c2)n1 (optimized conformer: 125.89184627807391 kcal/mol)

>  <smiles>  (5) 
CNCc1cccc(-c2ccc3cc(C(N)=O)n(C(=O)CCn4cccn4)c3c2)n1

>  <score_type>  (5) 
oracle

>  <origin>  (5) 
adg

>  <m_score__min__energy>  (5) 
-9.1600000000000001

>  <m_primary>  (5) 
energy

$$$$
5:0
     RDKit          3D

 51 52  0  0  0  0  0  0  0  0999 V2000
  149.2140  153.5680  132.4980 C   0  0  0  0  0  0  0  0  0  0  0  0
  148.6070  154.8470  132.6520 O   0  0  0  0  0  0  0  0  0  0  0  0
  147.2280  155.0570  132.8140 C   0  0  0  0  0  0  0  0  0  0  0  0
  146.2630  153.7440  133.0050 S   0  0  0  0  0  0  0  0  0  0  0  0
  146.6510  156.3780  132.8490 N   0  0  0  0  0  0  0  0  0  0  0  0
  147.6910  157.3840  133.1210 C   0  0  0  0  0  0  0  0  0  0  0  0
  147.2600  158.7930  132.6770 C   0  0  0  0  0  0  0  0  0  0  0  0
  146.3790  159.5460  133.6890 C   0  0  0  0  0  0  0  0  0  0  0  0
  145.1180  160.1540  133.0470 C   0  0  0  0  0  0  0  0  0  0  0  0
  143.8320  159.6240  133.6940 C   0  0  0  0  0  0  0  0  0  0  0  0
  143.5300  158.2130  133.2650 C   0  0  0  0  0  0  0  0  0  0  0  0
  144.3940  157.5670  132.6150 O   0  0  0  0  0  0  0  0  0  0  0  0
  142.3120  157.5630  133.6640 N   0  0  0  0  0  0  0  0  0  0  0  0
  142.1650  156.4780  134.4740 C   0  0  0  0  0  0  0  0  0  0  0  0
  143.2340  155.8280  135.2620 C   0  0  0  0  0  0  0  0  0  0  0  0
  144.5900  155.8580  134.8220 N   0  0  0  0  0  0  0  0  0  0  0  0
  142.9530  155.2700  136.3550 O   0  0  0  0  0  0  0  0  0  0  0  0
  140.8220  156.1040  134.5490 C   0  0  0  0  0  0  0  0  0  0  0  0
  140.1450  157.0210  133.7750 C   0  0  0  0  0  0  0  0  0  0  0  0
  138.7860  157.1380  133.5100 C   0  0  0  0  0  0  0  0  0  0  0  0
  138.3650  158.1910  132.6800 C   0  0  0  0  0  0  0  0  0  0  0  0
  139.3010  159.1060  132.1330 C   0  0  0  0  0  0  0  0  0  0  0  0
  138.8180  160.2240  131.2340 C   0  0  0  0  0  0  0  0  0  0  0  0
  137.3140  160.1130  130.9990 C   0  0  0  0  0  0  0  0  0  0  0  0
  139.4690  160.1910  130.0090 F   0  0  0  0  0  0  0  0  0  0  0  0
  139.0950  161.4450  131.8290 F   0  0  0  0  0  0  0  0  0  0  0  0
  140.6810  158.9400  132.4110 C   0  0  0  0  0  0  0  0  0  0  0  0
  141.0650  157.8930  133.2570 C   0  0  0  0  0  0  0  0  0  0  0  0
  149.4184  153.1374  133.4894 H   0  0  0  0  0  0  0  0  0  0  0  0
  148.5349  152.9042  131.9428 H   0  0  0  0  0  0  0  0  0  0  0  0
  150.1577  153.6744  131.9428 H   0  0  0  0  0  0  0  0  0  0  0  0
  145.9260  156.4120  133.6000 H   0  0  0  0  0  0  0  0  0  0  0  0
  146.1840  156.5790  131.9390 H   0  0  0  0  0  0  0  0  0  0  0  0
  147.8963  157.3994  134.2016 H   0  0  0  0  0  0  0  0  0  0  0  0
  148.5892  157.1074  132.5493 H   0  0  0  0  0  0  0  0  0  0  0  0
  148.1675  159.3896  132.5026 H   0  0  0  0  0  0  0  0  0  0  0  0
  146.6485  158.6596  131.7724 H   0  0  0  0  0  0  0  0  0  0  0  0
  146.0685  158.8430  134.4760 H   0  0  0  0  0  0  0  0  0  0  0  0
  146.9765  160.3756  134.0950 H   0  0  0  0  0  0  0  0  0  0  0  0
  145.1509  161.2471  133.1654 H   0  0  0  0  0  0  0  0  0  0  0  0
  145.1064  159.8694  131.9845 H   0  0  0  0  0  0  0  0  0  0  0  0
  143.9484  159.6463  134.7876 H   0  0  0  0  0  0  0  0  0  0  0  0
  142.9982  160.2649  133.3717 H   0  0  0  0  0  0  0  0  0  0  0  0
  144.8260  155.8190  133.8060 H   0  0  0  0  0  0  0  0  0  0  0  0
  140.3953  155.2576  135.1071 H   0  0  0  0  0  0  0  0  0  0  0  0
  138.0620  156.4283  133.9367 H   0  0  0  0  0  0  0  0  0  0  0  0
  137.2953  158.3073  132.4514 H   0  0  0  0  0  0  0  0  0  0  0  0
  136.7934  160.0746  131.9673 H   0  0  0  0  0  0  0  0  0  0  0  0
  136.9662  160.9879  130.4302 H   0  0  0  0  0  0  0  0  0  0  0  0
  137.0984  159.1965  130.4302 H   0  0  0  0  0  0  0  0  0  0  0  0
  141.4303  159.6161  131.9735 H   0  0  0  0  0  0  0  0  0  0  0  0
  1  2  1  0
  2  3  1  0
  3  4  2  0
  3  5  1  0
  5  6  1  0
  6  7  1  0
  7  8  1  0
  8  9  1  0
  9 10  1  0
 10 11  1  0
 11 12  2  0
 11 13  1  0
 13 14  1  0
 14 15  1  0
 15 16  1  0
 15 17  2  0
 14 18  2  0
 18 19  1  0
 19 20  2  0
 20 21  1  0
 21 22  2  0
 22 23  1  0
 23 24  1  0
 23 25  1  0
 23 26  1  0
 22 27  1  0
 27 28  2  0
 28 13  1  0
 28 19  1  0
  1 29  1  0
  1 30  1  0
  1 31  1  0
  5 32  1  0
  5 33  1  0
  6 34  1  0
  6 35  1  0
  7 36  1  0
  7 37  1  0
  8 38  1  0
  8 39  1  0
  9 40  1  0
  9 41  1  0
 10 42  1  0
 10 43  1  0
 16 44  1  0
 18 45  1  0
 20 46  1  0
 21 47  1  0
 24 48  1  0
 24 49  1  0
 24 50  1  0
 27 51  1  0
M  CHG  2   5   1  16  -1
M  END
>  <UniqueID>  (6) 
6

>  <SMILES>  (6) 
COC(=S)[NH2+]CCCCCC(=O)n1c(C([NH-])=O)cc2ccc(C(C)(F)F)cc21

>  <Energy>  (6) 
76.42681805425173

>  <Genealogy>  (6) 
COC(=S)[NH2+]CCCCCC(=O)n1c(C([NH-])=O)cc2ccc(C(C)(F)F)cc21 (protonated)
COC(=S)[NH2+]CCCCCC(=O)n1c(C([NH-])=O)cc2ccc(C(C)(F)F)cc21 (3D coordinates assigned)
COC(=S)[NH2+]CCCCCC(=O)n1c(C([NH-])=O)cc2ccc(C(C)(F)F)cc21 (optimized conformer: 76.42681805425173 kcal/mol)

>  <smiles>  (6) 
COC(=S)NCCCCCC(=O)n1c(C(N)=O)cc2ccc(C(C)(F)F)cc21

>  <score_type>  (6) 
oracle

>  <origin>  (6) 
adg

>  <m_score__min__energy>  (6) 
-6.3300000000000001

>  <m_primary>  (6) 
energy

$$$$
6:0
     RDKit          3D

 39 41  0  0  0  0  0  0  0  0999 V2000
  149.9570  152.1360  132.3290 C   0  0  0  0  0  0  0  0  0  0  0  0
  148.9370  153.2050  132.5200 C   0  0  0  0  0  0  0  0  0  0  0  0
  149.2290  154.5170  132.6040 N   0  0  0  0  0  0  0  0  0  0  0  0
  148.0040  155.0500  132.8050 C   0  0  0  0  0  0  0  0  0  0  0  0
  147.7520  156.4970  132.9690 C   0  0  0  0  0  0  0  0  0  0  0  0
  148.8320  157.4170  132.9570 C   0  0  0  0  0  0  0  0  0  0  0  0
  148.6040  158.7940  133.1210 C   0  0  0  0  0  0  0  0  0  0  0  0
  147.2910  159.2220  133.2890 C   0  0  0  0  0  0  0  0  0  0  0  0
  146.7940  160.4900  133.4890 C   0  0  0  0  0  0  0  0  0  0  0  0
  145.4140  160.3320  133.5990 C   0  0  0  0  0  0  0  0  0  0  0  0
  144.4750  161.4660  133.7320 C   0  0  0  0  0  0  0  0  0  0  0  0
  143.0820  161.2650  133.5050 N   0  0  0  0  0  0  0  0  0  0  0  0
  144.8840  162.6050  134.0810 O   0  0  0  0  0  0  0  0  0  0  0  0
  145.0720  159.0160  133.4820 N   0  0  0  0  0  0  0  0  0  0  0  0
  143.7640  158.4300  133.6080 C   0  0  0  0  0  0  0  0  0  0  0  0
  143.2110  157.9020  132.6040 O   0  0  0  0  0  0  0  0  0  0  0  0
  143.0980  158.4710  134.8370 O   0  0  0  0  0  0  0  0  0  0  0  0
  141.8540  159.1440  135.0130 C   0  0  0  0  0  0  0  0  0  0  0  0
  140.7100  158.2860  134.4660 C   0  0  0  0  0  0  0  0  0  0  0  0
  140.1670  158.7730  133.1490 C   0  0  0  0  0  0  0  0  0  0  0  0
  140.9310  159.7040  132.3830 N   0  0  0  0  0  0  0  0  0  0  0  0
  139.0600  158.3630  132.7070 O   0  0  0  0  0  0  0  0  0  0  0  0
  146.2330  158.3520  133.2880 C   0  0  0  0  0  0  0  0  0  0  0  0
  146.4340  156.9740  133.1440 C   0  0  0  0  0  0  0  0  0  0  0  0
  147.0360  154.1100  132.8410 N   0  0  0  0  0  0  0  0  0  0  0  0
  147.6550  152.9840  132.6640 O   0  0  0  0  0  0  0  0  0  0  0  0
  150.2998  151.7767  133.3105 H   0  0  0  0  0  0  0  0  0  0  0  0
  149.5123  151.3010  131.7677 H   0  0  0  0  0  0  0  0  0  0  0  0
  150.8119  152.5410  131.7677 H   0  0  0  0  0  0  0  0  0  0  0  0
  149.8590  157.0485  132.8178 H   0  0  0  0  0  0  0  0  0  0  0  0
  149.4380  159.5113  133.1167 H   0  0  0  0  0  0  0  0  0  0  0  0
  147.3648  161.4284  133.5492 H   0  0  0  0  0  0  0  0  0  0  0  0
  142.6790  160.3020  133.4650 H   0  0  0  0  0  0  0  0  0  0  0  0
  141.6892  159.3298  136.0846 H   0  0  0  0  0  0  0  0  0  0  0  0
  141.8807  160.0988  134.4675 H   0  0  0  0  0  0  0  0  0  0  0  0
  141.0797  157.2588  134.3311 H   0  0  0  0  0  0  0  0  0  0  0  0
  139.8877  158.3428  135.1945 H   0  0  0  0  0  0  0  0  0  0  0  0
  141.9750  159.6840  132.3990 H   0  0  0  0  0  0  0  0  0  0  0  0
  145.5832  156.2772  133.1667 H   0  0  0  0  0  0  0  0  0  0  0  0
  1  2  1  0
  2  3  2  0
  3  4  1  0
  4  5  1  0
  5  6  2  0
  6  7  1  0
  7  8  2  0
  8  9  1  0
  9 10  2  0
 10 11  1  0
 11 12  1  0
 11 13  2  0
 10 14  1  0
 14 15  1  0
 15 16  2  0
 15 17  1  0
 17 18  1  0
 18 19  1  0
 19 20  1  0
 20 21  1  0
 20 22  2  0
 14 23  1  0
 23 24  2  0
  4 25  2  0
 25 26  1  0
 26  2  1  0
 24  5  1  0
 23  8  1  0
  1 27  1  0
  1 28  1  0
  1 29  1  0
  6 30  1  0
  7 31  1  0
  9 32  1  0
 12 33  1  0
 18 34  1  0
 18 35  1  0
 19 36  1  0
 19 37  1  0
 21 38  1  0
 24 39  1  0
M  CHG  2  12  -1  21  -1
M  END
>  <UniqueID>  (7) 
7

>  <SMILES>  (7) 
Cc1nc(-c2ccc3cc(C([NH-])=O)n(C(=O)OCCC([NH-])=O)c3c2)no1

>  <Energy>  (7) 
107.11156684237223

>  <Genealogy>  (7) 
Cc1nc(-c2ccc3cc(C([NH-])=O)n(C(=O)OCCC([NH-])=O)c3c2)no1 (protonated)
Cc1nc(-c2ccc3cc(C([NH-])=O)n(C(=O)OCCC([NH-])=O)c3c2)no1 (3D coordinates assigned)
Cc1nc(-c2ccc3cc(C([NH-])=O)n(C(=O)OCCC([NH-])=O)c3c2)no1 (optimized conformer: 107.11156684237223 kcal/mol)

>  <smiles>  (7) 
Cc1nc(-c2ccc3cc(C(N)=O)n(C(=O)OCCC(N)=O)c3c2)no1

>  <score_type>  (7) 
oracle

>  <origin>  (7) 
adg

>  <m_score__min__energy>  (7) 
-7.29

>  <m_primary>  (7) 
energy

$$$$
7:0
     RDKit          3D

 40 42  0  0  0  0  0  0  0  0999 V2000
  149.3430  159.0370  131.8740 C   0  0  0  0  0  0  0  0  0  0  0  0
  148.4370  159.5240  132.8570 O   0  0  0  0  0  0  0  0  0  0  0  0
  147.4340  158.7280  133.4200 C   0  0  0  0  0  0  0  0  0  0  0  0
  147.7120  157.5770  133.8570 O   0  0  0  0  0  0  0  0  0  0  0  0
  146.0470  159.2390  133.5010 C   0  0  0  0  0  0  0  0  0  0  0  0
  145.8050  160.6020  133.7360 C   0  0  0  0  0  0  0  0  0  0  0  0
  144.4970  161.0890  133.8150 C   0  0  0  0  0  0  0  0  0  0  0  0
  143.4030  160.2200  133.6650 C   0  0  0  0  0  0  0  0  0  0  0  0
  142.0160  160.7390  133.7530 C   0  0  0  0  0  0  0  0  0  0  0  0
  141.8060  161.9820  133.7130 O   0  0  0  0  0  0  0  0  0  0  0  0
  140.8990  159.8470  133.8930 N   0  0  0  0  0  0  0  0  0  0  0  0
  140.6480  158.9790  134.9110 C   0  0  0  0  0  0  0  0  0  0  0  0
  141.4240  158.8670  136.1650 C   0  0  0  0  0  0  0  0  0  0  0  0
  140.9740  159.4890  137.3660 N   0  0  0  0  0  0  0  0  0  0  0  0
  142.4880  158.1920  136.1830 O   0  0  0  0  0  0  0  0  0  0  0  0
  139.5080  158.2240  134.6370 C   0  0  0  0  0  0  0  0  0  0  0  0
  139.0680  158.6600  133.4060 C   0  0  0  0  0  0  0  0  0  0  0  0
  137.9850  158.2410  132.6390 C   0  0  0  0  0  0  0  0  0  0  0  0
  137.7880  158.8530  131.3890 C   0  0  0  0  0  0  0  0  0  0  0  0
  138.6680  159.8660  130.9350 C   0  0  0  0  0  0  0  0  0  0  0  0
  138.4740  160.4790  129.5810 C   0  0  0  0  0  0  0  0  0  0  0  0
  139.7660  160.2520  131.7320 C   0  0  0  0  0  0  0  0  0  0  0  0
  139.9280  159.6360  132.9780 C   0  0  0  0  0  0  0  0  0  0  0  0
  143.6450  158.8580  133.4210 C   0  0  0  0  0  0  0  0  0  0  0  0
  144.9520  158.3720  133.3420 C   0  0  0  0  0  0  0  0  0  0  0  0
  150.2076  158.5723  132.3704 H   0  0  0  0  0  0  0  0  0  0  0  0
  148.8357  158.2900  131.2458 H   0  0  0  0  0  0  0  0  0  0  0  0
  149.6862  159.8722  131.2458 H   0  0  0  0  0  0  0  0  0  0  0  0
  146.6522  161.2928  133.8590 H   0  0  0  0  0  0  0  0  0  0  0  0
  144.3230  162.1600  133.9959 H   0  0  0  0  0  0  0  0  0  0  0  0
  139.9550  159.6170  137.5550 H   0  0  0  0  0  0  0  0  0  0  0  0
  139.0559  157.4456  135.2693 H   0  0  0  0  0  0  0  0  0  0  0  0
  137.3045  157.4556  132.9996 H   0  0  0  0  0  0  0  0  0  0  0  0
  136.9426  158.5424  130.7575 H   0  0  0  0  0  0  0  0  0  0  0  0
  138.1439  161.5221  129.6946 H   0  0  0  0  0  0  0  0  0  0  0  0
  139.4242  160.4534  129.0273 H   0  0  0  0  0  0  0  0  0  0  0  0
  137.7116  159.9114  129.0273 H   0  0  0  0  0  0  0  0  0  0  0  0
  140.4758  161.0166  131.3834 H   0  0  0  0  0  0  0  0  0  0  0  0
  142.7980  158.1683  133.2911 H   0  0  0  0  0  0  0  0  0  0  0  0
  145.1259  157.3022  133.1538 H   0  0  0  0  0  0  0  0  0  0  0  0
  1  2  1  0
  2  3  1  0
  3  4  2  0
  3  5  1  0
  5  6  2  0
  6  7  1  0
  7  8  2  0
  8  9  1  0
  9 10  2  0
  9 11  1  0
 11 12  1  0
 12 13  1  0
 13 14  1  0
 13 15  2  0
 12 16  2  0
 16 17  1  0
 17 18  2  0
 18 19  1  0
 19 20  2  0
 20 21  1  0
 20 22  1  0
 22 23  2  0
  8 24  1  0
 24 25  2  0
 25  5  1  0
 23 11  1  0
 23 17  1  0
  1 26  1  0
  1 27  1  0
  1 28  1  0
  6 29  1  0
  7 30  1  0
 14 31  1  0
 16 32  1  0
 18 33  1  0
 19 34  1  0
 21 35  1  0
 21 36  1  0
 21 37  1  0
 22 38  1  0
 24 39  1  0
 25 40  1  0
M  CHG  1  14  -1
M  END
>  <UniqueID>  (8) 
8

>  <SMILES>  (8) 
COC(=O)c1ccc(C(=O)n2c(C([NH-])=O)cc3ccc(C)cc32)cc1

>  <Energy>  (8) 
80.9468111457665

>  <Genealogy>  (8) 
COC(=O)c1ccc(C(=O)n2c(C([NH-])=O)cc3ccc(C)cc32)cc1 (protonated)
COC(=O)c1ccc(C(=O)n2c(C([NH-])=O)cc3ccc(C)cc32)cc1 (3D coordinates assigned)
COC(=O)c1ccc(C(=O)n2c(C([NH-])=O)cc3ccc(C)cc32)cc1 (optimized conformer: 80.9468111457665 kcal/mol)

>  <smiles>  (8) 
COC(=O)c1ccc(C(=O)n2c(C(N)=O)cc3ccc(C)cc32)cc1

>  <score_type>  (8) 
oracle

>  <origin>  (8) 
adg

>  <m_score__min__energy>  (8) 
-8.0700000000000003

>  <m_primary>  (8) 
energy

$$$$
8:0
     RDKit          3D

 58 59  0  0  0  0  0  0  0  0999 V2000
  149.9810  153.7480  138.9520 C   0  0  0  0  0  0  0  0  0  0  0  0
  149.0070  152.9780  138.1930 N   0  0  0  0  0  0  0  0  0  0  0  0
  147.6130  153.2770  138.2260 C   0  0  0  0  0  0  0  0  0  0  0  0
  147.1080  153.7510  139.2790 O   0  0  0  0  0  0  0  0  0  0  0  0
  146.8200  153.0490  137.0970 O   0  0  0  0  0  0  0  0  0  0  0  0
  146.3380  154.1020  136.2680 C   0  0  0  0  0  0  0  0  0  0  0  0
  144.8100  154.1320  136.2760 C   0  0  0  0  0  0  0  0  0  0  0  0
  144.0780  154.6050  134.7010 S   0  0  0  0  0  0  0  0  0  0  0  0
  143.4430  155.9500  134.9250 O   0  0  0  0  0  0  0  0  0  0  0  0
  145.1700  154.7790  133.6810 O   0  0  0  0  0  0  0  0  0  0  0  0
  142.8140  153.4590  134.0560 C   0  0  0  0  0  0  0  0  0  0  0  0
  142.0960  152.7870  135.2430 C   0  0  0  0  0  0  0  0  0  0  0  0
  143.4640  152.3560  133.2030 C   0  0  0  0  0  0  0  0  0  0  0  0
  141.7490  154.2260  133.2330 C   0  0  0  0  0  0  0  0  0  0  0  0
  140.6870  154.7150  134.0520 O   0  0  0  0  0  0  0  0  0  0  0  0
  139.9120  155.8380  133.7410 C   0  0  0  0  0  0  0  0  0  0  0  0
  138.9030  155.7340  132.9900 O   0  0  0  0  0  0  0  0  0  0  0  0
  140.2570  157.1130  134.3030 N   0  0  0  0  0  0  0  0  0  0  0  0
  140.1390  158.3440  133.7270 C   0  0  0  0  0  0  0  0  0  0  0  0
  139.7700  158.6160  132.3220 C   0  0  0  0  0  0  0  0  0  0  0  0
  138.4770  158.2830  131.8260 N   0  0  0  0  0  0  0  0  0  0  0  0
  140.6250  159.1040  131.5360 O   0  0  0  0  0  0  0  0  0  0  0  0
  140.5130  159.3400  134.6270 C   0  0  0  0  0  0  0  0  0  0  0  0
  140.8800  158.6750  135.7740 C   0  0  0  0  0  0  0  0  0  0  0  0
  141.3480  159.1740  136.9830 C   0  0  0  0  0  0  0  0  0  0  0  0
  141.6510  158.2570  138.0020 C   0  0  0  0  0  0  0  0  0  0  0  0
  141.4760  156.8570  137.8100 C   0  0  0  0  0  0  0  0  0  0  0  0
  141.7980  155.9160  138.8680 N   0  0  0  0  0  0  0  0  0  0  0  0
  141.9990  154.4940  138.5670 C   0  0  0  0  0  0  0  0  0  0  0  0
  141.9210  156.3710  140.2590 C   0  0  0  0  0  0  0  0  0  0  0  0
  140.9890  156.3980  136.5580 C   0  0  0  0  0  0  0  0  0  0  0  0
  140.7150  157.3340  135.5540 C   0  0  0  0  0  0  0  0  0  0  0  0
  149.8021  153.6066  140.0281 H   0  0  0  0  0  0  0  0  0  0  0  0
  150.9956  153.4052  138.7008 H   0  0  0  0  0  0  0  0  0  0  0  0
  149.8816  154.8143  138.7008 H   0  0  0  0  0  0  0  0  0  0  0  0
  146.7210  155.0625  136.6432 H   0  0  0  0  0  0  0  0  0  0  0  0
  146.6854  153.9318  135.2383 H   0  0  0  0  0  0  0  0  0  0  0  0
  144.4458  153.1279  136.5389 H   0  0  0  0  0  0  0  0  0  0  0  0
  144.5108  154.8966  137.0081 H   0  0  0  0  0  0  0  0  0  0  0  0
  142.5083  153.1729  136.1870 H   0  0  0  0  0  0  0  0  0  0  0  0
  141.0199  153.0100  135.1945 H   0  0  0  0  0  0  0  0  0  0  0  0
  142.2474  151.6985  135.1945 H   0  0  0  0  0  0  0  0  0  0  0  0
  143.9109  151.5977  133.8628 H   0  0  0  0  0  0  0  0  0  0  0  0
  142.6992  151.8848  132.5682 H   0  0  0  0  0  0  0  0  0  0  0  0
  144.2467  152.7968  132.5682 H   0  0  0  0  0  0  0  0  0  0  0  0
  142.2329  155.0782  132.7335 H   0  0  0  0  0  0  0  0  0  0  0  0
  141.3180  153.5267  132.5014 H   0  0  0  0  0  0  0  0  0  0  0  0
  137.9110  157.5220  132.2650 H   0  0  0  0  0  0  0  0  0  0  0  0
  140.5145  160.4267  134.4566 H   0  0  0  0  0  0  0  0  0  0  0  0
  141.4773  160.2554  137.1374 H   0  0  0  0  0  0  0  0  0  0  0  0
  142.0304  158.6267  138.9660 H   0  0  0  0  0  0  0  0  0  0  0  0
  142.0790  153.9280  139.5068 H   0  0  0  0  0  0  0  0  0  0  0  0
  141.1450  154.1183  137.9843 H   0  0  0  0  0  0  0  0  0  0  0  0
  142.9236  154.3697  137.9843 H   0  0  0  0  0  0  0  0  0  0  0  0
  141.6954  155.5364  140.9391 H   0  0  0  0  0  0  0  0  0  0  0  0
  142.9469  156.7243  140.4399 H   0  0  0  0  0  0  0  0  0  0  0  0
  141.2129  157.1931  140.4399 H   0  0  0  0  0  0  0  0  0  0  0  0
  140.8296  155.3243  136.3798 H   0  0  0  0  0  0  0  0  0  0  0  0
  1  2  1  0
  2  3  1  0
  3  4  2  0
  3  5  1  0
  5  6  1  0
  6  7  1  0
  7  8  1  0
  8  9  2  0
  8 10  2  0
  8 11  1  0
 11 12  1  0
 11 13  1  0
 11 14  1  0
 14 15  1  0
 15 16  1  0
 16 17  2  0
 16 18  1  0
 18 19  1  0
 19 20  1  0
 20 21  1  0
 20 22  2  0
 19 23  2  0
 23 24  1  0
 24 25  2  0
 25 26  1  0
 26 27  2  0
 27 28  1  0
 28 29  1  0
 28 30  1  0
 27 31  1  0
 31 32  2  0
 32 18  1  0
 32 24  1  0
  1 33  1  0
  1 34  1  0
  1 35  1  0
  6 36  1  0
  6 37  1  0
  7 38  1  0
  7 39  1  0
 12 40  1  0
 12 41  1  0
 12 42  1  0
 13 43  1  0
 13 44  1  0
 13 45  1  0
 14 46  1  0
 14 47  1  0
 21 48  1  0
 23 49  1  0
 25 50  1  0
 26 51  1  0
 29 52  1  0
 29 53  1  0
 29 54  1  0
 30 55  1  0
 30 56  1  0
 30 57  1  0
 31 58  1  0
M  CHG  2   2  -1  21  -1
M  END
>  <UniqueID>  (9) 
9

>  <SMILES>  (9) 
C[N-]C(=O)OCCS(=O)(=O)C(C)(C)COC(=O)n1c(C([NH-])=O)cc2ccc(N(C)C)cc21

>  <Energy>  (9) 
77.47311912731496

>  <Genealogy>  (9) 
C[N-]C(=O)OCCS(=O)(=O)C(C)(C)COC(=O)n1c(C([NH-])=O)cc2ccc(N(C)C)cc21 (protonated)
C[N-]C(=O)OCCS(=O)(=O)C(C)(C)COC(=O)n1c(C([NH-])=O)cc2ccc(N(C)C)cc21 (3D coordinates assigned)
C[N-]C(=O)OCCS(=O)(=O)C(C)(C)COC(=O)n1c(C([NH-])=O)cc2ccc(N(C)C)cc21 (optimized conformer: 77.47311912731496 kcal/mol)

>  <smiles>  (9) 
CNC(=O)OCCS(=O)(=O)C(C)(C)COC(=O)n1c(C(N)=O)cc2ccc(N(C)C)cc21

>  <score_type>  (9) 
oracle

>  <origin>  (9) 
adg

>  <m_score__min__energy>  (9) 
-7.4199999999999999

>  <m_primary>  (9) 
energy

$$$$
9:0
     RDKit          3D

 28 29  0  0  0  0  0  0  0  0999 V2000
  146.7890  161.0690  133.7260 N   0  0  0  0  0  0  0  0  0  0  0  0
  145.7750  160.1130  133.4150 C   0  0  0  0  0  0  0  0  0  0  0  0
  144.5960  160.5100  133.2220 O   0  0  0  0  0  0  0  0  0  0  0  0
  146.1020  158.6760  133.2880 C   0  0  0  0  0  0  0  0  0  0  0  0
  145.1810  157.6450  133.4740 C   0  0  0  0  0  0  0  0  0  0  0  0
  145.9090  156.4820  133.3680 C   0  0  0  0  0  0  0  0  0  0  0  0
  145.5020  155.1560  133.4770 C   0  0  0  0  0  0  0  0  0  0  0  0
  146.4730  154.1530  133.3160 C   0  0  0  0  0  0  0  0  0  0  0  0
  147.8210  154.4880  133.0260 C   0  0  0  0  0  0  0  0  0  0  0  0
  148.8610  153.4040  132.8960 C   0  0  0  0  0  0  0  0  0  0  0  0
  150.0950  153.9460  132.5840 F   0  0  0  0  0  0  0  0  0  0  0  0
  148.4840  152.5300  131.8920 F   0  0  0  0  0  0  0  0  0  0  0  0
  148.9850  152.7010  134.0820 F   0  0  0  0  0  0  0  0  0  0  0  0
  148.1990  155.8490  132.9480 C   0  0  0  0  0  0  0  0  0  0  0  0
  147.2120  156.8240  133.1270 C   0  0  0  0  0  0  0  0  0  0  0  0
  147.3480  158.1670  133.0720 N   0  0  0  0  0  0  0  0  0  0  0  0
  148.5580  158.8820  132.7770 C   0  0  0  0  0  0  0  0  0  0  0  0
  149.2240  159.3920  133.7180 O   0  0  0  0  0  0  0  0  0  0  0  0
  149.1070  158.9120  131.3810 C   0  0  0  0  0  0  0  0  0  0  0  0
  149.2410  160.5860  130.7880 S   0  0  0  0  0  0  0  0  0  0  0  0
  146.5520  162.0860  133.7770 H   0  0  0  0  0  0  0  0  0  0  0  0
  147.7650  160.7740  133.9500 H   0  0  0  0  0  0  0  0  0  0  0  0
  144.1020  157.7412  133.6649 H   0  0  0  0  0  0  0  0  0  0  0  0
  144.4521  154.9005  133.6830 H   0  0  0  0  0  0  0  0  0  0  0  0
  146.1848  153.0961  133.4159 H   0  0  0  0  0  0  0  0  0  0  0  0
  149.2432  156.1335  132.7514 H   0  0  0  0  0  0  0  0  0  0  0  0
  150.1038  158.4470  131.3757 H   0  0  0  0  0  0  0  0  0  0  0  0
  148.4221  158.3588  130.7215 H   0  0  0  0  0  0  0  0  0  0  0  0
  1  2  1  0
  2  3  2  0
  2  4  1  0
  4  5  2  0
  5  6  1  0
  6  7  2  0
  7  8  1  0
  8  9  2  0
  9 10  1  0
 10 11  1  0
 10 12  1  0
 10 13  1  0
  9 14  1  0
 14 15  2  0
 15 16  1  0
 16 17  1  0
 17 18  2  0
 17 19  1  0
 19 20  1  0
 16  4  1  0
 15  6  1  0
  1 21  1  0
  1 22  1  0
  5 23  1  0
  7 24  1  0
  8 25  1  0
 14 26  1  0
 19 27  1  0
 19 28  1  0
M  CHG  1  20  -1
M  END
>  <UniqueID>  (10) 
10

>  <SMILES>  (10) 
NC(=O)c1cc2ccc(C(F)(F)F)cc2n1C(=O)C[S-]

>  <Energy>  (10) 
68.05572258968786

>  <Genealogy>  (10) 
NC(=O)c1cc2ccc(C(F)(F)F)cc2n1C(=O)C[S-] (protonated)
NC(=O)c1cc2ccc(C(F)(F)F)cc2n1C(=O)C[S-] (3D coordinates assigned)
NC(=O)c1cc2ccc(C(F)(F)F)cc2n1C(=O)C[S-] (optimized conformer: 68.05572258968786 kcal/mol)

>  <smiles>  (10) 
NC(=O)c1cc2ccc(C(F)(F)F)cc2n1C(=O)CS

>  <score_type>  (10) 
oracle

>  <origin>  (10) 
adg

>  <m_score__min__energy>  (10) 
-6.0700000000000003

>  <m_primary>  (10) 
energy

$$$$
10:0
     RDKit          3D

 38 39  0  0  0  0  0  0  0  0999 V2000
  142.5690  157.3550  132.3800 N   0  0  0  0  0  0  0  0  0  0  0  0
  143.3300  156.3740  133.0840 C   0  0  0  0  0  0  0  0  0  0  0  0
  144.2570  156.7460  133.8520 O   0  0  0  0  0  0  0  0  0  0  0  0
  143.0100  154.9360  132.9800 C   0  0  0  0  0  0  0  0  0  0  0  0
  143.9740  153.9420  132.8480 C   0  0  0  0  0  0  0  0  0  0  0  0
  143.2770  152.7560  132.8600 C   0  0  0  0  0  0  0  0  0  0  0  0
  143.7390  151.4470  132.7620 C   0  0  0  0  0  0  0  0  0  0  0  0
  142.7910  150.4110  132.7770 C   0  0  0  0  0  0  0  0  0  0  0  0
  141.4030  150.6980  132.8610 C   0  0  0  0  0  0  0  0  0  0  0  0
  140.3980  149.5760  132.9120 C   0  0  0  0  0  0  0  0  0  0  0  0
  140.8640  148.4680  132.2260 F   0  0  0  0  0  0  0  0  0  0  0  0
  139.2000  149.9670  132.3400 F   0  0  0  0  0  0  0  0  0  0  0  0
  140.1730  149.2270  134.2310 F   0  0  0  0  0  0  0  0  0  0  0  0
  140.9760  152.0420  132.9800 C   0  0  0  0  0  0  0  0  0  0  0  0
  141.9440  153.0520  132.9840 C   0  0  0  0  0  0  0  0  0  0  0  0
  141.7620  154.3900  133.0550 N   0  0  0  0  0  0  0  0  0  0  0  0
  140.5060  155.0850  133.0930 C   0  0  0  0  0  0  0  0  0  0  0  0
  139.4540  154.5010  132.7180 O   0  0  0  0  0  0  0  0  0  0  0  0
  140.4580  156.4080  133.5470 O   0  0  0  0  0  0  0  0  0  0  0  0
  139.2450  157.1450  133.6940 C   0  0  0  0  0  0  0  0  0  0  0  0
  139.4670  158.6270  133.3800 C   0  0  0  0  0  0  0  0  0  0  0  0
  140.8530  158.9040  133.1860 O   0  0  0  0  0  0  0  0  0  0  0  0
  141.7050  159.3290  134.2110 C   0  0  0  0  0  0  0  0  0  0  0  0
  142.7810  159.9330  133.9460 O   0  0  0  0  0  0  0  0  0  0  0  0
  141.3680  159.0060  135.6300 C   0  0  0  0  0  0  0  0  0  0  0  0
  140.2370  159.7060  136.0040 F   0  0  0  0  0  0  0  0  0  0  0  0
  142.4180  159.3610  136.4570 F   0  0  0  0  0  0  0  0  0  0  0  0
  141.1300  157.6500  135.7640 F   0  0  0  0  0  0  0  0  0  0  0  0
  142.8360  158.3630  132.4330 H   0  0  0  0  0  0  0  0  0  0  0  0
  141.6900  157.0990  131.8780 H   0  0  0  0  0  0  0  0  0  0  0  0
  145.0618  154.0757  132.7541 H   0  0  0  0  0  0  0  0  0  0  0  0
  144.8140  151.2304  132.6754 H   0  0  0  0  0  0  0  0  0  0  0  0
  143.1276  149.3652  132.7230 H   0  0  0  0  0  0  0  0  0  0  0  0
  139.9072  152.2870  133.0674 H   0  0  0  0  0  0  0  0  0  0  0  0
  138.4907  156.7393  133.0037 H   0  0  0  0  0  0  0  0  0  0  0  0
  138.9009  157.0531  134.7347 H   0  0  0  0  0  0  0  0  0  0  0  0
  138.9160  158.8876  132.4643 H   0  0  0  0  0  0  0  0  0  0  0  0
  139.1046  159.2245  134.2296 H   0  0  0  0  0  0  0  0  0  0  0  0
  1  2  1  0
  2  3  2  0
  2  4  1  0
  4  5  2  0
  5  6  1  0
  6  7  2  0
  7  8  1  0
  8  9  2  0
  9 10  1  0
 10 11  1  0
 10 12  1  0
 10 13  1  0
  9 14  1  0
 14 15  2  0
 15 16  1  0
 16 17  1  0
 17 18  2  0
 17 19  1  0
 19 20  1  0
 20 21  1  0
 21 22  1  0
 22 23  1  0
 23 24  2  0
 23 25  1  0
 25 26  1  0
 25 27  1  0
 25 28  1  0
 16  4  1  0
 15  6  1  0
  1 29  1  0
  1 30  1  0
  5 31  1  0
  7 32  1  0
  8 33  1  0
 14 34  1  0
 20 35  1  0
 20 36  1  0
 21 37  1  0
 21 38  1  0
M  END
>  <UniqueID>  (11) 
11

>  <SMILES>  (11) 
NC(=O)c1cc2ccc(C(F)(F)F)cc2n1C(=O)OCCOC(=O)C(F)(F)F

>  <Energy>  (11) 
71.93483004855013

>  <Genealogy>  (11) 
NC(=O)c1cc2ccc(C(F)(F)F)cc2n1C(=O)OCCOC(=O)C(F)(F)F (3D coordinates assigned)
NC(=O)c1cc2ccc(C(F)(F)F)cc2n1C(=O)OCCOC(=O)C(F)(F)F (optimized conformer: 71.93483004855013 kcal/mol)

>  <smiles>  (11) 
NC(=O)c1cc2ccc(C(F)(F)F)cc2n1C(=O)OCCOC(=O)C(F)(F)F

>  <score_type>  (11) 
oracle

>  <origin>  (11) 
adg

>  <m_score__min__energy>  (11) 
-5.4199999999999999

>  <m_primary>  (11) 
energy

$$$$
11:0
     RDKit          3D

 56 58  0  0  0  0  0  0  0  0999 V2000
  144.3430  155.1750  132.5080 C   0  0  0  0  0  0  0  0  0  0  0  0
  145.6340  155.4800  132.6260 C   0  0  0  0  0  0  0  0  0  0  0  0
  146.1460  156.3900  133.6670 C   0  0  0  0  0  0  0  0  0  0  0  0
  146.6750  155.9000  134.7000 O   0  0  0  0  0  0  0  0  0  0  0  0
  146.0870  157.8170  133.5150 N   0  0  0  0  0  0  0  0  0  0  0  0
  147.0850  158.6680  133.1460 C   0  0  0  0  0  0  0  0  0  0  0  0
  148.4520  158.2760  132.7440 C   0  0  0  0  0  0  0  0  0  0  0  0
  149.4660  159.2550  132.5300 N   0  0  0  0  0  0  0  0  0  0  0  0
  148.7370  157.0550  132.6090 O   0  0  0  0  0  0  0  0  0  0  0  0
  146.6250  159.9840  133.1490 C   0  0  0  0  0  0  0  0  0  0  0  0
  145.3010  159.9060  133.5240 C   0  0  0  0  0  0  0  0  0  0  0  0
  144.3530  160.9110  133.6810 C   0  0  0  0  0  0  0  0  0  0  0  0
  143.0570  160.5380  134.0760 C   0  0  0  0  0  0  0  0  0  0  0  0
  142.7340  159.1750  134.3250 C   0  0  0  0  0  0  0  0  0  0  0  0
  141.3290  158.7390  134.7110 C   0  0  1  0  0  0  0  0  0  0  0  0
  140.6700  157.8080  133.6580 C   0  0  0  0  0  0  0  0  0  0  0  0
  139.1390  157.7180  133.7920 C   0  0  0  0  0  0  0  0  0  0  0  0
  138.4520  158.3250  132.6540 N   0  0  0  0  0  0  0  0  0  0  0  0
  138.8570  159.5660  132.0650 C   0  0  0  0  0  0  0  0  0  0  0  0
  139.7550  160.2670  132.6090 O   0  0  0  0  0  0  0  0  0  0  0  0
  138.2590  159.9810  130.8720 O   0  0  0  0  0  0  0  0  0  0  0  0
  136.8490  160.0920  130.7210 C   0  0  0  0  0  0  0  0  0  0  0  0
  141.3470  158.1240  136.0990 C   0  0  0  0  0  0  0  0  0  0  0  0
  141.0440  156.7610  136.2680 C   0  0  0  0  0  0  0  0  0  0  0  0
  141.1040  156.1720  137.5330 C   0  0  0  0  0  0  0  0  0  0  0  0
  141.4580  156.9290  138.6550 C   0  0  0  0  0  0  0  0  0  0  0  0
  141.5260  156.2860  139.9000 O   0  0  0  0  0  0  0  0  0  0  0  0
  140.6640  155.2290  140.3060 C   0  0  0  0  0  0  0  0  0  0  0  0
  141.7340  158.3000  138.4980 C   0  0  0  0  0  0  0  0  0  0  0  0
  141.6740  158.8900  137.2330 C   0  0  0  0  0  0  0  0  0  0  0  0
  143.7270  158.1850  134.1370 C   0  0  0  0  0  0  0  0  0  0  0  0
  145.0030  158.5880  133.7340 C   0  0  0  0  0  0  0  0  0  0  0  0
  144.0099  154.4904  131.7141 H   0  0  0  0  0  0  0  0  0  0  0  0
  143.6097  155.6077  133.2045 H   0  0  0  0  0  0  0  0  0  0  0  0
  146.3479  155.0346  131.9175 H   0  0  0  0  0  0  0  0  0  0  0  0
  150.4300  159.1210  132.9080 H   0  0  0  0  0  0  0  0  0  0  0  0
  147.1968  160.8913  132.9043 H   0  0  0  0  0  0  0  0  0  0  0  0
  144.6096  161.9655  133.5015 H   0  0  0  0  0  0  0  0  0  0  0  0
  142.2822  161.3099  134.1942 H   0  0  0  0  0  0  0  0  0  0  0  0
  140.6913  159.6350  134.7333 H   0  0  0  0  0  0  0  0  0  0  0  0
  140.9100  158.1913  132.6553 H   0  0  0  0  0  0  0  0  0  0  0  0
  141.0698  156.7968  133.8242 H   0  0  0  0  0  0  0  0  0  0  0  0
  138.8501  156.6586  133.8571 H   0  0  0  0  0  0  0  0  0  0  0  0
  138.8449  158.2677  134.6983 H   0  0  0  0  0  0  0  0  0  0  0  0
  137.6250  157.8310  132.2490 H   0  0  0  0  0  0  0  0  0  0  0  0
  136.3758  160.1292  131.7133 H   0  0  0  0  0  0  0  0  0  0  0  0
  136.6109  161.0117  130.1665 H   0  0  0  0  0  0  0  0  0  0  0  0
  136.4699  159.2209  130.1665 H   0  0  0  0  0  0  0  0  0  0  0  0
  140.7574  156.1538  135.3967 H   0  0  0  0  0  0  0  0  0  0  0  0
  140.8708  155.1032  137.6481 H   0  0  0  0  0  0  0  0  0  0  0  0
  140.6289  155.1860  141.4046 H   0  0  0  0  0  0  0  0  0  0  0  0
  139.6524  155.4096  139.9136 H   0  0  0  0  0  0  0  0  0  0  0  0
  141.0444  154.2744  139.9136 H   0  0  0  0  0  0  0  0  0  0  0  0
  141.9980  158.9096  139.3748 H   0  0  0  0  0  0  0  0  0  0  0  0
  141.8845  159.9640  137.1225 H   0  0  0  0  0  0  0  0  0  0  0  0
  143.4998  157.1218  134.3043 H   0  0  0  0  0  0  0  0  0  0  0  0
  1  2  2  0
  2  3  1  0
  3  4  2  0
  3  5  1  0
  5  6  1  0
  6  7  1  0
  7  8  1  0
  7  9  2  0
  6 10  2  0
 10 11  1  0
 11 12  2  0
 12 13  1  0
 13 14  2  0
 14 15  1  0
 15 16  1  0
 16 17  1  0
 17 18  1  0
 18 19  1  0
 19 20  2  0
 19 21  1  0
 21 22  1  0
 15 23  1  0
 23 24  2  0
 24 25  1  0
 25 26  2  0
 26 27  1  0
 27 28  1  0
 26 29  1  0
 29 30  2  0
 14 31  1  0
 31 32  2  0
 32  5  1  0
 32 11  1  0
 30 23  1  0
  1 33  1  0
  1 34  1  0
  2 35  1  0
  8 36  1  0
 10 37  1  0
 12 38  1  0
 13 39  1  0
 15 40  1  1
 16 41  1  0
 16 42  1  0
 17 43  1  0
 17 44  1  0
 18 45  1  0
 22 46  1  0
 22 47  1  0
 22 48  1  0
 24 49  1  0
 25 50  1  0
 28 51  1  0
 28 52  1  0
 28 53  1  0
 29 54  1  0
 30 55  1  0
 31 56  1  0
M  CHG  1   8  -1
M  END
>  <UniqueID>  (12) 
12

>  <SMILES>  (12) 
C=CC(=O)n1c(C([NH-])=O)cc2ccc([C@@H](CCNC(=O)OC)c3ccc(OC)cc3)cc21

>  <Energy>  (12) 
88.72161408998332

>  <Genealogy>  (12) 
C=CC(=O)n1c(C([NH-])=O)cc2ccc(C(CCNC(=O)OC)c3ccc(OC)cc3)cc21 (protonated)
C=CC(=O)n1c(C([NH-])=O)cc2ccc([C@@H](CCNC(=O)OC)c3ccc(OC)cc3)cc21 (chirality)
C=CC(=O)n1c(C([NH-])=O)cc2ccc([C@@H](CCNC(=O)OC)c3ccc(OC)cc3)cc21 (3D coordinates assigned)
C=CC(=O)n1c(C([NH-])=O)cc2ccc([C@@H](CCNC(=O)OC)c3ccc(OC)cc3)cc21 (optimized conformer: 88.72161408998332 kcal/mol)

>  <smiles>  (12) 
C=CC(=O)n1c(C(N)=O)cc2ccc(C(CCNC(=O)OC)c3ccc(OC)cc3)cc21

>  <score_type>  (12) 
oracle

>  <origin>  (12) 
adg

>  <m_score__min__energy>  (12) 
-8.7300000000000004

>  <m_primary>  (12) 
energy

$$$$
12:0
     RDKit          3D

 46 48  0  0  0  0  0  0  0  0999 V2000
  150.1250  151.5520  132.3110 C   0  0  0  0  0  0  0  0  0  0  0  0
  149.0700  152.5380  132.4920 N   0  0  0  0  0  0  0  0  0  0  0  0
  149.2390  153.8720  132.5300 C   0  0  0  0  0  0  0  0  0  0  0  0
  148.0180  154.4550  132.8210 C   0  0  0  0  0  0  0  0  0  0  0  0
  147.7270  155.8990  133.0150 C   0  0  0  0  0  0  0  0  0  0  0  0
  148.7730  156.8580  132.9580 C   0  0  0  0  0  0  0  0  0  0  0  0
  148.5010  158.2290  133.1010 C   0  0  0  0  0  0  0  0  0  0  0  0
  147.1800  158.6170  133.2840 C   0  0  0  0  0  0  0  0  0  0  0  0
  146.6410  159.8750  133.4290 C   0  0  0  0  0  0  0  0  0  0  0  0
  145.2670  159.6770  133.5480 C   0  0  0  0  0  0  0  0  0  0  0  0
  144.2890  160.7820  133.6450 C   0  0  0  0  0  0  0  0  0  0  0  0
  142.9150  160.5390  133.3540 N   0  0  0  0  0  0  0  0  0  0  0  0
  144.6490  161.9330  134.0030 O   0  0  0  0  0  0  0  0  0  0  0  0
  144.9680  158.3480  133.4830 N   0  0  0  0  0  0  0  0  0  0  0  0
  143.6610  157.7500  133.5700 C   0  0  0  0  0  0  0  0  0  0  0  0
  142.8560  157.8830  132.6090 O   0  0  0  0  0  0  0  0  0  0  0  0
  143.2050  157.0050  134.7950 C   0  0  0  0  0  0  0  0  0  0  0  0
  143.1930  155.1940  134.5100 S   0  0  0  0  0  0  0  0  0  0  0  0
  143.4280  154.6930  136.2540 C   0  0  0  0  0  0  0  0  0  0  0  0
  144.7080  153.8750  136.4130 C   0  0  0  0  0  0  0  0  0  0  0  0
  144.8080  153.3590  137.7820 N   0  0  0  0  0  0  0  0  0  0  0  0
  146.4870  153.0140  138.1730 P   0  0  0  0  0  0  0  0  0  0  0  0
  147.3520  153.1990  136.9470 O   0  0  0  0  0  0  0  0  0  0  0  0
  147.0040  154.0730  139.3850 O   0  0  0  0  0  0  0  0  0  0  0  0
  146.6270  151.4220  138.7290 O   0  0  0  0  0  0  0  0  0  0  0  0
  146.1530  157.7120  133.3290 C   0  0  0  0  0  0  0  0  0  0  0  0
  146.3980  156.3390  133.2270 C   0  0  0  0  0  0  0  0  0  0  0  0
  147.1440  153.3850  132.9580 C   0  0  0  0  0  0  0  0  0  0  0  0
  147.8110  152.2310  132.7630 N   0  0  0  0  0  0  0  0  0  0  0  0
  150.4850  151.2155  133.2944 H   0  0  0  0  0  0  0  0  0  0  0  0
  149.7304  150.6914  131.7509 H   0  0  0  0  0  0  0  0  0  0  0  0
  150.9570  152.0038  131.7509 H   0  0  0  0  0  0  0  0  0  0  0  0
  150.1847  154.4072  132.3592 H   0  0  0  0  0  0  0  0  0  0  0  0
  149.8088  156.5233  132.7999 H   0  0  0  0  0  0  0  0  0  0  0  0
  149.3104  158.9732  133.0690 H   0  0  0  0  0  0  0  0  0  0  0  0
  147.1805  160.8334  133.4471 H   0  0  0  0  0  0  0  0  0  0  0  0
  142.6310  160.0220  132.4930 H   0  0  0  0  0  0  0  0  0  0  0  0
  143.8880  157.2319  135.6269 H   0  0  0  0  0  0  0  0  0  0  0  0
  142.1799  157.3249  135.0334 H   0  0  0  0  0  0  0  0  0  0  0  0
  143.4944  155.5933  136.8825 H   0  0  0  0  0  0  0  0  0  0  0  0
  142.5724  154.0744  136.5626 H   0  0  0  0  0  0  0  0  0  0  0  0
  144.6915  153.0320  135.7065 H   0  0  0  0  0  0  0  0  0  0  0  0
  145.5755  154.5190  136.2061 H   0  0  0  0  0  0  0  0  0  0  0  0
  144.4980  154.1090  138.4430 H   0  0  0  0  0  0  0  0  0  0  0  0
  145.5742  155.6148  133.3099 H   0  0  0  0  0  0  0  0  0  0  0  0
  146.0719  153.4669  133.1900 H   0  0  0  0  0  0  0  0  0  0  0  0
  1  2  1  0
  2  3  1  0
  3  4  2  0
  4  5  1  0
  5  6  2  0
  6  7  1  0
  7  8  2  0
  8  9  1  0
  9 10  2  0
 10 11  1  0
 11 12  1  0
 11 13  2  0
 10 14  1  0
 14 15  1  0
 15 16  2  0
 15 17  1  0
 17 18  1  0
 18 19  1  0
 19 20  1  0
 20 21  1  0
 21 22  1  0
 22 23  2  0
 22 24  1  0
 22 25  1  0
 14 26  1  0
 26 27  2  0
  4 28  1  0
 28 29  2  0
 29  2  1  0
 27  5  1  0
 26  8  1  0
  1 30  1  0
  1 31  1  0
  1 32  1  0
  3 33  1  0
  6 34  1  0
  7 35  1  0
  9 36  1  0
 12 37  1  0
 17 38  1  0
 17 39  1  0
 19 40  1  0
 19 41  1  0
 20 42  1  0
 20 43  1  0
 21 44  1  0
 27 45  1  0
 28 46  1  0
M  CHG  3  12  -1  24  -1  25  -1
M  END
>  <UniqueID>  (13) 
13

>  <SMILES>  (13) 
Cn1cc(-c2ccc3cc(C([NH-])=O)n(C(=O)CSCCNP(=O)([O-])[O-])c3c2)cn1

>  <Energy>  (13) 
106.58924807374173

>  <Genealogy>  (13) 
Cn1cc(-c2ccc3cc(C([NH-])=O)n(C(=O)CSCCNP(=O)([O-])[O-])c3c2)cn1 (protonated)
Cn1cc(-c2ccc3cc(C([NH-])=O)n(C(=O)CSCCNP(=O)([O-])[O-])c3c2)cn1 (3D coordinates assigned)
Cn1cc(-c2ccc3cc(C([NH-])=O)n(C(=O)CSCCNP(=O)([O-])[O-])c3c2)cn1 (optimized conformer: 106.58924807374173 kcal/mol)

>  <smiles>  (13) 
Cn1cc(-c2ccc3cc(C(N)=O)n(C(=O)CSCCNP(=O)(O)O)c3c2)cn1

>  <score_type>  (13) 
oracle

>  <origin>  (13) 
adg

>  <m_score__min__energy>  (13) 
-8.5199999999999996

>  <m_primary>  (13) 
energy

$$$$
13:0
     RDKit          3D

 41 42  0  0  0  0  0  0  0  0999 V2000
  149.0070  157.3860  131.8740 N   0  0  0  0  0  0  0  0  0  0  0  0
  148.6550  158.5410  132.6390 C   0  0  0  0  0  0  0  0  0  0  0  0
  149.5650  159.3170  133.0310 O   0  0  0  0  0  0  0  0  0  0  0  0
  147.2380  158.8460  132.9370 C   0  0  0  0  0  0  0  0  0  0  0  0
  146.7510  160.1340  133.1570 C   0  0  0  0  0  0  0  0  0  0  0  0
  145.4280  159.9700  133.4960 C   0  0  0  0  0  0  0  0  0  0  0  0
  144.4630  160.9200  133.8160 C   0  0  0  0  0  0  0  0  0  0  0  0
  143.1650  160.4680  134.1070 C   0  0  0  0  0  0  0  0  0  0  0  0
  142.8550  159.0870  134.0630 C   0  0  0  0  0  0  0  0  0  0  0  0
  141.4610  158.6170  134.3930 C   0  0  0  0  0  0  0  0  0  0  0  0
  140.7910  157.9070  133.1990 C   0  0  1  0  0  0  0  0  0  0  0  0
  141.7500  157.6150  132.2140 O   0  0  0  0  0  0  0  0  0  0  0  0
  140.0510  156.6230  133.6240 C   0  0  0  0  0  0  0  0  0  0  0  0
  140.3120  155.5850  132.7190 O   0  0  0  0  0  0  0  0  0  0  0  0
  143.8620  158.1500  133.7390 C   0  0  0  0  0  0  0  0  0  0  0  0
  145.1510  158.6270  133.4720 C   0  0  0  0  0  0  0  0  0  0  0  0
  146.2540  157.9230  133.1310 N   0  0  0  0  0  0  0  0  0  0  0  0
  146.3400  156.5010  132.9360 C   0  0  0  0  0  0  0  0  0  0  0  0
  147.3470  155.8680  133.3580 O   0  0  0  0  0  0  0  0  0  0  0  0
  145.2920  155.8230  132.3040 O   0  0  0  0  0  0  0  0  0  0  0  0
  145.0320  154.4300  132.4750 C   0  0  0  0  0  0  0  0  0  0  0  0
  143.6130  154.2000  132.9990 C   0  0  0  0  0  0  0  0  0  0  0  0
  142.8760  155.3920  132.9930 O   0  0  0  0  0  0  0  0  0  0  0  0
  150.0060  157.2000  131.6370 H   0  0  0  0  0  0  0  0  0  0  0  0
  148.2860  156.6920  131.5760 H   0  0  0  0  0  0  0  0  0  0  0  0
  147.3066  161.0799  133.0766 H   0  0  0  0  0  0  0  0  0  0  0  0
  144.7088  161.9919  133.8404 H   0  0  0  0  0  0  0  0  0  0  0  0
  142.3820  161.1939  134.3716 H   0  0  0  0  0  0  0  0  0  0  0  0
  141.5139  157.9156  135.2387 H   0  0  0  0  0  0  0  0  0  0  0  0
  140.8561  159.5005  134.6450 H   0  0  0  0  0  0  0  0  0  0  0  0
  140.0374  158.5937  132.7860 H   0  0  0  0  0  0  0  0  0  0  0  0
  141.5850  156.6860  131.9010 H   0  0  0  0  0  0  0  0  0  0  0  0
  140.3912  156.3238  134.6263 H   0  0  0  0  0  0  0  0  0  0  0  0
  138.9693  156.8223  133.6352 H   0  0  0  0  0  0  0  0  0  0  0  0
  141.2970  155.5540  132.5980 H   0  0  0  0  0  0  0  0  0  0  0  0
  143.6389  157.0736  133.6976 H   0  0  0  0  0  0  0  0  0  0  0  0
  145.1453  153.9209  131.5065 H   0  0  0  0  0  0  0  0  0  0  0  0
  145.7468  154.0262  133.2071 H   0  0  0  0  0  0  0  0  0  0  0  0
  143.1083  153.4618  132.3585 H   0  0  0  0  0  0  0  0  0  0  0  0
  143.6768  153.8327  134.0339 H   0  0  0  0  0  0  0  0  0  0  0  0
  143.0960  155.8580  132.1450 H   0  0  0  0  0  0  0  0  0  0  0  0
  1  2  1  0
  2  3  2  0
  2  4  1  0
  4  5  2  0
  5  6  1  0
  6  7  2  0
  7  8  1  0
  8  9  2  0
  9 10  1  0
 10 11  1  0
 11 12  1  0
 11 13  1  0
 13 14  1  0
  9 15  1  0
 15 16  2  0
 16 17  1  0
 17 18  1  0
 18 19  2  0
 18 20  1  0
 20 21  1  0
 21 22  1  0
 22 23  1  0
 17  4  1  0
 16  6  1  0
  1 24  1  0
  1 25  1  0
  5 26  1  0
  7 27  1  0
  8 28  1  0
 10 29  1  0
 10 30  1  0
 11 31  1  6
 12 32  1  0
 13 33  1  0
 13 34  1  0
 14 35  1  0
 15 36  1  0
 21 37  1  0
 21 38  1  0
 22 39  1  0
 22 40  1  0
 23 41  1  0
M  END
>  <UniqueID>  (14) 
14

>  <SMILES>  (14) 
NC(=O)c1cc2ccc(C[C@@H](O)CO)cc2n1C(=O)OCCO

>  <Energy>  (14) 
73.03867376484693

>  <Genealogy>  (14) 
NC(=O)c1cc2ccc(C[C@@H](O)CO)cc2n1C(=O)OCCO (3D coordinates assigned)
NC(=O)c1cc2ccc(C[C@@H](O)CO)cc2n1C(=O)OCCO (optimized conformer: 73.03867376484693 kcal/mol)

>  <smiles>  (14) 
NC(=O)c1cc2ccc(C[C@@H](O)CO)cc2n1C(=O)OCCO

>  <score_type>  (14) 
oracle

>  <origin>  (14) 
adg

>  <m_score__min__energy>  (14) 
-5.8099999999999996

>  <m_primary>  (14) 
energy

$$$$
14:0
     RDKit          3D

 37 38  0  0  0  0  0  0  0  0999 V2000
  147.0780  152.6400  132.6110 C   0  0  0  0  0  0  0  0  0  0  0  0
  148.4260  152.8690  133.1640 N   0  0  1  0  0  0  0  0  0  0  0  0
  149.4450  151.9390  132.6210 C   0  0  0  0  0  0  0  0  0  0  0  0
  149.6990  150.6900  133.4830 C   0  0  0  0  0  0  0  0  0  0  0  0
  149.6440  151.0460  134.8370 O   0  0  0  0  0  0  0  0  0  0  0  0
  148.8360  154.2520  133.0250 C   0  0  0  0  0  0  0  0  0  0  0  0
  149.8750  154.5510  132.3730 O   0  0  0  0  0  0  0  0  0  0  0  0
  148.0850  155.2970  133.6630 N   0  0  0  0  0  0  0  0  0  0  0  0
  147.3180  155.2100  134.7880 C   0  0  0  0  0  0  0  0  0  0  0  0
  147.0310  153.9800  135.5590 C   0  0  0  0  0  0  0  0  0  0  0  0
  148.0530  153.0270  135.8360 N   0  0  0  0  0  0  0  0  0  0  0  0
  145.8590  153.7580  135.9650 O   0  0  0  0  0  0  0  0  0  0  0  0
  146.7900  156.4590  135.1150 C   0  0  0  0  0  0  0  0  0  0  0  0
  147.2680  157.3200  134.1540 C   0  0  0  0  0  0  0  0  0  0  0  0
  147.0670  158.6880  133.9990 C   0  0  0  0  0  0  0  0  0  0  0  0
  147.7100  159.3310  132.9280 C   0  0  0  0  0  0  0  0  0  0  0  0
  148.5610  158.6070  132.0520 C   0  0  0  0  0  0  0  0  0  0  0  0
  149.2180  159.3010  130.8860 C   0  0  0  0  0  0  0  0  0  0  0  0
  150.5810  159.3600  131.1020 F   0  0  0  0  0  0  0  0  0  0  0  0
  148.9770  158.6130  129.7090 F   0  0  0  0  0  0  0  0  0  0  0  0
  148.7260  160.5870  130.7430 F   0  0  0  0  0  0  0  0  0  0  0  0
  148.7210  157.2130  132.2330 C   0  0  0  0  0  0  0  0  0  0  0  0
  148.0500  156.5960  133.2940 C   0  0  0  0  0  0  0  0  0  0  0  0
  146.3595  152.5179  133.4349 H   0  0  0  0  0  0  0  0  0  0  0  0
  146.7841  153.5011  131.9928 H   0  0  0  0  0  0  0  0  0  0  0  0
  147.0850  151.7302  131.9928 H   0  0  0  0  0  0  0  0  0  0  0  0
  148.3630  152.6590  134.1880 H   0  0  0  0  0  0  0  0  0  0  0  0
  149.1111  151.6072  131.6268 H   0  0  0  0  0  0  0  0  0  0  0  0
  150.3927  152.4968  132.5950 H   0  0  0  0  0  0  0  0  0  0  0  0
  148.9296  149.9332  133.2700 H   0  0  0  0  0  0  0  0  0  0  0  0
  150.6908  150.2753  133.2498 H   0  0  0  0  0  0  0  0  0  0  0  0
  148.6800  151.1140  135.0660 H   0  0  0  0  0  0  0  0  0  0  0  0
  148.9410  153.0160  135.2870 H   0  0  0  0  0  0  0  0  0  0  0  0
  146.1314  156.7037  135.9614 H   0  0  0  0  0  0  0  0  0  0  0  0
  146.4244  159.2489  134.6936 H   0  0  0  0  0  0  0  0  0  0  0  0
  147.5523  160.4076  132.7663 H   0  0  0  0  0  0  0  0  0  0  0  0
  149.3588  156.6274  131.5545 H   0  0  0  0  0  0  0  0  0  0  0  0
  1  2  1  0
  2  3  1  0
  3  4  1  0
  4  5  1  0
  2  6  1  0
  6  7  2  0
  6  8  1  0
  8  9  1  0
  9 10  1  0
 10 11  1  0
 10 12  2  0
  9 13  2  0
 13 14  1  0
 14 15  2  0
 15 16  1  0
 16 17  2  0
 17 18  1  0
 18 19  1  0
 18 20  1  0
 18 21  1  0
 17 22  1  0
 22 23  2  0
 23  8  1  0
 23 14  1  0
  1 24  1  0
  1 25  1  0
  1 26  1  0
  2 27  1  1
  3 28  1  0
  3 29  1  0
  4 30  1  0
  4 31  1  0
  5 32  1  0
 11 33  1  0
 13 34  1  0
 15 35  1  0
 16 36  1  0
 22 37  1  0
M  CHG  2   2   1  11  -1
M  END
>  <UniqueID>  (15) 
15

>  <SMILES>  (15) 
C[N@@H+](CCO)C(=O)n1c(C([NH-])=O)cc2ccc(C(F)(F)F)cc21

>  <Energy>  (15) 
80.1862058121821

>  <Genealogy>  (15) 
C[NH+](CCO)C(=O)n1c(C([NH-])=O)cc2ccc(C(F)(F)F)cc21 (protonated)
C[N@@H+](CCO)C(=O)n1c(C([NH-])=O)cc2ccc(C(F)(F)F)cc21 (chirality)
C[N@@H+](CCO)C(=O)n1c(C([NH-])=O)cc2ccc(C(F)(F)F)cc21 (3D coordinates assigned)
C[N@@H+](CCO)C(=O)n1c(C([NH-])=O)cc2ccc(C(F)(F)F)cc21 (optimized conformer: 80.1862058121821 kcal/mol)

>  <smiles>  (15) 
CN(CCO)C(=O)n1c(C(N)=O)cc2ccc(C(F)(F)F)cc21

>  <score_type>  (15) 
oracle

>  <origin>  (15) 
adg

>  <m_score__min__energy>  (15) 
-5.2999999999999998

>  <m_primary>  (15) 
energy

$$$$
15:0
     RDKit          3D

 45 46  0  0  0  0  0  0  0  0999 V2000
  137.6530  160.0350  130.9070 C   0  0  0  0  0  0  0  0  0  0  0  0
  138.8080  159.6350  131.6280 O   0  0  0  0  0  0  0  0  0  0  0  0
  138.9260  158.2260  131.6180 C   0  0  0  0  0  0  0  0  0  0  0  0
  139.4500  157.6980  132.9320 C   0  0  0  0  0  0  0  0  0  0  0  0
  139.4510  156.4900  133.1280 O   0  0  0  0  0  0  0  0  0  0  0  0
  139.9070  158.6250  134.0290 C   0  0  0  0  0  0  0  0  0  0  0  0
  141.3580  158.9820  133.8440 C   0  0  0  0  0  0  0  0  0  0  0  0
  141.7690  160.3370  133.9310 C   0  0  0  0  0  0  0  0  0  0  0  0
  143.1210  160.6860  133.7720 C   0  0  0  0  0  0  0  0  0  0  0  0
  144.0370  159.6620  133.5450 C   0  0  0  0  0  0  0  0  0  0  0  0
  145.3970  159.7210  133.3290 C   0  0  0  0  0  0  0  0  0  0  0  0
  145.7990  158.3990  133.1540 C   0  0  0  0  0  0  0  0  0  0  0  0
  147.2080  157.9940  132.9650 C   0  0  0  0  0  0  0  0  0  0  0  0
  147.5660  156.9800  132.0250 N   0  0  0  0  0  0  0  0  0  0  0  0
  148.1040  158.5120  133.6860 O   0  0  0  0  0  0  0  0  0  0  0  0
  144.7300  157.5550  133.2390 N   0  0  0  0  0  0  0  0  0  0  0  0
  144.7140  156.1380  133.0030 C   0  0  0  0  0  0  0  0  0  0  0  0
  143.6450  155.5760  132.6380 O   0  0  0  0  0  0  0  0  0  0  0  0
  145.8820  155.3900  133.1830 O   0  0  0  0  0  0  0  0  0  0  0  0
  146.2010  154.7060  134.3940 C   0  0  0  0  0  0  0  0  0  0  0  0
  147.7180  154.5390  134.5580 C   0  0  0  0  0  0  0  0  0  0  0  0
  148.3630  153.8360  133.3600 C   0  0  0  0  0  0  0  0  0  0  0  0
  148.2570  154.6380  132.2130 O   0  0  0  0  0  0  0  0  0  0  0  0
  143.6590  158.3440  133.4850 C   0  0  0  0  0  0  0  0  0  0  0  0
  142.3160  157.9690  133.6210 C   0  0  0  0  0  0  0  0  0  0  0  0
  136.8567  160.3108  131.6140 H   0  0  0  0  0  0  0  0  0  0  0  0
  137.8974  160.9008  130.2741 H   0  0  0  0  0  0  0  0  0  0  0  0
  137.3096  159.2035  130.2741 H   0  0  0  0  0  0  0  0  0  0  0  0
  137.9355  157.7871  131.4274 H   0  0  0  0  0  0  0  0  0  0  0  0
  139.6400  157.9482  130.8287 H   0  0  0  0  0  0  0  0  0  0  0  0
  139.3017  159.5431  134.0033 H   0  0  0  0  0  0  0  0  0  0  0  0
  139.7848  158.1188  134.9979 H   0  0  0  0  0  0  0  0  0  0  0  0
  141.0227  161.1216  134.1247 H   0  0  0  0  0  0  0  0  0  0  0  0
  143.4457  161.7357  133.8252 H   0  0  0  0  0  0  0  0  0  0  0  0
  146.0299  160.6203  133.3008 H   0  0  0  0  0  0  0  0  0  0  0  0
  146.8390  156.4120  131.5400 H   0  0  0  0  0  0  0  0  0  0  0  0
  148.5710  156.7570  131.8540 H   0  0  0  0  0  0  0  0  0  0  0  0
  145.8101  155.2831  135.2450 H   0  0  0  0  0  0  0  0  0  0  0  0
  145.7438  153.7062  134.3585 H   0  0  0  0  0  0  0  0  0  0  0  0
  148.1725  155.5345  134.6697 H   0  0  0  0  0  0  0  0  0  0  0  0
  147.8916  153.9135  135.4461 H   0  0  0  0  0  0  0  0  0  0  0  0
  149.4253  153.6501  133.5765 H   0  0  0  0  0  0  0  0  0  0  0  0
  147.8440  152.8828  133.1809 H   0  0  0  0  0  0  0  0  0  0  0  0
  147.3410  154.4930  131.8560 H   0  0  0  0  0  0  0  0  0  0  0  0
  142.0157  156.9128  133.5558 H   0  0  0  0  0  0  0  0  0  0  0  0
  1  2  1  0
  2  3  1  0
  3  4  1  0
  4  5  2  0
  4  6  1  0
  6  7  1  0
  7  8  2  0
  8  9  1  0
  9 10  2  0
 10 11  1  0
 11 12  2  0
 12 13  1  0
 13 14  1  0
 13 15  2  0
 12 16  1  0
 16 17  1  0
 17 18  2  0
 17 19  1  0
 19 20  1  0
 20 21  1  0
 21 22  1  0
 22 23  1  0
 16 24  1  0
 24 25  2  0
 25  7  1  0
 24 10  1  0
  1 26  1  0
  1 27  1  0
  1 28  1  0
  3 29  1  0
  3 30  1  0
  6 31  1  0
  6 32  1  0
  8 33  1  0
  9 34  1  0
 11 35  1  0
 14 36  1  0
 14 37  1  0
 20 38  1  0
 20 39  1  0
 21 40  1  0
 21 41  1  0
 22 42  1  0
 22 43  1  0
 23 44  1  0
 25 45  1  0
M  END
>  <UniqueID>  (16) 
16

>  <SMILES>  (16) 
COCC(=O)Cc1ccc2cc(C(N)=O)n(C(=O)OCCCO)c2c1

>  <Energy>  (16) 
77.8870142212727

>  <Genealogy>  (16) 
COCC(=O)Cc1ccc2cc(C(N)=O)n(C(=O)OCCCO)c2c1 (3D coordinates assigned)
COCC(=O)Cc1ccc2cc(C(N)=O)n(C(=O)OCCCO)c2c1 (optimized conformer: 77.8870142212727 kcal/mol)

>  <smiles>  (16) 
COCC(=O)Cc1ccc2cc(C(N)=O)n(C(=O)OCCCO)c2c1

>  <score_type>  (16) 
oracle

>  <origin>  (16) 
adg

>  <m_score__min__energy>  (16) 
-6.6900000000000004

>  <m_primary>  (16) 
energy

$$$$
16:0
     RDKit          3D

 35 37  0  0  0  0  0  0  0  0999 V2000
  146.0800  154.7610  132.6240 C   0  0  0  0  0  0  0  0  0  0  0  0
  147.0720  155.6420  132.5070 C   0  0  0  0  0  0  0  0  0  0  0  0
  147.2480  156.7680  133.4450 C   0  0  0  0  0  0  0  0  0  0  0  0
  148.0970  156.6930  134.3760 O   0  0  0  0  0  0  0  0  0  0  0  0
  146.4810  157.9700  133.2820 N   0  0  0  0  0  0  0  0  0  0  0  0
  146.9390  159.1970  132.9060 C   0  0  0  0  0  0  0  0  0  0  0  0
  148.3120  159.5040  132.4510 C   0  0  0  0  0  0  0  0  0  0  0  0
  149.4550  158.9740  133.1240 N   0  0  0  0  0  0  0  0  0  0  0  0
  148.4770  160.2110  131.4220 O   0  0  0  0  0  0  0  0  0  0  0  0
  145.9250  160.1470  132.9850 C   0  0  0  0  0  0  0  0  0  0  0  0
  144.8160  159.4580  133.4220 C   0  0  0  0  0  0  0  0  0  0  0  0
  143.5280  159.9130  133.6910 C   0  0  0  0  0  0  0  0  0  0  0  0
  142.5900  158.9850  134.1740 C   0  0  0  0  0  0  0  0  0  0  0  0
  142.9610  157.6370  134.4030 C   0  0  0  0  0  0  0  0  0  0  0  0
  141.9430  156.6460  134.8920 C   0  0  0  0  0  0  0  0  0  0  0  0
  140.6070  157.0730  134.4930 N   0  0  0  0  0  0  0  0  0  0  0  0
  139.9930  156.8140  133.3270 C   0  0  0  0  0  0  0  0  0  0  0  0
  138.7900  157.4820  133.3650 C   0  0  0  0  0  0  0  0  0  0  0  0
  138.7130  158.1350  134.5430 N   0  0  0  0  0  0  0  0  0  0  0  0
  139.8320  157.8750  135.2060 N   0  0  0  0  0  0  0  0  0  0  0  0
  144.2750  157.2110  134.1110 C   0  0  0  0  0  0  0  0  0  0  0  0
  145.1790  158.1480  133.6020 C   0  0  0  0  0  0  0  0  0  0  0  0
  145.9880  153.9371  131.9010 H   0  0  0  0  0  0  0  0  0  0  0  0
  145.3527  154.8573  133.4436 H   0  0  0  0  0  0  0  0  0  0  0  0
  147.7876  155.5260  131.6796 H   0  0  0  0  0  0  0  0  0  0  0  0
  149.3580  158.2360  133.8560 H   0  0  0  0  0  0  0  0  0  0  0  0
  150.4150  159.2470  132.8180 H   0  0  0  0  0  0  0  0  0  0  0  0
  145.9947  161.2191  132.7488 H   0  0  0  0  0  0  0  0  0  0  0  0
  143.2533  160.9660  133.5304 H   0  0  0  0  0  0  0  0  0  0  0  0
  141.5581  159.3081  134.3762 H   0  0  0  0  0  0  0  0  0  0  0  0
  142.1561  155.6585  134.4566 H   0  0  0  0  0  0  0  0  0  0  0  0
  141.9926  156.5857  135.9892 H   0  0  0  0  0  0  0  0  0  0  0  0
  140.3755  156.1915  132.5047 H   0  0  0  0  0  0  0  0  0  0  0  0
  138.0257  157.4832  132.5739 H   0  0  0  0  0  0  0  0  0  0  0  0
  144.5799  156.1677  134.2798 H   0  0  0  0  0  0  0  0  0  0  0  0
  1  2  2  0
  2  3  1  0
  3  4  2  0
  3  5  1  0
  5  6  1  0
  6  7  1  0
  7  8  1  0
  7  9  2  0
  6 10  2  0
 10 11  1  0
 11 12  2  0
 12 13  1  0
 13 14  2  0
 14 15  1  0
 15 16  1  0
 16 17  1  0
 17 18  2  0
 18 19  1  0
 19 20  2  0
 14 21  1  0
 21 22  2  0
 22  5  1  0
 22 11  1  0
 20 16  1  0
  1 23  1  0
  1 24  1  0
  2 25  1  0
  8 26  1  0
  8 27  1  0
 10 28  1  0
 12 29  1  0
 13 30  1  0
 15 31  1  0
 15 32  1  0
 17 33  1  0
 18 34  1  0
 21 35  1  0
M  END
>  <UniqueID>  (17) 
17

>  <SMILES>  (17) 
C=CC(=O)n1c(C(N)=O)cc2ccc(Cn3ccnn3)cc21

>  <Energy>  (17) 
108.89261790422567

>  <Genealogy>  (17) 
C=CC(=O)n1c(C(N)=O)cc2ccc(Cn3ccnn3)cc21 (3D coordinates assigned)
C=CC(=O)n1c(C(N)=O)cc2ccc(Cn3ccnn3)cc21 (optimized conformer: 108.89261790422567 kcal/mol)

>  <smiles>  (17) 
C=CC(=O)n1c(C(N)=O)cc2ccc(Cn3ccnn3)cc21

>  <score_type>  (17) 
oracle

>  <origin>  (17) 
adg

>  <m_score__min__energy>  (17) 
-7.5800000000000001

>  <m_primary>  (17) 
energy

$$$$
17:0
     RDKit          3D

 46 48  0  0  0  0  0  0  0  0999 V2000
  146.3730  161.4320  133.9650 N   0  0  0  0  0  0  0  0  0  0  0  0
  144.9550  161.5720  133.9910 C   0  0  0  0  0  0  0  0  0  0  0  0
  144.4490  162.7220  134.0880 O   0  0  0  0  0  0  0  0  0  0  0  0
  144.0940  160.3770  133.8740 C   0  0  0  0  0  0  0  0  0  0  0  0
  142.7020  160.4120  133.9550 C   0  0  0  0  0  0  0  0  0  0  0  0
  142.3000  159.0970  133.8850 C   0  0  0  0  0  0  0  0  0  0  0  0
  141.0220  158.5460  133.9160 C   0  0  0  0  0  0  0  0  0  0  0  0
  140.9050  157.1490  133.8120 C   0  0  0  0  0  0  0  0  0  0  0  0
  142.0580  156.3310  133.6810 C   0  0  0  0  0  0  0  0  0  0  0  0
  141.9230  154.8590  133.5570 C   0  0  0  0  0  0  0  0  0  0  0  0
  142.9940  154.0240  133.9180 C   0  0  0  0  0  0  0  0  0  0  0  0
  142.8850  152.6360  133.8030 C   0  0  0  0  0  0  0  0  0  0  0  0
  141.6990  152.0520  133.3290 C   0  0  0  0  0  0  0  0  0  0  0  0
  141.5870  150.5820  133.2100 C   0  0  0  0  0  0  0  0  0  0  0  0
  142.3390  149.9430  132.4270 O   0  0  0  0  0  0  0  0  0  0  0  0
  140.6490  149.8840  133.9620 O   0  0  0  0  0  0  0  0  0  0  0  0
  140.6230  152.8860  132.9740 C   0  0  0  0  0  0  0  0  0  0  0  0
  140.7320  154.2750  133.0880 C   0  0  0  0  0  0  0  0  0  0  0  0
  139.6580  155.0440  132.7730 F   0  0  0  0  0  0  0  0  0  0  0  0
  143.3380  156.9310  133.6490 C   0  0  0  0  0  0  0  0  0  0  0  0
  143.4220  158.3220  133.7640 C   0  0  0  0  0  0  0  0  0  0  0  0
  144.5300  159.0920  133.7480 N   0  0  0  0  0  0  0  0  0  0  0  0
  145.8790  158.6250  133.5960 C   0  0  0  0  0  0  0  0  0  0  0  0
  146.2830  157.6530  134.2890 O   0  0  0  0  0  0  0  0  0  0  0  0
  146.7820  159.2350  132.6100 C   0  0  0  0  0  0  0  0  0  0  0  0
  146.3120  159.7520  131.5600 O   0  0  0  0  0  0  0  0  0  0  0  0
  148.1610  159.2240  132.8410 O   0  0  0  0  0  0  0  0  0  0  0  0
  149.0890  158.6490  131.9260 C   0  0  0  0  0  0  0  0  0  0  0  0
  149.8240  159.7510  131.1630 C   0  0  0  0  0  0  0  0  0  0  0  0
  148.8580  160.8200  130.6390 C   0  0  0  0  0  0  0  0  0  0  0  0
  148.4750  161.6770  131.6810 O   0  0  0  0  0  0  0  0  0  0  0  0
  146.8760  161.2190  133.0740 H   0  0  0  0  0  0  0  0  0  0  0  0
  142.0617  161.3010  134.0538 H   0  0  0  0  0  0  0  0  0  0  0  0
  140.1316  159.1837  134.0187 H   0  0  0  0  0  0  0  0  0  0  0  0
  139.9083  156.6841  133.8323 H   0  0  0  0  0  0  0  0  0  0  0  0
  143.9274  154.4676  134.2948 H   0  0  0  0  0  0  0  0  0  0  0  0
  143.7339  151.9961  134.0856 H   0  0  0  0  0  0  0  0  0  0  0  0
  139.6877  152.4412  132.6035 H   0  0  0  0  0  0  0  0  0  0  0  0
  144.2449  156.3188  133.5365 H   0  0  0  0  0  0  0  0  0  0  0  0
  149.8189  158.0416  132.4812 H   0  0  0  0  0  0  0  0  0  0  0  0
  148.5442  158.0163  131.2098 H   0  0  0  0  0  0  0  0  0  0  0  0
  150.5510  160.2273  131.8373 H   0  0  0  0  0  0  0  0  0  0  0  0
  150.3283  159.2922  130.2998 H   0  0  0  0  0  0  0  0  0  0  0  0
  149.3554  161.4049  129.8513 H   0  0  0  0  0  0  0  0  0  0  0  0
  147.9631  160.3272  130.2313 H   0  0  0  0  0  0  0  0  0  0  0  0
  147.7190  161.2350  132.1480 H   0  0  0  0  0  0  0  0  0  0  0  0
  1  2  1  0
  2  3  2  0
  2  4  1  0
  4  5  2  0
  5  6  1  0
  6  7  2  0
  7  8  1  0
  8  9  2  0
  9 10  1  0
 10 11  2  0
 11 12  1  0
 12 13  2  0
 13 14  1  0
 14 15  2  0
 14 16  1  0
 13 17  1  0
 17 18  2  0
 18 19  1  0
  9 20  1  0
 20 21  2  0
 21 22  1  0
 22 23  1  0
 23 24  2  0
 23 25  1  0
 25 26  2  0
 25 27  1  0
 27 28  1  0
 28 29  1  0
 29 30  1  0
 30 31  1  0
 22  4  1  0
 21  6  1  0
 18 10  1  0
  1 32  1  0
  5 33  1  0
  7 34  1  0
  8 35  1  0
 11 36  1  0
 12 37  1  0
 17 38  1  0
 20 39  1  0
 28 40  1  0
 28 41  1  0
 29 42  1  0
 29 43  1  0
 30 44  1  0
 30 45  1  0
 31 46  1  0
M  CHG  2   1  -1  16  -1
M  END
>  <UniqueID>  (18) 
18

>  <SMILES>  (18) 
[NH-]C(=O)c1cc2ccc(-c3ccc(C(=O)[O-])cc3F)cc2n1C(=O)C(=O)OCCCO

>  <Energy>  (18) 
87.83830518480838

>  <Genealogy>  (18) 
[NH-]C(=O)c1cc2ccc(-c3ccc(C(=O)[O-])cc3F)cc2n1C(=O)C(=O)OCCCO (protonated)
[NH-]C(=O)c1cc2ccc(-c3ccc(C(=O)[O-])cc3F)cc2n1C(=O)C(=O)OCCCO (3D coordinates assigned)
[NH-]C(=O)c1cc2ccc(-c3ccc(C(=O)[O-])cc3F)cc2n1C(=O)C(=O)OCCCO (optimized conformer: 87.83830518480838 kcal/mol)

>  <smiles>  (18) 
NC(=O)c1cc2ccc(-c3ccc(C(=O)O)cc3F)cc2n1C(=O)C(=O)OCCCO

>  <score_type>  (18) 
oracle

>  <origin>  (18) 
adg

>  <m_score__min__energy>  (18) 
-7.6500000000000004

>  <m_primary>  (18) 
energy

$$$$
18:0
     RDKit          3D

 42 44  0  0  0  0  0  0  0  0999 V2000
  142.9580  160.7170  133.3790 N   0  0  0  0  0  0  0  0  0  0  0  0
  144.3260  160.8870  133.7410 C   0  0  0  0  0  0  0  0  0  0  0  0
  144.7170  162.0070  134.1660 O   0  0  0  0  0  0  0  0  0  0  0  0
  145.3000  159.7890  133.5710 C   0  0  0  0  0  0  0  0  0  0  0  0
  146.6630  159.9970  133.3770 C   0  0  0  0  0  0  0  0  0  0  0  0
  147.1980  158.7440  133.1770 C   0  0  0  0  0  0  0  0  0  0  0  0
  148.5150  158.3590  132.9510 C   0  0  0  0  0  0  0  0  0  0  0  0
  148.7870  156.9890  132.8130 C   0  0  0  0  0  0  0  0  0  0  0  0
  147.7480  156.0260  132.9110 C   0  0  0  0  0  0  0  0  0  0  0  0
  148.0690  154.5860  132.7740 C   0  0  0  0  0  0  0  0  0  0  0  0
  149.3190  154.0800  132.8340 N   0  0  0  0  0  0  0  0  0  0  0  0
  149.1520  152.7780  132.6640 N   0  0  0  0  0  0  0  0  0  0  0  0
  150.2420  151.8120  132.5960 C   0  0  0  0  0  0  0  0  0  0  0  0
  150.0760  150.7430  133.6750 C   0  0  0  0  0  0  0  0  0  0  0  0
  148.8750  150.0410  133.4990 O   0  0  0  0  0  0  0  0  0  0  0  0
  147.8770  152.4770  132.4900 N   0  0  0  0  0  0  0  0  0  0  0  0
  147.1770  153.5950  132.5620 N   0  0  0  0  0  0  0  0  0  0  0  0
  146.4200  156.4600  133.1450 C   0  0  0  0  0  0  0  0  0  0  0  0
  146.1770  157.8340  133.2580 C   0  0  0  0  0  0  0  0  0  0  0  0
  145.0040  158.4600  133.5020 N   0  0  0  0  0  0  0  0  0  0  0  0
  143.7360  157.8300  133.7430 C   0  0  0  0  0  0  0  0  0  0  0  0
  143.5370  157.2120  134.8230 O   0  0  0  0  0  0  0  0  0  0  0  0
  142.7230  157.9230  132.7810 O   0  0  0  0  0  0  0  0  0  0  0  0
  141.3930  157.4540  132.9940 C   0  0  0  0  0  0  0  0  0  0  0  0
  140.3950  158.6100  132.9070 C   0  0  0  0  0  0  0  0  0  0  0  0
  140.7560  159.4860  131.8740 O   0  0  0  0  0  0  0  0  0  0  0  0
  142.6860  160.0820  132.5960 H   0  0  0  0  0  0  0  0  0  0  0  0
  147.1985  160.9578  133.3824 H   0  0  0  0  0  0  0  0  0  0  0  0
  149.3196  159.1059  132.8824 H   0  0  0  0  0  0  0  0  0  0  0  0
  149.8189  156.6568  132.6264 H   0  0  0  0  0  0  0  0  0  0  0  0
  150.2389  151.3315  131.6065 H   0  0  0  0  0  0  0  0  0  0  0  0
  151.1945  152.3376  132.7587 H   0  0  0  0  0  0  0  0  0  0  0  0
  150.9180  150.0376  133.6166 H   0  0  0  0  0  0  0  0  0  0  0  0
  150.0564  151.2347  134.6588 H   0  0  0  0  0  0  0  0  0  0  0  0
  148.1410  150.6850  133.6750 H   0  0  0  0  0  0  0  0  0  0  0  0
  146.1410  153.6530  132.4560 H   0  0  0  0  0  0  0  0  0  0  0  0
  145.5986  155.7340  133.2358 H   0  0  0  0  0  0  0  0  0  0  0  0
  141.1465  156.7049  132.2271 H   0  0  0  0  0  0  0  0  0  0  0  0
  141.3309  157.0061  133.9967 H   0  0  0  0  0  0  0  0  0  0  0  0
  139.3905  158.2083  132.7080 H   0  0  0  0  0  0  0  0  0  0  0  0
  140.3986  159.1591  133.8602 H   0  0  0  0  0  0  0  0  0  0  0  0
  141.7380  159.6160  131.9410 H   0  0  0  0  0  0  0  0  0  0  0  0
  1  2  1  0
  2  3  2  0
  2  4  1  0
  4  5  2  0
  5  6  1  0
  6  7  2  0
  7  8  1  0
  8  9  2  0
  9 10  1  0
 10 11  2  0
 11 12  1  0
 12 13  1  0
 13 14  1  0
 14 15  1  0
 12 16  1  0
 16 17  2  0
  9 18  1  0
 18 19  2  0
 19 20  1  0
 20 21  1  0
 21 22  2  0
 21 23  1  0
 23 24  1  0
 24 25  1  0
 25 26  1  0
 20  4  1  0
 19  6  1  0
 17 10  1  0
  1 27  1  0
  5 28  1  0
  7 29  1  0
  8 30  1  0
 13 31  1  0
 13 32  1  0
 14 33  1  0
 14 34  1  0
 15 35  1  0
 17 36  1  0
 18 37  1  0
 24 38  1  0
 24 39  1  0
 25 40  1  0
 25 41  1  0
 26 42  1  0
M  CHG  2   1  -1  17   1
M  END
>  <UniqueID>  (19) 
19

>  <SMILES>  (19) 
[NH-]C(=O)c1cc2ccc(-c3nn(CCO)n[nH+]3)cc2n1C(=O)OCCO

>  <Energy>  (19) 
117.01544854934399

>  <Genealogy>  (19) 
[NH-]C(=O)c1cc2ccc(-c3nn(CCO)n[nH+]3)cc2n1C(=O)OCCO (protonated)
[NH-]C(=O)c1cc2ccc(-c3nn(CCO)n[nH+]3)cc2n1C(=O)OCCO (3D coordinates assigned)
[NH-]C(=O)c1cc2ccc(-c3nn(CCO)n[nH+]3)cc2n1C(=O)OCCO (optimized conformer: 117.01544854934399 kcal/mol)

>  <smiles>  (19) 
NC(=O)c1cc2ccc(-c3nnn(CCO)n3)cc2n1C(=O)OCCO

>  <score_type>  (19) 
oracle

>  <origin>  (19) 
adg

>  <m_score__min__energy>  (19) 
-7.0499999999999998

>  <m_primary>  (19) 
energy

$$$$
19:0
     RDKit          3D

 35 37  0  0  0  0  0  0  0  0999 V2000
  149.5240  157.5020  132.2300 N   0  0  0  0  0  0  0  0  0  0  0  0
  148.9340  158.7670  132.5190 C   0  0  0  0  0  0  0  0  0  0  0  0
  149.6560  159.8000  132.5030 O   0  0  0  0  0  0  0  0  0  0  0  0
  147.5010  158.8810  132.8650 C   0  0  0  0  0  0  0  0  0  0  0  0
  146.8410  160.0970  133.0330 C   0  0  0  0  0  0  0  0  0  0  0  0
  145.5530  159.7680  133.3910 C   0  0  0  0  0  0  0  0  0  0  0  0
  144.4630  160.5860  133.6720 C   0  0  0  0  0  0  0  0  0  0  0  0
  143.2420  159.9700  133.9940 C   0  0  0  0  0  0  0  0  0  0  0  0
  143.1300  158.5570  134.0140 C   0  0  0  0  0  0  0  0  0  0  0  0
  141.8180  157.9090  134.3770 C   0  0  0  0  0  0  0  0  0  0  0  0
  140.6190  158.8140  134.0520 C   0  0  1  0  0  0  0  0  0  0  0  0
  140.6000  159.1670  132.2440 S   0  0  0  0  0  0  0  0  0  0  0  0
  139.0800  158.2470  132.0730 C   0  0  0  0  0  0  0  0  0  0  0  0
  138.5670  157.9910  130.9530 O   0  0  0  0  0  0  0  0  0  0  0  0
  138.4950  157.8080  133.2800 N   0  0  0  0  0  0  0  0  0  0  0  0
  139.3090  158.1540  134.3820 C   0  0  0  0  0  0  0  0  0  0  0  0
  138.9370  157.9410  135.5670 O   0  0  0  0  0  0  0  0  0  0  0  0
  144.2580  157.7580  133.7210 C   0  0  0  0  0  0  0  0  0  0  0  0
  145.4660  158.4010  133.4250 C   0  0  0  0  0  0  0  0  0  0  0  0
  146.6540  157.8430  133.1120 N   0  0  0  0  0  0  0  0  0  0  0  0
  146.9320  156.4380  132.9900 C   0  0  0  0  0  0  0  0  0  0  0  0
  146.9880  155.9120  131.8470 O   0  0  0  0  0  0  0  0  0  0  0  0
  147.1590  155.5850  134.2030 C   0  0  0  0  0  0  0  0  0  0  0  0
  145.9570  155.1130  134.7020 F   0  0  0  0  0  0  0  0  0  0  0  0
  147.9650  154.5130  133.8710 F   0  0  0  0  0  0  0  0  0  0  0  0
  147.7840  156.3350  135.1810 F   0  0  0  0  0  0  0  0  0  0  0  0
  148.9730  156.7450  131.7680 H   0  0  0  0  0  0  0  0  0  0  0  0
  147.2604  161.1060  132.9064 H   0  0  0  0  0  0  0  0  0  0  0  0
  144.5545  161.6818  133.6429 H   0  0  0  0  0  0  0  0  0  0  0  0
  142.3651  160.5897  134.2327 H   0  0  0  0  0  0  0  0  0  0  0  0
  141.7175  156.9702  133.8126 H   0  0  0  0  0  0  0  0  0  0  0  0
  141.8194  157.7235  135.4612 H   0  0  0  0  0  0  0  0  0  0  0  0
  140.7300  159.7281  134.6538 H   0  0  0  0  0  0  0  0  0  0  0  0
  137.5840  157.3040  133.3500 H   0  0  0  0  0  0  0  0  0  0  0  0
  144.1889  156.6602  133.7253 H   0  0  0  0  0  0  0  0  0  0  0  0
  1  2  1  0
  2  3  2  0
  2  4  1  0
  4  5  2  0
  5  6  1  0
  6  7  2  0
  7  8  1  0
  8  9  2  0
  9 10  1  0
 10 11  1  0
 11 12  1  0
 12 13  1  0
 13 14  2  0
 13 15  1  0
 15 16  1  0
 16 17  2  0
  9 18  1  0
 18 19  2  0
 19 20  1  0
 20 21  1  0
 21 22  2  0
 21 23  1  0
 23 24  1  0
 23 25  1  0
 23 26  1  0
 20  4  1  0
 19  6  1  0
 16 11  1  0
  1 27  1  0
  5 28  1  0
  7 29  1  0
  8 30  1  0
 10 31  1  0
 10 32  1  0
 11 33  1  1
 15 34  1  0
 18 35  1  0
M  CHG  1   1  -1
M  END
>  <UniqueID>  (20) 
20

>  <SMILES>  (20) 
[NH-]C(=O)c1cc2ccc(C[C@H]3SC(=O)NC3=O)cc2n1C(=O)C(F)(F)F

>  <Energy>  (20) 
82.57883127795598

>  <Genealogy>  (20) 
[NH-]C(=O)c1cc2ccc(CC3SC(=O)NC3=O)cc2n1C(=O)C(F)(F)F (protonated)
[NH-]C(=O)c1cc2ccc(C[C@H]3SC(=O)NC3=O)cc2n1C(=O)C(F)(F)F (chirality)
[NH-]C(=O)c1cc2ccc(C[C@H]3SC(=O)NC3=O)cc2n1C(=O)C(F)(F)F (3D coordinates assigned)
[NH-]C(=O)c1cc2ccc(C[C@H]3SC(=O)NC3=O)cc2n1C(=O)C(F)(F)F (nonaromatic ring conformer: 82.57883127795598 kcal/mol)

>  <smiles>  (20) 
NC(=O)c1cc2ccc(CC3SC(=O)NC3=O)cc2n1C(=O)C(F)(F)F

>  <score_type>  (20) 
oracle

>  <origin>  (20) 
adg

>  <m_score__min__energy>  (20) 
-7.5800000000000001

>  <m_primary>  (20) 
energy

$$$$
20:0
     RDKit          3D

 30 31  0  0  0  0  0  0  0  0999 V2000
  149.8050  157.5010  132.1510 N   0  0  0  0  0  0  0  0  0  0  0  0
  149.2270  158.7880  132.3610 C   0  0  0  0  0  0  0  0  0  0  0  0
  149.9280  159.8170  132.1800 O   0  0  0  0  0  0  0  0  0  0  0  0
  147.8270  158.9000  132.8180 C   0  0  0  0  0  0  0  0  0  0  0  0
  147.1170  160.0980  132.8470 C   0  0  0  0  0  0  0  0  0  0  0  0
  145.8450  159.7580  133.2500 C   0  0  0  0  0  0  0  0  0  0  0  0
  144.7280  160.5600  133.4680 C   0  0  0  0  0  0  0  0  0  0  0  0
  143.5470  159.9380  133.9090 C   0  0  0  0  0  0  0  0  0  0  0  0
  143.4970  158.5340  134.1120 C   0  0  0  0  0  0  0  0  0  0  0  0
  142.2420  157.8880  134.6410 C   0  0  0  0  0  0  0  0  0  0  0  0
  141.1520  158.3770  133.9450 F   0  0  0  0  0  0  0  0  0  0  0  0
  142.2980  156.5130  134.4850 F   0  0  0  0  0  0  0  0  0  0  0  0
  142.0800  158.1630  135.9880 F   0  0  0  0  0  0  0  0  0  0  0  0
  144.6610  157.7590  133.9020 C   0  0  0  0  0  0  0  0  0  0  0  0
  145.8180  158.4050  133.4520 C   0  0  0  0  0  0  0  0  0  0  0  0
  147.0280  157.8630  133.1970 N   0  0  0  0  0  0  0  0  0  0  0  0
  147.3810  156.4820  133.3630 C   0  0  0  0  0  0  0  0  0  0  0  0
  147.3760  155.7180  132.3590 O   0  0  0  0  0  0  0  0  0  0  0  0
  147.5710  155.9140  134.7420 C   0  0  0  0  0  0  0  0  0  0  0  0
  146.3830  154.5800  135.1090 P   0  0  0  0  0  0  0  0  0  0  0  0
  146.1440  153.7540  133.8660 O   0  0  0  0  0  0  0  0  0  0  0  0
  144.9200  155.2640  135.6110 O   0  0  0  0  0  0  0  0  0  0  0  0
  146.9830  153.5850  136.3370 O   0  0  0  0  0  0  0  0  0  0  0  0
  149.2280  156.7040  131.8020 H   0  0  0  0  0  0  0  0  0  0  0  0
  147.4926  161.1021  132.6004 H   0  0  0  0  0  0  0  0  0  0  0  0
  144.7684  161.6464  133.3004 H   0  0  0  0  0  0  0  0  0  0  0  0
  142.6507  160.5467  134.0991 H   0  0  0  0  0  0  0  0  0  0  0  0
  144.6571  156.6748  134.0878 H   0  0  0  0  0  0  0  0  0  0  0  0
  148.5914  155.5110  134.8214 H   0  0  0  0  0  0  0  0  0  0  0  0
  147.4024  156.7243  135.4665 H   0  0  0  0  0  0  0  0  0  0  0  0
  1  2  1  0
  2  3  2  0
  2  4  1  0
  4  5  2  0
  5  6  1  0
  6  7  2  0
  7  8  1  0
  8  9  2  0
  9 10  1  0
 10 11  1  0
 10 12  1  0
 10 13  1  0
  9 14  1  0
 14 15  2  0
 15 16  1  0
 16 17  1  0
 17 18  2  0
 17 19  1  0
 19 20  1  0
 20 21  2  0
 20 22  1  0
 20 23  1  0
 16  4  1  0
 15  6  1  0
  1 24  1  0
  5 25  1  0
  7 26  1  0
  8 27  1  0
 14 28  1  0
 19 29  1  0
 19 30  1  0
M  CHG  3   1  -1  22  -1  23  -1
M  END
>  <UniqueID>  (21) 
21

>  <SMILES>  (21) 
[NH-]C(=O)c1cc2ccc(C(F)(F)F)cc2n1C(=O)CP(=O)([O-])[O-]

>  <Energy>  (21) 
67.46471743775449

>  <Genealogy>  (21) 
[NH-]C(=O)c1cc2ccc(C(F)(F)F)cc2n1C(=O)CP(=O)([O-])[O-] (protonated)
[NH-]C(=O)c1cc2ccc(C(F)(F)F)cc2n1C(=O)CP(=O)([O-])[O-] (3D coordinates assigned)
[NH-]C(=O)c1cc2ccc(C(F)(F)F)cc2n1C(=O)CP(=O)([O-])[O-] (optimized conformer: 67.46471743775449 kcal/mol)

>  <smiles>  (21) 
NC(=O)c1cc2ccc(C(F)(F)F)cc2n1C(=O)CP(=O)(O)O

>  <score_type>  (21) 
oracle

>  <origin>  (21) 
adg

>  <m_score__min__energy>  (21) 
-5.54

>  <m_primary>  (21) 
energy

$$$$
21:0
     RDKit          3D

 54 56  0  0  0  0  0  0  0  0999 V2000
  149.5950  160.8820  130.1030 C   0  0  0  0  0  0  0  0  0  0  0  0
  149.0620  160.6280  131.3960 O   0  0  0  0  0  0  0  0  0  0  0  0
  149.0360  159.3500  131.9590 C   0  0  0  0  0  0  0  0  0  0  0  0
  150.0230  158.5720  131.8370 O   0  0  0  0  0  0  0  0  0  0  0  0
  147.8120  158.8890  132.6910 C   0  0  0  0  0  0  0  0  0  0  0  0
  147.0740  160.0610  133.3460 C   0  0  0  0  0  0  0  0  0  0  0  0
  145.5970  159.7910  133.4740 C   0  0  0  0  0  0  0  0  0  0  0  0
  144.7000  160.8560  133.7320 C   0  0  0  0  0  0  0  0  0  0  0  0
  143.3240  160.6130  133.8770 C   0  0  0  0  0  0  0  0  0  0  0  0
  142.8800  159.2990  133.7660 C   0  0  0  0  0  0  0  0  0  0  0  0
  141.6100  158.7820  133.8780 C   0  0  0  0  0  0  0  0  0  0  0  0
  141.7480  157.4090  133.6700 C   0  0  0  0  0  0  0  0  0  0  0  0
  140.6020  156.4830  133.5910 C   0  0  0  0  0  0  0  0  0  0  0  0
  140.7390  155.1950  132.9970 N   0  0  0  0  0  0  0  0  0  0  0  0
  139.4770  156.8530  134.0140 O   0  0  0  0  0  0  0  0  0  0  0  0
  143.0570  157.0900  133.4550 N   0  0  0  0  0  0  0  0  0  0  0  0
  143.6260  155.7950  133.2110 C   0  0  0  0  0  0  0  0  0  0  0  0
  143.7550  155.3680  132.0310 O   0  0  0  0  0  0  0  0  0  0  0  0
  144.0440  155.0180  134.2920 O   0  0  0  0  0  0  0  0  0  0  0  0
  143.2050  154.6820  135.3900 C   0  0  0  0  0  0  0  0  0  0  0  0
  142.3460  153.4740  135.0240 C   0  0  0  0  0  0  0  0  0  0  0  0
  142.5550  153.1060  133.6590 O   0  0  0  0  0  0  0  0  0  0  0  0
  141.9640  151.9940  133.0380 C   0  0  0  0  0  0  0  0  0  0  0  0
  140.6050  151.9710  132.6750 C   0  0  0  0  0  0  0  0  0  0  0  0
  140.0420  150.8180  132.1200 C   0  0  0  0  0  0  0  0  0  0  0  0
  140.8270  149.6750  131.9160 C   0  0  0  0  0  0  0  0  0  0  0  0
  140.2030  148.4080  131.4140 C   0  0  0  0  0  0  0  0  0  0  0  0
  142.1870  149.7050  132.2570 C   0  0  0  0  0  0  0  0  0  0  0  0
  142.7550  150.8650  132.7950 C   0  0  0  0  0  0  0  0  0  0  0  0
  143.7350  158.2580  133.5110 C   0  0  0  0  0  0  0  0  0  0  0  0
  145.1100  158.4700  133.3770 C   0  0  0  0  0  0  0  0  0  0  0  0
  150.5841  161.3534  130.2002 H   0  0  0  0  0  0  0  0  0  0  0  0
  149.6931  159.9338  129.5541 H   0  0  0  0  0  0  0  0  0  0  0  0
  148.9203  161.5554  129.5541 H   0  0  0  0  0  0  0  0  0  0  0  0
  147.1353  158.3936  131.9792 H   0  0  0  0  0  0  0  0  0  0  0  0
  148.1255  158.1930  133.4830 H   0  0  0  0  0  0  0  0  0  0  0  0
  147.4933  160.2300  134.3488 H   0  0  0  0  0  0  0  0  0  0  0  0
  147.2055  160.9473  132.7079 H   0  0  0  0  0  0  0  0  0  0  0  0
  145.0842  161.8830  133.8197 H   0  0  0  0  0  0  0  0  0  0  0  0
  142.6200  161.4354  134.0721 H   0  0  0  0  0  0  0  0  0  0  0  0
  140.6819  159.3342  134.0873 H   0  0  0  0  0  0  0  0  0  0  0  0
  141.6610  154.8610  132.6450 H   0  0  0  0  0  0  0  0  0  0  0  0
  143.8259  154.4387  136.2648 H   0  0  0  0  0  0  0  0  0  0  0  0
  142.5538  155.5359  135.6283 H   0  0  0  0  0  0  0  0  0  0  0  0
  142.6165  152.6277  135.6725 H   0  0  0  0  0  0  0  0  0  0  0  0
  141.2867  153.7355  135.1637 H   0  0  0  0  0  0  0  0  0  0  0  0
  139.9823  152.8647  132.8286 H   0  0  0  0  0  0  0  0  0  0  0  0
  138.9778  150.8078  131.8421 H   0  0  0  0  0  0  0  0  0  0  0  0
  139.8969  147.7865  132.2684 H   0  0  0  0  0  0  0  0  0  0  0  0
  139.3214  148.6507  130.8026 H   0  0  0  0  0  0  0  0  0  0  0  0
  140.9328  147.8570  130.8026 H   0  0  0  0  0  0  0  0  0  0  0  0
  142.8102  148.8122  132.1007 H   0  0  0  0  0  0  0  0  0  0  0  0
  143.8297  150.8899  133.0284 H   0  0  0  0  0  0  0  0  0  0  0  0
  145.7955  157.6281  133.2003 H   0  0  0  0  0  0  0  0  0  0  0  0
  1  2  1  0
  2  3  1  0
  3  4  2  0
  3  5  1  0
  5  6  1  0
  6  7  1  0
  7  8  2  0
  8  9  1  0
  9 10  2  0
 10 11  1  0
 11 12  2  0
 12 13  1  0
 13 14  1  0
 13 15  2  0
 12 16  1  0
 16 17  1  0
 17 18  2  0
 17 19  1  0
 19 20  1  0
 20 21  1  0
 21 22  1  0
 22 23  1  0
 23 24  2  0
 24 25  1  0
 25 26  2  0
 26 27  1  0
 26 28  1  0
 28 29  2  0
 16 30  1  0
 30 31  2  0
 31  7  1  0
 30 10  1  0
 29 23  1  0
  1 32  1  0
  1 33  1  0
  1 34  1  0
  5 35  1  0
  5 36  1  0
  6 37  1  0
  6 38  1  0
  8 39  1  0
  9 40  1  0
 11 41  1  0
 14 42  1  0
 20 43  1  0
 20 44  1  0
 21 45  1  0
 21 46  1  0
 24 47  1  0
 25 48  1  0
 27 49  1  0
 27 50  1  0
 27 51  1  0
 28 52  1  0
 29 53  1  0
 31 54  1  0
M  CHG  1  14  -1
M  END
>  <UniqueID>  (22) 
22

>  <SMILES>  (22) 
COC(=O)CCc1ccc2cc(C([NH-])=O)n(C(=O)OCCOc3ccc(C)cc3)c2c1

>  <Energy>  (22) 
81.6030325456002

>  <Genealogy>  (22) 
COC(=O)CCc1ccc2cc(C([NH-])=O)n(C(=O)OCCOc3ccc(C)cc3)c2c1 (protonated)
COC(=O)CCc1ccc2cc(C([NH-])=O)n(C(=O)OCCOc3ccc(C)cc3)c2c1 (3D coordinates assigned)
COC(=O)CCc1ccc2cc(C([NH-])=O)n(C(=O)OCCOc3ccc(C)cc3)c2c1 (optimized conformer: 81.6030325456002 kcal/mol)

>  <smiles>  (22) 
COC(=O)CCc1ccc2cc(C(N)=O)n(C(=O)OCCOc3ccc(C)cc3)c2c1

>  <score_type>  (22) 
oracle

>  <origin>  (22) 
adg

>  <m_score__min__energy>  (22) 
-8.5299999999999994

>  <m_primary>  (22) 
energy

$$$$
22:0
     RDKit          3D

 36 38  0  0  0  0  0  0  0  0999 V2000
  143.3640  161.4900  133.7300 N   0  0  0  0  0  0  0  0  0  0  0  0
  144.7700  161.5220  133.9620 C   0  0  0  0  0  0  0  0  0  0  0  0
  145.2950  162.5650  134.4330 O   0  0  0  0  0  0  0  0  0  0  0  0
  145.6000  160.3510  133.6110 C   0  0  0  0  0  0  0  0  0  0  0  0
  146.9710  160.4230  133.3720 C   0  0  0  0  0  0  0  0  0  0  0  0
  147.3750  159.1250  133.1660 C   0  0  0  0  0  0  0  0  0  0  0  0
  148.6380  158.6150  132.8800 C   0  0  0  0  0  0  0  0  0  0  0  0
  148.7620  157.2280  132.6890 C   0  0  0  0  0  0  0  0  0  0  0  0
  147.6240  156.3850  132.7700 C   0  0  0  0  0  0  0  0  0  0  0  0
  147.7730  154.9000  132.5840 C   0  0  0  0  0  0  0  0  0  0  0  0
  149.2200  154.5120  132.5990 C   0  0  0  0  0  0  0  0  0  0  0  0
  149.5690  153.4100  132.2070 O   0  0  0  0  0  0  0  0  0  0  0  0
  146.3610  156.9370  133.0740 C   0  0  0  0  0  0  0  0  0  0  0  0
  146.2710  158.3190  133.2770 C   0  0  0  0  0  0  0  0  0  0  0  0
  145.1720  159.0580  133.5490 N   0  0  0  0  0  0  0  0  0  0  0  0
  143.8260  158.5710  133.6630 C   0  0  0  0  0  0  0  0  0  0  0  0
  143.2000  158.2090  132.6300 O   0  0  0  0  0  0  0  0  0  0  0  0
  143.2080  158.5260  134.9180 O   0  0  0  0  0  0  0  0  0  0  0  0
  142.1060  159.3560  135.2770 C   0  0  0  0  0  0  0  0  0  0  0  0
  140.9850  159.1750  134.3030 C   0  0  0  0  0  0  0  0  0  0  0  0
  140.9240  159.7290  133.1150 O   0  0  0  0  0  0  0  0  0  0  0  0
  139.8010  159.3070  132.5760 C   0  0  0  0  0  0  0  0  0  0  0  0
  139.4100  159.6400  131.4270 O   0  0  0  0  0  0  0  0  0  0  0  0
  139.1300  158.4990  133.3670 O   0  0  0  0  0  0  0  0  0  0  0  0
  139.8540  158.4010  134.4540 C   0  0  0  0  0  0  0  0  0  0  0  0
  139.5170  157.6330  135.5620 O   0  0  0  0  0  0  0  0  0  0  0  0
  142.8630  160.5840  133.5960 H   0  0  0  0  0  0  0  0  0  0  0  0
  147.5974  161.3270  133.3523 H   0  0  0  0  0  0  0  0  0  0  0  0
  149.5129  159.2775  132.8057 H   0  0  0  0  0  0  0  0  0  0  0  0
  149.7493  156.7928  132.4750 H   0  0  0  0  0  0  0  0  0  0  0  0
  147.2500  154.3787  133.3993 H   0  0  0  0  0  0  0  0  0  0  0  0
  147.3390  154.6176  131.6135 H   0  0  0  0  0  0  0  0  0  0  0  0
  149.9730  155.2251  132.9658 H   0  0  0  0  0  0  0  0  0  0  0  0
  145.4695  156.2970  133.1495 H   0  0  0  0  0  0  0  0  0  0  0  0
  141.7593  159.0840  136.2849 H   0  0  0  0  0  0  0  0  0  0  0  0
  142.4285  160.4076  135.2622 H   0  0  0  0  0  0  0  0  0  0  0  0
  1  2  1  0
  2  3  2  0
  2  4  1  0
  4  5  2  0
  5  6  1  0
  6  7  2  0
  7  8  1  0
  8  9  2  0
  9 10  1  0
 10 11  1  0
 11 12  2  0
  9 13  1  0
 13 14  2  0
 14 15  1  0
 15 16  1  0
 16 17  2  0
 16 18  1  0
 18 19  1  0
 19 20  1  0
 20 21  1  0
 21 22  1  0
 22 23  2  0
 22 24  1  0
 24 25  1  0
 25 26  1  0
 15  4  1  0
 25 20  2  0
 14  6  1  0
  1 27  1  0
  5 28  1  0
  7 29  1  0
  8 30  1  0
 10 31  1  0
 10 32  1  0
 11 33  1  0
 13 34  1  0
 19 35  1  0
 19 36  1  0
M  CHG  2   1  -1  26  -1
M  END
>  <UniqueID>  (23) 
23

>  <SMILES>  (23) 
[NH-]C(=O)c1cc2ccc(CC=O)cc2n1C(=O)OCc1oc(=O)oc1[O-]

>  <Energy>  (23) 
107.57663163238648

>  <Genealogy>  (23) 
[NH-]C(=O)c1cc2ccc(CC=O)cc2n1C(=O)OCc1oc(=O)oc1[O-] (protonated)
[NH-]C(=O)c1cc2ccc(CC=O)cc2n1C(=O)OCc1oc(=O)oc1[O-] (3D coordinates assigned)
[NH-]C(=O)c1cc2ccc(CC=O)cc2n1C(=O)OCc1oc(=O)oc1[O-] (optimized conformer: 107.57663163238648 kcal/mol)

>  <smiles>  (23) 
NC(=O)c1cc2ccc(CC=O)cc2n1C(=O)OCc1oc(=O)oc1O

>  <score_type>  (23) 
oracle

>  <origin>  (23) 
adg

>  <m_score__min__energy>  (23) 
-6.7000000000000002

>  <m_primary>  (23) 
energy

$$$$
23:0
     RDKit          3D

 41 42  0  0  0  0  0  0  0  0999 V2000
  149.5620  161.5050  130.3570 C   0  0  0  0  0  0  0  0  0  0  0  0
  148.6260  160.3450  130.4060 C   0  0  0  0  0  0  0  0  0  0  0  0
  147.3820  160.5400  130.3270 O   0  0  0  0  0  0  0  0  0  0  0  0
  149.1420  159.0250  130.6010 N   0  0  0  0  0  0  0  0  0  0  0  0
  149.7590  158.5750  131.8440 C   0  0  0  0  0  0  0  0  0  0  0  0
  148.7470  157.8020  132.6940 C   0  0  0  0  0  0  0  0  0  0  0  0
  147.5800  158.6820  133.0560 C   0  0  0  0  0  0  0  0  0  0  0  0
  147.7960  160.0370  133.4120 C   0  0  0  0  0  0  0  0  0  0  0  0
  146.7130  160.8730  133.7320 C   0  0  0  0  0  0  0  0  0  0  0  0
  145.4310  160.3340  133.6690 C   0  0  0  0  0  0  0  0  0  0  0  0
  144.2130  160.9120  133.9440 C   0  0  0  0  0  0  0  0  0  0  0  0
  143.2700  159.9120  133.7170 C   0  0  0  0  0  0  0  0  0  0  0  0
  141.8120  160.1320  133.8150 C   0  0  0  0  0  0  0  0  0  0  0  0
  140.9970  160.0040  132.6520 N   0  0  0  0  0  0  0  0  0  0  0  0
  141.2710  160.3930  134.9210 O   0  0  0  0  0  0  0  0  0  0  0  0
  143.8800  158.7590  133.3240 N   0  0  0  0  0  0  0  0  0  0  0  0
  143.2660  157.4850  133.0690 C   0  0  0  0  0  0  0  0  0  0  0  0
  143.9400  156.4260  133.1890 O   0  0  0  0  0  0  0  0  0  0  0  0
  141.9170  157.4240  132.7110 O   0  0  0  0  0  0  0  0  0  0  0  0
  140.9620  156.6520  133.4320 C   0  0  0  0  0  0  0  0  0  0  0  0
  139.5550  156.9960  132.9540 C   0  0  0  0  0  0  0  0  0  0  0  0
  139.6040  157.9210  131.9020 O   0  0  0  0  0  0  0  0  0  0  0  0
  145.2030  159.0330  133.2970 C   0  0  0  0  0  0  0  0  0  0  0  0
  146.2650  158.1730  132.9920 C   0  0  0  0  0  0  0  0  0  0  0  0
  149.8135  161.8167  131.3815 H   0  0  0  0  0  0  0  0  0  0  0  0
  150.4804  161.2130  129.8267 H   0  0  0  0  0  0  0  0  0  0  0  0
  149.0824  162.3409  129.8267 H   0  0  0  0  0  0  0  0  0  0  0  0
  150.6106  157.9195  131.6092 H   0  0  0  0  0  0  0  0  0  0  0  0
  150.1025  159.4535  132.4099 H   0  0  0  0  0  0  0  0  0  0  0  0
  148.3830  156.9347  132.1237 H   0  0  0  0  0  0  0  0  0  0  0  0
  149.2407  157.4682  133.6186 H   0  0  0  0  0  0  0  0  0  0  0  0
  148.8202  160.4374  133.4380 H   0  0  0  0  0  0  0  0  0  0  0  0
  146.8732  161.9215  134.0234 H   0  0  0  0  0  0  0  0  0  0  0  0
  144.0240  161.9444  134.2732 H   0  0  0  0  0  0  0  0  0  0  0  0
  141.2610  159.3520  131.8800 H   0  0  0  0  0  0  0  0  0  0  0  0
  141.1541  155.5822  133.2628 H   0  0  0  0  0  0  0  0  0  0  0  0
  141.0471  156.8779  134.5052 H   0  0  0  0  0  0  0  0  0  0  0  0
  139.0570  156.0789  132.6062 H   0  0  0  0  0  0  0  0  0  0  0  0
  138.9947  157.4393  133.7904 H   0  0  0  0  0  0  0  0  0  0  0  0
  140.2830  158.6010  132.1530 H   0  0  0  0  0  0  0  0  0  0  0  0
  146.0791  157.1263  132.7094 H   0  0  0  0  0  0  0  0  0  0  0  0
  1  2  1  0
  2  3  2  0
  2  4  1  0
  4  5  1  0
  5  6  1  0
  6  7  1  0
  7  8  2  0
  8  9  1  0
  9 10  2  0
 10 11  1  0
 11 12  2  0
 12 13  1  0
 13 14  1  0
 13 15  2  0
 12 16  1  0
 16 17  1  0
 17 18  2  0
 17 19  1  0
 19 20  1  0
 20 21  1  0
 21 22  1  0
 16 23  1  0
 23 24  2  0
 24  7  1  0
 23 10  1  0
  1 25  1  0
  1 26  1  0
  1 27  1  0
  5 28  1  0
  5 29  1  0
  6 30  1  0
  6 31  1  0
  8 32  1  0
  9 33  1  0
 11 34  1  0
 14 35  1  0
 20 36  1  0
 20 37  1  0
 21 38  1  0
 21 39  1  0
 22 40  1  0
 24 41  1  0
M  CHG  2   4  -1  14  -1
M  END
>  <UniqueID>  (24) 
24

>  <SMILES>  (24) 
CC(=O)[N-]CCc1ccc2cc(C([NH-])=O)n(C(=O)OCCO)c2c1

>  <Energy>  (24) 
68.63320250224699

>  <Genealogy>  (24) 
CC(=O)[N-]CCc1ccc2cc(C([NH-])=O)n(C(=O)OCCO)c2c1 (protonated)
CC(=O)[N-]CCc1ccc2cc(C([NH-])=O)n(C(=O)OCCO)c2c1 (3D coordinates assigned)
CC(=O)[N-]CCc1ccc2cc(C([NH-])=O)n(C(=O)OCCO)c2c1 (optimized conformer: 68.63320250224699 kcal/mol)

>  <smiles>  (24) 
CC(=O)NCCc1ccc2cc(C(N)=O)n(C(=O)OCCO)c2c1

>  <score_type>  (24) 
oracle

>  <origin>  (24) 
adg

>  <m_score__min__energy>  (24) 
-6.21

>  <m_primary>  (24) 
energy

$$$$
24:0
     RDKit          3D

 44 46  0  0  0  0  0  0  0  0999 V2000
  149.2300  161.3010  130.4060 C   0  0  0  0  0  0  0  0  0  0  0  0
  148.7400  161.1190  131.7310 O   0  0  0  0  0  0  0  0  0  0  0  0
  148.2540  159.9040  132.2400 C   0  0  0  0  0  0  0  0  0  0  0  0
  148.7570  158.6620  131.8130 C   0  0  0  0  0  0  0  0  0  0  0  0
  148.2570  157.4740  132.3500 C   0  0  0  0  0  0  0  0  0  0  0  0
  147.2420  157.4960  133.3200 C   0  0  0  0  0  0  0  0  0  0  0  0
  146.7440  156.2180  133.9020 C   0  0  0  0  0  0  0  0  0  0  0  0
  146.8730  156.0110  135.1400 O   0  0  0  0  0  0  0  0  0  0  0  0
  146.0510  155.1640  133.0760 C   0  0  0  0  0  0  0  0  0  0  0  0
  144.5530  155.2640  133.2140 C   0  0  0  0  0  0  0  0  0  0  0  0
  143.7360  154.1540  132.8790 C   0  0  0  0  0  0  0  0  0  0  0  0
  142.3430  154.2160  133.0410 C   0  0  0  0  0  0  0  0  0  0  0  0
  141.7940  155.3990  133.5290 C   0  0  0  0  0  0  0  0  0  0  0  0
  140.4870  155.7140  133.8190 C   0  0  0  0  0  0  0  0  0  0  0  0
  140.5190  157.0220  134.2960 C   0  0  0  0  0  0  0  0  0  0  0  0
  139.3050  157.7860  134.6550 C   0  0  0  0  0  0  0  0  0  0  0  0
  139.0780  158.2170  135.9940 N   0  0  0  0  0  0  0  0  0  0  0  0
  138.4820  158.1040  133.7560 O   0  0  0  0  0  0  0  0  0  0  0  0
  141.7990  157.4960  134.3090 N   0  0  0  0  0  0  0  0  0  0  0  0
  142.2690  158.7540  134.8210 C   0  0  0  0  0  0  0  0  0  0  0  0
  141.6460  159.3360  135.7470 O   0  0  0  0  0  0  0  0  0  0  0  0
  143.4310  159.3260  134.3180 O   0  0  0  0  0  0  0  0  0  0  0  0
  142.5660  156.4910  133.8310 C   0  0  0  0  0  0  0  0  0  0  0  0
  143.9580  156.4540  133.6890 C   0  0  0  0  0  0  0  0  0  0  0  0
  146.7260  158.7400  133.7280 C   0  0  0  0  0  0  0  0  0  0  0  0
  147.2380  159.9440  133.2040 C   0  0  0  0  0  0  0  0  0  0  0  0
  146.7640  161.1970  133.6230 O   0  0  0  0  0  0  0  0  0  0  0  0
  145.4480  161.4420  134.1110 C   0  0  0  0  0  0  0  0  0  0  0  0
  150.2605  161.6837  130.4455 H   0  0  0  0  0  0  0  0  0  0  0  0
  149.2167  160.3379  129.8746 H   0  0  0  0  0  0  0  0  0  0  0  0
  148.5912  162.0218  129.8746 H   0  0  0  0  0  0  0  0  0  0  0  0
  149.5495  158.6262  131.0510 H   0  0  0  0  0  0  0  0  0  0  0  0
  148.6628  156.5100  132.0093 H   0  0  0  0  0  0  0  0  0  0  0  0
  146.3242  155.2988  132.0190 H   0  0  0  0  0  0  0  0  0  0  0  0
  146.3695  154.1740  133.4345 H   0  0  0  0  0  0  0  0  0  0  0  0
  144.1985  153.2356  132.4884 H   0  0  0  0  0  0  0  0  0  0  0  0
  141.7045  153.3562  132.7901 H   0  0  0  0  0  0  0  0  0  0  0  0
  139.6037  155.0694  133.6995 H   0  0  0  0  0  0  0  0  0  0  0  0
  139.5090  159.0970  136.3550 H   0  0  0  0  0  0  0  0  0  0  0  0
  144.5736  157.3301  133.9411 H   0  0  0  0  0  0  0  0  0  0  0  0
  145.9114  158.7732  134.4664 H   0  0  0  0  0  0  0  0  0  0  0  0
  145.4585  161.4400  135.2109 H   0  0  0  0  0  0  0  0  0  0  0  0
  145.0991  162.4205  133.7494 H   0  0  0  0  0  0  0  0  0  0  0  0
  144.7703  160.6546  133.7494 H   0  0  0  0  0  0  0  0  0  0  0  0
  1  2  1  0
  2  3  1  0
  3  4  2  0
  4  5  1  0
  5  6  2  0
  6  7  1  0
  7  8  2  0
  7  9  1  0
  9 10  1  0
 10 11  2  0
 11 12  1  0
 12 13  2  0
 13 14  1  0
 14 15  2  0
 15 16  1  0
 16 17  1  0
 16 18  2  0
 15 19  1  0
 19 20  1  0
 20 21  2  0
 20 22  1  0
 19 23  1  0
 23 24  2  0
  6 25  1  0
 25 26  2  0
 26 27  1  0
 27 28  1  0
 26  3  1  0
 24 10  1  0
 23 13  1  0
  1 29  1  0
  1 30  1  0
  1 31  1  0
  4 32  1  0
  5 33  1  0
  9 34  1  0
  9 35  1  0
 11 36  1  0
 12 37  1  0
 14 38  1  0
 17 39  1  0
 24 40  1  0
 25 41  1  0
 28 42  1  0
 28 43  1  0
 28 44  1  0
M  CHG  2  17  -1  22  -1
M  END
>  <UniqueID>  (25) 
25

>  <SMILES>  (25) 
COc1ccc(C(=O)Cc2ccc3cc(C([NH-])=O)n(C(=O)[O-])c3c2)cc1OC

>  <Energy>  (25) 
85.15134743382195

>  <Genealogy>  (25) 
COc1ccc(C(=O)Cc2ccc3cc(C([NH-])=O)n(C(=O)[O-])c3c2)cc1OC (protonated)
COc1ccc(C(=O)Cc2ccc3cc(C([NH-])=O)n(C(=O)[O-])c3c2)cc1OC (3D coordinates assigned)
COc1ccc(C(=O)Cc2ccc3cc(C([NH-])=O)n(C(=O)[O-])c3c2)cc1OC (optimized conformer: 85.15134743382195 kcal/mol)

>  <smiles>  (25) 
COc1ccc(C(=O)Cc2ccc3cc(C(N)=O)n(C(=O)O)c3c2)cc1OC

>  <score_type>  (25) 
oracle

>  <origin>  (25) 
adg

>  <m_score__min__energy>  (25) 
-7.9400000000000004

>  <m_primary>  (25) 
energy

$$$$
25:0
     RDKit          3D

 37 38  0  0  0  0  0  0  0  0999 V2000
  146.4900  162.0330  134.1250 N   0  0  0  0  0  0  0  0  0  0  0  0
  145.3490  161.2230  133.8450 C   0  0  0  0  0  0  0  0  0  0  0  0
  144.2310  161.7730  133.6580 O   0  0  0  0  0  0  0  0  0  0  0  0
  145.4660  159.7570  133.7070 C   0  0  0  0  0  0  0  0  0  0  0  0
  144.3710  158.8970  133.7110 C   0  0  0  0  0  0  0  0  0  0  0  0
  144.8940  157.6430  133.4980 C   0  0  0  0  0  0  0  0  0  0  0  0
  144.2540  156.4100  133.4200 C   0  0  0  0  0  0  0  0  0  0  0  0
  145.0470  155.2670  133.2300 C   0  0  0  0  0  0  0  0  0  0  0  0
  146.4580  155.3740  133.1340 C   0  0  0  0  0  0  0  0  0  0  0  0
  147.3000  154.1440  132.9170 C   0  0  0  0  0  0  0  0  0  0  0  0
  147.9680  153.6770  134.2140 C   0  0  0  0  0  0  0  0  0  0  0  0
  147.1040  154.3090  135.6720 S   0  0  0  0  0  0  0  0  0  0  0  0
  148.1020  155.2770  136.2920 O   0  0  0  0  0  0  0  0  0  0  0  0
  147.1250  152.9880  136.7440 O   0  0  0  0  0  0  0  0  0  0  0  0
  147.0720  156.6430  133.2140 C   0  0  0  0  0  0  0  0  0  0  0  0
  146.2560  157.7680  133.3830 C   0  0  0  0  0  0  0  0  0  0  0  0
  146.6230  159.0650  133.5120 N   0  0  0  0  0  0  0  0  0  0  0  0
  147.9640  159.5770  133.5660 C   0  0  0  0  0  0  0  0  0  0  0  0
  148.7540  159.1830  134.4660 O   0  0  0  0  0  0  0  0  0  0  0  0
  148.3890  160.5090  132.6110 O   0  0  0  0  0  0  0  0  0  0  0  0
  148.2360  160.3280  131.2050 C   0  0  0  0  0  0  0  0  0  0  0  0
  149.3720  159.4760  130.6400 C   0  0  0  0  0  0  0  0  0  0  0  0
  148.8720  158.6300  129.6660 F   0  0  0  0  0  0  0  0  0  0  0  0
  150.3350  160.2930  130.0760 F   0  0  0  0  0  0  0  0  0  0  0  0
  149.9490  158.7150  131.6390 F   0  0  0  0  0  0  0  0  0  0  0  0
  147.4530  161.6300  134.1210 H   0  0  0  0  0  0  0  0  0  0  0  0
  146.3810  163.0630  134.2610 H   0  0  0  0  0  0  0  0  0  0  0  0
  143.3134  159.1636  133.8540 H   0  0  0  0  0  0  0  0  0  0  0  0
  143.1600  156.3330  133.5046 H   0  0  0  0  0  0  0  0  0  0  0  0
  144.5693  154.2790  133.1549 H   0  0  0  0  0  0  0  0  0  0  0  0
  146.6585  153.3359  132.5357 H   0  0  0  0  0  0  0  0  0  0  0  0
  148.0914  154.3939  132.1951 H   0  0  0  0  0  0  0  0  0  0  0  0
  147.9610  152.5774  134.2435 H   0  0  0  0  0  0  0  0  0  0  0  0
  148.9978  154.0635  134.2295 H   0  0  0  0  0  0  0  0  0  0  0  0
  148.1651  156.7452  133.1452 H   0  0  0  0  0  0  0  0  0  0  0  0
  147.2770  159.8264  131.0084 H   0  0  0  0  0  0  0  0  0  0  0  0
  148.2596  161.3142  130.7182 H   0  0  0  0  0  0  0  0  0  0  0  0
  1  2  1  0
  2  3  2  0
  2  4  1  0
  4  5  2  0
  5  6  1  0
  6  7  2  0
  7  8  1  0
  8  9  2  0
  9 10  1  0
 10 11  1  0
 11 12  1  0
 12 13  2  0
 12 14  1  1
  9 15  1  0
 15 16  2  0
 16 17  1  0
 17 18  1  0
 18 19  2  0
 18 20  1  0
 20 21  1  0
 21 22  1  0
 22 23  1  0
 22 24  1  0
 22 25  1  0
 17  4  1  0
 16  6  1  0
  1 26  1  0
  1 27  1  0
  5 28  1  0
  7 29  1  0
  8 30  1  0
 10 31  1  0
 10 32  1  0
 11 33  1  0
 11 34  1  0
 15 35  1  0
 21 36  1  0
 21 37  1  0
M  CHG  1  14  -1
M  END
>  <UniqueID>  (26) 
26

>  <SMILES>  (26) 
NC(=O)c1cc2ccc(CC[S@](=O)[O-])cc2n1C(=O)OCC(F)(F)F

>  <Energy>  (26) 
68.06280689706138

>  <Genealogy>  (26) 
NC(=O)c1cc2ccc(CCS(=O)[O-])cc2n1C(=O)OCC(F)(F)F (protonated)
NC(=O)c1cc2ccc(CC[S@](=O)[O-])cc2n1C(=O)OCC(F)(F)F (chirality)
NC(=O)c1cc2ccc(CC[S@](=O)[O-])cc2n1C(=O)OCC(F)(F)F (3D coordinates assigned)
NC(=O)c1cc2ccc(CC[S@](=O)[O-])cc2n1C(=O)OCC(F)(F)F (optimized conformer: 68.06280689706138 kcal/mol)

>  <smiles>  (26) 
NC(=O)c1cc2ccc(CCS(=O)O)cc2n1C(=O)OCC(F)(F)F

>  <score_type>  (26) 
oracle

>  <origin>  (26) 
adg

>  <m_score__min__energy>  (26) 
-6.7199999999999998

>  <m_primary>  (26) 
energy

$$$$
26:0
     RDKit          3D

 54 57  0  0  0  0  0  0  0  0999 V2000
  142.3040  153.6840  136.0180 C   0  0  0  0  0  0  0  0  0  0  0  0
  141.9720  153.6030  134.5910 N   0  0  0  0  0  0  0  0  0  0  0  0
  142.3420  152.3970  133.8290 C   0  0  0  0  0  0  0  0  0  0  0  0
  141.3870  151.2700  134.0950 C   0  0  0  0  0  0  0  0  0  0  0  0
  141.0580  150.9920  135.2790 O   0  0  0  0  0  0  0  0  0  0  0  0
  140.8610  150.4890  133.0190 N   0  0  0  0  0  0  0  0  0  0  0  0
  139.9130  151.0960  132.0840 C   0  0  0  0  0  0  0  0  0  0  0  0
  139.0980  149.9990  131.3940 C   0  0  0  0  0  0  0  0  0  0  0  0
  139.9520  149.0270  130.8220 O   0  0  0  0  0  0  0  0  0  0  0  0
  140.6550  148.3460  131.8440 C   0  0  0  0  0  0  0  0  0  0  0  0
  141.5960  149.2970  132.5910 C   0  0  0  0  0  0  0  0  0  0  0  0
  141.2110  154.6720  133.9780 C   0  0  0  0  0  0  0  0  0  0  0  0
  139.9960  154.3900  133.2960 C   0  0  0  0  0  0  0  0  0  0  0  0
  139.2480  155.4170  132.6980 C   0  0  0  0  0  0  0  0  0  0  0  0
  139.7270  156.7180  132.7990 C   0  0  0  0  0  0  0  0  0  0  0  0
  139.2110  157.8940  132.3040 C   0  0  0  0  0  0  0  0  0  0  0  0
  140.1040  158.8870  132.7070 C   0  0  0  0  0  0  0  0  0  0  0  0
  139.8790  160.3270  132.4660 C   0  0  0  0  0  0  0  0  0  0  0  0
  138.8300  160.7750  131.6110 N   0  0  0  0  0  0  0  0  0  0  0  0
  140.6560  161.1740  132.9810 O   0  0  0  0  0  0  0  0  0  0  0  0
  141.1330  158.3440  133.4160 N   0  0  0  0  0  0  0  0  0  0  0  0
  142.2820  159.0120  133.9570 C   0  0  0  0  0  0  0  0  0  0  0  0
  143.3940  158.9330  133.3680 O   0  0  0  0  0  0  0  0  0  0  0  0
  142.1720  159.7330  135.1850 N   0  0  0  0  0  0  0  0  0  0  0  0
  140.9570  159.7720  135.9830 C   0  0  0  0  0  0  0  0  0  0  0  0
  140.7960  158.4670  136.6900 C   0  0  0  0  0  0  0  0  0  0  0  0
  141.6680  157.9320  137.6160 C   0  0  0  0  0  0  0  0  0  0  0  0
  141.0340  156.7850  138.0370 C   0  0  0  0  0  0  0  0  0  0  0  0
  139.8850  156.6870  137.4050 O   0  0  0  0  0  0  0  0  0  0  0  0
  139.7040  157.6870  136.5920 N   0  0  0  0  0  0  0  0  0  0  0  0
  140.8860  157.0160  133.4650 C   0  0  0  0  0  0  0  0  0  0  0  0
  141.6640  156.0110  134.0510 C   0  0  0  0  0  0  0  0  0  0  0  0
  141.4071  153.4652  136.6161 H   0  0  0  0  0  0  0  0  0  0  0  0
  143.0898  152.9512  136.2538 H   0  0  0  0  0  0  0  0  0  0  0  0
  142.6640  154.6963  136.2538 H   0  0  0  0  0  0  0  0  0  0  0  0
  142.3273  152.6333  132.7548 H   0  0  0  0  0  0  0  0  0  0  0  0
  143.3477  152.0819  134.1442 H   0  0  0  0  0  0  0  0  0  0  0  0
  139.2346  151.7652  132.6334 H   0  0  0  0  0  0  0  0  0  0  0  0
  140.4650  151.6719  131.3266 H   0  0  0  0  0  0  0  0  0  0  0  0
  138.4445  149.5147  132.1345 H   0  0  0  0  0  0  0  0  0  0  0  0
  138.4959  150.4554  130.5945 H   0  0  0  0  0  0  0  0  0  0  0  0
  139.9323  147.9219  132.5566 H   0  0  0  0  0  0  0  0  0  0  0  0
  141.2562  147.5480  131.3838 H   0  0  0  0  0  0  0  0  0  0  0  0
  142.0069  148.7851  133.4737 H   0  0  0  0  0  0  0  0  0  0  0  0
  142.4152  149.5971  131.9210 H   0  0  0  0  0  0  0  0  0  0  0  0
  139.6365  153.3521  133.2359 H   0  0  0  0  0  0  0  0  0  0  0  0
  138.3107  155.1984  132.1654 H   0  0  0  0  0  0  0  0  0  0  0  0
  138.2905  158.0233  131.7159 H   0  0  0  0  0  0  0  0  0  0  0  0
  138.0530  161.3670  131.9780 H   0  0  0  0  0  0  0  0  0  0  0  0
  141.0267  160.5848  136.7209 H   0  0  0  0  0  0  0  0  0  0  0  0
  140.0898  159.9497  135.3300 H   0  0  0  0  0  0  0  0  0  0  0  0
  142.6410  158.3288  137.9413 H   0  0  0  0  0  0  0  0  0  0  0  0
  141.4230  156.0706  138.7775 H   0  0  0  0  0  0  0  0  0  0  0  0
  142.6087  156.2568  134.5582 H   0  0  0  0  0  0  0  0  0  0  0  0
  1  2  1  0
  2  3  1  0
  3  4  1  0
  4  5  2  0
  4  6  1  0
  6  7  1  0
  7  8  1  0
  8  9  1  0
  9 10  1  0
 10 11  1  0
  2 12  1  0
 12 13  2  0
 13 14  1  0
 14 15  2  0
 15 16  1  0
 16 17  2  0
 17 18  1  0
 18 19  1  0
 18 20  2  0
 17 21  1  0
 21 22  1  0
 22 23  2  0
 22 24  1  0
 24 25  1  0
 25 26  1  0
 26 27  1  0
 27 28  2  0
 28 29  1  0
 29 30  1  0
 21 31  1  0
 31 32  2  0
 11  6  1  0
 32 12  1  0
 31 15  1  0
 30 26  2  0
  1 33  1  0
  1 34  1  0
  1 35  1  0
  3 36  1  0
  3 37  1  0
  7 38  1  0
  7 39  1  0
  8 40  1  0
  8 41  1  0
 10 42  1  0
 10 43  1  0
 11 44  1  0
 11 45  1  0
 13 46  1  0
 14 47  1  0
 16 48  1  0
 19 49  1  0
 25 50  1  0
 25 51  1  0
 27 52  1  0
 28 53  1  0
 32 54  1  0
M  CHG  2  19  -1  24  -1
M  END
>  <UniqueID>  (27) 
27

>  <SMILES>  (27) 
CN(CC(=O)N1CCOCC1)c1ccc2cc(C([NH-])=O)n(C(=O)[N-]Cc3ccon3)c2c1

>  <Energy>  (27) 
128.6367508812636

>  <Genealogy>  (27) 
CN(CC(=O)N1CCOCC1)c1ccc2cc(C([NH-])=O)n(C(=O)[N-]Cc3ccon3)c2c1 (protonated)
CN(CC(=O)N1CCOCC1)c1ccc2cc(C([NH-])=O)n(C(=O)[N-]Cc3ccon3)c2c1 (3D coordinates assigned)
CN(CC(=O)N1CCOCC1)c1ccc2cc(C([NH-])=O)n(C(=O)[N-]Cc3ccon3)c2c1 (nonaromatic ring conformer: 128.6367508812636 kcal/mol)

>  <smiles>  (27) 
CN(CC(=O)N1CCOCC1)c1ccc2cc(C(N)=O)n(C(=O)NCc3ccon3)c2c1

>  <score_type>  (27) 
oracle

>  <origin>  (27) 
adg

>  <m_score__min__energy>  (27) 
-9.1999999999999993

>  <m_primary>  (27) 
energy

$$$$
27:0
     RDKit          3D

 56 58  0  0  0  0  0  0  0  0999 V2000
  149.6970  150.7750  135.3270 C   0  0  0  0  0  0  0  0  0  0  0  0
  149.9580  151.0140  133.8380 C   0  0  0  0  0  0  0  0  0  0  0  0
  149.2280  152.1600  133.3850 O   0  0  0  0  0  0  0  0  0  0  0  0
  148.0660  152.0280  132.6090 C   0  0  0  0  0  0  0  0  0  0  0  0
  147.8610  150.9630  131.9540 O   0  0  0  0  0  0  0  0  0  0  0  0
  147.0840  153.0960  132.6150 N   0  0  1  0  0  0  0  0  0  0  0  0
  145.7470  152.5370  132.2930 C   0  0  0  0  0  0  0  0  0  0  0  0
  144.7460  153.6640  132.0410 C   0  0  0  0  0  0  0  0  0  0  0  0
  144.9690  154.8790  132.9750 C   0  0  1  0  0  0  0  0  0  0  0  0
  143.6930  155.5400  133.2910 N   0  0  0  0  0  0  0  0  0  0  0  0
  143.4250  156.9620  133.2580 C   0  0  0  0  0  0  0  0  0  0  0  0
  142.1080  157.4920  133.1480 C   0  0  0  0  0  0  0  0  0  0  0  0
  141.8740  158.8710  133.3030 C   0  0  0  0  0  0  0  0  0  0  0  0
  142.9680  159.6910  133.5470 C   0  0  0  0  0  0  0  0  0  0  0  0
  143.0300  161.0450  133.7810 C   0  0  0  0  0  0  0  0  0  0  0  0
  144.3880  161.3360  133.9180 C   0  0  0  0  0  0  0  0  0  0  0  0
  144.8980  162.7150  134.1080 C   0  0  0  0  0  0  0  0  0  0  0  0
  146.0130  163.0010  134.9530 N   0  0  0  0  0  0  0  0  0  0  0  0
  144.3460  163.6680  133.4920 O   0  0  0  0  0  0  0  0  0  0  0  0
  145.1310  160.1950  133.7950 N   0  0  0  0  0  0  0  0  0  0  0  0
  146.5430  160.0970  133.5570 C   0  0  0  0  0  0  0  0  0  0  0  0
  147.1810  161.1400  133.2460 O   0  0  0  0  0  0  0  0  0  0  0  0
  147.2370  158.8010  133.6560 C   0  0  0  0  0  0  0  0  0  0  0  0
  147.6450  158.1600  132.5560 C   0  0  0  0  0  0  0  0  0  0  0  0
  148.6330  157.0460  132.6170 C   0  0  0  0  0  0  0  0  0  0  0  0
  147.9970  155.8520  132.2490 O   0  0  0  0  0  0  0  0  0  0  0  0
  144.2500  159.2110  133.5590 C   0  0  0  0  0  0  0  0  0  0  0  0
  144.5160  157.8490  133.4100 C   0  0  0  0  0  0  0  0  0  0  0  0
  145.7930  154.5590  134.2470 C   0  0  0  0  0  0  0  0  0  0  0  0
  147.0870  153.7630  133.9470 C   0  0  0  0  0  0  0  0  0  0  0  0
  150.3786  151.3992  135.9235 H   0  0  0  0  0  0  0  0  0  0  0  0
  148.6558  151.0394  135.5638 H   0  0  0  0  0  0  0  0  0  0  0  0
  149.8690  149.7147  135.5638 H   0  0  0  0  0  0  0  0  0  0  0  0
  151.0335  151.1827  133.6802 H   0  0  0  0  0  0  0  0  0  0  0  0
  149.6287  150.1315  133.2700 H   0  0  0  0  0  0  0  0  0  0  0  0
  147.3600  153.7950  131.8710 H   0  0  0  0  0  0  0  0  0  0  0  0
  145.3976  151.9236  133.1366 H   0  0  0  0  0  0  0  0  0  0  0  0
  145.8267  151.9205  131.3855 H   0  0  0  0  0  0  0  0  0  0  0  0
  143.7299  153.2757  132.2046 H   0  0  0  0  0  0  0  0  0  0  0  0
  144.8868  154.0093  131.0061 H   0  0  0  0  0  0  0  0  0  0  0  0
  145.5943  155.5861  132.4102 H   0  0  0  0  0  0  0  0  0  0  0  0
  142.8740  154.9040  133.4200 H   0  0  0  0  0  0  0  0  0  0  0  0
  141.2650  156.8167  132.9398 H   0  0  0  0  0  0  0  0  0  0  0  0
  140.8576  159.2859  133.2332 H   0  0  0  0  0  0  0  0  0  0  0  0
  142.1876  161.7493  133.8463 H   0  0  0  0  0  0  0  0  0  0  0  0
  146.9870  162.7670  134.6650 H   0  0  0  0  0  0  0  0  0  0  0  0
  147.4213  158.3563  134.6451 H   0  0  0  0  0  0  0  0  0  0  0  0
  147.2403  158.4632  131.5791 H   0  0  0  0  0  0  0  0  0  0  0  0
  149.4629  157.2506  131.9246 H   0  0  0  0  0  0  0  0  0  0  0  0
  149.0298  156.9563  133.6390 H   0  0  0  0  0  0  0  0  0  0  0  0
  147.7320  155.9750  131.3000 H   0  0  0  0  0  0  0  0  0  0  0  0
  145.5502  157.4742  133.4108 H   0  0  0  0  0  0  0  0  0  0  0  0
  145.1671  153.9656  134.9297 H   0  0  0  0  0  0  0  0  0  0  0  0
  146.0936  155.5183  134.6935 H   0  0  0  0  0  0  0  0  0  0  0  0
  147.2076  152.9914  134.7216 H   0  0  0  0  0  0  0  0  0  0  0  0
  147.9158  154.4862  133.9427 H   0  0  0  0  0  0  0  0  0  0  0  0
  1  2  1  0
  2  3  1  0
  3  4  1  0
  4  5  2  0
  4  6  1  0
  6  7  1  0
  7  8  1  0
  8  9  1  0
  9 10  1  0
 10 11  1  0
 11 12  2  0
 12 13  1  0
 13 14  2  0
 14 15  1  0
 15 16  2  0
 16 17  1  0
 17 18  1  0
 17 19  2  0
 16 20  1  0
 20 21  1  0
 21 22  2  0
 21 23  1  0
 23 24  2  3
 24 25  1  0
 25 26  1  0
 20 27  1  0
 27 28  2  0
  9 29  1  0
 29 30  1  0
 30  6  1  0
 28 11  1  0
 27 14  1  0
  1 31  1  0
  1 32  1  0
  1 33  1  0
  2 34  1  0
  2 35  1  0
  6 36  1  6
  7 37  1  0
  7 38  1  0
  8 39  1  0
  8 40  1  0
  9 41  1  6
 10 42  1  0
 12 43  1  0
 13 44  1  0
 15 45  1  0
 18 46  1  0
 23 47  1  0
 24 48  1  0
 25 49  1  0
 25 50  1  0
 26 51  1  0
 28 52  1  0
 29 53  1  0
 29 54  1  0
 30 55  1  0
 30 56  1  0
M  CHG  2   6   1  18  -1
M  END
>  <UniqueID>  (28) 
28

>  <SMILES>  (28) 
CCOC(=O)[NH+]1CCC(Nc2ccc3cc(C([NH-])=O)n(C(=O)C=CCO)c3c2)CC1

>  <Energy>  (28) 
108.83510267581822

>  <Genealogy>  (28) 
CCOC(=O)[NH+]1CCC(Nc2ccc3cc(C([NH-])=O)n(C(=O)C=CCO)c3c2)CC1 (protonated)
CCOC(=O)[NH+]1CCC(Nc2ccc3cc(C([NH-])=O)n(C(=O)C=CCO)c3c2)CC1 (3D coordinates assigned)
CCOC(=O)[NH+]1CCC(Nc2ccc3cc(C([NH-])=O)n(C(=O)C=CCO)c3c2)CC1 (nonaromatic ring conformer: 108.83510267581822 kcal/mol)

>  <smiles>  (28) 
CCOC(=O)N1CCC(Nc2ccc3cc(C(N)=O)n(C(=O)C=CCO)c3c2)CC1

>  <score_type>  (28) 
oracle

>  <origin>  (28) 
adg

>  <m_score__min__energy>  (28) 
-8.4000000000000004

>  <m_primary>  (28) 
energy

$$$$
28:0
     RDKit          3D

 41 43  0  0  0  0  0  0  0  0999 V2000
  146.0090  162.7720  133.7370 H   0  0  0  0  0  0  0  0  0  0  0  0
  145.2890  162.2410  134.2770 N   0  0  0  0  0  0  0  0  0  0  0  0
  144.7850  160.9970  133.7970 C   0  0  0  0  0  0  0  0  0  0  0  0
  143.5400  160.8230  133.7220 O   0  0  0  0  0  0  0  0  0  0  0  0
  145.7220  159.9140  133.4320 C   0  0  0  0  0  0  0  0  0  0  0  0
  147.0280  160.1390  132.9980 C   0  0  0  0  0  0  0  0  0  0  0  0
  147.5111  161.1093  132.8106 H   0  0  0  0  0  0  0  0  0  0  0  0
  147.5840  158.8870  132.8540 C   0  0  0  0  0  0  0  0  0  0  0  0
  148.8590  158.5150  132.4410 C   0  0  0  0  0  0  0  0  0  0  0  0
  149.6140  159.2716  132.1811 H   0  0  0  0  0  0  0  0  0  0  0  0
  149.1530  157.1430  132.3660 C   0  0  0  0  0  0  0  0  0  0  0  0
  150.1539  156.8173  132.0466 H   0  0  0  0  0  0  0  0  0  0  0  0
  148.1720  156.1740  132.6980 C   0  0  0  0  0  0  0  0  0  0  0  0
  148.5030  154.7120  132.6000 C   0  0  0  0  0  0  0  0  0  0  0  0
  147.8517  154.2446  131.8467 H   0  0  0  0  0  0  0  0  0  0  0  0
  148.3010  154.1050  133.8260 F   0  0  0  0  0  0  0  0  0  0  0  0
  149.8260  154.5590  132.2280 F   0  0  0  0  0  0  0  0  0  0  0  0
  146.8870  156.5900  133.1120 C   0  0  0  0  0  0  0  0  0  0  0  0
  146.1101  155.8542  133.3670 H   0  0  0  0  0  0  0  0  0  0  0  0
  146.6290  157.9630  133.1890 C   0  0  0  0  0  0  0  0  0  0  0  0
  145.4790  158.5780  133.5410 N   0  0  0  0  0  0  0  0  0  0  0  0
  144.2480  157.9270  133.8950 C   0  0  0  0  0  0  0  0  0  0  0  0
  144.2430  157.0710  134.8200 O   0  0  0  0  0  0  0  0  0  0  0  0
  143.0130  158.2260  133.1450 C   0  0  0  0  0  0  0  0  0  0  0  0
  143.0379  158.1845  132.0461 H   0  0  0  0  0  0  0  0  0  0  0  0
  141.8630  158.5460  133.7520 C   0  0  0  0  0  0  0  0  0  0  0  0
  141.8402  158.5869  134.8510 H   0  0  0  0  0  0  0  0  0  0  0  0
  140.6170  158.8480  133.0020 C   0  0  0  0  0  0  0  0  0  0  0  0
  140.4060  160.1490  132.5010 C   0  0  0  0  0  0  0  0  0  0  0  0
  141.1802  160.9177  132.6413 H   0  0  0  0  0  0  0  0  0  0  0  0
  139.2260  160.4730  131.8290 C   0  0  0  0  0  0  0  0  0  0  0  0
  139.0793  161.4895  131.4351 H   0  0  0  0  0  0  0  0  0  0  0  0
  138.2350  159.5110  131.6570 C   0  0  0  0  0  0  0  0  0  0  0  0
  137.3061  159.7692  131.1273 H   0  0  0  0  0  0  0  0  0  0  0  0
  138.4160  158.2210  132.1540 C   0  0  0  0  0  0  0  0  0  0  0  0
  137.6202  157.4727  132.0246 H   0  0  0  0  0  0  0  0  0  0  0  0
  139.6070  157.8630  132.8210 C   0  0  0  0  0  0  0  0  0  0  0  0
  139.7720  156.4480  133.3450 C   0  0  0  0  0  0  0  0  0  0  0  0
  140.9520  155.8730  132.9040 F   0  0  0  0  0  0  0  0  0  0  0  0
  139.7980  156.4540  134.7290 F   0  0  0  0  0  0  0  0  0  0  0  0
  138.7180  155.6680  132.9090 F   0  0  0  0  0  0  0  0  0  0  0  0
  1  2  1  0
  2  3  1  0
  3  4  2  0
  3  5  1  0
  5  6  2  0
  6  7  1  0
  6  8  1  0
  8  9  2  0
  9 10  1  0
  9 11  1  0
 11 12  1  0
 11 13  2  0
 13 14  1  0
 14 15  1  0
 14 16  1  0
 14 17  1  0
 13 18  1  0
 18 19  1  0
 18 20  2  0
 20 21  1  0
 21 22  1  0
 22 23  2  0
 22 24  1  0
 24 25  1  0
 24 26  2  0
 26 27  1  0
 26 28  1  0
 28 29  2  0
 29 30  1  0
 29 31  1  0
 31 32  1  0
 31 33  2  0
 33 34  1  0
 33 35  1  0
 35 36  1  0
 35 37  2  0
 37 38  1  0
 38 39  1  0
 38 40  1  0
 38 41  1  0
 21  5  1  0
 37 28  1  0
 20  8  1  0
M  CHG  1   2  -1
M  END
>  <UniqueID>  (29) 
29

>  <SMILES>  (29) 
[NH-]C(=O)c1cc2ccc(C(F)F)cc2n1C(=O)/C=C/c1ccccc1C(F)(F)F

>  <Energy>  (29) 
88.3459721962902

>  <Genealogy>  (29) 
[NH-]C(=O)c1cc2ccc(C(F)F)cc2n1C(=O)/C=C/c1ccccc1C(F)(F)F (protonated)
[NH-]C(=O)c1cc2ccc(C(F)F)cc2n1C(=O)/C=C/c1ccccc1C(F)(F)F (cis-trans isomerization)
[NH-]C(=O)c1cc2ccc(C(F)F)cc2n1C(=O)/C=C/c1ccccc1C(F)(F)F (3D coordinates assigned)
[NH-]C(=O)c1cc2ccc(C(F)F)cc2n1C(=O)/C=C/c1ccccc1C(F)(F)F (optimized conformer: 88.3459721962902 kcal/mol)

>  <smiles>  (29) 
NC(=O)c1cc2ccc(C(F)F)cc2n1C(=O)/C=C/c1ccccc1C(F)(F)F

>  <score_type>  (29) 
oracle

>  <origin>  (29) 
adg

>  <m_score__min__energy>  (29) 
-8.3499999999999996

>  <m_primary>  (29) 
energy

$$$$
29:0
     RDKit          3D

 51 53  0  0  0  0  0  0  0  0999 V2000
  138.7600  147.8830  129.4630 C   0  0  0  0  0  0  0  0  0  0  0  0
  138.7840  149.3680  129.8280 C   0  0  0  0  0  0  0  0  0  0  0  0
  139.7840  149.6480  130.8810 N   0  0  0  0  0  0  0  0  0  0  0  0
  139.1890  149.5380  132.2370 C   0  0  0  0  0  0  0  0  0  0  0  0
  140.2470  149.3720  133.3510 C   0  0  0  0  0  0  0  0  0  0  0  0
  141.6250  149.9210  132.9340 C   0  0  0  0  0  0  0  0  0  0  0  0
  141.6240  151.4570  132.7900 C   0  0  0  0  0  0  0  0  0  0  0  0
  142.5230  152.0580  133.7670 N   0  0  0  0  0  0  0  0  0  0  0  0
  142.0650  152.8130  134.8910 C   0  0  0  0  0  0  0  0  0  0  0  0
  141.3880  152.2570  135.7980 O   0  0  0  0  0  0  0  0  0  0  0  0
  142.4310  154.2600  135.0180 C   0  0  0  0  0  0  0  0  0  0  0  0
  141.5030  155.1190  134.2010 C   0  0  0  0  0  0  0  0  0  0  0  0
  140.4370  154.5250  133.4800 C   0  0  0  0  0  0  0  0  0  0  0  0
  139.5230  155.3200  132.7700 C   0  0  0  0  0  0  0  0  0  0  0  0
  139.6980  156.7010  132.7990 C   0  0  0  0  0  0  0  0  0  0  0  0
  138.9440  157.6990  132.2290 C   0  0  0  0  0  0  0  0  0  0  0  0
  139.5700  158.8890  132.5920 C   0  0  0  0  0  0  0  0  0  0  0  0
  139.1320  160.2160  132.1080 C   0  0  0  0  0  0  0  0  0  0  0  0
  137.9540  160.3260  131.3130 N   0  0  0  0  0  0  0  0  0  0  0  0
  139.8050  161.2490  132.3600 O   0  0  0  0  0  0  0  0  0  0  0  0
  140.6660  158.6380  133.3670 N   0  0  0  0  0  0  0  0  0  0  0  0
  141.5450  159.5890  133.9900 C   0  0  0  0  0  0  0  0  0  0  0  0
  141.2650  160.0730  135.1180 O   0  0  0  0  0  0  0  0  0  0  0  0
  142.7260  159.9680  133.3630 O   0  0  0  0  0  0  0  0  0  0  0  0
  140.7310  157.2930  133.4810 C   0  0  0  0  0  0  0  0  0  0  0  0
  141.6460  156.5240  134.2140 C   0  0  0  0  0  0  0  0  0  0  0  0
  142.1060  149.2300  131.6340 C   0  0  0  0  0  0  0  0  0  0  0  0
  140.9470  148.7500  130.7390 C   0  0  0  0  0  0  0  0  0  0  0  0
  138.7502  147.2795  130.3826 H   0  0  0  0  0  0  0  0  0  0  0  0
  137.8582  147.6652  128.8719 H   0  0  0  0  0  0  0  0  0  0  0  0
  139.6543  147.6362  128.8719 H   0  0  0  0  0  0  0  0  0  0  0  0
  139.0352  149.9531  128.9310 H   0  0  0  0  0  0  0  0  0  0  0  0
  137.7910  149.6470  130.2102 H   0  0  0  0  0  0  0  0  0  0  0  0
  138.6076  150.4496  132.4393 H   0  0  0  0  0  0  0  0  0  0  0  0
  138.5582  148.6369  132.2465 H   0  0  0  0  0  0  0  0  0  0  0  0
  139.9064  149.9133  134.2460 H   0  0  0  0  0  0  0  0  0  0  0  0
  140.3595  148.2962  133.5512 H   0  0  0  0  0  0  0  0  0  0  0  0
  142.3361  149.6859  133.7396 H   0  0  0  0  0  0  0  0  0  0  0  0
  141.9569  151.7265  131.7768 H   0  0  0  0  0  0  0  0  0  0  0  0
  140.6046  151.8317  132.9643 H   0  0  0  0  0  0  0  0  0  0  0  0
  142.3621  154.5582  136.0746 H   0  0  0  0  0  0  0  0  0  0  0  0
  143.4575  154.3982  134.6477 H   0  0  0  0  0  0  0  0  0  0  0  0
  140.3247  153.4307  133.4766 H   0  0  0  0  0  0  0  0  0  0  0  0
  138.6938  154.8656  132.2079 H   0  0  0  0  0  0  0  0  0  0  0  0
  138.0381  157.5825  131.6160 H   0  0  0  0  0  0  0  0  0  0  0  0
  137.4740  161.2450  131.1890 H   0  0  0  0  0  0  0  0  0  0  0  0
  142.4550  157.0030  134.7850 H   0  0  0  0  0  0  0  0  0  0  0  0
  142.7162  149.9451  131.0628 H   0  0  0  0  0  0  0  0  0  0  0  0
  142.6817  148.3405  131.9295 H   0  0  0  0  0  0  0  0  0  0  0  0
  141.2765  148.7463  129.6895 H   0  0  0  0  0  0  0  0  0  0  0  0
  140.6548  147.7349  131.0459 H   0  0  0  0  0  0  0  0  0  0  0  0
  1  2  1  0
  2  3  1  0
  3  4  1  0
  4  5  1  0
  5  6  1  0
  6  7  1  0
  7  8  1  0
  8  9  1  0
  9 10  2  0
  9 11  1  0
 11 12  1  0
 12 13  2  0
 13 14  1  0
 14 15  2  0
 15 16  1  0
 16 17  2  0
 17 18  1  0
 18 19  1  0
 18 20  2  0
 17 21  1  0
 21 22  1  0
 22 23  2  0
 22 24  1  0
 21 25  1  0
 25 26  2  0
  6 27  1  0
 27 28  1  0
 28  3  1  0
 26 12  1  0
 25 15  1  0
  1 29  1  0
  1 30  1  0
  1 31  1  0
  2 32  1  0
  2 33  1  0
  4 34  1  0
  4 35  1  0
  5 36  1  0
  5 37  1  0
  6 38  1  0
  7 39  1  0
  7 40  1  0
 11 41  1  0
 11 42  1  0
 13 43  1  0
 14 44  1  0
 16 45  1  0
 19 46  1  0
 26 47  1  0
 27 48  1  0
 27 49  1  0
 28 50  1  0
 28 51  1  0
M  CHG  3   8  -1  19  -1  24  -1
M  END
>  <UniqueID>  (30) 
30

>  <SMILES>  (30) 
CCN1CCC(C[N-]C(=O)Cc2ccc3cc(C([NH-])=O)n(C(=O)[O-])c3c2)CC1

>  <Energy>  (30) 
91.05173982847924

>  <Genealogy>  (30) 
CCN1CCC(C[N-]C(=O)Cc2ccc3cc(C([NH-])=O)n(C(=O)[O-])c3c2)CC1 (protonated)
CCN1CCC(C[N-]C(=O)Cc2ccc3cc(C([NH-])=O)n(C(=O)[O-])c3c2)CC1 (3D coordinates assigned)
CCN1CCC(C[N-]C(=O)Cc2ccc3cc(C([NH-])=O)n(C(=O)[O-])c3c2)CC1 (nonaromatic ring conformer: 91.05173982847924 kcal/mol)

>  <smiles>  (30) 
CCN1CCC(CNC(=O)Cc2ccc3cc(C(N)=O)n(C(=O)O)c3c2)CC1

>  <score_type>  (30) 
oracle

>  <origin>  (30) 
adg

>  <m_score__min__energy>  (30) 
-8.9100000000000001

>  <m_primary>  (30) 
energy

$$$$
30:0
     RDKit          3D

 55 56  0  0  0  0  0  0  0  0999 V2000
  148.5510  152.5210  137.2070 C   0  0  0  0  0  0  0  0  0  0  0  0
  147.1310  152.8950  137.1040 N   0  0  0  0  0  0  0  0  0  0  0  0
  146.4450  152.5720  138.3670 C   0  0  0  0  0  0  0  0  0  0  0  0
  146.9800  154.3330  136.7900 C   0  0  0  0  0  0  0  0  0  0  0  0
  146.1990  154.5460  135.4830 C   0  0  0  0  0  0  0  0  0  0  0  0
  147.0280  155.2820  134.4620 C   0  0  0  0  0  0  0  0  0  0  0  0
  148.0590  154.6050  133.7620 C   0  0  0  0  0  0  0  0  0  0  0  0
  148.8820  155.2960  132.8550 C   0  0  0  0  0  0  0  0  0  0  0  0
  148.6570  156.6580  132.6780 C   0  0  0  0  0  0  0  0  0  0  0  0
  149.2980  157.5650  131.8650 C   0  0  0  0  0  0  0  0  0  0  0  0
  148.6560  158.7820  132.0910 C   0  0  0  0  0  0  0  0  0  0  0  0
  149.0800  160.0590  131.4830 C   0  0  0  0  0  0  0  0  0  0  0  0
  148.1170  160.8890  130.8370 N   0  0  0  0  0  0  0  0  0  0  0  0
  150.2890  160.4130  131.5020 O   0  0  0  0  0  0  0  0  0  0  0  0
  147.6550  158.6280  133.0030 N   0  0  0  0  0  0  0  0  0  0  0  0
  146.7220  159.6160  133.4630 C   0  0  0  0  0  0  0  0  0  0  0  0
  147.0220  160.8380  133.3880 O   0  0  0  0  0  0  0  0  0  0  0  0
  145.5100  159.2160  134.0350 O   0  0  0  0  0  0  0  0  0  0  0  0
  144.2650  159.7940  133.6510 C   0  0  0  0  0  0  0  0  0  0  0  0
  143.2000  158.7120  133.4580 C   0  0  0  0  0  0  0  0  0  0  0  0
  141.8860  159.0150  134.1990 C   0  0  0  0  0  0  0  0  0  0  0  0
  140.9420  159.9070  133.4210 C   0  0  0  0  0  0  0  0  0  0  0  0
  141.1800  161.1460  133.3750 O   0  0  0  0  0  0  0  0  0  0  0  0
  139.8420  159.3610  132.6530 N   0  0  0  0  0  0  0  0  0  0  0  0
  139.0780  160.2200  131.7410 C   0  0  0  0  0  0  0  0  0  0  0  0
  139.5820  157.9180  132.6250 C   0  0  0  0  0  0  0  0  0  0  0  0
  147.6740  157.3260  133.3580 C   0  0  0  0  0  0  0  0  0  0  0  0
  146.8320  156.6640  134.2570 C   0  0  0  0  0  0  0  0  0  0  0  0
  148.8345  152.4463  138.2672 H   0  0  0  0  0  0  0  0  0  0  0  0
  148.7110  151.5501  136.7154 H   0  0  0  0  0  0  0  0  0  0  0  0
  149.1685  153.2871  136.7154 H   0  0  0  0  0  0  0  0  0  0  0  0
  147.0787  152.8704  139.2152 H   0  0  0  0  0  0  0  0  0  0  0  0
  145.4894  153.1148  138.4145 H   0  0  0  0  0  0  0  0  0  0  0  0
  146.2546  151.4896  138.4145 H   0  0  0  0  0  0  0  0  0  0  0  0
  146.4398  154.8236  137.6131 H   0  0  0  0  0  0  0  0  0  0  0  0
  147.9835  154.7662  136.6666 H   0  0  0  0  0  0  0  0  0  0  0  0
  145.9130  153.5662  135.0730 H   0  0  0  0  0  0  0  0  0  0  0  0
  145.3075  155.1504  135.7065 H   0  0  0  0  0  0  0  0  0  0  0  0
  148.2164  153.5294  133.9301 H   0  0  0  0  0  0  0  0  0  0  0  0
  149.6787  154.7763  132.3026 H   0  0  0  0  0  0  0  0  0  0  0  0
  150.1382  157.3710  131.1821 H   0  0  0  0  0  0  0  0  0  0  0  0
  147.2110  161.1220  131.2990 H   0  0  0  0  0  0  0  0  0  0  0  0
  143.9336  160.4904  134.4353 H   0  0  0  0  0  0  0  0  0  0  0  0
  144.4026  160.3271  132.6987 H   0  0  0  0  0  0  0  0  0  0  0  0
  142.9827  158.6232  132.3833 H   0  0  0  0  0  0  0  0  0  0  0  0
  143.6034  157.7783  133.8768 H   0  0  0  0  0  0  0  0  0  0  0  0
  141.3749  158.0627  134.4037 H   0  0  0  0  0  0  0  0  0  0  0  0
  142.1526  159.5538  135.1202 H   0  0  0  0  0  0  0  0  0  0  0  0
  138.4588  160.9163  132.3256 H   0  0  0  0  0  0  0  0  0  0  0  0
  139.7724  160.7907  131.1069 H   0  0  0  0  0  0  0  0  0  0  0  0
  138.4302  159.5969  131.1069 H   0  0  0  0  0  0  0  0  0  0  0  0
  139.5135  157.5377  133.6549 H   0  0  0  0  0  0  0  0  0  0  0  0
  138.6348  157.7262  132.0995 H   0  0  0  0  0  0  0  0  0  0  0  0
  140.4027  157.4077  132.0995 H   0  0  0  0  0  0  0  0  0  0  0  0
  146.0376  157.2066  134.7904 H   0  0  0  0  0  0  0  0  0  0  0  0
  1  2  1  0
  2  3  1  0
  2  4  1  0
  4  5  1  0
  5  6  1  0
  6  7  2  0
  7  8  1  0
  8  9  2  0
  9 10  1  0
 10 11  2  0
 11 12  1  0
 12 13  1  0
 12 14  2  0
 11 15  1  0
 15 16  1  0
 16 17  2  0
 16 18  1  0
 18 19  1  0
 19 20  1  0
 20 21  1  0
 21 22  1  0
 22 23  2  0
 22 24  1  0
 24 25  1  0
 24 26  1  0
 15 27  1  0
 27 28  2  0
 28  6  1  0
 27  9  1  0
  1 29  1  0
  1 30  1  0
  1 31  1  0
  3 32  1  0
  3 33  1  0
  3 34  1  0
  4 35  1  0
  4 36  1  0
  5 37  1  0
  5 38  1  0
  7 39  1  0
  8 40  1  0
 10 41  1  0
 13 42  1  0
 19 43  1  0
 19 44  1  0
 20 45  1  0
 20 46  1  0
 21 47  1  0
 21 48  1  0
 25 49  1  0
 25 50  1  0
 25 51  1  0
 26 52  1  0
 26 53  1  0
 26 54  1  0
 28 55  1  0
M  CHG  1  13  -1
M  END
>  <UniqueID>  (31) 
31

>  <SMILES>  (31) 
CN(C)CCc1ccc2cc(C([NH-])=O)n(C(=O)OCCCC(=O)N(C)C)c2c1

>  <Energy>  (31) 
84.12366408720858

>  <Genealogy>  (31) 
CN(C)CCc1ccc2cc(C([NH-])=O)n(C(=O)OCCCC(=O)N(C)C)c2c1 (protonated)
CN(C)CCc1ccc2cc(C([NH-])=O)n(C(=O)OCCCC(=O)N(C)C)c2c1 (3D coordinates assigned)
CN(C)CCc1ccc2cc(C([NH-])=O)n(C(=O)OCCCC(=O)N(C)C)c2c1 (optimized conformer: 84.12366408720858 kcal/mol)

>  <smiles>  (31) 
CN(C)CCc1ccc2cc(C(N)=O)n(C(=O)OCCCC(=O)N(C)C)c2c1

>  <score_type>  (31) 
oracle

>  <origin>  (31) 
adg

>  <m_score__min__energy>  (31) 
-7.54

>  <m_primary>  (31) 
energy

$$$$
31:0
     RDKit          3D

 42 45  0  0  0  0  0  0  0  0999 V2000
  142.4350  151.9320  132.9520 C   0  0  0  0  0  0  0  0  0  0  0  0
  143.1310  153.1970  132.7650 N   0  0  0  0  0  0  0  0  0  0  0  0
  144.3690  153.3470  132.2610 C   0  0  0  0  0  0  0  0  0  0  0  0
  144.6990  154.6850  132.3130 C   0  0  0  0  0  0  0  0  0  0  0  0
  143.5930  155.2990  132.8850 C   0  0  0  0  0  0  0  0  0  0  0  0
  143.4250  156.7430  133.1810 C   0  0  0  0  0  0  0  0  0  0  0  0
  142.1400  157.2970  133.4260 C   0  0  0  0  0  0  0  0  0  0  0  0
  141.9890  158.6620  133.7180 C   0  0  0  0  0  0  0  0  0  0  0  0
  143.1320  159.4540  133.7510 C   0  0  0  0  0  0  0  0  0  0  0  0
  143.2710  160.7920  134.0410 C   0  0  0  0  0  0  0  0  0  0  0  0
  144.6350  161.0480  133.9420 C   0  0  0  0  0  0  0  0  0  0  0  0
  145.2240  162.3910  134.1160 C   0  0  0  0  0  0  0  0  0  0  0  0
  146.6000  162.5570  134.4650 N   0  0  0  0  0  0  0  0  0  0  0  0
  144.5150  163.4100  133.9000 O   0  0  0  0  0  0  0  0  0  0  0  0
  145.3160  159.9130  133.6180 N   0  0  0  0  0  0  0  0  0  0  0  0
  146.7420  159.7460  133.5410 C   0  0  0  0  0  0  0  0  0  0  0  0
  147.2940  158.7750  134.1260 O   0  0  0  0  0  0  0  0  0  0  0  0
  147.5340  160.7160  132.8440 N   0  0  0  0  0  0  0  0  0  0  0  0
  148.3180  160.4880  131.6660 C   0  0  0  0  0  0  0  0  0  0  0  0
  148.4990  159.2050  131.1210 C   0  0  0  0  0  0  0  0  0  0  0  0
  149.2490  159.0430  129.9540 C   0  0  0  0  0  0  0  0  0  0  0  0
  149.7970  160.1660  129.3320 C   0  0  0  0  0  0  0  0  0  0  0  0
  149.5920  161.4020  129.8570 N   0  0  0  0  0  0  0  0  0  0  0  0
  148.8670  161.5850  130.9920 C   0  0  0  0  0  0  0  0  0  0  0  0
  144.3790  158.9450  133.5010 C   0  0  0  0  0  0  0  0  0  0  0  0
  144.5620  157.5840  133.2280 C   0  0  0  0  0  0  0  0  0  0  0  0
  142.6560  154.3670  133.1580 N   0  0  0  0  0  0  0  0  0  0  0  0
  142.3239  151.7301  134.0276 H   0  0  0  0  0  0  0  0  0  0  0  0
  141.4407  151.9880  132.4848 H   0  0  0  0  0  0  0  0  0  0  0  0
  143.0145  151.1221  132.4848 H   0  0  0  0  0  0  0  0  0  0  0  0
  145.0088  152.5404  131.8736 H   0  0  0  0  0  0  0  0  0  0  0  0
  145.6319  155.1604  131.9759 H   0  0  0  0  0  0  0  0  0  0  0  0
  141.2523  156.6485  133.3864 H   0  0  0  0  0  0  0  0  0  0  0  0
  140.9960  159.0924  133.9149 H   0  0  0  0  0  0  0  0  0  0  0  0
  142.4743  161.5062  134.2964 H   0  0  0  0  0  0  0  0  0  0  0  0
  146.9870  163.5130  134.6290 H   0  0  0  0  0  0  0  0  0  0  0  0
  147.2540  161.7440  134.4850 H   0  0  0  0  0  0  0  0  0  0  0  0
  148.0504  158.3295  131.6131 H   0  0  0  0  0  0  0  0  0  0  0  0
  149.4062  158.0405  129.5293 H   0  0  0  0  0  0  0  0  0  0  0  0
  150.3952  160.0501  128.4162 H   0  0  0  0  0  0  0  0  0  0  0  0
  148.7108  162.6012  131.3832 H   0  0  0  0  0  0  0  0  0  0  0  0
  145.5689  157.1769  133.0536 H   0  0  0  0  0  0  0  0  0  0  0  0
  1  2  1  0
  2  3  1  0
  3  4  2  0
  4  5  1  0
  5  6  1  0
  6  7  2  0
  7  8  1  0
  8  9  2  0
  9 10  1  0
 10 11  2  0
 11 12  1  0
 12 13  1  0
 12 14  2  0
 11 15  1  0
 15 16  1  0
 16 17  2  0
 16 18  1  0
 18 19  1  0
 19 20  2  0
 20 21  1  0
 21 22  2  0
 22 23  1  0
 23 24  2  0
 15 25  1  0
 25 26  2  0
  5 27  2  0
 27  2  1  0
 26  6  1  0
 25  9  1  0
 24 19  1  0
  1 28  1  0
  1 29  1  0
  1 30  1  0
  3 31  1  0
  4 32  1  0
  7 33  1  0
  8 34  1  0
 10 35  1  0
 13 36  1  0
 13 37  1  0
 20 38  1  0
 21 39  1  0
 22 40  1  0
 24 41  1  0
 26 42  1  0
M  CHG  1  18  -1
M  END
>  <UniqueID>  (32) 
32

>  <SMILES>  (32) 
Cn1ccc(-c2ccc3cc(C(N)=O)n(C(=O)[N-]c4cccnc4)c3c2)n1

>  <Energy>  (32) 
120.23033133666375

>  <Genealogy>  (32) 
Cn1ccc(-c2ccc3cc(C(N)=O)n(C(=O)[N-]c4cccnc4)c3c2)n1 (protonated)
Cn1ccc(-c2ccc3cc(C(N)=O)n(C(=O)[N-]c4cccnc4)c3c2)n1 (3D coordinates assigned)
Cn1ccc(-c2ccc3cc(C(N)=O)n(C(=O)[N-]c4cccnc4)c3c2)n1 (optimized conformer: 120.23033133666375 kcal/mol)

>  <smiles>  (32) 
Cn1ccc(-c2ccc3cc(C(N)=O)n(C(=O)Nc4cccnc4)c3c2)n1

>  <score_type>  (32) 
oracle

>  <origin>  (32) 
adg

>  <m_score__min__energy>  (32) 
-8.7799999999999994

>  <m_primary>  (32) 
energy

$$$$
32:0
     RDKit          3D

 38 40  0  0  0  0  0  0  0  0999 V2000
  150.0410  159.9140  129.5730 C   0  0  0  0  0  0  0  0  0  0  0  0
  149.2180  159.9370  130.6280 C   0  0  0  0  0  0  0  0  0  0  0  0
  148.6070  161.2330  131.0590 C   0  0  0  0  0  0  0  0  0  0  0  0
  148.9580  158.7930  131.3980 O   0  0  0  0  0  0  0  0  0  0  0  0
  148.5110  158.7890  132.7280 C   0  0  0  0  0  0  0  0  0  0  0  0
  149.2380  159.2490  133.6490 O   0  0  0  0  0  0  0  0  0  0  0  0
  147.2440  158.1920  133.0490 N   0  0  0  0  0  0  0  0  0  0  0  0
  146.0980  158.8290  133.4230 C   0  0  0  0  0  0  0  0  0  0  0  0
  145.8930  160.2940  133.4370 C   0  0  0  0  0  0  0  0  0  0  0  0
  146.9770  161.1810  133.7170 N   0  0  0  0  0  0  0  0  0  0  0  0
  144.7470  160.7750  133.2300 O   0  0  0  0  0  0  0  0  0  0  0  0
  145.0970  157.9010  133.7090 C   0  0  0  0  0  0  0  0  0  0  0  0
  145.6690  156.6690  133.4930 C   0  0  0  0  0  0  0  0  0  0  0  0
  145.1270  155.3960  133.6300 C   0  0  0  0  0  0  0  0  0  0  0  0
  145.9550  154.2930  133.3610 C   0  0  0  0  0  0  0  0  0  0  0  0
  147.3070  154.4780  132.9700 C   0  0  0  0  0  0  0  0  0  0  0  0
  148.1770  153.3040  132.7000 C   0  0  0  0  0  0  0  0  0  0  0  0
  147.6380  152.0190  132.5360 C   0  0  0  0  0  0  0  0  0  0  0  0
  148.4530  150.9620  132.2880 N   0  0  0  0  0  0  0  0  0  0  0  0
  149.7980  151.1230  132.1990 C   0  0  0  0  0  0  0  0  0  0  0  0
  150.3480  152.3540  132.3560 N   0  0  0  0  0  0  0  0  0  0  0  0
  149.5700  153.4400  132.6000 C   0  0  0  0  0  0  0  0  0  0  0  0
  147.8190  155.7900  132.8410 C   0  0  0  0  0  0  0  0  0  0  0  0
  146.9650  156.8700  133.0960 C   0  0  0  0  0  0  0  0  0  0  0  0
  150.4943  158.9654  129.2497 H   0  0  0  0  0  0  0  0  0  0  0  0
  150.2641  160.8438  129.0291 H   0  0  0  0  0  0  0  0  0  0  0  0
  148.5847  161.2804  132.1578 H   0  0  0  0  0  0  0  0  0  0  0  0
  149.2060  162.0687  130.6681 H   0  0  0  0  0  0  0  0  0  0  0  0
  147.5812  161.3027  130.6681 H   0  0  0  0  0  0  0  0  0  0  0  0
  146.8130  162.2110  133.7620 H   0  0  0  0  0  0  0  0  0  0  0  0
  147.9530  160.8270  133.8360 H   0  0  0  0  0  0  0  0  0  0  0  0
  144.0683  158.1100  134.0376 H   0  0  0  0  0  0  0  0  0  0  0  0
  144.0808  155.2564  133.9399 H   0  0  0  0  0  0  0  0  0  0  0  0
  145.5507  153.2743  133.4545 H   0  0  0  0  0  0  0  0  0  0  0  0
  146.5509  151.8675  132.6086 H   0  0  0  0  0  0  0  0  0  0  0  0
  150.4431  150.2546  131.9994 H   0  0  0  0  0  0  0  0  0  0  0  0
  150.0337  154.4303  132.7197 H   0  0  0  0  0  0  0  0  0  0  0  0
  148.8654  155.9584  132.5467 H   0  0  0  0  0  0  0  0  0  0  0  0
  1  2  2  0
  2  3  1  0
  2  4  1  0
  4  5  1  0
  5  6  2  0
  5  7  1  0
  7  8  1  0
  8  9  1  0
  9 10  1  0
  9 11  2  0
  8 12  2  0
 12 13  1  0
 13 14  2  0
 14 15  1  0
 15 16  2  0
 16 17  1  0
 17 18  2  0
 18 19  1  0
 19 20  2  0
 20 21  1  0
 21 22  2  0
 16 23  1  0
 23 24  2  0
 24  7  1  0
 24 13  1  0
 22 17  1  0
  1 25  1  0
  1 26  1  0
  3 27  1  0
  3 28  1  0
  3 29  1  0
 10 30  1  0
 10 31  1  0
 12 32  1  0
 14 33  1  0
 15 34  1  0
 18 35  1  0
 20 36  1  0
 22 37  1  0
 23 38  1  0
M  END
>  <UniqueID>  (33) 
33

>  <SMILES>  (33) 
C=C(C)OC(=O)n1c(C(N)=O)cc2ccc(-c3cncnc3)cc21

>  <Energy>  (33) 
87.76852848791111

>  <Genealogy>  (33) 
C=C(C)OC(=O)n1c(C(N)=O)cc2ccc(-c3cncnc3)cc21 (3D coordinates assigned)
C=C(C)OC(=O)n1c(C(N)=O)cc2ccc(-c3cncnc3)cc21 (optimized conformer: 87.76852848791111 kcal/mol)

>  <smiles>  (33) 
C=C(C)OC(=O)n1c(C(N)=O)cc2ccc(-c3cncnc3)cc21

>  <score_type>  (33) 
oracle

>  <origin>  (33) 
adg

>  <m_score__min__energy>  (33) 
-7.5099999999999998

>  <m_primary>  (33) 
energy

$$$$
33:0
     RDKit          3D

 61 65  0  0  0  0  0  0  0  0999 V2000
  143.8770  163.4420  133.3390 N   0  0  0  0  0  0  0  0  0  0  0  0
  144.7970  162.6710  134.1070 C   0  0  0  0  0  0  0  0  0  0  0  0
  145.5290  163.2440  134.9580 O   0  0  0  0  0  0  0  0  0  0  0  0
  144.8800  161.2100  133.9290 C   0  0  0  0  0  0  0  0  0  0  0  0
  146.0620  160.5040  133.7270 C   0  0  0  0  0  0  0  0  0  0  0  0
  145.6810  159.1800  133.6250 C   0  0  0  0  0  0  0  0  0  0  0  0
  146.4500  158.0230  133.4920 C   0  0  0  0  0  0  0  0  0  0  0  0
  145.7760  156.7870  133.4490 C   0  0  0  0  0  0  0  0  0  0  0  0
  144.3580  156.7270  133.5150 C   0  0  0  0  0  0  0  0  0  0  0  0
  143.6590  155.4270  133.4840 C   0  0  0  0  0  0  0  0  0  0  0  0
  143.7640  154.5870  132.3650 C   0  0  0  0  0  0  0  0  0  0  0  0
  143.1090  153.3560  132.3440 C   0  0  0  0  0  0  0  0  0  0  0  0
  142.3220  152.9400  133.4300 C   0  0  0  0  0  0  0  0  0  0  0  0
  141.6340  151.6200  133.3700 C   0  0  0  0  0  0  0  0  0  0  0  0
  141.2980  151.0680  134.4580 O   0  0  0  0  0  0  0  0  0  0  0  0
  141.3300  150.9680  132.1070 N   0  0  0  0  0  0  0  0  0  0  0  0
  139.8570  150.8610  131.9330 C   0  0  0  0  0  0  0  0  0  0  0  0
  139.4880  149.6290  131.0810 C   0  0  0  0  0  0  0  0  0  0  0  0
  139.8770  148.4000  131.6820 O   0  0  0  0  0  0  0  0  0  0  0  0
  141.0700  148.4880  132.4500 C   0  0  0  0  0  0  0  0  0  0  0  0
  142.0090  149.6450  132.0180 C   0  0  0  0  0  0  0  0  0  0  0  0
  142.2270  153.7780  134.5590 C   0  0  0  0  0  0  0  0  0  0  0  0
  142.8970  155.0060  134.5850 C   0  0  0  0  0  0  0  0  0  0  0  0
  143.6180  157.9210  133.6560 C   0  0  0  0  0  0  0  0  0  0  0  0
  144.3170  159.1280  133.7300 C   0  0  0  0  0  0  0  0  0  0  0  0
  143.8150  160.3620  133.9280 N   0  0  0  0  0  0  0  0  0  0  0  0
  142.4350  160.6630  134.1520 C   0  0  0  0  0  0  0  0  0  0  0  0
  141.8830  161.5880  133.4940 O   0  0  0  0  0  0  0  0  0  0  0  0
  141.7220  159.9260  135.1040 O   0  0  0  0  0  0  0  0  0  0  0  0
  140.6170  159.0720  134.8060 C   0  0  0  0  0  0  0  0  0  0  0  0
  140.1150  158.3650  136.0810 C   0  0  0  0  0  0  0  0  0  0  0  0
  140.7940  157.0220  136.3620 C   0  0  0  0  0  0  0  0  0  0  0  0
  141.3740  157.5870  137.6550 C   0  0  0  0  0  0  0  0  0  0  0  0
  140.7160  158.9300  137.3720 C   0  0  0  0  0  0  0  0  0  0  0  0
  142.8720  163.5030  133.6040 H   0  0  0  0  0  0  0  0  0  0  0  0
  147.0813  160.9126  133.6624 H   0  0  0  0  0  0  0  0  0  0  0  0
  147.5466  158.0747  133.4230 H   0  0  0  0  0  0  0  0  0  0  0  0
  146.3552  155.8558  133.3632 H   0  0  0  0  0  0  0  0  0  0  0  0
  144.3662  154.9011  131.4997 H   0  0  0  0  0  0  0  0  0  0  0  0
  143.2102  152.7023  131.4651 H   0  0  0  0  0  0  0  0  0  0  0  0
  141.7020  151.5510  131.3170 H   0  0  0  0  0  0  0  0  0  0  0  0
  139.3839  150.7691  132.9218 H   0  0  0  0  0  0  0  0  0  0  0  0
  139.4990  151.7638  131.4164 H   0  0  0  0  0  0  0  0  0  0  0  0
  138.3978  149.6179  130.9348 H   0  0  0  0  0  0  0  0  0  0  0  0
  140.0298  149.7146  130.1275 H   0  0  0  0  0  0  0  0  0  0  0  0
  140.7936  148.6407  133.5037 H   0  0  0  0  0  0  0  0  0  0  0  0
  141.6230  147.5504  132.2913 H   0  0  0  0  0  0  0  0  0  0  0  0
  142.8913  149.6522  132.6749 H   0  0  0  0  0  0  0  0  0  0  0  0
  142.2991  149.4782  130.9701 H   0  0  0  0  0  0  0  0  0  0  0  0
  141.6234  153.4652  135.4238 H   0  0  0  0  0  0  0  0  0  0  0  0
  142.8260  155.6471  135.4761 H   0  0  0  0  0  0  0  0  0  0  0  0
  142.5193  157.9013  133.7063 H   0  0  0  0  0  0  0  0  0  0  0  0
  139.7999  159.6737  134.3813 H   0  0  0  0  0  0  0  0  0  0  0  0
  140.9443  158.3091  134.0843 H   0  0  0  0  0  0  0  0  0  0  0  0
  139.0318  158.4116  135.8951 H   0  0  0  0  0  0  0  0  0  0  0  0
  140.0936  156.1870  136.5110 H   0  0  0  0  0  0  0  0  0  0  0  0
  141.4525  156.5625  135.6101 H   0  0  0  0  0  0  0  0  0  0  0  0
  141.0062  157.0909  138.5653 H   0  0  0  0  0  0  0  0  0  0  0  0
  142.4552  157.5295  137.8491 H   0  0  0  0  0  0  0  0  0  0  0  0
  139.9686  159.2304  138.1211 H   0  0  0  0  0  0  0  0  0  0  0  0
  141.3178  159.8505  137.3491 H   0  0  0  0  0  0  0  0  0  0  0  0
  1  2  1  0
  2  3  2  0
  2  4  1  0
  4  5  2  0
  5  6  1  0
  6  7  2  0
  7  8  1  0
  8  9  2  0
  9 10  1  0
 10 11  2  0
 11 12  1  0
 12 13  2  0
 13 14  1  0
 14 15  2  0
 14 16  1  0
 16 17  1  0
 17 18  1  0
 18 19  1  0
 19 20  1  0
 20 21  1  0
 13 22  1  0
 22 23  2  0
  9 24  1  0
 24 25  2  0
 25 26  1  0
 26 27  1  0
 27 28  2  0
 27 29  1  0
 29 30  1  0
 30 31  1  0
 31 32  1  0
 32 33  1  0
 33 34  1  0
 26  4  1  0
 34 31  1  0
 25  6  1  0
 23 10  1  0
 21 16  1  0
  1 35  1  0
  5 36  1  0
  7 37  1  0
  8 38  1  0
 11 39  1  0
 12 40  1  0
 16 41  1  0
 17 42  1  0
 17 43  1  0
 18 44  1  0
 18 45  1  0
 20 46  1  0
 20 47  1  0
 21 48  1  0
 21 49  1  0
 22 50  1  0
 23 51  1  0
 24 52  1  0
 30 53  1  0
 30 54  1  0
 31 55  1  0
 32 56  1  0
 32 57  1  0
 33 58  1  0
 33 59  1  0
 34 60  1  0
 34 61  1  0
M  CHG  2   1  -1  16   1
M  END
>  <UniqueID>  (34) 
34

>  <SMILES>  (34) 
[NH-]C(=O)c1cc2ccc(-c3ccc(C(=O)[NH+]4CCOCC4)cc3)cc2n1C(=O)OCC1CCC1

>  <Energy>  (34) 
190.85063451672337

>  <Genealogy>  (34) 
[NH-]C(=O)c1cc2ccc(-c3ccc(C(=O)[NH+]4CCOCC4)cc3)cc2n1C(=O)OCC1CCC1 (protonated)
[NH-]C(=O)c1cc2ccc(-c3ccc(C(=O)[NH+]4CCOCC4)cc3)cc2n1C(=O)OCC1CCC1 (3D coordinates assigned)
[NH-]C(=O)c1cc2ccc(-c3ccc(C(=O)[NH+]4CCOCC4)cc3)cc2n1C(=O)OCC1CCC1 (nonaromatic ring conformer: 190.85063451672337 kcal/mol)

>  <smiles>  (34) 
NC(=O)c1cc2ccc(-c3ccc(C(=O)N4CCOCC4)cc3)cc2n1C(=O)OCC1CCC1

>  <score_type>  (34) 
oracle

>  <origin>  (34) 
adg

>  <m_score__min__energy>  (34) 
-10.66

>  <m_primary>  (34) 
energy

$$$$
34:0
     RDKit          3D

 62 64  0  0  0  0  0  0  0  0999 V2000
  139.8190  150.3140  137.7360 C   0  0  0  0  0  0  0  0  0  0  0  0
  140.6480  150.8070  136.7050 O   0  0  0  0  0  0  0  0  0  0  0  0
  141.3800  151.9330  137.1530 C   0  0  0  0  0  0  0  0  0  0  0  0
  141.8520  152.7700  135.9600 C   0  0  0  0  0  0  0  0  0  0  0  0
  141.4350  152.1340  134.7650 O   0  0  0  0  0  0  0  0  0  0  0  0
  142.3460  152.4110  133.7160 C   0  0  0  0  0  0  0  0  0  0  0  0
  141.6430  153.2340  132.6450 C   0  0  0  0  0  0  0  0  0  0  0  0
  141.5010  154.5620  133.1080 O   0  0  0  0  0  0  0  0  0  0  0  0
  140.1430  154.8680  133.3560 C   0  0  0  0  0  0  0  0  0  0  0  0
  139.9480  156.3780  133.5170 C   0  0  0  0  0  0  0  0  0  0  0  0
  141.0120  157.0820  134.7760 S   0  0  0  0  0  0  0  0  0  0  0  0
  140.7360  158.5580  134.8630 O   0  0  0  0  0  0  0  0  0  0  0  0
  140.6600  156.4580  136.0990 O   0  0  0  0  0  0  0  0  0  0  0  0
  142.7640  156.8170  134.4790 C   0  0  0  0  0  0  0  0  0  0  0  0
  143.2940  157.5680  133.2820 C   0  0  0  0  0  0  0  0  0  0  0  0
  142.5540  157.7070  132.2710 O   0  0  0  0  0  0  0  0  0  0  0  0
  144.5940  158.2040  133.2940 N   0  0  0  0  0  0  0  0  0  0  0  0
  144.8460  159.5190  133.5560 C   0  0  0  0  0  0  0  0  0  0  0  0
  143.8330  160.5780  133.7330 C   0  0  0  0  0  0  0  0  0  0  0  0
  142.4410  160.2770  133.6680 N   0  0  0  0  0  0  0  0  0  0  0  0
  144.2040  161.7720  133.8890 O   0  0  0  0  0  0  0  0  0  0  0  0
  146.2120  159.7660  133.6290 C   0  0  0  0  0  0  0  0  0  0  0  0
  146.8080  158.5510  133.4100 C   0  0  0  0  0  0  0  0  0  0  0  0
  148.1580  158.2190  133.4160 C   0  0  0  0  0  0  0  0  0  0  0  0
  148.5080  156.8750  133.2230 C   0  0  0  0  0  0  0  0  0  0  0  0
  147.5080  155.8880  133.0420 C   0  0  0  0  0  0  0  0  0  0  0  0
  147.8860  154.4720  132.8170 C   0  0  0  0  0  0  0  0  0  0  0  0
  149.2400  154.1220  132.6410 C   0  0  0  0  0  0  0  0  0  0  0  0
  149.6060  152.7890  132.4340 C   0  0  0  0  0  0  0  0  0  0  0  0
  148.6300  151.7880  132.4080 C   0  0  0  0  0  0  0  0  0  0  0  0
  148.9930  150.4940  132.2130 F   0  0  0  0  0  0  0  0  0  0  0  0
  147.2830  152.1200  132.5890 C   0  0  0  0  0  0  0  0  0  0  0  0
  146.3380  151.1470  132.5750 F   0  0  0  0  0  0  0  0  0  0  0  0
  146.9080  153.4550  132.7950 C   0  0  0  0  0  0  0  0  0  0  0  0
  145.6000  153.7440  133.0100 F   0  0  0  0  0  0  0  0  0  0  0  0
  146.1440  156.2610  133.0670 C   0  0  0  0  0  0  0  0  0  0  0  0
  145.8180  157.6170  133.2220 C   0  0  0  0  0  0  0  0  0  0  0  0
  140.2546  150.5731  138.7123 H   0  0  0  0  0  0  0  0  0  0  0  0
  138.8191  150.7643  137.6495 H   0  0  0  0  0  0  0  0  0  0  0  0
  139.7373  149.2204  137.6495 H   0  0  0  0  0  0  0  0  0  0  0  0
  140.7373  152.5504  137.7977 H   0  0  0  0  0  0  0  0  0  0  0  0
  142.2587  151.5869  137.7170 H   0  0  0  0  0  0  0  0  0  0  0  0
  141.4116  153.7764  136.0167 H   0  0  0  0  0  0  0  0  0  0  0  0
  142.9484  152.8580  135.9746 H   0  0  0  0  0  0  0  0  0  0  0  0
  143.2018  152.9773  134.1122 H   0  0  0  0  0  0  0  0  0  0  0  0
  142.7047  151.4670  133.2799 H   0  0  0  0  0  0  0  0  0  0  0  0
  142.2411  153.2267  131.7218 H   0  0  0  0  0  0  0  0  0  0  0  0
  140.6523  152.8044  132.4352 H   0  0  0  0  0  0  0  0  0  0  0  0
  139.5332  154.5133  132.5120 H   0  0  0  0  0  0  0  0  0  0  0  0
  139.8332  154.3707  134.2870 H   0  0  0  0  0  0  0  0  0  0  0  0
  140.1691  156.8659  132.5562 H   0  0  0  0  0  0  0  0  0  0  0  0
  138.9068  156.5474  133.8289 H   0  0  0  0  0  0  0  0  0  0  0  0
  143.3211  157.1440  135.3694 H   0  0  0  0  0  0  0  0  0  0  0  0
  142.8977  155.7449  134.2724 H   0  0  0  0  0  0  0  0  0  0  0  0
  142.1220  159.3250  133.3960 H   0  0  0  0  0  0  0  0  0  0  0  0
  141.7290  161.0190  133.8570 H   0  0  0  0  0  0  0  0  0  0  0  0
  146.7079  160.7289  133.8211 H   0  0  0  0  0  0  0  0  0  0  0  0
  148.9293  158.9884  133.5678 H   0  0  0  0  0  0  0  0  0  0  0  0
  149.5688  156.5843  133.2120 H   0  0  0  0  0  0  0  0  0  0  0  0
  150.0139  154.9033  132.6667 H   0  0  0  0  0  0  0  0  0  0  0  0
  150.6647  152.5267  132.2912 H   0  0  0  0  0  0  0  0  0  0  0  0
  145.3537  155.5025  132.9668 H   0  0  0  0  0  0  0  0  0  0  0  0
  1  2  1  0
  2  3  1  0
  3  4  1  0
  4  5  1  0
  5  6  1  0
  6  7  1  0
  7  8  1  0
  8  9  1  0
  9 10  1  0
 10 11  1  0
 11 12  2  0
 11 13  2  0
 11 14  1  0
 14 15  1  0
 15 16  2  0
 15 17  1  0
 17 18  1  0
 18 19  1  0
 19 20  1  0
 19 21  2  0
 18 22  2  0
 22 23  1  0
 23 24  2  0
 24 25  1  0
 25 26  2  0
 26 27  1  0
 27 28  2  0
 28 29  1  0
 29 30  2  0
 30 31  1  0
 30 32  1  0
 32 33  1  0
 32 34  2  0
 34 35  1  0
 26 36  1  0
 36 37  2  0
 37 17  1  0
 37 23  1  0
 34 27  1  0
  1 38  1  0
  1 39  1  0
  1 40  1  0
  3 41  1  0
  3 42  1  0
  4 43  1  0
  4 44  1  0
  6 45  1  0
  6 46  1  0
  7 47  1  0
  7 48  1  0
  9 49  1  0
  9 50  1  0
 10 51  1  0
 10 52  1  0
 14 53  1  0
 14 54  1  0
 20 55  1  0
 20 56  1  0
 22 57  1  0
 24 58  1  0
 25 59  1  0
 28 60  1  0
 29 61  1  0
 36 62  1  0
M  END
>  <UniqueID>  (35) 
35

>  <SMILES>  (35) 
COCCOCCOCCS(=O)(=O)CC(=O)n1c(C(N)=O)cc2ccc(-c3ccc(F)c(F)c3F)cc21

>  <Energy>  (35) 
98.7484926726273

>  <Genealogy>  (35) 
COCCOCCOCCS(=O)(=O)CC(=O)n1c(C(N)=O)cc2ccc(-c3ccc(F)c(F)c3F)cc21 (3D coordinates assigned)
COCCOCCOCCS(=O)(=O)CC(=O)n1c(C(N)=O)cc2ccc(-c3ccc(F)c(F)c3F)cc21 (optimized conformer: 98.7484926726273 kcal/mol)

>  <smiles>  (35) 
COCCOCCOCCS(=O)(=O)CC(=O)n1c(C(N)=O)cc2ccc(-c3ccc(F)c(F)c3F)cc21

>  <score_type>  (35) 
oracle

>  <origin>  (35) 
adg

>  <m_score__min__energy>  (35) 
-9.0899999999999999

>  <m_primary>  (35) 
energy

$$$$
35:0
     RDKit          3D

 47 49  0  0  0  0  0  0  0  0999 V2000
  148.1380  153.4810  137.5020 C   0  0  0  0  0  0  0  0  0  0  0  0
  147.0500  153.0210  136.7310 O   0  0  0  0  0  0  0  0  0  0  0  0
  146.2660  154.1110  136.2830 C   0  0  0  0  0  0  0  0  0  0  0  0
  146.4970  154.3510  134.7900 C   0  0  0  0  0  0  0  0  0  0  0  0
  145.9040  155.5830  134.3840 O   0  0  0  0  0  0  0  0  0  0  0  0
  146.4790  156.4400  133.4370 C   0  0  0  0  0  0  0  0  0  0  0  0
  147.2960  155.9940  132.5870 O   0  0  0  0  0  0  0  0  0  0  0  0
  146.1490  157.8380  133.4480 N   0  0  0  0  0  0  0  0  0  0  0  0
  146.9770  158.8920  133.1940 C   0  0  0  0  0  0  0  0  0  0  0  0
  148.4390  158.8170  132.9960 C   0  0  0  0  0  0  0  0  0  0  0  0
  148.9650  158.2270  131.8100 N   0  0  0  0  0  0  0  0  0  0  0  0
  149.2300  159.3030  133.8460 O   0  0  0  0  0  0  0  0  0  0  0  0
  146.2650  160.0890  133.2290 C   0  0  0  0  0  0  0  0  0  0  0  0
  144.9680  159.7350  133.5190 C   0  0  0  0  0  0  0  0  0  0  0  0
  143.8360  160.5290  133.6720 C   0  0  0  0  0  0  0  0  0  0  0  0
  142.6160  159.8910  133.9530 C   0  0  0  0  0  0  0  0  0  0  0  0
  142.5430  158.4770  134.0600 C   0  0  0  0  0  0  0  0  0  0  0  0
  141.2350  157.7860  134.3950 C   0  0  2  0  0  0  0  0  0  0  0  0
  141.0040  156.5690  133.4900 C   0  0  0  0  0  0  0  0  0  0  0  0
  140.0480  158.7650  134.3160 C   0  0  0  0  0  0  0  0  0  0  0  0
  139.5520  158.8680  132.9450 N   0  0  0  0  0  0  0  0  0  0  0  0
  138.4010  158.3870  132.4450 C   0  0  0  0  0  0  0  0  0  0  0  0
  138.3320  158.5970  131.1170 N   0  0  0  0  0  0  0  0  0  0  0  0
  139.4510  159.2120  130.7590 N   0  0  0  0  0  0  0  0  0  0  0  0
  140.1900  159.3680  131.8740 C   0  0  0  0  0  0  0  0  0  0  0  0
  143.7190  157.7070  133.9020 C   0  0  0  0  0  0  0  0  0  0  0  0
  144.9240  158.3700  133.6450 C   0  0  0  0  0  0  0  0  0  0  0  0
  147.8987  153.3798  138.5709 H   0  0  0  0  0  0  0  0  0  0  0  0
  149.0316  152.8837  137.2682 H   0  0  0  0  0  0  0  0  0  0  0  0
  148.3321  154.5382  137.2682 H   0  0  0  0  0  0  0  0  0  0  0  0
  145.2026  153.8882  136.4547 H   0  0  0  0  0  0  0  0  0  0  0  0
  146.5559  155.0140  136.8403 H   0  0  0  0  0  0  0  0  0  0  0  0
  147.5785  154.3875  134.5924 H   0  0  0  0  0  0  0  0  0  0  0  0
  146.0350  153.5299  134.2222 H   0  0  0  0  0  0  0  0  0  0  0  0
  148.6140  157.3040  131.4690 H   0  0  0  0  0  0  0  0  0  0  0  0
  146.6572  161.1028  133.0604 H   0  0  0  0  0  0  0  0  0  0  0  0
  143.8942  161.6233  133.5759 H   0  0  0  0  0  0  0  0  0  0  0  0
  141.7066  160.4942  134.0918 H   0  0  0  0  0  0  0  0  0  0  0  0
  141.3056  157.4277  135.4326 H   0  0  0  0  0  0  0  0  0  0  0  0
  140.8347  155.6771  134.1111 H   0  0  0  0  0  0  0  0  0  0  0  0
  140.1234  156.7461  132.8550 H   0  0  0  0  0  0  0  0  0  0  0  0
  141.8882  156.4112  132.8550 H   0  0  0  0  0  0  0  0  0  0  0  0
  139.2381  158.4034  134.9665 H   0  0  0  0  0  0  0  0  0  0  0  0
  140.3873  159.7585  134.6443 H   0  0  0  0  0  0  0  0  0  0  0  0
  137.6211  157.8893  133.0401 H   0  0  0  0  0  0  0  0  0  0  0  0
  141.1826  159.8412  131.9036 H   0  0  0  0  0  0  0  0  0  0  0  0
  143.6868  156.6102  133.9795 H   0  0  0  0  0  0  0  0  0  0  0  0
  1  2  1  0
  2  3  1  0
  3  4  1  0
  4  5  1  0
  5  6  1  0
  6  7  2  0
  6  8  1  0
  8  9  1  0
  9 10  1  0
 10 11  1  0
 10 12  2  0
  9 13  2  0
 13 14  1  0
 14 15  2  0
 15 16  1  0
 16 17  2  0
 17 18  1  0
 18 19  1  0
 18 20  1  0
 20 21  1  0
 21 22  1  0
 22 23  2  0
 23 24  1  0
 24 25  2  0
 17 26  1  0
 26 27  2  0
 27  8  1  0
 27 14  1  0
 25 21  1  0
  1 28  1  0
  1 29  1  0
  1 30  1  0
  3 31  1  0
  3 32  1  0
  4 33  1  0
  4 34  1  0
 11 35  1  0
 13 36  1  0
 15 37  1  0
 16 38  1  0
 18 39  1  1
 19 40  1  0
 19 41  1  0
 19 42  1  0
 20 43  1  0
 20 44  1  0
 22 45  1  0
 25 46  1  0
 26 47  1  0
M  CHG  1  11  -1
M  END
>  <UniqueID>  (36) 
36

>  <SMILES>  (36) 
COCCOC(=O)n1c(C([NH-])=O)cc2ccc([C@H](C)Cn3cnnc3)cc21

>  <Energy>  (36) 
115.57102791276527

>  <Genealogy>  (36) 
COCCOC(=O)n1c(C([NH-])=O)cc2ccc(C(C)Cn3cnnc3)cc21 (protonated)
COCCOC(=O)n1c(C([NH-])=O)cc2ccc([C@H](C)Cn3cnnc3)cc21 (chirality)
COCCOC(=O)n1c(C([NH-])=O)cc2ccc([C@H](C)Cn3cnnc3)cc21 (3D coordinates assigned)
COCCOC(=O)n1c(C([NH-])=O)cc2ccc([C@H](C)Cn3cnnc3)cc21 (optimized conformer: 115.57102791276527 kcal/mol)

>  <smiles>  (36) 
COCCOC(=O)n1c(C(N)=O)cc2ccc(C(C)Cn3cnnc3)cc21

>  <score_type>  (36) 
oracle

>  <origin>  (36) 
adg

>  <m_score__min__energy>  (36) 
-6.9500000000000002

>  <m_primary>  (36) 
energy

$$$$
36:0
     RDKit          3D

 74 76  0  0  0  0  0  0  0  0999 V2000
  139.9080  150.4510  137.7930 C   0  0  0  0  0  0  0  0  0  0  0  0
  140.8940  151.5190  138.2800 C   0  0  0  0  0  0  0  0  0  0  0  0
  142.0700  150.8660  139.0040 C   0  0  0  0  0  0  0  0  0  0  0  0
  140.2430  152.4210  139.1750 O   0  0  0  0  0  0  0  0  0  0  0  0
  140.2370  153.8100  139.0060 C   0  0  0  0  0  0  0  0  0  0  0  0
  139.1980  154.4850  139.2420 O   0  0  0  0  0  0  0  0  0  0  0  0
  141.4660  154.4950  138.5020 C   0  0  0  0  0  0  0  0  0  0  0  0
  141.5280  155.9380  139.0100 C   0  0  0  0  0  0  0  0  0  0  0  0
  141.3230  156.9060  137.8760 C   0  0  0  0  0  0  0  0  0  0  0  0
  141.4900  158.2980  138.0830 C   0  0  0  0  0  0  0  0  0  0  0  0
  141.2760  159.2090  137.0360 C   0  0  0  0  0  0  0  0  0  0  0  0
  140.8780  158.7020  135.8020 C   0  0  0  0  0  0  0  0  0  0  0  0
  140.6080  159.3560  134.6220 C   0  0  0  0  0  0  0  0  0  0  0  0
  140.2420  158.3580  133.7210 C   0  0  0  0  0  0  0  0  0  0  0  0
  139.7830  158.6330  132.3440 C   0  0  0  0  0  0  0  0  0  0  0  0
  138.4570  158.2800  131.9550 N   0  0  0  0  0  0  0  0  0  0  0  0
  140.5580  159.1470  131.4940 O   0  0  0  0  0  0  0  0  0  0  0  0
  140.2920  157.1330  134.3190 N   0  0  0  0  0  0  0  0  0  0  0  0
  140.0270  155.8510  133.7270 C   0  0  0  0  0  0  0  0  0  0  0  0
  139.0120  155.6960  132.9970 O   0  0  0  0  0  0  0  0  0  0  0  0
  140.8990  154.7480  134.0050 N   0  0  0  0  0  0  0  0  0  0  0  0
  142.2950  154.8080  134.3300 C   0  0  0  0  0  0  0  0  0  0  0  0
  143.1530  155.7730  133.7770 C   0  0  0  0  0  0  0  0  0  0  0  0
  144.4990  155.7880  134.1450 C   0  0  0  0  0  0  0  0  0  0  0  0
  144.9830  154.8650  135.0840 C   0  0  0  0  0  0  0  0  0  0  0  0
  146.4390  154.8550  135.4600 C   0  0  0  0  0  0  0  0  0  0  0  0
  147.0060  153.6220  135.0850 O   0  0  0  0  0  0  0  0  0  0  0  0
  147.2540  153.5500  133.3650 Si  0  0  0  0  0  4  0  0  0  0  0  0
  145.6730  152.9010  132.6060 C   0  0  0  0  0  0  0  0  0  0  0  0
  147.5660  155.2350  132.5930 C   0  0  0  0  0  0  0  0  0  0  0  0
  148.6930  152.3580  132.9890 C   0  0  0  0  0  0  0  0  0  0  0  0
  149.2400  151.7880  134.3080 C   0  0  0  0  0  0  0  0  0  0  0  0
  148.1950  151.2060  132.0970 C   0  0  0  0  0  0  0  0  0  0  0  0
  149.8160  153.1170  132.2620 C   0  0  0  0  0  0  0  0  0  0  0  0
  144.0920  153.9290  135.6240 C   0  0  0  0  0  0  0  0  0  0  0  0
  142.7870  153.9280  135.2430 N   0  0  0  0  0  0  0  0  0  0  0  0
  140.6830  157.3620  135.5920 C   0  0  0  0  0  0  0  0  0  0  0  0
  140.9150  156.4300  136.6100 C   0  0  0  0  0  0  0  0  0  0  0  0
  139.4487  149.9535  138.6599 H   0  0  0  0  0  0  0  0  0  0  0  0
  139.1240  150.9258  137.1848 H   0  0  0  0  0  0  0  0  0  0  0  0
  140.4438  149.7073  137.1848 H   0  0  0  0  0  0  0  0  0  0  0  0
  141.2629  152.0706  137.4027 H   0  0  0  0  0  0  0  0  0  0  0  0
  141.9226  150.9479  140.0910 H   0  0  0  0  0  0  0  0  0  0  0  0
  142.1311  149.8047  138.7212 H   0  0  0  0  0  0  0  0  0  0  0  0
  143.0031  151.3752  138.7212 H   0  0  0  0  0  0  0  0  0  0  0  0
  142.3538  153.9496  138.8547 H   0  0  0  0  0  0  0  0  0  0  0  0
  141.4380  154.5080  137.4024 H   0  0  0  0  0  0  0  0  0  0  0  0
  140.7407  156.0907  139.7629 H   0  0  0  0  0  0  0  0  0  0  0  0
  142.5182  156.1161  139.4547 H   0  0  0  0  0  0  0  0  0  0  0  0
  141.7904  158.6687  139.0741 H   0  0  0  0  0  0  0  0  0  0  0  0
  141.4184  160.2894  137.1861 H   0  0  0  0  0  0  0  0  0  0  0  0
  140.6683  160.4375  134.4304 H   0  0  0  0  0  0  0  0  0  0  0  0
  137.9560  157.4880  132.4140 H   0  0  0  0  0  0  0  0  0  0  0  0
  142.7667  156.5115  133.0591 H   0  0  0  0  0  0  0  0  0  0  0  0
  145.1820  156.5252  133.6978 H   0  0  0  0  0  0  0  0  0  0  0  0
  146.9590  155.6725  134.9392 H   0  0  0  0  0  0  0  0  0  0  0  0
  146.5408  154.9931  136.5465 H   0  0  0  0  0  0  0  0  0  0  0  0
  144.9736  152.6139  133.4050 H   0  0  0  0  0  0  0  0  0  0  0  0
  145.2166  153.6845  131.9833 H   0  0  0  0  0  0  0  0  0  0  0  0
  145.8988  152.0228  131.9833 H   0  0  0  0  0  0  0  0  0  0  0  0
  147.7044  155.9826  133.3880 H   0  0  0  0  0  0  0  0  0  0  0  0
  148.4712  155.1908  131.9696 H   0  0  0  0  0  0  0  0  0  0  0  0
  146.7049  155.5178  131.9696 H   0  0  0  0  0  0  0  0  0  0  0  0
  148.7544  152.2940  135.1554 H   0  0  0  0  0  0  0  0  0  0  0  0
  149.0305  150.7092  134.3561 H   0  0  0  0  0  0  0  0  0  0  0  0
  150.3265  151.9530  134.3561 H   0  0  0  0  0  0  0  0  0  0  0  0
  147.8380  150.3802  132.7299 H   0  0  0  0  0  0  0  0  0  0  0  0
  147.3712  151.5638  131.4619 H   0  0  0  0  0  0  0  0  0  0  0  0
  149.0200  150.8510  131.4619 H   0  0  0  0  0  0  0  0  0  0  0  0
  150.4898  153.5724  133.0026 H   0  0  0  0  0  0  0  0  0  0  0  0
  150.3836  152.4166  131.6317 H   0  0  0  0  0  0  0  0  0  0  0  0
  149.3777  153.9048  131.6317 H   0  0  0  0  0  0  0  0  0  0  0  0
  144.4492  153.1924  136.3587 H   0  0  0  0  0  0  0  0  0  0  0  0
  140.7829  155.3531  136.4288 H   0  0  0  0  0  0  0  0  0  0  0  0
  1  2  1  0
  2  3  1  0
  2  4  1  0
  4  5  1  0
  5  6  2  0
  5  7  1  0
  7  8  1  0
  8  9  1  0
  9 10  2  0
 10 11  1  0
 11 12  2  0
 12 13  1  0
 13 14  2  0
 14 15  1  0
 15 16  1  0
 15 17  2  0
 14 18  1  0
 18 19  1  0
 19 20  2  0
 19 21  1  0
 21 22  1  0
 22 23  2  0
 23 24  1  0
 24 25  2  0
 25 26  1  0
 26 27  1  0
 27 28  1  0
 28 29  1  0
 28 30  1  0
 28 31  1  0
 31 32  1  0
 31 33  1  0
 31 34  1  0
 25 35  1  0
 35 36  2  0
 18 37  1  0
 37 38  2  0
 38  9  1  0
 37 12  1  0
 36 22  1  0
  1 39  1  0
  1 40  1  0
  1 41  1  0
  2 42  1  0
  3 43  1  0
  3 44  1  0
  3 45  1  0
  7 46  1  0
  7 47  1  0
  8 48  1  0
  8 49  1  0
 10 50  1  0
 11 51  1  0
 13 52  1  0
 16 53  1  0
 23 54  1  0
 24 55  1  0
 26 56  1  0
 26 57  1  0
 29 58  1  0
 29 59  1  0
 29 60  1  0
 30 61  1  0
 30 62  1  0
 30 63  1  0
 32 64  1  0
 32 65  1  0
 32 66  1  0
 33 67  1  0
 33 68  1  0
 33 69  1  0
 34 70  1  0
 34 71  1  0
 34 72  1  0
 35 73  1  0
 38 74  1  0
M  CHG  2  16  -1  21  -1
M  END
>  <UniqueID>  (37) 
37

>  <SMILES>  (37) 
CC(C)OC(=O)CCc1ccc2cc(C([NH-])=O)n(C(=O)[N-]c3ccc(CO[Si](C)(C)C(C)(C)C)cn3)c2c1

>  <Energy>  (37) 
91.48135147973854

>  <Genealogy>  (37) 
CC(C)OC(=O)CCc1ccc2cc(C([NH-])=O)n(C(=O)[N-]c3ccc(CO[Si](C)(C)C(C)(C)C)cn3)c2c1 (protonated)
CC(C)OC(=O)CCc1ccc2cc(C([NH-])=O)n(C(=O)[N-]c3ccc(CO[Si](C)(C)C(C)(C)C)cn3)c2c1 (3D coordinates assigned)
CC(C)OC(=O)CCc1ccc2cc(C([NH-])=O)n(C(=O)[N-]c3ccc(CO[Si](C)(C)C(C)(C)C)cn3)c2c1 (optimized conformer: 91.48135147973854 kcal/mol)

>  <smiles>  (37) 
CC(C)OC(=O)CCc1ccc2cc(C(N)=O)n(C(=O)Nc3ccc(CO[Si](C)(C)C(C)(C)C)cn3)c2c1

>  <score_type>  (37) 
oracle

>  <origin>  (37) 
adg

>  <m_score__min__energy>  (37) 
-10.630000000000001

>  <m_primary>  (37) 
energy

$$$$
37:0
     RDKit          3D

 41 42  0  0  0  0  0  0  0  0999 V2000
  144.8540  160.8320  134.4790 C   0  0  0  0  0  0  0  0  0  0  0  0
  143.8870  160.1430  133.8590 C   0  0  0  0  0  0  0  0  0  0  0  0
  142.5760  160.7030  133.6750 N   0  0  0  0  0  0  0  0  0  0  0  0
  141.3410  160.1680  134.1650 C   0  0  0  0  0  0  0  0  0  0  0  0
  140.4000  159.8930  133.3720 O   0  0  0  0  0  0  0  0  0  0  0  0
  141.1730  160.0090  135.5430 O   0  0  0  0  0  0  0  0  0  0  0  0
  140.3680  158.9750  136.1040 C   0  0  0  0  0  0  0  0  0  0  0  0
  140.9950  157.6450  135.8420 C   0  0  0  0  0  0  0  0  0  0  0  0
  141.7240  157.1040  136.7170 O   0  0  0  0  0  0  0  0  0  0  0  0
  140.7260  156.9680  134.6600 O   0  0  0  0  0  0  0  0  0  0  0  0
  144.1460  158.7930  133.3110 C   0  0  0  0  0  0  0  0  0  0  0  0
  143.2350  158.2100  132.6670 O   0  0  0  0  0  0  0  0  0  0  0  0
  145.4020  158.1220  133.5100 N   0  0  0  0  0  0  0  0  0  0  0  0
  145.6310  156.9290  134.1300 C   0  0  0  0  0  0  0  0  0  0  0  0
  144.6210  156.1070  134.8280 C   0  0  0  0  0  0  0  0  0  0  0  0
  143.2280  156.4180  134.7620 N   0  0  0  0  0  0  0  0  0  0  0  0
  144.9990  155.1330  135.5330 O   0  0  0  0  0  0  0  0  0  0  0  0
  146.9760  156.5790  134.0330 C   0  0  0  0  0  0  0  0  0  0  0  0
  147.5720  157.6130  133.3450 C   0  0  0  0  0  0  0  0  0  0  0  0
  148.8990  157.7920  132.9640 C   0  0  0  0  0  0  0  0  0  0  0  0
  149.2260  158.9540  132.2430 C   0  0  0  0  0  0  0  0  0  0  0  0
  148.2260  159.9010  131.9060 C   0  0  0  0  0  0  0  0  0  0  0  0
  148.5970  161.1540  131.1570 C   0  0  0  0  0  0  0  0  0  0  0  0
  149.3340  160.8200  129.8610 C   0  0  0  0  0  0  0  0  0  0  0  0
  150.4930  160.1180  130.1360 F   0  0  0  0  0  0  0  0  0  0  0  0
  149.6610  161.9890  129.2000 F   0  0  0  0  0  0  0  0  0  0  0  0
  146.8930  159.6890  132.3180 C   0  0  0  0  0  0  0  0  0  0  0  0
  146.6000  158.5310  133.0450 C   0  0  0  0  0  0  0  0  0  0  0  0
  145.8506  160.3851  134.6095 H   0  0  0  0  0  0  0  0  0  0  0  0
  144.6515  161.8447  134.8576 H   0  0  0  0  0  0  0  0  0  0  0  0
  140.2800  159.1294  137.1896 H   0  0  0  0  0  0  0  0  0  0  0  0
  139.3697  159.0023  135.6428 H   0  0  0  0  0  0  0  0  0  0  0  0
  142.5310  155.7920  135.2210 H   0  0  0  0  0  0  0  0  0  0  0  0
  142.8910  157.3160  134.3490 H   0  0  0  0  0  0  0  0  0  0  0  0
  147.4590  155.6708  134.4227 H   0  0  0  0  0  0  0  0  0  0  0  0
  149.6677  157.0476  133.2191 H   0  0  0  0  0  0  0  0  0  0  0  0
  150.2679  159.1301  131.9374 H   0  0  0  0  0  0  0  0  0  0  0  0
  147.6810  161.7134  130.9159 H   0  0  0  0  0  0  0  0  0  0  0  0
  149.2617  161.7579  131.7922 H   0  0  0  0  0  0  0  0  0  0  0  0
  148.6772  160.2029  129.2303 H   0  0  0  0  0  0  0  0  0  0  0  0
  146.1046  160.4161  132.0735 H   0  0  0  0  0  0  0  0  0  0  0  0
  1  2  2  0
  2  3  1  0
  3  4  1  0
  4  5  2  0
  4  6  1  0
  6  7  1  0
  7  8  1  0
  8  9  2  0
  8 10  1  0
  2 11  1  0
 11 12  2  0
 11 13  1  0
 13 14  1  0
 14 15  1  0
 15 16  1  0
 15 17  2  0
 14 18  2  0
 18 19  1  0
 19 20  2  0
 20 21  1  0
 21 22  2  0
 22 23  1  0
 23 24  1  0
 24 25  1  0
 24 26  1  0
 22 27  1  0
 27 28  2  0
 28 13  1  0
 28 19  1  0
  1 29  1  0
  1 30  1  0
  7 31  1  0
  7 32  1  0
 16 33  1  0
 16 34  1  0
 18 35  1  0
 20 36  1  0
 21 37  1  0
 23 38  1  0
 23 39  1  0
 24 40  1  0
 27 41  1  0
M  CHG  2   3  -1  10  -1
M  END
>  <UniqueID>  (38) 
38

>  <SMILES>  (38) 
C=C([N-]C(=O)OCC(=O)[O-])C(=O)n1c(C(N)=O)cc2ccc(CC(F)F)cc21

>  <Energy>  (38) 
79.23543480180486

>  <Genealogy>  (38) 
C=C([N-]C(=O)OCC(=O)[O-])C(=O)n1c(C(N)=O)cc2ccc(CC(F)F)cc21 (protonated)
C=C([N-]C(=O)OCC(=O)[O-])C(=O)n1c(C(N)=O)cc2ccc(CC(F)F)cc21 (3D coordinates assigned)
C=C([N-]C(=O)OCC(=O)[O-])C(=O)n1c(C(N)=O)cc2ccc(CC(F)F)cc21 (optimized conformer: 79.23543480180486 kcal/mol)

>  <smiles>  (38) 
C=C(NC(=O)OCC(=O)O)C(=O)n1c(C(N)=O)cc2ccc(CC(F)F)cc21

>  <score_type>  (38) 
oracle

>  <origin>  (38) 
adg

>  <m_score__min__energy>  (38) 
-6.6100000000000003

>  <m_primary>  (38) 
energy

$$$$
38:0
     RDKit          3D

 39 41  0  0  0  0  0  0  0  0999 V2000
  145.6730  154.8950  135.2170 C   0  0  0  0  0  0  0  0  0  0  0  0
  144.6710  155.6740  134.8150 C   0  0  0  0  0  0  0  0  0  0  0  0
  144.6750  156.3640  133.5110 C   0  0  0  0  0  0  0  0  0  0  0  0
  144.8010  155.7070  132.4420 O   0  0  0  0  0  0  0  0  0  0  0  0
  144.4840  157.7850  133.4490 N   0  0  0  0  0  0  0  0  0  0  0  0
  145.4280  158.7580  133.3060 C   0  0  0  0  0  0  0  0  0  0  0  0
  146.8620  158.5380  133.0240 C   0  0  0  0  0  0  0  0  0  0  0  0
  147.2970  157.4090  132.2710 N   0  0  0  0  0  0  0  0  0  0  0  0
  147.7120  159.3820  133.4160 O   0  0  0  0  0  0  0  0  0  0  0  0
  144.8440  160.0210  133.3820 C   0  0  0  0  0  0  0  0  0  0  0  0
  143.4990  159.7890  133.5640 C   0  0  0  0  0  0  0  0  0  0  0  0
  142.4490  160.6870  133.7270 C   0  0  0  0  0  0  0  0  0  0  0  0
  141.1610  160.1630  133.9290 C   0  0  0  0  0  0  0  0  0  0  0  0
  140.9420  158.7630  133.9410 C   0  0  0  0  0  0  0  0  0  0  0  0
  139.5530  158.2340  134.2080 C   0  0  2  0  0  0  0  0  0  0  0  0
  139.1070  157.0590  133.3410 C   0  0  0  0  0  0  0  0  0  0  0  0
  138.4900  158.4350  133.1190 C   0  0  2  0  0  0  0  0  0  0  0  0
  138.9100  159.1420  131.8550 C   0  0  0  0  0  0  0  0  0  0  0  0
  139.7280  158.6000  131.0610 O   0  0  0  0  0  0  0  0  0  0  0  0
  138.3380  160.4140  131.5370 N   0  0  0  0  0  0  0  0  0  0  0  0
  138.7870  161.1930  130.3910 C   0  0  0  0  0  0  0  0  0  0  0  0
  142.0400  157.8830  133.8120 C   0  0  0  0  0  0  0  0  0  0  0  0
  143.3080  158.4330  133.5990 C   0  0  0  0  0  0  0  0  0  0  0  0
  145.6257  154.4007  136.1985 H   0  0  0  0  0  0  0  0  0  0  0  0
  146.5482  154.7457  134.5676 H   0  0  0  0  0  0  0  0  0  0  0  0
  143.8062  155.8084  135.4813 H   0  0  0  0  0  0  0  0  0  0  0  0
  146.6080  156.7520  131.8410 H   0  0  0  0  0  0  0  0  0  0  0  0
  145.3496  160.9954  133.3116 H   0  0  0  0  0  0  0  0  0  0  0  0
  142.6217  161.7730  133.6987 H   0  0  0  0  0  0  0  0  0  0  0  0
  140.3130  160.8473  134.0795 H   0  0  0  0  0  0  0  0  0  0  0  0
  139.6010  158.4477  135.2860 H   0  0  0  0  0  0  0  0  0  0  0  0
  139.7936  156.6380  132.5918 H   0  0  0  0  0  0  0  0  0  0  0  0
  138.7083  156.0539  133.5428 H   0  0  0  0  0  0  0  0  0  0  0  0
  137.4725  158.8527  133.1065 H   0  0  0  0  0  0  0  0  0  0  0  0
  137.5940  160.8090  132.1540 H   0  0  0  0  0  0  0  0  0  0  0  0
  139.3075  162.0960  130.7427 H   0  0  0  0  0  0  0  0  0  0  0  0
  139.4744  160.5871  129.7824 H   0  0  0  0  0  0  0  0  0  0  0  0
  137.9182  161.4841  129.7824 H   0  0  0  0  0  0  0  0  0  0  0  0
  141.9010  156.7938  133.8774 H   0  0  0  0  0  0  0  0  0  0  0  0
  1  2  2  0
  2  3  1  0
  3  4  2  0
  3  5  1  0
  5  6  1  0
  6  7  1  0
  7  8  1  0
  7  9  2  0
  6 10  2  0
 10 11  1  0
 11 12  2  0
 12 13  1  0
 13 14  2  0
 14 15  1  0
 15 16  1  0
 16 17  1  0
 17 18  1  0
 18 19  2  0
 18 20  1  0
 20 21  1  0
 14 22  1  0
 22 23  2  0
 23  5  1  0
 23 11  1  0
 17 15  1  0
  1 24  1  0
  1 25  1  0
  2 26  1  0
  8 27  1  0
 10 28  1  0
 12 29  1  0
 13 30  1  0
 15 31  1  1
 16 32  1  0
 16 33  1  0
 17 34  1  1
 20 35  1  0
 21 36  1  0
 21 37  1  0
 21 38  1  0
 22 39  1  0
M  CHG  1   8  -1
M  END
>  <UniqueID>  (39) 
39

>  <SMILES>  (39) 
C=CC(=O)n1c(C([NH-])=O)cc2ccc([C@@H]3C[C@@H]3C(=O)NC)cc21

>  <Energy>  (39) 
342.87354571898686

>  <Genealogy>  (39) 
C=CC(=O)n1c(C([NH-])=O)cc2ccc(C3CC3C(=O)NC)cc21 (protonated)
C=CC(=O)n1c(C([NH-])=O)cc2ccc([C@@H]3C[C@@H]3C(=O)NC)cc21 (chirality)
C=CC(=O)n1c(C([NH-])=O)cc2ccc([C@@H]3C[C@@H]3C(=O)NC)cc21 (3D coordinates assigned)
C=CC(=O)n1c(C([NH-])=O)cc2ccc([C@@H]3C[C@@H]3C(=O)NC)cc21 (nonaromatic ring conformer: 342.87354571898686 kcal/mol)

>  <smiles>  (39) 
C=CC(=O)n1c(C(N)=O)cc2ccc(C3CC3C(=O)NC)cc21

>  <score_type>  (39) 
oracle

>  <origin>  (39) 
adg

>  <m_score__min__energy>  (39) 
-7.25

>  <m_primary>  (39) 
energy

$$$$
39:0
     RDKit          3D

 43 46  0  0  0  0  0  0  0  0999 V2000
  148.4640  157.4910  131.7390 N   0  0  0  0  0  0  0  0  0  0  0  0
  148.1580  158.5690  132.6260 C   0  0  0  0  0  0  0  0  0  0  0  0
  149.0980  159.2590  133.1050 O   0  0  0  0  0  0  0  0  0  0  0  0
  146.7690  158.8480  133.0410 C   0  0  0  0  0  0  0  0  0  0  0  0
  146.2070  160.1210  133.0290 C   0  0  0  0  0  0  0  0  0  0  0  0
  144.9380  159.9610  133.5370 C   0  0  0  0  0  0  0  0  0  0  0  0
  143.9250  160.8990  133.7240 C   0  0  0  0  0  0  0  0  0  0  0  0
  142.6920  160.4460  134.2200 C   0  0  0  0  0  0  0  0  0  0  0  0
  142.4950  159.0760  134.5230 C   0  0  0  0  0  0  0  0  0  0  0  0
  141.1540  158.5910  134.9960 C   0  0  0  0  0  0  0  0  0  0  0  0
  140.3640  158.0620  133.8390 C   0  0  0  0  0  0  0  0  0  0  0  0
  139.9370  156.7480  133.6400 C   0  0  0  0  0  0  0  0  0  0  0  0
  139.1480  156.6610  132.5390 N   0  0  0  0  0  0  0  0  0  0  0  0
  139.0690  157.9130  132.0590 C   0  0  0  0  0  0  0  0  0  0  0  0
  138.3510  158.3300  130.9880 N   0  0  0  0  0  0  0  0  0  0  0  0
  138.3660  159.6620  130.6790 C   0  0  0  0  0  0  0  0  0  0  0  0
  139.1090  160.5680  131.4770 C   0  0  0  0  0  0  0  0  0  0  0  0
  139.8160  160.1110  132.5550 N   0  0  0  0  0  0  0  0  0  0  0  0
  139.7840  158.7820  132.8200 C   0  0  0  0  0  0  0  0  0  0  0  0
  143.5430  158.1520  134.3110 C   0  0  0  0  0  0  0  0  0  0  0  0
  144.7660  158.6330  133.8290 C   0  0  0  0  0  0  0  0  0  0  0  0
  145.8820  157.9340  133.5230 N   0  0  0  0  0  0  0  0  0  0  0  0
  146.0380  156.5060  133.5720 C   0  0  0  0  0  0  0  0  0  0  0  0
  146.1020  155.8430  132.5000 O   0  0  0  0  0  0  0  0  0  0  0  0
  146.1110  155.8540  134.8100 O   0  0  0  0  0  0  0  0  0  0  0  0
  146.2850  154.4460  134.9430 C   0  0  0  0  0  0  0  0  0  0  0  0
  147.1530  154.1400  136.1220 C   0  0  0  0  0  0  0  0  0  0  0  0
  146.9810  153.0800  136.7790 O   0  0  0  0  0  0  0  0  0  0  0  0
  148.1700  155.0150  136.4790 O   0  0  0  0  0  0  0  0  0  0  0  0
  147.7350  156.7980  131.4600 H   0  0  0  0  0  0  0  0  0  0  0  0
  149.4470  157.3350  131.4240 H   0  0  0  0  0  0  0  0  0  0  0  0
  146.6765  161.0551  132.6868 H   0  0  0  0  0  0  0  0  0  0  0  0
  144.0862  161.9617  133.4903 H   0  0  0  0  0  0  0  0  0  0  0  0
  141.8711  161.1616  134.3748 H   0  0  0  0  0  0  0  0  0  0  0  0
  141.2966  157.7901  135.7364 H   0  0  0  0  0  0  0  0  0  0  0  0
  140.6076  159.4289  135.4537 H   0  0  0  0  0  0  0  0  0  0  0  0
  140.2035  155.8992  134.2869 H   0  0  0  0  0  0  0  0  0  0  0  0
  138.6810  155.8070  132.1620 H   0  0  0  0  0  0  0  0  0  0  0  0
  137.8009  160.0309  129.8103 H   0  0  0  0  0  0  0  0  0  0  0  0
  139.1169  161.6396  131.2290 H   0  0  0  0  0  0  0  0  0  0  0  0
  143.4012  157.0813  134.5196 H   0  0  0  0  0  0  0  0  0  0  0  0
  145.3029  153.9704  135.0821 H   0  0  0  0  0  0  0  0  0  0  0  0
  146.7662  154.0571  134.0335 H   0  0  0  0  0  0  0  0  0  0  0  0
  1  2  1  0
  2  3  2  0
  2  4  1  0
  4  5  2  0
  5  6  1  0
  6  7  2  0
  7  8  1  0
  8  9  2  0
  9 10  1  0
 10 11  1  0
 11 12  2  0
 12 13  1  0
 13 14  1  0
 14 15  2  0
 15 16  1  0
 16 17  2  0
 17 18  1  0
 18 19  2  0
  9 20  1  0
 20 21  2  0
 21 22  1  0
 22 23  1  0
 23 24  2  0
 23 25  1  0
 25 26  1  0
 26 27  1  0
 27 28  2  0
 27 29  1  0
 22  4  1  0
 21  6  1  0
 19 11  1  0
 19 14  1  0
  1 30  1  0
  1 31  1  0
  5 32  1  0
  7 33  1  0
  8 34  1  0
 10 35  1  0
 10 36  1  0
 12 37  1  0
 13 38  1  0
 16 39  1  0
 17 40  1  0
 20 41  1  0
 26 42  1  0
 26 43  1  0
M  CHG  1  29  -1
M  END
>  <UniqueID>  (40) 
40

>  <SMILES>  (40) 
NC(=O)c1cc2ccc(Cc3c[nH]c4nccnc34)cc2n1C(=O)OCC(=O)[O-]

>  <Energy>  (40) 
120.37750303644599

>  <Genealogy>  (40) 
NC(=O)c1cc2ccc(Cc3c[nH]c4nccnc34)cc2n1C(=O)OCC(=O)[O-] (protonated)
NC(=O)c1cc2ccc(Cc3c[nH]c4nccnc34)cc2n1C(=O)OCC(=O)[O-] (3D coordinates assigned)
NC(=O)c1cc2ccc(Cc3c[nH]c4nccnc34)cc2n1C(=O)OCC(=O)[O-] (optimized conformer: 120.37750303644599 kcal/mol)

>  <smiles>  (40) 
NC(=O)c1cc2ccc(Cc3c[nH]c4nccnc34)cc2n1C(=O)OCC(=O)O

>  <score_type>  (40) 
oracle

>  <origin>  (40) 
adg

>  <m_score__min__energy>  (40) 
-9.4499999999999993

>  <m_primary>  (40) 
energy

$$$$
40:0
     RDKit          3D

 45 46  0  0  0  0  0  0  0  0999 V2000
  149.5400  152.5730  132.2370 C   0  0  0  0  0  0  0  0  0  0  0  0
  149.4980  153.8380  132.8860 O   0  0  0  0  0  0  0  0  0  0  0  0
  148.3230  154.3700  133.4230 C   0  0  0  0  0  0  0  0  0  0  0  0
  148.1120  154.3410  134.6670 O   0  0  0  0  0  0  0  0  0  0  0  0
  147.3330  155.0260  132.5170 C   0  0  0  0  0  0  0  0  0  0  0  0
  147.2940  156.5050  132.7830 C   0  0  0  0  0  0  0  0  0  0  0  0
  148.4990  157.2450  132.8730 C   0  0  0  0  0  0  0  0  0  0  0  0
  148.4750  158.6200  133.1670 C   0  0  0  0  0  0  0  0  0  0  0  0
  147.2360  159.2210  133.3700 C   0  0  0  0  0  0  0  0  0  0  0  0
  146.9230  160.5180  133.7100 C   0  0  0  0  0  0  0  0  0  0  0  0
  145.5330  160.5480  133.8160 C   0  0  0  0  0  0  0  0  0  0  0  0
  144.7600  161.7720  134.1050 C   0  0  0  0  0  0  0  0  0  0  0  0
  143.3940  161.8880  133.7130 N   0  0  0  0  0  0  0  0  0  0  0  0
  145.3230  162.7470  134.6740 O   0  0  0  0  0  0  0  0  0  0  0  0
  145.0090  159.3190  133.5520 N   0  0  0  0  0  0  0  0  0  0  0  0
  143.6430  158.9000  133.6650 C   0  0  0  0  0  0  0  0  0  0  0  0
  143.1210  158.2160  132.7430 O   0  0  0  0  0  0  0  0  0  0  0  0
  142.9040  159.2000  134.8560 N   0  0  0  0  0  0  0  0  0  0  0  0
  141.5000  158.8500  135.0840 C   0  0  1  0  0  0  0  0  0  0  0  0
  141.0410  159.3590  136.4550 C   0  0  0  0  0  0  0  0  0  0  0  0
  140.6410  159.3550  133.9530 C   0  0  0  0  0  0  0  0  0  0  0  0
  140.9260  160.4350  133.3660 O   0  0  0  0  0  0  0  0  0  0  0  0
  139.4900  158.6390  133.5990 O   0  0  0  0  0  0  0  0  0  0  0  0
  139.1980  158.2320  132.2640 C   0  0  0  0  0  0  0  0  0  0  0  0
  138.7600  159.4030  131.4390 C   0  0  0  0  0  0  0  0  0  0  0  0
  137.5980  159.7760  131.4730 O   0  0  0  0  0  0  0  0  0  0  0  0
  146.0620  158.5190  133.2810 C   0  0  0  0  0  0  0  0  0  0  0  0
  146.0560  157.1480  133.0040 C   0  0  0  0  0  0  0  0  0  0  0  0
  149.5665  151.7740  132.9925 H   0  0  0  0  0  0  0  0  0  0  0  0
  148.6453  152.4536  131.6083 H   0  0  0  0  0  0  0  0  0  0  0  0
  150.4406  152.5132  131.6083 H   0  0  0  0  0  0  0  0  0  0  0  0
  147.6251  154.8516  131.4709 H   0  0  0  0  0  0  0  0  0  0  0  0
  146.3361  154.5994  132.7020 H   0  0  0  0  0  0  0  0  0  0  0  0
  149.4623  156.7392  132.7114 H   0  0  0  0  0  0  0  0  0  0  0  0
  149.4059  159.2021  133.2344 H   0  0  0  0  0  0  0  0  0  0  0  0
  147.6215  161.3535  133.8652 H   0  0  0  0  0  0  0  0  0  0  0  0
  142.7310  161.0920  133.8360 H   0  0  0  0  0  0  0  0  0  0  0  0
  141.3923  157.7554  135.0979 H   0  0  0  0  0  0  0  0  0  0  0  0
  141.5524  158.7919  137.2467 H   0  0  0  0  0  0  0  0  0  0  0  0
  141.2876  160.4267  136.5511 H   0  0  0  0  0  0  0  0  0  0  0  0
  139.9536  159.2237  136.5511 H   0  0  0  0  0  0  0  0  0  0  0  0
  140.1002  157.7909  131.8151 H   0  0  0  0  0  0  0  0  0  0  0  0
  138.3844  157.4921  132.2891 H   0  0  0  0  0  0  0  0  0  0  0  0
  139.4866  159.9278  130.8013 H   0  0  0  0  0  0  0  0  0  0  0  0
  145.1119  156.5853  132.9594 H   0  0  0  0  0  0  0  0  0  0  0  0
  1  2  1  0
  2  3  1  0
  3  4  2  0
  3  5  1  0
  5  6  1  0
  6  7  2  0
  7  8  1  0
  8  9  2  0
  9 10  1  0
 10 11  2  0
 11 12  1  0
 12 13  1  0
 12 14  2  0
 11 15  1  0
 15 16  1  0
 16 17  2  0
 16 18  1  0
 18 19  1  0
 19 20  1  0
 19 21  1  0
 21 22  2  0
 21 23  1  0
 23 24  1  0
 24 25  1  0
 25 26  2  0
 15 27  1  0
 27 28  2  0
 28  6  1  0
 27  9  1  0
  1 29  1  0
  1 30  1  0
  1 31  1  0
  5 32  1  0
  5 33  1  0
  7 34  1  0
  8 35  1  0
 10 36  1  0
 13 37  1  0
 19 38  1  1
 20 39  1  0
 20 40  1  0
 20 41  1  0
 24 42  1  0
 24 43  1  0
 25 44  1  0
 28 45  1  0
M  CHG  2  13  -1  18  -1
M  END
>  <UniqueID>  (41) 
41

>  <SMILES>  (41) 
COC(=O)Cc1ccc2cc(C([NH-])=O)n(C(=O)[N-][C@@H](C)C(=O)OCC=O)c2c1

>  <Energy>  (41) 
72.86911908482962

>  <Genealogy>  (41) 
COC(=O)Cc1ccc2cc(C([NH-])=O)n(C(=O)[N-]C(C)C(=O)OCC=O)c2c1 (protonated)
COC(=O)Cc1ccc2cc(C([NH-])=O)n(C(=O)[N-][C@@H](C)C(=O)OCC=O)c2c1 (chirality)
COC(=O)Cc1ccc2cc(C([NH-])=O)n(C(=O)[N-][C@@H](C)C(=O)OCC=O)c2c1 (3D coordinates assigned)
COC(=O)Cc1ccc2cc(C([NH-])=O)n(C(=O)[N-][C@@H](C)C(=O)OCC=O)c2c1 (optimized conformer: 72.86911908482962 kcal/mol)

>  <smiles>  (41) 
COC(=O)Cc1ccc2cc(C(N)=O)n(C(=O)NC(C)C(=O)OCC=O)c2c1

>  <score_type>  (41) 
oracle

>  <origin>  (41) 
adg

>  <m_score__min__energy>  (41) 
-6.9699999999999998

>  <m_primary>  (41) 
energy

$$$$
41:0
     RDKit          3D

 43 44  0  0  0  0  0  0  0  0999 V2000
  137.8510  160.0750  131.3940 C   0  0  0  0  0  0  0  0  0  0  0  0
  138.8830  158.8020  132.0910 S   0  0  0  0  0  0  0  0  0  0  0  0
  138.8280  157.5940  131.1990 O   0  0  0  0  0  0  0  0  0  0  0  0
  138.3620  158.4300  133.4520 O   0  0  0  0  0  0  0  0  0  0  0  0
  140.5860  159.3410  132.2210 C   0  0  0  0  0  0  0  0  0  0  0  0
  141.5100  158.2130  132.6880 C   0  0  0  0  0  0  0  0  0  0  0  0
  141.1080  157.7250  133.9640 O   0  0  0  0  0  0  0  0  0  0  0  0
  141.7770  156.7070  134.6500 C   0  0  0  0  0  0  0  0  0  0  0  0
  142.0640  156.8500  135.8710 O   0  0  0  0  0  0  0  0  0  0  0  0
  142.1370  155.4950  133.9630 N   0  0  0  0  0  0  0  0  0  0  0  0
  141.3000  154.6110  133.3470 C   0  0  0  0  0  0  0  0  0  0  0  0
  139.8490  154.7900  133.1400 C   0  0  0  0  0  0  0  0  0  0  0  0
  139.2680  156.0920  133.0660 N   0  0  0  0  0  0  0  0  0  0  0  0
  139.1210  153.7770  132.9650 O   0  0  0  0  0  0  0  0  0  0  0  0
  142.0090  153.5180  132.8590 C   0  0  0  0  0  0  0  0  0  0  0  0
  143.3240  153.7670  133.1760 C   0  0  0  0  0  0  0  0  0  0  0  0
  144.4630  153.0130  132.9110 C   0  0  0  0  0  0  0  0  0  0  0  0
  145.6990  153.5080  133.3590 C   0  0  0  0  0  0  0  0  0  0  0  0
  145.7710  154.7280  134.0760 C   0  0  0  0  0  0  0  0  0  0  0  0
  147.1060  155.2640  134.5230 C   0  0  0  0  0  0  0  0  0  0  0  0
  148.0110  154.1520  135.0670 C   0  0  0  0  0  0  0  0  0  0  0  0
  147.7150  153.8490  136.5040 C   0  0  0  0  0  0  0  0  0  0  0  0
  146.8150  153.0210  136.8060 O   0  0  0  0  0  0  0  0  0  0  0  0
  148.4540  154.4580  137.5100 O   0  0  0  0  0  0  0  0  0  0  0  0
  144.5940  155.4660  134.3250 C   0  0  0  0  0  0  0  0  0  0  0  0
  143.3760  154.9640  133.8440 C   0  0  0  0  0  0  0  0  0  0  0  0
  137.3829  160.6524  132.2048 H   0  0  0  0  0  0  0  0  0  0  0  0
  138.4640  160.7450  130.7733 H   0  0  0  0  0  0  0  0  0  0  0  0
  137.0686  159.6138  130.7733 H   0  0  0  0  0  0  0  0  0  0  0  0
  140.9239  159.6916  131.2346 H   0  0  0  0  0  0  0  0  0  0  0  0
  140.6311  160.1483  132.9668 H   0  0  0  0  0  0  0  0  0  0  0  0
  141.4716  157.3903  131.9589 H   0  0  0  0  0  0  0  0  0  0  0  0
  142.5340  158.6066  132.7679 H   0  0  0  0  0  0  0  0  0  0  0  0
  139.8640  156.9480  133.0460 H   0  0  0  0  0  0  0  0  0  0  0  0
  138.2360  156.1990  132.9520 H   0  0  0  0  0  0  0  0  0  0  0  0
  141.6042  152.6415  132.3319 H   0  0  0  0  0  0  0  0  0  0  0  0
  144.3976  152.0589  132.3675 H   0  0  0  0  0  0  0  0  0  0  0  0
  146.6197  152.9431  133.1512 H   0  0  0  0  0  0  0  0  0  0  0  0
  147.6036  155.7411  133.6658 H   0  0  0  0  0  0  0  0  0  0  0  0
  146.9308  155.9893  135.3312 H   0  0  0  0  0  0  0  0  0  0  0  0
  147.8536  153.2409  134.4710 H   0  0  0  0  0  0  0  0  0  0  0  0
  149.0541  154.4941  134.9968 H   0  0  0  0  0  0  0  0  0  0  0  0
  144.6311  156.4130  134.8834 H   0  0  0  0  0  0  0  0  0  0  0  0
  1  2  1  0
  2  3  2  0
  2  4  2  0
  2  5  1  0
  5  6  1  0
  6  7  1  0
  7  8  1  0
  8  9  2  0
  8 10  1  0
 10 11  1  0
 11 12  1  0
 12 13  1  0
 12 14  2  0
 11 15  2  0
 15 16  1  0
 16 17  2  0
 17 18  1  0
 18 19  2  0
 19 20  1  0
 20 21  1  0
 21 22  1  0
 22 23  2  0
 22 24  1  0
 19 25  1  0
 25 26  2  0
 26 10  1  0
 26 16  1  0
  1 27  1  0
  1 28  1  0
  1 29  1  0
  5 30  1  0
  5 31  1  0
  6 32  1  0
  6 33  1  0
 13 34  1  0
 13 35  1  0
 15 36  1  0
 17 37  1  0
 18 38  1  0
 20 39  1  0
 20 40  1  0
 21 41  1  0
 21 42  1  0
 25 43  1  0
M  CHG  1  24  -1
M  END
>  <UniqueID>  (42) 
42

>  <SMILES>  (42) 
CS(=O)(=O)CCOC(=O)n1c(C(N)=O)cc2ccc(CCC(=O)[O-])cc21

>  <Energy>  (42) 
66.5048781672677

>  <Genealogy>  (42) 
CS(=O)(=O)CCOC(=O)n1c(C(N)=O)cc2ccc(CCC(=O)[O-])cc21 (protonated)
CS(=O)(=O)CCOC(=O)n1c(C(N)=O)cc2ccc(CCC(=O)[O-])cc21 (3D coordinates assigned)
CS(=O)(=O)CCOC(=O)n1c(C(N)=O)cc2ccc(CCC(=O)[O-])cc21 (optimized conformer: 66.5048781672677 kcal/mol)

>  <smiles>  (42) 
CS(=O)(=O)CCOC(=O)n1c(C(N)=O)cc2ccc(CCC(=O)O)cc21

>  <score_type>  (42) 
oracle

>  <origin>  (42) 
adg

>  <m_score__min__energy>  (42) 
-7.5

>  <m_primary>  (42) 
energy

$$$$
42:0
     RDKit          3D

 31 33  0  0  0  0  0  0  0  0999 V2000
  149.9810  151.6630  132.1950 C   0  0  0  0  0  0  0  0  0  0  0  0
  148.9000  152.6180  132.5760 C   0  0  0  0  0  0  0  0  0  0  0  0
  147.6700  152.2420  132.9710 N   0  0  0  0  0  0  0  0  0  0  0  0
  147.0130  153.3920  133.1970 C   0  0  0  0  0  0  0  0  0  0  0  0
  147.8780  154.4380  132.9220 C   0  0  0  0  0  0  0  0  0  0  0  0
  147.6100  155.8900  133.0220 C   0  0  0  0  0  0  0  0  0  0  0  0
  148.6830  156.8070  132.8920 C   0  0  0  0  0  0  0  0  0  0  0  0
  148.4650  158.1910  132.9920 C   0  0  0  0  0  0  0  0  0  0  0  0
  147.1650  158.6310  133.2130 C   0  0  0  0  0  0  0  0  0  0  0  0
  146.6800  159.9090  133.3750 C   0  0  0  0  0  0  0  0  0  0  0  0
  145.3090  159.7610  133.5780 C   0  0  0  0  0  0  0  0  0  0  0  0
  144.3810  160.9020  133.7100 C   0  0  0  0  0  0  0  0  0  0  0  0
  143.0060  160.7740  133.3570 N   0  0  0  0  0  0  0  0  0  0  0  0
  144.8170  162.0200  134.0940 O   0  0  0  0  0  0  0  0  0  0  0  0
  144.9620  158.4430  133.5510 N   0  0  0  0  0  0  0  0  0  0  0  0
  143.6700  157.8710  133.8120 C   0  0  0  0  0  0  0  0  0  0  0  0
  143.4340  157.3080  134.9130 O   0  0  0  0  0  0  0  0  0  0  0  0
  142.6600  157.9570  132.8610 O   0  0  0  0  0  0  0  0  0  0  0  0
  146.1090  157.7640  133.3240 C   0  0  0  0  0  0  0  0  0  0  0  0
  146.3000  156.3790  133.2470 C   0  0  0  0  0  0  0  0  0  0  0  0
  149.0290  153.9260  132.5410 O   0  0  0  0  0  0  0  0  0  0  0  0
  150.4452  151.2529  133.1041 H   0  0  0  0  0  0  0  0  0  0  0  0
  149.5528  150.8429  131.6000 H   0  0  0  0  0  0  0  0  0  0  0  0
  150.7421  152.1891  131.6000 H   0  0  0  0  0  0  0  0  0  0  0  0
  147.3020  151.2710  133.0780 H   0  0  0  0  0  0  0  0  0  0  0  0
  145.9720  153.4861  133.5399 H   0  0  0  0  0  0  0  0  0  0  0  0
  149.7002  156.4297  132.7103 H   0  0  0  0  0  0  0  0  0  0  0  0
  149.2970  158.9044  132.8984 H   0  0  0  0  0  0  0  0  0  0  0  0
  147.2528  160.8478  133.3496 H   0  0  0  0  0  0  0  0  0  0  0  0
  142.7040  160.1140  132.6060 H   0  0  0  0  0  0  0  0  0  0  0  0
  145.4524  155.6869  133.3586 H   0  0  0  0  0  0  0  0  0  0  0  0
  1  2  1  0
  2  3  2  0
  3  4  1  0
  4  5  2  0
  5  6  1  0
  6  7  2  0
  7  8  1  0
  8  9  2  0
  9 10  1  0
 10 11  2  0
 11 12  1  0
 12 13  1  0
 12 14  2  0
 11 15  1  0
 15 16  1  0
 16 17  2  0
 16 18  1  0
 15 19  1  0
 19 20  2  0
  5 21  1  0
 21  2  1  0
 20  6  1  0
 19  9  1  0
  1 22  1  0
  1 23  1  0
  1 24  1  0
  3 25  1  0
  4 26  1  0
  7 27  1  0
  8 28  1  0
 10 29  1  0
 13 30  1  0
 20 31  1  0
M  CHG  3   3   1  13  -1  18  -1
M  END
>  <UniqueID>  (43) 
43

>  <SMILES>  (43) 
Cc1[nH+]cc(-c2ccc3cc(C([NH-])=O)n(C(=O)[O-])c3c2)o1

>  <Energy>  (43) 
103.69302834071522

>  <Genealogy>  (43) 
Cc1[nH+]cc(-c2ccc3cc(C([NH-])=O)n(C(=O)[O-])c3c2)o1 (protonated)
Cc1[nH+]cc(-c2ccc3cc(C([NH-])=O)n(C(=O)[O-])c3c2)o1 (3D coordinates assigned)
Cc1[nH+]cc(-c2ccc3cc(C([NH-])=O)n(C(=O)[O-])c3c2)o1 (optimized conformer: 103.69302834071522 kcal/mol)

>  <smiles>  (43) 
Cc1ncc(-c2ccc3cc(C(N)=O)n(C(=O)O)c3c2)o1

>  <score_type>  (43) 
oracle

>  <origin>  (43) 
adg

>  <m_score__min__energy>  (43) 
-6.5300000000000002

>  <m_primary>  (43) 
energy

$$$$
43:0
     RDKit          3D

 37 39  0  0  0  0  0  0  0  0999 V2000
  141.4090  157.1020  138.3400 C   0  0  0  0  0  0  0  0  0  0  0  0
  141.6640  157.3890  136.9360 N   0  0  0  0  0  0  0  0  0  0  0  0
  141.1570  158.5350  136.2400 C   0  0  0  0  0  0  0  0  0  0  0  0
  141.3020  159.6740  136.7570 O   0  0  0  0  0  0  0  0  0  0  0  0
  140.4520  158.4140  134.9460 C   0  0  0  0  0  0  0  0  0  0  0  0
  139.1200  157.9650  134.9390 C   0  0  0  0  0  0  0  0  0  0  0  0
  138.4440  157.7690  133.7340 C   0  0  0  0  0  0  0  0  0  0  0  0
  139.0920  158.0030  132.5210 C   0  0  0  0  0  0  0  0  0  0  0  0
  140.4190  158.4390  132.5110 C   0  0  0  0  0  0  0  0  0  0  0  0
  141.1130  158.6540  133.7140 C   0  0  0  0  0  0  0  0  0  0  0  0
  142.5060  159.1560  133.6560 C   0  0  0  0  0  0  0  0  0  0  0  0
  142.7660  160.5420  133.7920 C   0  0  0  0  0  0  0  0  0  0  0  0
  144.0810  161.0350  133.7330 C   0  0  0  0  0  0  0  0  0  0  0  0
  145.1120  160.1180  133.5500 C   0  0  0  0  0  0  0  0  0  0  0  0
  146.4670  160.3230  133.4330 C   0  0  0  0  0  0  0  0  0  0  0  0
  147.0190  159.0570  133.2570 C   0  0  0  0  0  0  0  0  0  0  0  0
  148.4740  158.8080  133.1740 C   0  0  0  0  0  0  0  0  0  0  0  0
  149.0470  158.3550  131.9490 N   0  0  0  0  0  0  0  0  0  0  0  0
  149.2230  159.0300  134.1610 O   0  0  0  0  0  0  0  0  0  0  0  0
  146.0450  158.1040  133.2600 N   0  0  0  0  0  0  0  0  0  0  0  0
  146.1920  156.6930  133.0290 C   0  0  0  0  0  0  0  0  0  0  0  0
  147.0540  156.2680  132.2140 O   0  0  0  0  0  0  0  0  0  0  0  0
  145.4050  155.7820  133.7230 O   0  0  0  0  0  0  0  0  0  0  0  0
  144.8820  158.7710  133.4420 C   0  0  0  0  0  0  0  0  0  0  0  0
  143.5810  158.2550  133.4840 C   0  0  0  0  0  0  0  0  0  0  0  0
  142.0092  157.7775  138.9672 H   0  0  0  0  0  0  0  0  0  0  0  0
  140.3411  157.2523  138.5569 H   0  0  0  0  0  0  0  0  0  0  0  0
  141.6839  156.0592  138.5569 H   0  0  0  0  0  0  0  0  0  0  0  0
  138.6063  157.7665  135.8912 H   0  0  0  0  0  0  0  0  0  0  0  0
  137.3978  157.4292  133.7407 H   0  0  0  0  0  0  0  0  0  0  0  0
  138.5580  157.8442  131.5725 H   0  0  0  0  0  0  0  0  0  0  0  0
  140.9263  158.6160  131.5511 H   0  0  0  0  0  0  0  0  0  0  0  0
  141.9297  161.2399  133.9454 H   0  0  0  0  0  0  0  0  0  0  0  0
  144.2886  162.1110  133.8284 H   0  0  0  0  0  0  0  0  0  0  0  0
  147.0014  161.2837  133.4705 H   0  0  0  0  0  0  0  0  0  0  0  0
  148.7190  157.4720  131.4980 H   0  0  0  0  0  0  0  0  0  0  0  0
  143.4001  157.1745  133.3855 H   0  0  0  0  0  0  0  0  0  0  0  0
  1  2  1  0
  2  3  1  0
  3  4  2  0
  3  5  1  0
  5  6  2  0
  6  7  1  0
  7  8  2  0
  8  9  1  0
  9 10  2  0
 10 11  1  0
 11 12  2  0
 12 13  1  0
 13 14  2  0
 14 15  1  0
 15 16  2  0
 16 17  1  0
 17 18  1  0
 17 19  2  0
 16 20  1  0
 20 21  1  0
 21 22  2  0
 21 23  1  0
 20 24  1  0
 24 25  2  0
 10  5  1  0
 25 11  1  0
 24 14  1  0
  1 26  1  0
  1 27  1  0
  1 28  1  0
  6 29  1  0
  7 30  1  0
  8 31  1  0
  9 32  1  0
 12 33  1  0
 13 34  1  0
 15 35  1  0
 18 36  1  0
 25 37  1  0
M  CHG  3   2  -1  18  -1  23  -1
M  END
>  <UniqueID>  (44) 
44

>  <SMILES>  (44) 
C[N-]C(=O)c1ccccc1-c1ccc2cc(C([NH-])=O)n(C(=O)[O-])c2c1

>  <Energy>  (44) 
89.73149374020308

>  <Genealogy>  (44) 
C[N-]C(=O)c1ccccc1-c1ccc2cc(C([NH-])=O)n(C(=O)[O-])c2c1 (protonated)
C[N-]C(=O)c1ccccc1-c1ccc2cc(C([NH-])=O)n(C(=O)[O-])c2c1 (3D coordinates assigned)
C[N-]C(=O)c1ccccc1-c1ccc2cc(C([NH-])=O)n(C(=O)[O-])c2c1 (optimized conformer: 89.73149374020308 kcal/mol)

>  <smiles>  (44) 
CNC(=O)c1ccccc1-c1ccc2cc(C(N)=O)n(C(=O)O)c2c1

>  <score_type>  (44) 
oracle

>  <origin>  (44) 
adg

>  <m_score__min__energy>  (44) 
-7.6500000000000004

>  <m_primary>  (44) 
energy

$$$$
44:0
     RDKit          3D

 50 52  0  0  0  0  0  0  0  0999 V2000
  148.3630  153.7700  133.6780 C   0  0  0  0  0  0  0  0  0  0  0  0
  148.0830  154.6690  132.5630 N   0  0  0  0  0  0  0  0  0  0  0  0
  147.8110  156.0730  132.7220 C   0  0  0  0  0  0  0  0  0  0  0  0
  148.8410  157.0480  132.6070 C   0  0  0  0  0  0  0  0  0  0  0  0
  148.5560  158.4160  132.7650 C   0  0  0  0  0  0  0  0  0  0  0  0
  147.2410  158.7820  133.0350 C   0  0  0  0  0  0  0  0  0  0  0  0
  146.6850  160.0270  133.2260 C   0  0  0  0  0  0  0  0  0  0  0  0
  145.3300  159.7950  133.4570 C   0  0  0  0  0  0  0  0  0  0  0  0
  144.3550  160.8570  133.7730 C   0  0  0  0  0  0  0  0  0  0  0  0
  142.9940  160.7140  133.3760 N   0  0  0  0  0  0  0  0  0  0  0  0
  144.7170  161.9060  134.3670 O   0  0  0  0  0  0  0  0  0  0  0  0
  145.0600  158.4620  133.3940 N   0  0  0  0  0  0  0  0  0  0  0  0
  143.7890  157.8020  133.5040 C   0  0  0  0  0  0  0  0  0  0  0  0
  143.0130  157.8270  132.5100 O   0  0  0  0  0  0  0  0  0  0  0  0
  143.3750  157.0410  134.7590 C   0  0  2  0  0  0  0  0  0  0  0  0
  143.6960  155.5330  134.6280 C   0  0  0  0  0  0  0  0  0  0  0  0
  142.7200  154.8200  133.6780 C   0  0  0  0  0  0  0  0  0  0  0  0
  141.2230  155.1480  133.9480 C   0  0  2  0  0  0  0  0  0  0  0  0
  140.6360  155.8480  132.7850 N   0  0  0  0  0  0  0  0  0  0  0  0
  139.4810  156.6890  133.1520 C   0  0  0  0  0  0  0  0  0  0  0  0
  139.5530  158.0880  132.5280 C   0  0  0  0  0  0  0  0  0  0  0  0
  138.8720  159.0000  133.3140 F   0  0  0  0  0  0  0  0  0  0  0  0
  141.0480  155.9890  135.2330 C   0  0  0  0  0  0  0  0  0  0  0  0
  141.8880  157.2750  135.1800 C   0  0  0  0  0  0  0  0  0  0  0  0
  146.2400  157.8560  133.1500 C   0  0  0  0  0  0  0  0  0  0  0  0
  146.4910  156.4890  132.9980 C   0  0  0  0  0  0  0  0  0  0  0  0
  148.1977  154.3006  134.6273 H   0  0  0  0  0  0  0  0  0  0  0  0
  147.6937  152.8988  133.6236 H   0  0  0  0  0  0  0  0  0  0  0  0
  149.4087  153.4330  133.6236 H   0  0  0  0  0  0  0  0  0  0  0  0
  148.1000  154.2650  131.5990 H   0  0  0  0  0  0  0  0  0  0  0  0
  149.8713  156.7282  132.3922 H   0  0  0  0  0  0  0  0  0  0  0  0
  149.3486  159.1737  132.6778 H   0  0  0  0  0  0  0  0  0  0  0  0
  147.2005  160.9984  133.2015 H   0  0  0  0  0  0  0  0  0  0  0  0
  142.7120  159.9950  132.6730 H   0  0  0  0  0  0  0  0  0  0  0  0
  143.9804  157.4586  135.5770 H   0  0  0  0  0  0  0  0  0  0  0  0
  144.7184  155.4195  134.2384 H   0  0  0  0  0  0  0  0  0  0  0  0
  143.5982  155.0757  135.6237 H   0  0  0  0  0  0  0  0  0  0  0  0
  142.9595  155.1195  132.6470 H   0  0  0  0  0  0  0  0  0  0  0  0
  142.8448  153.7398  133.8443 H   0  0  0  0  0  0  0  0  0  0  0  0
  140.6905  154.1975  134.0995 H   0  0  0  0  0  0  0  0  0  0  0  0
  141.3510  156.4390  132.3010 H   0  0  0  0  0  0  0  0  0  0  0  0
  138.5608  156.1952  132.8064 H   0  0  0  0  0  0  0  0  0  0  0  0
  139.4884  156.8093  134.2454 H   0  0  0  0  0  0  0  0  0  0  0  0
  140.6061  158.3949  132.4458 H   0  0  0  0  0  0  0  0  0  0  0  0
  139.0899  158.0591  131.5307 H   0  0  0  0  0  0  0  0  0  0  0  0
  139.9872  156.2586  135.3426 H   0  0  0  0  0  0  0  0  0  0  0  0
  141.3884  155.3881  136.0892 H   0  0  0  0  0  0  0  0  0  0  0  0
  141.4262  157.9611  134.4547 H   0  0  0  0  0  0  0  0  0  0  0  0
  141.9051  157.6884  136.1992 H   0  0  0  0  0  0  0  0  0  0  0  0
  145.6778  155.7542  133.0915 H   0  0  0  0  0  0  0  0  0  0  0  0
  1  2  1  0
  2  3  1  0
  3  4  2  0
  4  5  1  0
  5  6  2  0
  6  7  1  0
  7  8  2  0
  8  9  1  0
  9 10  1  0
  9 11  2  0
  8 12  1  0
 12 13  1  0
 13 14  2  0
 13 15  1  0
 15 16  1  0
 16 17  1  0
 17 18  1  0
 18 19  1  0
 19 20  1  0
 20 21  1  0
 21 22  1  0
 18 23  1  0
 23 24  1  0
 12 25  1  0
 25 26  2  0
 26  3  1  0
 25  6  1  0
 24 15  1  0
  1 27  1  0
  1 28  1  0
  1 29  1  0
  2 30  1  0
  4 31  1  0
  5 32  1  0
  7 33  1  0
 10 34  1  0
 15 35  1  1
 16 36  1  0
 16 37  1  0
 17 38  1  0
 17 39  1  0
 18 40  1  1
 19 41  1  0
 20 42  1  0
 20 43  1  0
 21 44  1  0
 21 45  1  0
 23 46  1  0
 23 47  1  0
 24 48  1  0
 24 49  1  0
 26 50  1  0
M  CHG  1  10  -1
M  END
>  <UniqueID>  (45) 
45

>  <SMILES>  (45) 
CNc1ccc2cc(C([NH-])=O)n(C(=O)C3CCC(NCCF)CC3)c2c1

>  <Energy>  (45) 
94.53009699528803

>  <Genealogy>  (45) 
CNc1ccc2cc(C([NH-])=O)n(C(=O)C3CCC(NCCF)CC3)c2c1 (protonated)
CNc1ccc2cc(C([NH-])=O)n(C(=O)C3CCC(NCCF)CC3)c2c1 (3D coordinates assigned)
CNc1ccc2cc(C([NH-])=O)n(C(=O)C3CCC(NCCF)CC3)c2c1 (nonaromatic ring conformer: 94.53009699528803 kcal/mol)

>  <smiles>  (45) 
CNc1ccc2cc(C(N)=O)n(C(=O)C3CCC(NCCF)CC3)c2c1

>  <score_type>  (45) 
oracle

>  <origin>  (45) 
adg

>  <m_score__min__energy>  (45) 
-8.0899999999999999

>  <m_primary>  (45) 
energy

$$$$
45:0
     RDKit          3D

 46 48  0  0  0  0  0  0  0  0999 V2000
  148.7660  152.4350  138.4550 C   0  0  0  0  0  0  0  0  0  0  0  0
  147.8710  153.1500  137.4910 C   0  0  0  0  0  0  0  0  0  0  0  0
  146.8060  152.6350  137.1760 O   0  0  0  0  0  0  0  0  0  0  0  0
  148.2830  154.4880  136.9290 C   0  0  0  0  0  0  0  0  0  0  0  0
  147.6380  154.7780  135.6080 C   0  0  0  0  0  0  0  0  0  0  0  0
  148.0690  154.2190  134.5630 O   0  0  0  0  0  0  0  0  0  0  0  0
  146.5360  155.6370  135.5560 O   0  0  0  0  0  0  0  0  0  0  0  0
  145.2260  155.1860  135.2270 C   0  0  0  0  0  0  0  0  0  0  0  0
  144.9140  155.5580  133.8890 O   0  0  0  0  0  0  0  0  0  0  0  0
  145.7020  156.4410  133.1430 C   0  0  0  0  0  0  0  0  0  0  0  0
  146.4590  156.0050  132.2320 O   0  0  0  0  0  0  0  0  0  0  0  0
  145.6310  157.8510  133.4020 N   0  0  0  0  0  0  0  0  0  0  0  0
  146.6630  158.7310  133.5420 C   0  0  0  0  0  0  0  0  0  0  0  0
  148.0980  158.3830  133.6160 C   0  0  0  0  0  0  0  0  0  0  0  0
  148.5180  157.0390  133.8320 N   0  0  0  0  0  0  0  0  0  0  0  0
  148.9650  159.2940  133.5330 O   0  0  0  0  0  0  0  0  0  0  0  0
  146.1800  160.0290  133.6950 C   0  0  0  0  0  0  0  0  0  0  0  0
  144.8090  159.9150  133.6530 C   0  0  0  0  0  0  0  0  0  0  0  0
  143.8270  160.8960  133.7450 C   0  0  0  0  0  0  0  0  0  0  0  0
  142.4850  160.4960  133.6400 C   0  0  0  0  0  0  0  0  0  0  0  0
  142.1460  159.1320  133.4430 C   0  0  0  0  0  0  0  0  0  0  0  0
  140.7270  158.7210  133.3150 C   0  0  0  0  0  0  0  0  0  0  0  0
  140.0900  158.0510  134.3720 C   0  0  0  0  0  0  0  0  0  0  0  0
  138.7540  157.6630  134.2410 C   0  0  0  0  0  0  0  0  0  0  0  0
  138.0710  157.9370  133.0970 N   0  0  0  0  0  0  0  0  0  0  0  0
  138.6590  158.5880  132.0590 C   0  0  0  0  0  0  0  0  0  0  0  0
  139.9940  158.9930  132.1460 C   0  0  0  0  0  0  0  0  0  0  0  0
  140.5480  159.6780  131.1130 F   0  0  0  0  0  0  0  0  0  0  0  0
  143.1750  158.1650  133.3490 C   0  0  0  0  0  0  0  0  0  0  0  0
  144.5030  158.5910  133.4750 C   0  0  0  0  0  0  0  0  0  0  0  0
  148.4635  152.6767  139.4846 H   0  0  0  0  0  0  0  0  0  0  0  0
  148.6855  151.3498  138.2943 H   0  0  0  0  0  0  0  0  0  0  0  0
  149.8066  152.7532  138.2943 H   0  0  0  0  0  0  0  0  0  0  0  0
  147.9951  155.2742  137.6424 H   0  0  0  0  0  0  0  0  0  0  0  0
  149.3714  154.4640  136.7717 H   0  0  0  0  0  0  0  0  0  0  0  0
  145.1813  154.0911  135.3223 H   0  0  0  0  0  0  0  0  0  0  0  0
  144.4989  155.6457  135.9126 H   0  0  0  0  0  0  0  0  0  0  0  0
  147.8210  156.2660  133.9230 H   0  0  0  0  0  0  0  0  0  0  0  0
  146.7691  160.9492  133.8223 H   0  0  0  0  0  0  0  0  0  0  0  0
  144.0935  161.9526  133.8954 H   0  0  0  0  0  0  0  0  0  0  0  0
  141.6866  161.2493  133.7113 H   0  0  0  0  0  0  0  0  0  0  0  0
  140.6403  157.8325  135.2991 H   0  0  0  0  0  0  0  0  0  0  0  0
  138.2531  157.1344  135.0655 H   0  0  0  0  0  0  0  0  0  0  0  0
  137.0720  157.6410  133.0160 H   0  0  0  0  0  0  0  0  0  0  0  0
  138.0817  158.7971  131.1463 H   0  0  0  0  0  0  0  0  0  0  0  0
  142.9374  157.1042  133.1810 H   0  0  0  0  0  0  0  0  0  0  0  0
  1  2  1  0
  2  3  2  0
  2  4  1  0
  4  5  1  0
  5  6  2  0
  5  7  1  0
  7  8  1  0
  8  9  1  0
  9 10  1  0
 10 11  2  0
 10 12  1  0
 12 13  1  0
 13 14  1  0
 14 15  1  0
 14 16  2  0
 13 17  2  0
 17 18  1  0
 18 19  2  0
 19 20  1  0
 20 21  2  0
 21 22  1  0
 22 23  2  0
 23 24  1  0
 24 25  2  0
 25 26  1  0
 26 27  2  0
 27 28  1  0
 21 29  1  0
 29 30  2  0
 30 12  1  0
 30 18  1  0
 27 22  1  0
  1 31  1  0
  1 32  1  0
  1 33  1  0
  4 34  1  0
  4 35  1  0
  8 36  1  0
  8 37  1  0
 15 38  1  0
 17 39  1  0
 19 40  1  0
 20 41  1  0
 23 42  1  0
 24 43  1  0
 25 44  1  0
 26 45  1  0
 29 46  1  0
M  CHG  2  15  -1  25   1
M  END
>  <UniqueID>  (46) 
46

>  <SMILES>  (46) 
CC(=O)CC(=O)OCOC(=O)n1c(C([NH-])=O)cc2ccc(-c3cc[nH+]cc3F)cc21

>  <Energy>  (46) 
87.17191632900165

>  <Genealogy>  (46) 
CC(=O)CC(=O)OCOC(=O)n1c(C([NH-])=O)cc2ccc(-c3cc[nH+]cc3F)cc21 (protonated)
CC(=O)CC(=O)OCOC(=O)n1c(C([NH-])=O)cc2ccc(-c3cc[nH+]cc3F)cc21 (3D coordinates assigned)
CC(=O)CC(=O)OCOC(=O)n1c(C([NH-])=O)cc2ccc(-c3cc[nH+]cc3F)cc21 (optimized conformer: 87.17191632900165 kcal/mol)

>  <smiles>  (46) 
CC(=O)CC(=O)OCOC(=O)n1c(C(N)=O)cc2ccc(-c3ccncc3F)cc21

>  <score_type>  (46) 
oracle

>  <origin>  (46) 
adg

>  <m_score__min__energy>  (46) 
-7.3399999999999999

>  <m_primary>  (46) 
energy

$$$$
46:0
     RDKit          3D

 42 44  0  0  0  0  0  0  0  0999 V2000
  139.9490  159.7530  132.3840 C   0  0  0  0  0  0  0  0  0  0  0  0
  140.2460  158.8360  133.4960 N   0  0  0  0  0  0  0  0  0  0  0  0
  141.4030  157.9680  133.2220 C   0  0  0  0  0  0  0  0  0  0  0  0
  142.1930  158.5230  134.3990 C   0  0  0  0  0  0  0  0  0  0  0  0
  143.5500  159.1140  134.0520 C   0  0  0  0  0  0  0  0  0  0  0  0
  143.8220  160.5090  134.1080 C   0  0  0  0  0  0  0  0  0  0  0  0
  145.0880  161.0100  133.7640 C   0  0  0  0  0  0  0  0  0  0  0  0
  146.0600  160.1060  133.3510 C   0  0  0  0  0  0  0  0  0  0  0  0
  147.3690  160.3190  132.9830 C   0  0  0  0  0  0  0  0  0  0  0  0
  147.8740  159.0590  132.6740 C   0  0  0  0  0  0  0  0  0  0  0  0
  149.2340  158.8340  132.1420 C   0  0  0  0  0  0  0  0  0  0  0  0
  149.7540  157.5150  131.9980 N   0  0  0  0  0  0  0  0  0  0  0  0
  149.9260  159.8160  131.7640 O   0  0  0  0  0  0  0  0  0  0  0  0
  146.9180  158.1040  132.8500 N   0  0  0  0  0  0  0  0  0  0  0  0
  147.0720  156.6810  132.7350 C   0  0  0  0  0  0  0  0  0  0  0  0
  147.0140  156.1310  131.6020 O   0  0  0  0  0  0  0  0  0  0  0  0
  147.2640  155.9110  133.8850 O   0  0  0  0  0  0  0  0  0  0  0  0
  147.1030  154.4960  133.9000 C   0  0  0  0  0  0  0  0  0  0  0  0
  148.3530  153.8160  133.3360 C   0  0  0  0  0  0  0  0  0  0  0  0
  148.9320  154.5730  132.2270 N   0  0  0  0  0  0  0  0  0  0  0  0
  145.8120  158.7630  133.2630 C   0  0  0  0  0  0  0  0  0  0  0  0
  144.5680  158.2320  133.6170 C   0  0  0  0  0  0  0  0  0  0  0  0
  141.0170  159.4780  134.5720 C   0  0  0  0  0  0  0  0  0  0  0  0
  139.6335  160.7270  132.7862 H   0  0  0  0  0  0  0  0  0  0  0  0
  140.8502  159.8855  131.7673 H   0  0  0  0  0  0  0  0  0  0  0  0
  139.1413  159.3320  131.7673 H   0  0  0  0  0  0  0  0  0  0  0  0
  141.1770  156.8953  133.3131 H   0  0  0  0  0  0  0  0  0  0  0  0
  141.8571  157.9882  132.2203 H   0  0  0  0  0  0  0  0  0  0  0  0
  142.5667  157.9116  135.2336 H   0  0  0  0  0  0  0  0  0  0  0  0
  143.0306  161.2042  134.4248 H   0  0  0  0  0  0  0  0  0  0  0  0
  145.3044  162.0871  133.8198 H   0  0  0  0  0  0  0  0  0  0  0  0
  147.9025  161.2801  132.9418 H   0  0  0  0  0  0  0  0  0  0  0  0
  149.1260  156.7120  131.7770 H   0  0  0  0  0  0  0  0  0  0  0  0
  146.9419  154.1595  134.9348 H   0  0  0  0  0  0  0  0  0  0  0  0
  146.2364  154.2267  133.2784 H   0  0  0  0  0  0  0  0  0  0  0  0
  149.1023  153.7288  134.1366 H   0  0  0  0  0  0  0  0  0  0  0  0
  148.0607  152.8256  132.9569 H   0  0  0  0  0  0  0  0  0  0  0  0
  148.9200  155.5910  132.4670 H   0  0  0  0  0  0  0  0  0  0  0  0
  148.3420  154.4360  131.3750 H   0  0  0  0  0  0  0  0  0  0  0  0
  144.3839  157.1491  133.5586 H   0  0  0  0  0  0  0  0  0  0  0  0
  140.5359  159.4064  135.5586 H   0  0  0  0  0  0  0  0  0  0  0  0
  141.1997  160.5616  134.5220 H   0  0  0  0  0  0  0  0  0  0  0  0
  1  2  1  0
  2  3  1  0
  3  4  1  0
  4  5  1  0
  5  6  2  0
  6  7  1  0
  7  8  2  0
  8  9  1  0
  9 10  2  0
 10 11  1  0
 11 12  1  0
 11 13  2  0
 10 14  1  0
 14 15  1  0
 15 16  2  0
 15 17  1  0
 17 18  1  0
 18 19  1  0
 19 20  1  0
 14 21  1  0
 21 22  2  0
  4 23  1  0
 23  2  1  0
 22  5  1  0
 21  8  1  0
  1 24  1  0
  1 25  1  0
  1 26  1  0
  3 27  1  0
  3 28  1  0
  4 29  1  0
  6 30  1  0
  7 31  1  0
  9 32  1  0
 12 33  1  0
 18 34  1  0
 18 35  1  0
 19 36  1  0
 19 37  1  0
 20 38  1  0
 20 39  1  0
 22 40  1  0
 23 41  1  0
 23 42  1  0
M  CHG  1  12  -1
M  END
>  <UniqueID>  (47) 
47

>  <SMILES>  (47) 
CN1CC(c2ccc3cc(C([NH-])=O)n(C(=O)OCCN)c3c2)C1

>  <Energy>  (47) 
150.44247619795215

>  <Genealogy>  (47) 
CN1CC(c2ccc3cc(C([NH-])=O)n(C(=O)OCCN)c3c2)C1 (protonated)
CN1CC(c2ccc3cc(C([NH-])=O)n(C(=O)OCCN)c3c2)C1 (3D coordinates assigned)
CN1CC(c2ccc3cc(C([NH-])=O)n(C(=O)OCCN)c3c2)C1 (nonaromatic ring conformer: 150.44247619795215 kcal/mol)

>  <smiles>  (47) 
CN1CC(c2ccc3cc(C(N)=O)n(C(=O)OCCN)c3c2)C1

>  <score_type>  (47) 
oracle

>  <origin>  (47) 
adg

>  <m_score__min__energy>  (47) 
-6.6799999999999997

>  <m_primary>  (47) 
energy

$$$$
47:0
     RDKit          3D

 45 46  0  0  0  0  0  0  0  0999 V2000
  139.1910  150.5060  132.1180 C   0  0  0  0  0  0  0  0  0  0  0  0
  140.4600  149.9140  131.4880 C   0  0  2  0  0  0  0  0  0  0  0  0
  140.3730  148.3800  131.3130 C   0  0  0  0  0  0  0  0  0  0  0  0
  139.4210  147.9370  130.1940 C   0  0  0  0  0  0  0  0  0  0  0  0
  138.4180  147.0940  130.6960 O   0  0  0  0  0  0  0  0  0  0  0  0
  141.6590  150.2830  132.2710 N   0  0  0  0  0  0  0  0  0  0  0  0
  142.8770  149.4730  132.1800 C   0  0  0  0  0  0  0  0  0  0  0  0
  141.6310  151.3210  133.2680 C   0  0  0  0  0  0  0  0  0  0  0  0
  141.3840  151.0150  134.4680 O   0  0  0  0  0  0  0  0  0  0  0  0
  141.8650  152.7590  132.8980 C   0  0  0  0  0  0  0  0  0  0  0  0
  143.2960  153.1630  133.1370 C   0  0  0  0  0  0  0  0  0  0  0  0
  143.5850  154.3800  133.8020 C   0  0  0  0  0  0  0  0  0  0  0  0
  144.9140  154.7790  134.0140 C   0  0  0  0  0  0  0  0  0  0  0  0
  145.9280  153.9550  133.5360 C   0  0  0  0  0  0  0  0  0  0  0  0
  147.2930  154.0940  133.6310 C   0  0  0  0  0  0  0  0  0  0  0  0
  147.8210  152.9810  132.9880 C   0  0  0  0  0  0  0  0  0  0  0  0
  149.2700  152.7470  132.8280 C   0  0  0  0  0  0  0  0  0  0  0  0
  149.8750  151.5260  133.2570 N   0  0  0  0  0  0  0  0  0  0  0  0
  149.9770  153.6170  132.2540 O   0  0  0  0  0  0  0  0  0  0  0  0
  146.8270  152.1720  132.5230 N   0  0  0  0  0  0  0  0  0  0  0  0
  146.9970  150.8790  131.9140 C   0  0  0  0  0  0  0  0  0  0  0  0
  147.6560  149.9710  132.4840 O   0  0  0  0  0  0  0  0  0  0  0  0
  145.6680  152.7840  132.8670 C   0  0  0  0  0  0  0  0  0  0  0  0
  144.3510  152.3540  132.6580 C   0  0  0  0  0  0  0  0  0  0  0  0
  139.2736  150.4675  133.2142 H   0  0  0  0  0  0  0  0  0  0  0  0
  139.0749  151.5512  131.7955 H   0  0  0  0  0  0  0  0  0  0  0  0
  138.3155  149.9234  131.7955 H   0  0  0  0  0  0  0  0  0  0  0  0
  140.5476  150.3487  130.4813 H   0  0  0  0  0  0  0  0  0  0  0  0
  141.3792  147.9996  131.0831 H   0  0  0  0  0  0  0  0  0  0  0  0
  139.9734  147.9726  132.2534 H   0  0  0  0  0  0  0  0  0  0  0  0
  138.9535  148.8260  129.7456 H   0  0  0  0  0  0  0  0  0  0  0  0
  139.9990  147.3851  129.4381 H   0  0  0  0  0  0  0  0  0  0  0  0
  137.7390  147.6780  131.1240 H   0  0  0  0  0  0  0  0  0  0  0  0
  143.2353  149.2347  133.1923 H   0  0  0  0  0  0  0  0  0  0  0  0
  142.6576  148.5403  131.6397 H   0  0  0  0  0  0  0  0  0  0  0  0
  143.6523  150.0361  131.6397 H   0  0  0  0  0  0  0  0  0  0  0  0
  141.6273  152.8976  131.8330 H   0  0  0  0  0  0  0  0  0  0  0  0
  141.2184  153.3877  133.5278 H   0  0  0  0  0  0  0  0  0  0  0  0
  142.7611  155.0176  134.1552 H   0  0  0  0  0  0  0  0  0  0  0  0
  145.1468  155.7153  134.5424 H   0  0  0  0  0  0  0  0  0  0  0  0
  147.8484  154.9119  134.1132 H   0  0  0  0  0  0  0  0  0  0  0  0
  149.2940  150.7160  133.5660 H   0  0  0  0  0  0  0  0  0  0  0  0
  150.9080  151.3980  133.1770 H   0  0  0  0  0  0  0  0  0  0  0  0
  146.5424  150.6808  130.9321 H   0  0  0  0  0  0  0  0  0  0  0  0
  144.1433  151.4095  132.1338 H   0  0  0  0  0  0  0  0  0  0  0  0
  1  2  1  0
  2  3  1  0
  3  4  1  0
  4  5  1  0
  2  6  1  0
  6  7  1  0
  6  8  1  0
  8  9  2  0
  8 10  1  0
 10 11  1  0
 11 12  2  0
 12 13  1  0
 13 14  2  0
 14 15  1  0
 15 16  2  0
 16 17  1  0
 17 18  1  0
 17 19  2  0
 16 20  1  0
 20 21  1  0
 21 22  2  0
 20 23  1  0
 23 24  2  0
 24 11  1  0
 23 14  1  0
  1 25  1  0
  1 26  1  0
  1 27  1  0
  2 28  1  6
  3 29  1  0
  3 30  1  0
  4 31  1  0
  4 32  1  0
  5 33  1  0
  7 34  1  0
  7 35  1  0
  7 36  1  0
 10 37  1  0
 10 38  1  0
 12 39  1  0
 13 40  1  0
 15 41  1  0
 18 42  1  0
 18 43  1  0
 21 44  1  0
 24 45  1  0
M  END
>  <UniqueID>  (48) 
48

>  <SMILES>  (48) 
C[C@H](CCO)N(C)C(=O)Cc1ccc2cc(C(N)=O)n(C=O)c2c1

>  <Energy>  (48) 
82.21942351575964

>  <Genealogy>  (48) 
C[C@H](CCO)N(C)C(=O)Cc1ccc2cc(C(N)=O)n(C=O)c2c1 (chirality)
C[C@H](CCO)N(C)C(=O)Cc1ccc2cc(C(N)=O)n(C=O)c2c1 (3D coordinates assigned)
C[C@H](CCO)N(C)C(=O)Cc1ccc2cc(C(N)=O)n(C=O)c2c1 (optimized conformer: 82.21942351575964 kcal/mol)

>  <smiles>  (48) 
CC(CCO)N(C)C(=O)Cc1ccc2cc(C(N)=O)n(C=O)c2c1

>  <score_type>  (48) 
oracle

>  <origin>  (48) 
adg

>  <m_score__min__energy>  (48) 
-7.6500000000000004

>  <m_primary>  (48) 
energy

$$$$
48:0
     RDKit          3D

 51 54  0  0  0  0  0  0  0  0999 V2000
  139.3790  148.0960  130.5530 C   0  0  0  0  0  0  0  0  0  0  0  0
  139.8730  149.4590  131.2890 P   0  0  0  0  0  0  0  0  0  0  0  0
  138.8300  149.7950  132.5770 O   0  0  0  0  0  0  0  0  0  0  0  0
  139.8470  150.7480  130.1930 O   0  0  0  0  0  0  0  0  0  0  0  0
  141.5640  149.2430  131.9270 C   0  0  0  0  0  0  0  0  0  0  0  0
  141.7340  149.9430  133.2760 C   0  0  0  0  0  0  0  0  0  0  0  0
  141.7700  151.3890  133.0890 N   0  0  0  0  0  0  0  0  0  0  0  0
  142.8100  152.2040  133.3270 C   0  0  0  0  0  0  0  0  0  0  0  0
  142.3640  153.4860  133.0560 C   0  0  0  0  0  0  0  0  0  0  0  0
  143.1270  154.7510  133.1510 C   0  0  0  0  0  0  0  0  0  0  0  0
  142.4640  155.9970  133.3180 C   0  0  0  0  0  0  0  0  0  0  0  0
  143.1970  157.1940  133.4090 C   0  0  0  0  0  0  0  0  0  0  0  0
  144.5840  157.1190  133.3340 C   0  0  0  0  0  0  0  0  0  0  0  0
  145.5330  158.1130  133.4100 C   0  0  0  0  0  0  0  0  0  0  0  0
  146.7580  157.4610  133.2870 C   0  0  0  0  0  0  0  0  0  0  0  0
  148.0540  158.1620  133.2040 C   0  0  0  0  0  0  0  0  0  0  0  0
  148.9570  157.8980  132.1330 N   0  0  0  0  0  0  0  0  0  0  0  0
  148.3460  159.0400  134.0580 O   0  0  0  0  0  0  0  0  0  0  0  0
  146.5740  156.1190  133.1550 N   0  0  0  0  0  0  0  0  0  0  0  0
  147.5690  155.0850  133.1870 C   0  0  0  0  0  0  0  0  0  0  0  0
  148.3950  154.9820  132.2410 O   0  0  0  0  0  0  0  0  0  0  0  0
  147.5630  154.0520  134.2840 C   0  0  0  0  0  0  0  0  0  0  0  0
  147.4500  154.6980  135.6680 C   0  0  0  0  0  0  0  0  0  0  0  0
  147.8040  153.7400  136.7620 C   0  0  0  0  0  0  0  0  0  0  0  0
  148.9270  153.8270  137.5000 N   0  0  0  0  0  0  0  0  0  0  0  0
  148.8940  152.8290  138.3630 N   0  0  0  0  0  0  0  0  0  0  0  0
  147.7490  152.1700  138.1220 C   0  0  0  0  0  0  0  0  0  0  0  0
  147.3880  151.1510  138.7680 O   0  0  0  0  0  0  0  0  0  0  0  0
  147.0200  152.7030  137.1240 N   0  0  0  0  0  0  0  0  0  0  0  0
  145.2380  155.9270  133.1710 C   0  0  0  0  0  0  0  0  0  0  0  0
  144.5380  154.7220  133.0740 C   0  0  0  0  0  0  0  0  0  0  0  0
  141.0720  153.4030  132.6720 N   0  0  0  0  0  0  0  0  0  0  0  0
  140.7370  152.1210  132.7080 N   0  0  0  0  0  0  0  0  0  0  0  0
  139.9320  147.7083  129.6848 H   0  0  0  0  0  0  0  0  0  0  0  0
  138.4917  147.5615  130.9233 H   0  0  0  0  0  0  0  0  0  0  0  0
  139.1880  150.6250  132.9810 H   0  0  0  0  0  0  0  0  0  0  0  0
  140.1630  151.5320  130.7110 H   0  0  0  0  0  0  0  0  0  0  0  0
  141.7674  148.1691  132.0508 H   0  0  0  0  0  0  0  0  0  0  0  0
  142.2689  149.6884  131.2096 H   0  0  0  0  0  0  0  0  0  0  0  0
  140.8894  149.6817  133.9305 H   0  0  0  0  0  0  0  0  0  0  0  0
  142.6785  149.6156  133.7351 H   0  0  0  0  0  0  0  0  0  0  0  0
  143.8140  151.9119  133.6685 H   0  0  0  0  0  0  0  0  0  0  0  0
  141.3659  156.0255  133.3767 H   0  0  0  0  0  0  0  0  0  0  0  0
  142.6884  158.1611  133.5358 H   0  0  0  0  0  0  0  0  0  0  0  0
  145.3610  159.1917  133.5401 H   0  0  0  0  0  0  0  0  0  0  0  0
  148.9190  156.9980  131.6090 H   0  0  0  0  0  0  0  0  0  0  0  0
  146.7071  153.3775  134.1342 H   0  0  0  0  0  0  0  0  0  0  0  0
  148.5126  153.4986  134.2398 H   0  0  0  0  0  0  0  0  0  0  0  0
  148.1324  155.5594  135.7151 H   0  0  0  0  0  0  0  0  0  0  0  0
  146.4055  155.0108  135.8138 H   0  0  0  0  0  0  0  0  0  0  0  0
  145.0737  153.7706  132.9405 H   0  0  0  0  0  0  0  0  0  0  0  0
  1  2  2  0
  2  3  1  0
  2  4  1  0
  2  5  1  0
  5  6  1  0
  6  7  1  0
  7  8  1  0
  8  9  2  0
  9 10  1  0
 10 11  2  0
 11 12  1  0
 12 13  2  0
 13 14  1  0
 14 15  2  0
 15 16  1  0
 16 17  1  0
 16 18  2  0
 15 19  1  0
 19 20  1  0
 20 21  2  0
 20 22  1  0
 22 23  1  0
 23 24  1  0
 24 25  2  0
 25 26  1  0
 26 27  1  0
 27 28  2  0
 27 29  1  0
 19 30  1  0
 30 31  2  0
  9 32  1  0
 32 33  2  0
 33  7  1  0
 31 10  1  0
 30 13  1  0
 29 24  1  0
  1 34  1  0
  1 35  1  0
  3 36  1  0
  4 37  1  0
  5 38  1  0
  5 39  1  0
  6 40  1  0
  6 41  1  0
  8 42  1  0
 11 43  1  0
 12 44  1  0
 14 45  1  0
 17 46  1  0
 22 47  1  0
 22 48  1  0
 23 49  1  0
 23 50  1  0
 31 51  1  0
M  CHG  3  17  -1  26  -1  29  -1
M  END
>  <UniqueID>  (49) 
49

>  <SMILES>  (49) 
C=P(O)(O)CCn1cc(-c2ccc3cc(C([NH-])=O)n(C(=O)CCc4n[n-]c(=O)[n-]4)c3c2)nn1

>  <Energy>  (49) 
148.14689739575746

>  <Genealogy>  (49) 
C=P(O)(O)CCn1cc(-c2ccc3cc(C([NH-])=O)n(C(=O)CCc4n[n-]c(=O)[n-]4)c3c2)nn1 (protonated)
C=P(O)(O)CCn1cc(-c2ccc3cc(C([NH-])=O)n(C(=O)CCc4n[n-]c(=O)[n-]4)c3c2)nn1 (3D coordinates assigned)
C=P(O)(O)CCn1cc(-c2ccc3cc(C([NH-])=O)n(C(=O)CCc4n[n-]c(=O)[n-]4)c3c2)nn1 (optimized conformer: 148.14689739575746 kcal/mol)

>  <smiles>  (49) 
C=P(O)(O)CCn1cc(-c2ccc3cc(C(N)=O)n(C(=O)CCc4n[nH]c(=O)[nH]4)c3c2)nn1

>  <score_type>  (49) 
oracle

>  <origin>  (49) 
adg

>  <m_score__min__energy>  (49) 
-9.5600000000000005

>  <m_primary>  (49) 
energy

$$$$
49:0
     RDKit          3D

 44 46  0  0  0  0  0  0  0  0999 V2000
  142.4010  154.5420  138.2530 C   0  0  0  0  0  0  0  0  0  0  0  0
  141.2870  155.8320  138.7720 S   0  0  0  0  0  0  0  0  0  0  0  0
  141.6740  156.2770  140.1550 O   0  0  0  0  0  0  0  0  0  0  0  0
  139.8830  155.2960  138.8070 O   0  0  0  0  0  0  0  0  0  0  0  0
  141.3680  157.1990  137.6990 N   0  0  0  0  0  0  0  0  0  0  0  0
  140.3340  157.1340  136.6580 C   0  0  0  0  0  0  0  0  0  0  0  0
  139.8410  158.5610  136.3570 C   0  0  0  0  0  0  0  0  0  0  0  0
  140.9490  159.4140  135.7190 C   0  0  0  0  0  0  0  0  0  0  0  0
  141.6920  158.6560  134.7010 N   0  0  0  0  0  0  0  0  0  0  0  0
  142.9790  159.1270  134.2580 C   0  0  0  0  0  0  0  0  0  0  0  0
  143.2230  160.5170  134.1220 C   0  0  0  0  0  0  0  0  0  0  0  0
  144.4830  160.9900  133.7180 C   0  0  0  0  0  0  0  0  0  0  0  0
  145.4770  160.0530  133.4540 C   0  0  0  0  0  0  0  0  0  0  0  0
  146.7870  160.2370  133.0760 C   0  0  0  0  0  0  0  0  0  0  0  0
  147.3260  158.9560  132.9720 C   0  0  0  0  0  0  0  0  0  0  0  0
  148.7010  158.6770  132.5000 C   0  0  0  0  0  0  0  0  0  0  0  0
  149.0160  157.4400  131.8590 N   0  0  0  0  0  0  0  0  0  0  0  0
  149.6180  159.5200  132.6900 O   0  0  0  0  0  0  0  0  0  0  0  0
  146.3850  158.0170  133.2750 N   0  0  0  0  0  0  0  0  0  0  0  0
  146.5570  156.5910  133.3410 C   0  0  0  0  0  0  0  0  0  0  0  0
  146.4550  155.9880  134.4430 O   0  0  0  0  0  0  0  0  0  0  0  0
  146.8250  155.8600  132.1900 O   0  0  0  0  0  0  0  0  0  0  0  0
  145.2580  158.7050  133.5670 C   0  0  0  0  0  0  0  0  0  0  0  0
  144.0190  158.2070  133.9860 C   0  0  0  0  0  0  0  0  0  0  0  0
  141.1440  157.3840  134.2150 C   0  0  0  0  0  0  0  0  0  0  0  0
  140.9000  156.4290  135.3920 C   0  0  0  0  0  0  0  0  0  0  0  0
  142.8277  154.0479  139.1383 H   0  0  0  0  0  0  0  0  0  0  0  0
  141.8518  153.8038  137.6501 H   0  0  0  0  0  0  0  0  0  0  0  0
  143.2113  154.9779  137.6501 H   0  0  0  0  0  0  0  0  0  0  0  0
  139.4755  156.5391  137.0031 H   0  0  0  0  0  0  0  0  0  0  0  0
  138.9879  158.5064  135.6647 H   0  0  0  0  0  0  0  0  0  0  0  0
  139.5442  159.0321  137.3056 H   0  0  0  0  0  0  0  0  0  0  0  0
  140.4935  160.2966  135.2462 H   0  0  0  0  0  0  0  0  0  0  0  0
  141.6530  159.7136  136.5093 H   0  0  0  0  0  0  0  0  0  0  0  0
  142.4163  161.2337  134.3353 H   0  0  0  0  0  0  0  0  0  0  0  0
  144.6774  162.0677  133.6137 H   0  0  0  0  0  0  0  0  0  0  0  0
  147.3003  161.1928  132.8943 H   0  0  0  0  0  0  0  0  0  0  0  0
  149.9970  157.2370  131.5660 H   0  0  0  0  0  0  0  0  0  0  0  0
  148.2740  156.7400  131.6360 H   0  0  0  0  0  0  0  0  0  0  0  0
  143.8574  157.1251  134.1012 H   0  0  0  0  0  0  0  0  0  0  0  0
  140.1924  157.5726  133.6965 H   0  0  0  0  0  0  0  0  0  0  0  0
  141.8638  156.9239  133.5221 H   0  0  0  0  0  0  0  0  0  0  0  0
  140.1823  155.6591  135.0723 H   0  0  0  0  0  0  0  0  0  0  0  0
  141.8752  156.0020  135.6689 H   0  0  0  0  0  0  0  0  0  0  0  0
  1  2  1  0
  2  3  2  0
  2  4  2  0
  2  5  1  0
  5  6  1  0
  6  7  1  0
  7  8  1  0
  8  9  1  0
  9 10  1  0
 10 11  2  0
 11 12  1  0
 12 13  2  0
 13 14  1  0
 14 15  2  0
 15 16  1  0
 16 17  1  0
 16 18  2  0
 15 19  1  0
 19 20  1  0
 20 21  2  0
 20 22  1  0
 19 23  1  0
 23 24  2  0
  9 25  1  0
 25 26  1  0
 26  6  1  0
 24 10  1  0
 23 13  1  0
  1 27  1  0
  1 28  1  0
  1 29  1  0
  6 30  1  0
  7 31  1  0
  7 32  1  0
  8 33  1  0
  8 34  1  0
 11 35  1  0
 12 36  1  0
 14 37  1  0
 17 38  1  0
 17 39  1  0
 24 40  1  0
 25 41  1  0
 25 42  1  0
 26 43  1  0
 26 44  1  0
M  CHG  2   5  -1  22  -1
M  END
>  <UniqueID>  (50) 
50

>  <SMILES>  (50) 
CS(=O)(=O)[N-]C1CCN(c2ccc3cc(C(N)=O)n(C(=O)[O-])c3c2)CC1

>  <Energy>  (50) 
85.7138828493537

>  <Genealogy>  (50) 
CS(=O)(=O)[N-]C1CCN(c2ccc3cc(C(N)=O)n(C(=O)[O-])c3c2)CC1 (protonated)
CS(=O)(=O)[N-]C1CCN(c2ccc3cc(C(N)=O)n(C(=O)[O-])c3c2)CC1 (3D coordinates assigned)
CS(=O)(=O)[N-]C1CCN(c2ccc3cc(C(N)=O)n(C(=O)[O-])c3c2)CC1 (nonaromatic ring conformer: 85.7138828493537 kcal/mol)

>  <smiles>  (50) 
CS(=O)(=O)NC1CCN(c2ccc3cc(C(N)=O)n(C(=O)O)c3c2)CC1

>  <score_type>  (50) 
oracle

>  <origin>  (50) 
adg

>  <m_score__min__energy>  (50) 
-8.5800000000000001

>  <m_primary>  (50) 
energy

$$$$
50:0
     RDKit          3D

 41 42  0  0  0  0  0  0  0  0999 V2000
  137.5850  159.3770  131.1890 C   0  0  0  0  0  0  0  0  0  0  0  0
  139.0390  159.2970  131.4170 N   0  0  0  0  0  0  0  0  0  0  0  0
  139.4760  160.4520  132.2170 C   0  0  0  0  0  0  0  0  0  0  0  0
  139.4080  158.0300  132.0860 C   0  0  0  0  0  0  0  0  0  0  0  0
  138.7020  157.8870  133.4430 C   0  0  0  0  0  0  0  0  0  0  0  0
  139.6730  157.9060  134.5520 N   0  0  0  0  0  0  0  0  0  0  0  0
  139.2130  158.2210  135.9140 C   0  0  0  0  0  0  0  0  0  0  0  0
  141.0860  157.7250  134.3020 C   0  0  0  0  0  0  0  0  0  0  0  0
  141.6070  156.4380  133.9950 C   0  0  0  0  0  0  0  0  0  0  0  0
  142.9630  156.2670  133.6720 C   0  0  0  0  0  0  0  0  0  0  0  0
  143.7840  157.3910  133.6850 C   0  0  0  0  0  0  0  0  0  0  0  0
  145.1170  157.5120  133.3650 C   0  0  0  0  0  0  0  0  0  0  0  0
  145.4120  158.8610  133.5390 C   0  0  0  0  0  0  0  0  0  0  0  0
  146.7610  159.4290  133.3520 C   0  0  0  0  0  0  0  0  0  0  0  0
  146.9440  160.8090  133.0290 N   0  0  0  0  0  0  0  0  0  0  0  0
  147.7710  158.7000  133.5340 O   0  0  0  0  0  0  0  0  0  0  0  0
  144.3060  159.5510  133.9380 N   0  0  0  0  0  0  0  0  0  0  0  0
  144.1760  160.9730  134.0960 C   0  0  0  0  0  0  0  0  0  0  0  0
  143.2310  161.5960  133.5400 O   0  0  0  0  0  0  0  0  0  0  0  0
  145.1020  161.6810  134.8540 O   0  0  0  0  0  0  0  0  0  0  0  0
  143.3160  158.6340  134.0220 C   0  0  0  0  0  0  0  0  0  0  0  0
  141.9630  158.8380  134.3230 C   0  0  0  0  0  0  0  0  0  0  0  0
  137.0631  159.4057  132.1569 H   0  0  0  0  0  0  0  0  0  0  0  0
  137.3527  160.2893  130.6200 H   0  0  0  0  0  0  0  0  0  0  0  0
  137.2541  158.4957  130.6200 H   0  0  0  0  0  0  0  0  0  0  0  0
  139.3854  160.2124  133.2868 H   0  0  0  0  0  0  0  0  0  0  0  0
  140.5247  160.6857  131.9811 H   0  0  0  0  0  0  0  0  0  0  0  0
  138.8446  161.3213  131.9811 H   0  0  0  0  0  0  0  0  0  0  0  0
  139.1184  157.1872  131.4412 H   0  0  0  0  0  0  0  0  0  0  0  0
  140.4943  158.0333  132.2593 H   0  0  0  0  0  0  0  0  0  0  0  0
  137.9956  158.7206  133.5699 H   0  0  0  0  0  0  0  0  0  0  0  0
  138.1711  156.9237  133.4604 H   0  0  0  0  0  0  0  0  0  0  0  0
  139.8903  157.7572  136.6462 H   0  0  0  0  0  0  0  0  0  0  0  0
  139.2099  159.3117  136.0569 H   0  0  0  0  0  0  0  0  0  0  0  0
  138.1950  157.8295  136.0569 H   0  0  0  0  0  0  0  0  0  0  0  0
  140.9388  155.5644  134.0107 H   0  0  0  0  0  0  0  0  0  0  0  0
  143.3641  155.2751  133.4165 H   0  0  0  0  0  0  0  0  0  0  0  0
  145.8018  156.7143  133.0414 H   0  0  0  0  0  0  0  0  0  0  0  0
  146.1410  161.4730  133.0410 H   0  0  0  0  0  0  0  0  0  0  0  0
  147.9020  161.1850  132.8560 H   0  0  0  0  0  0  0  0  0  0  0  0
  141.5888  159.8423  134.5707 H   0  0  0  0  0  0  0  0  0  0  0  0
  1  2  1  0
  2  3  1  0
  2  4  1  0
  4  5  1  0
  5  6  1  0
  6  7  1  0
  6  8  1  0
  8  9  2  0
  9 10  1  0
 10 11  2  0
 11 12  1  0
 12 13  2  0
 13 14  1  0
 14 15  1  0
 14 16  2  0
 13 17  1  0
 17 18  1  0
 18 19  2  0
 18 20  1  0
 17 21  1  0
 21 22  2  0
 22  8  1  0
 21 11  1  0
  1 23  1  0
  1 24  1  0
  1 25  1  0
  3 26  1  0
  3 27  1  0
  3 28  1  0
  4 29  1  0
  4 30  1  0
  5 31  1  0
  5 32  1  0
  7 33  1  0
  7 34  1  0
  7 35  1  0
  9 36  1  0
 10 37  1  0
 12 38  1  0
 15 39  1  0
 15 40  1  0
 22 41  1  0
M  CHG  1  20  -1
M  END
>  <UniqueID>  (51) 
51

>  <SMILES>  (51) 
CN(C)CCN(C)c1ccc2cc(C(N)=O)n(C(=O)[O-])c2c1

>  <Energy>  (51) 
81.53749518932432

>  <Genealogy>  (51) 
CN(C)CCN(C)c1ccc2cc(C(N)=O)n(C(=O)[O-])c2c1 (protonated)
CN(C)CCN(C)c1ccc2cc(C(N)=O)n(C(=O)[O-])c2c1 (3D coordinates assigned)
CN(C)CCN(C)c1ccc2cc(C(N)=O)n(C(=O)[O-])c2c1 (optimized conformer: 81.53749518932432 kcal/mol)

>  <smiles>  (51) 
CN(C)CCN(C)c1ccc2cc(C(N)=O)n(C(=O)O)c2c1

>  <score_type>  (51) 
oracle

>  <origin>  (51) 
adg

>  <m_score__min__energy>  (51) 
-6.5099999999999998

>  <m_primary>  (51) 
energy

$$$$
51:0
     RDKit          3D

 44 45  0  0  0  0  0  0  0  0999 V2000
  143.9900  156.0260  132.5100 N   0  0  0  0  0  0  0  0  0  0  0  0
  144.1940  154.8700  133.3250 C   0  0  0  0  0  0  0  0  0  0  0  0
  144.9590  154.9460  134.3220 O   0  0  0  0  0  0  0  0  0  0  0  0
  143.4760  153.6080  133.0570 C   0  0  0  0  0  0  0  0  0  0  0  0
  144.1160  152.4210  132.7090 C   0  0  0  0  0  0  0  0  0  0  0  0
  143.1140  151.4820  132.6180 C   0  0  0  0  0  0  0  0  0  0  0  0
  143.1810  150.1290  132.2990 C   0  0  0  0  0  0  0  0  0  0  0  0
  141.9800  149.4020  132.2520 C   0  0  0  0  0  0  0  0  0  0  0  0
  140.7400  150.0410  132.5000 C   0  0  0  0  0  0  0  0  0  0  0  0
  139.4580  149.2510  132.4600 C   0  0  0  0  0  0  0  0  0  0  0  0
  139.0330  148.9460  131.0230 C   0  0  0  0  0  0  0  0  0  0  0  0
  139.2150  147.6030  130.7430 F   0  0  0  0  0  0  0  0  0  0  0  0
  137.6960  149.2580  130.8640 F   0  0  0  0  0  0  0  0  0  0  0  0
  139.7760  149.7010  130.1330 F   0  0  0  0  0  0  0  0  0  0  0  0
  140.7110  151.4170  132.8220 C   0  0  0  0  0  0  0  0  0  0  0  0
  141.9250  152.1090  132.8920 C   0  0  0  0  0  0  0  0  0  0  0  0
  142.1320  153.4170  133.1630 N   0  0  0  0  0  0  0  0  0  0  0  0
  141.1210  154.4060  133.4180 C   0  0  0  0  0  0  0  0  0  0  0  0
  140.2360  154.6400  132.5500 O   0  0  0  0  0  0  0  0  0  0  0  0
  141.1260  155.1100  134.6260 O   0  0  0  0  0  0  0  0  0  0  0  0
  141.9550  156.2470  134.8530 C   0  0  0  0  0  0  0  0  0  0  0  0
  141.5210  157.4330  133.9570 C   0  0  0  0  0  0  0  0  0  0  0  0
  141.5580  157.0300  132.6070 O   0  0  0  0  0  0  0  0  0  0  0  0
  142.4950  158.6230  134.1320 C   0  0  0  0  0  0  0  0  0  0  0  0
  143.4130  158.6880  133.0720 O   0  0  0  0  0  0  0  0  0  0  0  0
  140.0840  157.8810  134.3280 C   0  0  0  0  0  0  0  0  0  0  0  0
  139.1260  157.0250  133.7610 O   0  0  0  0  0  0  0  0  0  0  0  0
  144.5380  156.8960  132.6890 H   0  0  0  0  0  0  0  0  0  0  0  0
  143.2370  156.0510  131.7880 H   0  0  0  0  0  0  0  0  0  0  0  0
  145.1923  152.2669  132.5425 H   0  0  0  0  0  0  0  0  0  0  0  0
  144.1456  149.6434  132.0899 H   0  0  0  0  0  0  0  0  0  0  0  0
  142.0024  148.3268  132.0206 H   0  0  0  0  0  0  0  0  0  0  0  0
  139.6052  148.3030  132.9982 H   0  0  0  0  0  0  0  0  0  0  0  0
  138.6674  149.8513  132.9340 H   0  0  0  0  0  0  0  0  0  0  0  0
  139.7575  151.9311  133.0129 H   0  0  0  0  0  0  0  0  0  0  0  0
  141.8764  156.5453  135.9089 H   0  0  0  0  0  0  0  0  0  0  0  0
  142.9933  155.9807  134.6061 H   0  0  0  0  0  0  0  0  0  0  0  0
  140.8580  156.3370  132.4750 H   0  0  0  0  0  0  0  0  0  0  0  0
  141.9168  159.5582  134.1637 H   0  0  0  0  0  0  0  0  0  0  0  0
  143.0540  158.4806  135.0686 H   0  0  0  0  0  0  0  0  0  0  0  0
  142.8920  158.5890  132.2330 H   0  0  0  0  0  0  0  0  0  0  0  0
  139.9748  157.8678  135.4225 H   0  0  0  0  0  0  0  0  0  0  0  0
  139.9219  158.8958  133.9358 H   0  0  0  0  0  0  0  0  0  0  0  0
  139.6130  156.2250  133.4350 H   0  0  0  0  0  0  0  0  0  0  0  0
  1  2  1  0
  2  3  2  0
  2  4  1  0
  4  5  2  0
  5  6  1  0
  6  7  2  0
  7  8  1  0
  8  9  2  0
  9 10  1  0
 10 11  1  0
 11 12  1  0
 11 13  1  0
 11 14  1  0
  9 15  1  0
 15 16  2  0
 16 17  1  0
 17 18  1  0
 18 19  2  0
 18 20  1  0
 20 21  1  0
 21 22  1  0
 22 23  1  0
 22 24  1  0
 24 25  1  0
 22 26  1  0
 26 27  1  0
 17  4  1  0
 16  6  1  0
  1 28  1  0
  1 29  1  0
  5 30  1  0
  7 31  1  0
  8 32  1  0
 10 33  1  0
 10 34  1  0
 15 35  1  0
 21 36  1  0
 21 37  1  0
 23 38  1  0
 24 39  1  0
 24 40  1  0
 25 41  1  0
 26 42  1  0
 26 43  1  0
 27 44  1  0
M  END
>  <UniqueID>  (52) 
52

>  <SMILES>  (52) 
NC(=O)c1cc2ccc(CC(F)(F)F)cc2n1C(=O)OCC(O)(CO)CO

>  <Energy>  (52) 
75.71673133011168

>  <Genealogy>  (52) 
NC(=O)c1cc2ccc(CC(F)(F)F)cc2n1C(=O)OCC(O)(CO)CO (3D coordinates assigned)
NC(=O)c1cc2ccc(CC(F)(F)F)cc2n1C(=O)OCC(O)(CO)CO (optimized conformer: 75.71673133011168 kcal/mol)

>  <smiles>  (52) 
NC(=O)c1cc2ccc(CC(F)(F)F)cc2n1C(=O)OCC(O)(CO)CO

>  <score_type>  (52) 
oracle

>  <origin>  (52) 
adg

>  <m_score__min__energy>  (52) 
-6.9299999999999997

>  <m_primary>  (52) 
energy

$$$$
52:0
     RDKit          3D

 35 36  0  0  0  0  0  0  0  0999 V2000
  139.7320  159.5420  131.8680 C   0  0  0  0  0  0  0  0  0  0  0  0
  140.5550  159.8600  132.9680 O   0  0  0  0  0  0  0  0  0  0  0  0
  140.8040  158.7050  133.7490 C   0  0  0  0  0  0  0  0  0  0  0  0
  141.6140  159.0600  134.9990 C   0  0  0  0  0  0  0  0  0  0  0  0
  142.9920  158.5980  134.8730 N   0  0  0  0  0  0  0  0  0  0  0  0
  143.7040  158.5470  133.6330 C   0  0  0  0  0  0  0  0  0  0  0  0
  143.2060  157.9490  132.6410 O   0  0  0  0  0  0  0  0  0  0  0  0
  145.0010  159.1540  133.5250 N   0  0  0  0  0  0  0  0  0  0  0  0
  145.3230  160.4710  133.6620 C   0  0  0  0  0  0  0  0  0  0  0  0
  144.3650  161.5880  133.7980 C   0  0  0  0  0  0  0  0  0  0  0  0
  142.9700  161.3500  133.6290 N   0  0  0  0  0  0  0  0  0  0  0  0
  144.7630  162.7440  134.0980 O   0  0  0  0  0  0  0  0  0  0  0  0
  146.7030  160.6480  133.5730 C   0  0  0  0  0  0  0  0  0  0  0  0
  147.2200  159.3890  133.3680 C   0  0  0  0  0  0  0  0  0  0  0  0
  148.5410  158.9750  133.2310 C   0  0  0  0  0  0  0  0  0  0  0  0
  148.7880  157.6020  133.0670 C   0  0  0  0  0  0  0  0  0  0  0  0
  147.7180  156.6710  133.0300 C   0  0  0  0  0  0  0  0  0  0  0  0
  147.9990  155.1950  132.9160 C   0  0  0  0  0  0  0  0  0  0  0  0
  146.9650  154.5860  132.2320 F   0  0  0  0  0  0  0  0  0  0  0  0
  149.1830  154.9730  132.2360 F   0  0  0  0  0  0  0  0  0  0  0  0
  148.1080  154.6210  134.1710 F   0  0  0  0  0  0  0  0  0  0  0  0
  146.3900  157.1300  133.1980 C   0  0  0  0  0  0  0  0  0  0  0  0
  146.1730  158.5050  133.3430 C   0  0  0  0  0  0  0  0  0  0  0  0
  138.7634  159.1677  132.2309 H   0  0  0  0  0  0  0  0  0  0  0  0
  139.5716  160.4429  131.2575 H   0  0  0  0  0  0  0  0  0  0  0  0
  140.2190  158.7673  131.2575 H   0  0  0  0  0  0  0  0  0  0  0  0
  139.8445  158.2621  134.0544 H   0  0  0  0  0  0  0  0  0  0  0  0
  141.3809  157.9884  133.1459 H   0  0  0  0  0  0  0  0  0  0  0  0
  141.6107  160.1518  135.1326 H   0  0  0  0  0  0  0  0  0  0  0  0
  141.1550  158.5660  135.8681 H   0  0  0  0  0  0  0  0  0  0  0  0
  142.5960  160.3770  133.5630 H   0  0  0  0  0  0  0  0  0  0  0  0
  147.2603  161.5932  133.6502 H   0  0  0  0  0  0  0  0  0  0  0  0
  149.3672  159.7010  133.2505 H   0  0  0  0  0  0  0  0  0  0  0  0
  149.8233  157.2443  132.9661 H   0  0  0  0  0  0  0  0  0  0  0  0
  145.5478  156.4225  133.2142 H   0  0  0  0  0  0  0  0  0  0  0  0
  1  2  1  0
  2  3  1  0
  3  4  1  0
  4  5  1  0
  5  6  1  0
  6  7  2  0
  6  8  1  0
  8  9  1  0
  9 10  1  0
 10 11  1  0
 10 12  2  0
  9 13  2  0
 13 14  1  0
 14 15  2  0
 15 16  1  0
 16 17  2  0
 17 18  1  0
 18 19  1  0
 18 20  1  0
 18 21  1  0
 17 22  1  0
 22 23  2  0
 23  8  1  0
 23 14  1  0
  1 24  1  0
  1 25  1  0
  1 26  1  0
  3 27  1  0
  3 28  1  0
  4 29  1  0
  4 30  1  0
 11 31  1  0
 13 32  1  0
 15 33  1  0
 16 34  1  0
 22 35  1  0
M  CHG  2   5  -1  11  -1
M  END
>  <UniqueID>  (53) 
53

>  <SMILES>  (53) 
COCC[N-]C(=O)n1c(C([NH-])=O)cc2ccc(C(F)(F)F)cc21

>  <Energy>  (53) 
73.29625665448204

>  <Genealogy>  (53) 
COCC[N-]C(=O)n1c(C([NH-])=O)cc2ccc(C(F)(F)F)cc21 (protonated)
COCC[N-]C(=O)n1c(C([NH-])=O)cc2ccc(C(F)(F)F)cc21 (3D coordinates assigned)
COCC[N-]C(=O)n1c(C([NH-])=O)cc2ccc(C(F)(F)F)cc21 (optimized conformer: 73.29625665448204 kcal/mol)

>  <smiles>  (53) 
COCCNC(=O)n1c(C(N)=O)cc2ccc(C(F)(F)F)cc21

>  <score_type>  (53) 
oracle

>  <origin>  (53) 
adg

>  <m_score__min__energy>  (53) 
-5.9000000000000004

>  <m_primary>  (53) 
energy

$$$$
53:0
     RDKit          3D

 33 34  0  0  0  0  0  0  0  0999 V2000
  149.2300  159.5140  129.6890 C   0  0  0  0  0  0  0  0  0  0  0  0
  149.8140  159.6130  131.0950 C   0  0  1  0  0  0  0  0  0  0  0  0
  149.9350  160.9450  131.4540 F   0  0  0  0  0  0  0  0  0  0  0  0
  148.9400  158.8860  132.0860 C   0  0  0  0  0  0  0  0  0  0  0  0
  147.9850  159.5970  132.8570 C   0  0  0  0  0  0  0  0  0  0  0  0
  147.1360  158.9210  133.7480 C   0  0  0  0  0  0  0  0  0  0  0  0
  147.2620  157.5390  133.8490 C   0  0  0  0  0  0  0  0  0  0  0  0
  146.5480  156.6350  134.6010 C   0  0  0  0  0  0  0  0  0  0  0  0
  147.0800  155.3860  134.2840 C   0  0  0  0  0  0  0  0  0  0  0  0
  146.6210  154.1210  134.8970 C   0  0  0  0  0  0  0  0  0  0  0  0
  145.6650  153.2890  134.2460 N   0  0  0  0  0  0  0  0  0  0  0  0
  147.0960  153.7570  136.0070 O   0  0  0  0  0  0  0  0  0  0  0  0
  148.0880  155.5170  133.3750 N   0  0  0  0  0  0  0  0  0  0  0  0
  148.8530  154.4730  132.7540 C   0  0  0  0  0  0  0  0  0  0  0  0
  150.0040  154.7240  132.3060 O   0  0  0  0  0  0  0  0  0  0  0  0
  148.2780  153.0950  132.5960 C   0  0  0  0  0  0  0  0  0  0  0  0
  149.3720  152.0790  132.2840 C   0  0  0  0  0  0  0  0  0  0  0  0
  149.9590  151.6260  133.4520 F   0  0  0  0  0  0  0  0  0  0  0  0
  148.1830  156.8370  133.1150 C   0  0  0  0  0  0  0  0  0  0  0  0
  149.0280  157.4810  132.2050 C   0  0  0  0  0  0  0  0  0  0  0  0
  148.1473  159.3305  129.7537 H   0  0  0  0  0  0  0  0  0  0  0  0
  149.4107  160.4556  129.1498 H   0  0  0  0  0  0  0  0  0  0  0  0
  149.7109  158.6846  129.1498 H   0  0  0  0  0  0  0  0  0  0  0  0
  150.8079  159.1417  131.1009 H   0  0  0  0  0  0  0  0  0  0  0  0
  147.9087  160.6897  132.7558 H   0  0  0  0  0  0  0  0  0  0  0  0
  146.3936  159.4676  134.3481 H   0  0  0  0  0  0  0  0  0  0  0  0
  145.7301  156.8518  135.3039 H   0  0  0  0  0  0  0  0  0  0  0  0
  145.9530  152.3970  133.7870 H   0  0  0  0  0  0  0  0  0  0  0  0
  147.7744  152.8060  133.5303 H   0  0  0  0  0  0  0  0  0  0  0  0
  147.5625  153.1074  131.7606 H   0  0  0  0  0  0  0  0  0  0  0  0
  148.9318  151.2267  131.7457 H   0  0  0  0  0  0  0  0  0  0  0  0
  150.1407  152.5627  131.6635 H   0  0  0  0  0  0  0  0  0  0  0  0
  149.7433  156.9076  131.5971 H   0  0  0  0  0  0  0  0  0  0  0  0
  1  2  1  0
  2  3  1  0
  2  4  1  0
  4  5  2  0
  5  6  1  0
  6  7  2  0
  7  8  1  0
  8  9  2  0
  9 10  1  0
 10 11  1  0
 10 12  2  0
  9 13  1  0
 13 14  1  0
 14 15  2  0
 14 16  1  0
 16 17  1  0
 17 18  1  0
 13 19  1  0
 19 20  2  0
 20  4  1  0
 19  7  1  0
  1 21  1  0
  1 22  1  0
  1 23  1  0
  2 24  1  6
  5 25  1  0
  6 26  1  0
  8 27  1  0
 11 28  1  0
 16 29  1  0
 16 30  1  0
 17 31  1  0
 17 32  1  0
 20 33  1  0
M  CHG  1  11  -1
M  END
>  <UniqueID>  (54) 
54

>  <SMILES>  (54) 
C[C@@H](F)c1ccc2cc(C([NH-])=O)n(C(=O)CCF)c2c1

>  <Energy>  (54) 
66.79733182660182

>  <Genealogy>  (54) 
CC(F)c1ccc2cc(C([NH-])=O)n(C(=O)CCF)c2c1 (protonated)
C[C@@H](F)c1ccc2cc(C([NH-])=O)n(C(=O)CCF)c2c1 (chirality)
C[C@@H](F)c1ccc2cc(C([NH-])=O)n(C(=O)CCF)c2c1 (3D coordinates assigned)
C[C@@H](F)c1ccc2cc(C([NH-])=O)n(C(=O)CCF)c2c1 (optimized conformer: 66.79733182660182 kcal/mol)

>  <smiles>  (54) 
CC(F)c1ccc2cc(C(N)=O)n(C(=O)CCF)c2c1

>  <score_type>  (54) 
oracle

>  <origin>  (54) 
adg

>  <m_score__min__energy>  (54) 
-6.1100000000000003

>  <m_primary>  (54) 
energy

$$$$
54:0
     RDKit          3D

 48 50  0  0  0  0  0  0  0  0999 V2000
  140.5750  148.4640  130.4420 C   0  0  0  0  0  0  0  0  0  0  0  0
  140.0850  149.5230  131.3330 N   0  0  0  0  0  0  0  0  0  0  0  0
  138.6370  149.6730  131.5260 C   0  0  0  0  0  0  0  0  0  0  0  0
  141.0150  150.4080  132.0090 C   0  0  0  0  0  0  0  0  0  0  0  0
  142.3280  149.9700  132.3410 C   0  0  0  0  0  0  0  0  0  0  0  0
  143.2350  150.8220  132.9920 C   0  0  0  0  0  0  0  0  0  0  0  0
  142.8120  152.1060  133.3100 C   0  0  0  0  0  0  0  0  0  0  0  0
  143.4910  153.1350  133.9210 C   0  0  0  0  0  0  0  0  0  0  0  0
  142.5840  154.1900  133.9840 C   0  0  0  0  0  0  0  0  0  0  0  0
  142.8770  155.4720  134.6580 C   0  0  0  0  0  0  0  0  0  0  0  0
  143.0330  156.6750  133.9110 N   0  0  0  0  0  0  0  0  0  0  0  0
  142.9380  155.5150  135.9160 O   0  0  0  0  0  0  0  0  0  0  0  0
  141.3940  153.8310  133.4230 N   0  0  0  0  0  0  0  0  0  0  0  0
  140.2280  154.6460  133.2230 C   0  0  0  0  0  0  0  0  0  0  0  0
  139.1140  154.1070  132.9810 O   0  0  0  0  0  0  0  0  0  0  0  0
  140.3300  156.0350  133.3270 O   0  0  0  0  0  0  0  0  0  0  0  0
  139.2520  156.9160  133.0300 C   0  0  0  0  0  0  0  0  0  0  0  0
  139.2940  158.1260  133.9790 C   0  0  2  0  0  0  0  0  0  0  0  0
  140.2300  159.2140  133.4540 C   0  0  0  0  0  0  0  0  0  0  0  0
  141.4240  159.0550  134.3110 C   0  0  0  0  0  0  0  0  0  0  0  0
  142.4760  159.6340  134.0790 O   0  0  0  0  0  0  0  0  0  0  0  0
  141.2820  158.1310  135.3960 N   0  0  1  0  0  0  0  0  0  0  0  0
  141.6520  158.7530  136.6780 C   0  0  0  0  0  0  0  0  0  0  0  0
  139.8600  157.7420  135.3630 C   0  0  0  0  0  0  0  0  0  0  0  0
  141.5500  152.5500  133.0190 C   0  0  0  0  0  0  0  0  0  0  0  0
  140.6320  151.7310  132.3520 C   0  0  0  0  0  0  0  0  0  0  0  0
  140.9617  147.6283  131.0437 H   0  0  0  0  0  0  0  0  0  0  0  0
  139.7501  148.1080  129.8073 H   0  0  0  0  0  0  0  0  0  0  0  0
  141.3803  148.8623  129.8073 H   0  0  0  0  0  0  0  0  0  0  0  0
  138.4110  149.6964  132.6023 H   0  0  0  0  0  0  0  0  0  0  0  0
  138.3002  150.6108  131.0601 H   0  0  0  0  0  0  0  0  0  0  0  0
  138.1151  148.8241  131.0601 H   0  0  0  0  0  0  0  0  0  0  0  0
  142.6377  148.9464  132.0832 H   0  0  0  0  0  0  0  0  0  0  0  0
  144.2507  150.4823  133.2427 H   0  0  0  0  0  0  0  0  0  0  0  0
  144.5297  153.1262  134.2829 H   0  0  0  0  0  0  0  0  0  0  0  0
  142.2020  157.2120  133.5760 H   0  0  0  0  0  0  0  0  0  0  0  0
  139.3400  157.2638  131.9901 H   0  0  0  0  0  0  0  0  0  0  0  0
  138.2990  156.3827  133.1620 H   0  0  0  0  0  0  0  0  0  0  0  0
  138.2546  158.4792  134.0488 H   0  0  0  0  0  0  0  0  0  0  0  0
  140.4767  159.0482  132.3949 H   0  0  0  0  0  0  0  0  0  0  0  0
  139.7938  160.2230  133.4951 H   0  0  0  0  0  0  0  0  0  0  0  0
  141.8900  157.2970  135.2160 H   0  0  0  0  0  0  0  0  0  0  0  0
  141.2824  158.1317  137.5071 H   0  0  0  0  0  0  0  0  0  0  0  0
  142.7469  158.8369  136.7424 H   0  0  0  0  0  0  0  0  0  0  0  0
  141.2031  159.7552  136.7424 H   0  0  0  0  0  0  0  0  0  0  0  0
  139.7659  156.6569  135.5171 H   0  0  0  0  0  0  0  0  0  0  0  0
  139.3038  158.2567  136.1603 H   0  0  0  0  0  0  0  0  0  0  0  0
  139.6298  152.1065  132.0977 H   0  0  0  0  0  0  0  0  0  0  0  0
  1  2  1  0
  2  3  1  0
  2  4  1  0
  4  5  2  0
  5  6  1  0
  6  7  2  0
  7  8  1  0
  8  9  2  0
  9 10  1  0
 10 11  1  0
 10 12  2  0
  9 13  1  0
 13 14  1  0
 14 15  2  0
 14 16  1  0
 16 17  1  0
 17 18  1  0
 18 19  1  0
 19 20  1  0
 20 21  2  0
 20 22  1  0
 22 23  1  0
 22 24  1  0
 13 25  1  0
 25 26  2  0
 26  4  1  0
 25  7  1  0
 24 18  1  0
  1 27  1  0
  1 28  1  0
  1 29  1  0
  3 30  1  0
  3 31  1  0
  3 32  1  0
  5 33  1  0
  6 34  1  0
  8 35  1  0
 11 36  1  0
 17 37  1  0
 17 38  1  0
 18 39  1  1
 19 40  1  0
 19 41  1  0
 22 42  1  6
 23 43  1  0
 23 44  1  0
 23 45  1  0
 24 46  1  0
 24 47  1  0
 26 48  1  0
M  CHG  2  11  -1  22   1
M  END
>  <UniqueID>  (55) 
55

>  <SMILES>  (55) 
CN(C)c1ccc2cc(C([NH-])=O)n(C(=O)OC[C@@H]3CC(=O)[N@@H+](C)C3)c2c1

>  <Energy>  (55) 
89.11100113213132

>  <Genealogy>  (55) 
CN(C)c1ccc2cc(C([NH-])=O)n(C(=O)OCC3CC(=O)[NH+](C)C3)c2c1 (protonated)
CN(C)c1ccc2cc(C([NH-])=O)n(C(=O)OC[C@@H]3CC(=O)[N@@H+](C)C3)c2c1 (chirality)
CN(C)c1ccc2cc(C([NH-])=O)n(C(=O)OC[C@@H]3CC(=O)[N@@H+](C)C3)c2c1 (3D coordinates assigned)
CN(C)c1ccc2cc(C([NH-])=O)n(C(=O)OC[C@@H]3CC(=O)[N@@H+](C)C3)c2c1 (nonaromatic ring conformer: 89.11100113213132 kcal/mol)

>  <smiles>  (55) 
CN1CC(COC(=O)n2c(C(N)=O)cc3ccc(N(C)C)cc32)CC1=O

>  <score_type>  (55) 
oracle

>  <origin>  (55) 
adg

>  <m_score__min__energy>  (55) 
-5.79

>  <m_primary>  (55) 
energy

$$$$
55:0
     RDKit          3D

 47 48  0  0  0  0  0  0  0  0999 V2000
  148.4920  153.0070  133.3550 C   0  0  0  0  0  0  0  0  0  0  0  0
  147.5720  154.2480  133.3500 C   0  0  0  0  0  0  0  0  0  0  0  0
  146.1130  153.7750  133.1940 C   0  0  0  0  0  0  0  0  0  0  0  0
  147.6850  154.9350  134.6560 C   0  0  0  0  0  0  0  0  0  0  0  0
  147.7750  155.4710  135.6780 N   0  0  0  0  0  0  0  0  0  0  0  0
  147.9040  155.1740  132.2330 N   0  0  0  0  0  0  0  0  0  0  0  0
  147.7290  156.5740  132.5570 C   0  0  0  0  0  0  0  0  0  0  0  0
  148.8380  157.4610  132.5320 C   0  0  0  0  0  0  0  0  0  0  0  0
  148.6760  158.8240  132.8260 C   0  0  0  0  0  0  0  0  0  0  0  0
  147.4010  159.2730  133.1580 C   0  0  0  0  0  0  0  0  0  0  0  0
  146.9600  160.5430  133.4520 C   0  0  0  0  0  0  0  0  0  0  0  0
  145.5930  160.4130  133.6860 C   0  0  0  0  0  0  0  0  0  0  0  0
  144.7300  161.5340  134.1140 C   0  0  0  0  0  0  0  0  0  0  0  0
  143.3600  161.5940  133.7260 N   0  0  0  0  0  0  0  0  0  0  0  0
  145.1970  162.4250  134.8720 O   0  0  0  0  0  0  0  0  0  0  0  0
  145.2030  159.1150  133.5380 N   0  0  0  0  0  0  0  0  0  0  0  0
  143.8680  158.5900  133.5860 C   0  0  0  0  0  0  0  0  0  0  0  0
  143.4400  157.8880  132.6310 O   0  0  0  0  0  0  0  0  0  0  0  0
  143.0500  158.8880  134.6860 O   0  0  0  0  0  0  0  0  0  0  0  0
  141.6280  158.7050  134.7640 C   0  0  0  0  0  0  0  0  0  0  0  0
  141.1580  159.3670  136.0670 C   0  0  0  0  0  0  0  0  0  0  0  0
  141.2740  157.2060  134.8120 C   0  0  0  0  0  0  0  0  0  0  0  0
  140.9290  159.3910  133.5750 C   0  0  0  0  0  0  0  0  0  0  0  0
  146.3230  158.4300  133.2160 C   0  0  0  0  0  0  0  0  0  0  0  0
  146.4510  157.0700  132.9100 C   0  0  0  0  0  0  0  0  0  0  0  0
  148.7084  152.7151  134.3933 H   0  0  0  0  0  0  0  0  0  0  0  0
  147.9899  152.1762  132.8376 H   0  0  0  0  0  0  0  0  0  0  0  0
  149.4329  153.2460  132.8376 H   0  0  0  0  0  0  0  0  0  0  0  0
  145.6662  153.6301  134.1887 H   0  0  0  0  0  0  0  0  0  0  0  0
  145.5389  154.5330  132.6410 H   0  0  0  0  0  0  0  0  0  0  0  0
  146.0929  152.8243  132.6410 H   0  0  0  0  0  0  0  0  0  0  0  0
  148.8950  155.0160  131.9330 H   0  0  0  0  0  0  0  0  0  0  0  0
  147.3090  154.9460  131.4010 H   0  0  0  0  0  0  0  0  0  0  0  0
  149.8365  157.0750  132.2790 H   0  0  0  0  0  0  0  0  0  0  0  0
  149.5305  159.5161  132.7950 H   0  0  0  0  0  0  0  0  0  0  0  0
  147.5593  161.4645  133.4934 H   0  0  0  0  0  0  0  0  0  0  0  0
  142.8060  160.7220  133.5730 H   0  0  0  0  0  0  0  0  0  0  0  0
  141.5553  158.8074  136.9266 H   0  0  0  0  0  0  0  0  0  0  0  0
  141.5233  160.4039  136.1040 H   0  0  0  0  0  0  0  0  0  0  0  0
  140.0586  159.3640  136.1040 H   0  0  0  0  0  0  0  0  0  0  0  0
  141.1972  156.8808  135.8600 H   0  0  0  0  0  0  0  0  0  0  0  0
  140.3120  157.0400  134.3051 H   0  0  0  0  0  0  0  0  0  0  0  0
  142.0602  156.6272  134.3051 H   0  0  0  0  0  0  0  0  0  0  0  0
  140.1913  160.1150  133.9514 H   0  0  0  0  0  0  0  0  0  0  0  0
  141.6774  159.9150  132.9623 H   0  0  0  0  0  0  0  0  0  0  0  0
  140.4192  158.6329  132.9623 H   0  0  0  0  0  0  0  0  0  0  0  0
  145.5780  156.4016  132.9431 H   0  0  0  0  0  0  0  0  0  0  0  0
  1  2  1  0
  2  3  1  0
  2  4  1  0
  4  5  3  0
  2  6  1  0
  6  7  1  0
  7  8  2  0
  8  9  1  0
  9 10  2  0
 10 11  1  0
 11 12  2  0
 12 13  1  0
 13 14  1  0
 13 15  2  0
 12 16  1  0
 16 17  1  0
 17 18  2  0
 17 19  1  0
 19 20  1  0
 20 21  1  0
 20 22  1  0
 20 23  1  0
 16 24  1  0
 24 25  2  0
 25  7  1  0
 24 10  1  0
  1 26  1  0
  1 27  1  0
  1 28  1  0
  3 29  1  0
  3 30  1  0
  3 31  1  0
  6 32  1  0
  6 33  1  0
  8 34  1  0
  9 35  1  0
 11 36  1  0
 14 37  1  0
 21 38  1  0
 21 39  1  0
 21 40  1  0
 22 41  1  0
 22 42  1  0
 22 43  1  0
 23 44  1  0
 23 45  1  0
 23 46  1  0
 25 47  1  0
M  CHG  2   6   1  14  -1
M  END
>  <UniqueID>  (56) 
56

>  <SMILES>  (56) 
CC(C)(C#N)[NH2+]c1ccc2cc(C([NH-])=O)n(C(=O)OC(C)(C)C)c2c1

>  <Energy>  (56) 
81.49100371684908

>  <Genealogy>  (56) 
CC(C)(C#N)[NH2+]c1ccc2cc(C([NH-])=O)n(C(=O)OC(C)(C)C)c2c1 (protonated)
CC(C)(C#N)[NH2+]c1ccc2cc(C([NH-])=O)n(C(=O)OC(C)(C)C)c2c1 (3D coordinates assigned)
CC(C)(C#N)[NH2+]c1ccc2cc(C([NH-])=O)n(C(=O)OC(C)(C)C)c2c1 (optimized conformer: 81.49100371684908 kcal/mol)

>  <smiles>  (56) 
CC(C)(C#N)Nc1ccc2cc(C(N)=O)n(C(=O)OC(C)(C)C)c2c1

>  <score_type>  (56) 
oracle

>  <origin>  (56) 
adg

>  <m_score__min__energy>  (56) 
-7.5499999999999998

>  <m_primary>  (56) 
energy

$$$$
56:0
     RDKit          3D

 48 50  0  0  0  0  0  0  0  0999 V2000
  141.7020  151.7240  132.6450 C   0  0  0  0  0  0  0  0  0  0  0  0
  142.0850  152.7390  134.0620 S   0  0  0  0  0  0  0  0  0  0  0  0
  141.4030  154.0690  133.9030 O   0  0  0  0  0  0  0  0  0  0  0  0
  141.5520  152.0680  135.2960 O   0  0  0  0  0  0  0  0  0  0  0  0
  143.8080  152.9810  134.2400 N   0  0  0  0  0  0  0  0  0  0  0  0
  144.0780  154.3510  134.7260 C   0  0  0  0  0  0  0  0  0  0  0  0
  145.5510  154.7420  134.5320 C   0  0  0  0  0  0  0  0  0  0  0  0
  146.0000  154.5930  133.1250 N   0  0  0  0  0  0  0  0  0  0  0  0
  146.5170  155.8340  132.5130 C   0  0  0  0  0  0  0  0  0  0  0  0
  146.8950  156.8940  133.5240 C   0  0  0  0  0  0  0  0  0  0  0  0
  147.7560  156.6290  134.4050 O   0  0  0  0  0  0  0  0  0  0  0  0
  146.3020  158.2040  133.4840 N   0  0  0  0  0  0  0  0  0  0  0  0
  146.9200  159.3940  133.2380 C   0  0  0  0  0  0  0  0  0  0  0  0
  148.2990  159.5540  132.7320 C   0  0  0  0  0  0  0  0  0  0  0  0
  149.3900  158.8690  133.3510 N   0  0  0  0  0  0  0  0  0  0  0  0
  148.5290  160.3250  131.7630 O   0  0  0  0  0  0  0  0  0  0  0  0
  146.0180  160.4490  133.3790 C   0  0  0  0  0  0  0  0  0  0  0  0
  144.8170  159.8610  133.7030 C   0  0  0  0  0  0  0  0  0  0  0  0
  143.5720  160.4370  133.9320 C   0  0  0  0  0  0  0  0  0  0  0  0
  142.4970  159.5840  134.2340 C   0  0  0  0  0  0  0  0  0  0  0  0
  142.6840  158.1790  134.3100 C   0  0  0  0  0  0  0  0  0  0  0  0
  141.5150  157.2680  134.5840 C   0  0  0  0  0  0  0  0  0  0  0  0
  140.4590  157.9830  135.1180 F   0  0  0  0  0  0  0  0  0  0  0  0
  141.9010  156.2920  135.4850 F   0  0  0  0  0  0  0  0  0  0  0  0
  141.0800  156.6590  133.4190 F   0  0  0  0  0  0  0  0  0  0  0  0
  143.9580  157.6320  134.0330 C   0  0  0  0  0  0  0  0  0  0  0  0
  145.0120  158.5050  133.7470 C   0  0  0  0  0  0  0  0  0  0  0  0
  145.0750  153.8430  132.2540 C   0  0  0  0  0  0  0  0  0  0  0  0
  144.5350  152.6180  133.0010 C   0  0  0  0  0  0  0  0  0  0  0  0
  141.3326  150.7450  132.9843 H   0  0  0  0  0  0  0  0  0  0  0  0
  140.9284  152.2178  132.0386 H   0  0  0  0  0  0  0  0  0  0  0  0
  142.6090  151.5836  132.0386 H   0  0  0  0  0  0  0  0  0  0  0  0
  143.4451  155.0580  134.1695 H   0  0  0  0  0  0  0  0  0  0  0  0
  143.8531  154.3839  135.8023 H   0  0  0  0  0  0  0  0  0  0  0  0
  145.6796  155.7920  134.8336 H   0  0  0  0  0  0  0  0  0  0  0  0
  146.1597  154.0653  135.1497 H   0  0  0  0  0  0  0  0  0  0  0  0
  147.4094  155.5843  131.9203 H   0  0  0  0  0  0  0  0  0  0  0  0
  145.7084  156.2508  131.8946 H   0  0  0  0  0  0  0  0  0  0  0  0
  149.2310  158.1790  134.1170 H   0  0  0  0  0  0  0  0  0  0  0  0
  150.3640  159.0240  133.0120 H   0  0  0  0  0  0  0  0  0  0  0  0
  146.2234  161.5228  133.2570 H   0  0  0  0  0  0  0  0  0  0  0  0
  143.4331  161.5269  133.8784 H   0  0  0  0  0  0  0  0  0  0  0  0
  141.4989  160.0100  134.4136 H   0  0  0  0  0  0  0  0  0  0  0  0
  144.1165  156.5435  134.0423 H   0  0  0  0  0  0  0  0  0  0  0  0
  144.2363  154.4939  131.9660 H   0  0  0  0  0  0  0  0  0  0  0  0
  145.6131  153.5109  131.3539 H   0  0  0  0  0  0  0  0  0  0  0  0
  143.8480  152.0743  132.3359 H   0  0  0  0  0  0  0  0  0  0  0  0
  145.3962  151.9974  133.2897 H   0  0  0  0  0  0  0  0  0  0  0  0
  1  2  1  0
  2  3  2  0
  2  4  2  0
  2  5  1  0
  5  6  1  0
  6  7  1  0
  7  8  1  0
  8  9  1  0
  9 10  1  0
 10 11  2  0
 10 12  1  0
 12 13  1  0
 13 14  1  0
 14 15  1  0
 14 16  2  0
 13 17  2  0
 17 18  1  0
 18 19  2  0
 19 20  1  0
 20 21  2  0
 21 22  1  0
 22 23  1  0
 22 24  1  0
 22 25  1  0
 21 26  1  0
 26 27  2  0
  8 28  1  0
 28 29  1  0
 29  5  1  0
 27 12  1  0
 27 18  1  0
  1 30  1  0
  1 31  1  0
  1 32  1  0
  6 33  1  0
  6 34  1  0
  7 35  1  0
  7 36  1  0
  9 37  1  0
  9 38  1  0
 15 39  1  0
 15 40  1  0
 17 41  1  0
 19 42  1  0
 20 43  1  0
 26 44  1  0
 28 45  1  0
 28 46  1  0
 29 47  1  0
 29 48  1  0
M  END
>  <UniqueID>  (57) 
57

>  <SMILES>  (57) 
CS(=O)(=O)N1CCN(CC(=O)n2c(C(N)=O)cc3ccc(C(F)(F)F)cc32)CC1

>  <Energy>  (57) 
95.45631467158128

>  <Genealogy>  (57) 
CS(=O)(=O)N1CCN(CC(=O)n2c(C(N)=O)cc3ccc(C(F)(F)F)cc32)CC1 (3D coordinates assigned)
CS(=O)(=O)N1CCN(CC(=O)n2c(C(N)=O)cc3ccc(C(F)(F)F)cc32)CC1 (nonaromatic ring conformer: 95.45631467158128 kcal/mol)

>  <smiles>  (57) 
CS(=O)(=O)N1CCN(CC(=O)n2c(C(N)=O)cc3ccc(C(F)(F)F)cc32)CC1

>  <score_type>  (57) 
oracle

>  <origin>  (57) 
adg

>  <m_score__min__energy>  (57) 
-8.1099999999999994

>  <m_primary>  (57) 
energy

$$$$
57:0
     RDKit          3D

 79 82  0  0  0  0  0  0  0  0999 V2000
  140.4480  150.3980  137.5240 C   0  0  0  0  0  0  0  0  0  0  0  0
  139.8810  151.4540  138.2890 O   0  0  0  0  0  0  0  0  0  0  0  0
  140.6120  152.5830  138.6710 C   0  0  0  0  0  0  0  0  0  0  0  0
  140.2390  153.2900  139.6470 O   0  0  0  0  0  0  0  0  0  0  0  0
  141.8270  152.9720  137.8900 C   0  0  0  0  0  0  0  0  0  0  0  0
  142.2410  154.3790  138.2120 C   0  0  0  0  0  0  0  0  0  0  0  0
  142.9320  154.6050  139.2420 O   0  0  0  0  0  0  0  0  0  0  0  0
  141.8320  155.4770  137.3780 N   0  0  0  0  0  0  0  0  0  0  0  0
  141.4030  156.7040  137.7860 C   0  0  0  0  0  0  0  0  0  0  0  0
  141.3850  157.1950  139.1780 C   0  0  0  0  0  0  0  0  0  0  0  0
  141.0270  156.3360  140.2620 N   0  0  0  0  0  0  0  0  0  0  0  0
  141.7290  158.3820  139.4200 O   0  0  0  0  0  0  0  0  0  0  0  0
  140.9440  157.4500  136.7020 C   0  0  0  0  0  0  0  0  0  0  0  0
  141.0990  156.6320  135.6070 C   0  0  0  0  0  0  0  0  0  0  0  0
  140.7520  156.8460  134.2760 C   0  0  0  0  0  0  0  0  0  0  0  0
  140.9370  155.7900  133.3690 C   0  0  0  0  0  0  0  0  0  0  0  0
  141.4400  154.5410  133.8090 C   0  0  0  0  0  0  0  0  0  0  0  0
  141.6080  153.4060  132.8340 C   0  0  0  0  0  0  0  0  0  0  0  0
  142.5420  152.3220  133.3900 C   0  0  0  0  0  0  0  0  0  0  0  0
  143.9610  152.6910  133.1990 N   0  0  0  0  0  0  0  0  0  0  0  0
  144.6380  153.0260  134.4810 C   0  0  0  0  0  0  0  0  0  0  0  0
  144.7700  154.5410  134.7010 C   0  0  0  0  0  0  0  0  0  0  0  0
  145.6230  155.2200  133.5820 C   0  0  0  0  0  0  0  0  0  0  0  0
  145.4560  154.4380  132.2380 C   0  0  0  0  0  0  0  0  0  0  0  0
  144.0960  153.7370  132.1560 C   0  0  0  0  0  0  0  0  0  0  0  0
  145.1160  156.6900  133.4020 C   0  0  0  0  0  0  0  0  0  0  0  0
  146.2180  157.6570  132.9510 C   0  0  0  0  0  0  0  0  0  0  0  0
  147.3400  157.6420  133.9020 N   0  0  0  0  0  0  0  0  0  0  0  0
  148.2190  158.7790  133.9810 C   0  0  0  0  0  0  0  0  0  0  0  0
  149.0870  158.8390  134.8930 O   0  0  0  0  0  0  0  0  0  0  0  0
  148.1010  159.8110  133.0360 O   0  0  0  0  0  0  0  0  0  0  0  0
  148.6080  159.7990  131.6930 C   0  0  0  0  0  0  0  0  0  0  0  0
  149.9850  160.4870  131.6270 C   0  0  0  0  0  0  0  0  0  0  0  0
  147.6130  160.4760  130.7310 C   0  0  0  0  0  0  0  0  0  0  0  0
  148.7670  158.3260  131.2840 C   0  0  0  0  0  0  0  0  0  0  0  0
  147.5660  156.4590  134.7440 C   0  0  0  0  0  0  0  0  0  0  0  0
  147.1340  155.1970  133.9920 C   0  0  0  0  0  0  0  0  0  0  0  0
  141.7990  154.3670  135.1630 C   0  0  0  0  0  0  0  0  0  0  0  0
  141.6280  155.4440  136.0410 C   0  0  0  0  0  0  0  0  0  0  0  0
  140.8582  149.6341  138.2009 H   0  0  0  0  0  0  0  0  0  0  0  0
  139.6709  149.9466  136.8896 H   0  0  0  0  0  0  0  0  0  0  0  0
  141.2535  150.7963  136.8896 H   0  0  0  0  0  0  0  0  0  0  0  0
  142.6509  152.2876  138.1404 H   0  0  0  0  0  0  0  0  0  0  0  0
  141.5907  152.9111  136.8174 H   0  0  0  0  0  0  0  0  0  0  0  0
  140.9530  156.7200  141.2300 H   0  0  0  0  0  0  0  0  0  0  0  0
  140.9760  155.3030  140.1340 H   0  0  0  0  0  0  0  0  0  0  0  0
  140.5433  158.4743  136.7185 H   0  0  0  0  0  0  0  0  0  0  0  0
  140.3453  157.8129  133.9448 H   0  0  0  0  0  0  0  0  0  0  0  0
  140.6890  155.9340  132.3070 H   0  0  0  0  0  0  0  0  0  0  0  0
  140.6232  152.9599  132.6312 H   0  0  0  0  0  0  0  0  0  0  0  0
  142.0535  153.8061  131.9112 H   0  0  0  0  0  0  0  0  0  0  0  0
  142.3455  152.1956  134.4649 H   0  0  0  0  0  0  0  0  0  0  0  0
  142.3495  151.3843  132.8482 H   0  0  0  0  0  0  0  0  0  0  0  0
  144.0541  152.5992  135.3098 H   0  0  0  0  0  0  0  0  0  0  0  0
  145.6536  152.6053  134.4414 H   0  0  0  0  0  0  0  0  0  0  0  0
  143.7653  154.9889  134.7034 H   0  0  0  0  0  0  0  0  0  0  0  0
  145.2786  154.7028  135.6629 H   0  0  0  0  0  0  0  0  0  0  0  0
  145.5434  155.1457  131.4005 H   0  0  0  0  0  0  0  0  0  0  0  0
  146.2416  153.6697  132.1882 H   0  0  0  0  0  0  0  0  0  0  0  0
  143.2999  154.4837  132.2932 H   0  0  0  0  0  0  0  0  0  0  0  0
  144.0145  153.2550  131.1706 H   0  0  0  0  0  0  0  0  0  0  0  0
  144.3163  156.6942  132.6467 H   0  0  0  0  0  0  0  0  0  0  0  0
  144.7586  157.0356  134.3832 H   0  0  0  0  0  0  0  0  0  0  0  0
  146.5814  157.3535  131.9581 H   0  0  0  0  0  0  0  0  0  0  0  0
  145.8020  158.6744  132.9089 H   0  0  0  0  0  0  0  0  0  0  0  0
  150.3524  160.6706  132.6474 H   0  0  0  0  0  0  0  0  0  0  0  0
  150.6943  159.8374  131.0932 H   0  0  0  0  0  0  0  0  0  0  0  0
  149.8914  161.4442  131.0932 H   0  0  0  0  0  0  0  0  0  0  0  0
  146.8408  161.0014  131.3122 H   0  0  0  0  0  0  0  0  0  0  0  0
  148.1491  161.1975  130.0970 H   0  0  0  0  0  0  0  0  0  0  0  0
  147.1387  159.7124  130.0970 H   0  0  0  0  0  0  0  0  0  0  0  0
  148.8345  157.7002  132.1861 H   0  0  0  0  0  0  0  0  0  0  0  0
  147.8972  158.0154  130.6866 H   0  0  0  0  0  0  0  0  0  0  0  0
  149.6831  158.2082  130.6866 H   0  0  0  0  0  0  0  0  0  0  0  0
  148.6348  156.3874  134.9938 H   0  0  0  0  0  0  0  0  0  0  0  0
  146.9751  156.5519  135.6671 H   0  0  0  0  0  0  0  0  0  0  0  0
  147.7436  155.1052  133.0810 H   0  0  0  0  0  0  0  0  0  0  0  0
  147.2795  154.3427  134.6694 H   0  0  0  0  0  0  0  0  0  0  0  0
  142.2034  153.4082  135.5197 H   0  0  0  0  0  0  0  0  0  0  0  0
  1  2  1  0
  2  3  1  0
  3  4  2  0
  3  5  1  0
  5  6  1  0
  6  7  2  0
  6  8  1  0
  8  9  1  0
  9 10  1  0
 10 11  1  0
 10 12  2  0
  9 13  2  0
 13 14  1  0
 14 15  2  0
 15 16  1  0
 16 17  2  0
 17 18  1  0
 18 19  1  0
 19 20  1  0
 20 21  1  0
 21 22  1  0
 22 23  1  0
 23 24  1  0
 24 25  1  0
 23 26  1  0
 26 27  1  0
 27 28  1  0
 28 29  1  0
 29 30  2  0
 29 31  1  0
 31 32  1  0
 32 33  1  0
 32 34  1  0
 32 35  1  0
 28 36  1  0
 36 37  1  0
 17 38  1  0
 38 39  2  0
 39  8  1  0
 39 14  1  0
 25 20  1  0
 37 23  1  0
  1 40  1  0
  1 41  1  0
  1 42  1  0
  5 43  1  0
  5 44  1  0
 11 45  1  0
 11 46  1  0
 13 47  1  0
 15 48  1  0
 16 49  1  0
 18 50  1  0
 18 51  1  0
 19 52  1  0
 19 53  1  0
 21 54  1  0
 21 55  1  0
 22 56  1  0
 22 57  1  0
 24 58  1  0
 24 59  1  0
 25 60  1  0
 25 61  1  0
 26 62  1  0
 26 63  1  0
 27 64  1  0
 27 65  1  0
 33 66  1  0
 33 67  1  0
 33 68  1  0
 34 69  1  0
 34 70  1  0
 34 71  1  0
 35 72  1  0
 35 73  1  0
 35 74  1  0
 36 75  1  0
 36 76  1  0
 37 77  1  0
 37 78  1  0
 38 79  1  0
M  END
>  <UniqueID>  (58) 
58

>  <SMILES>  (58) 
COC(=O)CC(=O)n1c(C(N)=O)cc2ccc(CCN3CCC4(CC3)CCN(C(=O)OC(C)(C)C)CC4)cc21

>  <Energy>  (58) 
123.79343834096478

>  <Genealogy>  (58) 
COC(=O)CC(=O)n1c(C(N)=O)cc2ccc(CCN3CCC4(CC3)CCN(C(=O)OC(C)(C)C)CC4)cc21 (3D coordinates assigned)
COC(=O)CC(=O)n1c(C(N)=O)cc2ccc(CCN3CCC4(CC3)CCN(C(=O)OC(C)(C)C)CC4)cc21 (nonaromatic ring conformer: 123.79343834096478 kcal/mol)

>  <smiles>  (58) 
COC(=O)CC(=O)n1c(C(N)=O)cc2ccc(CCN3CCC4(CC3)CCN(C(=O)OC(C)(C)C)CC4)cc21

>  <score_type>  (58) 
oracle

>  <origin>  (58) 
adg

>  <m_score__min__energy>  (58) 
-10.039999999999999

>  <m_primary>  (58) 
energy

$$$$
58:0
     RDKit          3D

 50 52  0  0  0  0  0  0  0  0999 V2000
  150.6160  149.9150  130.5470 C   0  0  0  0  0  0  0  0  0  0  0  0
  150.2790  151.1770  131.2190 N   0  0  0  0  0  0  0  0  0  0  0  0
  149.1300  151.0760  132.1460 C   0  0  2  0  0  0  0  0  0  0  0  0
  148.5390  152.4550  132.4240 C   0  0  0  0  0  0  0  0  0  0  0  0
  149.3320  153.6160  132.3900 C   0  0  0  0  0  0  0  0  0  0  0  0
  148.7600  154.8750  132.5940 C   0  0  0  0  0  0  0  0  0  0  0  0
  149.5630  155.9720  132.6040 F   0  0  0  0  0  0  0  0  0  0  0  0
  147.3780  154.9970  132.8280 C   0  0  0  0  0  0  0  0  0  0  0  0
  146.7660  156.3280  133.0470 C   0  0  0  0  0  0  0  0  0  0  0  0
  147.5330  157.5070  132.8660 C   0  0  0  0  0  0  0  0  0  0  0  0
  146.9550  158.7760  133.0480 C   0  0  0  0  0  0  0  0  0  0  0  0
  145.6100  158.8330  133.4060 C   0  0  0  0  0  0  0  0  0  0  0  0
  144.7950  159.9190  133.6400 C   0  0  0  0  0  0  0  0  0  0  0  0
  143.5480  159.3850  133.9640 C   0  0  0  0  0  0  0  0  0  0  0  0
  142.3750  160.2020  134.3450 C   0  0  0  0  0  0  0  0  0  0  0  0
  141.5080  159.7980  135.4030 N   0  0  0  0  0  0  0  0  0  0  0  0
  142.1460  161.2830  133.7430 O   0  0  0  0  0  0  0  0  0  0  0  0
  143.5950  158.0250  133.9250 N   0  0  0  0  0  0  0  0  0  0  0  0
  142.5320  157.0960  134.1680 C   0  0  0  0  0  0  0  0  0  0  0  0
  142.2400  156.7820  135.3550 O   0  0  0  0  0  0  0  0  0  0  0  0
  141.7890  156.4790  133.0250 C   0  0  0  0  0  0  0  0  0  0  0  0
  140.0970  157.0370  133.0350 Cl  0  0  0  0  0  0  0  0  0  0  0  0
  144.8590  157.7040  133.5900 C   0  0  0  0  0  0  0  0  0  0  0  0
  145.4070  156.4290  133.4220 C   0  0  0  0  0  0  0  0  0  0  0  0
  146.5830  153.8380  132.8470 C   0  0  0  0  0  0  0  0  0  0  0  0
  145.2400  153.9250  133.0230 F   0  0  0  0  0  0  0  0  0  0  0  0
  147.1610  152.5830  132.6420 C   0  0  0  0  0  0  0  0  0  0  0  0
  149.4970  150.3470  133.3940 N   0  0  0  0  0  0  0  0  0  0  0  0
  149.6030  151.2800  134.5330 C   0  0  0  0  0  0  0  0  0  0  0  0
  148.4850  149.3250  133.7230 C   0  0  0  0  0  0  0  0  0  0  0  0
  150.8225  149.1416  131.3015 H   0  0  0  0  0  0  0  0  0  0  0  0
  149.7712  149.5975  129.9182 H   0  0  0  0  0  0  0  0  0  0  0  0
  151.5067  150.0609  129.9182 H   0  0  0  0  0  0  0  0  0  0  0  0
  151.1220  151.5000  131.7530 H   0  0  0  0  0  0  0  0  0  0  0  0
  148.3444  150.4785  131.6604 H   0  0  0  0  0  0  0  0  0  0  0  0
  150.4124  153.5325  132.2011 H   0  0  0  0  0  0  0  0  0  0  0  0
  148.5922  157.4280  132.5800 H   0  0  0  0  0  0  0  0  0  0  0  0
  147.5458  159.6939  132.9121 H   0  0  0  0  0  0  0  0  0  0  0  0
  145.0698  160.9826  133.5832 H   0  0  0  0  0  0  0  0  0  0  0  0
  141.4570  158.7960  135.6960 H   0  0  0  0  0  0  0  0  0  0  0  0
  142.2652  156.7735  132.0782 H   0  0  0  0  0  0  0  0  0  0  0  0
  141.8113  155.3838  133.1257 H   0  0  0  0  0  0  0  0  0  0  0  0
  144.7962  155.5275  133.5776 H   0  0  0  0  0  0  0  0  0  0  0  0
  146.5266  151.6844  132.6518 H   0  0  0  0  0  0  0  0  0  0  0  0
  149.5390  150.7166  135.4756 H   0  0  0  0  0  0  0  0  0  0  0  0
  150.5669  151.8079  134.4861 H   0  0  0  0  0  0  0  0  0  0  0  0
  148.7821  152.0107  134.4861 H   0  0  0  0  0  0  0  0  0  0  0  0
  148.3962  149.2353  134.8157 H   0  0  0  0  0  0  0  0  0  0  0  0
  147.5139  149.6208  133.2993 H   0  0  0  0  0  0  0  0  0  0  0  0
  148.7903  148.3569  133.2993 H   0  0  0  0  0  0  0  0  0  0  0  0
  1  2  1  0
  2  3  1  0
  3  4  1  0
  4  5  2  0
  5  6  1  0
  6  7  1  0
  6  8  2  0
  8  9  1  0
  9 10  2  0
 10 11  1  0
 11 12  2  0
 12 13  1  0
 13 14  2  0
 14 15  1  0
 15 16  1  0
 15 17  2  0
 14 18  1  0
 18 19  1  0
 19 20  2  0
 19 21  1  0
 21 22  1  0
 18 23  1  0
 23 24  2  0
  8 25  1  0
 25 26  1  0
 25 27  2  0
  3 28  1  0
 28 29  1  0
 28 30  1  0
 27  4  1  0
 24  9  1  0
 23 12  1  0
  1 31  1  0
  1 32  1  0
  1 33  1  0
  2 34  1  0
  3 35  1  6
  5 36  1  0
 10 37  1  0
 11 38  1  0
 13 39  1  0
 16 40  1  0
 21 41  1  0
 21 42  1  0
 24 43  1  0
 27 44  1  0
 29 45  1  0
 29 46  1  0
 29 47  1  0
 30 48  1  0
 30 49  1  0
 30 50  1  0
M  CHG  1  16  -1
M  END
>  <UniqueID>  (59) 
59

>  <SMILES>  (59) 
CN[C@H](c1cc(F)c(-c2ccc3cc(C([NH-])=O)n(C(=O)CCl)c3c2)c(F)c1)N(C)C

>  <Energy>  (59) 
103.51309393066875

>  <Genealogy>  (59) 
CNC(c1cc(F)c(-c2ccc3cc(C([NH-])=O)n(C(=O)CCl)c3c2)c(F)c1)N(C)C (protonated)
CN[C@H](c1cc(F)c(-c2ccc3cc(C([NH-])=O)n(C(=O)CCl)c3c2)c(F)c1)N(C)C (chirality)
CN[C@H](c1cc(F)c(-c2ccc3cc(C([NH-])=O)n(C(=O)CCl)c3c2)c(F)c1)N(C)C (3D coordinates assigned)
CN[C@H](c1cc(F)c(-c2ccc3cc(C([NH-])=O)n(C(=O)CCl)c3c2)c(F)c1)N(C)C (optimized conformer: 103.51309393066875 kcal/mol)

>  <smiles>  (59) 
CNC(c1cc(F)c(-c2ccc3cc(C(N)=O)n(C(=O)CCl)c3c2)c(F)c1)N(C)C

>  <score_type>  (59) 
oracle

>  <origin>  (59) 
adg

>  <m_score__min__energy>  (59) 
-8.5299999999999994

>  <m_primary>  (59) 
energy

$$$$
59:0
     RDKit          3D

 31 32  0  0  0  0  0  0  0  0999 V2000
  149.5840  162.3520  130.3390 N   0  0  0  0  0  0  0  0  0  0  0  0
  149.4150  161.2100  130.2620 C   0  0  0  0  0  0  0  0  0  0  0  0
  149.2010  159.7590  130.1650 C   0  0  0  0  0  0  0  0  0  0  0  0
  149.7330  159.0290  131.4030 C   0  0  0  0  0  0  0  0  0  0  0  0
  149.2290  159.6590  132.7100 C   0  0  0  0  0  0  0  0  0  0  0  0
  147.7770  159.3260  132.9290 C   0  0  0  0  0  0  0  0  0  0  0  0
  147.3270  157.9890  132.8030 C   0  0  0  0  0  0  0  0  0  0  0  0
  145.9790  157.6640  133.0250 C   0  0  0  0  0  0  0  0  0  0  0  0
  145.1120  158.6900  133.3880 C   0  0  0  0  0  0  0  0  0  0  0  0
  143.7590  158.6580  133.6400 C   0  0  0  0  0  0  0  0  0  0  0  0
  143.4100  159.9700  133.9540 C   0  0  0  0  0  0  0  0  0  0  0  0
  142.0520  160.3670  134.3780 C   0  0  0  0  0  0  0  0  0  0  0  0
  141.4230  159.7500  135.4980 N   0  0  0  0  0  0  0  0  0  0  0  0
  141.4170  161.2270  133.7120 O   0  0  0  0  0  0  0  0  0  0  0  0
  144.5030  160.7850  133.8900 N   0  0  0  0  0  0  0  0  0  0  0  0
  144.5510  162.2100  134.0590 C   0  0  0  0  0  0  0  0  0  0  0  0
  143.7950  162.9580  133.3840 O   0  0  0  0  0  0  0  0  0  0  0  0
  145.4500  162.7800  134.9510 O   0  0  0  0  0  0  0  0  0  0  0  0
  145.5360  159.9850  133.5440 C   0  0  0  0  0  0  0  0  0  0  0  0
  146.8700  160.3410  133.3100 C   0  0  0  0  0  0  0  0  0  0  0  0
  148.1229  159.5622  130.0697 H   0  0  0  0  0  0  0  0  0  0  0  0
  149.7460  159.3878  129.2846 H   0  0  0  0  0  0  0  0  0  0  0  0
  149.4028  157.9804  131.3649 H   0  0  0  0  0  0  0  0  0  0  0  0
  150.8304  159.1041  131.3934 H   0  0  0  0  0  0  0  0  0  0  0  0
  149.8208  159.2696  133.5515 H   0  0  0  0  0  0  0  0  0  0  0  0
  149.3379  160.7516  132.6440 H   0  0  0  0  0  0  0  0  0  0  0  0
  148.0401  157.1977  132.5286 H   0  0  0  0  0  0  0  0  0  0  0  0
  145.6196  156.6302  132.9153 H   0  0  0  0  0  0  0  0  0  0  0  0
  143.0943  157.7824  133.6016 H   0  0  0  0  0  0  0  0  0  0  0  0
  140.4880  160.0720  135.8330 H   0  0  0  0  0  0  0  0  0  0  0  0
  147.2034  161.3835  133.4198 H   0  0  0  0  0  0  0  0  0  0  0  0
  1  2  3  0
  2  3  1  0
  3  4  1  0
  4  5  1  0
  5  6  1  0
  6  7  2  0
  7  8  1  0
  8  9  2  0
  9 10  1  0
 10 11  2  0
 11 12  1  0
 12 13  1  0
 12 14  2  0
 11 15  1  0
 15 16  1  0
 16 17  2  0
 16 18  1  0
 15 19  1  0
 19 20  2  0
 20  6  1  0
 19  9  1  0
  3 21  1  0
  3 22  1  0
  4 23  1  0
  4 24  1  0
  5 25  1  0
  5 26  1  0
  7 27  1  0
  8 28  1  0
 10 29  1  0
 13 30  1  0
 20 31  1  0
M  CHG  2  13  -1  18  -1
M  END
>  <UniqueID>  (60) 
60

>  <SMILES>  (60) 
N#CCCCc1ccc2cc(C([NH-])=O)n(C(=O)[O-])c2c1

>  <Energy>  (60) 
65.6562221918741

>  <Genealogy>  (60) 
N#CCCCc1ccc2cc(C([NH-])=O)n(C(=O)[O-])c2c1 (protonated)
N#CCCCc1ccc2cc(C([NH-])=O)n(C(=O)[O-])c2c1 (3D coordinates assigned)
N#CCCCc1ccc2cc(C([NH-])=O)n(C(=O)[O-])c2c1 (optimized conformer: 65.6562221918741 kcal/mol)

>  <smiles>  (60) 
N#CCCCc1ccc2cc(C(N)=O)n(C(=O)O)c2c1

>  <score_type>  (60) 
oracle

>  <origin>  (60) 
adg

>  <m_score__min__energy>  (60) 
-7.1799999999999997

>  <m_primary>  (60) 
energy

$$$$
60:0
     RDKit          3D

 40 42  0  0  0  0  0  0  0  0999 V2000
  149.5870  157.8770  132.6000 N   0  0  0  0  0  0  0  0  0  0  0  0
  148.7850  159.0530  132.5850 C   0  0  0  0  0  0  0  0  0  0  0  0
  149.2860  160.1360  132.1790 O   0  0  0  0  0  0  0  0  0  0  0  0
  147.3670  159.0100  132.9940 C   0  0  0  0  0  0  0  0  0  0  0  0
  146.4950  160.0890  132.8690 C   0  0  0  0  0  0  0  0  0  0  0  0
  145.2680  159.6170  133.2780 C   0  0  0  0  0  0  0  0  0  0  0  0
  144.0400  160.2650  133.3670 C   0  0  0  0  0  0  0  0  0  0  0  0
  142.9420  159.5300  133.8450 C   0  0  0  0  0  0  0  0  0  0  0  0
  143.0860  158.1680  134.2170 C   0  0  0  0  0  0  0  0  0  0  0  0
  141.8970  157.3890  134.7320 C   0  0  0  0  0  0  0  0  0  0  0  0
  140.6810  158.2620  135.1160 C   0  0  2  0  0  0  0  0  0  0  0  0
  140.5300  158.4060  136.6170 C   0  0  0  0  0  0  0  0  0  0  0  0
  140.9580  159.4420  137.1920 O   0  0  0  0  0  0  0  0  0  0  0  0
  139.9180  157.4190  137.3790 O   0  0  0  0  0  0  0  0  0  0  0  0
  139.4070  157.8380  134.3360 C   0  0  0  0  0  0  0  0  0  0  0  0
  139.5760  156.6920  133.3460 C   0  0  0  0  0  0  0  0  0  0  0  0
  139.3040  158.1010  132.8380 C   0  0  0  0  0  0  0  0  0  0  0  0
  144.3550  157.5520  134.1280 C   0  0  0  0  0  0  0  0  0  0  0  0
  145.4250  158.3050  133.6370 C   0  0  0  0  0  0  0  0  0  0  0  0
  146.7070  157.9180  133.4720 N   0  0  0  0  0  0  0  0  0  0  0  0
  147.2460  156.6340  133.8200 C   0  0  0  0  0  0  0  0  0  0  0  0
  147.9420  156.5190  134.8650 O   0  0  0  0  0  0  0  0  0  0  0  0
  147.1340  155.4870  132.8570 C   0  0  0  0  0  0  0  0  0  0  0  0
  148.7360  154.6520  132.6040 S   0  0  0  0  0  0  0  0  0  0  0  0
  149.5260  157.1950  133.3880 H   0  0  0  0  0  0  0  0  0  0  0  0
  146.7357  161.1033  132.5179 H   0  0  0  0  0  0  0  0  0  0  0  0
  143.9321  161.3193  133.0725 H   0  0  0  0  0  0  0  0  0  0  0  0
  141.9591  160.0161  133.9319 H   0  0  0  0  0  0  0  0  0  0  0  0
  141.5813  156.6846  133.9483 H   0  0  0  0  0  0  0  0  0  0  0  0
  142.2260  156.8856  135.6530 H   0  0  0  0  0  0  0  0  0  0  0  0
  140.8661  159.2939  134.7831 H   0  0  0  0  0  0  0  0  0  0  0  0
  138.7540  158.0697  135.1903 H   0  0  0  0  0  0  0  0  0  0  0  0
  140.5656  156.2354  133.1972 H   0  0  0  0  0  0  0  0  0  0  0  0
  139.1013  155.7097  133.2054 H   0  0  0  0  0  0  0  0  0  0  0  0
  140.0971  158.6624  132.3224 H   0  0  0  0  0  0  0  0  0  0  0  0
  138.5516  158.5582  132.1786 H   0  0  0  0  0  0  0  0  0  0  0  0
  144.4968  156.5060  134.4375 H   0  0  0  0  0  0  0  0  0  0  0  0
  146.4120  154.7583  133.2543 H   0  0  0  0  0  0  0  0  0  0  0  0
  146.8013  155.8870  131.8878 H   0  0  0  0  0  0  0  0  0  0  0  0
  149.4830  155.7380  133.0960 H   0  0  0  0  0  0  0  0  0  0  0  0
  1  2  1  0
  2  3  2  0
  2  4  1  0
  4  5  2  0
  5  6  1  0
  6  7  2  0
  7  8  1  0
  8  9  2  0
  9 10  1  0
 10 11  1  0
 11 12  1  0
 12 13  2  0
 12 14  1  0
 11 15  1  0
 15 16  1  0
 16 17  1  0
  9 18  1  0
 18 19  2  0
 19 20  1  0
 20 21  1  0
 21 22  2  0
 21 23  1  0
 23 24  1  0
 20  4  1  0
 19  6  1  0
 17 15  1  0
  1 25  1  0
  5 26  1  0
  7 27  1  0
  8 28  1  0
 10 29  1  0
 10 30  1  0
 11 31  1  6
 15 32  1  0
 16 33  1  0
 16 34  1  0
 17 35  1  0
 17 36  1  0
 18 37  1  0
 23 38  1  0
 23 39  1  0
 24 40  1  0
M  CHG  2   1  -1  14  -1
M  END
>  <UniqueID>  (61) 
61

>  <SMILES>  (61) 
[NH-]C(=O)c1cc2ccc(C[C@H](C(=O)[O-])C3CC3)cc2n1C(=O)CS

>  <Energy>  (61) 
347.71986354361604

>  <Genealogy>  (61) 
[NH-]C(=O)c1cc2ccc(C[C@H](C(=O)[O-])C3CC3)cc2n1C(=O)CS (protonated)
[NH-]C(=O)c1cc2ccc(C[C@H](C(=O)[O-])C3CC3)cc2n1C(=O)CS (3D coordinates assigned)
[NH-]C(=O)c1cc2ccc(C[C@H](C(=O)[O-])C3CC3)cc2n1C(=O)CS (nonaromatic ring conformer: 347.71986354361604 kcal/mol)

>  <smiles>  (61) 
NC(=O)c1cc2ccc(C[C@H](C(=O)O)C3CC3)cc2n1C(=O)CS

>  <score_type>  (61) 
oracle

>  <origin>  (61) 
adg

>  <m_score__min__energy>  (61) 
-7.9400000000000004

>  <m_primary>  (61) 
energy

$$$$
61:0
     RDKit          3D

 39 41  0  0  0  0  0  0  0  0999 V2000
  143.1810  160.7460  133.6060 N   0  0  0  0  0  0  0  0  0  0  0  0
  144.5700  160.9850  133.8200 C   0  0  0  0  0  0  0  0  0  0  0  0
  144.9430  162.1050  134.2580 O   0  0  0  0  0  0  0  0  0  0  0  0
  145.5560  159.9370  133.4840 C   0  0  0  0  0  0  0  0  0  0  0  0
  146.8900  160.2070  133.1830 C   0  0  0  0  0  0  0  0  0  0  0  0
  147.4860  158.9770  133.0290 C   0  0  0  0  0  0  0  0  0  0  0  0
  148.8040  158.6520  132.7220 C   0  0  0  0  0  0  0  0  0  0  0  0
  149.1410  157.2930  132.6050 C   0  0  0  0  0  0  0  0  0  0  0  0
  148.1580  156.2840  132.7840 C   0  0  0  0  0  0  0  0  0  0  0  0
  148.5020  154.8480  132.6470 C   0  0  0  0  0  0  0  0  0  0  0  0
  149.7120  154.4040  132.2490 N   0  0  0  0  0  0  0  0  0  0  0  0
  149.6170  153.1070  132.2410 O   0  0  0  0  0  0  0  0  0  0  0  0
  148.4130  152.7430  132.6110 C   0  0  0  0  0  0  0  0  0  0  0  0
  147.6600  153.8220  132.8840 N   0  0  0  0  0  0  0  0  0  0  0  0
  146.8290  156.6570  133.0890 C   0  0  0  0  0  0  0  0  0  0  0  0
  146.5280  158.0180  133.2230 C   0  0  0  0  0  0  0  0  0  0  0  0
  145.3350  158.5910  133.5030 N   0  0  0  0  0  0  0  0  0  0  0  0
  144.0980  157.8980  133.7310 C   0  0  0  0  0  0  0  0  0  0  0  0
  143.4370  158.1100  134.7840 O   0  0  0  0  0  0  0  0  0  0  0  0
  143.6150  157.0150  132.7620 O   0  0  0  0  0  0  0  0  0  0  0  0
  143.1970  155.6870  133.0560 C   0  0  0  0  0  0  0  0  0  0  0  0
  144.3770  154.7740  133.0260 C   0  0  0  0  0  0  0  0  0  0  0  0
  145.0280  154.6320  131.9550 O   0  0  0  0  0  0  0  0  0  0  0  0
  144.7770  154.1210  134.1970 O   0  0  0  0  0  0  0  0  0  0  0  0
  144.9600  154.7990  135.4350 C   0  0  0  0  0  0  0  0  0  0  0  0
  146.3200  154.4930  135.9760 C   0  0  0  0  0  0  0  0  0  0  0  0
  147.0710  153.7540  135.3610 O   0  0  0  0  0  0  0  0  0  0  0  0
  142.8070  159.7740  133.5450 H   0  0  0  0  0  0  0  0  0  0  0  0
  147.3653  161.1945  133.0886 H   0  0  0  0  0  0  0  0  0  0  0  0
  149.5605  159.4369  132.5751 H   0  0  0  0  0  0  0  0  0  0  0  0
  150.1775  157.0076  132.3722 H   0  0  0  0  0  0  0  0  0  0  0  0
  148.0679  151.7013  132.6872 H   0  0  0  0  0  0  0  0  0  0  0  0
  146.6620  153.8340  133.1850 H   0  0  0  0  0  0  0  0  0  0  0  0
  146.0474  155.8939  133.2184 H   0  0  0  0  0  0  0  0  0  0  0  0
  142.7383  155.6601  134.0555 H   0  0  0  0  0  0  0  0  0  0  0  0
  142.4623  155.3601  132.3055 H   0  0  0  0  0  0  0  0  0  0  0  0
  144.8641  155.8833  135.2766 H   0  0  0  0  0  0  0  0  0  0  0  0
  144.1966  154.4636  136.1525 H   0  0  0  0  0  0  0  0  0  0  0  0
  146.6438  154.9349  136.9299 H   0  0  0  0  0  0  0  0  0  0  0  0
  1  2  1  0
  2  3  2  0
  2  4  1  0
  4  5  2  0
  5  6  1  0
  6  7  2  0
  7  8  1  0
  8  9  2  0
  9 10  1  0
 10 11  2  0
 11 12  1  0
 12 13  1  0
 13 14  2  0
  9 15  1  0
 15 16  2  0
 16 17  1  0
 17 18  1  0
 18 19  2  0
 18 20  1  0
 20 21  1  0
 21 22  1  0
 22 23  2  0
 22 24  1  0
 24 25  1  0
 25 26  1  0
 26 27  2  0
 17  4  1  0
 16  6  1  0
 14 10  1  0
  1 28  1  0
  5 29  1  0
  7 30  1  0
  8 31  1  0
 13 32  1  0
 14 33  1  0
 15 34  1  0
 21 35  1  0
 21 36  1  0
 25 37  1  0
 25 38  1  0
 26 39  1  0
M  CHG  2   1  -1  14   1
M  END
>  <UniqueID>  (62) 
62

>  <SMILES>  (62) 
[NH-]C(=O)c1cc2ccc(-c3noc[nH+]3)cc2n1C(=O)OCC(=O)OCC=O

>  <Energy>  (62) 
108.19383858435688

>  <Genealogy>  (62) 
[NH-]C(=O)c1cc2ccc(-c3noc[nH+]3)cc2n1C(=O)OCC(=O)OCC=O (protonated)
[NH-]C(=O)c1cc2ccc(-c3noc[nH+]3)cc2n1C(=O)OCC(=O)OCC=O (3D coordinates assigned)
[NH-]C(=O)c1cc2ccc(-c3noc[nH+]3)cc2n1C(=O)OCC(=O)OCC=O (optimized conformer: 108.19383858435688 kcal/mol)

>  <smiles>  (62) 
NC(=O)c1cc2ccc(-c3ncon3)cc2n1C(=O)OCC(=O)OCC=O

>  <score_type>  (62) 
oracle

>  <origin>  (62) 
adg

>  <m_score__min__energy>  (62) 
-5.9800000000000004

>  <m_primary>  (62) 
energy

$$$$
62:0
     RDKit          3D

 32 33  0  0  0  0  0  0  0  0999 V2000
  149.1750  160.7510  130.3630 C   0  0  0  0  0  0  0  0  0  0  0  0
  148.4840  159.5880  131.0630 C   0  0  0  0  0  0  0  0  0  0  0  0
  149.0510  159.4560  132.7970 S   0  0  0  0  0  0  0  0  0  0  0  0
  148.0620  158.0060  133.1890 C   0  0  0  0  0  0  0  0  0  0  0  0
  148.6680  156.9730  133.5770 O   0  0  0  0  0  0  0  0  0  0  0  0
  146.6160  158.0410  133.1810 N   0  0  0  0  0  0  0  0  0  0  0  0
  145.7880  156.9690  133.0040 C   0  0  0  0  0  0  0  0  0  0  0  0
  146.2060  155.6040  132.6480 C   0  0  0  0  0  0  0  0  0  0  0  0
  147.4410  155.3740  131.9700 N   0  0  0  0  0  0  0  0  0  0  0  0
  145.4320  154.6370  132.8810 O   0  0  0  0  0  0  0  0  0  0  0  0
  144.4640  157.3090  133.2490 C   0  0  0  0  0  0  0  0  0  0  0  0
  144.4880  158.6450  133.5600 C   0  0  0  0  0  0  0  0  0  0  0  0
  143.4330  159.5020  133.8560 C   0  0  0  0  0  0  0  0  0  0  0  0
  143.7290  160.8500  134.1080 C   0  0  0  0  0  0  0  0  0  0  0  0
  145.0670  161.3170  134.0630 C   0  0  0  0  0  0  0  0  0  0  0  0
  145.3660  162.7810  134.2630 C   0  0  0  0  0  0  0  0  0  0  0  0
  146.6090  163.1000  133.7450 F   0  0  0  0  0  0  0  0  0  0  0  0
  144.4040  163.5340  133.6190 F   0  0  0  0  0  0  0  0  0  0  0  0
  145.3640  163.1020  135.6100 F   0  0  0  0  0  0  0  0  0  0  0  0
  146.1080  160.4180  133.7320 C   0  0  0  0  0  0  0  0  0  0  0  0
  145.7930  159.0700  133.5110 C   0  0  0  0  0  0  0  0  0  0  0  0
  149.5848  161.4407  131.1156 H   0  0  0  0  0  0  0  0  0  0  0  0
  149.9918  160.3673  129.7340 H   0  0  0  0  0  0  0  0  0  0  0  0
  148.4475  161.2849  129.7340 H   0  0  0  0  0  0  0  0  0  0  0  0
  147.3963  159.7518  131.0493 H   0  0  0  0  0  0  0  0  0  0  0  0
  148.7337  158.6558  130.5351 H   0  0  0  0  0  0  0  0  0  0  0  0
  148.0380  156.1740  131.6640 H   0  0  0  0  0  0  0  0  0  0  0  0
  147.7350  154.4010  131.7280 H   0  0  0  0  0  0  0  0  0  0  0  0
  143.5851  156.6491  133.2035 H   0  0  0  0  0  0  0  0  0  0  0  0
  142.3971  159.1336  133.8914 H   0  0  0  0  0  0  0  0  0  0  0  0
  142.9150  161.5516  134.3428 H   0  0  0  0  0  0  0  0  0  0  0  0
  147.1467  160.7707  133.6495 H   0  0  0  0  0  0  0  0  0  0  0  0
  1  2  1  0
  2  3  1  0
  3  4  1  0
  4  5  2  0
  4  6  1  0
  6  7  1  0
  7  8  1  0
  8  9  1  0
  8 10  2  0
  7 11  2  0
 11 12  1  0
 12 13  2  0
 13 14  1  0
 14 15  2  0
 15 16  1  0
 16 17  1  0
 16 18  1  0
 16 19  1  0
 15 20  1  0
 20 21  2  0
 21  6  1  0
 21 12  1  0
  1 22  1  0
  1 23  1  0
  1 24  1  0
  2 25  1  0
  2 26  1  0
  9 27  1  0
  9 28  1  0
 11 29  1  0
 13 30  1  0
 14 31  1  0
 20 32  1  0
M  END
>  <UniqueID>  (63) 
63

>  <SMILES>  (63) 
CCSC(=O)n1c(C(N)=O)cc2ccc(C(F)(F)F)cc21

>  <Energy>  (63) 
72.60934416471508

>  <Genealogy>  (63) 
CCSC(=O)n1c(C(N)=O)cc2ccc(C(F)(F)F)cc21 (3D coordinates assigned)
CCSC(=O)n1c(C(N)=O)cc2ccc(C(F)(F)F)cc21 (optimized conformer: 72.60934416471508 kcal/mol)

>  <smiles>  (63) 
CCSC(=O)n1c(C(N)=O)cc2ccc(C(F)(F)F)cc21

>  <score_type>  (63) 
oracle

>  <origin>  (63) 
adg

>  <m_score__min__energy>  (63) 
-6.9400000000000004

>  <m_primary>  (63) 
energy

$$$$
63:0
     RDKit          3D

 44 46  0  0  0  0  0  0  0  0999 V2000
  141.4130  154.2880  133.7480 C   0  0  0  0  0  0  0  0  0  0  0  0
  142.8110  154.3870  134.1800 N   0  0  0  0  0  0  0  0  0  0  0  0
  143.8960  154.0050  133.2760 C   0  0  0  0  0  0  0  0  0  0  0  0
  143.1180  154.7930  135.5240 C   0  0  0  0  0  0  0  0  0  0  0  0
  144.2130  154.4530  136.0490 O   0  0  0  0  0  0  0  0  0  0  0  0
  142.2050  155.6090  136.2730 N   0  0  0  0  0  0  0  0  0  0  0  0
  141.6660  155.3570  137.4990 C   0  0  0  0  0  0  0  0  0  0  0  0
  141.8410  154.1140  138.2790 C   0  0  0  0  0  0  0  0  0  0  0  0
  143.1530  153.6460  138.5850 N   0  0  0  0  0  0  0  0  0  0  0  0
  140.8430  153.4650  138.6870 O   0  0  0  0  0  0  0  0  0  0  0  0
  140.8720  156.4280  137.9110 C   0  0  0  0  0  0  0  0  0  0  0  0
  140.9460  157.3510  136.8930 C   0  0  0  0  0  0  0  0  0  0  0  0
  140.3630  158.6110  136.7760 C   0  0  0  0  0  0  0  0  0  0  0  0
  140.6410  159.3600  135.6200 C   0  0  0  0  0  0  0  0  0  0  0  0
  141.5050  158.8500  134.6180 C   0  0  0  0  0  0  0  0  0  0  0  0
  141.7710  159.6450  133.3660 C   0  0  0  0  0  0  0  0  0  0  0  0
  140.5380  159.8060  132.5110 C   0  0  0  0  0  0  0  0  0  0  0  0
  139.8210  160.8400  132.6110 O   0  0  0  0  0  0  0  0  0  0  0  0
  140.1490  158.7920  131.5780 N   0  0  0  0  0  0  0  0  0  0  0  0
  138.9190  158.8350  130.7900 C   0  0  0  0  0  0  0  0  0  0  0  0
  137.7030  159.2080  131.6170 C   0  0  0  0  0  0  0  0  0  0  0  0
  137.5440  160.5000  130.9470 N   0  0  0  0  0  0  0  0  0  0  0  0
  138.7180  160.1850  130.1290 C   0  0  0  0  0  0  0  0  0  0  0  0
  142.0760  157.5670  134.7710 C   0  0  0  0  0  0  0  0  0  0  0  0
  141.7610  156.8340  135.9200 C   0  0  0  0  0  0  0  0  0  0  0  0
  140.7588  154.2417  134.6311 H   0  0  0  0  0  0  0  0  0  0  0  0
  141.1524  155.1699  133.1445 H   0  0  0  0  0  0  0  0  0  0  0  0
  141.2793  153.3781  133.1445 H   0  0  0  0  0  0  0  0  0  0  0  0
  144.7724  153.6965  133.8648 H   0  0  0  0  0  0  0  0  0  0  0  0
  143.5674  153.1685  132.6417 H   0  0  0  0  0  0  0  0  0  0  0  0
  144.1640  154.8628  132.6417 H   0  0  0  0  0  0  0  0  0  0  0  0
  143.9970  154.1180  138.1900 H   0  0  0  0  0  0  0  0  0  0  0  0
  140.3067  156.5158  138.8505 H   0  0  0  0  0  0  0  0  0  0  0  0
  139.7056  159.0071  137.5640 H   0  0  0  0  0  0  0  0  0  0  0  0
  140.1837  160.3521  135.4911 H   0  0  0  0  0  0  0  0  0  0  0  0
  142.1345  160.6429  133.6523 H   0  0  0  0  0  0  0  0  0  0  0  0
  142.5188  159.0966  132.7743 H   0  0  0  0  0  0  0  0  0  0  0  0
  138.9980  157.8884  130.2353 H   0  0  0  0  0  0  0  0  0  0  0  0
  136.8491  158.5308  131.4679 H   0  0  0  0  0  0  0  0  0  0  0  0
  137.7833  159.1878  132.7139 H   0  0  0  0  0  0  0  0  0  0  0  0
  137.8070  161.2580  131.6200 H   0  0  0  0  0  0  0  0  0  0  0  0
  138.4955  160.1161  129.0539 H   0  0  0  0  0  0  0  0  0  0  0  0
  139.5572  160.8959  130.1127 H   0  0  0  0  0  0  0  0  0  0  0  0
  142.7509  157.1550  134.0063 H   0  0  0  0  0  0  0  0  0  0  0  0
  1  2  1  0
  2  3  1  0
  2  4  1  0
  4  5  2  0
  4  6  1  0
  6  7  1  0
  7  8  1  0
  8  9  1  0
  8 10  2  0
  7 11  2  0
 11 12  1  0
 12 13  2  0
 13 14  1  0
 14 15  2  0
 15 16  1  0
 16 17  1  0
 17 18  2  0
 17 19  1  0
 19 20  1  0
 20 21  1  0
 21 22  1  0
 22 23  1  0
 15 24  1  0
 24 25  2  0
 25  6  1  0
 25 12  1  0
 23 20  1  0
  1 26  1  0
  1 27  1  0
  1 28  1  0
  3 29  1  0
  3 30  1  0
  3 31  1  0
  9 32  1  0
 11 33  1  0
 13 34  1  0
 14 35  1  0
 16 36  1  0
 16 37  1  0
 20 38  1  0
 21 39  1  0
 21 40  1  0
 22 41  1  0
 23 42  1  0
 23 43  1  0
 24 44  1  0
M  CHG  2   9  -1  19  -1
M  END
>  <UniqueID>  (64) 
64

>  <SMILES>  (64) 
CN(C)C(=O)n1c(C([NH-])=O)cc2ccc(CC(=O)[N-]C3CNC3)cc21

>  <Energy>  (64) 
146.13589588837863

>  <Genealogy>  (64) 
CN(C)C(=O)n1c(C([NH-])=O)cc2ccc(CC(=O)[N-]C3CNC3)cc21 (protonated)
CN(C)C(=O)n1c(C([NH-])=O)cc2ccc(CC(=O)[N-]C3CNC3)cc21 (3D coordinates assigned)
CN(C)C(=O)n1c(C([NH-])=O)cc2ccc(CC(=O)[N-]C3CNC3)cc21 (nonaromatic ring conformer: 146.13589588837863 kcal/mol)

>  <smiles>  (64) 
CN(C)C(=O)n1c(C(N)=O)cc2ccc(CC(=O)NC3CNC3)cc21

>  <score_type>  (64) 
oracle

>  <origin>  (64) 
adg

>  <m_score__min__energy>  (64) 
-8.1300000000000008

>  <m_primary>  (64) 
energy

$$$$
64:0
     RDKit          3D

 27 28  0  0  0  0  0  0  0  0999 V2000
  143.2920  157.0260  134.6090 C   0  0  0  0  0  0  0  0  0  0  0  0
  143.7310  157.7560  133.3800 C   0  0  0  0  0  0  0  0  0  0  0  0
  142.9630  157.8000  132.3830 O   0  0  0  0  0  0  0  0  0  0  0  0
  144.9820  158.4610  133.3490 N   0  0  0  0  0  0  0  0  0  0  0  0
  145.1940  159.8050  133.4340 C   0  0  0  0  0  0  0  0  0  0  0  0
  144.1650  160.8260  133.7180 C   0  0  0  0  0  0  0  0  0  0  0  0
  142.8020  160.5730  133.3840 N   0  0  0  0  0  0  0  0  0  0  0  0
  144.4810  161.9350  134.2250 O   0  0  0  0  0  0  0  0  0  0  0  0
  146.5510  160.0930  133.2970 C   0  0  0  0  0  0  0  0  0  0  0  0
  147.1680  158.8740  133.1360 C   0  0  0  0  0  0  0  0  0  0  0  0
  148.5130  158.5670  132.9460 C   0  0  0  0  0  0  0  0  0  0  0  0
  148.8630  157.2150  132.7860 C   0  0  0  0  0  0  0  0  0  0  0  0
  147.8710  156.2030  132.8230 C   0  0  0  0  0  0  0  0  0  0  0  0
  148.2530  154.7670  132.6070 C   0  0  0  0  0  0  0  0  0  0  0  0
  148.0470  153.8570  134.1230 Cl  0  0  0  0  0  0  0  0  0  0  0  0
  146.5160  156.5540  133.0060 C   0  0  0  0  0  0  0  0  0  0  0  0
  146.1990  157.9060  133.1730 C   0  0  0  0  0  0  0  0  0  0  0  0
  143.6236  157.5775  135.5011 H   0  0  0  0  0  0  0  0  0  0  0  0
  142.1950  156.9446  134.6150 H   0  0  0  0  0  0  0  0  0  0  0  0
  143.7344  156.0189  134.6150 H   0  0  0  0  0  0  0  0  0  0  0  0
  142.5520  159.9210  132.6080 H   0  0  0  0  0  0  0  0  0  0  0  0
  147.0273  161.0844  133.3140 H   0  0  0  0  0  0  0  0  0  0  0  0
  149.2774  159.3576  132.9219 H   0  0  0  0  0  0  0  0  0  0  0  0
  149.9166  156.9397  132.6306 H   0  0  0  0  0  0  0  0  0  0  0  0
  147.6101  154.3307  131.8284 H   0  0  0  0  0  0  0  0  0  0  0  0
  149.3050  154.7135  132.2900 H   0  0  0  0  0  0  0  0  0  0  0  0
  145.7301  155.7844  133.0170 H   0  0  0  0  0  0  0  0  0  0  0  0
  1  2  1  0
  2  3  2  0
  2  4  1  0
  4  5  1  0
  5  6  1  0
  6  7  1  0
  6  8  2  0
  5  9  2  0
  9 10  1  0
 10 11  2  0
 11 12  1  0
 12 13  2  0
 13 14  1  0
 14 15  1  0
 13 16  1  0
 16 17  2  0
 17  4  1  0
 17 10  1  0
  1 18  1  0
  1 19  1  0
  1 20  1  0
  7 21  1  0
  9 22  1  0
 11 23  1  0
 12 24  1  0
 14 25  1  0
 14 26  1  0
 16 27  1  0
M  CHG  1   7  -1
M  END
>  <UniqueID>  (65) 
65

>  <SMILES>  (65) 
CC(=O)n1c(C([NH-])=O)cc2ccc(CCl)cc21

>  <Energy>  (65) 
64.97690233527727

>  <Genealogy>  (65) 
CC(=O)n1c(C([NH-])=O)cc2ccc(CCl)cc21 (protonated)
CC(=O)n1c(C([NH-])=O)cc2ccc(CCl)cc21 (3D coordinates assigned)
CC(=O)n1c(C([NH-])=O)cc2ccc(CCl)cc21 (optimized conformer: 64.97690233527727 kcal/mol)

>  <smiles>  (65) 
CC(=O)n1c(C(N)=O)cc2ccc(CCl)cc21

>  <score_type>  (65) 
oracle

>  <origin>  (65) 
adg

>  <m_score__min__energy>  (65) 
-6.5899999999999999

>  <m_primary>  (65) 
energy

$$$$
65:0
     RDKit          3D

 45 47  0  0  0  0  0  0  0  0999 V2000
  149.2280  159.0840  130.5050 C   0  0  0  0  0  0  0  0  0  0  0  0
  149.2280  160.3590  131.3530 C   0  0  0  0  0  0  0  0  0  0  0  0
  149.2390  161.6200  130.4860 C   0  0  0  0  0  0  0  0  0  0  0  0
  148.1010  160.3720  132.2860 N   0  0  0  0  0  0  0  0  0  0  0  0
  147.8460  159.4150  133.3230 C   0  0  0  0  0  0  0  0  0  0  0  0
  148.7430  159.1230  134.1590 O   0  0  0  0  0  0  0  0  0  0  0  0
  146.5660  158.7700  133.3950 N   0  0  0  0  0  0  0  0  0  0  0  0
  145.3590  159.3370  133.6800 C   0  0  0  0  0  0  0  0  0  0  0  0
  145.0930  160.7830  133.8270 C   0  0  0  0  0  0  0  0  0  0  0  0
  146.1530  161.7070  134.0560 N   0  0  0  0  0  0  0  0  0  0  0  0
  143.9150  161.2160  133.7080 O   0  0  0  0  0  0  0  0  0  0  0  0
  144.3660  158.3620  133.7450 C   0  0  0  0  0  0  0  0  0  0  0  0
  145.0070  157.1710  133.4830 C   0  0  0  0  0  0  0  0  0  0  0  0
  144.5030  155.8760  133.4330 C   0  0  0  0  0  0  0  0  0  0  0  0
  145.4000  154.8280  133.1710 C   0  0  0  0  0  0  0  0  0  0  0  0
  146.7830  155.0880  132.9740 C   0  0  0  0  0  0  0  0  0  0  0  0
  147.7270  153.9710  132.7120 C   0  0  0  0  0  0  0  0  0  0  0  0
  149.1030  154.2180  132.5600 C   0  0  0  0  0  0  0  0  0  0  0  0
  149.9900  153.1670  132.3120 C   0  0  0  0  0  0  0  0  0  0  0  0
  149.5170  151.8450  132.2100 C   0  0  0  0  0  0  0  0  0  0  0  0
  150.3620  150.7520  131.9620 O   0  0  0  0  0  0  0  0  0  0  0  0
  150.6310  150.1930  130.6770 C   0  0  0  0  0  0  0  0  0  0  0  0
  151.9650  150.3650  130.3520 F   0  0  0  0  0  0  0  0  0  0  0  0
  150.3510  148.8420  130.7080 F   0  0  0  0  0  0  0  0  0  0  0  0
  149.8310  150.7920  129.7200 F   0  0  0  0  0  0  0  0  0  0  0  0
  148.1480  151.6000  132.3630 C   0  0  0  0  0  0  0  0  0  0  0  0
  147.2590  152.6490  132.6110 C   0  0  0  0  0  0  0  0  0  0  0  0
  147.2540  156.4200  133.0340 C   0  0  0  0  0  0  0  0  0  0  0  0
  146.3330  157.4450  133.2770 C   0  0  0  0  0  0  0  0  0  0  0  0
  150.2651  158.7787  130.3019 H   0  0  0  0  0  0  0  0  0  0  0  0
  148.7095  158.2813  131.0498 H   0  0  0  0  0  0  0  0  0  0  0  0
  148.7095  159.2761  129.5541 H   0  0  0  0  0  0  0  0  0  0  0  0
  150.1576  160.3587  131.9410 H   0  0  0  0  0  0  0  0  0  0  0  0
  149.2468  162.5097  131.1329 H   0  0  0  0  0  0  0  0  0  0  0  0
  150.1372  161.6205  129.8510 H   0  0  0  0  0  0  0  0  0  0  0  0
  148.3410  161.6362  129.8510 H   0  0  0  0  0  0  0  0  0  0  0  0
  146.8980  161.8580  133.3400 H   0  0  0  0  0  0  0  0  0  0  0  0
  143.2976  158.5113  133.9598 H   0  0  0  0  0  0  0  0  0  0  0  0
  143.4329  155.6784  133.5940 H   0  0  0  0  0  0  0  0  0  0  0  0
  145.0279  153.7942  133.1177 H   0  0  0  0  0  0  0  0  0  0  0  0
  149.4843  155.2469  132.6369 H   0  0  0  0  0  0  0  0  0  0  0  0
  151.0641  153.3739  132.1958 H   0  0  0  0  0  0  0  0  0  0  0  0
  147.7676  150.5707  132.2873 H   0  0  0  0  0  0  0  0  0  0  0  0
  146.1856  152.4392  132.7280 H   0  0  0  0  0  0  0  0  0  0  0  0
  148.3213  156.6455  132.8927 H   0  0  0  0  0  0  0  0  0  0  0  0
  1  2  1  0
  2  3  1  0
  2  4  1  0
  4  5  1  0
  5  6  2  0
  5  7  1  0
  7  8  1  0
  8  9  1  0
  9 10  1  0
  9 11  2  0
  8 12  2  0
 12 13  1  0
 13 14  2  0
 14 15  1  0
 15 16  2  0
 16 17  1  0
 17 18  2  0
 18 19  1  0
 19 20  2  0
 20 21  1  0
 21 22  1  0
 22 23  1  0
 22 24  1  0
 22 25  1  0
 20 26  1  0
 26 27  2  0
 16 28  1  0
 28 29  2  0
 29  7  1  0
 29 13  1  0
 27 17  1  0
  1 30  1  0
  1 31  1  0
  1 32  1  0
  2 33  1  0
  3 34  1  0
  3 35  1  0
  3 36  1  0
 10 37  1  0
 12 38  1  0
 14 39  1  0
 15 40  1  0
 18 41  1  0
 19 42  1  0
 26 43  1  0
 27 44  1  0
 28 45  1  0
M  CHG  2   4  -1  10  -1
M  END
>  <UniqueID>  (66) 
66

>  <SMILES>  (66) 
CC(C)[N-]C(=O)n1c(C([NH-])=O)cc2ccc(-c3ccc(OC(F)(F)F)cc3)cc21

>  <Energy>  (66) 
87.11117559435931

>  <Genealogy>  (66) 
CC(C)[N-]C(=O)n1c(C([NH-])=O)cc2ccc(-c3ccc(OC(F)(F)F)cc3)cc21 (protonated)
CC(C)[N-]C(=O)n1c(C([NH-])=O)cc2ccc(-c3ccc(OC(F)(F)F)cc3)cc21 (3D coordinates assigned)
CC(C)[N-]C(=O)n1c(C([NH-])=O)cc2ccc(-c3ccc(OC(F)(F)F)cc3)cc21 (optimized conformer: 87.11117559435931 kcal/mol)

>  <smiles>  (66) 
CC(C)NC(=O)n1c(C(N)=O)cc2ccc(-c3ccc(OC(F)(F)F)cc3)cc21

>  <score_type>  (66) 
oracle

>  <origin>  (66) 
adg

>  <m_score__min__energy>  (66) 
-8.9199999999999999

>  <m_primary>  (66) 
energy

$$$$
66:0
     RDKit          3D

 49 52  0  0  0  0  0  0  0  0999 V2000
  138.0970  159.3600  131.3930 C   0  0  0  0  0  0  0  0  0  0  0  0
  139.0360  158.8550  132.4400 C   0  0  0  0  0  0  0  0  0  0  0  0
  140.1210  159.4640  132.6500 O   0  0  0  0  0  0  0  0  0  0  0  0
  138.7200  157.6620  133.1710 N   0  0  0  0  0  0  0  0  0  0  0  0
  139.6300  157.1040  134.1790 C   0  0  2  0  0  0  0  0  0  0  0  0
  139.5950  157.9580  135.4480 C   0  0  0  0  0  0  0  0  0  0  0  0
  140.7500  158.9410  135.3100 C   0  0  0  0  0  0  0  0  0  0  0  0
  141.6510  158.3580  134.3260 N   0  0  0  0  0  0  0  0  0  0  0  0
  142.9600  158.8870  134.0160 C   0  0  0  0  0  0  0  0  0  0  0  0
  143.1850  160.2910  133.9900 C   0  0  0  0  0  0  0  0  0  0  0  0
  144.4510  160.8150  133.6810 C   0  0  0  0  0  0  0  0  0  0  0  0
  145.4800  159.9210  133.4070 C   0  0  0  0  0  0  0  0  0  0  0  0
  146.7930  160.1540  133.0650 C   0  0  0  0  0  0  0  0  0  0  0  0
  147.3620  158.8910  132.9040 C   0  0  0  0  0  0  0  0  0  0  0  0
  148.7920  158.6690  132.6050 C   0  0  0  0  0  0  0  0  0  0  0  0
  149.2760  157.3790  132.2420 N   0  0  0  0  0  0  0  0  0  0  0  0
  149.6060  159.6270  132.7040 O   0  0  0  0  0  0  0  0  0  0  0  0
  146.4330  157.9200  133.1290 N   0  0  0  0  0  0  0  0  0  0  0  0
  146.5890  156.4990  133.0080 C   0  0  0  0  0  0  0  0  0  0  0  0
  146.7520  155.9860  131.8680 O   0  0  0  0  0  0  0  0  0  0  0  0
  146.6080  155.6430  134.2040 C   0  0  0  0  0  0  0  0  0  0  0  0
  147.7320  155.2180  134.8830 C   0  0  0  0  0  0  0  0  0  0  0  0
  147.2220  154.4590  135.9130 C   0  0  0  0  0  0  0  0  0  0  0  0
  148.0180  153.8040  136.9910 C   0  0  0  0  0  0  0  0  0  0  0  0
  145.8770  154.4530  135.8590 N   0  0  0  0  0  0  0  0  0  0  0  0
  145.5010  155.1720  134.8110 N   0  0  0  0  0  0  0  0  0  0  0  0
  145.2890  158.5660  133.4400 C   0  0  0  0  0  0  0  0  0  0  0  0
  144.0390  158.0120  133.7320 C   0  0  0  0  0  0  0  0  0  0  0  0
  141.0840  157.1680  133.7060 C   0  0  0  0  0  0  0  0  0  0  0  0
  137.2266  159.8281  131.8761 H   0  0  0  0  0  0  0  0  0  0  0  0
  138.6120  160.1028  130.7661 H   0  0  0  0  0  0  0  0  0  0  0  0
  137.7612  158.5208  130.7661 H   0  0  0  0  0  0  0  0  0  0  0  0
  137.8170  157.1790  132.9580 H   0  0  0  0  0  0  0  0  0  0  0  0
  139.3050  156.0679  134.3547 H   0  0  0  0  0  0  0  0  0  0  0  0
  138.6388  158.4966  135.5225 H   0  0  0  0  0  0  0  0  0  0  0  0
  139.6887  157.3436  136.3556 H   0  0  0  0  0  0  0  0  0  0  0  0
  140.3825  159.9175  134.9618 H   0  0  0  0  0  0  0  0  0  0  0  0
  141.2555  159.1097  136.2723 H   0  0  0  0  0  0  0  0  0  0  0  0
  142.3551  160.9769  134.2153 H   0  0  0  0  0  0  0  0  0  0  0  0
  144.6234  161.9011  133.6565 H   0  0  0  0  0  0  0  0  0  0  0  0
  147.2880  161.1289  132.9444 H   0  0  0  0  0  0  0  0  0  0  0  0
  148.7470  156.7740  131.5760 H   0  0  0  0  0  0  0  0  0  0  0  0
  148.7862  155.4344  134.6553 H   0  0  0  0  0  0  0  0  0  0  0  0
  147.6349  154.1192  137.9728 H   0  0  0  0  0  0  0  0  0  0  0  0
  147.9324  152.7113  136.8976 H   0  0  0  0  0  0  0  0  0  0  0  0
  149.0738  154.0984  136.8976 H   0  0  0  0  0  0  0  0  0  0  0  0
  143.8957  156.9214  133.7412 H   0  0  0  0  0  0  0  0  0  0  0  0
  141.1270  157.2497  132.6099 H   0  0  0  0  0  0  0  0  0  0  0  0
  141.6409  156.2615  133.9854 H   0  0  0  0  0  0  0  0  0  0  0  0
  1  2  1  0
  2  3  2  0
  2  4  1  0
  4  5  1  0
  5  6  1  0
  6  7  1  0
  7  8  1  0
  8  9  1  0
  9 10  2  0
 10 11  1  0
 11 12  2  0
 12 13  1  0
 13 14  2  0
 14 15  1  0
 15 16  1  0
 15 17  2  0
 14 18  1  0
 18 19  1  0
 19 20  2  0
 19 21  1  0
 21 22  1  0
 22 23  2  0
 23 24  1  0
 23 25  1  0
 25 26  1  0
 18 27  1  0
 27 28  2  0
  8 29  1  0
 29  5  1  0
 28  9  1  0
 27 12  1  0
 26 21  2  0
  1 30  1  0
  1 31  1  0
  1 32  1  0
  4 33  1  0
  5 34  1  1
  6 35  1  0
  6 36  1  0
  7 37  1  0
  7 38  1  0
 10 39  1  0
 11 40  1  0
 13 41  1  0
 16 42  1  0
 22 43  1  0
 24 44  1  0
 24 45  1  0
 24 46  1  0
 28 47  1  0
 29 48  1  0
 29 49  1  0
M  CHG  2  16  -1  25  -1
M  END
>  <UniqueID>  (67) 
67

>  <SMILES>  (67) 
CC(=O)N[C@@H]1CCN(c2ccc3cc(C([NH-])=O)n(C(=O)c4cc(C)[n-]n4)c3c2)C1

>  <Energy>  (67) 
118.73642037014926

>  <Genealogy>  (67) 
CC(=O)NC1CCN(c2ccc3cc(C([NH-])=O)n(C(=O)c4cc(C)[n-]n4)c3c2)C1 (protonated)
CC(=O)N[C@@H]1CCN(c2ccc3cc(C([NH-])=O)n(C(=O)c4cc(C)[n-]n4)c3c2)C1 (chirality)
CC(=O)N[C@@H]1CCN(c2ccc3cc(C([NH-])=O)n(C(=O)c4cc(C)[n-]n4)c3c2)C1 (3D coordinates assigned)
CC(=O)N[C@@H]1CCN(c2ccc3cc(C([NH-])=O)n(C(=O)c4cc(C)[n-]n4)c3c2)C1 (nonaromatic ring conformer: 118.73642037014926 kcal/mol)

>  <smiles>  (67) 
CC(=O)NC1CCN(c2ccc3cc(C(N)=O)n(C(=O)c4cc(C)[nH]n4)c3c2)C1

>  <score_type>  (67) 
oracle

>  <origin>  (67) 
adg

>  <m_score__min__energy>  (67) 
-9.5

>  <m_primary>  (67) 
energy

$$$$
67:0
     RDKit          3D

 45 46  0  0  0  0  0  0  0  0999 V2000
  147.0390  157.1150  133.7500 C   0  0  0  0  0  0  0  0  0  0  0  0
  147.4690  155.6510  133.9340 C   0  0  2  0  0  0  0  0  0  0  0  0
  148.4400  155.2500  132.8060 C   0  0  0  0  0  0  0  0  0  0  0  0
  148.3120  153.8890  132.4910 O   0  0  0  0  0  0  0  0  0  0  0  0
  146.2580  154.6710  134.0090 C   0  0  2  0  0  0  0  0  0  0  0  0
  146.6900  153.3630  134.2990 O   0  0  0  0  0  0  0  0  0  0  0  0
  145.3610  154.6850  132.7830 C   0  0  0  0  0  0  0  0  0  0  0  0
  145.7980  155.1900  131.7130 O   0  0  0  0  0  0  0  0  0  0  0  0
  144.0590  154.0730  132.7820 N   0  0  0  0  0  0  0  0  0  0  0  0
  143.7700  152.7480  132.6410 C   0  0  0  0  0  0  0  0  0  0  0  0
  144.7420  151.6670  132.3590 C   0  0  0  0  0  0  0  0  0  0  0  0
  146.1290  151.9460  132.1880 N   0  0  0  0  0  0  0  0  0  0  0  0
  144.3360  150.4780  132.2510 O   0  0  0  0  0  0  0  0  0  0  0  0
  142.3990  152.5330  132.7720 C   0  0  0  0  0  0  0  0  0  0  0  0
  141.8550  153.7720  133.0180 C   0  0  0  0  0  0  0  0  0  0  0  0
  140.5320  154.1400  133.2450 C   0  0  0  0  0  0  0  0  0  0  0  0
  140.2600  155.4940  133.5020 C   0  0  0  0  0  0  0  0  0  0  0  0
  141.3110  156.4430  133.5500 C   0  0  0  0  0  0  0  0  0  0  0  0
  141.0060  157.8970  133.7920 C   0  0  0  0  0  0  0  0  0  0  0  0
  139.6140  158.2490  133.2510 C   0  0  0  0  0  0  0  0  0  0  0  0
  139.6830  158.9710  131.9000 C   0  0  0  0  0  0  0  0  0  0  0  0
  138.3500  159.4000  131.4530 C   0  0  0  0  0  0  0  0  0  0  0  0
  137.3000  159.7370  131.1020 N   0  0  0  0  0  0  0  0  0  0  0  0
  142.6400  156.0330  133.3110 C   0  0  0  0  0  0  0  0  0  0  0  0
  142.8790  154.6830  133.0310 C   0  0  0  0  0  0  0  0  0  0  0  0
  146.9014  157.5834  134.7357 H   0  0  0  0  0  0  0  0  0  0  0  0
  147.8157  157.6578  133.1913 H   0  0  0  0  0  0  0  0  0  0  0  0
  146.0922  157.1516  133.1913 H   0  0  0  0  0  0  0  0  0  0  0  0
  147.9833  155.5737  134.9033 H   0  0  0  0  0  0  0  0  0  0  0  0
  148.2175  155.8487  131.9104 H   0  0  0  0  0  0  0  0  0  0  0  0
  149.4690  155.4347  133.1480 H   0  0  0  0  0  0  0  0  0  0  0  0
  147.3640  153.7450  132.2340 H   0  0  0  0  0  0  0  0  0  0  0  0
  145.6317  155.0416  134.8338 H   0  0  0  0  0  0  0  0  0  0  0  0
  146.6690  152.8380  133.4570 H   0  0  0  0  0  0  0  0  0  0  0  0
  146.4730  152.9260  132.0930 H   0  0  0  0  0  0  0  0  0  0  0  0
  141.8648  151.5745  132.6949 H   0  0  0  0  0  0  0  0  0  0  0  0
  139.7243  153.3936  133.2238 H   0  0  0  0  0  0  0  0  0  0  0  0
  139.2226  155.8202  133.6673 H   0  0  0  0  0  0  0  0  0  0  0  0
  141.0363  158.0986  134.8729 H   0  0  0  0  0  0  0  0  0  0  0  0
  141.7565  158.5103  133.2718 H   0  0  0  0  0  0  0  0  0  0  0  0
  139.0368  157.3208  133.1275 H   0  0  0  0  0  0  0  0  0  0  0  0
  139.1331  158.9266  133.9718 H   0  0  0  0  0  0  0  0  0  0  0  0
  140.3291  159.8557  131.9995 H   0  0  0  0  0  0  0  0  0  0  0  0
  140.0902  158.2724  131.1543 H   0  0  0  0  0  0  0  0  0  0  0  0
  143.4676  156.7568  133.3440 H   0  0  0  0  0  0  0  0  0  0  0  0
  1  2  1  0
  2  3  1  0
  3  4  1  0
  2  5  1  0
  5  6  1  0
  5  7  1  0
  7  8  2  0
  7  9  1  0
  9 10  1  0
 10 11  1  0
 11 12  1  0
 11 13  2  0
 10 14  2  0
 14 15  1  0
 15 16  2  0
 16 17  1  0
 17 18  2  0
 18 19  1  0
 19 20  1  0
 20 21  1  0
 21 22  1  0
 22 23  3  0
 18 24  1  0
 24 25  2  0
 25  9  1  0
 25 15  1  0
  1 26  1  0
  1 27  1  0
  1 28  1  0
  2 29  1  1
  3 30  1  0
  3 31  1  0
  4 32  1  0
  5 33  1  1
  6 34  1  0
 12 35  1  0
 14 36  1  0
 16 37  1  0
 17 38  1  0
 19 39  1  0
 19 40  1  0
 20 41  1  0
 20 42  1  0
 21 43  1  0
 21 44  1  0
 24 45  1  0
M  CHG  1  12  -1
M  END
>  <UniqueID>  (68) 
68

>  <SMILES>  (68) 
C[C@H](CO)[C@H](O)C(=O)n1c(C([NH-])=O)cc2ccc(CCCC#N)cc21

>  <Energy>  (68) 
76.52637192561365

>  <Genealogy>  (68) 
CC(CO)[C@H](O)C(=O)n1c(C([NH-])=O)cc2ccc(CCCC#N)cc21 (protonated)
C[C@H](CO)[C@H](O)C(=O)n1c(C([NH-])=O)cc2ccc(CCCC#N)cc21 (chirality)
C[C@H](CO)[C@H](O)C(=O)n1c(C([NH-])=O)cc2ccc(CCCC#N)cc21 (3D coordinates assigned)
C[C@H](CO)[C@H](O)C(=O)n1c(C([NH-])=O)cc2ccc(CCCC#N)cc21 (optimized conformer: 76.52637192561365 kcal/mol)

>  <smiles>  (68) 
CC(CO)[C@H](O)C(=O)n1c(C(N)=O)cc2ccc(CCCC#N)cc21

>  <score_type>  (68) 
oracle

>  <origin>  (68) 
adg

>  <m_score__min__energy>  (68) 
-6.21

>  <m_primary>  (68) 
energy

$$$$
68:0
     RDKit          3D

 27 28  0  0  0  0  0  0  0  0999 V2000
  148.5550  155.8350  133.2420 N   0  0  0  0  0  0  0  0  0  0  0  0
  147.1790  155.9970  132.9050 C   0  0  0  0  0  0  0  0  0  0  0  0
  146.5570  155.0380  132.3750 O   0  0  0  0  0  0  0  0  0  0  0  0
  146.5060  157.2890  133.1570 C   0  0  0  0  0  0  0  0  0  0  0  0
  145.1310  157.4230  133.3400 C   0  0  0  0  0  0  0  0  0  0  0  0
  144.9250  158.7610  133.5920 C   0  0  0  0  0  0  0  0  0  0  0  0
  143.7450  159.4550  133.8420 C   0  0  0  0  0  0  0  0  0  0  0  0
  143.8280  160.8430  134.0470 C   0  0  0  0  0  0  0  0  0  0  0  0
  145.0760  161.5150  133.9720 C   0  0  0  0  0  0  0  0  0  0  0  0
  145.1570  162.9980  134.2300 C   0  0  0  0  0  0  0  0  0  0  0  0
  144.1080  163.6590  133.6150 F   0  0  0  0  0  0  0  0  0  0  0  0
  146.3500  163.4820  133.7280 F   0  0  0  0  0  0  0  0  0  0  0  0
  145.0990  163.2610  135.5870 F   0  0  0  0  0  0  0  0  0  0  0  0
  146.2550  160.7680  133.7370 C   0  0  0  0  0  0  0  0  0  0  0  0
  146.1430  159.3860  133.5570 C   0  0  0  0  0  0  0  0  0  0  0  0
  147.1240  158.4950  133.2950 N   0  0  0  0  0  0  0  0  0  0  0  0
  148.5220  158.7850  133.1420 C   0  0  0  0  0  0  0  0  0  0  0  0
  149.2330  158.9950  134.1600 O   0  0  0  0  0  0  0  0  0  0  0  0
  149.1420  158.8600  131.7810 C   0  0  0  0  0  0  0  0  0  0  0  0
  148.8480  160.6160  131.0210 Br  0  0  0  0  0  0  0  0  0  0  0  0
  149.1090  156.6310  133.6290 H   0  0  0  0  0  0  0  0  0  0  0  0
  144.3715  156.6287  133.2931 H   0  0  0  0  0  0  0  0  0  0  0  0
  142.7772  158.9334  133.8781 H   0  0  0  0  0  0  0  0  0  0  0  0
  142.9150  161.4153  134.2682 H   0  0  0  0  0  0  0  0  0  0  0  0
  147.2364  161.2631  133.6969 H   0  0  0  0  0  0  0  0  0  0  0  0
  150.2231  158.6735  131.8616 H   0  0  0  0  0  0  0  0  0  0  0  0
  148.6820  158.1015  131.1305 H   0  0  0  0  0  0  0  0  0  0  0  0
  1  2  1  0
  2  3  2  0
  2  4  1  0
  4  5  2  0
  5  6  1  0
  6  7  2  0
  7  8  1  0
  8  9  2  0
  9 10  1  0
 10 11  1  0
 10 12  1  0
 10 13  1  0
  9 14  1  0
 14 15  2  0
 15 16  1  0
 16 17  1  0
 17 18  2  0
 17 19  1  0
 19 20  1  0
 16  4  1  0
 15  6  1  0
  1 21  1  0
  5 22  1  0
  7 23  1  0
  8 24  1  0
 14 25  1  0
 19 26  1  0
 19 27  1  0
M  CHG  1   1  -1
M  END
>  <UniqueID>  (69) 
69

>  <SMILES>  (69) 
[NH-]C(=O)c1cc2ccc(C(F)(F)F)cc2n1C(=O)CBr

>  <Energy>  (69) 
66.1045423010356

>  <Genealogy>  (69) 
[NH-]C(=O)c1cc2ccc(C(F)(F)F)cc2n1C(=O)CBr (protonated)
[NH-]C(=O)c1cc2ccc(C(F)(F)F)cc2n1C(=O)CBr (3D coordinates assigned)
[NH-]C(=O)c1cc2ccc(C(F)(F)F)cc2n1C(=O)CBr (optimized conformer: 66.1045423010356 kcal/mol)

>  <smiles>  (69) 
NC(=O)c1cc2ccc(C(F)(F)F)cc2n1C(=O)CBr

>  <score_type>  (69) 
oracle

>  <origin>  (69) 
adg

>  <m_score__min__energy>  (69) 
-6.1100000000000003

>  <m_primary>  (69) 
energy

$$$$
69:0
     RDKit          3D

 32 33  0  0  0  0  0  0  0  0999 V2000
  137.4150  159.5270  131.0410 C   0  0  0  0  0  0  0  0  0  0  0  0
  138.2410  158.6000  131.7110 O   0  0  0  0  0  0  0  0  0  0  0  0
  139.2450  159.2790  132.4400 C   0  0  0  0  0  0  0  0  0  0  0  0
  139.7490  158.4110  133.5560 C   0  0  0  0  0  0  0  0  0  0  0  0
  139.0490  158.2700  134.5950 O   0  0  0  0  0  0  0  0  0  0  0  0
  140.9980  157.7110  133.4380 N   0  0  0  0  0  0  0  0  0  0  0  0
  141.1820  156.3700  133.2700 C   0  0  0  0  0  0  0  0  0  0  0  0
  140.1000  155.3750  133.0840 C   0  0  0  0  0  0  0  0  0  0  0  0
  138.7330  155.7820  133.0040 N   0  0  0  0  0  0  0  0  0  0  0  0
  140.3760  154.1470  133.0090 O   0  0  0  0  0  0  0  0  0  0  0  0
  142.5440  156.0700  133.2420 C   0  0  0  0  0  0  0  0  0  0  0  0
  143.1890  157.2730  133.4100 C   0  0  0  0  0  0  0  0  0  0  0  0
  144.5490  157.5580  133.4830 C   0  0  0  0  0  0  0  0  0  0  0  0
  144.9320  158.8930  133.7000 C   0  0  0  0  0  0  0  0  0  0  0  0
  143.9550  159.9100  133.8490 C   0  0  0  0  0  0  0  0  0  0  0  0
  144.3860  161.3260  134.1020 C   0  0  0  0  0  0  0  0  0  0  0  0
  143.6130  162.1920  133.3500 F   0  0  0  0  0  0  0  0  0  0  0  0
  145.7150  161.4780  133.7510 F   0  0  0  0  0  0  0  0  0  0  0  0
  142.5840  159.5810  133.7720 C   0  0  0  0  0  0  0  0  0  0  0  0
  142.2340  158.2480  133.5310 C   0  0  0  0  0  0  0  0  0  0  0  0
  136.8727  160.1356  131.7796 H   0  0  0  0  0  0  0  0  0  0  0  0
  138.0347  160.1816  130.4105 H   0  0  0  0  0  0  0  0  0  0  0  0
  136.6936  158.9865  130.4105 H   0  0  0  0  0  0  0  0  0  0  0  0
  140.0789  159.5265  131.7667 H   0  0  0  0  0  0  0  0  0  0  0  0
  138.8203  160.2006  132.8646 H   0  0  0  0  0  0  0  0  0  0  0  0
  138.4620  156.7890  132.9910 H   0  0  0  0  0  0  0  0  0  0  0  0
  137.9790  155.0650  132.9100 H   0  0  0  0  0  0  0  0  0  0  0  0
  143.0051  155.0797  133.1128 H   0  0  0  0  0  0  0  0  0  0  0  0
  145.3014  156.7630  133.3742 H   0  0  0  0  0  0  0  0  0  0  0  0
  145.9998  159.1513  133.7547 H   0  0  0  0  0  0  0  0  0  0  0  0
  144.2587  161.5549  135.1704 H   0  0  0  0  0  0  0  0  0  0  0  0
  141.8108  160.3531  133.8983 H   0  0  0  0  0  0  0  0  0  0  0  0
  1  2  1  0
  2  3  1  0
  3  4  1  0
  4  5  2  0
  4  6  1  0
  6  7  1  0
  7  8  1  0
  8  9  1  0
  8 10  2  0
  7 11  2  0
 11 12  1  0
 12 13  2  0
 13 14  1  0
 14 15  2  0
 15 16  1  0
 16 17  1  0
 16 18  1  0
 15 19  1  0
 19 20  2  0
 20  6  1  0
 20 12  1  0
  1 21  1  0
  1 22  1  0
  1 23  1  0
  3 24  1  0
  3 25  1  0
  9 26  1  0
  9 27  1  0
 11 28  1  0
 13 29  1  0
 14 30  1  0
 16 31  1  0
 19 32  1  0
M  END
>  <UniqueID>  (70) 
70

>  <SMILES>  (70) 
COCC(=O)n1c(C(N)=O)cc2ccc(C(F)F)cc21

>  <Energy>  (70) 
71.97116514305003

>  <Genealogy>  (70) 
COCC(=O)n1c(C(N)=O)cc2ccc(C(F)F)cc21 (3D coordinates assigned)
COCC(=O)n1c(C(N)=O)cc2ccc(C(F)F)cc21 (optimized conformer: 71.97116514305003 kcal/mol)

>  <smiles>  (70) 
COCC(=O)n1c(C(N)=O)cc2ccc(C(F)F)cc21

>  <score_type>  (70) 
oracle

>  <origin>  (70) 
adg

>  <m_score__min__energy>  (70) 
-6.1699999999999999

>  <m_primary>  (70) 
energy

$$$$
70:0
     RDKit          3D

 43 44  0  0  0  0  0  0  0  0999 V2000
  149.5440  162.3300  130.3260 C   0  0  0  0  0  0  0  0  0  0  0  0
  149.1760  160.9880  130.8850 C   0  0  0  0  0  0  0  0  0  0  0  0
  149.9370  159.8440  130.5410 C   0  0  0  0  0  0  0  0  0  0  0  0
  149.6190  158.5850  131.0770 C   0  0  0  0  0  0  0  0  0  0  0  0
  148.5510  158.5070  131.9670 C   0  0  0  0  0  0  0  0  0  0  0  0
  148.0130  157.4120  132.6030 C   0  0  0  0  0  0  0  0  0  0  0  0
  146.9590  157.9120  133.3630 C   0  0  0  0  0  0  0  0  0  0  0  0
  146.1320  157.0730  134.2540 C   0  0  0  0  0  0  0  0  0  0  0  0
  144.7160  156.9930  134.0910 N   0  0  0  0  0  0  0  0  0  0  0  0
  146.6800  156.4600  135.2090 O   0  0  0  0  0  0  0  0  0  0  0  0
  146.8390  159.2590  133.1970 N   0  0  0  0  0  0  0  0  0  0  0  0
  145.7980  160.1070  133.7120 C   0  0  0  0  0  0  0  0  0  0  0  0
  145.9890  161.3490  133.8260 O   0  0  0  0  0  0  0  0  0  0  0  0
  144.5740  159.5480  134.0850 O   0  0  0  0  0  0  0  0  0  0  0  0
  143.3390  159.9090  133.4750 C   0  0  0  0  0  0  0  0  0  0  0  0
  142.1900  159.7320  134.4700 C   0  0  0  0  0  0  0  0  0  0  0  0
  141.3630  158.4630  134.2040 C   0  0  0  0  0  0  0  0  0  0  0  0
  142.1830  157.2390  134.3500 N   0  0  0  0  0  0  0  0  0  0  0  0
  141.7980  156.2210  133.3570 C   0  0  0  0  0  0  0  0  0  0  0  0
  142.0330  156.6850  135.7040 C   0  0  0  0  0  0  0  0  0  0  0  0
  147.8240  159.6100  132.3380 C   0  0  0  0  0  0  0  0  0  0  0  0
  148.1090  160.8730  131.8030 C   0  0  0  0  0  0  0  0  0  0  0  0
  149.7362  163.0309  131.1517 H   0  0  0  0  0  0  0  0  0  0  0  0
  150.4490  162.2342  129.7082 H   0  0  0  0  0  0  0  0  0  0  0  0
  148.7167  162.7092  129.7082 H   0  0  0  0  0  0  0  0  0  0  0  0
  150.7852  159.9423  129.8475 H   0  0  0  0  0  0  0  0  0  0  0  0
  150.1954  157.6893  130.8023 H   0  0  0  0  0  0  0  0  0  0  0  0
  148.3445  156.3659  132.5273 H   0  0  0  0  0  0  0  0  0  0  0  0
  144.1530  156.3610  134.7030 H   0  0  0  0  0  0  0  0  0  0  0  0
  144.2150  157.6110  133.4160 H   0  0  0  0  0  0  0  0  0  0  0  0
  143.3847  160.9605  133.1552 H   0  0  0  0  0  0  0  0  0  0  0  0
  143.1643  159.2604  132.6039 H   0  0  0  0  0  0  0  0  0  0  0  0
  142.6098  159.6718  135.4849 H   0  0  0  0  0  0  0  0  0  0  0  0
  141.5179  160.5955  134.3576 H   0  0  0  0  0  0  0  0  0  0  0  0
  140.5300  158.4226  134.9213 H   0  0  0  0  0  0  0  0  0  0  0  0
  140.9889  158.5059  133.1705 H   0  0  0  0  0  0  0  0  0  0  0  0
  141.4549  155.3138  133.8760 H   0  0  0  0  0  0  0  0  0  0  0  0
  140.9857  156.6122  132.7268 H   0  0  0  0  0  0  0  0  0  0  0  0
  142.6659  155.9768  132.7268 H   0  0  0  0  0  0  0  0  0  0  0  0
  142.2451  157.4685  136.4463 H   0  0  0  0  0  0  0  0  0  0  0  0
  141.0039  156.3208  135.8392 H   0  0  0  0  0  0  0  0  0  0  0  0
  142.7378  155.8513  135.8392 H   0  0  0  0  0  0  0  0  0  0  0  0
  147.5161  161.7537  132.0909 H   0  0  0  0  0  0  0  0  0  0  0  0
  1  2  1  0
  2  3  2  0
  3  4  1  0
  4  5  2  0
  5  6  1  0
  6  7  2  0
  7  8  1  0
  8  9  1  0
  8 10  2  0
  7 11  1  0
 11 12  1  0
 12 13  2  0
 12 14  1  0
 14 15  1  0
 15 16  1  0
 16 17  1  0
 17 18  1  0
 18 19  1  0
 18 20  1  0
 11 21  1  0
 21 22  2  0
 22  2  1  0
 21  5  1  0
  1 23  1  0
  1 24  1  0
  1 25  1  0
  3 26  1  0
  4 27  1  0
  6 28  1  0
  9 29  1  0
  9 30  1  0
 15 31  1  0
 15 32  1  0
 16 33  1  0
 16 34  1  0
 17 35  1  0
 17 36  1  0
 19 37  1  0
 19 38  1  0
 19 39  1  0
 20 40  1  0
 20 41  1  0
 20 42  1  0
 22 43  1  0
M  END
>  <UniqueID>  (71) 
71

>  <SMILES>  (71) 
Cc1ccc2cc(C(N)=O)n(C(=O)OCCCN(C)C)c2c1

>  <Energy>  (71) 
75.59624559574931

>  <Genealogy>  (71) 
Cc1ccc2cc(C(N)=O)n(C(=O)OCCCN(C)C)c2c1 (3D coordinates assigned)
Cc1ccc2cc(C(N)=O)n(C(=O)OCCCN(C)C)c2c1 (optimized conformer: 75.59624559574931 kcal/mol)

>  <smiles>  (71) 
Cc1ccc2cc(C(N)=O)n(C(=O)OCCCN(C)C)c2c1

>  <score_type>  (71) 
oracle

>  <origin>  (71) 
adg

>  <m_score__min__energy>  (71) 
-6.7000000000000002

>  <m_primary>  (71) 
energy

$$$$
71:0
     RDKit          3D

 31 33  0  0  0  0  0  0  0  0999 V2000
  143.9060  153.2790  137.9730 N   0  0  0  0  0  0  0  0  0  0  0  0
  142.5430  153.3120  137.5610 C   0  0  0  0  0  0  0  0  0  0  0  0
  141.8450  152.2670  137.6560 O   0  0  0  0  0  0  0  0  0  0  0  0
  141.9560  154.5320  136.9680 C   0  0  0  0  0  0  0  0  0  0  0  0
  141.5510  155.6290  137.7230 C   0  0  0  0  0  0  0  0  0  0  0  0
  140.9810  156.5010  136.8230 C   0  0  0  0  0  0  0  0  0  0  0  0
  140.4240  157.7600  137.0270 C   0  0  0  0  0  0  0  0  0  0  0  0
  139.9370  158.4530  135.9060 C   0  0  0  0  0  0  0  0  0  0  0  0
  140.0160  157.8820  134.6120 C   0  0  0  0  0  0  0  0  0  0  0  0
  139.5240  158.6380  133.4380 C   0  0  0  0  0  0  0  0  0  0  0  0
  138.3750  158.1870  132.7670 C   0  0  0  0  0  0  0  0  0  0  0  0
  137.8760  158.8860  131.6650 C   0  0  0  0  0  0  0  0  0  0  0  0
  138.5220  160.0400  131.2170 C   0  0  0  0  0  0  0  0  0  0  0  0
  138.0240  160.7340  130.1210 O   0  0  0  0  0  0  0  0  0  0  0  0
  139.6720  160.4940  131.8690 C   0  0  0  0  0  0  0  0  0  0  0  0
  140.1810  159.8010  132.9740 C   0  0  0  0  0  0  0  0  0  0  0  0
  141.6730  160.3830  133.7060 Cl  0  0  0  0  0  0  0  0  0  0  0  0
  140.6010  156.6060  134.4430 C   0  0  0  0  0  0  0  0  0  0  0  0
  141.0590  155.9290  135.5790 C   0  0  0  0  0  0  0  0  0  0  0  0
  141.6590  154.7200  135.6500 N   0  0  0  0  0  0  0  0  0  0  0  0
  141.9970  153.8680  134.5430 C   0  0  0  0  0  0  0  0  0  0  0  0
  141.1190  153.5420  133.7010 O   0  0  0  0  0  0  0  0  0  0  0  0
  143.3010  153.4200  134.3760 O   0  0  0  0  0  0  0  0  0  0  0  0
  144.5130  154.1240  137.8900 H   0  0  0  0  0  0  0  0  0  0  0  0
  141.6627  155.7694  138.8083 H   0  0  0  0  0  0  0  0  0  0  0  0
  140.3668  158.1987  138.0341 H   0  0  0  0  0  0  0  0  0  0  0  0
  139.4896  159.4496  136.0346 H   0  0  0  0  0  0  0  0  0  0  0  0
  137.8640  157.2760  133.1121 H   0  0  0  0  0  0  0  0  0  0  0  0
  136.9730  158.5268  131.1496 H   0  0  0  0  0  0  0  0  0  0  0  0
  140.1804  161.4016  131.5117 H   0  0  0  0  0  0  0  0  0  0  0  0
  140.6938  156.1565  133.4433 H   0  0  0  0  0  0  0  0  0  0  0  0
  1  2  1  0
  2  3  2  0
  2  4  1  0
  4  5  2  0
  5  6  1  0
  6  7  2  0
  7  8  1  0
  8  9  2  0
  9 10  1  0
 10 11  2  0
 11 12  1  0
 12 13  2  0
 13 14  1  0
 13 15  1  0
 15 16  2  0
 16 17  1  0
  9 18  1  0
 18 19  2  0
 19 20  1  0
 20 21  1  0
 21 22  2  0
 21 23  1  0
 20  4  1  0
 19  6  1  0
 16 10  1  0
  1 24  1  0
  5 25  1  0
  7 26  1  0
  8 27  1  0
 11 28  1  0
 12 29  1  0
 15 30  1  0
 18 31  1  0
M  CHG  3   1  -1  14  -1  23  -1
M  END
>  <UniqueID>  (72) 
72

>  <SMILES>  (72) 
[NH-]C(=O)c1cc2ccc(-c3ccc([O-])cc3Cl)cc2n1C(=O)[O-]

>  <Energy>  (72) 
81.46304127144319

>  <Genealogy>  (72) 
[NH-]C(=O)c1cc2ccc(-c3ccc([O-])cc3Cl)cc2n1C(=O)[O-] (protonated)
[NH-]C(=O)c1cc2ccc(-c3ccc([O-])cc3Cl)cc2n1C(=O)[O-] (3D coordinates assigned)
[NH-]C(=O)c1cc2ccc(-c3ccc([O-])cc3Cl)cc2n1C(=O)[O-] (optimized conformer: 81.46304127144319 kcal/mol)

>  <smiles>  (72) 
NC(=O)c1cc2ccc(-c3ccc(O)cc3Cl)cc2n1C(=O)O

>  <score_type>  (72) 
oracle

>  <origin>  (72) 
adg

>  <m_score__min__energy>  (72) 
-7.2000000000000002

>  <m_primary>  (72) 
energy

$$$$
72:0
     RDKit          3D

 39 40  0  0  0  0  0  0  0  0999 V2000
  145.7890  151.7620  131.9510 N   0  0  0  0  0  0  0  0  0  0  0  0
  144.9680  152.6750  132.6820 C   0  0  0  0  0  0  0  0  0  0  0  0
  143.8220  152.3110  133.0550 O   0  0  0  0  0  0  0  0  0  0  0  0
  145.4130  154.0580  132.9490 C   0  0  0  0  0  0  0  0  0  0  0  0
  144.5440  155.1440  133.0010 C   0  0  0  0  0  0  0  0  0  0  0  0
  145.3480  156.2420  133.2000 C   0  0  0  0  0  0  0  0  0  0  0  0
  145.0090  157.5850  133.3330 C   0  0  0  0  0  0  0  0  0  0  0  0
  146.0450  158.5070  133.5600 C   0  0  0  0  0  0  0  0  0  0  0  0
  147.3890  158.0710  133.6640 C   0  0  0  0  0  0  0  0  0  0  0  0
  148.4960  159.0670  133.8960 C   0  0  0  0  0  0  0  0  0  0  0  0
  149.2820  159.3640  132.6110 C   0  0  0  0  0  0  0  0  0  0  0  0
  148.4680  160.1530  131.5830 C   0  0  0  0  0  0  0  0  0  0  0  0
  149.3070  160.8590  130.7400 F   0  0  0  0  0  0  0  0  0  0  0  0
  147.6950  156.7000  133.5210 C   0  0  0  0  0  0  0  0  0  0  0  0
  146.6470  155.8060  133.2710 C   0  0  0  0  0  0  0  0  0  0  0  0
  146.7030  154.4620  133.1210 N   0  0  0  0  0  0  0  0  0  0  0  0
  147.8730  153.6370  133.2310 C   0  0  0  0  0  0  0  0  0  0  0  0
  148.3590  153.3810  134.3670 O   0  0  0  0  0  0  0  0  0  0  0  0
  148.4740  153.1220  132.0780 O   0  0  0  0  0  0  0  0  0  0  0  0
  149.6540  152.3280  132.1110 C   0  0  0  0  0  0  0  0  0  0  0  0
  149.2830  150.8680  132.3300 C   0  0  0  0  0  0  0  0  0  0  0  0
  147.9330  150.7700  132.6910 O   0  0  0  0  0  0  0  0  0  0  0  0
  145.4750  150.7770  131.8040 H   0  0  0  0  0  0  0  0  0  0  0  0
  146.6650  152.0820  131.4810 H   0  0  0  0  0  0  0  0  0  0  0  0
  143.4484  155.1276  132.9037 H   0  0  0  0  0  0  0  0  0  0  0  0
  143.9620  157.9149  133.2626 H   0  0  0  0  0  0  0  0  0  0  0  0
  145.8102  159.5772  133.6578 H   0  0  0  0  0  0  0  0  0  0  0  0
  148.0577  160.0045  134.2687 H   0  0  0  0  0  0  0  0  0  0  0  0
  149.1936  158.6347  134.6284 H   0  0  0  0  0  0  0  0  0  0  0  0
  150.1761  159.9484  132.8738 H   0  0  0  0  0  0  0  0  0  0  0  0
  149.5434  158.3983  132.1537 H   0  0  0  0  0  0  0  0  0  0  0  0
  147.8613  159.4543  130.9881 H   0  0  0  0  0  0  0  0  0  0  0  0
  147.8169  160.8632  132.1137 H   0  0  0  0  0  0  0  0  0  0  0  0
  148.7321  156.3429  133.6040 H   0  0  0  0  0  0  0  0  0  0  0  0
  150.1903  152.4299  131.1560 H   0  0  0  0  0  0  0  0  0  0  0  0
  150.2992  152.6678  132.9345 H   0  0  0  0  0  0  0  0  0  0  0  0
  149.4543  150.3044  131.4010 H   0  0  0  0  0  0  0  0  0  0  0  0
  149.9054  150.4523  133.1361 H   0  0  0  0  0  0  0  0  0  0  0  0
  147.7740  151.4890  133.3570 H   0  0  0  0  0  0  0  0  0  0  0  0
  1  2  1  0
  2  3  2  0
  2  4  1  0
  4  5  2  0
  5  6  1  0
  6  7  2  0
  7  8  1  0
  8  9  2  0
  9 10  1  0
 10 11  1  0
 11 12  1  0
 12 13  1  0
  9 14  1  0
 14 15  2  0
 15 16  1  0
 16 17  1  0
 17 18  2  0
 17 19  1  0
 19 20  1  0
 20 21  1  0
 21 22  1  0
 16  4  1  0
 15  6  1  0
  1 23  1  0
  1 24  1  0
  5 25  1  0
  7 26  1  0
  8 27  1  0
 10 28  1  0
 10 29  1  0
 11 30  1  0
 11 31  1  0
 12 32  1  0
 12 33  1  0
 14 34  1  0
 20 35  1  0
 20 36  1  0
 21 37  1  0
 21 38  1  0
 22 39  1  0
M  END
>  <UniqueID>  (73) 
73

>  <SMILES>  (73) 
NC(=O)c1cc2ccc(CCCF)cc2n1C(=O)OCCO

>  <Energy>  (73) 
68.34900333111756

>  <Genealogy>  (73) 
NC(=O)c1cc2ccc(CCCF)cc2n1C(=O)OCCO (3D coordinates assigned)
NC(=O)c1cc2ccc(CCCF)cc2n1C(=O)OCCO (optimized conformer: 68.34900333111756 kcal/mol)

>  <smiles>  (73) 
NC(=O)c1cc2ccc(CCCF)cc2n1C(=O)OCCO

>  <score_type>  (73) 
oracle

>  <origin>  (73) 
adg

>  <m_score__min__energy>  (73) 
-6.4100000000000001

>  <m_primary>  (73) 
energy

$$$$
73:0
     RDKit          3D

 45 47  0  0  0  0  0  0  0  0999 V2000
  149.1690  157.4110  132.6080 C   0  0  0  0  0  0  0  0  0  0  0  0
  148.0310  158.3270  132.9430 C   0  0  0  0  0  0  0  0  0  0  0  0
  148.2770  159.6980  133.2060 C   0  0  0  0  0  0  0  0  0  0  0  0
  147.2130  160.5760  133.4730 C   0  0  0  0  0  0  0  0  0  0  0  0
  145.9210  160.0580  133.4650 C   0  0  0  0  0  0  0  0  0  0  0  0
  144.7150  160.6900  133.6630 C   0  0  0  0  0  0  0  0  0  0  0  0
  143.7490  159.6950  133.5250 C   0  0  0  0  0  0  0  0  0  0  0  0
  142.3030  159.9130  133.7510 C   0  0  0  0  0  0  0  0  0  0  0  0
  141.3430  159.5070  132.7740 N   0  0  0  0  0  0  0  0  0  0  0  0
  141.9050  160.4900  134.7970 O   0  0  0  0  0  0  0  0  0  0  0  0
  144.3360  158.4950  133.2480 N   0  0  0  0  0  0  0  0  0  0  0  0
  143.6890  157.2410  132.9820 C   0  0  0  0  0  0  0  0  0  0  0  0
  142.8060  157.1630  132.0830 O   0  0  0  0  0  0  0  0  0  0  0  0
  144.0520  156.1040  133.7090 O   0  0  0  0  0  0  0  0  0  0  0  0
  143.6830  154.7870  133.3160 C   0  0  0  0  0  0  0  0  0  0  0  0
  142.1670  154.6290  133.4370 C   0  0  0  0  0  0  0  0  0  0  0  0
  141.6260  155.1910  134.7590 C   0  0  0  0  0  0  0  0  0  0  0  0
  140.7460  156.3390  134.5300 N   0  0  0  0  0  0  0  0  0  0  0  0
  140.1390  156.6660  133.3730 C   0  0  0  0  0  0  0  0  0  0  0  0
  139.3990  157.7910  133.4720 N   0  0  0  0  0  0  0  0  0  0  0  0
  139.5570  158.1850  134.7520 C   0  0  0  0  0  0  0  0  0  0  0  0
  140.3890  157.3010  135.4030 C   0  0  0  0  0  0  0  0  0  0  0  0
  140.7660  157.3490  136.8510 C   0  0  0  0  0  0  0  0  0  0  0  0
  145.6670  158.7350  133.2150 C   0  0  0  0  0  0  0  0  0  0  0  0
  146.7060  157.8410  132.9270 C   0  0  0  0  0  0  0  0  0  0  0  0
  149.6280  157.0416  133.5369 H   0  0  0  0  0  0  0  0  0  0  0  0
  148.7940  156.5599  132.0206 H   0  0  0  0  0  0  0  0  0  0  0  0
  149.9203  157.9592  132.0206 H   0  0  0  0  0  0  0  0  0  0  0  0
  149.3094  160.0777  133.2010 H   0  0  0  0  0  0  0  0  0  0  0  0
  147.3955  161.6404  133.6820 H   0  0  0  0  0  0  0  0  0  0  0  0
  144.5486  161.7548  133.8834 H   0  0  0  0  0  0  0  0  0  0  0  0
  141.6270  158.9770  131.9200 H   0  0  0  0  0  0  0  0  0  0  0  0
  140.3280  159.7010  132.9250 H   0  0  0  0  0  0  0  0  0  0  0  0
  143.9881  154.6158  132.2731 H   0  0  0  0  0  0  0  0  0  0  0  0
  144.1827  154.0548  133.9672 H   0  0  0  0  0  0  0  0  0  0  0  0
  141.6881  155.1633  132.6032 H   0  0  0  0  0  0  0  0  0  0  0  0
  141.9377  153.5535  133.4098 H   0  0  0  0  0  0  0  0  0  0  0  0
  141.0597  154.4035  135.2778 H   0  0  0  0  0  0  0  0  0  0  0  0
  142.4787  155.5240  135.3689 H   0  0  0  0  0  0  0  0  0  0  0  0
  140.2357  156.0798  132.4473 H   0  0  0  0  0  0  0  0  0  0  0  0
  139.0938  159.0737  135.2055 H   0  0  0  0  0  0  0  0  0  0  0  0
  139.8633  157.2341  137.4689 H   0  0  0  0  0  0  0  0  0  0  0  0
  141.4693  156.5332  137.0740 H   0  0  0  0  0  0  0  0  0  0  0  0
  141.2424  158.3151  137.0740 H   0  0  0  0  0  0  0  0  0  0  0  0
  146.4947  156.7869  132.6943 H   0  0  0  0  0  0  0  0  0  0  0  0
  1  2  1  0
  2  3  2  0
  3  4  1  0
  4  5  2  0
  5  6  1  0
  6  7  2  0
  7  8  1  0
  8  9  1  0
  8 10  2  0
  7 11  1  0
 11 12  1  0
 12 13  2  0
 12 14  1  0
 14 15  1  0
 15 16  1  0
 16 17  1  0
 17 18  1  0
 18 19  1  0
 19 20  2  0
 20 21  1  0
 21 22  2  0
 22 23  1  0
 11 24  1  0
 24 25  2  0
 25  2  1  0
 24  5  1  0
 22 18  1  0
  1 26  1  0
  1 27  1  0
  1 28  1  0
  3 29  1  0
  4 30  1  0
  6 31  1  0
  9 32  1  0
  9 33  1  0
 15 34  1  0
 15 35  1  0
 16 36  1  0
 16 37  1  0
 17 38  1  0
 17 39  1  0
 19 40  1  0
 21 41  1  0
 23 42  1  0
 23 43  1  0
 23 44  1  0
 25 45  1  0
M  END
>  <UniqueID>  (74) 
74

>  <SMILES>  (74) 
Cc1ccc2cc(C(N)=O)n(C(=O)OCCCn3cncc3C)c2c1

>  <Energy>  (74) 
106.26991158818427

>  <Genealogy>  (74) 
Cc1ccc2cc(C(N)=O)n(C(=O)OCCCn3cncc3C)c2c1 (3D coordinates assigned)
Cc1ccc2cc(C(N)=O)n(C(=O)OCCCn3cncc3C)c2c1 (optimized conformer: 106.26991158818427 kcal/mol)

>  <smiles>  (74) 
Cc1ccc2cc(C(N)=O)n(C(=O)OCCCn3cncc3C)c2c1

>  <score_type>  (74) 
oracle

>  <origin>  (74) 
adg

>  <m_score__min__energy>  (74) 
-7.9500000000000002

>  <m_primary>  (74) 
energy

$$$$
74:0
     RDKit          3D

 39 41  0  0  0  0  0  0  0  0999 V2000
  147.5310  154.8300  134.7350 C   0  0  0  0  0  0  0  0  0  0  0  0
  146.6240  155.7820  134.5260 C   0  0  0  0  0  0  0  0  0  0  0  0
  146.5660  156.5720  133.2820 C   0  0  0  0  0  0  0  0  0  0  0  0
  146.6410  155.9740  132.1760 O   0  0  0  0  0  0  0  0  0  0  0  0
  146.4260  158.0020  133.3010 N   0  0  0  0  0  0  0  0  0  0  0  0
  147.3330  158.9270  132.8800 C   0  0  0  0  0  0  0  0  0  0  0  0
  148.7120  158.6240  132.4320 C   0  0  0  0  0  0  0  0  0  0  0  0
  149.0390  157.3570  131.8570 N   0  0  0  0  0  0  0  0  0  0  0  0
  149.6160  159.4950  132.5430 O   0  0  0  0  0  0  0  0  0  0  0  0
  146.7950  160.2120  132.9770 C   0  0  0  0  0  0  0  0  0  0  0  0
  145.5180  160.0380  133.4620 C   0  0  0  0  0  0  0  0  0  0  0  0
  144.5230  160.9750  133.7280 C   0  0  0  0  0  0  0  0  0  0  0  0
  143.2830  160.5040  134.1890 C   0  0  0  0  0  0  0  0  0  0  0  0
  143.0600  159.1170  134.3780 C   0  0  0  0  0  0  0  0  0  0  0  0
  141.7120  158.6210  134.8230 C   0  0  0  0  0  0  0  0  0  0  0  0
  140.7280  158.7070  133.6880 C   0  0  0  0  0  0  0  0  0  0  0  0
  140.0700  157.5520  133.2330 C   0  0  0  0  0  0  0  0  0  0  0  0
  139.1280  157.6380  132.2030 C   0  0  0  0  0  0  0  0  0  0  0  0
  138.8300  158.8770  131.6260 C   0  0  0  0  0  0  0  0  0  0  0  0
  137.9140  158.9550  130.6300 F   0  0  0  0  0  0  0  0  0  0  0  0
  139.4720  160.0320  132.0840 C   0  0  0  0  0  0  0  0  0  0  0  0
  139.1780  161.2360  131.5310 F   0  0  0  0  0  0  0  0  0  0  0  0
  140.4150  159.9500  133.1130 C   0  0  0  0  0  0  0  0  0  0  0  0
  144.0900  158.1960  134.0860 C   0  0  0  0  0  0  0  0  0  0  0  0
  145.3190  158.6940  133.6440 C   0  0  0  0  0  0  0  0  0  0  0  0
  147.5315  154.2690  135.6812 H   0  0  0  0  0  0  0  0  0  0  0  0
  148.2799  154.6045  133.9615 H   0  0  0  0  0  0  0  0  0  0  0  0
  145.8860  155.9882  135.3152 H   0  0  0  0  0  0  0  0  0  0  0  0
  150.0090  157.1730  131.5150 H   0  0  0  0  0  0  0  0  0  0  0  0
  148.3420  156.5830  131.8060 H   0  0  0  0  0  0  0  0  0  0  0  0
  147.2870  161.1618  132.7204 H   0  0  0  0  0  0  0  0  0  0  0  0
  144.7026  162.0503  133.5816 H   0  0  0  0  0  0  0  0  0  0  0  0
  142.4759  161.2192  134.4058 H   0  0  0  0  0  0  0  0  0  0  0  0
  141.7994  157.5744  135.1500 H   0  0  0  0  0  0  0  0  0  0  0  0
  141.3560  159.2453  135.6558 H   0  0  0  0  0  0  0  0  0  0  0  0
  140.2966  156.5767  133.6885 H   0  0  0  0  0  0  0  0  0  0  0  0
  138.6205  156.7298  131.8459 H   0  0  0  0  0  0  0  0  0  0  0  0
  140.9135  160.8618  133.4736 H   0  0  0  0  0  0  0  0  0  0  0  0
  143.9292  157.1142  134.2034 H   0  0  0  0  0  0  0  0  0  0  0  0
  1  2  2  0
  2  3  1  0
  3  4  2  0
  3  5  1  0
  5  6  1  0
  6  7  1  0
  7  8  1  0
  7  9  2  0
  6 10  2  0
 10 11  1  0
 11 12  2  0
 12 13  1  0
 13 14  2  0
 14 15  1  0
 15 16  1  0
 16 17  2  0
 17 18  1  0
 18 19  2  0
 19 20  1  0
 19 21  1  0
 21 22  1  0
 21 23  2  0
 14 24  1  0
 24 25  2  0
 25  5  1  0
 25 11  1  0
 23 16  1  0
  1 26  1  0
  1 27  1  0
  2 28  1  0
  8 29  1  0
  8 30  1  0
 10 31  1  0
 12 32  1  0
 13 33  1  0
 15 34  1  0
 15 35  1  0
 17 36  1  0
 18 37  1  0
 23 38  1  0
 24 39  1  0
M  END
>  <UniqueID>  (75) 
75

>  <SMILES>  (75) 
C=CC(=O)n1c(C(N)=O)cc2ccc(Cc3ccc(F)c(F)c3)cc21

>  <Energy>  (75) 
78.24881838715757

>  <Genealogy>  (75) 
C=CC(=O)n1c(C(N)=O)cc2ccc(Cc3ccc(F)c(F)c3)cc21 (3D coordinates assigned)
C=CC(=O)n1c(C(N)=O)cc2ccc(Cc3ccc(F)c(F)c3)cc21 (optimized conformer: 78.24881838715757 kcal/mol)

>  <smiles>  (75) 
C=CC(=O)n1c(C(N)=O)cc2ccc(Cc3ccc(F)c(F)c3)cc21

>  <score_type>  (75) 
oracle

>  <origin>  (75) 
adg

>  <m_score__min__energy>  (75) 
-7.9699999999999998

>  <m_primary>  (75) 
energy

$$$$
75:0
     RDKit          3D

 42 44  0  0  0  0  0  0  0  0999 V2000
  140.8380  154.7630  133.6910 N   0  0  0  0  0  0  0  0  0  0  0  0
  142.1430  154.3760  133.1590 C   0  0  0  0  0  0  0  0  0  0  0  0
  143.1720  155.4880  133.3820 C   0  0  0  0  0  0  0  0  0  0  0  0
  142.8290  156.3010  134.5960 C   0  0  0  0  0  0  0  0  0  0  0  0
  142.6340  155.7200  135.6970 O   0  0  0  0  0  0  0  0  0  0  0  0
  142.6210  157.7180  134.4930 N   0  0  0  0  0  0  0  0  0  0  0  0
  141.5560  158.4440  134.9320 C   0  0  0  0  0  0  0  0  0  0  0  0
  140.2930  157.8950  135.4700 C   0  0  0  0  0  0  0  0  0  0  0  0
  139.5060  158.6250  136.4130 N   0  0  0  0  0  0  0  0  0  0  0  0
  139.9220  156.7430  135.1200 O   0  0  0  0  0  0  0  0  0  0  0  0
  141.8000  159.8080  134.7840 C   0  0  0  0  0  0  0  0  0  0  0  0
  143.0560  159.8940  134.2260 C   0  0  0  0  0  0  0  0  0  0  0  0
  143.8130  161.0100  133.8830 C   0  0  0  0  0  0  0  0  0  0  0  0
  145.1020  160.7990  133.3660 C   0  0  0  0  0  0  0  0  0  0  0  0
  145.6160  159.4840  133.2060 C   0  0  0  0  0  0  0  0  0  0  0  0
  146.9870  159.2720  132.6780 C   0  0  0  0  0  0  0  0  0  0  0  0
  147.7330  158.1410  133.0560 C   0  0  0  0  0  0  0  0  0  0  0  0
  149.0220  157.9440  132.5590 C   0  0  0  0  0  0  0  0  0  0  0  0
  149.5850  158.8710  131.6790 C   0  0  0  0  0  0  0  0  0  0  0  0
  148.8590  160.0030  131.2910 C   0  0  0  0  0  0  0  0  0  0  0  0
  149.4330  160.9510  130.3870 N   0  0  0  0  0  0  0  0  0  0  0  0
  147.5630  160.2020  131.7910 C   0  0  0  0  0  0  0  0  0  0  0  0
  144.8120  158.3760  133.5650 C   0  0  0  0  0  0  0  0  0  0  0  0
  143.5280  158.6190  134.0620 C   0  0  0  0  0  0  0  0  0  0  0  0
  140.9170  154.8410  134.7310 H   0  0  0  0  0  0  0  0  0  0  0  0
  140.6200  155.7220  133.3360 H   0  0  0  0  0  0  0  0  0  0  0  0
  142.4834  153.4621  133.6679 H   0  0  0  0  0  0  0  0  0  0  0  0
  142.0446  154.1979  132.0780 H   0  0  0  0  0  0  0  0  0  0  0  0
  144.1656  155.0366  133.5201 H   0  0  0  0  0  0  0  0  0  0  0  0
  143.1689  156.1503  132.5037 H   0  0  0  0  0  0  0  0  0  0  0  0
  138.5880  158.2430  136.7330 H   0  0  0  0  0  0  0  0  0  0  0  0
  139.8690  159.4910  136.8680 H   0  0  0  0  0  0  0  0  0  0  0  0
  141.1319  160.6387  135.0551 H   0  0  0  0  0  0  0  0  0  0  0  0
  143.4141  162.0269  134.0128 H   0  0  0  0  0  0  0  0  0  0  0  0
  145.7212  161.6625  133.0815 H   0  0  0  0  0  0  0  0  0  0  0  0
  147.2969  157.4062  133.7487 H   0  0  0  0  0  0  0  0  0  0  0  0
  149.5964  157.0559  132.8612 H   0  0  0  0  0  0  0  0  0  0  0  0
  150.6014  158.7111  131.2899 H   0  0  0  0  0  0  0  0  0  0  0  0
  148.8700  161.3550  129.6060 H   0  0  0  0  0  0  0  0  0  0  0  0
  150.4270  161.2560  130.4910 H   0  0  0  0  0  0  0  0  0  0  0  0
  146.9921  161.0920  131.4876 H   0  0  0  0  0  0  0  0  0  0  0  0
  145.1883  157.3482  133.4556 H   0  0  0  0  0  0  0  0  0  0  0  0
  1  2  1  0
  2  3  1  0
  3  4  1  0
  4  5  2  0
  4  6  1  0
  6  7  1  0
  7  8  1  0
  8  9  1  0
  8 10  2  0
  7 11  2  0
 11 12  1  0
 12 13  2  0
 13 14  1  0
 14 15  2  0
 15 16  1  0
 16 17  2  0
 17 18  1  0
 18 19  2  0
 19 20  1  0
 20 21  1  0
 20 22  2  0
 15 23  1  0
 23 24  2  0
 24  6  1  0
 24 12  1  0
 22 16  1  0
  1 25  1  0
  1 26  1  0
  2 27  1  0
  2 28  1  0
  3 29  1  0
  3 30  1  0
  9 31  1  0
  9 32  1  0
 11 33  1  0
 13 34  1  0
 14 35  1  0
 17 36  1  0
 18 37  1  0
 19 38  1  0
 21 39  1  0
 21 40  1  0
 22 41  1  0
 23 42  1  0
M  END
>  <UniqueID>  (76) 
76

>  <SMILES>  (76) 
NCCC(=O)n1c(C(N)=O)cc2ccc(-c3cccc(N)c3)cc21

>  <Energy>  (76) 
84.12599589928874

>  <Genealogy>  (76) 
NCCC(=O)n1c(C(N)=O)cc2ccc(-c3cccc(N)c3)cc21 (3D coordinates assigned)
NCCC(=O)n1c(C(N)=O)cc2ccc(-c3cccc(N)c3)cc21 (optimized conformer: 84.12599589928874 kcal/mol)

>  <smiles>  (76) 
NCCC(=O)n1c(C(N)=O)cc2ccc(-c3cccc(N)c3)cc21

>  <score_type>  (76) 
oracle

>  <origin>  (76) 
adg

>  <m_score__min__energy>  (76) 
-8.3599999999999994

>  <m_primary>  (76) 
energy

$$$$
76:0
     RDKit          3D

 38 40  0  0  0  0  0  0  0  0999 V2000
  141.2530  159.3580  136.7190 N   0  0  0  0  0  0  0  0  0  0  0  0
  141.6820  158.9420  135.7270 C   0  0  0  0  0  0  0  0  0  0  0  0
  142.2300  158.4150  134.4650 C   0  0  0  0  0  0  0  0  0  0  0  0
  143.5820  159.0080  134.1200 C   0  0  0  0  0  0  0  0  0  0  0  0
  143.7620  160.4180  134.0930 C   0  0  0  0  0  0  0  0  0  0  0  0
  144.9940  160.9800  133.7140 C   0  0  0  0  0  0  0  0  0  0  0  0
  146.0140  160.1170  133.3320 C   0  0  0  0  0  0  0  0  0  0  0  0
  147.3040  160.3870  132.9300 C   0  0  0  0  0  0  0  0  0  0  0  0
  147.8760  159.1440  132.6650 C   0  0  0  0  0  0  0  0  0  0  0  0
  149.2590  158.9610  132.1760 C   0  0  0  0  0  0  0  0  0  0  0  0
  149.7870  157.6590  131.9310 N   0  0  0  0  0  0  0  0  0  0  0  0
  149.9810  159.9700  131.9530 O   0  0  0  0  0  0  0  0  0  0  0  0
  146.9710  158.1500  132.8820 N   0  0  0  0  0  0  0  0  0  0  0  0
  147.1820  156.7340  132.7930 C   0  0  0  0  0  0  0  0  0  0  0  0
  147.0100  156.1480  131.6920 O   0  0  0  0  0  0  0  0  0  0  0  0
  147.5970  155.9730  133.9330 N   0  0  0  0  0  0  0  0  0  0  0  0
  147.6100  154.5140  134.0000 C   0  0  0  0  0  0  0  0  0  0  0  0
  148.5620  153.9260  132.9600 C   0  0  0  0  0  0  0  0  0  0  0  0
  149.5250  154.8780  132.6010 O   0  0  0  0  0  0  0  0  0  0  0  0
  145.8430  158.7600  133.3000 C   0  0  0  0  0  0  0  0  0  0  0  0
  144.6370  158.1690  133.6890 C   0  0  0  0  0  0  0  0  0  0  0  0
  141.2110  158.3840  133.3360 C   0  0  0  0  0  0  0  0  0  0  0  0
  141.1580  156.9770  133.3240 O   0  0  0  0  0  0  0  0  0  0  0  0
  142.1200  156.9010  134.3490 C   0  0  0  0  0  0  0  0  0  0  0  0
  142.9271  161.0776  134.3721 H   0  0  0  0  0  0  0  0  0  0  0  0
  145.1457  162.0695  133.7197 H   0  0  0  0  0  0  0  0  0  0  0  0
  147.7810  161.3739  132.8378 H   0  0  0  0  0  0  0  0  0  0  0  0
  149.1550  156.8410  131.7880 H   0  0  0  0  0  0  0  0  0  0  0  0
  147.9368  154.2030  135.0032 H   0  0  0  0  0  0  0  0  0  0  0  0
  146.5946  154.1449  133.7935 H   0  0  0  0  0  0  0  0  0  0  0  0
  149.0628  153.0425  133.3826 H   0  0  0  0  0  0  0  0  0  0  0  0
  147.9883  153.6375  132.0669 H   0  0  0  0  0  0  0  0  0  0  0  0
  149.0210  155.6820  132.3120 H   0  0  0  0  0  0  0  0  0  0  0  0
  144.5111  157.0766  133.6606 H   0  0  0  0  0  0  0  0  0  0  0  0
  140.2526  158.8555  133.5989 H   0  0  0  0  0  0  0  0  0  0  0  0
  141.4411  158.9137  132.3998 H   0  0  0  0  0  0  0  0  0  0  0  0
  141.7468  156.4181  135.2642 H   0  0  0  0  0  0  0  0  0  0  0  0
  143.0344  156.3146  134.1757 H   0  0  0  0  0  0  0  0  0  0  0  0
  1  2  3  0
  2  3  1  0
  3  4  1  0
  4  5  2  0
  5  6  1  0
  6  7  2  0
  7  8  1  0
  8  9  2  0
  9 10  1  0
 10 11  1  0
 10 12  2  0
  9 13  1  0
 13 14  1  0
 14 15  2  0
 14 16  1  0
 16 17  1  0
 17 18  1  0
 18 19  1  0
 13 20  1  0
 20 21  2  0
  3 22  1  0
 22 23  1  0
 23 24  1  0
 24  3  1  0
 21  4  1  0
 20  7  1  0
  5 25  1  0
  6 26  1  0
  8 27  1  0
 11 28  1  0
 17 29  1  0
 17 30  1  0
 18 31  1  0
 18 32  1  0
 19 33  1  0
 21 34  1  0
 22 35  1  0
 22 36  1  0
 24 37  1  0
 24 38  1  0
M  CHG  2  11  -1  16  -1
M  END
>  <UniqueID>  (77) 
77

>  <SMILES>  (77) 
N#CC1(c2ccc3cc(C([NH-])=O)n(C(=O)[N-]CCO)c3c2)COC1

>  <Energy>  (77) 
140.49517491617627

>  <Genealogy>  (77) 
N#CC1(c2ccc3cc(C([NH-])=O)n(C(=O)[N-]CCO)c3c2)COC1 (protonated)
N#CC1(c2ccc3cc(C([NH-])=O)n(C(=O)[N-]CCO)c3c2)COC1 (3D coordinates assigned)
N#CC1(c2ccc3cc(C([NH-])=O)n(C(=O)[N-]CCO)c3c2)COC1 (nonaromatic ring conformer: 140.49517491617627 kcal/mol)

>  <smiles>  (77) 
N#CC1(c2ccc3cc(C(N)=O)n(C(=O)NCCO)c3c2)COC1

>  <score_type>  (77) 
oracle

>  <origin>  (77) 
adg

>  <m_score__min__energy>  (77) 
-6.2300000000000004

>  <m_primary>  (77) 
energy

$$$$
77:0
     RDKit          3D

 32 33  0  0  0  0  0  0  0  0999 V2000
  150.3400  150.7270  131.8580 C   0  0  0  0  0  0  0  0  0  0  0  0
  149.5240  151.7830  131.8960 C   0  0  0  0  0  0  0  0  0  0  0  0
  148.9000  152.2430  133.1830 C   0  0  0  0  0  0  0  0  0  0  0  0
  148.1480  153.4370  132.9810 O   0  0  0  0  0  0  0  0  0  0  0  0
  148.7220  154.7150  132.9770 C   0  0  0  0  0  0  0  0  0  0  0  0
  149.9050  154.8800  132.5730 O   0  0  0  0  0  0  0  0  0  0  0  0
  147.9650  155.8360  133.4550 N   0  0  0  0  0  0  0  0  0  0  0  0
  146.9090  155.8280  134.3190 C   0  0  0  0  0  0  0  0  0  0  0  0
  146.4160  154.6580  135.0760 C   0  0  0  0  0  0  0  0  0  0  0  0
  147.3230  153.7230  135.6540 N   0  0  0  0  0  0  0  0  0  0  0  0
  145.1780  154.5090  135.2570 O   0  0  0  0  0  0  0  0  0  0  0  0
  146.3900  157.1120  134.4670 C   0  0  0  0  0  0  0  0  0  0  0  0
  147.1720  157.9160  133.6710 C   0  0  0  0  0  0  0  0  0  0  0  0
  147.0960  159.2860  133.4330 C   0  0  0  0  0  0  0  0  0  0  0  0
  148.0220  159.8500  132.5390 C   0  0  0  0  0  0  0  0  0  0  0  0
  148.9930  159.0420  131.8980 C   0  0  0  0  0  0  0  0  0  0  0  0
  149.9610  159.6650  130.9330 C   0  0  0  0  0  0  0  0  0  0  0  0
  149.9450  161.0400  131.0770 F   0  0  0  0  0  0  0  0  0  0  0  0
  149.6030  159.3360  129.6380 F   0  0  0  0  0  0  0  0  0  0  0  0
  149.0380  157.6550  132.1630 C   0  0  0  0  0  0  0  0  0  0  0  0
  148.1160  157.1220  133.0710 C   0  0  0  0  0  0  0  0  0  0  0  0
  150.7847  150.4096  130.9033 H   0  0  0  0  0  0  0  0  0  0  0  0
  150.5676  150.1743  132.7814 H   0  0  0  0  0  0  0  0  0  0  0  0
  149.3040  152.3275  130.9659 H   0  0  0  0  0  0  0  0  0  0  0  0
  148.2319  151.4555  133.5619 H   0  0  0  0  0  0  0  0  0  0  0  0
  149.6998  152.4480  133.9098 H   0  0  0  0  0  0  0  0  0  0  0  0
  147.7720  152.9800  135.0740 H   0  0  0  0  0  0  0  0  0  0  0  0
  145.5357  157.4181  135.0887 H   0  0  0  0  0  0  0  0  0  0  0  0
  146.3354  159.9069  133.9290 H   0  0  0  0  0  0  0  0  0  0  0  0
  147.9925  160.9305  132.3348 H   0  0  0  0  0  0  0  0  0  0  0  0
  150.9725  159.2869  131.1427 H   0  0  0  0  0  0  0  0  0  0  0  0
  149.7791  157.0102  131.6681 H   0  0  0  0  0  0  0  0  0  0  0  0
  1  2  2  0
  2  3  1  0
  3  4  1  0
  4  5  1  0
  5  6  2  0
  5  7  1  0
  7  8  1  0
  8  9  1  0
  9 10  1  0
  9 11  2  0
  8 12  2  0
 12 13  1  0
 13 14  2  0
 14 15  1  0
 15 16  2  0
 16 17  1  0
 17 18  1  0
 17 19  1  0
 16 20  1  0
 20 21  2  0
 21  7  1  0
 21 13  1  0
  1 22  1  0
  1 23  1  0
  2 24  1  0
  3 25  1  0
  3 26  1  0
 10 27  1  0
 12 28  1  0
 14 29  1  0
 15 30  1  0
 17 31  1  0
 20 32  1  0
M  CHG  1  10  -1
M  END
>  <UniqueID>  (78) 
78

>  <SMILES>  (78) 
C=CCOC(=O)n1c(C([NH-])=O)cc2ccc(C(F)F)cc21

>  <Energy>  (78) 
66.72402089087234

>  <Genealogy>  (78) 
C=CCOC(=O)n1c(C([NH-])=O)cc2ccc(C(F)F)cc21 (protonated)
C=CCOC(=O)n1c(C([NH-])=O)cc2ccc(C(F)F)cc21 (3D coordinates assigned)
C=CCOC(=O)n1c(C([NH-])=O)cc2ccc(C(F)F)cc21 (optimized conformer: 66.72402089087234 kcal/mol)

>  <smiles>  (78) 
C=CCOC(=O)n1c(C(N)=O)cc2ccc(C(F)F)cc21

>  <score_type>  (78) 
oracle

>  <origin>  (78) 
adg

>  <m_score__min__energy>  (78) 
-5.7400000000000002

>  <m_primary>  (78) 
energy

$$$$
78:0
     RDKit          3D

 46 48  0  0  0  0  0  0  0  0999 V2000
  149.6050  151.0920  134.1770 C   0  0  0  0  0  0  0  0  0  0  0  0
  149.1170  150.9180  132.4720 S   0  0  0  0  0  0  0  0  0  0  0  0
  150.3440  151.0520  131.6130 O   0  0  0  0  0  0  0  0  0  0  0  0
  148.5120  149.5570  132.2590 O   0  0  0  0  0  0  0  0  0  0  0  0
  147.9600  152.1600  132.0530 N   0  0  0  0  0  0  0  0  0  0  0  0
  148.3580  153.4790  132.6150 C   0  0  0  0  0  0  0  0  0  0  0  0
  147.3300  154.0920  133.5810 C   0  0  0  0  0  0  0  0  0  0  0  0
  145.9830  154.0360  132.9970 N   0  0  0  0  0  0  0  0  0  0  0  0
  145.0070  155.0590  133.2920 C   0  0  0  0  0  0  0  0  0  0  0  0
  145.4190  156.3770  133.6280 C   0  0  0  0  0  0  0  0  0  0  0  0
  144.4750  157.3770  133.9170 C   0  0  0  0  0  0  0  0  0  0  0  0
  143.1280  157.0360  133.8690 C   0  0  0  0  0  0  0  0  0  0  0  0
  142.0090  157.8060  134.0920 C   0  0  0  0  0  0  0  0  0  0  0  0
  140.9270  156.9460  133.9080 C   0  0  0  0  0  0  0  0  0  0  0  0
  139.5180  157.3260  134.1440 C   0  0  0  0  0  0  0  0  0  0  0  0
  138.5250  157.1130  133.1380 N   0  0  0  0  0  0  0  0  0  0  0  0
  139.1860  157.8740  135.2290 O   0  0  0  0  0  0  0  0  0  0  0  0
  141.3630  155.6980  133.5790 N   0  0  0  0  0  0  0  0  0  0  0  0
  140.5770  154.5400  133.2480 C   0  0  0  0  0  0  0  0  0  0  0  0
  139.4840  154.6840  132.6390 O   0  0  0  0  0  0  0  0  0  0  0  0
  141.0210  153.1570  133.6300 C   0  0  0  0  0  0  0  0  0  0  0  0
  140.6210  152.2310  132.6590 O   0  0  0  0  0  0  0  0  0  0  0  0
  142.7100  155.7680  133.5640 C   0  0  0  0  0  0  0  0  0  0  0  0
  143.6240  154.7550  133.2600 C   0  0  0  0  0  0  0  0  0  0  0  0
  145.5890  152.8450  132.2330 C   0  0  0  0  0  0  0  0  0  0  0  0
  146.6040  151.7170  132.4280 C   0  0  0  0  0  0  0  0  0  0  0  0
  148.7707  150.7945  134.8293 H   0  0  0  0  0  0  0  0  0  0  0  0
  150.4744  150.4484  134.3771 H   0  0  0  0  0  0  0  0  0  0  0  0
  149.8711  152.1404  134.3771 H   0  0  0  0  0  0  0  0  0  0  0  0
  149.3063  153.3503  133.1574 H   0  0  0  0  0  0  0  0  0  0  0  0
  148.4424  154.1712  131.7643 H   0  0  0  0  0  0  0  0  0  0  0  0
  147.3393  153.5287  134.5258 H   0  0  0  0  0  0  0  0  0  0  0  0
  147.5959  155.1433  133.7657 H   0  0  0  0  0  0  0  0  0  0  0  0
  146.4918  156.6177  133.6623 H   0  0  0  0  0  0  0  0  0  0  0  0
  144.7922  158.3986  134.1734 H   0  0  0  0  0  0  0  0  0  0  0  0
  141.9755  158.8727  134.3586 H   0  0  0  0  0  0  0  0  0  0  0  0
  137.5380  157.4120  133.3060 H   0  0  0  0  0  0  0  0  0  0  0  0
  138.7520  156.6180  132.2490 H   0  0  0  0  0  0  0  0  0  0  0  0
  142.1173  153.1395  133.7179 H   0  0  0  0  0  0  0  0  0  0  0  0
  140.5607  152.8871  134.5919 H   0  0  0  0  0  0  0  0  0  0  0  0
  140.1560  152.7530  131.9560 H   0  0  0  0  0  0  0  0  0  0  0  0
  143.2767  153.7438  133.0015 H   0  0  0  0  0  0  0  0  0  0  0  0
  144.6012  152.5054  132.5777 H   0  0  0  0  0  0  0  0  0  0  0  0
  145.5516  153.1063  131.1651 H   0  0  0  0  0  0  0  0  0  0  0  0
  146.6042  151.4110  133.4846 H   0  0  0  0  0  0  0  0  0  0  0  0
  146.3191  150.8720  131.7840 H   0  0  0  0  0  0  0  0  0  0  0  0
  1  2  1  0
  2  3  2  0
  2  4  2  0
  2  5  1  0
  5  6  1  0
  6  7  1  0
  7  8  1  0
  8  9  1  0
  9 10  2  0
 10 11  1  0
 11 12  2  0
 12 13  1  0
 13 14  2  0
 14 15  1  0
 15 16  1  0
 15 17  2  0
 14 18  1  0
 18 19  1  0
 19 20  2  0
 19 21  1  0
 21 22  1  0
 18 23  1  0
 23 24  2  0
  8 25  1  0
 25 26  1  0
 26  5  1  0
 24  9  1  0
 23 12  1  0
  1 27  1  0
  1 28  1  0
  1 29  1  0
  6 30  1  0
  6 31  1  0
  7 32  1  0
  7 33  1  0
 10 34  1  0
 11 35  1  0
 13 36  1  0
 16 37  1  0
 16 38  1  0
 21 39  1  0
 21 40  1  0
 22 41  1  0
 24 42  1  0
 25 43  1  0
 25 44  1  0
 26 45  1  0
 26 46  1  0
M  END
>  <UniqueID>  (79) 
79

>  <SMILES>  (79) 
CS(=O)(=O)N1CCN(c2ccc3cc(C(N)=O)n(C(=O)CO)c3c2)CC1

>  <Energy>  (79) 
90.12213776764541

>  <Genealogy>  (79) 
CS(=O)(=O)N1CCN(c2ccc3cc(C(N)=O)n(C(=O)CO)c3c2)CC1 (3D coordinates assigned)
CS(=O)(=O)N1CCN(c2ccc3cc(C(N)=O)n(C(=O)CO)c3c2)CC1 (nonaromatic ring conformer: 90.12213776764541 kcal/mol)

>  <smiles>  (79) 
CS(=O)(=O)N1CCN(c2ccc3cc(C(N)=O)n(C(=O)CO)c3c2)CC1

>  <score_type>  (79) 
oracle

>  <origin>  (79) 
adg

>  <m_score__min__energy>  (79) 
-7.8700000000000001

>  <m_primary>  (79) 
energy

$$$$
79:0
     RDKit          3D

 42 43  0  0  0  0  0  0  0  0999 V2000
  140.6890  148.7090  131.8920 C   0  0  0  0  0  0  0  0  0  0  0  0
  139.4230  149.5100  131.5470 C   0  0  0  0  0  0  0  0  0  0  0  0
  139.1360  149.4340  130.0480 C   0  0  0  0  0  0  0  0  0  0  0  0
  139.5560  150.9250  131.9420 N   0  0  0  0  0  0  0  0  0  0  0  0
  140.7680  151.1870  132.7400 C   0  0  0  0  0  0  0  0  0  0  0  0
  141.3710  152.5400  132.3540 C   0  0  0  0  0  0  0  0  0  0  0  0
  141.6200  153.3990  133.5670 C   0  0  0  0  0  0  0  0  0  0  0  0
  142.4340  152.9170  134.6210 C   0  0  0  0  0  0  0  0  0  0  0  0
  142.6470  153.6930  135.7720 C   0  0  0  0  0  0  0  0  0  0  0  0
  142.0270  154.9370  135.8440 C   0  0  0  0  0  0  0  0  0  0  0  0
  142.1090  155.9090  136.8150 C   0  0  0  0  0  0  0  0  0  0  0  0
  141.3260  156.9610  136.3460 C   0  0  0  0  0  0  0  0  0  0  0  0
  141.1360  158.2290  137.0830 C   0  0  0  0  0  0  0  0  0  0  0  0
  139.9310  158.9860  136.9610 N   0  0  0  0  0  0  0  0  0  0  0  0
  142.0370  158.6280  137.8680 O   0  0  0  0  0  0  0  0  0  0  0  0
  140.7780  156.6550  135.1380 N   0  0  0  0  0  0  0  0  0  0  0  0
  140.0630  157.5460  134.2660 C   0  0  0  0  0  0  0  0  0  0  0  0
  138.8490  157.7950  134.4970 O   0  0  0  0  0  0  0  0  0  0  0  0
  140.7170  158.1660  133.0670 C   0  0  0  0  0  0  0  0  0  0  0  0
  141.8970  157.5120  132.7610 F   0  0  0  0  0  0  0  0  0  0  0  0
  140.9830  159.4990  133.3200 F   0  0  0  0  0  0  0  0  0  0  0  0
  139.8670  158.0760  131.9810 F   0  0  0  0  0  0  0  0  0  0  0  0
  141.2220  155.4120  134.8400 C   0  0  0  0  0  0  0  0  0  0  0  0
  141.0080  154.6680  133.6750 C   0  0  0  0  0  0  0  0  0  0  0  0
  140.7943  148.6424  132.9849 H   0  0  0  0  0  0  0  0  0  0  0  0
  140.6091  147.6967  131.4690 H   0  0  0  0  0  0  0  0  0  0  0  0
  141.5695  149.2147  131.4690 H   0  0  0  0  0  0  0  0  0  0  0  0
  138.5891  149.0636  132.1085 H   0  0  0  0  0  0  0  0  0  0  0  0
  138.0837  149.1554  129.8898 H   0  0  0  0  0  0  0  0  0  0  0  0
  139.3290  150.4142  129.5876 H   0  0  0  0  0  0  0  0  0  0  0  0
  139.7887  148.6777  129.5876 H   0  0  0  0  0  0  0  0  0  0  0  0
  139.5550  151.5370  131.0920 H   0  0  0  0  0  0  0  0  0  0  0  0
  140.5049  151.1975  133.8080 H   0  0  0  0  0  0  0  0  0  0  0  0
  141.5060  150.3953  132.5436 H   0  0  0  0  0  0  0  0  0  0  0  0
  142.3253  152.3708  131.8336 H   0  0  0  0  0  0  0  0  0  0  0  0
  140.6567  153.0629  131.7010 H   0  0  0  0  0  0  0  0  0  0  0  0
  142.9037  151.9258  134.5373 H   0  0  0  0  0  0  0  0  0  0  0  0
  143.2842  153.3288  136.5914 H   0  0  0  0  0  0  0  0  0  0  0  0
  142.6721  155.8645  137.7589 H   0  0  0  0  0  0  0  0  0  0  0  0
  139.8410  159.9070  137.4450 H   0  0  0  0  0  0  0  0  0  0  0  0
  139.0920  158.5940  136.4800 H   0  0  0  0  0  0  0  0  0  0  0  0
  140.3788  155.0611  132.8629 H   0  0  0  0  0  0  0  0  0  0  0  0
  1  2  1  0
  2  3  1  0
  2  4  1  0
  4  5  1  0
  5  6  1  0
  6  7  1  0
  7  8  2  0
  8  9  1  0
  9 10  2  0
 10 11  1  0
 11 12  2  0
 12 13  1  0
 13 14  1  0
 13 15  2  0
 12 16  1  0
 16 17  1  0
 17 18  2  0
 17 19  1  0
 19 20  1  0
 19 21  1  0
 19 22  1  0
 16 23  1  0
 23 24  2  0
 24  7  1  0
 23 10  1  0
  1 25  1  0
  1 26  1  0
  1 27  1  0
  2 28  1  0
  3 29  1  0
  3 30  1  0
  3 31  1  0
  4 32  1  0
  5 33  1  0
  5 34  1  0
  6 35  1  0
  6 36  1  0
  8 37  1  0
  9 38  1  0
 11 39  1  0
 14 40  1  0
 14 41  1  0
 24 42  1  0
M  END
>  <UniqueID>  (80) 
80

>  <SMILES>  (80) 
CC(C)NCCc1ccc2cc(C(N)=O)n(C(=O)C(F)(F)F)c2c1

>  <Energy>  (80) 
75.75741016535709

>  <Genealogy>  (80) 
CC(C)NCCc1ccc2cc(C(N)=O)n(C(=O)C(F)(F)F)c2c1 (3D coordinates assigned)
CC(C)NCCc1ccc2cc(C(N)=O)n(C(=O)C(F)(F)F)c2c1 (optimized conformer: 75.75741016535709 kcal/mol)

>  <smiles>  (80) 
CC(C)NCCc1ccc2cc(C(N)=O)n(C(=O)C(F)(F)F)c2c1

>  <score_type>  (80) 
oracle

>  <origin>  (80) 
adg

>  <m_score__min__energy>  (80) 
-7.3200000000000003

>  <m_primary>  (80) 
energy

$$$$
80:0
     RDKit          3D

 56 57  0  0  0  0  0  0  0  0999 V2000
  141.0360  157.8550  137.4060 C   0  0  0  0  0  0  0  0  0  0  0  0
  141.0470  156.4230  137.0600 N   0  0  0  0  0  0  0  0  0  0  0  0
  140.6390  155.6330  138.2370 C   0  0  0  0  0  0  0  0  0  0  0  0
  142.3920  156.0240  136.5940 C   0  0  0  0  0  0  0  0  0  0  0  0
  142.3190  154.7550  135.7370 C   0  0  0  0  0  0  0  0  0  0  0  0
  142.3890  155.0830  134.3500 O   0  0  0  0  0  0  0  0  0  0  0  0
  141.4660  155.9190  133.7080 C   0  0  0  0  0  0  0  0  0  0  0  0
  140.5440  155.4240  133.0030 O   0  0  0  0  0  0  0  0  0  0  0  0
  141.5550  157.3430  133.8770 N   0  0  0  0  0  0  0  0  0  0  0  0
  140.5290  158.2190  134.0790 C   0  0  0  0  0  0  0  0  0  0  0  0
  139.1180  157.8470  134.3250 C   0  0  0  0  0  0  0  0  0  0  0  0
  138.3880  157.0780  133.3660 N   0  0  0  0  0  0  0  0  0  0  0  0
  138.5360  158.2320  135.3730 O   0  0  0  0  0  0  0  0  0  0  0  0
  141.0050  159.5270  134.1220 C   0  0  0  0  0  0  0  0  0  0  0  0
  142.3650  159.4250  133.9410 C   0  0  0  0  0  0  0  0  0  0  0  0
  143.3350  160.4200  133.8890 C   0  0  0  0  0  0  0  0  0  0  0  0
  144.6660  160.0310  133.6680 C   0  0  0  0  0  0  0  0  0  0  0  0
  145.0140  158.6620  133.4970 C   0  0  0  0  0  0  0  0  0  0  0  0
  146.3960  158.2780  133.2730 N   0  0  0  0  0  0  0  0  0  0  0  0
  146.7190  156.8800  132.9590 C   0  0  0  0  0  0  0  0  0  0  0  0
  147.4890  159.2650  133.3440 C   0  0  0  0  0  0  0  0  0  0  0  0
  147.5850  160.0870  132.0550 C   0  0  0  0  0  0  0  0  0  0  0  0
  148.6020  159.4910  131.1570 N   0  0  0  0  0  0  0  0  0  0  0  0
  149.2780  160.5190  130.3500 C   0  0  0  0  0  0  0  0  0  0  0  0
  149.5960  158.7130  131.9150 C   0  0  0  0  0  0  0  0  0  0  0  0
  143.9870  157.6850  133.5520 C   0  0  0  0  0  0  0  0  0  0  0  0
  142.6730  158.0990  133.7950 C   0  0  0  0  0  0  0  0  0  0  0  0
  141.0351  157.9678  138.5002 H   0  0  0  0  0  0  0  0  0  0  0  0
  141.9304  158.3401  136.9881 H   0  0  0  0  0  0  0  0  0  0  0  0
  140.1342  158.3263  136.9881 H   0  0  0  0  0  0  0  0  0  0  0  0
  140.9173  156.1719  139.1547 H   0  0  0  0  0  0  0  0  0  0  0  0
  139.5497  155.4811  138.2170 H   0  0  0  0  0  0  0  0  0  0  0  0
  141.1457  154.6569  138.2170 H   0  0  0  0  0  0  0  0  0  0  0  0
  142.8221  156.8396  135.9942 H   0  0  0  0  0  0  0  0  0  0  0  0
  143.0223  155.8197  137.4721 H   0  0  0  0  0  0  0  0  0  0  0  0
  143.1600  154.0949  135.9956 H   0  0  0  0  0  0  0  0  0  0  0  0
  141.3633  154.2473  135.9344 H   0  0  0  0  0  0  0  0  0  0  0  0
  137.3810  156.8550  133.5320 H   0  0  0  0  0  0  0  0  0  0  0  0
  138.8470  156.7010  132.5090 H   0  0  0  0  0  0  0  0  0  0  0  0
  140.4186  160.4459  134.2693 H   0  0  0  0  0  0  0  0  0  0  0  0
  143.0678  161.4793  134.0171 H   0  0  0  0  0  0  0  0  0  0  0  0
  145.4534  160.7980  133.6263 H   0  0  0  0  0  0  0  0  0  0  0  0
  146.8495  156.3150  133.8937 H   0  0  0  0  0  0  0  0  0  0  0  0
  145.8996  156.4368  132.3741 H   0  0  0  0  0  0  0  0  0  0  0  0
  147.6498  156.8412  132.3741 H   0  0  0  0  0  0  0  0  0  0  0  0
  147.3031  159.9446  134.1887 H   0  0  0  0  0  0  0  0  0  0  0  0
  148.4364  158.7229  133.4800 H   0  0  0  0  0  0  0  0  0  0  0  0
  146.6079  160.0901  131.5497 H   0  0  0  0  0  0  0  0  0  0  0  0
  147.8767  161.1185  132.3017 H   0  0  0  0  0  0  0  0  0  0  0  0
  149.7590  161.2504  131.0161 H   0  0  0  0  0  0  0  0  0  0  0  0
  150.0406  160.0441  129.7153 H   0  0  0  0  0  0  0  0  0  0  0  0
  148.5398  161.0310  129.7153 H   0  0  0  0  0  0  0  0  0  0  0  0
  149.4231  158.8483  132.9929 H   0  0  0  0  0  0  0  0  0  0  0  0
  149.5002  157.6474  131.6592 H   0  0  0  0  0  0  0  0  0  0  0  0
  150.6073  159.0620  131.6592 H   0  0  0  0  0  0  0  0  0  0  0  0
  144.2199  156.6199  133.4061 H   0  0  0  0  0  0  0  0  0  0  0  0
  1  2  1  0
  2  3  1  0
  2  4  1  0
  4  5  1  0
  5  6  1  0
  6  7  1  0
  7  8  2  0
  7  9  1  0
  9 10  1  0
 10 11  1  0
 11 12  1  0
 11 13  2  0
 10 14  2  0
 14 15  1  0
 15 16  2  0
 16 17  1  0
 17 18  2  0
 18 19  1  0
 19 20  1  0
 19 21  1  0
 21 22  1  0
 22 23  1  0
 23 24  1  0
 23 25  1  0
 18 26  1  0
 26 27  2  0
 27  9  1  0
 27 15  1  0
  1 28  1  0
  1 29  1  0
  1 30  1  0
  3 31  1  0
  3 32  1  0
  3 33  1  0
  4 34  1  0
  4 35  1  0
  5 36  1  0
  5 37  1  0
 12 38  1  0
 12 39  1  0
 14 40  1  0
 16 41  1  0
 17 42  1  0
 20 43  1  0
 20 44  1  0
 20 45  1  0
 21 46  1  0
 21 47  1  0
 22 48  1  0
 22 49  1  0
 24 50  1  0
 24 51  1  0
 24 52  1  0
 25 53  1  0
 25 54  1  0
 25 55  1  0
 26 56  1  0
M  END
>  <UniqueID>  (81) 
81

>  <SMILES>  (81) 
CN(C)CCOC(=O)n1c(C(N)=O)cc2ccc(N(C)CCN(C)C)cc21

>  <Energy>  (81) 
92.51912464028736

>  <Genealogy>  (81) 
CN(C)CCOC(=O)n1c(C(N)=O)cc2ccc(N(C)CCN(C)C)cc21 (3D coordinates assigned)
CN(C)CCOC(=O)n1c(C(N)=O)cc2ccc(N(C)CCN(C)C)cc21 (optimized conformer: 92.51912464028736 kcal/mol)

>  <smiles>  (81) 
CN(C)CCOC(=O)n1c(C(N)=O)cc2ccc(N(C)CCN(C)C)cc21

>  <score_type>  (81) 
oracle

>  <origin>  (81) 
adg

>  <m_score__min__energy>  (81) 
-7.4900000000000002

>  <m_primary>  (81) 
energy

$$$$
81:0
     RDKit          3D

 34 35  0  0  0  0  0  0  0  0999 V2000
  141.3750  156.5800  137.1390 C   0  0  0  0  0  0  0  0  0  0  0  0
  141.3870  158.1060  137.1210 C   0  0  0  0  0  0  0  0  0  0  0  0
  140.1930  158.6610  136.3400 C   0  0  0  0  0  0  0  0  0  0  0  0
  140.6120  159.7030  135.4640 O   0  0  0  0  0  0  0  0  0  0  0  0
  140.9940  159.4870  134.1340 C   0  0  0  0  0  0  0  0  0  0  0  0
  140.2380  159.8380  133.1880 O   0  0  0  0  0  0  0  0  0  0  0  0
  142.2660  158.8840  133.8490 N   0  0  0  0  0  0  0  0  0  0  0  0
  142.5140  157.6080  133.4390 C   0  0  0  0  0  0  0  0  0  0  0  0
  141.5240  156.5140  133.3530 C   0  0  0  0  0  0  0  0  0  0  0  0
  140.1280  156.7910  133.2910 N   0  0  0  0  0  0  0  0  0  0  0  0
  141.9150  155.3160  133.3810 O   0  0  0  0  0  0  0  0  0  0  0  0
  143.8730  157.4350  133.1810 C   0  0  0  0  0  0  0  0  0  0  0  0
  144.4540  158.6500  133.4590 C   0  0  0  0  0  0  0  0  0  0  0  0
  145.7830  159.0500  133.3550 C   0  0  0  0  0  0  0  0  0  0  0  0
  146.0970  160.3820  133.6740 C   0  0  0  0  0  0  0  0  0  0  0  0
  145.0880  161.2840  134.0980 C   0  0  0  0  0  0  0  0  0  0  0  0
  145.4280  162.7270  134.3760 C   0  0  0  0  0  0  0  0  0  0  0  0
  146.6620  163.0500  133.8400 F   0  0  0  0  0  0  0  0  0  0  0  0
  144.4630  163.5390  133.8090 F   0  0  0  0  0  0  0  0  0  0  0  0
  145.4730  162.9630  135.7390 F   0  0  0  0  0  0  0  0  0  0  0  0
  143.7440  160.8450  134.1650 C   0  0  0  0  0  0  0  0  0  0  0  0
  143.4640  159.5080  133.8600 C   0  0  0  0  0  0  0  0  0  0  0  0
  141.3722  156.2256  138.1804 H   0  0  0  0  0  0  0  0  0  0  0  0
  140.4740  156.2143  136.6248 H   0  0  0  0  0  0  0  0  0  0  0  0
  142.2702  156.2002  136.6248 H   0  0  0  0  0  0  0  0  0  0  0  0
  141.3426  158.4772  138.1555 H   0  0  0  0  0  0  0  0  0  0  0  0
  142.3113  158.4408  136.6275 H   0  0  0  0  0  0  0  0  0  0  0  0
  139.7390  157.8518  135.7492 H   0  0  0  0  0  0  0  0  0  0  0  0
  139.4596  159.0675  137.0519 H   0  0  0  0  0  0  0  0  0  0  0  0
  139.7600  157.7450  133.5030 H   0  0  0  0  0  0  0  0  0  0  0  0
  144.3741  156.5209  132.8297 H   0  0  0  0  0  0  0  0  0  0  0  0
  146.5636  158.3451  133.0330 H   0  0  0  0  0  0  0  0  0  0  0  0
  147.1377  160.7292  133.5939 H   0  0  0  0  0  0  0  0  0  0  0  0
  142.9388  161.5381  134.4500 H   0  0  0  0  0  0  0  0  0  0  0  0
  1  2  1  0
  2  3  1  0
  3  4  1  0
  4  5  1  0
  5  6  2  0
  5  7  1  0
  7  8  1  0
  8  9  1  0
  9 10  1  0
  9 11  2  0
  8 12  2  0
 12 13  1  0
 13 14  2  0
 14 15  1  0
 15 16  2  0
 16 17  1  0
 17 18  1  0
 17 19  1  0
 17 20  1  0
 16 21  1  0
 21 22  2  0
 22  7  1  0
 22 13  1  0
  1 23  1  0
  1 24  1  0
  1 25  1  0
  2 26  1  0
  2 27  1  0
  3 28  1  0
  3 29  1  0
 10 30  1  0
 12 31  1  0
 14 32  1  0
 15 33  1  0
 21 34  1  0
M  CHG  1  10  -1
M  END
>  <UniqueID>  (82) 
82

>  <SMILES>  (82) 
CCCOC(=O)n1c(C([NH-])=O)cc2ccc(C(F)(F)F)cc21

>  <Energy>  (82) 
67.81281571119118

>  <Genealogy>  (82) 
CCCOC(=O)n1c(C([NH-])=O)cc2ccc(C(F)(F)F)cc21 (protonated)
CCCOC(=O)n1c(C([NH-])=O)cc2ccc(C(F)(F)F)cc21 (3D coordinates assigned)
CCCOC(=O)n1c(C([NH-])=O)cc2ccc(C(F)(F)F)cc21 (optimized conformer: 67.81281571119118 kcal/mol)

>  <smiles>  (82) 
CCCOC(=O)n1c(C(N)=O)cc2ccc(C(F)(F)F)cc21

>  <score_type>  (82) 
oracle

>  <origin>  (82) 
adg

>  <m_score__min__energy>  (82) 
-5.7999999999999998

>  <m_primary>  (82) 
energy

$$$$
82:0
     RDKit          3D

 47 50  0  0  0  0  0  0  0  0999 V2000
  138.6320  157.1120  133.4370 N   0  0  0  0  0  0  0  0  0  0  0  0
  139.2440  157.9230  134.4400 C   0  0  0  0  0  0  0  0  0  0  0  0
  138.5900  158.2250  135.4730 O   0  0  0  0  0  0  0  0  0  0  0  0
  140.6430  158.3770  134.2930 C   0  0  0  0  0  0  0  0  0  0  0  0
  141.0510  159.7000  134.4410 C   0  0  0  0  0  0  0  0  0  0  0  0
  142.3840  159.7060  134.0970 C   0  0  0  0  0  0  0  0  0  0  0  0
  143.2990  160.7580  134.0780 C   0  0  0  0  0  0  0  0  0  0  0  0
  144.6240  160.4660  133.7130 C   0  0  0  0  0  0  0  0  0  0  0  0
  145.0130  159.1480  133.3770 C   0  0  0  0  0  0  0  0  0  0  0  0
  146.4160  158.8510  133.0210 C   0  0  0  0  0  0  0  0  0  0  0  0
  147.1330  159.7460  132.2200 C   0  0  0  0  0  0  0  0  0  0  0  0
  148.4740  159.5000  131.9040 C   0  0  0  0  0  0  0  0  0  0  0  0
  149.0960  158.3370  132.3670 C   0  0  0  0  0  0  0  0  0  0  0  0
  150.3960  158.0980  132.0570 F   0  0  0  0  0  0  0  0  0  0  0  0
  148.3850  157.4290  133.1530 C   0  0  0  0  0  0  0  0  0  0  0  0
  147.0520  157.6810  133.4840 C   0  0  0  0  0  0  0  0  0  0  0  0
  146.3820  156.7820  134.2380 F   0  0  0  0  0  0  0  0  0  0  0  0
  144.0560  158.1080  133.4090 C   0  0  0  0  0  0  0  0  0  0  0  0
  142.7410  158.4260  133.7670 C   0  0  0  0  0  0  0  0  0  0  0  0
  141.6820  157.5950  133.8900 N   0  0  0  0  0  0  0  0  0  0  0  0
  141.7040  156.1620  133.7440 C   0  0  0  0  0  0  0  0  0  0  0  0
  140.8690  155.6010  132.9830 O   0  0  0  0  0  0  0  0  0  0  0  0
  142.7990  155.3470  134.3770 C   0  0  0  0  0  0  0  0  0  0  0  0
  142.2870  154.5340  135.5390 C   0  0  0  0  0  0  0  0  0  0  0  0
  142.2970  153.2770  135.4430 O   0  0  0  0  0  0  0  0  0  0  0  0
  141.8160  155.1520  136.8000 C   0  0  0  0  0  0  0  0  0  0  0  0
  141.4230  154.3690  137.9030 C   0  0  0  0  0  0  0  0  0  0  0  0
  141.0060  154.9770  139.0920 C   0  0  0  0  0  0  0  0  0  0  0  0
  140.9780  156.3720  139.1920 C   0  0  0  0  0  0  0  0  0  0  0  0
  141.3630  157.1580  138.1060 C   0  0  0  0  0  0  0  0  0  0  0  0
  141.3200  158.5150  138.1970 F   0  0  0  0  0  0  0  0  0  0  0  0
  141.7910  156.5550  136.9190 C   0  0  0  0  0  0  0  0  0  0  0  0
  139.1520  156.8410  132.5750 H   0  0  0  0  0  0  0  0  0  0  0  0
  137.6420  156.7980  133.5460 H   0  0  0  0  0  0  0  0  0  0  0  0
  140.4399  160.5560  134.7633 H   0  0  0  0  0  0  0  0  0  0  0  0
  142.9938  161.7818  134.3399 H   0  0  0  0  0  0  0  0  0  0  0  0
  145.3699  161.2741  133.6881 H   0  0  0  0  0  0  0  0  0  0  0  0
  146.6389  160.6504  131.8354 H   0  0  0  0  0  0  0  0  0  0  0  0
  149.0373  160.2203  131.2926 H   0  0  0  0  0  0  0  0  0  0  0  0
  148.8758  156.5126  133.5126 H   0  0  0  0  0  0  0  0  0  0  0  0
  144.3379  157.0746  133.1587 H   0  0  0  0  0  0  0  0  0  0  0  0
  143.2183  154.6655  133.6221 H   0  0  0  0  0  0  0  0  0  0  0  0
  143.5675  156.0381  134.7536 H   0  0  0  0  0  0  0  0  0  0  0  0
  141.4441  153.2717  137.8290 H   0  0  0  0  0  0  0  0  0  0  0  0
  140.7001  154.3580  139.9483 H   0  0  0  0  0  0  0  0  0  0  0  0
  140.6521  156.8494  140.1279 H   0  0  0  0  0  0  0  0  0  0  0  0
  142.1103  157.1808  136.0726 H   0  0  0  0  0  0  0  0  0  0  0  0
  1  2  1  0
  2  3  2  0
  2  4  1  0
  4  5  2  0
  5  6  1  0
  6  7  2  0
  7  8  1  0
  8  9  2  0
  9 10  1  0
 10 11  2  0
 11 12  1  0
 12 13  2  0
 13 14  1  0
 13 15  1  0
 15 16  2  0
 16 17  1  0
  9 18  1  0
 18 19  2  0
 19 20  1  0
 20 21  1  0
 21 22  2  0
 21 23  1  0
 23 24  1  0
 24 25  2  0
 24 26  1  0
 26 27  2  0
 27 28  1  0
 28 29  2  0
 29 30  1  0
 30 31  1  0
 30 32  2  0
 20  4  1  0
 32 26  1  0
 19  6  1  0
 16 10  1  0
  1 33  1  0
  1 34  1  0
  5 35  1  0
  7 36  1  0
  8 37  1  0
 11 38  1  0
 12 39  1  0
 15 40  1  0
 18 41  1  0
 23 42  1  0
 23 43  1  0
 27 44  1  0
 28 45  1  0
 29 46  1  0
 32 47  1  0
M  END
>  <UniqueID>  (83) 
83

>  <SMILES>  (83) 
NC(=O)c1cc2ccc(-c3ccc(F)cc3F)cc2n1C(=O)CC(=O)c1cccc(F)c1

>  <Energy>  (83) 
101.00116959343782

>  <Genealogy>  (83) 
NC(=O)c1cc2ccc(-c3ccc(F)cc3F)cc2n1C(=O)CC(=O)c1cccc(F)c1 (3D coordinates assigned)
NC(=O)c1cc2ccc(-c3ccc(F)cc3F)cc2n1C(=O)CC(=O)c1cccc(F)c1 (optimized conformer: 101.00116959343782 kcal/mol)

>  <smiles>  (83) 
NC(=O)c1cc2ccc(-c3ccc(F)cc3F)cc2n1C(=O)CC(=O)c1cccc(F)c1

>  <score_type>  (83) 
oracle

>  <origin>  (83) 
adg

>  <m_score__min__energy>  (83) 
-9.8000000000000007

>  <m_primary>  (83) 
energy

$$$$
83:0
     RDKit          3D

 38 40  0  0  0  0  0  0  0  0999 V2000
  148.2640  158.1230  134.0780 N   0  0  0  0  0  0  0  0  0  0  0  0
  147.4260  159.1990  133.6500 C   0  0  0  0  0  0  0  0  0  0  0  0
  147.9490  160.3050  133.3490 O   0  0  0  0  0  0  0  0  0  0  0  0
  145.9570  159.0580  133.6190 C   0  0  0  0  0  0  0  0  0  0  0  0
  145.0920  160.1260  133.4010 C   0  0  0  0  0  0  0  0  0  0  0  0
  143.8270  159.5980  133.5140 C   0  0  0  0  0  0  0  0  0  0  0  0
  142.5870  160.2120  133.3700 C   0  0  0  0  0  0  0  0  0  0  0  0
  141.4380  159.4140  133.4950 C   0  0  0  0  0  0  0  0  0  0  0  0
  141.5490  158.0260  133.7610 C   0  0  0  0  0  0  0  0  0  0  0  0
  140.3100  157.1740  133.8430 C   0  0  0  0  0  0  0  0  0  0  0  0
  139.4670  157.2770  132.5690 C   0  0  0  0  0  0  0  0  0  0  0  0
  138.3710  158.2470  132.7610 N   0  0  0  0  0  0  0  0  0  0  0  0
  138.0600  159.1440  131.6250 C   0  0  0  0  0  0  0  0  0  0  0  0
  138.7060  160.5070  131.7170 C   0  0  0  0  0  0  0  0  0  0  0  0
  139.4770  160.2910  130.5560 O   0  0  0  0  0  0  0  0  0  0  0  0
  138.9080  159.0130  130.3750 C   0  0  0  0  0  0  0  0  0  0  0  0
  142.8260  157.4350  133.8920 C   0  0  0  0  0  0  0  0  0  0  0  0
  143.9540  158.2580  133.7810 C   0  0  0  0  0  0  0  0  0  0  0  0
  145.2600  157.9090  133.8450 N   0  0  0  0  0  0  0  0  0  0  0  0
  145.7930  156.5810  133.9860 C   0  0  0  0  0  0  0  0  0  0  0  0
  146.6040  156.1250  133.1390 O   0  0  0  0  0  0  0  0  0  0  0  0
  145.4220  155.7870  135.0650 O   0  0  0  0  0  0  0  0  0  0  0  0
  149.3020  158.2290  134.0590 H   0  0  0  0  0  0  0  0  0  0  0  0
  147.8570  157.2540  134.4890 H   0  0  0  0  0  0  0  0  0  0  0  0
  145.3623  161.1701  133.1844 H   0  0  0  0  0  0  0  0  0  0  0  0
  142.5088  161.2898  133.1645 H   0  0  0  0  0  0  0  0  0  0  0  0
  140.4430  159.8701  133.3855 H   0  0  0  0  0  0  0  0  0  0  0  0
  140.6075  156.1252  133.9898 H   0  0  0  0  0  0  0  0  0  0  0  0
  139.7021  157.5329  134.6866 H   0  0  0  0  0  0  0  0  0  0  0  0
  140.1050  157.6094  131.7368 H   0  0  0  0  0  0  0  0  0  0  0  0
  139.0376  156.2901  132.3415 H   0  0  0  0  0  0  0  0  0  0  0  0
  137.5000  157.7100  132.9810 H   0  0  0  0  0  0  0  0  0  0  0  0
  136.9765  158.9542  131.6216 H   0  0  0  0  0  0  0  0  0  0  0  0
  137.9920  161.3383  131.6212 H   0  0  0  0  0  0  0  0  0  0  0  0
  139.2145  160.7944  132.6491 H   0  0  0  0  0  0  0  0  0  0  0  0
  138.3181  158.9212  129.4511 H   0  0  0  0  0  0  0  0  0  0  0  0
  139.5712  158.1421  130.2669 H   0  0  0  0  0  0  0  0  0  0  0  0
  142.9315  156.3557  134.0765 H   0  0  0  0  0  0  0  0  0  0  0  0
  1  2  1  0
  2  3  2  0
  2  4  1  0
  4  5  2  0
  5  6  1  0
  6  7  2  0
  7  8  1  0
  8  9  2  0
  9 10  1  0
 10 11  1  0
 11 12  1  0
 12 13  1  0
 13 14  1  0
 14 15  1  0
 15 16  1  0
  9 17  1  0
 17 18  2  0
 18 19  1  0
 19 20  1  0
 20 21  2  0
 20 22  1  0
 19  4  1  0
 18  6  1  0
 16 13  1  0
  1 23  1  0
  1 24  1  0
  5 25  1  0
  7 26  1  0
  8 27  1  0
 10 28  1  0
 10 29  1  0
 11 30  1  0
 11 31  1  0
 12 32  1  0
 13 33  1  0
 14 34  1  0
 14 35  1  0
 16 36  1  0
 16 37  1  0
 17 38  1  0
M  CHG  1  22  -1
M  END
>  <UniqueID>  (84) 
84

>  <SMILES>  (84) 
NC(=O)c1cc2ccc(CCNC3COC3)cc2n1C(=O)[O-]

>  <Energy>  (84) 
147.27627701720422

>  <Genealogy>  (84) 
NC(=O)c1cc2ccc(CCNC3COC3)cc2n1C(=O)[O-] (protonated)
NC(=O)c1cc2ccc(CCNC3COC3)cc2n1C(=O)[O-] (3D coordinates assigned)
NC(=O)c1cc2ccc(CCNC3COC3)cc2n1C(=O)[O-] (nonaromatic ring conformer: 147.27627701720422 kcal/mol)

>  <smiles>  (84) 
NC(=O)c1cc2ccc(CCNC3COC3)cc2n1C(=O)O

>  <score_type>  (84) 
oracle

>  <origin>  (84) 
adg

>  <m_score__min__energy>  (84) 
-7.3799999999999999

>  <m_primary>  (84) 
energy

$$$$
84:0
     RDKit          3D

 39 41  0  0  0  0  0  0  0  0999 V2000
  148.0320  150.7370  131.8390 C   0  0  0  0  0  0  0  0  0  0  0  0
  147.1720  151.8240  132.3390 N   0  0  0  0  0  0  0  0  0  0  0  0
  147.8730  152.9320  133.0290 C   0  0  1  0  0  0  0  0  0  0  0  0
  149.2410  153.2710  132.4170 C   0  0  0  0  0  0  0  0  0  0  0  0
  149.4090  154.7740  132.6010 C   0  0  0  0  0  0  0  0  0  0  0  0
  148.0910  155.3020  132.9320 N   0  0  0  0  0  0  0  0  0  0  0  0
  147.8040  156.7130  133.0790 C   0  0  0  0  0  0  0  0  0  0  0  0
  148.8500  157.6750  133.0040 C   0  0  0  0  0  0  0  0  0  0  0  0
  148.5820  159.0480  133.1340 C   0  0  0  0  0  0  0  0  0  0  0  0
  147.2650  159.4390  133.3470 C   0  0  0  0  0  0  0  0  0  0  0  0
  146.7300  160.6980  133.4820 C   0  0  0  0  0  0  0  0  0  0  0  0
  145.3620  160.4990  133.6620 C   0  0  0  0  0  0  0  0  0  0  0  0
  144.4090  161.5960  133.9360 C   0  0  0  0  0  0  0  0  0  0  0  0
  143.0150  161.3940  133.7190 N   0  0  0  0  0  0  0  0  0  0  0  0
  144.8160  162.7220  134.3230 O   0  0  0  0  0  0  0  0  0  0  0  0
  145.0650  159.1690  133.6320 N   0  0  0  0  0  0  0  0  0  0  0  0
  143.7670  158.5580  133.7090 C   0  0  0  0  0  0  0  0  0  0  0  0
  143.2660  157.9980  132.6980 O   0  0  0  0  0  0  0  0  0  0  0  0
  143.0390  158.6000  134.8920 O   0  0  0  0  0  0  0  0  0  0  0  0
  146.2430  158.5340  133.4400 C   0  0  0  0  0  0  0  0  0  0  0  0
  146.4760  157.1610  133.2970 C   0  0  0  0  0  0  0  0  0  0  0  0
  147.0940  154.2520  133.0970 C   0  0  0  0  0  0  0  0  0  0  0  0
  148.4643  150.1905  132.6901 H   0  0  0  0  0  0  0  0  0  0  0  0
  147.4325  150.0472  131.2268 H   0  0  0  0  0  0  0  0  0  0  0  0
  148.8412  151.1618  131.2268 H   0  0  0  0  0  0  0  0  0  0  0  0
  146.6400  152.2210  131.5290 H   0  0  0  0  0  0  0  0  0  0  0  0
  146.4680  151.4180  132.9990 H   0  0  0  0  0  0  0  0  0  0  0  0
  147.9850  152.5200  134.0428 H   0  0  0  0  0  0  0  0  0  0  0  0
  150.0415  152.7279  132.9407 H   0  0  0  0  0  0  0  0  0  0  0  0
  149.2967  152.9812  131.3573 H   0  0  0  0  0  0  0  0  0  0  0  0
  150.1166  154.9798  133.4177 H   0  0  0  0  0  0  0  0  0  0  0  0
  149.8075  155.2436  131.6896 H   0  0  0  0  0  0  0  0  0  0  0  0
  149.8846  157.3383  132.8417 H   0  0  0  0  0  0  0  0  0  0  0  0
  149.3901  159.7915  133.0692 H   0  0  0  0  0  0  0  0  0  0  0  0
  147.2668  161.6577  133.4540 H   0  0  0  0  0  0  0  0  0  0  0  0
  142.5350  160.5390  134.0770 H   0  0  0  0  0  0  0  0  0  0  0  0
  145.6446  156.4429  133.3527 H   0  0  0  0  0  0  0  0  0  0  0  0
  146.5892  154.3507  134.0693 H   0  0  0  0  0  0  0  0  0  0  0  0
  146.3136  154.3054  132.3236 H   0  0  0  0  0  0  0  0  0  0  0  0
  1  2  1  0
  2  3  1  0
  3  4  1  0
  4  5  1  0
  5  6  1  0
  6  7  1  0
  7  8  2  0
  8  9  1  0
  9 10  2  0
 10 11  1  0
 11 12  2  0
 12 13  1  0
 13 14  1  0
 13 15  2  0
 12 16  1  0
 16 17  1  0
 17 18  2  0
 17 19  1  0
 16 20  1  0
 20 21  2  0
  6 22  1  0
 22  3  1  0
 21  7  1  0
 20 10  1  0
  1 23  1  0
  1 24  1  0
  1 25  1  0
  2 26  1  0
  2 27  1  0
  3 28  1  1
  4 29  1  0
  4 30  1  0
  5 31  1  0
  5 32  1  0
  8 33  1  0
  9 34  1  0
 11 35  1  0
 14 36  1  0
 21 37  1  0
 22 38  1  0
 22 39  1  0
M  CHG  3   2   1  14  -1  19  -1
M  END
>  <UniqueID>  (85) 
85

>  <SMILES>  (85) 
C[NH2+][C@H]1CCN(c2ccc3cc(C([NH-])=O)n(C(=O)[O-])c3c2)C1

>  <Energy>  (85) 
87.25103100177341

>  <Genealogy>  (85) 
C[NH2+]C1CCN(c2ccc3cc(C([NH-])=O)n(C(=O)[O-])c3c2)C1 (protonated)
C[NH2+][C@H]1CCN(c2ccc3cc(C([NH-])=O)n(C(=O)[O-])c3c2)C1 (chirality)
C[NH2+][C@H]1CCN(c2ccc3cc(C([NH-])=O)n(C(=O)[O-])c3c2)C1 (3D coordinates assigned)
C[NH2+][C@H]1CCN(c2ccc3cc(C([NH-])=O)n(C(=O)[O-])c3c2)C1 (nonaromatic ring conformer: 87.25103100177341 kcal/mol)

>  <smiles>  (85) 
CNC1CCN(c2ccc3cc(C(N)=O)n(C(=O)O)c3c2)C1

>  <score_type>  (85) 
oracle

>  <origin>  (85) 
adg

>  <m_score__min__energy>  (85) 
-7.0199999999999996

>  <m_primary>  (85) 
energy

$$$$
85:0
     RDKit          3D

 39 41  0  0  0  0  0  0  0  0999 V2000
  145.7710  154.0330  133.4450 H   0  0  0  0  0  0  0  0  0  0  0  0
  145.2660  154.2820  134.2630 O   0  0  0  0  0  0  0  0  0  0  0  0
  145.7280  155.5470  134.6620 C   0  0  2  0  0  0  0  0  0  0  0  0
  145.0582  155.9877  135.4151 H   0  0  0  0  0  0  0  0  0  0  0  0
  145.7630  156.4780  133.4700 C   0  0  0  0  0  0  0  0  0  0  0  0
  145.8910  155.9950  132.3130 O   0  0  0  0  0  0  0  0  0  0  0  0
  145.6290  157.9020  133.6200 N   0  0  0  0  0  0  0  0  0  0  0  0
  146.6340  158.8190  133.6620 C   0  0  0  0  0  0  0  0  0  0  0  0
  148.0810  158.5170  133.6520 C   0  0  0  0  0  0  0  0  0  0  0  0
  148.8980  159.3960  134.0360 O   0  0  0  0  0  0  0  0  0  0  0  0
  148.5720  157.2330  133.2640 N   0  0  0  0  0  0  0  0  0  0  0  0
  147.9270  156.4210  133.1410 H   0  0  0  0  0  0  0  0  0  0  0  0
  149.6000  157.0610  133.2130 H   0  0  0  0  0  0  0  0  0  0  0  0
  146.1180  160.1120  133.7160 C   0  0  0  0  0  0  0  0  0  0  0  0
  146.6831  161.0549  133.7564 H   0  0  0  0  0  0  0  0  0  0  0  0
  144.7510  159.9580  133.7080 C   0  0  0  0  0  0  0  0  0  0  0  0
  143.7420  160.9150  133.7330 C   0  0  0  0  0  0  0  0  0  0  0  0
  143.9793  161.9873  133.7955 H   0  0  0  0  0  0  0  0  0  0  0  0
  142.4090  160.4700  133.6760 C   0  0  0  0  0  0  0  0  0  0  0  0
  141.5884  161.2018  133.7101 H   0  0  0  0  0  0  0  0  0  0  0  0
  142.1130  159.0880  133.5750 C   0  0  0  0  0  0  0  0  0  0  0  0
  140.7090  158.6350  133.5110 C   0  0  0  0  0  0  0  0  0  0  0  0
  140.0480  158.0910  134.5550 N   0  0  0  0  0  0  0  0  0  0  0  0
  138.8230  157.8430  134.0550 C   0  0  0  0  0  0  0  0  0  0  0  0
  137.9863  157.3948  134.6109 H   0  0  0  0  0  0  0  0  0  0  0  0
  138.7840  158.2390  132.7390 C   0  0  0  0  0  0  0  0  0  0  0  0
  137.9187  158.1627  132.0642 H   0  0  0  0  0  0  0  0  0  0  0  0
  139.9610  158.7230  132.4330 O   0  0  0  0  0  0  0  0  0  0  0  0
  143.1670  158.1470  133.5360 C   0  0  0  0  0  0  0  0  0  0  0  0
  142.9591  157.0722  133.4288 H   0  0  0  0  0  0  0  0  0  0  0  0
  144.4810  158.6160  133.6370 C   0  0  0  0  0  0  0  0  0  0  0  0
  147.1070  155.3730  135.2460 C   0  0  0  0  0  0  0  0  0  0  0  0
  147.2968  155.7426  136.2645 H   0  0  0  0  0  0  0  0  0  0  0  0
  148.0810  154.8060  134.6000 N   0  0  0  0  0  0  0  0  0  0  0  0
  147.9360  154.3220  133.3190 O   0  0  0  0  0  0  0  0  0  0  0  0
  149.0540  153.8110  132.6140 C   0  0  0  0  0  0  0  0  0  0  0  0
  149.8125  153.4643  133.3312 H   0  0  0  0  0  0  0  0  0  0  0  0
  148.7353  152.9692  131.9818 H   0  0  0  0  0  0  0  0  0  0  0  0
  149.4820  154.6029  131.9818 H   0  0  0  0  0  0  0  0  0  0  0  0
  1  2  1  0
  2  3  1  0
  3  4  1  1
  3  5  1  0
  5  6  2  0
  5  7  1  0
  7  8  1  0
  8  9  1  0
  9 10  2  0
  9 11  1  0
 11 12  1  0
 11 13  1  0
  8 14  2  0
 14 15  1  0
 14 16  1  0
 16 17  2  0
 17 18  1  0
 17 19  1  0
 19 20  1  0
 19 21  2  0
 21 22  1  0
 22 23  2  0
 23 24  1  0
 24 25  1  0
 24 26  2  0
 26 27  1  0
 26 28  1  0
 21 29  1  0
 29 30  1  0
 29 31  2  0
  3 32  1  0
 32 33  1  0
 32 34  2  0
 34 35  1  0
 35 36  1  0
 36 37  1  0
 36 38  1  0
 36 39  1  0
 31  7  1  0
 31 16  1  0
 28 22  1  0
M  END
>  <UniqueID>  (86) 
86

>  <SMILES>  (86) 
CO/N=C\[C@H](O)C(=O)n1c(C(N)=O)cc2ccc(-c3ncco3)cc21

>  <Energy>  (86) 
106.42506616706098

>  <Genealogy>  (86) 
CON=C[C@H](O)C(=O)n1c(C(N)=O)cc2ccc(-c3ncco3)cc21 (chirality)
CO/N=C\[C@H](O)C(=O)n1c(C(N)=O)cc2ccc(-c3ncco3)cc21 (cis-trans isomerization)
CO/N=C\[C@H](O)C(=O)n1c(C(N)=O)cc2ccc(-c3ncco3)cc21 (3D coordinates assigned)
CO/N=C\[C@H](O)C(=O)n1c(C(N)=O)cc2ccc(-c3ncco3)cc21 (optimized conformer: 106.42506616706098 kcal/mol)

>  <smiles>  (86) 
CON=CC(O)C(=O)n1c(C(N)=O)cc2ccc(-c3ncco3)cc21

>  <score_type>  (86) 
oracle

>  <origin>  (86) 
adg

>  <m_score__min__energy>  (86) 
-6.7699999999999996

>  <m_primary>  (86) 
energy

$$$$
86:0
     RDKit          3D

 45 46  0  0  0  0  0  0  0  0999 V2000
  140.8360  158.8960  136.4530 C   0  0  0  0  0  0  0  0  0  0  0  0
  141.8990  158.5370  135.7290 C   0  0  0  0  0  0  0  0  0  0  0  0
  142.2160  157.0930  135.4660 C   0  0  0  0  0  0  0  0  0  0  0  0
  143.4880  156.9650  134.8340 O   0  0  0  0  0  0  0  0  0  0  0  0
  143.7960  157.5570  133.6030 C   0  0  0  0  0  0  0  0  0  0  0  0
  142.9530  157.5540  132.6650 O   0  0  0  0  0  0  0  0  0  0  0  0
  145.0710  158.1900  133.4190 N   0  0  0  0  0  0  0  0  0  0  0  0
  145.3730  159.5150  133.5220 C   0  0  0  0  0  0  0  0  0  0  0  0
  144.4050  160.6180  133.6970 C   0  0  0  0  0  0  0  0  0  0  0  0
  143.0310  160.4480  133.3600 N   0  0  0  0  0  0  0  0  0  0  0  0
  144.8050  161.7400  134.1060 O   0  0  0  0  0  0  0  0  0  0  0  0
  146.7430  159.7170  133.3600 C   0  0  0  0  0  0  0  0  0  0  0  0
  147.2730  158.4660  133.1410 C   0  0  0  0  0  0  0  0  0  0  0  0
  148.5920  158.0770  132.9330 C   0  0  0  0  0  0  0  0  0  0  0  0
  148.8570  156.7070  132.7670 C   0  0  0  0  0  0  0  0  0  0  0  0
  147.8050  155.7540  132.8100 C   0  0  0  0  0  0  0  0  0  0  0  0
  148.0530  154.3440  132.6510 N   0  0  0  0  0  0  0  0  0  0  0  0
  148.4130  153.4350  133.7430 C   0  0  0  0  0  0  0  0  0  0  0  0
  149.2330  152.2490  133.2190 C   0  0  0  0  0  0  0  0  0  0  0  0
  148.8140  151.8770  131.8500 N   0  0  0  0  0  0  0  0  0  0  0  0
  149.8570  151.0880  131.1730 C   0  0  0  0  0  0  0  0  0  0  0  0
  147.5570  151.1140  131.8800 C   0  0  0  0  0  0  0  0  0  0  0  0
  146.4820  156.1910  133.0410 C   0  0  0  0  0  0  0  0  0  0  0  0
  146.2440  157.5620  133.1830 C   0  0  0  0  0  0  0  0  0  0  0  0
  140.6260  159.9610  136.6310 H   0  0  0  0  0  0  0  0  0  0  0  0
  140.1703  158.1267  136.8714 H   0  0  0  0  0  0  0  0  0  0  0  0
  142.5568  159.3161  135.3162 H   0  0  0  0  0  0  0  0  0  0  0  0
  142.2300  156.5464  136.4205 H   0  0  0  0  0  0  0  0  0  0  0  0
  141.4458  156.6766  134.8001 H   0  0  0  0  0  0  0  0  0  0  0  0
  142.7330  159.7170  132.6760 H   0  0  0  0  0  0  0  0  0  0  0  0
  147.2851  160.6733  133.3990 H   0  0  0  0  0  0  0  0  0  0  0  0
  149.4031  158.8192  132.8994 H   0  0  0  0  0  0  0  0  0  0  0  0
  149.8907  156.3690  132.6019 H   0  0  0  0  0  0  0  0  0  0  0  0
  148.0840  153.9550  131.6810 H   0  0  0  0  0  0  0  0  0  0  0  0
  149.0085  153.9840  134.4873 H   0  0  0  0  0  0  0  0  0  0  0  0
  147.4891  153.0498  134.1992 H   0  0  0  0  0  0  0  0  0  0  0  0
  150.2976  152.5256  133.2065 H   0  0  0  0  0  0  0  0  0  0  0  0
  149.0658  151.3876  133.8824 H   0  0  0  0  0  0  0  0  0  0  0  0
  150.4969  150.6039  131.9254 H   0  0  0  0  0  0  0  0  0  0  0  0
  149.3847  150.3191  130.5439 H   0  0  0  0  0  0  0  0  0  0  0  0
  150.4684  151.7516  130.5439 H   0  0  0  0  0  0  0  0  0  0  0  0
  147.2617  150.9348  132.9244 H   0  0  0  0  0  0  0  0  0  0  0  0
  146.7685  151.6861  131.3690 H   0  0  0  0  0  0  0  0  0  0  0  0
  147.7006  150.1505  131.3690 H   0  0  0  0  0  0  0  0  0  0  0  0
  145.6557  155.4680  133.1079 H   0  0  0  0  0  0  0  0  0  0  0  0
  1  2  2  0
  2  3  1  0
  3  4  1  0
  4  5  1  0
  5  6  2  0
  5  7  1  0
  7  8  1  0
  8  9  1  0
  9 10  1  0
  9 11  2  0
  8 12  2  0
 12 13  1  0
 13 14  2  0
 14 15  1  0
 15 16  2  0
 16 17  1  0
 17 18  1  0
 18 19  1  0
 19 20  1  0
 20 21  1  0
 20 22  1  0
 16 23  1  0
 23 24  2  0
 24  7  1  0
 24 13  1  0
  1 25  1  0
  1 26  1  0
  2 27  1  0
  3 28  1  0
  3 29  1  0
 10 30  1  0
 12 31  1  0
 14 32  1  0
 15 33  1  0
 17 34  1  0
 18 35  1  0
 18 36  1  0
 19 37  1  0
 19 38  1  0
 21 39  1  0
 21 40  1  0
 21 41  1  0
 22 42  1  0
 22 43  1  0
 22 44  1  0
 23 45  1  0
M  CHG  1  10  -1
M  END
>  <UniqueID>  (87) 
87

>  <SMILES>  (87) 
C=CCOC(=O)n1c(C([NH-])=O)cc2ccc(NCCN(C)C)cc21

>  <Energy>  (87) 
78.23507475186742

>  <Genealogy>  (87) 
C=CCOC(=O)n1c(C([NH-])=O)cc2ccc(NCCN(C)C)cc21 (protonated)
C=CCOC(=O)n1c(C([NH-])=O)cc2ccc(NCCN(C)C)cc21 (3D coordinates assigned)
C=CCOC(=O)n1c(C([NH-])=O)cc2ccc(NCCN(C)C)cc21 (optimized conformer: 78.23507475186742 kcal/mol)

>  <smiles>  (87) 
C=CCOC(=O)n1c(C(N)=O)cc2ccc(NCCN(C)C)cc21

>  <score_type>  (87) 
oracle

>  <origin>  (87) 
adg

>  <m_score__min__energy>  (87) 
-6.6699999999999999

>  <m_primary>  (87) 
energy

$$$$
87:0
     RDKit          3D

 41 42  0  0  0  0  0  0  0  0999 V2000
  139.0500  158.6980  131.8360 C   0  0  0  0  0  0  0  0  0  0  0  0
  138.7470  157.9150  132.8740 C   0  0  0  0  0  0  0  0  0  0  0  0
  139.7250  157.6780  133.9840 C   0  0  0  0  0  0  0  0  0  0  0  0
  140.5020  158.8520  134.1920 O   0  0  0  0  0  0  0  0  0  0  0  0
  141.3140  159.0340  135.3140 C   0  0  0  0  0  0  0  0  0  0  0  0
  141.2790  160.1130  135.9690 O   0  0  0  0  0  0  0  0  0  0  0  0
  142.2180  157.9270  135.7460 C   0  0  1  0  0  0  0  0  0  0  0  0
  141.4110  156.8290  136.1730 O   0  0  0  0  0  0  0  0  0  0  0  0
  140.4590  156.9050  137.1970 C   0  0  0  0  0  0  0  0  0  0  0  0
  140.6050  156.2620  138.2720 O   0  0  0  0  0  0  0  0  0  0  0  0
  139.3410  157.7110  137.0300 O   0  0  0  0  0  0  0  0  0  0  0  0
  143.0100  157.5380  134.6270 O   0  0  0  0  0  0  0  0  0  0  0  0
  143.3330  158.3870  133.5640 C   0  0  0  0  0  0  0  0  0  0  0  0
  142.5020  158.6010  132.6410 O   0  0  0  0  0  0  0  0  0  0  0  0
  144.6360  158.9930  133.5150 N   0  0  0  0  0  0  0  0  0  0  0  0
  144.9400  160.3140  133.6640 C   0  0  0  0  0  0  0  0  0  0  0  0
  143.9670  161.4230  133.7380 C   0  0  0  0  0  0  0  0  0  0  0  0
  142.5760  161.1600  133.5700 N   0  0  0  0  0  0  0  0  0  0  0  0
  144.3470  162.6000  133.9860 O   0  0  0  0  0  0  0  0  0  0  0  0
  146.3200  160.5020  133.6720 C   0  0  0  0  0  0  0  0  0  0  0  0
  146.8590  159.2450  133.5140 C   0  0  0  0  0  0  0  0  0  0  0  0
  148.1900  158.8420  133.4840 C   0  0  0  0  0  0  0  0  0  0  0  0
  148.4600  157.4690  133.3580 C   0  0  0  0  0  0  0  0  0  0  0  0
  147.4030  156.5270  133.2550 C   0  0  0  0  0  0  0  0  0  0  0  0
  147.7030  155.0510  133.1850 C   0  0  0  0  0  0  0  0  0  0  0  0
  147.9130  154.5360  134.4530 F   0  0  0  0  0  0  0  0  0  0  0  0
  148.8410  154.8530  132.4250 F   0  0  0  0  0  0  0  0  0  0  0  0
  146.6500  154.3630  132.6070 F   0  0  0  0  0  0  0  0  0  0  0  0
  146.0630  156.9760  133.3150 C   0  0  0  0  0  0  0  0  0  0  0  0
  145.8240  158.3510  133.4220 C   0  0  0  0  0  0  0  0  0  0  0  0
  138.3146  158.8564  131.0334 H   0  0  0  0  0  0  0  0  0  0  0  0
  140.0350  159.1848  131.7834 H   0  0  0  0  0  0  0  0  0  0  0  0
  137.7587  157.4338  132.9152 H   0  0  0  0  0  0  0  0  0  0  0  0
  139.1793  157.4315  134.9067 H   0  0  0  0  0  0  0  0  0  0  0  0
  140.3884  156.8427  133.7153 H   0  0  0  0  0  0  0  0  0  0  0  0
  142.8719  158.2466  136.5708 H   0  0  0  0  0  0  0  0  0  0  0  0
  142.1480  160.2840  133.9450 H   0  0  0  0  0  0  0  0  0  0  0  0
  146.8634  161.4521  133.7812 H   0  0  0  0  0  0  0  0  0  0  0  0
  149.0062  159.5758  133.5567 H   0  0  0  0  0  0  0  0  0  0  0  0
  149.5029  157.1198  133.3389 H   0  0  0  0  0  0  0  0  0  0  0  0
  145.2279  156.2610  133.2784 H   0  0  0  0  0  0  0  0  0  0  0  0
  1  2  2  0
  2  3  1  0
  3  4  1  0
  4  5  1  0
  5  6  2  0
  5  7  1  0
  7  8  1  0
  8  9  1  0
  9 10  2  0
  9 11  1  0
  7 12  1  0
 12 13  1  0
 13 14  2  0
 13 15  1  0
 15 16  1  0
 16 17  1  0
 17 18  1  0
 17 19  2  0
 16 20  2  0
 20 21  1  0
 21 22  2  0
 22 23  1  0
 23 24  2  0
 24 25  1  0
 25 26  1  0
 25 27  1  0
 25 28  1  0
 24 29  1  0
 29 30  2  0
 30 15  1  0
 30 21  1  0
  1 31  1  0
  1 32  1  0
  2 33  1  0
  3 34  1  0
  3 35  1  0
  7 36  1  1
 18 37  1  0
 20 38  1  0
 22 39  1  0
 23 40  1  0
 29 41  1  0
M  CHG  2  11  -1  18  -1
M  END
>  <UniqueID>  (88) 
88

>  <SMILES>  (88) 
C=CCOC(=O)[C@@H](OC(=O)[O-])OC(=O)n1c(C([NH-])=O)cc2ccc(C(F)(F)F)cc21

>  <Energy>  (88) 
73.26426643985518

>  <Genealogy>  (88) 
C=CCOC(=O)C(OC(=O)[O-])OC(=O)n1c(C([NH-])=O)cc2ccc(C(F)(F)F)cc21 (protonated)
C=CCOC(=O)[C@@H](OC(=O)[O-])OC(=O)n1c(C([NH-])=O)cc2ccc(C(F)(F)F)cc21 (chirality)
C=CCOC(=O)[C@@H](OC(=O)[O-])OC(=O)n1c(C([NH-])=O)cc2ccc(C(F)(F)F)cc21 (3D coordinates assigned)
C=CCOC(=O)[C@@H](OC(=O)[O-])OC(=O)n1c(C([NH-])=O)cc2ccc(C(F)(F)F)cc21 (optimized conformer: 73.26426643985518 kcal/mol)

>  <smiles>  (88) 
C=CCOC(=O)C(OC(=O)O)OC(=O)n1c(C(N)=O)cc2ccc(C(F)(F)F)cc21

>  <score_type>  (88) 
oracle

>  <origin>  (88) 
adg

>  <m_score__min__energy>  (88) 
-6.2300000000000004

>  <m_primary>  (88) 
energy

$$$$
88:0
     RDKit          3D

 39 41  0  0  0  0  0  0  0  0999 V2000
  138.6330  158.2290  135.7030 N   0  0  0  0  0  0  0  0  0  0  0  0
  139.1550  157.9460  134.4070 C   0  0  0  0  0  0  0  0  0  0  0  0
  138.4910  158.2770  133.3890 O   0  0  0  0  0  0  0  0  0  0  0  0
  140.4320  157.2220  134.2450 C   0  0  0  0  0  0  0  0  0  0  0  0
  140.5920  156.1320  133.3910 C   0  0  0  0  0  0  0  0  0  0  0  0
  141.8800  155.6950  133.5940 C   0  0  0  0  0  0  0  0  0  0  0  0
  142.5810  154.6560  132.9870 C   0  0  0  0  0  0  0  0  0  0  0  0
  143.9210  154.4590  133.3580 C   0  0  0  0  0  0  0  0  0  0  0  0
  144.5320  155.2940  134.3280 C   0  0  0  0  0  0  0  0  0  0  0  0
  145.9860  155.1200  134.6650 C   0  0  0  0  0  0  0  0  0  0  0  0
  146.7390  156.3680  134.3220 C   0  0  0  0  0  0  0  0  0  0  0  0
  147.5340  156.8620  135.1660 O   0  0  0  0  0  0  0  0  0  0  0  0
  146.6230  156.9340  133.0060 N   0  0  0  0  0  0  0  0  0  0  0  0
  147.3900  158.0640  132.5620 C   0  0  0  0  0  0  0  0  0  0  0  0
  148.6740  157.8870  132.0170 C   0  0  0  0  0  0  0  0  0  0  0  0
  149.4290  158.9900  131.6110 C   0  0  0  0  0  0  0  0  0  0  0  0
  148.9150  160.2810  131.7520 C   0  0  0  0  0  0  0  0  0  0  0  0
  147.6440  160.4710  132.3030 C   0  0  0  0  0  0  0  0  0  0  0  0
  146.8810  159.3700  132.7130 C   0  0  0  0  0  0  0  0  0  0  0  0
  145.1300  159.6860  133.4280 Br  0  0  0  0  0  0  0  0  0  0  0  0
  143.7900  156.3410  134.9200 C   0  0  0  0  0  0  0  0  0  0  0  0
  142.4550  156.5080  134.5370 C   0  0  0  0  0  0  0  0  0  0  0  0
  141.5800  157.4550  134.9420 N   0  0  0  0  0  0  0  0  0  0  0  0
  141.8630  158.5450  135.8340 C   0  0  0  0  0  0  0  0  0  0  0  0
  141.0730  158.7370  137.0060 N   0  0  0  0  0  0  0  0  0  0  0  0
  142.7870  159.3580  135.5670 O   0  0  0  0  0  0  0  0  0  0  0  0
  139.0200  159.0090  136.2790 H   0  0  0  0  0  0  0  0  0  0  0  0
  139.8461  155.7107  132.7010 H   0  0  0  0  0  0  0  0  0  0  0  0
  142.0994  154.0089  132.2392 H   0  0  0  0  0  0  0  0  0  0  0  0
  144.5021  153.6496  132.8920 H   0  0  0  0  0  0  0  0  0  0  0  0
  146.0895  154.9150  135.7408 H   0  0  0  0  0  0  0  0  0  0  0  0
  146.3948  154.2785  134.0863 H   0  0  0  0  0  0  0  0  0  0  0  0
  146.0390  156.4260  132.3050 H   0  0  0  0  0  0  0  0  0  0  0  0
  149.0868  156.8731  131.9096 H   0  0  0  0  0  0  0  0  0  0  0  0
  150.4299  158.8416  131.1796 H   0  0  0  0  0  0  0  0  0  0  0  0
  149.5100  161.1482  131.4296 H   0  0  0  0  0  0  0  0  0  0  0  0
  147.2418  161.4887  132.4149 H   0  0  0  0  0  0  0  0  0  0  0  0
  144.2508  157.0080  135.6635 H   0  0  0  0  0  0  0  0  0  0  0  0
  140.1290  159.1820  136.9500 H   0  0  0  0  0  0  0  0  0  0  0  0
  1  2  1  0
  2  3  2  0
  2  4  1  0
  4  5  2  0
  5  6  1  0
  6  7  2  0
  7  8  1  0
  8  9  2  0
  9 10  1  0
 10 11  1  0
 11 12  2  0
 11 13  1  0
 13 14  1  0
 14 15  2  0
 15 16  1  0
 16 17  2  0
 17 18  1  0
 18 19  2  0
 19 20  1  0
  9 21  1  0
 21 22  2  0
 22 23  1  0
 23 24  1  0
 24 25  1  0
 24 26  2  0
 23  4  1  0
 22  6  1  0
 19 14  1  0
  1 27  1  0
  5 28  1  0
  7 29  1  0
  8 30  1  0
 10 31  1  0
 10 32  1  0
 13 33  1  0
 15 34  1  0
 16 35  1  0
 17 36  1  0
 18 37  1  0
 21 38  1  0
 25 39  1  0
M  CHG  2   1  -1  25  -1
M  END
>  <UniqueID>  (89) 
89

>  <SMILES>  (89) 
[NH-]C(=O)c1cc2ccc(CC(=O)Nc3ccccc3Br)cc2n1C([NH-])=O

>  <Energy>  (89) 
82.65465174115909

>  <Genealogy>  (89) 
[NH-]C(=O)c1cc2ccc(CC(=O)Nc3ccccc3Br)cc2n1C([NH-])=O (protonated)
[NH-]C(=O)c1cc2ccc(CC(=O)Nc3ccccc3Br)cc2n1C([NH-])=O (3D coordinates assigned)
[NH-]C(=O)c1cc2ccc(CC(=O)Nc3ccccc3Br)cc2n1C([NH-])=O (optimized conformer: 82.65465174115909 kcal/mol)

>  <smiles>  (89) 
NC(=O)c1cc2ccc(CC(=O)Nc3ccccc3Br)cc2n1C(N)=O

>  <score_type>  (89) 
oracle

>  <origin>  (89) 
adg

>  <m_score__min__energy>  (89) 
-8.8100000000000005

>  <m_primary>  (89) 
energy

$$$$
89:0
     RDKit          3D

 31 32  0  0  0  0  0  0  0  0999 V2000
  145.9630  163.0320  134.9810 N   0  0  0  0  0  0  0  0  0  0  0  0
  145.0330  162.3970  134.1070 C   0  0  0  0  0  0  0  0  0  0  0  0
  144.0780  163.0650  133.6300 O   0  0  0  0  0  0  0  0  0  0  0  0
  145.1720  160.9580  133.8040 C   0  0  0  0  0  0  0  0  0  0  0  0
  146.3870  160.3510  133.4860 C   0  0  0  0  0  0  0  0  0  0  0  0
  146.1040  159.0080  133.3770 C   0  0  0  0  0  0  0  0  0  0  0  0
  146.9410  157.9370  133.0740 C   0  0  0  0  0  0  0  0  0  0  0  0
  146.3700  156.6540  133.0110 C   0  0  0  0  0  0  0  0  0  0  0  0
  144.9870  156.4720  133.2460 C   0  0  0  0  0  0  0  0  0  0  0  0
  144.4150  155.1540  133.1710 C   0  0  0  0  0  0  0  0  0  0  0  0
  143.9400  154.0490  133.1070 C   0  0  0  0  0  0  0  0  0  0  0  0
  143.3520  152.7060  133.0290 C   0  0  0  0  0  0  0  0  0  0  0  0
  142.0970  152.5950  133.9010 C   0  0  0  0  0  0  0  0  0  0  0  0
  141.6220  151.1770  134.0090 C   0  0  0  0  0  0  0  0  0  0  0  0
  140.9850  150.8000  135.0280 O   0  0  0  0  0  0  0  0  0  0  0  0
  141.9090  150.0160  132.6620 S   0  0  0  0  0  0  0  0  0  0  0  0
  144.1680  157.5770  133.5530 C   0  0  0  0  0  0  0  0  0  0  0  0
  144.7650  158.8410  133.6200 C   0  0  0  0  0  0  0  0  0  0  0  0
  144.1780  160.0280  133.8780 N   0  0  0  0  0  0  0  0  0  0  0  0
  142.7790  160.2460  134.1060 C   0  0  0  0  0  0  0  0  0  0  0  0
  142.1540  161.0990  133.4220 O   0  0  0  0  0  0  0  0  0  0  0  0
  141.9170  159.3730  135.4280 S   0  0  0  0  0  0  0  0  0  0  0  0
  146.9850  163.0380  134.7650 H   0  0  0  0  0  0  0  0  0  0  0  0
  147.3627  160.8407  133.3511 H   0  0  0  0  0  0  0  0  0  0  0  0
  148.0146  158.0901  132.8899 H   0  0  0  0  0  0  0  0  0  0  0  0
  147.0031  155.7854  132.7773 H   0  0  0  0  0  0  0  0  0  0  0  0
  143.0820  152.4934  131.9841 H   0  0  0  0  0  0  0  0  0  0  0  0
  144.0938  151.9809  133.3951 H   0  0  0  0  0  0  0  0  0  0  0  0
  142.3281  152.9715  134.9084 H   0  0  0  0  0  0  0  0  0  0  0  0
  141.2992  153.1897  133.4321 H   0  0  0  0  0  0  0  0  0  0  0  0
  143.0906  157.4497  133.7347 H   0  0  0  0  0  0  0  0  0  0  0  0
  1  2  1  0
  2  3  2  0
  2  4  1  0
  4  5  2  0
  5  6  1  0
  6  7  2  0
  7  8  1  0
  8  9  2  0
  9 10  1  0
 10 11  3  0
 11 12  1  0
 12 13  1  0
 13 14  1  0
 14 15  2  0
 14 16  1  0
  9 17  1  0
 17 18  2  0
 18 19  1  0
 19 20  1  0
 20 21  2  0
 20 22  1  0
 19  4  1  0
 18  6  1  0
  1 23  1  0
  5 24  1  0
  7 25  1  0
  8 26  1  0
 12 27  1  0
 12 28  1  0
 13 29  1  0
 13 30  1  0
 17 31  1  0
M  CHG  3   1  -1  16  -1  22  -1
M  END
>  <UniqueID>  (90) 
90

>  <SMILES>  (90) 
[NH-]C(=O)c1cc2ccc(C#CCCC(=O)[S-])cc2n1C(=O)[S-]

>  <Energy>  (90) 
64.05752797553413

>  <Genealogy>  (90) 
[NH-]C(=O)c1cc2ccc(C#CCCC(=O)[S-])cc2n1C(=O)[S-] (protonated)
[NH-]C(=O)c1cc2ccc(C#CCCC(=O)[S-])cc2n1C(=O)[S-] (3D coordinates assigned)
[NH-]C(=O)c1cc2ccc(C#CCCC(=O)[S-])cc2n1C(=O)[S-] (optimized conformer: 64.05752797553413 kcal/mol)

>  <smiles>  (90) 
NC(=O)c1cc2ccc(C#CCCC(=O)S)cc2n1C(=O)S

>  <score_type>  (90) 
oracle

>  <origin>  (90) 
adg

>  <m_score__min__energy>  (90) 
-7.1600000000000001

>  <m_primary>  (90) 
energy

$$$$
90:0
     RDKit          3D

 49 50  0  0  0  0  0  0  0  0999 V2000
  139.0920  157.9840  131.5410 C   0  0  0  0  0  0  0  0  0  0  0  0
  139.5520  157.5810  132.9630 C   0  0  0  0  0  0  0  0  0  0  0  0
  138.4020  157.7810  133.9800 C   0  0  0  0  0  0  0  0  0  0  0  0
  140.0410  156.0920  133.0020 C   0  0  0  0  0  0  0  0  0  0  0  0
  141.0170  155.7020  134.0950 C   0  0  0  0  0  0  0  0  0  0  0  0
  141.0410  156.3450  135.1800 O   0  0  0  0  0  0  0  0  0  0  0  0
  142.0220  154.6940  133.8490 N   0  0  0  0  0  0  0  0  0  0  0  0
  143.3710  154.7880  134.0170 C   0  0  0  0  0  0  0  0  0  0  0  0
  144.1180  156.0280  134.2760 C   0  0  0  0  0  0  0  0  0  0  0  0
  143.5260  157.2940  133.9920 N   0  0  0  0  0  0  0  0  0  0  0  0
  145.2600  155.9820  134.7990 O   0  0  0  0  0  0  0  0  0  0  0  0
  143.9990  153.5810  133.7250 C   0  0  0  0  0  0  0  0  0  0  0  0
  142.9870  152.7330  133.3430 C   0  0  0  0  0  0  0  0  0  0  0  0
  143.0490  151.4160  132.8960 C   0  0  0  0  0  0  0  0  0  0  0  0
  141.8460  150.7870  132.5320 C   0  0  0  0  0  0  0  0  0  0  0  0
  140.6110  151.4770  132.6310 C   0  0  0  0  0  0  0  0  0  0  0  0
  139.3320  150.8060  132.1980 C   0  0  0  0  0  0  0  0  0  0  0  0
  139.5090  149.2980  131.9780 C   0  0  0  0  0  0  0  0  0  0  0  0
  139.0190  148.7790  130.3370 S   0  0  0  0  0  0  0  0  0  0  0  0
  139.1560  147.0080  130.2120 C   0  0  0  0  0  0  0  0  0  0  0  0
  139.9070  149.4120  129.3020 O   0  0  0  0  0  0  0  0  0  0  0  0
  137.5900  149.1780  130.0860 O   0  0  0  0  0  0  0  0  0  0  0  0
  140.5870  152.8130  133.0990 C   0  0  0  0  0  0  0  0  0  0  0  0
  141.8020  153.4240  133.4300 C   0  0  0  0  0  0  0  0  0  0  0  0
  140.6860  158.4420  133.3660 N   0  0  0  0  0  0  0  0  0  0  0  0
  140.7960  159.8560  133.1250 C   0  0  0  0  0  0  0  0  0  0  0  0
  139.8560  160.5060  132.6000 O   0  0  0  0  0  0  0  0  0  0  0  0
  141.9700  160.5160  133.4680 O   0  0  0  0  0  0  0  0  0  0  0  0
  138.2664  158.7073  131.6139 H   0  0  0  0  0  0  0  0  0  0  0  0
  139.9332  158.4411  130.9993 H   0  0  0  0  0  0  0  0  0  0  0  0
  138.7495  157.0900  130.9993 H   0  0  0  0  0  0  0  0  0  0  0  0
  138.8008  157.7116  135.0028 H   0  0  0  0  0  0  0  0  0  0  0  0
  137.9479  158.7716  133.8299 H   0  0  0  0  0  0  0  0  0  0  0  0
  137.6401  157.0019  133.8299 H   0  0  0  0  0  0  0  0  0  0  0  0
  139.1505  155.4560  133.1137 H   0  0  0  0  0  0  0  0  0  0  0  0
  140.6021  155.9577  132.0655 H   0  0  0  0  0  0  0  0  0  0  0  0
  142.6600  157.6050  134.4850 H   0  0  0  0  0  0  0  0  0  0  0  0
  145.0736  153.3544  133.7866 H   0  0  0  0  0  0  0  0  0  0  0  0
  144.0096  150.8842  132.8297 H   0  0  0  0  0  0  0  0  0  0  0  0
  141.8626  149.7495  132.1668 H   0  0  0  0  0  0  0  0  0  0  0  0
  138.5699  150.9626  132.9756 H   0  0  0  0  0  0  0  0  0  0  0  0
  139.0269  151.2515  131.2397 H   0  0  0  0  0  0  0  0  0  0  0  0
  140.5685  149.0424  132.1265 H   0  0  0  0  0  0  0  0  0  0  0  0
  138.8610  148.7781  132.6989 H   0  0  0  0  0  0  0  0  0  0  0  0
  139.1898  146.5707  131.2208 H   0  0  0  0  0  0  0  0  0  0  0  0
  138.2859  146.6103  129.6690 H   0  0  0  0  0  0  0  0  0  0  0  0
  140.0769  146.7489  129.6690 H   0  0  0  0  0  0  0  0  0  0  0  0
  139.6366  153.3576  133.2000 H   0  0  0  0  0  0  0  0  0  0  0  0
  141.5070  158.0090  133.8480 H   0  0  0  0  0  0  0  0  0  0  0  0
  1  2  1  0
  2  3  1  0
  2  4  1  0
  4  5  1  0
  5  6  2  0
  5  7  1  0
  7  8  1  0
  8  9  1  0
  9 10  1  0
  9 11  2  0
  8 12  2  0
 12 13  1  0
 13 14  2  0
 14 15  1  0
 15 16  2  0
 16 17  1  0
 17 18  1  0
 18 19  1  0
 19 20  1  0
 19 21  2  0
 19 22  2  0
 16 23  1  0
 23 24  2  0
  2 25  1  0
 25 26  1  0
 26 27  2  0
 26 28  1  0
 24  7  1  0
 24 13  1  0
  1 29  1  0
  1 30  1  0
  1 31  1  0
  3 32  1  0
  3 33  1  0
  3 34  1  0
  4 35  1  0
  4 36  1  0
 10 37  1  0
 12 38  1  0
 14 39  1  0
 15 40  1  0
 17 41  1  0
 17 42  1  0
 18 43  1  0
 18 44  1  0
 20 45  1  0
 20 46  1  0
 20 47  1  0
 23 48  1  0
 25 49  1  0
M  CHG  2  10  -1  28  -1
M  END
>  <UniqueID>  (91) 
91

>  <SMILES>  (91) 
CC(C)(CC(=O)n1c(C([NH-])=O)cc2ccc(CCS(C)(=O)=O)cc21)NC(=O)[O-]

>  <Energy>  (91) 
83.06941104228827

>  <Genealogy>  (91) 
CC(C)(CC(=O)n1c(C([NH-])=O)cc2ccc(CCS(C)(=O)=O)cc21)NC(=O)[O-] (protonated)
CC(C)(CC(=O)n1c(C([NH-])=O)cc2ccc(CCS(C)(=O)=O)cc21)NC(=O)[O-] (3D coordinates assigned)
CC(C)(CC(=O)n1c(C([NH-])=O)cc2ccc(CCS(C)(=O)=O)cc21)NC(=O)[O-] (optimized conformer: 83.06941104228827 kcal/mol)

>  <smiles>  (91) 
CC(C)(CC(=O)n1c(C(N)=O)cc2ccc(CCS(C)(=O)=O)cc21)NC(=O)O

>  <score_type>  (91) 
oracle

>  <origin>  (91) 
adg

>  <m_score__min__energy>  (91) 
-8.6300000000000008

>  <m_primary>  (91) 
energy

$$$$
91:0
     RDKit          3D

 37 39  0  0  0  0  0  0  0  0999 V2000
  138.2410  159.9310  130.7470 C   0  0  0  0  0  0  0  0  0  0  0  0
  139.4260  160.4650  131.4030 N   0  0  0  0  0  0  0  0  0  0  0  0
  140.1660  159.8350  132.4570 C   0  0  0  0  0  0  0  0  0  0  0  0
  141.0940  160.4840  133.0080 O   0  0  0  0  0  0  0  0  0  0  0  0
  139.8940  158.4620  132.9310 C   0  0  0  0  0  0  0  0  0  0  0  0
  140.8340  157.5080  133.1010 N   0  0  0  0  0  0  0  0  0  0  0  0
  140.1260  156.4530  133.5420 C   0  0  0  0  0  0  0  0  0  0  0  0
  140.7190  155.2180  133.8340 O   0  0  0  0  0  0  0  0  0  0  0  0
  140.4820  154.0150  133.1560 C   0  0  0  0  0  0  0  0  0  0  0  0
  139.3560  153.7710  132.6460 O   0  0  0  0  0  0  0  0  0  0  0  0
  141.5330  153.0410  133.0580 N   0  0  0  0  0  0  0  0  0  0  0  0
  142.8740  153.2460  133.1890 C   0  0  0  0  0  0  0  0  0  0  0  0
  143.5210  154.4940  133.6410 C   0  0  0  0  0  0  0  0  0  0  0  0
  143.2850  155.7280  132.9680 N   0  0  0  0  0  0  0  0  0  0  0  0
  144.2550  154.4810  134.6660 O   0  0  0  0  0  0  0  0  0  0  0  0
  143.5770  152.0750  132.9130 C   0  0  0  0  0  0  0  0  0  0  0  0
  142.6170  151.1340  132.6160 C   0  0  0  0  0  0  0  0  0  0  0  0
  142.7560  149.8000  132.2480 C   0  0  0  0  0  0  0  0  0  0  0  0
  141.5890  149.0710  131.9600 C   0  0  0  0  0  0  0  0  0  0  0  0
  140.3150  149.6850  132.0500 C   0  0  0  0  0  0  0  0  0  0  0  0
  139.0810  148.9110  131.6910 C   0  0  0  0  0  0  0  0  0  0  0  0
  140.2140  151.0460  132.4110 C   0  0  0  0  0  0  0  0  0  0  0  0
  141.3910  151.7430  132.7090 C   0  0  0  0  0  0  0  0  0  0  0  0
  138.7890  156.7900  133.6140 C   0  0  0  0  0  0  0  0  0  0  0  0
  138.6860  158.0390  133.2320 O   0  0  0  0  0  0  0  0  0  0  0  0
  137.5165  159.6045  131.5076 H   0  0  0  0  0  0  0  0  0  0  0  0
  137.7866  160.7114  130.1189 H   0  0  0  0  0  0  0  0  0  0  0  0
  138.5246  159.0737  130.1189 H   0  0  0  0  0  0  0  0  0  0  0  0
  142.3350  155.9700  132.6080 H   0  0  0  0  0  0  0  0  0  0  0  0
  144.6676  151.9327  132.9290 H   0  0  0  0  0  0  0  0  0  0  0  0
  143.7484  149.3299  132.1843 H   0  0  0  0  0  0  0  0  0  0  0  0
  141.6654  148.0148  131.6622 H   0  0  0  0  0  0  0  0  0  0  0  0
  138.5692  148.5900  132.6102 H   0  0  0  0  0  0  0  0  0  0  0  0
  138.4073  149.5486  131.0998 H   0  0  0  0  0  0  0  0  0  0  0  0
  139.3617  148.0269  131.0998 H   0  0  0  0  0  0  0  0  0  0  0  0
  139.2354  151.5462  132.4570 H   0  0  0  0  0  0  0  0  0  0  0  0
  137.9656  156.1336  133.9321 H   0  0  0  0  0  0  0  0  0  0  0  0
  1  2  1  0
  2  3  1  0
  3  4  2  0
  3  5  1  0
  5  6  2  0
  6  7  1  0
  7  8  1  0
  8  9  1  0
  9 10  2  0
  9 11  1  0
 11 12  1  0
 12 13  1  0
 13 14  1  0
 13 15  2  0
 12 16  2  0
 16 17  1  0
 17 18  2  0
 18 19  1  0
 19 20  2  0
 20 21  1  0
 20 22  1  0
 22 23  2  0
  7 24  2  0
 24 25  1  0
 25  5  1  0
 23 11  1  0
 23 17  1  0
  1 26  1  0
  1 27  1  0
  1 28  1  0
 14 29  1  0
 16 30  1  0
 18 31  1  0
 19 32  1  0
 21 33  1  0
 21 34  1  0
 21 35  1  0
 22 36  1  0
 24 37  1  0
M  CHG  2   2  -1  14  -1
M  END
>  <UniqueID>  (92) 
92

>  <SMILES>  (92) 
C[N-]C(=O)c1nc(OC(=O)n2c(C([NH-])=O)cc3ccc(C)cc32)co1

>  <Energy>  (92) 
109.27621115052479

>  <Genealogy>  (92) 
C[N-]C(=O)c1nc(OC(=O)n2c(C([NH-])=O)cc3ccc(C)cc32)co1 (protonated)
C[N-]C(=O)c1nc(OC(=O)n2c(C([NH-])=O)cc3ccc(C)cc32)co1 (3D coordinates assigned)
C[N-]C(=O)c1nc(OC(=O)n2c(C([NH-])=O)cc3ccc(C)cc32)co1 (optimized conformer: 109.27621115052479 kcal/mol)

>  <smiles>  (92) 
CNC(=O)c1nc(OC(=O)n2c(C(N)=O)cc3ccc(C)cc32)co1

>  <score_type>  (92) 
oracle

>  <origin>  (92) 
adg

>  <m_score__min__energy>  (92) 
-7.1399999999999997

>  <m_primary>  (92) 
energy

$$$$
92:0
     RDKit          3D

 45 47  0  0  0  0  0  0  0  0999 V2000
  140.5740  157.7440  136.8780 C   0  0  0  0  0  0  0  0  0  0  0  0
  141.4560  158.3040  135.7500 C   0  0  2  0  0  0  0  0  0  0  0  0
  140.6900  159.3930  134.9760 C   0  0  0  0  0  0  0  0  0  0  0  0
  140.7830  159.1720  133.5950 O   0  0  0  0  0  0  0  0  0  0  0  0
  141.8710  157.2130  134.8450 N   0  0  0  0  0  0  0  0  0  0  0  0
  143.3330  157.1130  134.7420 C   0  0  0  0  0  0  0  0  0  0  0  0
  143.7830  157.7410  133.4590 C   0  0  0  0  0  0  0  0  0  0  0  0
  143.0530  157.6710  132.4340 O   0  0  0  0  0  0  0  0  0  0  0  0
  145.0640  158.3820  133.3790 N   0  0  0  0  0  0  0  0  0  0  0  0
  145.3380  159.7110  133.4910 C   0  0  0  0  0  0  0  0  0  0  0  0
  144.3480  160.7910  133.6990 C   0  0  0  0  0  0  0  0  0  0  0  0
  142.9750  160.6080  133.3600 N   0  0  0  0  0  0  0  0  0  0  0  0
  144.7210  161.8950  134.1760 O   0  0  0  0  0  0  0  0  0  0  0  0
  146.7060  159.9380  133.3450 C   0  0  0  0  0  0  0  0  0  0  0  0
  147.2630  158.6940  133.1400 C   0  0  0  0  0  0  0  0  0  0  0  0
  148.5900  158.3280  132.9440 C   0  0  0  0  0  0  0  0  0  0  0  0
  148.8790  156.9620  132.7820 C   0  0  0  0  0  0  0  0  0  0  0  0
  147.8450  155.9890  132.8260 C   0  0  0  0  0  0  0  0  0  0  0  0
  148.1610  154.5470  132.6660 C   0  0  0  0  0  0  0  0  0  0  0  0
  149.4800  154.1240  132.4300 C   0  0  0  0  0  0  0  0  0  0  0  0
  149.7560  152.7620  132.2890 C   0  0  0  0  0  0  0  0  0  0  0  0
  148.7530  151.8490  132.3780 N   0  0  0  0  0  0  0  0  0  0  0  0
  147.4680  152.2250  132.6030 C   0  0  0  0  0  0  0  0  0  0  0  0
  147.1470  153.5770  132.7530 C   0  0  0  0  0  0  0  0  0  0  0  0
  146.5080  156.4060  133.0300 C   0  0  0  0  0  0  0  0  0  0  0  0
  146.2500  157.7730  133.1670 C   0  0  0  0  0  0  0  0  0  0  0  0
  141.0060  158.0183  137.8517 H   0  0  0  0  0  0  0  0  0  0  0  0
  139.5611  158.1648  136.7947 H   0  0  0  0  0  0  0  0  0  0  0  0
  140.5239  156.6483  136.7947 H   0  0  0  0  0  0  0  0  0  0  0  0
  142.3589  158.7563  136.1862 H   0  0  0  0  0  0  0  0  0  0  0  0
  139.6317  159.3730  135.2752 H   0  0  0  0  0  0  0  0  0  0  0  0
  141.1321  160.3728  135.2098 H   0  0  0  0  0  0  0  0  0  0  0  0
  141.7200  158.8940  133.4230 H   0  0  0  0  0  0  0  0  0  0  0  0
  141.5140  157.4090  133.8780 H   0  0  0  0  0  0  0  0  0  0  0  0
  143.7978  157.6368  135.5903 H   0  0  0  0  0  0  0  0  0  0  0  0
  143.6320  156.0546  134.7589 H   0  0  0  0  0  0  0  0  0  0  0  0
  142.6710  159.8030  132.7680 H   0  0  0  0  0  0  0  0  0  0  0  0
  147.2295  160.9046  133.3849 H   0  0  0  0  0  0  0  0  0  0  0  0
  149.3887  159.0839  132.9166 H   0  0  0  0  0  0  0  0  0  0  0  0
  149.9189  156.6425  132.6191 H   0  0  0  0  0  0  0  0  0  0  0  0
  150.2920  154.8625  132.3566 H   0  0  0  0  0  0  0  0  0  0  0  0
  150.7877  152.4274  132.1055 H   0  0  0  0  0  0  0  0  0  0  0  0
  146.6771  151.4632  132.6674 H   0  0  0  0  0  0  0  0  0  0  0  0
  146.1061  153.8807  132.9382 H   0  0  0  0  0  0  0  0  0  0  0  0
  145.6908  155.6714  133.0796 H   0  0  0  0  0  0  0  0  0  0  0  0
  1  2  1  0
  2  3  1  0
  3  4  1  0
  2  5  1  0
  5  6  1  0
  6  7  1  0
  7  8  2  0
  7  9  1  0
  9 10  1  0
 10 11  1  0
 11 12  1  0
 11 13  2  0
 10 14  2  0
 14 15  1  0
 15 16  2  0
 16 17  1  0
 17 18  2  0
 18 19  1  0
 19 20  2  0
 20 21  1  0
 21 22  2  0
 22 23  1  0
 23 24  2  0
 18 25  1  0
 25 26  2  0
 26  9  1  0
 26 15  1  0
 24 19  1  0
  1 27  1  0
  1 28  1  0
  1 29  1  0
  2 30  1  1
  3 31  1  0
  3 32  1  0
  4 33  1  0
  5 34  1  0
  6 35  1  0
  6 36  1  0
 12 37  1  0
 14 38  1  0
 16 39  1  0
 17 40  1  0
 20 41  1  0
 21 42  1  0
 23 43  1  0
 24 44  1  0
 25 45  1  0
M  CHG  1  12  -1
M  END
>  <UniqueID>  (93) 
93

>  <SMILES>  (93) 
C[C@H](CO)NCC(=O)n1c(C([NH-])=O)cc2ccc(-c3ccncc3)cc21

>  <Energy>  (93) 
89.03307252641645

>  <Genealogy>  (93) 
CC(CO)NCC(=O)n1c(C([NH-])=O)cc2ccc(-c3ccncc3)cc21 (protonated)
C[C@H](CO)NCC(=O)n1c(C([NH-])=O)cc2ccc(-c3ccncc3)cc21 (chirality)
C[C@H](CO)NCC(=O)n1c(C([NH-])=O)cc2ccc(-c3ccncc3)cc21 (3D coordinates assigned)
C[C@H](CO)NCC(=O)n1c(C([NH-])=O)cc2ccc(-c3ccncc3)cc21 (optimized conformer: 89.03307252641645 kcal/mol)

>  <smiles>  (93) 
CC(CO)NCC(=O)n1c(C(N)=O)cc2ccc(-c3ccncc3)cc21

>  <score_type>  (93) 
oracle

>  <origin>  (93) 
adg

>  <m_score__min__energy>  (93) 
-7.5599999999999996

>  <m_primary>  (93) 
energy

$$$$
93:0
     RDKit          3D

 51 53  0  0  0  0  0  0  0  0999 V2000
  149.7160  157.8420  131.8440 C   0  0  0  0  0  0  0  0  0  0  0  0
  149.6090  159.2060  132.5500 C   0  0  1  0  0  0  0  0  0  0  0  0
  149.9720  160.2640  131.6720 O   0  0  0  0  0  0  0  0  0  0  0  0
  148.9990  160.6190  130.6850 C   0  0  0  0  0  0  0  0  0  0  0  0
  148.8690  162.1460  130.6950 C   0  0  0  0  0  0  0  0  0  0  0  0
  149.4960  160.1670  129.3080 C   0  0  0  0  0  0  0  0  0  0  0  0
  147.6920  160.0670  130.9030 O   0  0  0  0  0  0  0  0  0  0  0  0
  147.2410  159.6940  132.1630 C   0  0  0  0  0  0  0  0  0  0  0  0
  146.0070  159.5600  132.3760 O   0  0  0  0  0  0  0  0  0  0  0  0
  148.2490  159.4760  133.2370 C   0  0  1  0  0  0  0  0  0  0  0  0
  147.8230  158.3550  134.2040 C   0  0  0  0  0  0  0  0  0  0  0  0
  147.4270  157.2010  133.4710 O   0  0  0  0  0  0  0  0  0  0  0  0
  147.3780  155.9240  134.0370 C   0  0  0  0  0  0  0  0  0  0  0  0
  148.0590  155.6580  135.0640 O   0  0  0  0  0  0  0  0  0  0  0  0
  146.5370  154.9160  133.4510 N   0  0  0  0  0  0  0  0  0  0  0  0
  145.1860  154.9670  133.2750 C   0  0  0  0  0  0  0  0  0  0  0  0
  144.3330  156.1530  133.5110 C   0  0  0  0  0  0  0  0  0  0  0  0
  144.7180  157.4380  133.0210 N   0  0  0  0  0  0  0  0  0  0  0  0
  143.2720  156.0460  134.1820 O   0  0  0  0  0  0  0  0  0  0  0  0
  144.7170  153.7680  132.7440 C   0  0  0  0  0  0  0  0  0  0  0  0
  145.8320  152.9730  132.5980 C   0  0  0  0  0  0  0  0  0  0  0  0
  145.9440  151.6720  132.1180 C   0  0  0  0  0  0  0  0  0  0  0  0
  147.2190  151.0830  132.1050 C   0  0  0  0  0  0  0  0  0  0  0  0
  148.3480  151.7940  132.5830 C   0  0  0  0  0  0  0  0  0  0  0  0
  149.7090  151.1580  132.5520 C   0  0  0  0  0  0  0  0  0  0  0  0
  149.9870  150.6050  131.1910 C   0  0  0  0  0  0  0  0  0  0  0  0
  150.0130  151.3680  130.1910 O   0  0  0  0  0  0  0  0  0  0  0  0
  150.2580  149.2530  131.0330 O   0  0  0  0  0  0  0  0  0  0  0  0
  148.1960  153.1190  133.0500 C   0  0  0  0  0  0  0  0  0  0  0  0
  146.9170  153.6870  133.0340 C   0  0  0  0  0  0  0  0  0  0  0  0
  149.7787  157.0430  132.5975 H   0  0  0  0  0  0  0  0  0  0  0  0
  148.8275  157.6840  131.2150 H   0  0  0  0  0  0  0  0  0  0  0  0
  150.6183  157.8245  131.2150 H   0  0  0  0  0  0  0  0  0  0  0  0
  150.3336  159.1634  133.3765 H   0  0  0  0  0  0  0  0  0  0  0  0
  148.8385  162.5046  131.7345 H   0  0  0  0  0  0  0  0  0  0  0  0
  149.7325  162.5909  130.1789 H   0  0  0  0  0  0  0  0  0  0  0  0
  147.9427  162.4385  130.1789 H   0  0  0  0  0  0  0  0  0  0  0  0
  150.3045  159.4317  129.4332 H   0  0  0  0  0  0  0  0  0  0  0  0
  148.6659  159.7079  128.7511 H   0  0  0  0  0  0  0  0  0  0  0  0
  149.8744  161.0369  128.7511 H   0  0  0  0  0  0  0  0  0  0  0  0
  148.3372  160.3695  133.8725 H   0  0  0  0  0  0  0  0  0  0  0  0
  148.6691  158.0978  134.8582 H   0  0  0  0  0  0  0  0  0  0  0  0
  146.9744  158.7054  134.8099 H   0  0  0  0  0  0  0  0  0  0  0  0
  144.1310  158.2760  133.2310 H   0  0  0  0  0  0  0  0  0  0  0  0
  145.5600  157.5570  132.4150 H   0  0  0  0  0  0  0  0  0  0  0  0
  143.6771  153.5107  132.4943 H   0  0  0  0  0  0  0  0  0  0  0  0
  145.0614  151.1217  131.7598 H   0  0  0  0  0  0  0  0  0  0  0  0
  147.3425  150.0600  131.7201 H   0  0  0  0  0  0  0  0  0  0  0  0
  150.4693  151.9133  132.8000 H   0  0  0  0  0  0  0  0  0  0  0  0
  149.7407  150.3397  133.2864 H   0  0  0  0  0  0  0  0  0  0  0  0
  149.0616  153.6899  133.4171 H   0  0  0  0  0  0  0  0  0  0  0  0
  1  2  1  0
  2  3  1  0
  3  4  1  0
  4  5  1  0
  4  6  1  0
  4  7  1  0
  7  8  1  0
  8  9  2  0
  8 10  1  0
 10 11  1  0
 11 12  1  0
 12 13  1  0
 13 14  2  0
 13 15  1  0
 15 16  1  0
 16 17  1  0
 17 18  1  0
 17 19  2  0
 16 20  2  0
 20 21  1  0
 21 22  2  0
 22 23  1  0
 23 24  2  0
 24 25  1  0
 25 26  1  0
 26 27  2  0
 26 28  1  0
 24 29  1  0
 29 30  2  0
 10  2  1  0
 30 15  1  0
 30 21  1  0
  1 31  1  0
  1 32  1  0
  1 33  1  0
  2 34  1  1
  5 35  1  0
  5 36  1  0
  5 37  1  0
  6 38  1  0
  6 39  1  0
  6 40  1  0
 10 41  1  1
 11 42  1  0
 11 43  1  0
 18 44  1  0
 18 45  1  0
 20 46  1  0
 22 47  1  0
 23 48  1  0
 25 49  1  0
 25 50  1  0
 29 51  1  0
M  CHG  1  28  -1
M  END
>  <UniqueID>  (94) 
94

>  <SMILES>  (94) 
C[C@H]1OC(C)(C)OC(=O)[C@H]1COC(=O)n1c(C(N)=O)cc2ccc(CC(=O)[O-])cc21

>  <Energy>  (94) 
91.91505101845819

>  <Genealogy>  (94) 
C[C@H]1OC(C)(C)OC(=O)C1COC(=O)n1c(C(N)=O)cc2ccc(CC(=O)[O-])cc21 (protonated)
C[C@H]1OC(C)(C)OC(=O)[C@H]1COC(=O)n1c(C(N)=O)cc2ccc(CC(=O)[O-])cc21 (chirality)
C[C@H]1OC(C)(C)OC(=O)[C@H]1COC(=O)n1c(C(N)=O)cc2ccc(CC(=O)[O-])cc21 (3D coordinates assigned)
C[C@H]1OC(C)(C)OC(=O)[C@H]1COC(=O)n1c(C(N)=O)cc2ccc(CC(=O)[O-])cc21 (nonaromatic ring conformer: 91.91505101845819 kcal/mol)

>  <smiles>  (94) 
C[C@H]1OC(C)(C)OC(=O)C1COC(=O)n1c(C(N)=O)cc2ccc(CC(=O)O)cc21

>  <score_type>  (94) 
oracle

>  <origin>  (94) 
adg

>  <m_score__min__energy>  (94) 
-9.2599999999999998

>  <m_primary>  (94) 
energy

$$$$
94:0
     RDKit          3D

 39 40  0  0  0  0  0  0  0  0999 V2000
  139.9800  159.3520  132.4180 C   0  0  0  0  0  0  0  0  0  0  0  0
  140.8300  159.9570  133.4340 N   0  0  0  0  0  0  0  0  0  0  0  0
  141.9560  159.3210  134.0490 C   0  0  0  0  0  0  0  0  0  0  0  0
  142.1120  158.0810  133.8890 O   0  0  0  0  0  0  0  0  0  0  0  0
  142.9740  160.0820  134.8590 C   0  0  0  0  0  0  0  0  0  0  0  0
  143.8350  160.9970  133.9770 C   0  0  0  0  0  0  0  0  0  0  0  0
  145.2900  160.5190  133.8940 C   0  0  0  0  0  0  0  0  0  0  0  0
  145.3640  159.2040  133.1780 C   0  0  0  0  0  0  0  0  0  0  0  0
  144.3380  158.7470  132.6050 O   0  0  0  0  0  0  0  0  0  0  0  0
  146.6160  158.5190  133.0480 N   0  0  0  0  0  0  0  0  0  0  0  0
  146.9920  157.3410  133.6180 C   0  0  0  0  0  0  0  0  0  0  0  0
  146.1200  156.4540  134.4150 C   0  0  0  0  0  0  0  0  0  0  0  0
  144.7290  156.3670  134.1140 N   0  0  0  0  0  0  0  0  0  0  0  0
  146.5870  155.7850  135.3750 O   0  0  0  0  0  0  0  0  0  0  0  0
  148.3160  157.0460  133.2940 C   0  0  0  0  0  0  0  0  0  0  0  0
  148.7380  158.0880  132.4970 C   0  0  0  0  0  0  0  0  0  0  0  0
  149.9750  158.3220  131.9030 C   0  0  0  0  0  0  0  0  0  0  0  0
  150.1310  159.4990  131.1520 C   0  0  0  0  0  0  0  0  0  0  0  0
  149.0560  160.4100  131.0050 C   0  0  0  0  0  0  0  0  0  0  0  0
  149.2550  161.6850  130.2390 C   0  0  0  0  0  0  0  0  0  0  0  0
  147.8200  160.1470  131.6350 C   0  0  0  0  0  0  0  0  0  0  0  0
  147.6920  158.9620  132.3650 C   0  0  0  0  0  0  0  0  0  0  0  0
  139.1765  158.7801  132.9052 H   0  0  0  0  0  0  0  0  0  0  0  0
  139.5399  160.1412  131.7907 H   0  0  0  0  0  0  0  0  0  0  0  0
  140.5815  158.6777  131.7907 H   0  0  0  0  0  0  0  0  0  0  0  0
  142.4485  160.6973  135.6041 H   0  0  0  0  0  0  0  0  0  0  0  0
  143.6380  159.3528  135.3462 H   0  0  0  0  0  0  0  0  0  0  0  0
  143.4094  161.0144  132.9628 H   0  0  0  0  0  0  0  0  0  0  0  0
  143.8341  162.0000  134.4286 H   0  0  0  0  0  0  0  0  0  0  0  0
  145.8864  161.2642  133.3473 H   0  0  0  0  0  0  0  0  0  0  0  0
  145.6853  160.3951  134.9130 H   0  0  0  0  0  0  0  0  0  0  0  0
  144.1240  157.2190  134.1250 H   0  0  0  0  0  0  0  0  0  0  0  0
  148.8995  156.1680  133.6080 H   0  0  0  0  0  0  0  0  0  0  0  0
  150.8039  157.6081  132.0180 H   0  0  0  0  0  0  0  0  0  0  0  0
  151.0974  159.7154  130.6733 H   0  0  0  0  0  0  0  0  0  0  0  0
  149.3853  162.5196  130.9436 H   0  0  0  0  0  0  0  0  0  0  0  0
  150.1502  161.5965  129.6059 H   0  0  0  0  0  0  0  0  0  0  0  0
  148.3754  161.8735  129.6059 H   0  0  0  0  0  0  0  0  0  0  0  0
  146.9817  160.8546  131.5536 H   0  0  0  0  0  0  0  0  0  0  0  0
  1  2  1  0
  2  3  1  0
  3  4  2  0
  3  5  1  0
  5  6  1  0
  6  7  1  0
  7  8  1  0
  8  9  2  0
  8 10  1  0
 10 11  1  0
 11 12  1  0
 12 13  1  0
 12 14  2  0
 11 15  2  0
 15 16  1  0
 16 17  2  0
 17 18  1  0
 18 19  2  0
 19 20  1  0
 19 21  1  0
 21 22  2  0
 22 10  1  0
 22 16  1  0
  1 23  1  0
  1 24  1  0
  1 25  1  0
  5 26  1  0
  5 27  1  0
  6 28  1  0
  6 29  1  0
  7 30  1  0
  7 31  1  0
 13 32  1  0
 15 33  1  0
 17 34  1  0
 18 35  1  0
 20 36  1  0
 20 37  1  0
 20 38  1  0
 21 39  1  0
M  CHG  2   2  -1  13  -1
M  END
>  <UniqueID>  (95) 
95

>  <SMILES>  (95) 
C[N-]C(=O)CCCC(=O)n1c(C([NH-])=O)cc2ccc(C)cc21

>  <Energy>  (95) 
69.78805190159292

>  <Genealogy>  (95) 
C[N-]C(=O)CCCC(=O)n1c(C([NH-])=O)cc2ccc(C)cc21 (protonated)
C[N-]C(=O)CCCC(=O)n1c(C([NH-])=O)cc2ccc(C)cc21 (3D coordinates assigned)
C[N-]C(=O)CCCC(=O)n1c(C([NH-])=O)cc2ccc(C)cc21 (optimized conformer: 69.78805190159292 kcal/mol)

>  <smiles>  (95) 
CNC(=O)CCCC(=O)n1c(C(N)=O)cc2ccc(C)cc21

>  <score_type>  (95) 
oracle

>  <origin>  (95) 
adg

>  <m_score__min__energy>  (95) 
-6.6500000000000004

>  <m_primary>  (95) 
energy

$$$$
95:0
     RDKit          3D

 36 38  0  0  0  0  0  0  0  0999 V2000
  141.2350  160.3040  134.0290 N   0  0  0  0  0  0  0  0  0  0  0  0
  142.1110  159.4570  134.7740 C   0  0  0  0  0  0  0  0  0  0  0  0
  141.7470  159.0310  135.9020 O   0  0  0  0  0  0  0  0  0  0  0  0
  143.4590  159.1260  134.2730 C   0  0  0  0  0  0  0  0  0  0  0  0
  143.9090  157.8200  134.1000 C   0  0  0  0  0  0  0  0  0  0  0  0
  145.2190  157.9380  133.6980 C   0  0  0  0  0  0  0  0  0  0  0  0
  146.1510  156.9520  133.3860 C   0  0  0  0  0  0  0  0  0  0  0  0
  147.4280  157.3620  132.9710 C   0  0  0  0  0  0  0  0  0  0  0  0
  147.7490  158.7400  132.8700 C   0  0  0  0  0  0  0  0  0  0  0  0
  149.1140  159.1620  132.3860 C   0  0  0  0  0  0  0  0  0  0  0  0
  149.1200  159.4470  130.8710 C   0  0  0  0  0  0  0  0  0  0  0  0
  148.7940  158.2950  130.1230 O   0  0  0  0  0  0  0  0  0  0  0  0
  150.4120  160.1190  130.3860 C   0  0  0  0  0  0  0  0  0  0  0  0
  149.6060  161.3340  129.9390 C   0  0  0  0  0  0  0  0  0  0  0  0
  148.3210  160.6880  130.4480 C   0  0  0  0  0  0  0  0  0  0  0  0
  146.7790  159.7120  133.2020 C   0  0  0  0  0  0  0  0  0  0  0  0
  145.5170  159.2760  133.6250 C   0  0  0  0  0  0  0  0  0  0  0  0
  144.4430  160.0200  133.9760 N   0  0  0  0  0  0  0  0  0  0  0  0
  144.3310  161.4540  133.9310 C   0  0  0  0  0  0  0  0  0  0  0  0
  143.3420  162.0020  133.3820 O   0  0  0  0  0  0  0  0  0  0  0  0
  145.3290  162.2530  134.4820 O   0  0  0  0  0  0  0  0  0  0  0  0
  140.2610  160.4790  134.3660 H   0  0  0  0  0  0  0  0  0  0  0  0
  141.5680  160.8030  133.1740 H   0  0  0  0  0  0  0  0  0  0  0  0
  143.3386  156.8919  134.2523 H   0  0  0  0  0  0  0  0  0  0  0  0
  145.8949  155.8850  133.4623 H   0  0  0  0  0  0  0  0  0  0  0  0
  148.1877  156.6066  132.7215 H   0  0  0  0  0  0  0  0  0  0  0  0
  149.4155  160.0744  132.9214 H   0  0  0  0  0  0  0  0  0  0  0  0
  149.8166  158.3387  132.5824 H   0  0  0  0  0  0  0  0  0  0  0  0
  148.7840  157.5100  130.7320 H   0  0  0  0  0  0  0  0  0  0  0  0
  151.1371  160.3297  131.1859 H   0  0  0  0  0  0  0  0  0  0  0  0
  151.0800  159.6019  129.6814 H   0  0  0  0  0  0  0  0  0  0  0  0
  149.8749  162.2648  130.4598 H   0  0  0  0  0  0  0  0  0  0  0  0
  149.6715  161.6873  128.8994 H   0  0  0  0  0  0  0  0  0  0  0  0
  147.8478  161.2248  131.2834 H   0  0  0  0  0  0  0  0  0  0  0  0
  147.4453  160.5911  129.7894 H   0  0  0  0  0  0  0  0  0  0  0  0
  147.0093  160.7852  133.1300 H   0  0  0  0  0  0  0  0  0  0  0  0
  1  2  1  0
  2  3  2  0
  2  4  1  0
  4  5  2  0
  5  6  1  0
  6  7  2  0
  7  8  1  0
  8  9  2  0
  9 10  1  0
 10 11  1  0
 11 12  1  0
 11 13  1  0
 13 14  1  0
 14 15  1  0
  9 16  1  0
 16 17  2  0
 17 18  1  0
 18 19  1  0
 19 20  2  0
 19 21  1  0
 18  4  1  0
 17  6  1  0
 15 11  1  0
  1 22  1  0
  1 23  1  0
  5 24  1  0
  7 25  1  0
  8 26  1  0
 10 27  1  0
 10 28  1  0
 12 29  1  0
 13 30  1  0
 13 31  1  0
 14 32  1  0
 14 33  1  0
 15 34  1  0
 15 35  1  0
 16 36  1  0
M  CHG  1  21  -1
M  END
>  <UniqueID>  (96) 
96

>  <SMILES>  (96) 
NC(=O)c1cc2ccc(CC3(O)CCC3)cc2n1C(=O)[O-]

>  <Energy>  (96) 
137.9482386680926

>  <Genealogy>  (96) 
NC(=O)c1cc2ccc(CC3(O)CCC3)cc2n1C(=O)[O-] (protonated)
NC(=O)c1cc2ccc(CC3(O)CCC3)cc2n1C(=O)[O-] (3D coordinates assigned)
NC(=O)c1cc2ccc(CC3(O)CCC3)cc2n1C(=O)[O-] (nonaromatic ring conformer: 137.9482386680926 kcal/mol)

>  <smiles>  (96) 
NC(=O)c1cc2ccc(CC3(O)CCC3)cc2n1C(=O)O

>  <score_type>  (96) 
oracle

>  <origin>  (96) 
adg

>  <m_score__min__energy>  (96) 
-7.5800000000000001

>  <m_primary>  (96) 
energy

$$$$
96:0
     RDKit          3D

 49 51  0  0  0  0  0  0  0  0999 V2000
  138.7720  158.9760  130.3720 C   0  0  0  0  0  0  0  0  0  0  0  0
  138.6920  158.1590  131.5190 O   0  0  0  0  0  0  0  0  0  0  0  0
  138.6740  158.9500  132.6930 C   0  0  0  0  0  0  0  0  0  0  0  0
  140.0410  159.6020  132.9540 C   0  0  0  0  0  0  0  0  0  0  0  0
  140.6220  159.2300  134.3190 C   0  0  0  0  0  0  0  0  0  0  0  0
  141.1200  157.8970  134.2880 O   0  0  0  0  0  0  0  0  0  0  0  0
  142.1950  157.5030  133.4880 C   0  0  0  0  0  0  0  0  0  0  0  0
  142.7610  158.3390  132.7330 O   0  0  0  0  0  0  0  0  0  0  0  0
  142.6490  156.1390  133.5280 N   0  0  0  0  0  0  0  0  0  0  0  0
  141.8910  155.0140  133.3840 C   0  0  0  0  0  0  0  0  0  0  0  0
  140.4690  154.9730  132.9870 C   0  0  0  0  0  0  0  0  0  0  0  0
  139.7700  156.1600  132.6070 N   0  0  0  0  0  0  0  0  0  0  0  0
  139.8770  153.8630  132.9260 O   0  0  0  0  0  0  0  0  0  0  0  0
  142.6510  153.8730  133.6200 C   0  0  0  0  0  0  0  0  0  0  0  0
  143.9150  154.3320  133.9060 C   0  0  0  0  0  0  0  0  0  0  0  0
  145.0690  153.6230  134.2290 C   0  0  0  0  0  0  0  0  0  0  0  0
  146.2330  154.3550  134.5110 C   0  0  0  0  0  0  0  0  0  0  0  0
  146.2190  155.7710  134.4870 C   0  0  0  0  0  0  0  0  0  0  0  0
  147.4790  156.5440  134.7660 C   0  0  0  0  0  0  0  0  0  0  0  0
  147.7230  157.5490  133.6730 C   0  0  0  0  0  0  0  0  0  0  0  0
  147.0600  158.7870  133.6880 C   0  0  0  0  0  0  0  0  0  0  0  0
  147.3150  159.7350  132.6930 C   0  0  0  0  0  0  0  0  0  0  0  0
  148.2410  159.4590  131.6810 C   0  0  0  0  0  0  0  0  0  0  0  0
  148.5620  160.6510  130.4350 Cl  0  0  0  0  0  0  0  0  0  0  0  0
  148.9130  158.2320  131.6680 C   0  0  0  0  0  0  0  0  0  0  0  0
  148.6600  157.2820  132.6610 C   0  0  0  0  0  0  0  0  0  0  0  0
  145.0310  156.4560  134.1500 C   0  0  0  0  0  0  0  0  0  0  0  0
  143.8900  155.7030  133.8480 C   0  0  0  0  0  0  0  0  0  0  0  0
  138.8750  160.0277  130.6774 H   0  0  0  0  0  0  0  0  0  0  0  0
  139.6456  158.6812  129.7720 H   0  0  0  0  0  0  0  0  0  0  0  0
  137.8578  158.8562  129.7720 H   0  0  0  0  0  0  0  0  0  0  0  0
  137.9169  159.7400  132.5801 H   0  0  0  0  0  0  0  0  0  0  0  0
  138.4347  158.2971  133.5453 H   0  0  0  0  0  0  0  0  0  0  0  0
  140.7420  159.2745  132.1722 H   0  0  0  0  0  0  0  0  0  0  0  0
  139.8968  160.6924  132.9406 H   0  0  0  0  0  0  0  0  0  0  0  0
  141.4423  159.9199  134.5663 H   0  0  0  0  0  0  0  0  0  0  0  0
  139.8315  159.3030  135.0805 H   0  0  0  0  0  0  0  0  0  0  0  0
  138.7530  156.1180  132.3780 H   0  0  0  0  0  0  0  0  0  0  0  0
  140.2740  157.0660  132.4880 H   0  0  0  0  0  0  0  0  0  0  0  0
  142.3128  152.8269  133.5852 H   0  0  0  0  0  0  0  0  0  0  0  0
  145.0685  152.5235  134.2621 H   0  0  0  0  0  0  0  0  0  0  0  0
  147.1652  153.8236  134.7530 H   0  0  0  0  0  0  0  0  0  0  0  0
  147.3780  157.0694  135.7271 H   0  0  0  0  0  0  0  0  0  0  0  0
  148.3276  155.8454  134.8081 H   0  0  0  0  0  0  0  0  0  0  0  0
  146.3370  159.0115  134.4861 H   0  0  0  0  0  0  0  0  0  0  0  0
  146.7867  160.6998  132.7056 H   0  0  0  0  0  0  0  0  0  0  0  0
  149.6425  158.0145  130.8739 H   0  0  0  0  0  0  0  0  0  0  0  0
  149.1964  156.3217  132.6502 H   0  0  0  0  0  0  0  0  0  0  0  0
  145.0028  157.5554  134.1253 H   0  0  0  0  0  0  0  0  0  0  0  0
  1  2  1  0
  2  3  1  0
  3  4  1  0
  4  5  1  0
  5  6  1  0
  6  7  1  0
  7  8  2  0
  7  9  1  0
  9 10  1  0
 10 11  1  0
 11 12  1  0
 11 13  2  0
 10 14  2  0
 14 15  1  0
 15 16  2  0
 16 17  1  0
 17 18  2  0
 18 19  1  0
 19 20  1  0
 20 21  2  0
 21 22  1  0
 22 23  2  0
 23 24  1  0
 23 25  1  0
 25 26  2  0
 18 27  1  0
 27 28  2  0
 28  9  1  0
 28 15  1  0
 26 20  1  0
  1 29  1  0
  1 30  1  0
  1 31  1  0
  3 32  1  0
  3 33  1  0
  4 34  1  0
  4 35  1  0
  5 36  1  0
  5 37  1  0
 12 38  1  0
 12 39  1  0
 14 40  1  0
 16 41  1  0
 17 42  1  0
 19 43  1  0
 19 44  1  0
 21 45  1  0
 22 46  1  0
 25 47  1  0
 26 48  1  0
 27 49  1  0
M  END
>  <UniqueID>  (97) 
97

>  <SMILES>  (97) 
COCCCOC(=O)n1c(C(N)=O)cc2ccc(Cc3ccc(Cl)cc3)cc21

>  <Energy>  (97) 
83.79199281136653

>  <Genealogy>  (97) 
COCCCOC(=O)n1c(C(N)=O)cc2ccc(Cc3ccc(Cl)cc3)cc21 (3D coordinates assigned)
COCCCOC(=O)n1c(C(N)=O)cc2ccc(Cc3ccc(Cl)cc3)cc21 (optimized conformer: 83.79199281136653 kcal/mol)

>  <smiles>  (97) 
COCCCOC(=O)n1c(C(N)=O)cc2ccc(Cc3ccc(Cl)cc3)cc21

>  <score_type>  (97) 
oracle

>  <origin>  (97) 
adg

>  <m_score__min__energy>  (97) 
-8.9399999999999995

>  <m_primary>  (97) 
energy

$$$$
97:0
     RDKit          3D

 36 37  0  0  0  0  0  0  0  0999 V2000
  141.6470  157.3740  138.4490 C   0  0  0  0  0  0  0  0  0  0  0  0
  140.9580  156.7200  137.2580 C   0  0  0  0  0  0  0  0  0  0  0  0
  139.7540  157.4120  136.9380 O   0  0  0  0  0  0  0  0  0  0  0  0
  139.5900  158.1890  135.7810 C   0  0  0  0  0  0  0  0  0  0  0  0
  138.7350  157.8760  134.9100 O   0  0  0  0  0  0  0  0  0  0  0  0
  140.5340  159.3280  135.5330 C   0  0  0  0  0  0  0  0  0  0  0  0
  141.1560  159.2980  134.1590 C   0  0  0  0  0  0  0  0  0  0  0  0
  140.5120  159.7810  133.1840 O   0  0  0  0  0  0  0  0  0  0  0  0
  142.4940  158.7980  133.9470 N   0  0  0  0  0  0  0  0  0  0  0  0
  142.8470  157.5330  133.5660 C   0  0  0  0  0  0  0  0  0  0  0  0
  141.9520  156.3610  133.4800 C   0  0  0  0  0  0  0  0  0  0  0  0
  140.5560  156.5120  133.2380 N   0  0  0  0  0  0  0  0  0  0  0  0
  142.4230  155.2030  133.6650 O   0  0  0  0  0  0  0  0  0  0  0  0
  144.2150  157.4580  133.3140 C   0  0  0  0  0  0  0  0  0  0  0  0
  144.7000  158.7210  133.5480 C   0  0  0  0  0  0  0  0  0  0  0  0
  145.9950  159.2110  133.4320 C   0  0  0  0  0  0  0  0  0  0  0  0
  146.2160  160.5670  133.7140 C   0  0  0  0  0  0  0  0  0  0  0  0
  145.1370  161.4210  134.0680 C   0  0  0  0  0  0  0  0  0  0  0  0
  145.4000  162.8640  134.4260 C   0  0  0  0  0  0  0  0  0  0  0  0
  144.3930  163.6870  133.9480 F   0  0  0  0  0  0  0  0  0  0  0  0
  145.4650  162.9850  135.8010 F   0  0  0  0  0  0  0  0  0  0  0  0
  146.5990  163.2880  133.8830 F   0  0  0  0  0  0  0  0  0  0  0  0
  143.8330  160.8830  134.1760 C   0  0  0  0  0  0  0  0  0  0  0  0
  143.6420  159.5170  133.9260 C   0  0  0  0  0  0  0  0  0  0  0  0
  141.2248  156.9732  139.3823 H   0  0  0  0  0  0  0  0  0  0  0  0
  142.7252  157.1591  138.4123 H   0  0  0  0  0  0  0  0  0  0  0  0
  141.4885  158.4619  138.4123 H   0  0  0  0  0  0  0  0  0  0  0  0
  141.6328  156.7465  136.3897 H   0  0  0  0  0  0  0  0  0  0  0  0
  140.7131  155.6789  137.5154 H   0  0  0  0  0  0  0  0  0  0  0  0
  139.9799  160.2716  135.6451 H   0  0  0  0  0  0  0  0  0  0  0  0
  141.3518  159.2388  136.2633 H   0  0  0  0  0  0  0  0  0  0  0  0
  140.1060  157.4520  133.2780 H   0  0  0  0  0  0  0  0  0  0  0  0
  144.7861  156.5736  132.9949 H   0  0  0  0  0  0  0  0  0  0  0  0
  146.8232  158.5542  133.1277 H   0  0  0  0  0  0  0  0  0  0  0  0
  147.2365  160.9741  133.6605 H   0  0  0  0  0  0  0  0  0  0  0  0
  142.9837  161.5255  134.4514 H   0  0  0  0  0  0  0  0  0  0  0  0
  1  2  1  0
  2  3  1  0
  3  4  1  0
  4  5  2  0
  4  6  1  0
  6  7  1  0
  7  8  2  0
  7  9  1  0
  9 10  1  0
 10 11  1  0
 11 12  1  0
 11 13  2  0
 10 14  2  0
 14 15  1  0
 15 16  2  0
 16 17  1  0
 17 18  2  0
 18 19  1  0
 19 20  1  0
 19 21  1  0
 19 22  1  0
 18 23  1  0
 23 24  2  0
 24  9  1  0
 24 15  1  0
  1 25  1  0
  1 26  1  0
  1 27  1  0
  2 28  1  0
  2 29  1  0
  6 30  1  0
  6 31  1  0
 12 32  1  0
 14 33  1  0
 16 34  1  0
 17 35  1  0
 23 36  1  0
M  CHG  1  12  -1
M  END
>  <UniqueID>  (98) 
98

>  <SMILES>  (98) 
CCOC(=O)CC(=O)n1c(C([NH-])=O)cc2ccc(C(F)(F)F)cc21

>  <Energy>  (98) 
72.58776512983758

>  <Genealogy>  (98) 
CCOC(=O)CC(=O)n1c(C([NH-])=O)cc2ccc(C(F)(F)F)cc21 (protonated)
CCOC(=O)CC(=O)n1c(C([NH-])=O)cc2ccc(C(F)(F)F)cc21 (3D coordinates assigned)
CCOC(=O)CC(=O)n1c(C([NH-])=O)cc2ccc(C(F)(F)F)cc21 (optimized conformer: 72.58776512983758 kcal/mol)

>  <smiles>  (98) 
CCOC(=O)CC(=O)n1c(C(N)=O)cc2ccc(C(F)(F)F)cc21

>  <score_type>  (98) 
oracle

>  <origin>  (98) 
adg

>  <m_score__min__energy>  (98) 
-5.8099999999999996

>  <m_primary>  (98) 
energy

$$$$
98:0
     RDKit          3D

 46 49  0  0  0  0  0  0  0  0999 V2000
  140.2430  159.3170  136.0810 N   0  0  0  0  0  0  0  0  0  0  0  0
  141.3660  159.0330  135.2520 C   0  0  0  0  0  0  0  0  0  0  0  0
  142.0670  159.9840  134.8160 O   0  0  0  0  0  0  0  0  0  0  0  0
  141.6690  157.6360  134.8760 C   0  0  0  0  0  0  0  0  0  0  0  0
  142.8590  156.9920  135.2100 C   0  0  0  0  0  0  0  0  0  0  0  0
  142.7120  155.6990  134.7650 C   0  0  0  0  0  0  0  0  0  0  0  0
  143.5950  154.6250  134.8270 C   0  0  0  0  0  0  0  0  0  0  0  0
  143.1890  153.4050  134.2640 C   0  0  0  0  0  0  0  0  0  0  0  0
  141.9180  153.2760  133.6410 C   0  0  0  0  0  0  0  0  0  0  0  0
  141.5040  151.9830  133.0390 C   0  0  0  0  0  0  0  0  0  0  0  0
  142.4180  150.9300  132.8760 C   0  0  0  0  0  0  0  0  0  0  0  0
  142.0160  149.7560  132.3250 N   0  0  0  0  0  0  0  0  0  0  0  0
  140.7320  149.5710  131.9210 C   0  0  0  0  0  0  0  0  0  0  0  0
  140.3410  148.3200  131.3480 N   0  0  0  0  0  0  0  0  0  0  0  0
  139.0230  148.1260  130.7520 C   0  0  0  0  0  0  0  0  0  0  0  0
  139.0070  147.0660  129.6620 C   0  0  0  0  0  0  0  0  0  0  0  0
  138.9380  148.5410  129.2930 C   0  0  0  0  0  0  0  0  0  0  0  0
  139.8290  150.5770  132.0660 N   0  0  0  0  0  0  0  0  0  0  0  0
  140.1860  151.7690  132.6110 C   0  0  0  0  0  0  0  0  0  0  0  0
  141.0510  154.3940  133.5990 C   0  0  0  0  0  0  0  0  0  0  0  0
  141.4740  155.5930  134.1880 C   0  0  0  0  0  0  0  0  0  0  0  0
  140.8220  156.7740  134.2450 N   0  0  0  0  0  0  0  0  0  0  0  0
  139.5320  157.0640  133.6850 C   0  0  0  0  0  0  0  0  0  0  0  0
  138.8390  156.1350  133.1860 O   0  0  0  0  0  0  0  0  0  0  0  0
  139.0590  158.3820  133.6730 O   0  0  0  0  0  0  0  0  0  0  0  0
  139.5780  159.3930  132.8120 C   0  0  0  0  0  0  0  0  0  0  0  0
  138.9600  159.2870  131.4510 C   0  0  0  0  0  0  0  0  0  0  0  0
  138.0450  158.2330  131.1450 N   0  0  0  0  0  0  0  0  0  0  0  0
  139.2540  160.1350  130.5660 O   0  0  0  0  0  0  0  0  0  0  0  0
  139.2690  159.1660  135.7360 H   0  0  0  0  0  0  0  0  0  0  0  0
  143.7310  157.4259  135.7212 H   0  0  0  0  0  0  0  0  0  0  0  0
  144.5813  154.7291  135.3028 H   0  0  0  0  0  0  0  0  0  0  0  0
  143.8635  152.5371  134.3055 H   0  0  0  0  0  0  0  0  0  0  0  0
  143.4629  151.0564  133.1956 H   0  0  0  0  0  0  0  0  0  0  0  0
  141.0510  147.5560  131.2670 H   0  0  0  0  0  0  0  0  0  0  0  0
  138.4283  148.3329  131.6539 H   0  0  0  0  0  0  0  0  0  0  0  0
  139.9163  146.4864  129.4447 H   0  0  0  0  0  0  0  0  0  0  0  0
  138.3914  146.1802  129.4467 H   0  0  0  0  0  0  0  0  0  0  0  0
  139.7974  149.0276  128.8086 H   0  0  0  0  0  0  0  0  0  0  0  0
  138.2515  149.1632  128.7000 H   0  0  0  0  0  0  0  0  0  0  0  0
  139.4386  152.5691  132.7169 H   0  0  0  0  0  0  0  0  0  0  0  0
  140.0661  154.3231  133.1143 H   0  0  0  0  0  0  0  0  0  0  0  0
  139.3519  160.3822  133.2368 H   0  0  0  0  0  0  0  0  0  0  0  0
  140.6662  159.2607  132.7213 H   0  0  0  0  0  0  0  0  0  0  0  0
  137.7950  157.5170  131.8620 H   0  0  0  0  0  0  0  0  0  0  0  0
  137.6170  158.1660  130.1950 H   0  0  0  0  0  0  0  0  0  0  0  0
  1  2  1  0
  2  3  2  0
  2  4  1  0
  4  5  2  0
  5  6  1  0
  6  7  2  0
  7  8  1  0
  8  9  2  0
  9 10  1  0
 10 11  2  0
 11 12  1  0
 12 13  2  0
 13 14  1  0
 14 15  1  0
 15 16  1  0
 16 17  1  0
 13 18  1  0
 18 19  2  0
  9 20  1  0
 20 21  2  0
 21 22  1  0
 22 23  1  0
 23 24  2  0
 23 25  1  0
 25 26  1  0
 26 27  1  0
 27 28  1  0
 27 29  2  0
 22  4  1  0
 21  6  1  0
 19 10  1  0
 17 15  1  0
  1 30  1  0
  5 31  1  0
  7 32  1  0
  8 33  1  0
 11 34  1  0
 14 35  1  0
 15 36  1  0
 16 37  1  0
 16 38  1  0
 17 39  1  0
 17 40  1  0
 19 41  1  0
 20 42  1  0
 26 43  1  0
 26 44  1  0
 28 45  1  0
 28 46  1  0
M  CHG  1   1  -1
M  END
>  <UniqueID>  (99) 
99

>  <SMILES>  (99) 
[NH-]C(=O)c1cc2ccc(-c3cnc(NC4CC4)nc3)cc2n1C(=O)OCC(N)=O

>  <Energy>  (99) 
353.0041520118694

>  <Genealogy>  (99) 
[NH-]C(=O)c1cc2ccc(-c3cnc(NC4CC4)nc3)cc2n1C(=O)OCC(N)=O (protonated)
[NH-]C(=O)c1cc2ccc(-c3cnc(NC4CC4)nc3)cc2n1C(=O)OCC(N)=O (3D coordinates assigned)
[NH-]C(=O)c1cc2ccc(-c3cnc(NC4CC4)nc3)cc2n1C(=O)OCC(N)=O (nonaromatic ring conformer: 353.0041520118694 kcal/mol)

>  <smiles>  (99) 
NC(=O)COC(=O)n1c(C(N)=O)cc2ccc(-c3cnc(NC4CC4)nc3)cc21

>  <score_type>  (99) 
oracle

>  <origin>  (99) 
adg

>  <m_score__min__energy>  (99) 
-8.9100000000000001

>  <m_primary>  (99) 
energy

$$$$
