0:0
     RDKit          3D

 40 42  0  0  0  0  0  0  0  0999 V2000
  141.2520  158.4670  132.7910 C   0  0  0  0  0  0  0  0  0  0  0  0
  142.5400  158.0320  133.2110 O   0  0  0  0  0  0  0  0  0  0  0  0
  143.3430  158.7800  134.0760 C   0  0  0  0  0  0  0  0  0  0  0  0
  142.8640  159.2480  135.1440 O   0  0  0  0  0  0  0  0  0  0  0  0
  144.7150  159.0330  133.7330 N   0  0  0  0  0  0  0  0  0  0  0  0
  145.3710  160.2280  133.7620 C   0  0  0  0  0  0  0  0  0  0  0  0
  144.7550  161.5510  133.9900 C   0  0  0  0  0  0  0  0  0  0  0  0
  143.3710  161.7720  133.7260 N   0  0  0  0  0  0  0  0  0  0  0  0
  145.4690  162.5130  134.3780 O   0  0  0  0  0  0  0  0  0  0  0  0
  146.7180  160.0520  133.4600 C   0  0  0  0  0  0  0  0  0  0  0  0
  146.8680  158.7020  133.2370 C   0  0  0  0  0  0  0  0  0  0  0  0
  148.0000  157.9730  132.9070 C   0  0  0  0  0  0  0  0  0  0  0  0
  147.8750  156.5830  132.7610 C   0  0  0  0  0  0  0  0  0  0  0  0
  146.6220  155.9220  132.9580 C   0  0  0  0  0  0  0  0  0  0  0  0
  146.5040  154.4710  132.8160 N   0  0  0  0  0  0  0  0  0  0  0  0
  145.1560  153.8760  132.6660 C   0  0  0  0  0  0  0  0  0  0  0  0
  145.1360  152.3440  132.6090 C   0  0  0  0  0  0  0  0  0  0  0  0
  146.2850  151.8240  131.8720 N   0  0  0  0  0  0  0  0  0  0  0  0
  147.5070  152.1500  132.6020 C   0  0  0  0  0  0  0  0  0  0  0  0
  147.7360  153.6650  132.6580 C   0  0  0  0  0  0  0  0  0  0  0  0
  145.4910  156.7230  133.2900 C   0  0  0  0  0  0  0  0  0  0  0  0
  145.6480  158.1090  133.4080 C   0  0  0  0  0  0  0  0  0  0  0  0
  140.6301  158.6770  133.6737 H   0  0  0  0  0  0  0  0  0  0  0  0
  141.3525  159.3810  132.1873 H   0  0  0  0  0  0  0  0  0  0  0  0
  140.7777  157.6792  132.1873 H   0  0  0  0  0  0  0  0  0  0  0  0
  142.6580  161.0440  133.9560 H   0  0  0  0  0  0  0  0  0  0  0  0
  147.4971  160.8269  133.4101 H   0  0  0  0  0  0  0  0  0  0  0  0
  148.9703  158.4709  132.7634 H   0  0  0  0  0  0  0  0  0  0  0  0
  148.7599  155.9888  132.4891 H   0  0  0  0  0  0  0  0  0  0  0  0
  144.5431  154.1953  133.5218 H   0  0  0  0  0  0  0  0  0  0  0  0
  144.7660  154.2285  131.6998 H   0  0  0  0  0  0  0  0  0  0  0  0
  145.1591  151.9472  133.6347 H   0  0  0  0  0  0  0  0  0  0  0  0
  144.2192  152.0284  132.0894 H   0  0  0  0  0  0  0  0  0  0  0  0
  146.2000  150.7820  131.8020 H   0  0  0  0  0  0  0  0  0  0  0  0
  146.3160  152.2260  130.9050 H   0  0  0  0  0  0  0  0  0  0  0  0
  147.4256  151.7619  133.6280 H   0  0  0  0  0  0  0  0  0  0  0  0
  148.3575  151.6898  132.0777 H   0  0  0  0  0  0  0  0  0  0  0  0
  148.3980  153.8803  133.5097 H   0  0  0  0  0  0  0  0  0  0  0  0
  148.1716  153.9496  131.6889 H   0  0  0  0  0  0  0  0  0  0  0  0
  144.5072  156.2581  133.4515 H   0  0  0  0  0  0  0  0  0  0  0  0
  1  2  1  0
  2  3  1  0
  3  4  2  0
  3  5  1  0
  5  6  1  0
  6  7  1  0
  7  8  1  0
  7  9  2  0
  6 10  2  0
 10 11  1  0
 11 12  2  0
 12 13  1  0
 13 14  2  0
 14 15  1  0
 15 16  1  0
 16 17  1  0
 17 18  1  0
 18 19  1  0
 19 20  1  0
 14 21  1  0
 21 22  2  0
 22  5  1  0
 22 11  1  0
 20 15  1  0
  1 23  1  0
  1 24  1  0
  1 25  1  0
  8 26  1  0
 10 27  1  0
 12 28  1  0
 13 29  1  0
 16 30  1  0
 16 31  1  0
 17 32  1  0
 17 33  1  0
 18 34  1  0
 18 35  1  0
 19 36  1  0
 19 37  1  0
 20 38  1  0
 20 39  1  0
 21 40  1  0
M  CHG  2   8  -1  18   1
M  END
>  <UniqueID>  (1) 
1

>  <SMILES>  (1) 
COC(=O)n1c(C([NH-])=O)cc2ccc(N3CC[NH2+]CC3)cc21

>  <Energy>  (1) 
85.40027560454425

>  <Genealogy>  (1) 
COC(=O)n1c(C([NH-])=O)cc2ccc(N3CC[NH2+]CC3)cc21 (protonated)
COC(=O)n1c(C([NH-])=O)cc2ccc(N3CC[NH2+]CC3)cc21 (3D coordinates assigned)
COC(=O)n1c(C([NH-])=O)cc2ccc(N3CC[NH2+]CC3)cc21 (nonaromatic ring conformer: 85.40027560454425 kcal/mol)

>  <smiles>  (1) 
COC(=O)n1c(C(N)=O)cc2ccc(N3CCNCC3)cc21

>  <score_type>  (1) 
oracle

>  <origin>  (1) 
adg

>  <m_score__min__energy>  (1) 
-6.1600000000000001

>  <m_primary>  (1) 
energy

$$$$
1:0
     RDKit          3D

 46 47  0  0  0  0  0  0  0  0999 V2000
  140.9630  153.2400  132.9690 C   0  0  0  0  0  0  0  0  0  0  0  0
  141.1970  151.7910  133.3780 C   0  0  0  0  0  0  0  0  0  0  0  0
  141.3950  151.6910  134.8200 N   0  0  0  0  0  0  0  0  0  0  0  0
  142.1630  152.6270  135.5850 C   0  0  0  0  0  0  0  0  0  0  0  0
  143.2960  153.0050  135.1770 O   0  0  0  0  0  0  0  0  0  0  0  0
  141.6240  153.1640  136.8020 N   0  0  0  0  0  0  0  0  0  0  0  0
  141.1520  152.4830  137.8850 C   0  0  0  0  0  0  0  0  0  0  0  0
  140.9840  151.0180  137.9820 C   0  0  0  0  0  0  0  0  0  0  0  0
  140.2190  150.2990  137.0180 N   0  0  0  0  0  0  0  0  0  0  0  0
  141.4880  150.3950  138.9560 O   0  0  0  0  0  0  0  0  0  0  0  0
  140.7480  153.3730  138.8820 C   0  0  0  0  0  0  0  0  0  0  0  0
  140.9770  154.6280  138.3650 C   0  0  0  0  0  0  0  0  0  0  0  0
  140.7330  155.8860  138.9140 C   0  0  0  0  0  0  0  0  0  0  0  0
  141.0590  157.0150  138.1430 C   0  0  0  0  0  0  0  0  0  0  0  0
  141.6470  156.8690  136.8610 C   0  0  0  0  0  0  0  0  0  0  0  0
  141.9350  158.0760  136.0110 C   0  0  0  0  0  0  0  0  0  0  0  0
  140.6830  158.8720  135.8170 C   0  0  0  0  0  0  0  0  0  0  0  0
  140.5820  160.0160  136.3370 O   0  0  0  0  0  0  0  0  0  0  0  0
  139.6420  158.3210  135.0520 O   0  0  0  0  0  0  0  0  0  0  0  0
  139.7270  157.8620  133.6960 C   0  0  0  0  0  0  0  0  0  0  0  0
  138.3970  158.2250  133.0160 C   0  0  0  0  0  0  0  0  0  0  0  0
  140.8780  158.5720  132.9540 C   0  0  0  0  0  0  0  0  0  0  0  0
  139.9100  156.3340  133.6520 C   0  0  0  0  0  0  0  0  0  0  0  0
  141.8810  155.5770  136.3400 C   0  0  0  0  0  0  0  0  0  0  0  0
  141.5100  154.4730  137.1120 C   0  0  0  0  0  0  0  0  0  0  0  0
  140.8623  153.8635  133.8696 H   0  0  0  0  0  0  0  0  0  0  0  0
  141.8155  153.5945  132.3711 H   0  0  0  0  0  0  0  0  0  0  0  0
  140.0422  153.3081  132.3711 H   0  0  0  0  0  0  0  0  0  0  0  0
  140.3230  151.1883  133.0903 H   0  0  0  0  0  0  0  0  0  0  0  0
  142.0988  151.4197  132.8692 H   0  0  0  0  0  0  0  0  0  0  0  0
  140.5920  150.1120  136.0580 H   0  0  0  0  0  0  0  0  0  0  0  0
  140.3346  153.1242  139.8705 H   0  0  0  0  0  0  0  0  0  0  0  0
  140.2989  155.9917  139.9192 H   0  0  0  0  0  0  0  0  0  0  0  0
  140.8561  158.0214  138.5379 H   0  0  0  0  0  0  0  0  0  0  0  0
  142.6911  158.7008  136.5089 H   0  0  0  0  0  0  0  0  0  0  0  0
  142.3112  157.7476  135.0309 H   0  0  0  0  0  0  0  0  0  0  0  0
  137.6372  158.4324  133.7839 H   0  0  0  0  0  0  0  0  0  0  0  0
  138.5375  159.1176  132.3888 H   0  0  0  0  0  0  0  0  0  0  0  0
  138.0646  157.3847  132.3888 H   0  0  0  0  0  0  0  0  0  0  0  0
  141.5762  159.0027  133.6868 H   0  0  0  0  0  0  0  0  0  0  0  0
  141.4108  157.8454  132.3230 H   0  0  0  0  0  0  0  0  0  0  0  0
  140.4678  159.3742  132.3230 H   0  0  0  0  0  0  0  0  0  0  0  0
  139.9571  155.9407  134.6782 H   0  0  0  0  0  0  0  0  0  0  0  0
  139.0601  155.8780  133.1232 H   0  0  0  0  0  0  0  0  0  0  0  0
  140.8436  156.0916  133.1232 H   0  0  0  0  0  0  0  0  0  0  0  0
  142.3438  155.4433  135.3511 H   0  0  0  0  0  0  0  0  0  0  0  0
  1  2  1  0
  2  3  1  0
  3  4  1  0
  4  5  2  0
  4  6  1  0
  6  7  1  0
  7  8  1  0
  8  9  1  0
  8 10  2  0
  7 11  2  0
 11 12  1  0
 12 13  2  0
 13 14  1  0
 14 15  2  0
 15 16  1  0
 16 17  1  0
 17 18  2  0
 17 19  1  0
 19 20  1  0
 20 21  1  0
 20 22  1  0
 20 23  1  0
 15 24  1  0
 24 25  2  0
 25  6  1  0
 25 12  1  0
  1 26  1  0
  1 27  1  0
  1 28  1  0
  2 29  1  0
  2 30  1  0
  9 31  1  0
 11 32  1  0
 13 33  1  0
 14 34  1  0
 16 35  1  0
 16 36  1  0
 21 37  1  0
 21 38  1  0
 21 39  1  0
 22 40  1  0
 22 41  1  0
 22 42  1  0
 23 43  1  0
 23 44  1  0
 23 45  1  0
 24 46  1  0
M  CHG  2   3  -1   9  -1
M  END
>  <UniqueID>  (2) 
2

>  <SMILES>  (2) 
CC[N-]C(=O)n1c(C([NH-])=O)cc2ccc(CC(=O)OC(C)(C)C)cc21

>  <Energy>  (2) 
73.09862749581178

>  <Genealogy>  (2) 
CC[N-]C(=O)n1c(C([NH-])=O)cc2ccc(CC(=O)OC(C)(C)C)cc21 (protonated)
CC[N-]C(=O)n1c(C([NH-])=O)cc2ccc(CC(=O)OC(C)(C)C)cc21 (3D coordinates assigned)
CC[N-]C(=O)n1c(C([NH-])=O)cc2ccc(CC(=O)OC(C)(C)C)cc21 (optimized conformer: 73.09862749581178 kcal/mol)

>  <smiles>  (2) 
CCNC(=O)n1c(C(N)=O)cc2ccc(CC(=O)OC(C)(C)C)cc21

>  <score_type>  (2) 
oracle

>  <origin>  (2) 
adg

>  <m_score__min__energy>  (2) 
-7.6500000000000004

>  <m_primary>  (2) 
energy

$$$$
2:0
     RDKit          3D

 34 35  0  0  0  0  0  0  0  0999 V2000
  149.3730  152.0650  132.2140 C   0  0  0  0  0  0  0  0  0  0  0  0
  148.5060  153.1920  132.2320 O   0  0  0  0  0  0  0  0  0  0  0  0
  148.9560  154.4850  132.5150 C   0  0  0  0  0  0  0  0  0  0  0  0
  150.1590  154.7990  132.3000 O   0  0  0  0  0  0  0  0  0  0  0  0
  148.0440  155.4620  133.0460 N   0  0  0  0  0  0  0  0  0  0  0  0
  146.9950  155.2440  133.8890 C   0  0  0  0  0  0  0  0  0  0  0  0
  146.4770  153.9250  134.3030 C   0  0  0  0  0  0  0  0  0  0  0  0
  146.2570  152.8830  133.3500 N   0  0  0  0  0  0  0  0  0  0  0  0
  146.1700  153.7320  135.5090 O   0  0  0  0  0  0  0  0  0  0  0  0
  146.4240  156.4490  134.2850 C   0  0  0  0  0  0  0  0  0  0  0  0
  147.1530  157.4250  133.6450 C   0  0  0  0  0  0  0  0  0  0  0  0
  147.0310  158.8110  133.6970 C   0  0  0  0  0  0  0  0  0  0  0  0
  147.9510  159.5800  132.9650 C   0  0  0  0  0  0  0  0  0  0  0  0
  148.9730  158.9560  132.2070 C   0  0  0  0  0  0  0  0  0  0  0  0
  149.9760  159.7980  131.4610 C   0  0  0  0  0  0  0  0  0  0  0  0
  149.3690  160.4490  130.2100 C   0  0  0  0  0  0  0  0  0  0  0  0
  148.9640  161.8750  130.4530 C   0  0  0  0  0  0  0  0  0  0  0  0
  149.6050  162.7940  129.9710 O   0  0  0  0  0  0  0  0  0  0  0  0
  149.0690  157.5470  132.1820 C   0  0  0  0  0  0  0  0  0  0  0  0
  148.1260  156.8030  132.9030 C   0  0  0  0  0  0  0  0  0  0  0  0
  149.6046  151.7640  133.2464 H   0  0  0  0  0  0  0  0  0  0  0  0
  148.8807  151.2320  131.6909 H   0  0  0  0  0  0  0  0  0  0  0  0
  150.3044  152.3272  131.6909 H   0  0  0  0  0  0  0  0  0  0  0  0
  146.3390  153.0640  132.3260 H   0  0  0  0  0  0  0  0  0  0  0  0
  145.9280  151.9450  133.6680 H   0  0  0  0  0  0  0  0  0  0  0  0
  145.5712  156.5914  134.9650 H   0  0  0  0  0  0  0  0  0  0  0  0
  146.2392  159.2888  134.2925 H   0  0  0  0  0  0  0  0  0  0  0  0
  147.8774  160.6774  132.9803 H   0  0  0  0  0  0  0  0  0  0  0  0
  150.3417  160.5902  132.1308 H   0  0  0  0  0  0  0  0  0  0  0  0
  150.7950  159.1396  131.1359 H   0  0  0  0  0  0  0  0  0  0  0  0
  150.1141  160.4252  129.4011 H   0  0  0  0  0  0  0  0  0  0  0  0
  148.4659  159.8827  129.9387 H   0  0  0  0  0  0  0  0  0  0  0  0
  148.0808  162.0925  131.0716 H   0  0  0  0  0  0  0  0  0  0  0  0
  149.8645  157.0463  131.6106 H   0  0  0  0  0  0  0  0  0  0  0  0
  1  2  1  0
  2  3  1  0
  3  4  2  0
  3  5  1  0
  5  6  1  0
  6  7  1  0
  7  8  1  0
  7  9  2  0
  6 10  2  0
 10 11  1  0
 11 12  2  0
 12 13  1  0
 13 14  2  0
 14 15  1  0
 15 16  1  0
 16 17  1  0
 17 18  2  0
 14 19  1  0
 19 20  2  0
 20  5  1  0
 20 11  1  0
  1 21  1  0
  1 22  1  0
  1 23  1  0
  8 24  1  0
  8 25  1  0
 10 26  1  0
 12 27  1  0
 13 28  1  0
 15 29  1  0
 15 30  1  0
 16 31  1  0
 16 32  1  0
 17 33  1  0
 19 34  1  0
M  END
>  <UniqueID>  (3) 
3

>  <SMILES>  (3) 
COC(=O)n1c(C(N)=O)cc2ccc(CCC=O)cc21

>  <Energy>  (3) 
67.80123414611512

>  <Genealogy>  (3) 
COC(=O)n1c(C(N)=O)cc2ccc(CCC=O)cc21 (3D coordinates assigned)
COC(=O)n1c(C(N)=O)cc2ccc(CCC=O)cc21 (optimized conformer: 67.80123414611512 kcal/mol)

>  <smiles>  (3) 
COC(=O)n1c(C(N)=O)cc2ccc(CCC=O)cc21

>  <score_type>  (3) 
oracle

>  <origin>  (3) 
adg

>  <m_score__min__energy>  (3) 
-6.5899999999999999

>  <m_primary>  (3) 
energy

$$$$
3:0
     RDKit          3D

 41 43  0  0  0  0  0  0  0  0999 V2000
  141.4740  158.0660  136.7770 C   0  0  0  0  0  0  0  0  0  0  0  0
  140.6340  158.1000  135.5380 C   0  0  0  0  0  0  0  0  0  0  0  0
  139.3440  157.6730  135.5680 N   0  0  0  0  0  0  0  0  0  0  0  0
  138.7760  157.8830  134.0230 S   0  0  0  0  0  0  0  0  0  0  0  0
  140.1340  158.4940  133.2790 C   0  0  0  0  0  0  0  0  0  0  0  0
  140.2380  158.9120  131.8480 C   0  0  0  0  0  0  0  0  0  0  0  0
  141.1070  158.5630  134.2770 C   0  0  0  0  0  0  0  0  0  0  0  0
  142.4780  159.0640  134.0390 C   0  0  0  0  0  0  0  0  0  0  0  0
  142.7250  160.4590  133.9750 C   0  0  0  0  0  0  0  0  0  0  0  0
  144.0220  160.9450  133.7370 C   0  0  0  0  0  0  0  0  0  0  0  0
  145.0460  160.0180  133.5720 C   0  0  0  0  0  0  0  0  0  0  0  0
  146.3860  160.2070  133.3090 C   0  0  0  0  0  0  0  0  0  0  0  0
  146.9310  158.9260  133.2280 C   0  0  0  0  0  0  0  0  0  0  0  0
  148.3670  158.6550  133.0120 C   0  0  0  0  0  0  0  0  0  0  0  0
  148.7930  157.5910  132.1630 N   0  0  0  0  0  0  0  0  0  0  0  0
  149.2310  159.3540  133.6050 O   0  0  0  0  0  0  0  0  0  0  0  0
  145.9650  157.9870  133.4310 N   0  0  0  0  0  0  0  0  0  0  0  0
  146.0880  156.5600  133.3570 C   0  0  0  0  0  0  0  0  0  0  0  0
  146.3840  156.0160  132.2610 O   0  0  0  0  0  0  0  0  0  0  0  0
  145.9920  155.7270  134.5990 C   0  0  0  0  0  0  0  0  0  0  0  0
  147.1940  154.7880  134.7010 C   0  0  0  0  0  0  0  0  0  0  0  0
  147.4120  154.3650  136.1180 C   0  0  0  0  0  0  0  0  0  0  0  0
  148.3330  154.8870  136.8000 O   0  0  0  0  0  0  0  0  0  0  0  0
  146.6310  153.3590  136.6710 O   0  0  0  0  0  0  0  0  0  0  0  0
  144.8220  158.6680  133.6410 C   0  0  0  0  0  0  0  0  0  0  0  0
  143.5420  158.1540  133.8650 C   0  0  0  0  0  0  0  0  0  0  0  0
  140.8222  158.0924  137.6627 H   0  0  0  0  0  0  0  0  0  0  0  0
  142.0721  157.1429  136.7893 H   0  0  0  0  0  0  0  0  0  0  0  0
  142.1448  158.9377  136.7893 H   0  0  0  0  0  0  0  0  0  0  0  0
  140.5033  159.9783  131.7958 H   0  0  0  0  0  0  0  0  0  0  0  0
  141.0152  158.3159  131.3474 H   0  0  0  0  0  0  0  0  0  0  0  0
  139.2721  158.7496  131.3474 H   0  0  0  0  0  0  0  0  0  0  0  0
  141.8943  161.1667  134.1128 H   0  0  0  0  0  0  0  0  0  0  0  0
  144.2214  162.0254  133.6828 H   0  0  0  0  0  0  0  0  0  0  0  0
  146.9133  161.1648  133.1886 H   0  0  0  0  0  0  0  0  0  0  0  0
  148.1250  157.1260  131.5100 H   0  0  0  0  0  0  0  0  0  0  0  0
  145.9716  156.3875  135.4784 H   0  0  0  0  0  0  0  0  0  0  0  0
  145.0711  155.1269  134.5576 H   0  0  0  0  0  0  0  0  0  0  0  0
  147.0106  153.8974  134.0820 H   0  0  0  0  0  0  0  0  0  0  0  0
  148.0901  155.3191  134.3474 H   0  0  0  0  0  0  0  0  0  0  0  0
  143.3686  157.0685  133.9046 H   0  0  0  0  0  0  0  0  0  0  0  0
  1  2  1  0
  2  3  2  0
  3  4  1  0
  4  5  1  0
  5  6  1  0
  5  7  2  0
  7  8  1  0
  8  9  2  0
  9 10  1  0
 10 11  2  0
 11 12  1  0
 12 13  2  0
 13 14  1  0
 14 15  1  0
 14 16  2  0
 13 17  1  0
 17 18  1  0
 18 19  2  0
 18 20  1  0
 20 21  1  0
 21 22  1  0
 22 23  2  0
 22 24  1  0
 17 25  1  0
 25 26  2  0
  7  2  1  0
 26  8  1  0
 25 11  1  0
  1 27  1  0
  1 28  1  0
  1 29  1  0
  6 30  1  0
  6 31  1  0
  6 32  1  0
  9 33  1  0
 10 34  1  0
 12 35  1  0
 15 36  1  0
 20 37  1  0
 20 38  1  0
 21 39  1  0
 21 40  1  0
 26 41  1  0
M  CHG  2  15  -1  24  -1
M  END
>  <UniqueID>  (4) 
4

>  <SMILES>  (4) 
Cc1nsc(C)c1-c1ccc2cc(C([NH-])=O)n(C(=O)CCC(=O)[O-])c2c1

>  <Energy>  (4) 
114.06734355290641

>  <Genealogy>  (4) 
Cc1nsc(C)c1-c1ccc2cc(C([NH-])=O)n(C(=O)CCC(=O)[O-])c2c1 (protonated)
Cc1nsc(C)c1-c1ccc2cc(C([NH-])=O)n(C(=O)CCC(=O)[O-])c2c1 (3D coordinates assigned)
Cc1nsc(C)c1-c1ccc2cc(C([NH-])=O)n(C(=O)CCC(=O)[O-])c2c1 (optimized conformer: 114.06734355290641 kcal/mol)

>  <smiles>  (4) 
Cc1nsc(C)c1-c1ccc2cc(C(N)=O)n(C(=O)CCC(=O)O)c2c1

>  <score_type>  (4) 
oracle

>  <origin>  (4) 
adg

>  <m_score__min__energy>  (4) 
-8.6400000000000006

>  <m_primary>  (4) 
energy

$$$$
4:0
     RDKit          3D

 40 41  0  0  0  0  0  0  0  0999 V2000
  148.2080  149.6070  132.6570 C   0  0  0  0  0  0  0  0  0  0  0  0
  148.0330  150.7380  131.8320 O   0  0  0  0  0  0  0  0  0  0  0  0
  149.2890  151.2800  131.4640 C   0  0  0  0  0  0  0  0  0  0  0  0
  149.8380  152.1720  132.5740 C   0  0  0  0  0  0  0  0  0  0  0  0
  148.8400  153.1030  132.9800 O   0  0  0  0  0  0  0  0  0  0  0  0
  148.9090  154.4660  132.6790 C   0  0  0  0  0  0  0  0  0  0  0  0
  149.9820  154.9650  132.2420 O   0  0  0  0  0  0  0  0  0  0  0  0
  147.7540  155.2990  132.8750 N   0  0  0  0  0  0  0  0  0  0  0  0
  146.5340  154.9170  133.3490 C   0  0  0  0  0  0  0  0  0  0  0  0
  146.1000  153.5290  133.6030 C   0  0  0  0  0  0  0  0  0  0  0  0
  146.5020  152.4580  132.7460 N   0  0  0  0  0  0  0  0  0  0  0  0
  145.3180  153.2900  134.5620 O   0  0  0  0  0  0  0  0  0  0  0  0
  145.7090  156.0220  133.5370 C   0  0  0  0  0  0  0  0  0  0  0  0
  146.4630  157.1070  133.1500 C   0  0  0  0  0  0  0  0  0  0  0  0
  146.1460  158.4610  133.1570 C   0  0  0  0  0  0  0  0  0  0  0  0
  147.1360  159.3720  132.7520 C   0  0  0  0  0  0  0  0  0  0  0  0
  148.4150  158.9150  132.3520 C   0  0  0  0  0  0  0  0  0  0  0  0
  149.4840  159.9040  131.9710 C   0  0  0  0  0  0  0  0  0  0  0  0
  149.2050  160.4920  130.5850 C   0  0  0  0  0  0  0  0  0  0  0  0
  150.3590  160.4290  129.7930 O   0  0  0  0  0  0  0  0  0  0  0  0
  148.7060  157.5320  132.3690 C   0  0  0  0  0  0  0  0  0  0  0  0
  147.6940  156.6450  132.7580 C   0  0  0  0  0  0  0  0  0  0  0  0
  148.1607  149.9124  133.7127 H   0  0  0  0  0  0  0  0  0  0  0  0
  147.4122  148.8761  132.4508 H   0  0  0  0  0  0  0  0  0  0  0  0
  149.1874  149.1507  132.4508 H   0  0  0  0  0  0  0  0  0  0  0  0
  149.9963  150.4583  131.2781 H   0  0  0  0  0  0  0  0  0  0  0  0
  149.1600  151.8858  130.5549 H   0  0  0  0  0  0  0  0  0  0  0  0
  150.1284  151.5495  133.4332 H   0  0  0  0  0  0  0  0  0  0  0  0
  150.7160  152.7193  132.2005 H   0  0  0  0  0  0  0  0  0  0  0  0
  147.0070  152.6450  131.8520 H   0  0  0  0  0  0  0  0  0  0  0  0
  146.2260  151.4760  132.9690 H   0  0  0  0  0  0  0  0  0  0  0  0
  144.6757  156.0273  133.9141 H   0  0  0  0  0  0  0  0  0  0  0  0
  145.1503  158.8083  133.4701 H   0  0  0  0  0  0  0  0  0  0  0  0
  146.9155  160.4496  132.7456 H   0  0  0  0  0  0  0  0  0  0  0  0
  149.5044  160.7173  132.7113 H   0  0  0  0  0  0  0  0  0  0  0  0
  150.4542  159.3861  131.9477 H   0  0  0  0  0  0  0  0  0  0  0  0
  148.4005  159.9181  130.1018 H   0  0  0  0  0  0  0  0  0  0  0  0
  148.9013  161.5435  130.6950 H   0  0  0  0  0  0  0  0  0  0  0  0
  151.0860  160.8560  130.3160 H   0  0  0  0  0  0  0  0  0  0  0  0
  149.7018  157.1616  132.0840 H   0  0  0  0  0  0  0  0  0  0  0  0
  1  2  1  0
  2  3  1  0
  3  4  1  0
  4  5  1  0
  5  6  1  0
  6  7  2  0
  6  8  1  0
  8  9  1  0
  9 10  1  0
 10 11  1  0
 10 12  2  0
  9 13  2  0
 13 14  1  0
 14 15  2  0
 15 16  1  0
 16 17  2  0
 17 18  1  0
 18 19  1  0
 19 20  1  0
 17 21  1  0
 21 22  2  0
 22  8  1  0
 22 14  1  0
  1 23  1  0
  1 24  1  0
  1 25  1  0
  3 26  1  0
  3 27  1  0
  4 28  1  0
  4 29  1  0
 11 30  1  0
 11 31  1  0
 13 32  1  0
 15 33  1  0
 16 34  1  0
 18 35  1  0
 18 36  1  0
 19 37  1  0
 19 38  1  0
 20 39  1  0
 21 40  1  0
M  END
>  <UniqueID>  (5) 
5

>  <SMILES>  (5) 
COCCOC(=O)n1c(C(N)=O)cc2ccc(CCO)cc21

>  <Energy>  (5) 
73.69840275701287

>  <Genealogy>  (5) 
COCCOC(=O)n1c(C(N)=O)cc2ccc(CCO)cc21 (3D coordinates assigned)
COCCOC(=O)n1c(C(N)=O)cc2ccc(CCO)cc21 (optimized conformer: 73.69840275701287 kcal/mol)

>  <smiles>  (5) 
COCCOC(=O)n1c(C(N)=O)cc2ccc(CCO)cc21

>  <score_type>  (5) 
oracle

>  <origin>  (5) 
adg

>  <m_score__min__energy>  (5) 
-6.4199999999999999

>  <m_primary>  (5) 
energy

$$$$
5:0
     RDKit          3D

 28 30  0  0  0  0  0  0  0  0999 V2000
  140.5890  159.4610  134.3950 N   0  0  0  0  0  0  0  0  0  0  0  0
  141.7460  159.0600  135.1230 C   0  0  0  0  0  0  0  0  0  0  0  0
  141.6700  158.9210  136.3730 O   0  0  0  0  0  0  0  0  0  0  0  0
  143.0430  158.8610  134.4420 C   0  0  0  0  0  0  0  0  0  0  0  0
  143.6720  157.6230  134.3410 C   0  0  0  0  0  0  0  0  0  0  0  0
  144.8790  157.8760  133.7310 C   0  0  0  0  0  0  0  0  0  0  0  0
  145.9000  157.0040  133.3750 C   0  0  0  0  0  0  0  0  0  0  0  0
  147.0270  157.5360  132.7270 C   0  0  0  0  0  0  0  0  0  0  0  0
  147.1150  158.9250  132.4380 C   0  0  0  0  0  0  0  0  0  0  0  0
  148.3070  159.4750  131.7420 C   0  0  0  0  0  0  0  0  0  0  0  0
  148.3530  160.5880  130.9190 C   0  0  0  0  0  0  0  0  0  0  0  0
  149.6640  160.7000  130.5090 C   0  0  0  0  0  0  0  0  0  0  0  0
  150.3800  159.7350  131.0380 O   0  0  0  0  0  0  0  0  0  0  0  0
  149.6010  158.9830  131.7810 C   0  0  0  0  0  0  0  0  0  0  0  0
  146.0490  159.7770  132.8170 C   0  0  0  0  0  0  0  0  0  0  0  0
  144.9480  159.2210  133.4790 C   0  0  0  0  0  0  0  0  0  0  0  0
  143.8250  159.8420  133.9080 N   0  0  0  0  0  0  0  0  0  0  0  0
  143.4960  161.2300  133.7340 C   0  0  0  0  0  0  0  0  0  0  0  0
  142.3320  161.5690  133.3930 O   0  0  0  0  0  0  0  0  0  0  0  0
  144.4510  162.2110  133.9670 O   0  0  0  0  0  0  0  0  0  0  0  0
  140.5860  160.3430  133.8370 H   0  0  0  0  0  0  0  0  0  0  0  0
  143.2860  156.6495  134.6774 H   0  0  0  0  0  0  0  0  0  0  0  0
  145.8281  155.9284  133.5941 H   0  0  0  0  0  0  0  0  0  0  0  0
  147.8527  156.8686  132.4393 H   0  0  0  0  0  0  0  0  0  0  0  0
  147.5151  161.2473  130.6482 H   0  0  0  0  0  0  0  0  0  0  0  0
  150.0524  161.4810  129.8388 H   0  0  0  0  0  0  0  0  0  0  0  0
  149.9263  158.0980  132.3475 H   0  0  0  0  0  0  0  0  0  0  0  0
  146.0855  160.8539  132.5956 H   0  0  0  0  0  0  0  0  0  0  0  0
  1  2  1  0
  2  3  2  0
  2  4  1  0
  4  5  2  0
  5  6  1  0
  6  7  2  0
  7  8  1  0
  8  9  2  0
  9 10  1  0
 10 11  1  0
 11 12  2  0
 12 13  1  0
 13 14  1  0
  9 15  1  0
 15 16  2  0
 16 17  1  0
 17 18  1  0
 18 19  2  0
 18 20  1  0
 17  4  1  0
 16  6  1  0
 14 10  2  0
  1 21  1  0
  5 22  1  0
  7 23  1  0
  8 24  1  0
 11 25  1  0
 12 26  1  0
 14 27  1  0
 15 28  1  0
M  CHG  2   1  -1  20  -1
M  END
>  <UniqueID>  (6) 
6

>  <SMILES>  (6) 
[NH-]C(=O)c1cc2ccc(-c3ccoc3)cc2n1C(=O)[O-]

>  <Energy>  (6) 
99.36702276629069

>  <Genealogy>  (6) 
[NH-]C(=O)c1cc2ccc(-c3ccoc3)cc2n1C(=O)[O-] (protonated)
[NH-]C(=O)c1cc2ccc(-c3ccoc3)cc2n1C(=O)[O-] (3D coordinates assigned)
[NH-]C(=O)c1cc2ccc(-c3ccoc3)cc2n1C(=O)[O-] (optimized conformer: 99.36702276629069 kcal/mol)

>  <smiles>  (6) 
NC(=O)c1cc2ccc(-c3ccoc3)cc2n1C(=O)O

>  <score_type>  (6) 
oracle

>  <origin>  (6) 
adg

>  <m_score__min__energy>  (6) 
-6.4800000000000004

>  <m_primary>  (6) 
energy

$$$$
6:0
     RDKit          3D

 31 32  0  0  0  0  0  0  0  0999 V2000
  149.2670  161.9670  130.3410 C   0  0  0  0  0  0  0  0  0  0  0  0
  149.0800  160.6780  131.0830 C   0  0  0  0  0  0  0  0  0  0  0  0
  150.1490  159.7550  131.1830 C   0  0  0  0  0  0  0  0  0  0  0  0
  149.9780  158.5320  131.8550 C   0  0  0  0  0  0  0  0  0  0  0  0
  148.7260  158.2550  132.3960 C   0  0  0  0  0  0  0  0  0  0  0  0
  148.2950  157.1630  133.1130 C   0  0  0  0  0  0  0  0  0  0  0  0
  146.9560  157.4190  133.4060 C   0  0  0  0  0  0  0  0  0  0  0  0
  146.0770  156.4550  134.1000 C   0  0  0  0  0  0  0  0  0  0  0  0
  144.8570  156.0170  133.5070 N   0  0  0  0  0  0  0  0  0  0  0  0
  146.4320  155.9730  135.2090 O   0  0  0  0  0  0  0  0  0  0  0  0
  146.5780  158.6240  132.8950 N   0  0  0  0  0  0  0  0  0  0  0  0
  145.3170  159.2910  133.0640 C   0  0  0  0  0  0  0  0  0  0  0  0
  144.2460  158.6270  133.0350 O   0  0  0  0  0  0  0  0  0  0  0  0
  145.2860  160.6790  133.2470 O   0  0  0  0  0  0  0  0  0  0  0  0
  144.8200  161.3080  134.4390 C   0  0  0  0  0  0  0  0  0  0  0  0
  145.2830  162.7610  134.5010 C   0  0  0  0  0  0  0  0  0  0  0  0
  144.3410  163.5940  133.9250 F   0  0  0  0  0  0  0  0  0  0  0  0
  145.4650  163.1340  135.8200 F   0  0  0  0  0  0  0  0  0  0  0  0
  147.6720  159.1230  132.2790 C   0  0  0  0  0  0  0  0  0  0  0  0
  147.8190  160.3560  131.6310 C   0  0  0  0  0  0  0  0  0  0  0  0
  149.3864  162.7903  131.0606 H   0  0  0  0  0  0  0  0  0  0  0  0
  150.1647  161.8993  129.7089 H   0  0  0  0  0  0  0  0  0  0  0  0
  148.3870  162.1572  129.7089 H   0  0  0  0  0  0  0  0  0  0  0  0
  151.1221  159.9970  130.7308 H   0  0  0  0  0  0  0  0  0  0  0  0
  150.8079  157.8163  131.9502 H   0  0  0  0  0  0  0  0  0  0  0  0
  148.8818  156.2764  133.3952 H   0  0  0  0  0  0  0  0  0  0  0  0
  144.4610  156.5030  132.6720 H   0  0  0  0  0  0  0  0  0  0  0  0
  143.7205  161.2787  134.4562 H   0  0  0  0  0  0  0  0  0  0  0  0
  145.2307  160.7695  135.3058 H   0  0  0  0  0  0  0  0  0  0  0  0
  146.2304  162.8499  133.9491 H   0  0  0  0  0  0  0  0  0  0  0  0
  146.9739  161.0556  131.5510 H   0  0  0  0  0  0  0  0  0  0  0  0
  1  2  1  0
  2  3  2  0
  3  4  1  0
  4  5  2  0
  5  6  1  0
  6  7  2  0
  7  8  1  0
  8  9  1  0
  8 10  2  0
  7 11  1  0
 11 12  1  0
 12 13  2  0
 12 14  1  0
 14 15  1  0
 15 16  1  0
 16 17  1  0
 16 18  1  0
 11 19  1  0
 19 20  2  0
 20  2  1  0
 19  5  1  0
  1 21  1  0
  1 22  1  0
  1 23  1  0
  3 24  1  0
  4 25  1  0
  6 26  1  0
  9 27  1  0
 15 28  1  0
 15 29  1  0
 16 30  1  0
 20 31  1  0
M  CHG  1   9  -1
M  END
>  <UniqueID>  (7) 
7

>  <SMILES>  (7) 
Cc1ccc2cc(C([NH-])=O)n(C(=O)OCC(F)F)c2c1

>  <Energy>  (7) 
66.48780335076793

>  <Genealogy>  (7) 
Cc1ccc2cc(C([NH-])=O)n(C(=O)OCC(F)F)c2c1 (protonated)
Cc1ccc2cc(C([NH-])=O)n(C(=O)OCC(F)F)c2c1 (3D coordinates assigned)
Cc1ccc2cc(C([NH-])=O)n(C(=O)OCC(F)F)c2c1 (optimized conformer: 66.48780335076793 kcal/mol)

>  <smiles>  (7) 
Cc1ccc2cc(C(N)=O)n(C(=O)OCC(F)F)c2c1

>  <score_type>  (7) 
oracle

>  <origin>  (7) 
adg

>  <m_score__min__energy>  (7) 
-5.5199999999999996

>  <m_primary>  (7) 
energy

$$$$
7:0
     RDKit          3D

 52 53  0  0  0  0  0  0  0  0999 V2000
  145.1090  152.0970  132.3020 C   0  0  0  0  0  0  0  0  0  0  0  0
  145.4510  153.5300  132.2350 N   0  0  0  0  0  0  0  0  0  0  0  0
  144.3660  154.3100  131.6130 C   0  0  0  0  0  0  0  0  0  0  0  0
  145.8600  154.0820  133.5500 C   0  0  0  0  0  0  0  0  0  0  0  0
  147.3850  154.3330  133.7040 C   0  0  0  0  0  0  0  0  0  0  0  0
  147.9500  155.2440  132.6040 C   0  0  0  0  0  0  0  0  0  0  0  0
  147.6940  156.7010  132.9040 C   0  0  0  0  0  0  0  0  0  0  0  0
  148.7630  157.6310  132.9170 C   0  0  0  0  0  0  0  0  0  0  0  0
  148.5220  158.9970  133.1500 C   0  0  0  0  0  0  0  0  0  0  0  0
  147.2050  159.4020  133.3510 C   0  0  0  0  0  0  0  0  0  0  0  0
  146.6920  160.6530  133.6010 C   0  0  0  0  0  0  0  0  0  0  0  0
  145.3130  160.4730  133.7070 C   0  0  0  0  0  0  0  0  0  0  0  0
  144.3570  161.5870  133.8810 C   0  0  0  0  0  0  0  0  0  0  0  0
  142.9560  161.3810  133.7240 N   0  0  0  0  0  0  0  0  0  0  0  0
  144.7880  162.7460  134.1210 O   0  0  0  0  0  0  0  0  0  0  0  0
  144.9900  159.1590  133.5410 N   0  0  0  0  0  0  0  0  0  0  0  0
  143.6970  158.5430  133.6440 C   0  0  0  0  0  0  0  0  0  0  0  0
  143.2380  157.8850  132.6740 O   0  0  0  0  0  0  0  0  0  0  0  0
  142.9470  158.7180  134.8170 O   0  0  0  0  0  0  0  0  0  0  0  0
  141.5430  158.4720  134.9770 C   0  0  0  0  0  0  0  0  0  0  0  0
  141.2700  156.9630  135.1070 C   0  0  0  0  0  0  0  0  0  0  0  0
  141.1090  159.1740  136.2740 C   0  0  0  0  0  0  0  0  0  0  0  0
  140.7490  159.0710  133.8000 C   0  0  0  0  0  0  0  0  0  0  0  0
  146.1590  158.5170  133.3250 C   0  0  0  0  0  0  0  0  0  0  0  0
  146.3730  157.1490  133.1280 C   0  0  0  0  0  0  0  0  0  0  0  0
  145.0349  151.7866  133.3547 H   0  0  0  0  0  0  0  0  0  0  0  0
  144.1449  151.9263  131.8007 H   0  0  0  0  0  0  0  0  0  0  0  0
  145.8921  151.5093  131.8007 H   0  0  0  0  0  0  0  0  0  0  0  0
  146.2840  153.6150  131.6040 H   0  0  0  0  0  0  0  0  0  0  0  0
  143.7407  154.7595  132.3985 H   0  0  0  0  0  0  0  0  0  0  0  0
  144.7980  155.1056  130.9882 H   0  0  0  0  0  0  0  0  0  0  0  0
  143.7495  153.6470  130.9882 H   0  0  0  0  0  0  0  0  0  0  0  0
  145.3389  155.0396  133.6964 H   0  0  0  0  0  0  0  0  0  0  0  0
  145.5931  153.3240  134.3011 H   0  0  0  0  0  0  0  0  0  0  0  0
  147.5670  154.8058  134.6804 H   0  0  0  0  0  0  0  0  0  0  0  0
  147.8917  153.3601  133.6223 H   0  0  0  0  0  0  0  0  0  0  0  0
  149.0351  155.0805  132.5274 H   0  0  0  0  0  0  0  0  0  0  0  0
  147.4475  154.9938  131.6580 H   0  0  0  0  0  0  0  0  0  0  0  0
  149.7913  157.2812  132.7432 H   0  0  0  0  0  0  0  0  0  0  0  0
  149.3482  159.7228  133.1727 H   0  0  0  0  0  0  0  0  0  0  0  0
  147.2507  161.5957  133.6970 H   0  0  0  0  0  0  0  0  0  0  0  0
  142.5710  160.4290  133.5320 H   0  0  0  0  0  0  0  0  0  0  0  0
  141.2206  156.6897  136.1713 H   0  0  0  0  0  0  0  0  0  0  0  0
  140.3134  156.7203  134.6213 H   0  0  0  0  0  0  0  0  0  0  0  0
  142.0810  156.4005  134.6213 H   0  0  0  0  0  0  0  0  0  0  0  0
  141.4656  158.5972  137.1401 H   0  0  0  0  0  0  0  0  0  0  0  0
  141.5394  160.1858  136.3050 H   0  0  0  0  0  0  0  0  0  0  0  0
  140.0115  159.2412  136.3050 H   0  0  0  0  0  0  0  0  0  0  0  0
  139.9277  159.6906  134.1893 H   0  0  0  0  0  0  0  0  0  0  0  0
  141.4172  159.6920  133.1852 H   0  0  0  0  0  0  0  0  0  0  0  0
  140.3353  158.2580  133.1852 H   0  0  0  0  0  0  0  0  0  0  0  0
  145.5330  156.4390  133.1470 H   0  0  0  0  0  0  0  0  0  0  0  0
  1  2  1  0
  2  3  1  0
  2  4  1  0
  4  5  1  0
  5  6  1  0
  6  7  1  0
  7  8  2  0
  8  9  1  0
  9 10  2  0
 10 11  1  0
 11 12  2  0
 12 13  1  0
 13 14  1  0
 13 15  2  0
 12 16  1  0
 16 17  1  0
 17 18  2  0
 17 19  1  0
 19 20  1  0
 20 21  1  0
 20 22  1  0
 20 23  1  0
 16 24  1  0
 24 25  2  0
 25  7  1  0
 24 10  1  0
  1 26  1  0
  1 27  1  0
  1 28  1  0
  2 29  1  0
  3 30  1  0
  3 31  1  0
  3 32  1  0
  4 33  1  0
  4 34  1  0
  5 35  1  0
  5 36  1  0
  6 37  1  0
  6 38  1  0
  8 39  1  0
  9 40  1  0
 11 41  1  0
 14 42  1  0
 21 43  1  0
 21 44  1  0
 21 45  1  0
 22 46  1  0
 22 47  1  0
 22 48  1  0
 23 49  1  0
 23 50  1  0
 23 51  1  0
 25 52  1  0
M  CHG  2   2   1  14  -1
M  END
>  <UniqueID>  (8) 
8

>  <SMILES>  (8) 
C[NH+](C)CCCc1ccc2cc(C([NH-])=O)n(C(=O)OC(C)(C)C)c2c1

>  <Energy>  (8) 
85.58743525433454

>  <Genealogy>  (8) 
C[NH+](C)CCCc1ccc2cc(C([NH-])=O)n(C(=O)OC(C)(C)C)c2c1 (protonated)
C[NH+](C)CCCc1ccc2cc(C([NH-])=O)n(C(=O)OC(C)(C)C)c2c1 (3D coordinates assigned)
C[NH+](C)CCCc1ccc2cc(C([NH-])=O)n(C(=O)OC(C)(C)C)c2c1 (optimized conformer: 85.58743525433454 kcal/mol)

>  <smiles>  (8) 
CN(C)CCCc1ccc2cc(C(N)=O)n(C(=O)OC(C)(C)C)c2c1

>  <score_type>  (8) 
oracle

>  <origin>  (8) 
adg

>  <m_score__min__energy>  (8) 
-7.4699999999999998

>  <m_primary>  (8) 
energy

$$$$
8:0
     RDKit          3D

 50 53  0  0  0  0  0  0  0  0999 V2000
  149.3330  155.8430  132.3470 N   0  0  0  0  0  0  0  0  0  0  0  0
  148.2800  155.3110  133.1540 C   0  0  0  0  0  0  0  0  0  0  0  0
  148.4490  154.2030  133.7290 O   0  0  0  0  0  0  0  0  0  0  0  0
  147.0150  156.0580  133.3390 C   0  0  0  0  0  0  0  0  0  0  0  0
  145.7500  155.4700  133.3350 C   0  0  0  0  0  0  0  0  0  0  0  0
  144.8610  156.5160  133.4320 C   0  0  0  0  0  0  0  0  0  0  0  0
  143.4690  156.5110  133.4660 C   0  0  0  0  0  0  0  0  0  0  0  0
  142.8090  157.7470  133.5760 C   0  0  0  0  0  0  0  0  0  0  0  0
  143.5460  158.9540  133.6670 C   0  0  0  0  0  0  0  0  0  0  0  0
  142.8290  160.2730  133.7570 C   0  0  0  0  0  0  0  0  0  0  0  0
  141.3170  160.0600  133.8580 C   0  0  0  0  0  0  0  0  0  0  0  0
  140.7080  160.2960  132.6020 O   0  0  0  0  0  0  0  0  0  0  0  0
  140.3510  159.0810  131.9680 C   0  0  2  0  0  0  0  0  0  0  0  0
  140.0600  159.3640  130.4790 C   0  0  0  0  0  0  0  0  0  0  0  0
  138.8280  160.2650  130.3190 C   0  0  0  0  0  0  0  0  0  0  0  0
  137.8130  160.0520  131.4500 C   0  0  0  0  0  0  0  0  0  0  0  0
  137.9880  158.6650  132.0810 C   0  0  0  0  0  0  0  0  0  0  0  0
  139.2660  158.4720  132.6710 O   0  0  0  0  0  0  0  0  0  0  0  0
  144.9570  158.9200  133.6170 C   0  0  0  0  0  0  0  0  0  0  0  0
  145.5860  157.6770  133.4920 C   0  0  0  0  0  0  0  0  0  0  0  0
  146.9080  157.4130  133.4410 N   0  0  0  0  0  0  0  0  0  0  0  0
  147.9670  158.3790  133.5230 C   0  0  0  0  0  0  0  0  0  0  0  0
  148.5260  158.6000  134.6310 O   0  0  0  0  0  0  0  0  0  0  0  0
  148.4340  159.0810  132.3180 C   0  0  0  0  0  0  0  0  0  0  0  0
  147.7870  160.1240  131.6830 C   0  0  0  0  0  0  0  0  0  0  0  0
  148.5870  160.4610  130.6140 C   0  0  0  0  0  0  0  0  0  0  0  0
  149.6720  159.6100  130.6620 C   0  0  0  0  0  0  0  0  0  0  0  0
  149.5530  158.8010  131.6900 O   0  0  0  0  0  0  0  0  0  0  0  0
  150.2330  155.3230  132.2540 H   0  0  0  0  0  0  0  0  0  0  0  0
  149.2100  156.7260  131.8040 H   0  0  0  0  0  0  0  0  0  0  0  0
  145.5133  154.3978  133.2684 H   0  0  0  0  0  0  0  0  0  0  0  0
  142.9036  155.5692  133.4086 H   0  0  0  0  0  0  0  0  0  0  0  0
  141.7095  157.7778  133.5916 H   0  0  0  0  0  0  0  0  0  0  0  0
  143.1780  160.8138  134.6491 H   0  0  0  0  0  0  0  0  0  0  0  0
  143.0445  160.8557  132.8493 H   0  0  0  0  0  0  0  0  0  0  0  0
  141.1154  159.0251  134.1715 H   0  0  0  0  0  0  0  0  0  0  0  0
  140.9029  160.7619  134.5968 H   0  0  0  0  0  0  0  0  0  0  0  0
  141.1747  158.3526  131.9978 H   0  0  0  0  0  0  0  0  0  0  0  0
  140.9315  159.8640  130.0312 H   0  0  0  0  0  0  0  0  0  0  0  0
  139.8616  158.4074  129.9736 H   0  0  0  0  0  0  0  0  0  0  0  0
  139.1527  161.3160  130.3257 H   0  0  0  0  0  0  0  0  0  0  0  0
  138.3383  160.0075  129.3683 H   0  0  0  0  0  0  0  0  0  0  0  0
  137.9650  160.8214  132.2213 H   0  0  0  0  0  0  0  0  0  0  0  0
  136.7978  160.1253  131.0328 H   0  0  0  0  0  0  0  0  0  0  0  0
  137.2214  158.5365  132.8593 H   0  0  0  0  0  0  0  0  0  0  0  0
  137.8876  157.9251  131.2732 H   0  0  0  0  0  0  0  0  0  0  0  0
  145.5461  159.8471  133.6749 H   0  0  0  0  0  0  0  0  0  0  0  0
  146.8323  160.5881  131.9713 H   0  0  0  0  0  0  0  0  0  0  0  0
  148.3988  161.2501  129.8711 H   0  0  0  0  0  0  0  0  0  0  0  0
  150.5090  159.6092  129.9483 H   0  0  0  0  0  0  0  0  0  0  0  0
  1  2  1  0
  2  3  2  0
  2  4  1  0
  4  5  2  0
  5  6  1  0
  6  7  2  0
  7  8  1  0
  8  9  2  0
  9 10  1  0
 10 11  1  0
 11 12  1  0
 12 13  1  0
 13 14  1  0
 14 15  1  0
 15 16  1  0
 16 17  1  0
 17 18  1  0
  9 19  1  0
 19 20  2  0
 20 21  1  0
 21 22  1  0
 22 23  2  0
 22 24  1  0
 24 25  2  0
 25 26  1  0
 26 27  2  0
 27 28  1  0
 21  4  1  0
 28 24  1  0
 20  6  1  0
 18 13  1  0
  1 29  1  0
  1 30  1  0
  5 31  1  0
  7 32  1  0
  8 33  1  0
 10 34  1  0
 10 35  1  0
 11 36  1  0
 11 37  1  0
 13 38  1  6
 14 39  1  0
 14 40  1  0
 15 41  1  0
 15 42  1  0
 16 43  1  0
 16 44  1  0
 17 45  1  0
 17 46  1  0
 19 47  1  0
 25 48  1  0
 26 49  1  0
 27 50  1  0
M  END
>  <UniqueID>  (9) 
9

>  <SMILES>  (9) 
NC(=O)c1cc2ccc(CCO[C@@H]3CCCCO3)cc2n1C(=O)c1ccco1

>  <Energy>  (9) 
127.56704152015766

>  <Genealogy>  (9) 
NC(=O)c1cc2ccc(CCO[C@@H]3CCCCO3)cc2n1C(=O)c1ccco1 (chirality)
NC(=O)c1cc2ccc(CCO[C@@H]3CCCCO3)cc2n1C(=O)c1ccco1 (3D coordinates assigned)
NC(=O)c1cc2ccc(CCO[C@@H]3CCCCO3)cc2n1C(=O)c1ccco1 (nonaromatic ring conformer: 127.56704152015766 kcal/mol)

>  <smiles>  (9) 
NC(=O)c1cc2ccc(CCOC3CCCCO3)cc2n1C(=O)c1ccco1

>  <score_type>  (9) 
oracle

>  <origin>  (9) 
adg

>  <m_score__min__energy>  (9) 
-8.6400000000000006

>  <m_primary>  (9) 
energy

$$$$
9:0
     RDKit          3D

 37 39  0  0  0  0  0  0  0  0999 V2000
  149.9230  151.9490  132.3610 C   0  0  0  0  0  0  0  0  0  0  0  0
  148.9310  152.9940  132.5690 N   0  0  0  0  0  0  0  0  0  0  0  0
  149.1750  154.3160  132.5930 C   0  0  0  0  0  0  0  0  0  0  0  0
  147.9890  154.9690  132.8840 C   0  0  0  0  0  0  0  0  0  0  0  0
  147.7650  156.4310  133.0150 C   0  0  0  0  0  0  0  0  0  0  0  0
  148.8510  157.3400  132.8980 C   0  0  0  0  0  0  0  0  0  0  0  0
  148.6470  158.7250  133.0060 C   0  0  0  0  0  0  0  0  0  0  0  0
  147.3540  159.1790  133.2400 C   0  0  0  0  0  0  0  0  0  0  0  0
  146.8740  160.4630  133.3580 C   0  0  0  0  0  0  0  0  0  0  0  0
  145.5040  160.3270  133.5690 C   0  0  0  0  0  0  0  0  0  0  0  0
  144.6050  161.4700  133.8320 C   0  0  0  0  0  0  0  0  0  0  0  0
  143.1920  161.3350  133.7040 N   0  0  0  0  0  0  0  0  0  0  0  0
  145.0860  162.5670  134.2210 O   0  0  0  0  0  0  0  0  0  0  0  0
  145.1500  159.0110  133.5760 N   0  0  0  0  0  0  0  0  0  0  0  0
  143.8280  158.4600  133.6670 C   0  0  0  0  0  0  0  0  0  0  0  0
  143.1750  158.2160  132.6150 O   0  0  0  0  0  0  0  0  0  0  0  0
  143.2630  158.2150  134.9240 O   0  0  0  0  0  0  0  0  0  0  0  0
  142.3050  159.0770  135.5330 C   0  0  0  0  0  0  0  0  0  0  0  0
  140.9830  158.9560  134.8440 C   0  0  0  0  0  0  0  0  0  0  0  0
  140.7620  159.6040  133.7880 O   0  0  0  0  0  0  0  0  0  0  0  0
  139.7050  157.8700  135.5030 S   0  0  0  0  0  0  0  0  0  0  0  0
  146.2940  158.3210  133.3750 C   0  0  0  0  0  0  0  0  0  0  0  0
  146.4640  156.9380  133.2510 C   0  0  0  0  0  0  0  0  0  0  0  0
  147.0590  153.9500  133.0390 C   0  0  0  0  0  0  0  0  0  0  0  0
  147.6600  152.7590  132.8520 N   0  0  0  0  0  0  0  0  0  0  0  0
  150.2749  151.5783  133.3351 H   0  0  0  0  0  0  0  0  0  0  0  0
  149.4705  151.1212  131.7954 H   0  0  0  0  0  0  0  0  0  0  0  0
  150.7732  152.3579  131.7954 H   0  0  0  0  0  0  0  0  0  0  0  0
  150.1483  154.7958  132.4127 H   0  0  0  0  0  0  0  0  0  0  0  0
  149.8654  156.9533  132.7204 H   0  0  0  0  0  0  0  0  0  0  0  0
  149.4856  159.4301  132.9083 H   0  0  0  0  0  0  0  0  0  0  0  0
  147.4499  161.3983  133.2984 H   0  0  0  0  0  0  0  0  0  0  0  0
  142.7560  160.4060  133.5100 H   0  0  0  0  0  0  0  0  0  0  0  0
  142.1890  158.7999  136.5912 H   0  0  0  0  0  0  0  0  0  0  0  0
  142.6566  160.1161  135.4509 H   0  0  0  0  0  0  0  0  0  0  0  0
  145.6038  156.2576  133.3352 H   0  0  0  0  0  0  0  0  0  0  0  0
  145.9948  154.0931  133.2778 H   0  0  0  0  0  0  0  0  0  0  0  0
  1  2  1  0
  2  3  1  0
  3  4  2  0
  4  5  1  0
  5  6  2  0
  6  7  1  0
  7  8  2  0
  8  9  1  0
  9 10  2  0
 10 11  1  0
 11 12  1  0
 11 13  2  0
 10 14  1  0
 14 15  1  0
 15 16  2  0
 15 17  1  0
 17 18  1  0
 18 19  1  0
 19 20  2  0
 19 21  1  0
 14 22  1  0
 22 23  2  0
  4 24  1  0
 24 25  2  0
 25  2  1  0
 23  5  1  0
 22  8  1  0
  1 26  1  0
  1 27  1  0
  1 28  1  0
  3 29  1  0
  6 30  1  0
  7 31  1  0
  9 32  1  0
 12 33  1  0
 18 34  1  0
 18 35  1  0
 23 36  1  0
 24 37  1  0
M  CHG  2  12  -1  21  -1
M  END
>  <UniqueID>  (10) 
10

>  <SMILES>  (10) 
Cn1cc(-c2ccc3cc(C([NH-])=O)n(C(=O)OCC(=O)[S-])c3c2)cn1

>  <Energy>  (10) 
107.02439078204002

>  <Genealogy>  (10) 
Cn1cc(-c2ccc3cc(C([NH-])=O)n(C(=O)OCC(=O)[S-])c3c2)cn1 (protonated)
Cn1cc(-c2ccc3cc(C([NH-])=O)n(C(=O)OCC(=O)[S-])c3c2)cn1 (3D coordinates assigned)
Cn1cc(-c2ccc3cc(C([NH-])=O)n(C(=O)OCC(=O)[S-])c3c2)cn1 (optimized conformer: 107.02439078204002 kcal/mol)

>  <smiles>  (10) 
Cn1cc(-c2ccc3cc(C(N)=O)n(C(=O)OCC(=O)S)c3c2)cn1

>  <score_type>  (10) 
oracle

>  <origin>  (10) 
adg

>  <m_score__min__energy>  (10) 
-6.9800000000000004

>  <m_primary>  (10) 
energy

$$$$
10:0
     RDKit          3D

 43 44  0  0  0  0  0  0  0  0999 V2000
  147.7450  154.5210  133.9100 C   0  0  0  0  0  0  0  0  0  0  0  0
  146.9500  155.7910  134.1920 C   0  0  0  0  0  0  0  0  0  0  0  0
  146.8840  156.6570  132.9700 C   0  0  0  0  0  0  0  0  0  0  0  0
  146.9800  156.1320  131.8280 O   0  0  0  0  0  0  0  0  0  0  0  0
  146.7470  158.0800  133.0890 N   0  0  0  0  0  0  0  0  0  0  0  0
  147.6750  159.0350  132.7980 C   0  0  0  0  0  0  0  0  0  0  0  0
  149.0740  158.7910  132.3850 C   0  0  0  0  0  0  0  0  0  0  0  0
  149.5730  157.4670  132.2210 N   0  0  0  0  0  0  0  0  0  0  0  0
  149.8480  159.7680  132.1960 O   0  0  0  0  0  0  0  0  0  0  0  0
  147.1350  160.3080  132.9830 C   0  0  0  0  0  0  0  0  0  0  0  0
  145.8390  160.0980  133.3970 C   0  0  0  0  0  0  0  0  0  0  0  0
  144.8390  161.0120  133.7060 C   0  0  0  0  0  0  0  0  0  0  0  0
  143.5790  160.5130  134.0710 C   0  0  0  0  0  0  0  0  0  0  0  0
  143.3310  159.1130  134.1110 C   0  0  0  0  0  0  0  0  0  0  0  0
  142.0200  158.6140  134.4680 N   0  0  0  0  0  0  0  0  0  0  0  0
  141.5730  158.6900  135.8640 C   0  0  0  0  0  0  0  0  0  0  0  0
  141.1140  158.0580  133.4480 C   0  0  0  0  0  0  0  0  0  0  0  0
  140.2760  159.1570  132.7730 C   0  0  0  0  0  0  0  0  0  0  0  0
  139.0420  158.6140  132.0340 C   0  0  0  0  0  0  0  0  0  0  0  0
  138.4450  159.6310  131.1070 C   0  0  0  0  0  0  0  0  0  0  0  0
  138.8470  160.7830  131.1090 O   0  0  0  0  0  0  0  0  0  0  0  0
  144.3800  158.2190  133.7890 C   0  0  0  0  0  0  0  0  0  0  0  0
  145.6290  158.7470  133.4480 C   0  0  0  0  0  0  0  0  0  0  0  0
  148.0380  154.0530  134.8614 H   0  0  0  0  0  0  0  0  0  0  0  0
  147.1240  153.8203  133.3326 H   0  0  0  0  0  0  0  0  0  0  0  0
  148.6466  154.7734  133.3326 H   0  0  0  0  0  0  0  0  0  0  0  0
  145.9289  155.5177  134.4965 H   0  0  0  0  0  0  0  0  0  0  0  0
  147.4509  156.3508  134.9956 H   0  0  0  0  0  0  0  0  0  0  0  0
  149.0450  156.7590  131.6640 H   0  0  0  0  0  0  0  0  0  0  0  0
  147.6380  161.2743  132.8305 H   0  0  0  0  0  0  0  0  0  0  0  0
  145.0293  162.0947  133.6657 H   0  0  0  0  0  0  0  0  0  0  0  0
  142.7721  161.2144  134.3297 H   0  0  0  0  0  0  0  0  0  0  0  0
  142.4337  158.5437  136.5331 H   0  0  0  0  0  0  0  0  0  0  0  0
  141.1257  159.6771  136.0525 H   0  0  0  0  0  0  0  0  0  0  0  0
  140.8246  157.9062  136.0525 H   0  0  0  0  0  0  0  0  0  0  0  0
  141.7125  157.5443  132.6813 H   0  0  0  0  0  0  0  0  0  0  0  0
  140.4260  157.3581  133.9448 H   0  0  0  0  0  0  0  0  0  0  0  0
  139.9374  159.8623  133.5463 H   0  0  0  0  0  0  0  0  0  0  0  0
  140.9180  159.6412  132.0224 H   0  0  0  0  0  0  0  0  0  0  0  0
  139.3395  157.7318  131.4481 H   0  0  0  0  0  0  0  0  0  0  0  0
  138.2830  158.3563  132.7873 H   0  0  0  0  0  0  0  0  0  0  0  0
  137.6383  159.3358  130.4199 H   0  0  0  0  0  0  0  0  0  0  0  0
  144.2161  157.1314  133.8067 H   0  0  0  0  0  0  0  0  0  0  0  0
  1  2  1  0
  2  3  1  0
  3  4  2  0
  3  5  1  0
  5  6  1  0
  6  7  1  0
  7  8  1  0
  7  9  2  0
  6 10  2  0
 10 11  1  0
 11 12  2  0
 12 13  1  0
 13 14  2  0
 14 15  1  0
 15 16  1  0
 15 17  1  0
 17 18  1  0
 18 19  1  0
 19 20  1  0
 20 21  2  0
 14 22  1  0
 22 23  2  0
 23  5  1  0
 23 11  1  0
  1 24  1  0
  1 25  1  0
  1 26  1  0
  2 27  1  0
  2 28  1  0
  8 29  1  0
 10 30  1  0
 12 31  1  0
 13 32  1  0
 16 33  1  0
 16 34  1  0
 16 35  1  0
 17 36  1  0
 17 37  1  0
 18 38  1  0
 18 39  1  0
 19 40  1  0
 19 41  1  0
 20 42  1  0
 22 43  1  0
M  CHG  1   8  -1
M  END
>  <UniqueID>  (11) 
11

>  <SMILES>  (11) 
CCC(=O)n1c(C([NH-])=O)cc2ccc(N(C)CCCC=O)cc21

>  <Energy>  (11) 
75.29250039031645

>  <Genealogy>  (11) 
CCC(=O)n1c(C([NH-])=O)cc2ccc(N(C)CCCC=O)cc21 (protonated)
CCC(=O)n1c(C([NH-])=O)cc2ccc(N(C)CCCC=O)cc21 (3D coordinates assigned)
CCC(=O)n1c(C([NH-])=O)cc2ccc(N(C)CCCC=O)cc21 (optimized conformer: 75.29250039031645 kcal/mol)

>  <smiles>  (11) 
CCC(=O)n1c(C(N)=O)cc2ccc(N(C)CCCC=O)cc21

>  <score_type>  (11) 
oracle

>  <origin>  (11) 
adg

>  <m_score__min__energy>  (11) 
-6.8099999999999996

>  <m_primary>  (11) 
energy

$$$$
11:0
     RDKit          3D

 26 27  0  0  0  0  0  0  0  0999 V2000
  145.6330  160.4550  132.9300 N   0  0  0  0  0  0  0  0  0  0  0  0
  145.0360  159.2900  133.5000 C   0  0  0  0  0  0  0  0  0  0  0  0
  144.0020  159.4100  134.2090 O   0  0  0  0  0  0  0  0  0  0  0  0
  145.6460  157.9560  133.3260 C   0  0  0  0  0  0  0  0  0  0  0  0
  144.9180  156.7700  133.3750 C   0  0  0  0  0  0  0  0  0  0  0  0
  145.8490  155.7670  133.2360 C   0  0  0  0  0  0  0  0  0  0  0  0
  145.6740  154.3880  133.1860 C   0  0  0  0  0  0  0  0  0  0  0  0
  146.8100  153.5860  132.9860 C   0  0  0  0  0  0  0  0  0  0  0  0
  148.0950  154.1710  132.8480 C   0  0  0  0  0  0  0  0  0  0  0  0
  149.2970  153.3030  132.5690 C   0  0  0  0  0  0  0  0  0  0  0  0
  149.6110  152.5340  133.6770 F   0  0  0  0  0  0  0  0  0  0  0  0
  149.0480  152.4510  131.5080 F   0  0  0  0  0  0  0  0  0  0  0  0
  150.3770  154.1070  132.2580 F   0  0  0  0  0  0  0  0  0  0  0  0
  148.2270  155.5790  132.8770 C   0  0  0  0  0  0  0  0  0  0  0  0
  147.0820  156.3530  133.0990 C   0  0  0  0  0  0  0  0  0  0  0  0
  146.9730  157.7010  133.1500 N   0  0  0  0  0  0  0  0  0  0  0  0
  148.0210  158.6600  132.9290 C   0  0  0  0  0  0  0  0  0  0  0  0
  148.1640  159.6340  133.7160 O   0  0  0  0  0  0  0  0  0  0  0  0
  148.8810  158.5110  131.8430 O   0  0  0  0  0  0  0  0  0  0  0  0
  149.2380  160.0320  130.5000 I   0  0  0  0  0  0  0  0  0  0  0  0
  146.5750  160.4140  132.4800 H   0  0  0  0  0  0  0  0  0  0  0  0
  145.1670  161.3840  133.0290 H   0  0  0  0  0  0  0  0  0  0  0  0
  143.8306  156.6589  133.4985 H   0  0  0  0  0  0  0  0  0  0  0  0
  144.6763  153.9390  133.2996 H   0  0  0  0  0  0  0  0  0  0  0  0
  146.7019  152.4925  132.9358 H   0  0  0  0  0  0  0  0  0  0  0  0
  149.2075  156.0550  132.7284 H   0  0  0  0  0  0  0  0  0  0  0  0
  1  2  1  0
  2  3  2  0
  2  4  1  0
  4  5  2  0
  5  6  1  0
  6  7  2  0
  7  8  1  0
  8  9  2  0
  9 10  1  0
 10 11  1  0
 10 12  1  0
 10 13  1  0
  9 14  1  0
 14 15  2  0
 15 16  1  0
 16 17  1  0
 17 18  2  0
 17 19  1  0
 19 20  1  0
 16  4  1  0
 15  6  1  0
  1 21  1  0
  1 22  1  0
  5 23  1  0
  7 24  1  0
  8 25  1  0
 14 26  1  0
M  END
>  <UniqueID>  (12) 
12

>  <SMILES>  (12) 
NC(=O)c1cc2ccc(C(F)(F)F)cc2n1C(=O)OI

>  <Energy>  (12) 
66.4819611361645

>  <Genealogy>  (12) 
NC(=O)c1cc2ccc(C(F)(F)F)cc2n1C(=O)OI (3D coordinates assigned)
NC(=O)c1cc2ccc(C(F)(F)F)cc2n1C(=O)OI (optimized conformer: 66.4819611361645 kcal/mol)

>  <smiles>  (12) 
NC(=O)c1cc2ccc(C(F)(F)F)cc2n1C(=O)OI

>  <score_type>  (12) 
oracle

>  <origin>  (12) 
adg

>  <m_score__min__energy>  (12) 
-6.7800000000000002

>  <m_primary>  (12) 
energy

$$$$
12:0
     RDKit          3D

 50 52  0  0  0  0  0  0  0  0999 V2000
  140.9070  159.3530  133.9120 C   0  0  0  0  0  0  0  0  0  0  0  0
  141.7090  158.6110  134.9970 C   0  0  0  0  0  0  0  0  0  0  0  0
  141.3950  157.1030  134.9730 C   0  0  0  0  0  0  0  0  0  0  0  0
  141.3260  159.1740  136.3740 C   0  0  0  0  0  0  0  0  0  0  0  0
  143.1170  158.8340  134.8270 O   0  0  0  0  0  0  0  0  0  0  0  0
  143.8520  158.6570  133.6450 C   0  0  0  0  0  0  0  0  0  0  0  0
  143.3680  158.0160  132.6710 O   0  0  0  0  0  0  0  0  0  0  0  0
  145.1830  159.1860  133.5590 N   0  0  0  0  0  0  0  0  0  0  0  0
  145.5760  160.4900  133.6320 C   0  0  0  0  0  0  0  0  0  0  0  0
  144.7080  161.6400  133.9610 C   0  0  0  0  0  0  0  0  0  0  0  0
  143.3060  161.5650  133.7110 N   0  0  0  0  0  0  0  0  0  0  0  0
  145.1950  162.7040  134.4270 O   0  0  0  0  0  0  0  0  0  0  0  0
  146.9500  160.5970  133.4320 C   0  0  0  0  0  0  0  0  0  0  0  0
  147.3930  159.3090  133.2400 C   0  0  0  0  0  0  0  0  0  0  0  0
  148.6740  158.8320  132.9780 C   0  0  0  0  0  0  0  0  0  0  0  0
  148.8360  157.4490  132.7870 C   0  0  0  0  0  0  0  0  0  0  0  0
  147.7230  156.5750  132.8590 C   0  0  0  0  0  0  0  0  0  0  0  0
  147.8960  155.1020  132.5880 C   0  0  0  0  0  0  0  0  0  0  0  0
  146.7250  154.2810  133.1430 C   0  0  0  0  0  0  0  0  0  0  0  0
  146.6850  154.3170  134.6420 C   0  0  0  0  0  0  0  0  0  0  0  0
  145.5750  154.5320  135.4410 C   0  0  0  0  0  0  0  0  0  0  0  0
  145.9430  154.3750  136.7250 N   0  0  0  0  0  0  0  0  0  0  0  0
  147.2270  154.0630  136.7610 N   0  0  0  0  0  0  0  0  0  0  0  0
  148.1270  153.7250  138.2250 S   0  0  0  0  0  0  0  0  0  0  0  0
  149.1530  154.8480  138.2810 O   0  0  0  0  0  0  0  0  0  0  0  0
  147.0280  154.1080  139.4660 O   0  0  0  0  0  0  0  0  0  0  0  0
  147.7160  154.0100  135.5100 C   0  0  0  0  0  0  0  0  0  0  0  0
  146.4370  157.0970  133.1190 C   0  0  0  0  0  0  0  0  0  0  0  0
  146.3080  158.4750  133.3230 C   0  0  0  0  0  0  0  0  0  0  0  0
  140.1796  160.0260  134.3895 H   0  0  0  0  0  0  0  0  0  0  0  0
  141.5942  159.9408  133.2857 H   0  0  0  0  0  0  0  0  0  0  0  0
  140.3743  158.6223  133.2857 H   0  0  0  0  0  0  0  0  0  0  0  0
  141.3170  156.7283  136.0043 H   0  0  0  0  0  0  0  0  0  0  0  0
  140.4426  156.9351  134.4488 H   0  0  0  0  0  0  0  0  0  0  0  0
  142.2012  156.5689  134.4488 H   0  0  0  0  0  0  0  0  0  0  0  0
  141.7575  158.5397  137.1624 H   0  0  0  0  0  0  0  0  0  0  0  0
  141.7157  160.1979  136.4728 H   0  0  0  0  0  0  0  0  0  0  0  0
  140.2305  159.1875  136.4728 H   0  0  0  0  0  0  0  0  0  0  0  0
  142.8170  160.6430  133.6710 H   0  0  0  0  0  0  0  0  0  0  0  0
  147.5533  161.5168  133.4283 H   0  0  0  0  0  0  0  0  0  0  0  0
  149.5333  159.5164  132.9221 H   0  0  0  0  0  0  0  0  0  0  0  0
  149.8364  157.0412  132.5797 H   0  0  0  0  0  0  0  0  0  0  0  0
  147.9581  154.9445  131.5011 H   0  0  0  0  0  0  0  0  0  0  0  0
  148.8167  154.7674  133.0884 H   0  0  0  0  0  0  0  0  0  0  0  0
  145.7833  154.6927  132.7511 H   0  0  0  0  0  0  0  0  0  0  0  0
  146.8588  153.2356  132.8280 H   0  0  0  0  0  0  0  0  0  0  0  0
  144.5655  154.7874  135.0865 H   0  0  0  0  0  0  0  0  0  0  0  0
  145.3240  154.4600  137.5620 H   0  0  0  0  0  0  0  0  0  0  0  0
  148.7508  153.7661  135.2277 H   0  0  0  0  0  0  0  0  0  0  0  0
  145.5584  156.4365  133.1601 H   0  0  0  0  0  0  0  0  0  0  0  0
  1  2  1  0
  2  3  1  0
  2  4  1  0
  2  5  1  0
  5  6  1  0
  6  7  2  0
  6  8  1  0
  8  9  1  0
  9 10  1  0
 10 11  1  0
 10 12  2  0
  9 13  2  0
 13 14  1  0
 14 15  2  0
 15 16  1  0
 16 17  2  0
 17 18  1  0
 18 19  1  0
 19 20  1  0
 20 21  1  0
 21 22  2  0
 22 23  1  0
 23 24  1  0
 24 25  2  0
 24 26  1  1
 23 27  1  0
 17 28  1  0
 28 29  2  0
 29  8  1  0
 29 14  1  0
 27 20  2  0
  1 30  1  0
  1 31  1  0
  1 32  1  0
  3 33  1  0
  3 34  1  0
  3 35  1  0
  4 36  1  0
  4 37  1  0
  4 38  1  0
 11 39  1  0
 13 40  1  0
 15 41  1  0
 16 42  1  0
 18 43  1  0
 18 44  1  0
 19 45  1  0
 19 46  1  0
 21 47  1  0
 22 48  1  0
 27 49  1  0
 28 50  1  0
M  CHG  3  11  -1  22   1  26  -1
M  END
>  <UniqueID>  (13) 
13

>  <SMILES>  (13) 
CC(C)(C)OC(=O)n1c(C([NH-])=O)cc2ccc(CCc3c[nH+]n([S@@](=O)[O-])c3)cc21

>  <Energy>  (13) 
111.86052773709802

>  <Genealogy>  (13) 
CC(C)(C)OC(=O)n1c(C([NH-])=O)cc2ccc(CCc3c[nH+]n(S(=O)[O-])c3)cc21 (protonated)
CC(C)(C)OC(=O)n1c(C([NH-])=O)cc2ccc(CCc3c[nH+]n([S@@](=O)[O-])c3)cc21 (chirality)
CC(C)(C)OC(=O)n1c(C([NH-])=O)cc2ccc(CCc3c[nH+]n([S@@](=O)[O-])c3)cc21 (3D coordinates assigned)
CC(C)(C)OC(=O)n1c(C([NH-])=O)cc2ccc(CCc3c[nH+]n([S@@](=O)[O-])c3)cc21 (optimized conformer: 111.86052773709802 kcal/mol)

>  <smiles>  (13) 
CC(C)(C)OC(=O)n1c(C(N)=O)cc2ccc(CCc3cnn(S(=O)O)c3)cc21

>  <score_type>  (13) 
oracle

>  <origin>  (13) 
adg

>  <m_score__min__energy>  (13) 
-8.7100000000000009

>  <m_primary>  (13) 
energy

$$$$
13:0
     RDKit          3D

 43 44  0  0  0  0  0  0  0  0999 V2000
  148.1060  149.5920  132.5910 C   0  0  0  0  0  0  0  0  0  0  0  0
  148.5870  150.9200  133.0150 N   0  0  0  0  0  0  0  0  0  0  0  0
  149.6110  150.7630  134.0630 C   0  0  0  0  0  0  0  0  0  0  0  0
  149.1500  151.6890  131.8780 C   0  0  0  0  0  0  0  0  0  0  0  0
  149.8960  152.9830  132.2830 C   0  0  0  0  0  0  0  0  0  0  0  0
  149.0330  154.2560  132.3040 C   0  0  0  0  0  0  0  0  0  0  0  0
  147.9740  154.2180  133.3730 C   0  0  0  0  0  0  0  0  0  0  0  0
  148.0800  153.3940  134.3210 O   0  0  0  0  0  0  0  0  0  0  0  0
  146.8090  155.0560  133.2840 N   0  0  0  0  0  0  0  0  0  0  0  0
  145.5020  154.6880  133.3960 C   0  0  0  0  0  0  0  0  0  0  0  0
  144.9910  153.3030  133.3880 C   0  0  0  0  0  0  0  0  0  0  0  0
  145.8160  152.2220  132.9610 N   0  0  0  0  0  0  0  0  0  0  0  0
  143.7970  153.0750  133.7220 O   0  0  0  0  0  0  0  0  0  0  0  0
  144.6800  155.8120  133.4400 C   0  0  0  0  0  0  0  0  0  0  0  0
  145.5300  156.8900  133.3360 C   0  0  0  0  0  0  0  0  0  0  0  0
  145.2560  158.2530  133.3580 C   0  0  0  0  0  0  0  0  0  0  0  0
  146.3380  159.1450  133.2780 C   0  0  0  0  0  0  0  0  0  0  0  0
  147.6650  158.6600  133.1630 C   0  0  0  0  0  0  0  0  0  0  0  0
  148.8210  159.6190  133.1370 C   0  0  0  0  0  0  0  0  0  0  0  0
  149.3480  159.7240  131.7730 C   0  0  0  0  0  0  0  0  0  0  0  0
  149.7620  159.8070  130.6960 N   0  0  0  0  0  0  0  0  0  0  0  0
  147.9050  157.2690  133.1420 C   0  0  0  0  0  0  0  0  0  0  0  0
  146.8080  156.4060  133.2310 C   0  0  0  0  0  0  0  0  0  0  0  0
  147.8849  148.9815  133.4789 H   0  0  0  0  0  0  0  0  0  0  0  0
  147.1927  149.7078  131.9889 H   0  0  0  0  0  0  0  0  0  0  0  0
  148.8816  149.0961  131.9889 H   0  0  0  0  0  0  0  0  0  0  0  0
  147.7900  151.4430  133.4450 H   0  0  0  0  0  0  0  0  0  0  0  0
  149.1367  150.8357  135.0528 H   0  0  0  0  0  0  0  0  0  0  0  0
  150.0942  149.7803  133.9592 H   0  0  0  0  0  0  0  0  0  0  0  0
  150.3664  151.5558  133.9592 H   0  0  0  0  0  0  0  0  0  0  0  0
  149.8565  151.0394  131.3406 H   0  0  0  0  0  0  0  0  0  0  0  0
  148.2959  152.0017  131.2594 H   0  0  0  0  0  0  0  0  0  0  0  0
  150.3102  152.8358  133.2913 H   0  0  0  0  0  0  0  0  0  0  0  0
  150.6639  153.1470  131.5127 H   0  0  0  0  0  0  0  0  0  0  0  0
  149.6865  155.1220  132.4857 H   0  0  0  0  0  0  0  0  0  0  0  0
  148.5236  154.3300  131.3319 H   0  0  0  0  0  0  0  0  0  0  0  0
  146.6820  151.9680  133.4860 H   0  0  0  0  0  0  0  0  0  0  0  0
  143.5845  155.8336  133.5372 H   0  0  0  0  0  0  0  0  0  0  0  0
  144.2226  158.6218  133.4358 H   0  0  0  0  0  0  0  0  0  0  0  0
  146.1541  160.2292  133.3048 H   0  0  0  0  0  0  0  0  0  0  0  0
  148.4817  160.6094  133.4747 H   0  0  0  0  0  0  0  0  0  0  0  0
  149.6134  159.2511  133.8054 H   0  0  0  0  0  0  0  0  0  0  0  0
  148.9282  156.8741  133.0578 H   0  0  0  0  0  0  0  0  0  0  0  0
  1  2  1  0
  2  3  1  0
  2  4  1  0
  4  5  1  0
  5  6  1  0
  6  7  1  0
  7  8  2  0
  7  9  1  0
  9 10  1  0
 10 11  1  0
 11 12  1  0
 11 13  2  0
 10 14  2  0
 14 15  1  0
 15 16  2  0
 16 17  1  0
 17 18  2  0
 18 19  1  0
 19 20  1  0
 20 21  3  0
 18 22  1  0
 22 23  2  0
 23  9  1  0
 23 15  1  0
  1 24  1  0
  1 25  1  0
  1 26  1  0
  2 27  1  0
  3 28  1  0
  3 29  1  0
  3 30  1  0
  4 31  1  0
  4 32  1  0
  5 33  1  0
  5 34  1  0
  6 35  1  0
  6 36  1  0
 12 37  1  0
 14 38  1  0
 16 39  1  0
 17 40  1  0
 19 41  1  0
 19 42  1  0
 22 43  1  0
M  CHG  2   2   1  12  -1
M  END
>  <UniqueID>  (14) 
14

>  <SMILES>  (14) 
C[NH+](C)CCCC(=O)n1c(C([NH-])=O)cc2ccc(CC#N)cc21

>  <Energy>  (14) 
75.8883888189687

>  <Genealogy>  (14) 
C[NH+](C)CCCC(=O)n1c(C([NH-])=O)cc2ccc(CC#N)cc21 (protonated)
C[NH+](C)CCCC(=O)n1c(C([NH-])=O)cc2ccc(CC#N)cc21 (3D coordinates assigned)
C[NH+](C)CCCC(=O)n1c(C([NH-])=O)cc2ccc(CC#N)cc21 (optimized conformer: 75.8883888189687 kcal/mol)

>  <smiles>  (14) 
CN(C)CCCC(=O)n1c(C(N)=O)cc2ccc(CC#N)cc21

>  <score_type>  (14) 
oracle

>  <origin>  (14) 
adg

>  <m_score__min__energy>  (14) 
-5.9199999999999999

>  <m_primary>  (14) 
energy

$$$$
14:0
     RDKit          3D

 33 34  0  0  0  0  0  0  0  0999 V2000
  149.6720  151.0130  133.7250 C   0  0  0  0  0  0  0  0  0  0  0  0
  149.0520  151.9310  132.6790 C   0  0  0  0  0  0  0  0  0  0  0  0
  148.4710  153.0780  133.2970 O   0  0  0  0  0  0  0  0  0  0  0  0
  148.8430  154.3900  132.9870 C   0  0  0  0  0  0  0  0  0  0  0  0
  149.8380  154.6140  132.2430 O   0  0  0  0  0  0  0  0  0  0  0  0
  148.0690  155.4880  133.4940 N   0  0  0  0  0  0  0  0  0  0  0  0
  147.1070  155.4590  134.4590 C   0  0  0  0  0  0  0  0  0  0  0  0
  146.5390  154.2460  135.0850 C   0  0  0  0  0  0  0  0  0  0  0  0
  147.3530  153.3720  135.8630 N   0  0  0  0  0  0  0  0  0  0  0  0
  145.3290  153.9530  134.8920 O   0  0  0  0  0  0  0  0  0  0  0  0
  146.6490  156.7470  134.7320 C   0  0  0  0  0  0  0  0  0  0  0  0
  147.3590  157.5720  133.8900 C   0  0  0  0  0  0  0  0  0  0  0  0
  147.3080  158.9540  133.7380 C   0  0  0  0  0  0  0  0  0  0  0  0
  148.1740  159.5470  132.8040 C   0  0  0  0  0  0  0  0  0  0  0  0
  149.0810  158.7550  132.0570 C   0  0  0  0  0  0  0  0  0  0  0  0
  149.9880  159.3980  131.0460 C   0  0  0  0  0  0  0  0  0  0  0  0
  149.2450  160.4490  130.2850 C   0  0  0  0  0  0  0  0  0  0  0  0
  149.5960  161.6550  130.3650 O   0  0  0  0  0  0  0  0  0  0  0  0
  148.1330  160.1040  129.5280 O   0  0  0  0  0  0  0  0  0  0  0  0
  149.0970  157.3520  132.2300 C   0  0  0  0  0  0  0  0  0  0  0  0
  148.2100  156.7870  133.1540 C   0  0  0  0  0  0  0  0  0  0  0  0
  149.4227  151.3821  134.7308 H   0  0  0  0  0  0  0  0  0  0  0  0
  149.2762  149.9944  133.5997 H   0  0  0  0  0  0  0  0  0  0  0  0
  150.7648  150.9997  133.5997 H   0  0  0  0  0  0  0  0  0  0  0  0
  149.8326  152.2561  131.9754 H   0  0  0  0  0  0  0  0  0  0  0  0
  148.2642  151.3789  132.1457 H   0  0  0  0  0  0  0  0  0  0  0  0
  148.0680  152.7590  135.4120 H   0  0  0  0  0  0  0  0  0  0  0  0
  145.8830  157.0413  135.4646 H   0  0  0  0  0  0  0  0  0  0  0  0
  146.6108  159.5639  134.3312 H   0  0  0  0  0  0  0  0  0  0  0  0
  148.1477  160.6360  132.6512 H   0  0  0  0  0  0  0  0  0  0  0  0
  150.8418  159.8590  131.5642 H   0  0  0  0  0  0  0  0  0  0  0  0
  150.3465  158.6307  130.3441 H   0  0  0  0  0  0  0  0  0  0  0  0
  149.7887  156.7204  131.6533 H   0  0  0  0  0  0  0  0  0  0  0  0
  1  2  1  0
  2  3  1  0
  3  4  1  0
  4  5  2  0
  4  6  1  0
  6  7  1  0
  7  8  1  0
  8  9  1  0
  8 10  2  0
  7 11  2  0
 11 12  1  0
 12 13  2  0
 13 14  1  0
 14 15  2  0
 15 16  1  0
 16 17  1  0
 17 18  2  0
 17 19  1  0
 15 20  1  0
 20 21  2  0
 21  6  1  0
 21 12  1  0
  1 22  1  0
  1 23  1  0
  1 24  1  0
  2 25  1  0
  2 26  1  0
  9 27  1  0
 11 28  1  0
 13 29  1  0
 14 30  1  0
 16 31  1  0
 16 32  1  0
 20 33  1  0
M  CHG  2   9  -1  19  -1
M  END
>  <UniqueID>  (15) 
15

>  <SMILES>  (15) 
CCOC(=O)n1c(C([NH-])=O)cc2ccc(CC(=O)[O-])cc21

>  <Energy>  (15) 
66.76399752111706

>  <Genealogy>  (15) 
CCOC(=O)n1c(C([NH-])=O)cc2ccc(CC(=O)[O-])cc21 (protonated)
CCOC(=O)n1c(C([NH-])=O)cc2ccc(CC(=O)[O-])cc21 (3D coordinates assigned)
CCOC(=O)n1c(C([NH-])=O)cc2ccc(CC(=O)[O-])cc21 (optimized conformer: 66.76399752111706 kcal/mol)

>  <smiles>  (15) 
CCOC(=O)n1c(C(N)=O)cc2ccc(CC(=O)O)cc21

>  <score_type>  (15) 
oracle

>  <origin>  (15) 
adg

>  <m_score__min__energy>  (15) 
-6.2400000000000002

>  <m_primary>  (15) 
energy

$$$$
15:0
     RDKit          3D

 47 49  0  0  0  0  0  0  0  0999 V2000
  141.4770  156.4590  136.9020 C   0  0  0  0  0  0  0  0  0  0  0  0
  142.2660  155.2900  136.3250 C   0  0  0  0  0  0  0  0  0  0  0  0
  142.7630  155.6090  135.0280 O   0  0  0  0  0  0  0  0  0  0  0  0
  141.9800  156.1930  134.0240 C   0  0  0  0  0  0  0  0  0  0  0  0
  141.4000  155.4700  133.1680 O   0  0  0  0  0  0  0  0  0  0  0  0
  141.8440  157.6220  133.9670 N   0  0  0  0  0  0  0  0  0  0  0  0
  140.6990  158.3500  134.0950 C   0  0  0  0  0  0  0  0  0  0  0  0
  139.3300  157.7940  134.1580 C   0  0  0  0  0  0  0  0  0  0  0  0
  138.9280  156.7400  133.2810 N   0  0  0  0  0  0  0  0  0  0  0  0
  138.5110  158.2250  135.0120 O   0  0  0  0  0  0  0  0  0  0  0  0
  140.9840  159.7150  134.0640 C   0  0  0  0  0  0  0  0  0  0  0  0
  142.3480  159.8000  133.9120 C   0  0  0  0  0  0  0  0  0  0  0  0
  143.1700  160.9190  133.8300 C   0  0  0  0  0  0  0  0  0  0  0  0
  144.5520  160.7140  133.7020 C   0  0  0  0  0  0  0  0  0  0  0  0
  145.0930  159.4010  133.6670 C   0  0  0  0  0  0  0  0  0  0  0  0
  146.5890  159.1760  133.5350 C   0  0  0  0  0  0  0  0  0  0  0  0
  146.8880  157.8630  132.7870 C   0  0  0  0  0  0  0  0  0  0  0  0
  148.3570  157.8370  132.3530 C   0  0  0  0  0  0  0  0  0  0  0  0
  148.6720  158.9100  131.3770 N   0  0  0  0  0  0  0  0  0  0  0  0
  150.0980  159.2690  131.4440 C   0  0  0  0  0  0  0  0  0  0  0  0
  147.8050  160.1130  131.4710 C   0  0  0  0  0  0  0  0  0  0  0  0
  147.3180  160.3930  132.9030 C   0  0  0  0  0  0  0  0  0  0  0  0
  144.2200  158.2890  133.7490 C   0  0  0  0  0  0  0  0  0  0  0  0
  142.8450  158.5240  133.8570 C   0  0  0  0  0  0  0  0  0  0  0  0
  141.5068  156.4148  138.0007 H   0  0  0  0  0  0  0  0  0  0  0  0
  141.9218  157.4055  136.5609 H   0  0  0  0  0  0  0  0  0  0  0  0
  140.4329  156.4006  136.5609 H   0  0  0  0  0  0  0  0  0  0  0  0
  143.1121  155.0622  136.9900 H   0  0  0  0  0  0  0  0  0  0  0  0
  141.5991  154.4190  136.2438 H   0  0  0  0  0  0  0  0  0  0  0  0
  137.9720  156.3290  133.3590 H   0  0  0  0  0  0  0  0  0  0  0  0
  139.5600  156.3940  132.5260 H   0  0  0  0  0  0  0  0  0  0  0  0
  140.2691  160.5472  134.1441 H   0  0  0  0  0  0  0  0  0  0  0  0
  142.7490  161.9347  133.8645 H   0  0  0  0  0  0  0  0  0  0  0  0
  145.2251  161.5809  133.6278 H   0  0  0  0  0  0  0  0  0  0  0  0
  146.9952  159.0757  134.5523 H   0  0  0  0  0  0  0  0  0  0  0  0
  146.6884  157.0100  133.4522 H   0  0  0  0  0  0  0  0  0  0  0  0
  146.2448  157.7969  131.8971 H   0  0  0  0  0  0  0  0  0  0  0  0
  148.9914  157.9691  133.2418 H   0  0  0  0  0  0  0  0  0  0  0  0
  148.5481  156.8698  131.8651 H   0  0  0  0  0  0  0  0  0  0  0  0
  150.4074  159.3469  132.4967 H   0  0  0  0  0  0  0  0  0  0  0  0
  150.6954  158.4932  130.9427 H   0  0  0  0  0  0  0  0  0  0  0  0
  150.2568  160.2352  130.9427 H   0  0  0  0  0  0  0  0  0  0  0  0
  148.3757  160.9847  131.1182 H   0  0  0  0  0  0  0  0  0  0  0  0
  146.9153  159.9264  130.8517 H   0  0  0  0  0  0  0  0  0  0  0  0
  148.1874  160.6460  133.5276 H   0  0  0  0  0  0  0  0  0  0  0  0
  146.5983  161.2234  132.8536 H   0  0  0  0  0  0  0  0  0  0  0  0
  144.6145  157.2624  133.7282 H   0  0  0  0  0  0  0  0  0  0  0  0
  1  2  1  0
  2  3  1  0
  3  4  1  0
  4  5  2  0
  4  6  1  0
  6  7  1  0
  7  8  1  0
  8  9  1  0
  8 10  2  0
  7 11  2  0
 11 12  1  0
 12 13  2  0
 13 14  1  0
 14 15  2  0
 15 16  1  0
 16 17  1  0
 17 18  1  0
 18 19  1  0
 19 20  1  0
 19 21  1  0
 21 22  1  0
 15 23  1  0
 23 24  2  0
 24  6  1  0
 24 12  1  0
 22 16  1  0
  1 25  1  0
  1 26  1  0
  1 27  1  0
  2 28  1  0
  2 29  1  0
  9 30  1  0
  9 31  1  0
 11 32  1  0
 13 33  1  0
 14 34  1  0
 16 35  1  0
 17 36  1  0
 17 37  1  0
 18 38  1  0
 18 39  1  0
 20 40  1  0
 20 41  1  0
 20 42  1  0
 21 43  1  0
 21 44  1  0
 22 45  1  0
 22 46  1  0
 23 47  1  0
M  END
>  <UniqueID>  (16) 
16

>  <SMILES>  (16) 
CCOC(=O)n1c(C(N)=O)cc2ccc(C3CCN(C)CC3)cc21

>  <Energy>  (16) 
91.4413534882379

>  <Genealogy>  (16) 
CCOC(=O)n1c(C(N)=O)cc2ccc(C3CCN(C)CC3)cc21 (3D coordinates assigned)
CCOC(=O)n1c(C(N)=O)cc2ccc(C3CCN(C)CC3)cc21 (nonaromatic ring conformer: 91.4413534882379 kcal/mol)

>  <smiles>  (16) 
CCOC(=O)n1c(C(N)=O)cc2ccc(C3CCN(C)CC3)cc21

>  <score_type>  (16) 
oracle

>  <origin>  (16) 
adg

>  <m_score__min__energy>  (16) 
-8.75

>  <m_primary>  (16) 
energy

$$$$
16:0
     RDKit          3D

 40 43  0  0  0  0  0  0  0  0999 V2000
  146.5240  155.6770  134.6000 C   0  0  0  0  0  0  0  0  0  0  0  0
  146.5040  156.4750  133.3350 C   0  0  0  0  0  0  0  0  0  0  0  0
  146.6290  155.8780  132.2320 O   0  0  0  0  0  0  0  0  0  0  0  0
  146.3740  157.9070  133.3620 N   0  0  0  0  0  0  0  0  0  0  0  0
  147.2890  158.8410  132.9820 C   0  0  0  0  0  0  0  0  0  0  0  0
  148.6960  158.5780  132.6220 C   0  0  0  0  0  0  0  0  0  0  0  0
  149.0610  157.4260  131.8590 N   0  0  0  0  0  0  0  0  0  0  0  0
  149.5980  159.3530  133.0370 O   0  0  0  0  0  0  0  0  0  0  0  0
  146.7390  160.1200  133.0360 C   0  0  0  0  0  0  0  0  0  0  0  0
  145.4490  159.9410  133.4830 C   0  0  0  0  0  0  0  0  0  0  0  0
  144.4460  160.8750  133.7220 C   0  0  0  0  0  0  0  0  0  0  0  0
  143.1970  160.4030  134.1600 C   0  0  0  0  0  0  0  0  0  0  0  0
  142.9700  159.0140  134.3310 C   0  0  0  0  0  0  0  0  0  0  0  0
  141.6410  158.5240  134.8300 C   0  0  0  0  0  0  0  0  0  0  0  0
  140.5870  158.7730  133.8010 C   0  0  0  0  0  0  0  0  0  0  0  0
  140.5800  159.8640  132.9960 N   0  0  0  0  0  0  0  0  0  0  0  0
  139.4760  159.8780  132.2070 C   0  0  0  0  0  0  0  0  0  0  0  0
  139.1880  160.8710  131.2700 C   0  0  0  0  0  0  0  0  0  0  0  0
  138.0030  160.7690  130.5200 C   0  0  0  0  0  0  0  0  0  0  0  0
  137.1250  159.6840  130.7160 C   0  0  0  0  0  0  0  0  0  0  0  0
  137.4240  158.6920  131.6640 C   0  0  0  0  0  0  0  0  0  0  0  0
  138.6050  158.8160  132.3920 C   0  0  0  0  0  0  0  0  0  0  0  0
  139.2130  157.8040  133.5830 S   0  0  0  0  0  0  0  0  0  0  0  0
  144.0160  158.0960  134.0870 C   0  0  0  0  0  0  0  0  0  0  0  0
  145.2540  158.5970  133.6710 C   0  0  0  0  0  0  0  0  0  0  0  0
  146.5069  156.3582  135.4635 H   0  0  0  0  0  0  0  0  0  0  0  0
  145.6420  155.0205  134.6334 H   0  0  0  0  0  0  0  0  0  0  0  0
  147.4378  155.0655  134.6334 H   0  0  0  0  0  0  0  0  0  0  0  0
  148.3650  156.6790  131.6450 H   0  0  0  0  0  0  0  0  0  0  0  0
  150.0550  157.2790  131.5760 H   0  0  0  0  0  0  0  0  0  0  0  0
  147.2302  161.0695  132.7770 H   0  0  0  0  0  0  0  0  0  0  0  0
  144.6252  161.9500  133.5727 H   0  0  0  0  0  0  0  0  0  0  0  0
  142.3881  161.1176  134.3721 H   0  0  0  0  0  0  0  0  0  0  0  0
  141.7036  157.4449  135.0340 H   0  0  0  0  0  0  0  0  0  0  0  0
  141.3801  159.0629  135.7527 H   0  0  0  0  0  0  0  0  0  0  0  0
  139.8747  161.7173  131.1209 H   0  0  0  0  0  0  0  0  0  0  0  0
  137.7596  161.5411  129.7753 H   0  0  0  0  0  0  0  0  0  0  0  0
  136.2009  159.6139  130.1234 H   0  0  0  0  0  0  0  0  0  0  0  0
  136.7453  157.8418  131.8269 H   0  0  0  0  0  0  0  0  0  0  0  0
  143.8608  157.0152  134.2207 H   0  0  0  0  0  0  0  0  0  0  0  0
  1  2  1  0
  2  3  2  0
  2  4  1  0
  4  5  1  0
  5  6  1  0
  6  7  1  0
  6  8  2  0
  5  9  2  0
  9 10  1  0
 10 11  2  0
 11 12  1  0
 12 13  2  0
 13 14  1  0
 14 15  1  0
 15 16  2  0
 16 17  1  0
 17 18  2  0
 18 19  1  0
 19 20  2  0
 20 21  1  0
 21 22  2  0
 22 23  1  0
 13 24  1  0
 24 25  2  0
 25  4  1  0
 25 10  1  0
 23 15  1  0
 22 17  1  0
  1 26  1  0
  1 27  1  0
  1 28  1  0
  7 29  1  0
  7 30  1  0
  9 31  1  0
 11 32  1  0
 12 33  1  0
 14 34  1  0
 14 35  1  0
 18 36  1  0
 19 37  1  0
 20 38  1  0
 21 39  1  0
 24 40  1  0
M  END
>  <UniqueID>  (17) 
17

>  <SMILES>  (17) 
CC(=O)n1c(C(N)=O)cc2ccc(Cc3nc4ccccc4s3)cc21

>  <Energy>  (17) 
115.77685831859677

>  <Genealogy>  (17) 
CC(=O)n1c(C(N)=O)cc2ccc(Cc3nc4ccccc4s3)cc21 (3D coordinates assigned)
CC(=O)n1c(C(N)=O)cc2ccc(Cc3nc4ccccc4s3)cc21 (optimized conformer: 115.77685831859677 kcal/mol)

>  <smiles>  (17) 
CC(=O)n1c(C(N)=O)cc2ccc(Cc3nc4ccccc4s3)cc21

>  <score_type>  (17) 
oracle

>  <origin>  (17) 
adg

>  <m_score__min__energy>  (17) 
-8.8900000000000006

>  <m_primary>  (17) 
energy

$$$$
17:0
     RDKit          3D

 38 40  0  0  0  0  0  0  0  0999 V2000
  142.5940  155.2550  134.1830 C   0  0  0  0  0  0  0  0  0  0  0  0
  141.5470  156.1750  133.6410 C   0  0  0  0  0  0  0  0  0  0  0  0
  140.5880  155.6910  132.9810 O   0  0  0  0  0  0  0  0  0  0  0  0
  141.6080  157.5910  133.8790 N   0  0  0  0  0  0  0  0  0  0  0  0
  140.5620  158.4230  134.1420 C   0  0  0  0  0  0  0  0  0  0  0  0
  139.1640  158.0070  134.3800 C   0  0  0  0  0  0  0  0  0  0  0  0
  138.4190  157.3040  133.3860 N   0  0  0  0  0  0  0  0  0  0  0  0
  138.6330  158.2360  135.5000 O   0  0  0  0  0  0  0  0  0  0  0  0
  140.9850  159.7490  134.1780 C   0  0  0  0  0  0  0  0  0  0  0  0
  142.3380  159.7040  133.9310 C   0  0  0  0  0  0  0  0  0  0  0  0
  143.2610  160.7390  133.8270 C   0  0  0  0  0  0  0  0  0  0  0  0
  144.5890  160.4090  133.5130 C   0  0  0  0  0  0  0  0  0  0  0  0
  144.9700  159.0590  133.2950 C   0  0  0  0  0  0  0  0  0  0  0  0
  146.3740  158.7240  132.9460 C   0  0  0  0  0  0  0  0  0  0  0  0
  146.8510  157.4080  133.0610 C   0  0  0  0  0  0  0  0  0  0  0  0
  148.1370  157.1120  132.7390 N   0  0  0  0  0  0  0  0  0  0  0  0
  149.0030  158.0620  132.3000 C   0  0  0  0  0  0  0  0  0  0  0  0
  148.5870  159.3890  132.1630 C   0  0  0  0  0  0  0  0  0  0  0  0
  149.5150  160.3390  131.7090 O   0  0  0  0  0  0  0  0  0  0  0  0
  149.5830  160.8340  130.3760 C   0  0  0  0  0  0  0  0  0  0  0  0
  148.6790  160.1450  129.5900 F   0  0  0  0  0  0  0  0  0  0  0  0
  149.2610  162.1800  130.3550 F   0  0  0  0  0  0  0  0  0  0  0  0
  147.2590  159.7160  132.4920 C   0  0  0  0  0  0  0  0  0  0  0  0
  143.9980  158.0370  133.4060 C   0  0  0  0  0  0  0  0  0  0  0  0
  142.6890  158.3920  133.7470 C   0  0  0  0  0  0  0  0  0  0  0  0
  142.5683  155.2775  135.2825 H   0  0  0  0  0  0  0  0  0  0  0  0
  142.3990  154.2307  133.8326 H   0  0  0  0  0  0  0  0  0  0  0  0
  143.5847  155.5801  133.8326 H   0  0  0  0  0  0  0  0  0  0  0  0
  138.8790  156.9300  132.5270 H   0  0  0  0  0  0  0  0  0  0  0  0
  137.4160  157.0660  133.5540 H   0  0  0  0  0  0  0  0  0  0  0  0
  140.3695  160.6415  134.3640 H   0  0  0  0  0  0  0  0  0  0  0  0
  142.9596  161.7849  133.9860 H   0  0  0  0  0  0  0  0  0  0  0  0
  145.3432  161.2059  133.4350 H   0  0  0  0  0  0  0  0  0  0  0  0
  146.1789  156.6120  133.4141 H   0  0  0  0  0  0  0  0  0  0  0  0
  150.0380  157.7850  132.0509 H   0  0  0  0  0  0  0  0  0  0  0  0
  150.6041  160.6962  129.9909 H   0  0  0  0  0  0  0  0  0  0  0  0
  146.9114  160.7549  132.3932 H   0  0  0  0  0  0  0  0  0  0  0  0
  144.2663  156.9852  133.2278 H   0  0  0  0  0  0  0  0  0  0  0  0
  1  2  1  0
  2  3  2  0
  2  4  1  0
  4  5  1  0
  5  6  1  0
  6  7  1  0
  6  8  2  0
  5  9  2  0
  9 10  1  0
 10 11  2  0
 11 12  1  0
 12 13  2  0
 13 14  1  0
 14 15  2  0
 15 16  1  0
 16 17  2  0
 17 18  1  0
 18 19  1  0
 19 20  1  0
 20 21  1  0
 20 22  1  0
 18 23  2  0
 13 24  1  0
 24 25  2  0
 25  4  1  0
 25 10  1  0
 23 14  1  0
  1 26  1  0
  1 27  1  0
  1 28  1  0
  7 29  1  0
  7 30  1  0
  9 31  1  0
 11 32  1  0
 12 33  1  0
 15 34  1  0
 17 35  1  0
 20 36  1  0
 23 37  1  0
 24 38  1  0
M  END
>  <UniqueID>  (18) 
18

>  <SMILES>  (18) 
CC(=O)n1c(C(N)=O)cc2ccc(-c3cncc(OC(F)F)c3)cc21

>  <Energy>  (18) 
85.39956561288288

>  <Genealogy>  (18) 
CC(=O)n1c(C(N)=O)cc2ccc(-c3cncc(OC(F)F)c3)cc21 (3D coordinates assigned)
CC(=O)n1c(C(N)=O)cc2ccc(-c3cncc(OC(F)F)c3)cc21 (optimized conformer: 85.39956561288288 kcal/mol)

>  <smiles>  (18) 
CC(=O)n1c(C(N)=O)cc2ccc(-c3cncc(OC(F)F)c3)cc21

>  <score_type>  (18) 
oracle

>  <origin>  (18) 
adg

>  <m_score__min__energy>  (18) 
-7.4800000000000004

>  <m_primary>  (18) 
energy

$$$$
18:0
     RDKit          3D

 42 44  0  0  0  0  0  0  0  0999 V2000
  145.6440  160.8540  133.3170 N   0  0  0  0  0  0  0  0  0  0  0  0
  144.9670  159.6160  133.5390 C   0  0  0  0  0  0  0  0  0  0  0  0
  143.7620  159.6310  133.9060 O   0  0  0  0  0  0  0  0  0  0  0  0
  145.6650  158.3210  133.3980 C   0  0  0  0  0  0  0  0  0  0  0  0
  145.0210  157.0890  133.4720 C   0  0  0  0  0  0  0  0  0  0  0  0
  146.0110  156.1510  133.2890 C   0  0  0  0  0  0  0  0  0  0  0  0
  145.9290  154.7620  133.2470 C   0  0  0  0  0  0  0  0  0  0  0  0
  147.1080  154.0400  132.9930 C   0  0  0  0  0  0  0  0  0  0  0  0
  148.3310  154.7170  132.7600 C   0  0  0  0  0  0  0  0  0  0  0  0
  149.5910  153.9350  132.5100 C   0  0  0  0  0  0  0  0  0  0  0  0
  149.3210  152.4350  132.6020 C   0  0  0  0  0  0  0  0  0  0  0  0
  150.5380  151.7400  132.6060 O   0  0  0  0  0  0  0  0  0  0  0  0
  148.3750  156.1270  132.8120 C   0  0  0  0  0  0  0  0  0  0  0  0
  147.1940  156.8190  133.1010 C   0  0  0  0  0  0  0  0  0  0  0  0
  146.9990  158.1540  133.1780 N   0  0  0  0  0  0  0  0  0  0  0  0
  147.9670  159.1870  132.9250 C   0  0  0  0  0  0  0  0  0  0  0  0
  148.4530  159.8230  133.9000 O   0  0  0  0  0  0  0  0  0  0  0  0
  148.3880  159.5500  131.5160 C   0  0  0  0  0  0  0  0  0  0  0  0
  149.7610  159.0020  131.1330 C   0  0  0  0  0  0  0  0  0  0  0  0
  150.2920  159.9360  130.0520 C   0  0  0  0  0  0  0  0  0  0  0  0
  149.4790  161.2270  130.1430 C   0  0  0  0  0  0  0  0  0  0  0  0
  148.5170  161.0560  131.3100 C   0  0  0  0  0  0  0  0  0  0  0  0
  146.6820  160.8920  133.2230 H   0  0  0  0  0  0  0  0  0  0  0  0
  145.1160  161.7530  133.3590 H   0  0  0  0  0  0  0  0  0  0  0  0
  143.9497  156.9048  133.6407 H   0  0  0  0  0  0  0  0  0  0  0  0
  144.9712  154.2454  133.4076 H   0  0  0  0  0  0  0  0  0  0  0  0
  147.0811  152.9405  132.9749 H   0  0  0  0  0  0  0  0  0  0  0  0
  149.9705  154.1728  131.5053 H   0  0  0  0  0  0  0  0  0  0  0  0
  150.3348  154.2084  133.2729 H   0  0  0  0  0  0  0  0  0  0  0  0
  148.7717  152.2177  133.5300 H   0  0  0  0  0  0  0  0  0  0  0  0
  148.7204  152.1171  131.7370 H   0  0  0  0  0  0  0  0  0  0  0  0
  151.0890  152.1480  131.8890 H   0  0  0  0  0  0  0  0  0  0  0  0
  149.3150  156.6684  132.6297 H   0  0  0  0  0  0  0  0  0  0  0  0
  147.5897  159.1102  130.9002 H   0  0  0  0  0  0  0  0  0  0  0  0
  150.4316  159.0044  132.0050 H   0  0  0  0  0  0  0  0  0  0  0  0
  149.6981  157.9633  130.7765 H   0  0  0  0  0  0  0  0  0  0  0  0
  151.3577  160.1470  130.2244 H   0  0  0  0  0  0  0  0  0  0  0  0
  150.1967  159.4798  129.0556 H   0  0  0  0  0  0  0  0  0  0  0  0
  150.1457  162.0831  130.3235 H   0  0  0  0  0  0  0  0  0  0  0  0
  148.9351  161.4192  129.2064 H   0  0  0  0  0  0  0  0  0  0  0  0
  148.9211  161.5343  132.2144 H   0  0  0  0  0  0  0  0  0  0  0  0
  147.5427  161.5246  131.1072 H   0  0  0  0  0  0  0  0  0  0  0  0
  1  2  1  0
  2  3  2  0
  2  4  1  0
  4  5  2  0
  5  6  1  0
  6  7  2  0
  7  8  1  0
  8  9  2  0
  9 10  1  0
 10 11  1  0
 11 12  1  0
  9 13  1  0
 13 14  2  0
 14 15  1  0
 15 16  1  0
 16 17  2  0
 16 18  1  0
 18 19  1  0
 19 20  1  0
 20 21  1  0
 21 22  1  0
 15  4  1  0
 22 18  1  0
 14  6  1  0
  1 23  1  0
  1 24  1  0
  5 25  1  0
  7 26  1  0
  8 27  1  0
 10 28  1  0
 10 29  1  0
 11 30  1  0
 11 31  1  0
 12 32  1  0
 13 33  1  0
 18 34  1  0
 19 35  1  0
 19 36  1  0
 20 37  1  0
 20 38  1  0
 21 39  1  0
 21 40  1  0
 22 41  1  0
 22 42  1  0
M  END
>  <UniqueID>  (19) 
19

>  <SMILES>  (19) 
NC(=O)c1cc2ccc(CCO)cc2n1C(=O)C1CCCC1

>  <Energy>  (19) 
79.91500372432225

>  <Genealogy>  (19) 
NC(=O)c1cc2ccc(CCO)cc2n1C(=O)C1CCCC1 (3D coordinates assigned)
NC(=O)c1cc2ccc(CCO)cc2n1C(=O)C1CCCC1 (nonaromatic ring conformer: 79.91500372432225 kcal/mol)

>  <smiles>  (19) 
NC(=O)c1cc2ccc(CCO)cc2n1C(=O)C1CCCC1

>  <score_type>  (19) 
oracle

>  <origin>  (19) 
adg

>  <m_score__min__energy>  (19) 
-8.3900000000000006

>  <m_primary>  (19) 
energy

$$$$
19:0
     RDKit          3D

 48 51  0  0  0  0  0  0  0  0999 V2000
  148.9490  157.6060  132.6170 N   0  0  0  0  0  0  0  0  0  0  0  0
  148.3450  158.6050  133.4400 C   0  0  0  0  0  0  0  0  0  0  0  0
  149.0830  159.3590  134.1270 O   0  0  0  0  0  0  0  0  0  0  0  0
  146.8740  158.7760  133.4720 C   0  0  0  0  0  0  0  0  0  0  0  0
  146.2290  160.0090  133.5750 C   0  0  0  0  0  0  0  0  0  0  0  0
  144.8860  159.7130  133.6370 C   0  0  0  0  0  0  0  0  0  0  0  0
  143.7860  160.5630  133.7290 C   0  0  0  0  0  0  0  0  0  0  0  0
  142.5060  159.9820  133.7430 C   0  0  0  0  0  0  0  0  0  0  0  0
  142.3530  158.5790  133.6580 C   0  0  0  0  0  0  0  0  0  0  0  0
  141.0480  158.0000  133.6630 N   0  0  0  0  0  0  0  0  0  0  0  0
  140.1900  157.2480  134.5970 C   0  0  0  0  0  0  0  0  0  0  0  0
  139.0280  157.1100  133.6670 C   0  0  0  0  0  0  0  0  0  0  0  0
  138.8350  155.7830  133.2610 O   0  0  0  0  0  0  0  0  0  0  0  0
  139.9100  157.8750  132.7330 C   0  0  0  0  0  0  0  0  0  0  0  0
  143.4890  157.7490  133.5650 C   0  0  0  0  0  0  0  0  0  0  0  0
  144.7510  158.3510  133.5720 C   0  0  0  0  0  0  0  0  0  0  0  0
  145.9640  157.7610  133.4770 N   0  0  0  0  0  0  0  0  0  0  0  0
  146.2340  156.3560  133.3290 C   0  0  0  0  0  0  0  0  0  0  0  0
  147.3460  155.8970  133.7030 O   0  0  0  0  0  0  0  0  0  0  0  0
  145.1620  155.4160  132.8420 C   0  0  0  0  0  0  0  0  0  0  0  0
  144.7880  154.3450  133.8810 C   0  0  0  0  0  0  0  0  0  0  0  0
  143.4660  153.6860  133.5760 C   0  0  0  0  0  0  0  0  0  0  0  0
  143.4170  152.3200  133.2500 C   0  0  0  0  0  0  0  0  0  0  0  0
  142.1940  151.7090  132.9560 C   0  0  0  0  0  0  0  0  0  0  0  0
  141.0130  152.4570  132.9840 C   0  0  0  0  0  0  0  0  0  0  0  0
  141.0530  153.8150  133.3080 C   0  0  0  0  0  0  0  0  0  0  0  0
  142.2740  154.4300  133.6030 C   0  0  0  0  0  0  0  0  0  0  0  0
  149.9890  157.5210  132.5770 H   0  0  0  0  0  0  0  0  0  0  0  0
  148.3740  156.9170  132.0830 H   0  0  0  0  0  0  0  0  0  0  0  0
  146.6945  161.0053  133.6011 H   0  0  0  0  0  0  0  0  0  0  0  0
  143.9149  161.6538  133.7888 H   0  0  0  0  0  0  0  0  0  0  0  0
  141.6162  160.6241  133.8207 H   0  0  0  0  0  0  0  0  0  0  0  0
  140.6222  156.2779  134.8836 H   0  0  0  0  0  0  0  0  0  0  0  0
  139.9953  157.7057  135.5781 H   0  0  0  0  0  0  0  0  0  0  0  0
  137.9952  157.3982  133.9125 H   0  0  0  0  0  0  0  0  0  0  0  0
  137.8840  155.7220  132.9870 H   0  0  0  0  0  0  0  0  0  0  0  0
  140.1630  157.3064  131.8259 H   0  0  0  0  0  0  0  0  0  0  0  0
  139.5043  158.8052  132.3086 H   0  0  0  0  0  0  0  0  0  0  0  0
  143.3852  156.6565  133.4889 H   0  0  0  0  0  0  0  0  0  0  0  0
  144.2627  156.0027  132.6033 H   0  0  0  0  0  0  0  0  0  0  0  0
  145.5570  154.8944  131.9577 H   0  0  0  0  0  0  0  0  0  0  0  0
  145.5728  153.5743  133.8923 H   0  0  0  0  0  0  0  0  0  0  0  0
  144.6978  154.8422  134.8581 H   0  0  0  0  0  0  0  0  0  0  0  0
  144.3444  151.7290  133.2260 H   0  0  0  0  0  0  0  0  0  0  0  0
  142.1610  150.6391  132.7025 H   0  0  0  0  0  0  0  0  0  0  0  0
  140.0518  151.9756  132.7507 H   0  0  0  0  0  0  0  0  0  0  0  0
  140.1228  154.4017  133.3312 H   0  0  0  0  0  0  0  0  0  0  0  0
  142.3014  155.4999  133.8571 H   0  0  0  0  0  0  0  0  0  0  0  0
  1  2  1  0
  2  3  2  0
  2  4  1  0
  4  5  2  0
  5  6  1  0
  6  7  2  0
  7  8  1  0
  8  9  2  0
  9 10  1  0
 10 11  1  0
 11 12  1  0
 12 13  1  0
 12 14  1  0
  9 15  1  0
 15 16  2  0
 16 17  1  0
 17 18  1  0
 18 19  2  0
 18 20  1  0
 20 21  1  0
 21 22  1  0
 22 23  2  0
 23 24  1  0
 24 25  2  0
 25 26  1  0
 26 27  2  0
 17  4  1  0
 27 22  1  0
 16  6  1  0
 14 10  1  0
  1 28  1  0
  1 29  1  0
  5 30  1  0
  7 31  1  0
  8 32  1  0
 11 33  1  0
 11 34  1  0
 12 35  1  0
 13 36  1  0
 14 37  1  0
 14 38  1  0
 15 39  1  0
 20 40  1  0
 20 41  1  0
 21 42  1  0
 21 43  1  0
 23 44  1  0
 24 45  1  0
 25 46  1  0
 26 47  1  0
 27 48  1  0
M  END
>  <UniqueID>  (20) 
20

>  <SMILES>  (20) 
NC(=O)c1cc2ccc(N3CC(O)C3)cc2n1C(=O)CCc1ccccc1

>  <Energy>  (20) 
132.45906402413388

>  <Genealogy>  (20) 
NC(=O)c1cc2ccc(N3CC(O)C3)cc2n1C(=O)CCc1ccccc1 (3D coordinates assigned)
NC(=O)c1cc2ccc(N3CC(O)C3)cc2n1C(=O)CCc1ccccc1 (nonaromatic ring conformer: 132.45906402413388 kcal/mol)

>  <smiles>  (20) 
NC(=O)c1cc2ccc(N3CC(O)C3)cc2n1C(=O)CCc1ccccc1

>  <score_type>  (20) 
oracle

>  <origin>  (20) 
adg

>  <m_score__min__energy>  (20) 
-9.2100000000000009

>  <m_primary>  (20) 
energy

$$$$
20:0
     RDKit          3D

 34 36  0  0  0  0  0  0  0  0999 V2000
  142.7600  153.0920  132.5530 C   0  0  0  0  0  0  0  0  0  0  0  0
  143.2060  154.4920  132.6140 N   0  0  2  0  0  0  0  0  0  0  0  0
  144.4760  154.7340  131.9130 C   0  0  0  0  0  0  0  0  0  0  0  0
  145.1960  155.1170  133.2030 C   0  0  1  0  0  0  0  0  0  0  0  0
  145.6660  156.5580  133.2700 C   0  0  0  0  0  0  0  0  0  0  0  0
  147.0180  156.9180  133.0110 C   0  0  0  0  0  0  0  0  0  0  0  0
  147.4270  158.2610  133.0660 C   0  0  0  0  0  0  0  0  0  0  0  0
  146.4730  159.2210  133.3880 C   0  0  0  0  0  0  0  0  0  0  0  0
  146.5930  160.5870  133.4860 C   0  0  0  0  0  0  0  0  0  0  0  0
  145.3230  161.0470  133.8240 C   0  0  0  0  0  0  0  0  0  0  0  0
  145.0220  162.4650  134.1120 C   0  0  0  0  0  0  0  0  0  0  0  0
  143.9850  163.1290  133.3920 N   0  0  0  0  0  0  0  0  0  0  0  0
  145.6930  163.1090  134.9600 O   0  0  0  0  0  0  0  0  0  0  0  0
  144.4480  160.0040  133.9250 N   0  0  0  0  0  0  0  0  0  0  0  0
  143.0380  160.0580  134.1940 C   0  0  0  0  0  0  0  0  0  0  0  0
  142.2640  160.6790  133.4180 O   0  0  0  0  0  0  0  0  0  0  0  0
  142.5090  159.4050  135.3000 O   0  0  0  0  0  0  0  0  0  0  0  0
  145.1700  158.8930  133.6580 C   0  0  0  0  0  0  0  0  0  0  0  0
  144.7300  157.5660  133.5920 C   0  0  0  0  0  0  0  0  0  0  0  0
  143.8570  154.8440  133.8860 C   0  0  0  0  0  0  0  0  0  0  0  0
  142.6357  152.7019  133.5740 H   0  0  0  0  0  0  0  0  0  0  0  0
  141.7996  153.0360  132.0197 H   0  0  0  0  0  0  0  0  0  0  0  0
  143.5111  152.4908  132.0197 H   0  0  0  0  0  0  0  0  0  0  0  0
  142.4600  155.1770  132.3430 H   0  0  0  0  0  0  0  0  0  0  0  0
  144.8887  153.8358  131.4303 H   0  0  0  0  0  0  0  0  0  0  0  0
  144.4919  155.4348  131.0653 H   0  0  0  0  0  0  0  0  0  0  0  0
  146.1368  154.6458  133.5237 H   0  0  0  0  0  0  0  0  0  0  0  0
  147.7513  156.1359  132.7649 H   0  0  0  0  0  0  0  0  0  0  0  0
  148.4698  158.5448  132.8607 H   0  0  0  0  0  0  0  0  0  0  0  0
  147.5003  161.1892  133.3303 H   0  0  0  0  0  0  0  0  0  0  0  0
  143.1830  162.5940  132.9920 H   0  0  0  0  0  0  0  0  0  0  0  0
  143.6773  157.3132  133.7868 H   0  0  0  0  0  0  0  0  0  0  0  0
  143.8926  154.0129  134.6057 H   0  0  0  0  0  0  0  0  0  0  0  0
  143.4096  155.6267  134.5163 H   0  0  0  0  0  0  0  0  0  0  0  0
  1  2  1  0
  2  3  1  0
  3  4  1  0
  4  5  1  0
  5  6  2  0
  6  7  1  0
  7  8  2  0
  8  9  1  0
  9 10  2  0
 10 11  1  0
 11 12  1  0
 11 13  2  0
 10 14  1  0
 14 15  1  0
 15 16  2  0
 15 17  1  0
 14 18  1  0
 18 19  2  0
  4 20  1  0
 20  2  1  0
 19  5  1  0
 18  8  1  0
  1 21  1  0
  1 22  1  0
  1 23  1  0
  2 24  1  6
  3 25  1  0
  3 26  1  0
  4 27  1  1
  6 28  1  0
  7 29  1  0
  9 30  1  0
 12 31  1  0
 19 32  1  0
 20 33  1  0
 20 34  1  0
M  CHG  3   2   1  12  -1  17  -1
M  END
>  <UniqueID>  (21) 
21

>  <SMILES>  (21) 
C[NH+]1CC(c2ccc3cc(C([NH-])=O)n(C(=O)[O-])c3c2)C1

>  <Energy>  (21) 
148.73985102183494

>  <Genealogy>  (21) 
C[NH+]1CC(c2ccc3cc(C([NH-])=O)n(C(=O)[O-])c3c2)C1 (protonated)
C[NH+]1CC(c2ccc3cc(C([NH-])=O)n(C(=O)[O-])c3c2)C1 (3D coordinates assigned)
C[NH+]1CC(c2ccc3cc(C([NH-])=O)n(C(=O)[O-])c3c2)C1 (nonaromatic ring conformer: 148.73985102183494 kcal/mol)

>  <smiles>  (21) 
CN1CC(c2ccc3cc(C(N)=O)n(C(=O)O)c3c2)C1

>  <score_type>  (21) 
oracle

>  <origin>  (21) 
adg

>  <m_score__min__energy>  (21) 
-6.4800000000000004

>  <m_primary>  (21) 
energy

$$$$
21:0
     RDKit          3D

 45 47  0  0  0  0  0  0  0  0999 V2000
  149.1390  160.2210  130.8600 C   0  0  0  0  0  0  0  0  0  0  0  0
  148.5640  159.0090  131.3280 O   0  0  0  0  0  0  0  0  0  0  0  0
  147.8830  158.9180  132.5480 C   0  0  0  0  0  0  0  0  0  0  0  0
  147.6590  159.9620  133.2200 O   0  0  0  0  0  0  0  0  0  0  0  0
  147.4640  157.6310  133.0460 N   0  0  0  0  0  0  0  0  0  0  0  0
  147.2290  157.4530  134.4930 C   0  0  0  0  0  0  0  0  0  0  0  0
  148.1130  156.3550  135.1200 C   0  0  0  0  0  0  0  0  0  0  0  0
  147.5060  154.9450  135.0080 C   0  0  0  0  0  0  0  0  0  0  0  0
  147.2630  154.5410  133.6130 N   0  0  0  0  0  0  0  0  0  0  0  0
  146.3070  153.5040  133.3190 C   0  0  0  0  0  0  0  0  0  0  0  0
  146.7030  152.3550  132.5920 C   0  0  0  0  0  0  0  0  0  0  0  0
  145.7700  151.3600  132.2600 C   0  0  0  0  0  0  0  0  0  0  0  0
  144.4520  151.5360  132.6710 C   0  0  0  0  0  0  0  0  0  0  0  0
  143.3430  150.7570  132.4430 C   0  0  0  0  0  0  0  0  0  0  0  0
  142.2900  151.4250  133.0600 C   0  0  0  0  0  0  0  0  0  0  0  0
  140.9120  150.8990  133.1090 C   0  0  0  0  0  0  0  0  0  0  0  0
  139.8140  151.6510  132.5920 N   0  0  0  0  0  0  0  0  0  0  0  0
  140.6920  149.7910  133.6670 O   0  0  0  0  0  0  0  0  0  0  0  0
  142.7240  152.5820  133.6370 N   0  0  0  0  0  0  0  0  0  0  0  0
  141.9190  153.6060  134.2480 C   0  0  0  0  0  0  0  0  0  0  0  0
  142.2180  154.0610  135.3820 O   0  0  0  0  0  0  0  0  0  0  0  0
  140.8060  154.1100  133.5850 O   0  0  0  0  0  0  0  0  0  0  0  0
  144.0540  152.6320  133.3940 C   0  0  0  0  0  0  0  0  0  0  0  0
  144.9610  153.6440  133.7280 C   0  0  0  0  0  0  0  0  0  0  0  0
  147.9390  155.2420  132.5080 C   0  0  0  0  0  0  0  0  0  0  0  0
  147.1880  156.5280  132.1080 C   0  0  0  0  0  0  0  0  0  0  0  0
  149.4338  160.8424  131.7184 H   0  0  0  0  0  0  0  0  0  0  0  0
  150.0256  159.9945  130.2496 H   0  0  0  0  0  0  0  0  0  0  0  0
  148.4027  160.7644  130.2496 H   0  0  0  0  0  0  0  0  0  0  0  0
  147.4403  158.4052  135.0016 H   0  0  0  0  0  0  0  0  0  0  0  0
  146.1815  157.1419  134.6190 H   0  0  0  0  0  0  0  0  0  0  0  0
  149.0870  156.3571  134.6089 H   0  0  0  0  0  0  0  0  0  0  0  0
  148.2060  156.5849  136.1917 H   0  0  0  0  0  0  0  0  0  0  0  0
  148.1999  154.2255  135.4671 H   0  0  0  0  0  0  0  0  0  0  0  0
  146.5348  154.9590  135.5242 H   0  0  0  0  0  0  0  0  0  0  0  0
  147.7529  152.2410  132.2842 H   0  0  0  0  0  0  0  0  0  0  0  0
  146.0717  150.4677  131.6918 H   0  0  0  0  0  0  0  0  0  0  0  0
  143.2975  149.8071  131.8901 H   0  0  0  0  0  0  0  0  0  0  0  0
  139.9400  152.6370  132.2730 H   0  0  0  0  0  0  0  0  0  0  0  0
  138.8510  151.2480  132.6020 H   0  0  0  0  0  0  0  0  0  0  0  0
  144.6342  154.5278  134.2955 H   0  0  0  0  0  0  0  0  0  0  0  0
  148.9585  155.5077  132.8243 H   0  0  0  0  0  0  0  0  0  0  0  0
  147.9605  154.5709  131.6367 H   0  0  0  0  0  0  0  0  0  0  0  0
  147.5073  156.8288  131.0992 H   0  0  0  0  0  0  0  0  0  0  0  0
  146.1085  156.3178  132.1318 H   0  0  0  0  0  0  0  0  0  0  0  0
  1  2  1  0
  2  3  1  0
  3  4  2  0
  3  5  1  0
  5  6  1  0
  6  7  1  0
  7  8  1  0
  8  9  1  0
  9 10  1  0
 10 11  2  0
 11 12  1  0
 12 13  2  0
 13 14  1  0
 14 15  2  0
 15 16  1  0
 16 17  1  0
 16 18  2  0
 15 19  1  0
 19 20  1  0
 20 21  2  0
 20 22  1  0
 19 23  1  0
 23 24  2  0
  9 25  1  0
 25 26  1  0
 26  5  1  0
 24 10  1  0
 23 13  1  0
  1 27  1  0
  1 28  1  0
  1 29  1  0
  6 30  1  0
  6 31  1  0
  7 32  1  0
  7 33  1  0
  8 34  1  0
  8 35  1  0
 11 36  1  0
 12 37  1  0
 14 38  1  0
 17 39  1  0
 17 40  1  0
 24 41  1  0
 25 42  1  0
 25 43  1  0
 26 44  1  0
 26 45  1  0
M  CHG  1  22  -1
M  END
>  <UniqueID>  (22) 
22

>  <SMILES>  (22) 
COC(=O)N1CCCN(c2ccc3cc(C(N)=O)n(C(=O)[O-])c3c2)CC1

>  <Energy>  (22) 
91.6966499652028

>  <Genealogy>  (22) 
COC(=O)N1CCCN(c2ccc3cc(C(N)=O)n(C(=O)[O-])c3c2)CC1 (protonated)
COC(=O)N1CCCN(c2ccc3cc(C(N)=O)n(C(=O)[O-])c3c2)CC1 (3D coordinates assigned)
COC(=O)N1CCCN(c2ccc3cc(C(N)=O)n(C(=O)[O-])c3c2)CC1 (nonaromatic ring conformer: 91.6966499652028 kcal/mol)

>  <smiles>  (22) 
COC(=O)N1CCCN(c2ccc3cc(C(N)=O)n(C(=O)O)c3c2)CC1

>  <score_type>  (22) 
oracle

>  <origin>  (22) 
adg

>  <m_score__min__energy>  (22) 
-4.6900000000000004

>  <m_primary>  (22) 
energy

$$$$
22:0
     RDKit          3D

 37 38  0  0  0  0  0  0  0  0999 V2000
  141.6810  158.9370  137.6240 C   0  0  0  0  0  0  0  0  0  0  0  0
  140.5460  158.0870  137.0630 C   0  0  0  0  0  0  0  0  0  0  0  0
  140.2060  158.5150  135.7470 O   0  0  0  0  0  0  0  0  0  0  0  0
  140.3350  157.7010  134.6150 C   0  0  0  0  0  0  0  0  0  0  0  0
  139.3710  157.5490  133.8150 O   0  0  0  0  0  0  0  0  0  0  0  0
  141.6130  156.9630  134.3850 C   0  0  0  0  0  0  0  0  0  0  0  0
  142.7230  157.9420  134.1260 C   0  0  0  0  0  0  0  0  0  0  0  0
  142.4470  159.3290  134.0470 C   0  0  0  0  0  0  0  0  0  0  0  0
  143.4730  160.2500  133.7730 C   0  0  0  0  0  0  0  0  0  0  0  0
  144.7570  159.7520  133.5640 C   0  0  0  0  0  0  0  0  0  0  0  0
  145.9330  160.4170  133.3000 C   0  0  0  0  0  0  0  0  0  0  0  0
  146.8980  159.4200  133.1820 C   0  0  0  0  0  0  0  0  0  0  0  0
  148.3050  159.6890  132.8200 C   0  0  0  0  0  0  0  0  0  0  0  0
  149.3760  158.9740  133.4350 N   0  0  0  0  0  0  0  0  0  0  0  0
  148.5600  160.5280  131.9160 O   0  0  0  0  0  0  0  0  0  0  0  0
  146.3470  158.1890  133.3820 N   0  0  0  0  0  0  0  0  0  0  0  0
  147.0170  156.9190  133.4570 C   0  0  0  0  0  0  0  0  0  0  0  0
  146.9120  155.9240  132.3440 C   0  0  0  0  0  0  0  0  0  0  0  0
  147.7260  156.6430  134.4610 O   0  0  0  0  0  0  0  0  0  0  0  0
  145.0350  158.4100  133.6090 C   0  0  0  0  0  0  0  0  0  0  0  0
  144.0380  157.4730  133.9010 C   0  0  0  0  0  0  0  0  0  0  0  0
  141.6485  158.9127  138.7232 H   0  0  0  0  0  0  0  0  0  0  0  0
  142.6450  158.5368  137.2767 H   0  0  0  0  0  0  0  0  0  0  0  0
  141.5682  159.9746  137.2767 H   0  0  0  0  0  0  0  0  0  0  0  0
  140.8638  157.0344  137.0306 H   0  0  0  0  0  0  0  0  0  0  0  0
  139.6646  158.1970  137.7119 H   0  0  0  0  0  0  0  0  0  0  0  0
  141.8544  156.3634  135.2751 H   0  0  0  0  0  0  0  0  0  0  0  0
  141.5000  156.3012  133.5136 H   0  0  0  0  0  0  0  0  0  0  0  0
  141.4192  159.6892  134.2016 H   0  0  0  0  0  0  0  0  0  0  0  0
  143.2684  161.3297  133.7251 H   0  0  0  0  0  0  0  0  0  0  0  0
  146.0791  161.5029  133.2031 H   0  0  0  0  0  0  0  0  0  0  0  0
  150.3660  159.2080  133.1990 H   0  0  0  0  0  0  0  0  0  0  0  0
  149.1920  158.1590  134.0610 H   0  0  0  0  0  0  0  0  0  0  0  0
  146.8053  154.9132  132.7646 H   0  0  0  0  0  0  0  0  0  0  0  0
  146.0336  156.1580  131.7246 H   0  0  0  0  0  0  0  0  0  0  0  0
  147.8199  155.9695  131.7246 H   0  0  0  0  0  0  0  0  0  0  0  0
  144.2709  156.3993  133.9542 H   0  0  0  0  0  0  0  0  0  0  0  0
  1  2  1  0
  2  3  1  0
  3  4  1  0
  4  5  2  0
  4  6  1  0
  6  7  1  0
  7  8  2  0
  8  9  1  0
  9 10  2  0
 10 11  1  0
 11 12  2  0
 12 13  1  0
 13 14  1  0
 13 15  2  0
 12 16  1  0
 16 17  1  0
 17 18  1  0
 17 19  2  0
 16 20  1  0
 20 21  2  0
 21  7  1  0
 20 10  1  0
  1 22  1  0
  1 23  1  0
  1 24  1  0
  2 25  1  0
  2 26  1  0
  6 27  1  0
  6 28  1  0
  8 29  1  0
  9 30  1  0
 11 31  1  0
 14 32  1  0
 14 33  1  0
 18 34  1  0
 18 35  1  0
 18 36  1  0
 21 37  1  0
M  END
>  <UniqueID>  (23) 
23

>  <SMILES>  (23) 
CCOC(=O)Cc1ccc2cc(C(N)=O)n(C(C)=O)c2c1

>  <Energy>  (23) 
69.8092697998456

>  <Genealogy>  (23) 
CCOC(=O)Cc1ccc2cc(C(N)=O)n(C(C)=O)c2c1 (3D coordinates assigned)
CCOC(=O)Cc1ccc2cc(C(N)=O)n(C(C)=O)c2c1 (optimized conformer: 69.8092697998456 kcal/mol)

>  <smiles>  (23) 
CCOC(=O)Cc1ccc2cc(C(N)=O)n(C(C)=O)c2c1

>  <score_type>  (23) 
oracle

>  <origin>  (23) 
adg

>  <m_score__min__energy>  (23) 
-6.5300000000000002

>  <m_primary>  (23) 
energy

$$$$
23:0
     RDKit          3D

 30 31  0  0  0  0  0  0  0  0999 V2000
  145.2270  159.5660  133.3510 C   0  0  0  0  0  0  0  0  0  0  0  0
  146.6950  159.8410  133.2840 C   0  0  0  0  0  0  0  0  0  0  0  0
  147.1170  160.9950  133.5630 O   0  0  0  0  0  0  0  0  0  0  0  0
  147.6260  158.8130  132.9070 N   0  0  0  0  0  0  0  0  0  0  0  0
  148.6390  158.9100  132.0020 C   0  0  0  0  0  0  0  0  0  0  0  0
  149.0510  160.1530  131.3100 C   0  0  0  0  0  0  0  0  0  0  0  0
  148.1100  161.1960  131.0500 N   0  0  0  0  0  0  0  0  0  0  0  0
  150.2420  160.2960  130.9240 O   0  0  0  0  0  0  0  0  0  0  0  0
  149.2910  157.6850  131.8670 C   0  0  0  0  0  0  0  0  0  0  0  0
  148.6350  156.8270  132.7210 C   0  0  0  0  0  0  0  0  0  0  0  0
  148.8590  155.4780  132.9790 C   0  0  0  0  0  0  0  0  0  0  0  0
  148.0070  154.8310  133.8910 C   0  0  0  0  0  0  0  0  0  0  0  0
  146.9440  155.5360  134.5080 C   0  0  0  0  0  0  0  0  0  0  0  0
  146.0500  154.8390  135.4960 C   0  0  0  0  0  0  0  0  0  0  0  0
  146.8750  154.1100  136.5070 C   0  0  0  0  0  0  0  0  0  0  0  0
  147.9900  154.5710  136.8660 O   0  0  0  0  0  0  0  0  0  0  0  0
  146.3910  152.9460  137.0910 O   0  0  0  0  0  0  0  0  0  0  0  0
  146.7530  156.9070  134.2280 C   0  0  0  0  0  0  0  0  0  0  0  0
  147.6310  157.5300  133.3340 C   0  0  0  0  0  0  0  0  0  0  0  0
  144.9127  159.5071  134.4035 H   0  0  0  0  0  0  0  0  0  0  0  0
  144.6787  160.3771  132.8494 H   0  0  0  0  0  0  0  0  0  0  0  0
  145.0095  158.6115  132.8494 H   0  0  0  0  0  0  0  0  0  0  0  0
  148.4060  162.0500  130.5280 H   0  0  0  0  0  0  0  0  0  0  0  0
  147.1310  161.1490  131.4100 H   0  0  0  0  0  0  0  0  0  0  0  0
  150.1473  157.4533  131.2166 H   0  0  0  0  0  0  0  0  0  0  0  0
  149.6776  154.9346  132.4845 H   0  0  0  0  0  0  0  0  0  0  0  0
  148.1669  153.7687  134.1276 H   0  0  0  0  0  0  0  0  0  0  0  0
  145.4218  155.5835  136.0070 H   0  0  0  0  0  0  0  0  0  0  0  0
  145.4143  154.1179  134.9613 H   0  0  0  0  0  0  0  0  0  0  0  0
  145.9351  157.4707  134.7005 H   0  0  0  0  0  0  0  0  0  0  0  0
  1  2  1  0
  2  3  2  0
  2  4  1  0
  4  5  1  0
  5  6  1  0
  6  7  1  0
  6  8  2  0
  5  9  2  0
  9 10  1  0
 10 11  2  0
 11 12  1  0
 12 13  2  0
 13 14  1  0
 14 15  1  0
 15 16  2  0
 15 17  1  0
 13 18  1  0
 18 19  2  0
 19  4  1  0
 19 10  1  0
  1 20  1  0
  1 21  1  0
  1 22  1  0
  7 23  1  0
  7 24  1  0
  9 25  1  0
 11 26  1  0
 12 27  1  0
 14 28  1  0
 14 29  1  0
 18 30  1  0
M  CHG  1  17  -1
M  END
>  <UniqueID>  (24) 
24

>  <SMILES>  (24) 
CC(=O)n1c(C(N)=O)cc2ccc(CC(=O)[O-])cc21

>  <Energy>  (24) 
66.80223417838997

>  <Genealogy>  (24) 
CC(=O)n1c(C(N)=O)cc2ccc(CC(=O)[O-])cc21 (protonated)
CC(=O)n1c(C(N)=O)cc2ccc(CC(=O)[O-])cc21 (3D coordinates assigned)
CC(=O)n1c(C(N)=O)cc2ccc(CC(=O)[O-])cc21 (optimized conformer: 66.80223417838997 kcal/mol)

>  <smiles>  (24) 
CC(=O)n1c(C(N)=O)cc2ccc(CC(=O)O)cc21

>  <score_type>  (24) 
oracle

>  <origin>  (24) 
adg

>  <m_score__min__energy>  (24) 
-6.5599999999999996

>  <m_primary>  (24) 
energy

$$$$
24:0
     RDKit          3D

 40 42  0  0  0  0  0  0  0  0999 V2000
  140.6640  159.0030  136.9840 C   0  0  0  0  0  0  0  0  0  0  0  0
  140.1570  157.9530  136.0840 N   0  0  0  0  0  0  0  0  0  0  0  0
  140.9620  156.7160  136.1740 C   0  0  0  0  0  0  0  0  0  0  0  0
  142.3810  156.9160  135.6110 C   0  0  0  0  0  0  0  0  0  0  0  0
  142.3530  157.7850  134.4300 N   0  0  0  0  0  0  0  0  0  0  0  0
  143.5540  158.4510  133.9930 C   0  0  0  0  0  0  0  0  0  0  0  0
  143.6000  159.8680  133.9140 C   0  0  0  0  0  0  0  0  0  0  0  0
  144.7670  160.5260  133.4920 C   0  0  0  0  0  0  0  0  0  0  0  0
  145.8740  159.7480  133.1710 C   0  0  0  0  0  0  0  0  0  0  0  0
  147.1180  160.1230  132.7130 C   0  0  0  0  0  0  0  0  0  0  0  0
  147.8240  158.9340  132.5460 C   0  0  0  0  0  0  0  0  0  0  0  0
  149.2390  158.8740  132.1230 C   0  0  0  0  0  0  0  0  0  0  0  0
  149.9020  157.6140  132.0430 N   0  0  0  0  0  0  0  0  0  0  0  0
  149.8640  159.9200  131.8070 O   0  0  0  0  0  0  0  0  0  0  0  0
  147.0490  157.8660  132.8900 N   0  0  0  0  0  0  0  0  0  0  0  0
  147.3860  156.4730  132.8160 C   0  0  0  0  0  0  0  0  0  0  0  0
  146.7240  155.6170  131.8850 N   0  0  0  0  0  0  0  0  0  0  0  0
  148.2750  155.9990  133.5730 O   0  0  0  0  0  0  0  0  0  0  0  0
  145.8580  158.3810  133.2680 C   0  0  0  0  0  0  0  0  0  0  0  0
  144.7040  157.6970  133.6640 C   0  0  0  0  0  0  0  0  0  0  0  0
  141.0830  157.9620  133.7210 C   0  0  0  0  0  0  0  0  0  0  0  0
  139.9910  158.4490  134.6930 C   0  0  0  0  0  0  0  0  0  0  0  0
  140.5147  158.6937  138.0290 H   0  0  0  0  0  0  0  0  0  0  0  0
  141.7368  159.1592  136.7975 H   0  0  0  0  0  0  0  0  0  0  0  0
  140.1192  159.9402  136.7975 H   0  0  0  0  0  0  0  0  0  0  0  0
  141.0367  156.4156  137.2295 H   0  0  0  0  0  0  0  0  0  0  0  0
  140.4631  155.9388  135.5765 H   0  0  0  0  0  0  0  0  0  0  0  0
  143.0142  157.3769  136.3834 H   0  0  0  0  0  0  0  0  0  0  0  0
  142.7868  155.9361  135.3192 H   0  0  0  0  0  0  0  0  0  0  0  0
  142.7118  160.4570  134.1863 H   0  0  0  0  0  0  0  0  0  0  0  0
  144.8041  161.6229  133.4177 H   0  0  0  0  0  0  0  0  0  0  0  0
  147.4774  161.1446  132.5201 H   0  0  0  0  0  0  0  0  0  0  0  0
  149.3680  156.7380  131.8500 H   0  0  0  0  0  0  0  0  0  0  0  0
  146.9910  154.6100  131.8110 H   0  0  0  0  0  0  0  0  0  0  0  0
  145.9390  155.9760  131.2990 H   0  0  0  0  0  0  0  0  0  0  0  0
  144.6914  156.5984  133.7182 H   0  0  0  0  0  0  0  0  0  0  0  0
  141.2146  158.7055  132.9211 H   0  0  0  0  0  0  0  0  0  0  0  0
  140.7754  156.9970  133.2918 H   0  0  0  0  0  0  0  0  0  0  0  0
  140.0107  159.5486  134.7129 H   0  0  0  0  0  0  0  0  0  0  0  0
  139.0347  158.0498  134.3241 H   0  0  0  0  0  0  0  0  0  0  0  0
  1  2  1  0
  2  3  1  0
  3  4  1  0
  4  5  1  0
  5  6  1  0
  6  7  2  0
  7  8  1  0
  8  9  2  0
  9 10  1  0
 10 11  2  0
 11 12  1  0
 12 13  1  0
 12 14  2  0
 11 15  1  0
 15 16  1  0
 16 17  1  0
 16 18  2  0
 15 19  1  0
 19 20  2  0
  5 21  1  0
 21 22  1  0
 22  2  1  0
 20  6  1  0
 19  9  1  0
  1 23  1  0
  1 24  1  0
  1 25  1  0
  3 26  1  0
  3 27  1  0
  4 28  1  0
  4 29  1  0
  7 30  1  0
  8 31  1  0
 10 32  1  0
 13 33  1  0
 17 34  1  0
 17 35  1  0
 20 36  1  0
 21 37  1  0
 21 38  1  0
 22 39  1  0
 22 40  1  0
M  CHG  1  13  -1
M  END
>  <UniqueID>  (25) 
25

>  <SMILES>  (25) 
CN1CCN(c2ccc3cc(C([NH-])=O)n(C(N)=O)c3c2)CC1

>  <Energy>  (25) 
90.52023434228511

>  <Genealogy>  (25) 
CN1CCN(c2ccc3cc(C([NH-])=O)n(C(N)=O)c3c2)CC1 (protonated)
CN1CCN(c2ccc3cc(C([NH-])=O)n(C(N)=O)c3c2)CC1 (3D coordinates assigned)
CN1CCN(c2ccc3cc(C([NH-])=O)n(C(N)=O)c3c2)CC1 (nonaromatic ring conformer: 90.52023434228511 kcal/mol)

>  <smiles>  (25) 
CN1CCN(c2ccc3cc(C(N)=O)n(C(N)=O)c3c2)CC1

>  <score_type>  (25) 
oracle

>  <origin>  (25) 
adg

>  <m_score__min__energy>  (25) 
-7.4900000000000002

>  <m_primary>  (25) 
energy

$$$$
25:0
     RDKit          3D

 33 34  0  0  0  0  0  0  0  0999 V2000
  149.6140  159.3740  129.6480 C   0  0  0  0  0  0  0  0  0  0  0  0
  149.9100  160.2840  130.8460 C   0  0  0  0  0  0  0  0  0  0  0  0
  149.2730  161.6730  130.7090 C   0  0  0  0  0  0  0  0  0  0  0  0
  149.5740  159.6340  132.1230 N   0  0  0  0  0  0  0  0  0  0  0  0
  148.2720  159.2000  132.5720 C   0  0  0  0  0  0  0  0  0  0  0  0
  147.9700  157.8150  132.5300 C   0  0  0  0  0  0  0  0  0  0  0  0
  146.7140  157.3340  132.9320 C   0  0  0  0  0  0  0  0  0  0  0  0
  145.7740  158.2570  133.3730 C   0  0  0  0  0  0  0  0  0  0  0  0
  144.4750  158.0650  133.7820 C   0  0  0  0  0  0  0  0  0  0  0  0
  143.9970  159.3370  134.0890 C   0  0  0  0  0  0  0  0  0  0  0  0
  142.6470  159.5860  134.6320 C   0  0  0  0  0  0  0  0  0  0  0  0
  141.7410  160.4780  133.9800 N   0  0  0  0  0  0  0  0  0  0  0  0
  142.3080  159.0480  135.7200 O   0  0  0  0  0  0  0  0  0  0  0  0
  144.9550  160.2800  133.8650 N   0  0  0  0  0  0  0  0  0  0  0  0
  144.8070  161.7080  133.9510 C   0  0  0  0  0  0  0  0  0  0  0  0
  143.8010  162.2770  133.4510 O   0  0  0  0  0  0  0  0  0  0  0  0
  145.7720  162.4750  134.5910 O   0  0  0  0  0  0  0  0  0  0  0  0
  146.0410  159.6000  133.4290 C   0  0  0  0  0  0  0  0  0  0  0  0
  147.2770  160.1080  133.0120 C   0  0  0  0  0  0  0  0  0  0  0  0
  149.2926  158.3858  130.0088 H   0  0  0  0  0  0  0  0  0  0  0  0
  148.8144  159.8195  129.0379 H   0  0  0  0  0  0  0  0  0  0  0  0
  150.5226  159.2638  129.0379 H   0  0  0  0  0  0  0  0  0  0  0  0
  150.9970  160.4527  130.8498 H   0  0  0  0  0  0  0  0  0  0  0  0
  149.0822  162.0891  131.7092 H   0  0  0  0  0  0  0  0  0  0  0  0
  149.9564  162.3373  130.1598 H   0  0  0  0  0  0  0  0  0  0  0  0
  148.3237  161.5885  130.1598 H   0  0  0  0  0  0  0  0  0  0  0  0
  150.3380  159.6370  132.8380 H   0  0  0  0  0  0  0  0  0  0  0  0
  148.7328  157.1057  132.1764 H   0  0  0  0  0  0  0  0  0  0  0  0
  146.4813  156.2594  132.8989 H   0  0  0  0  0  0  0  0  0  0  0  0
  143.9305  157.1118  133.8517 H   0  0  0  0  0  0  0  0  0  0  0  0
  142.0490  161.0650  133.1740 H   0  0  0  0  0  0  0  0  0  0  0  0
  140.7780  160.6140  134.3580 H   0  0  0  0  0  0  0  0  0  0  0  0
  147.4720  161.1905  133.0256 H   0  0  0  0  0  0  0  0  0  0  0  0
  1  2  1  0
  2  3  1  0
  2  4  1  0
  4  5  1  0
  5  6  2  0
  6  7  1  0
  7  8  2  0
  8  9  1  0
  9 10  2  0
 10 11  1  0
 11 12  1  0
 11 13  2  0
 10 14  1  0
 14 15  1  0
 15 16  2  0
 15 17  1  0
 14 18  1  0
 18 19  2  0
 19  5  1  0
 18  8  1  0
  1 20  1  0
  1 21  1  0
  1 22  1  0
  2 23  1  0
  3 24  1  0
  3 25  1  0
  3 26  1  0
  4 27  1  0
  6 28  1  0
  7 29  1  0
  9 30  1  0
 12 31  1  0
 12 32  1  0
 19 33  1  0
M  CHG  1  17  -1
M  END
>  <UniqueID>  (26) 
26

>  <SMILES>  (26) 
CC(C)Nc1ccc2cc(C(N)=O)n(C(=O)[O-])c2c1

>  <Energy>  (26) 
73.57455245300167

>  <Genealogy>  (26) 
CC(C)Nc1ccc2cc(C(N)=O)n(C(=O)[O-])c2c1 (protonated)
CC(C)Nc1ccc2cc(C(N)=O)n(C(=O)[O-])c2c1 (3D coordinates assigned)
CC(C)Nc1ccc2cc(C(N)=O)n(C(=O)[O-])c2c1 (optimized conformer: 73.57455245300167 kcal/mol)

>  <smiles>  (26) 
CC(C)Nc1ccc2cc(C(N)=O)n(C(=O)O)c2c1

>  <score_type>  (26) 
oracle

>  <origin>  (26) 
adg

>  <m_score__min__energy>  (26) 
-6.8399999999999999

>  <m_primary>  (26) 
energy

$$$$
26:0
     RDKit          3D

 42 44  0  0  0  0  0  0  0  0999 V2000
  138.9650  147.6460  130.0450 C   0  0  0  0  0  0  0  0  0  0  0  0
  139.5520  148.6510  130.9890 C   0  0  0  0  0  0  0  0  0  0  0  0
  138.8200  149.7940  131.3490 C   0  0  0  0  0  0  0  0  0  0  0  0
  139.3810  150.7510  132.2010 C   0  0  0  0  0  0  0  0  0  0  0  0
  140.6830  150.5820  132.6850 C   0  0  0  0  0  0  0  0  0  0  0  0
  141.4070  151.8110  133.7710 S   0  0  0  0  0  0  0  0  0  0  0  0
  140.9770  153.1100  132.7180 O   0  0  0  0  0  0  0  0  0  0  0  0
  140.9520  154.2830  133.4910 C   0  0  0  0  0  0  0  0  0  0  0  0
  139.8730  155.2160  132.9480 C   0  0  0  0  0  0  0  0  0  0  0  0
  140.2420  156.6540  133.1910 C   0  0  0  0  0  0  0  0  0  0  0  0
  139.2300  157.6310  133.3540 C   0  0  0  0  0  0  0  0  0  0  0  0
  139.5650  158.9800  133.5580 C   0  0  0  0  0  0  0  0  0  0  0  0
  140.9140  159.3230  133.5750 C   0  0  0  0  0  0  0  0  0  0  0  0
  141.5130  160.5450  133.7720 C   0  0  0  0  0  0  0  0  0  0  0  0
  142.8830  160.3020  133.6890 C   0  0  0  0  0  0  0  0  0  0  0  0
  143.9010  161.3710  133.7580 C   0  0  0  0  0  0  0  0  0  0  0  0
  145.2840  161.0600  133.9030 N   0  0  0  0  0  0  0  0  0  0  0  0
  143.5500  162.5760  133.6380 O   0  0  0  0  0  0  0  0  0  0  0  0
  143.1220  158.9790  133.4570 N   0  0  0  0  0  0  0  0  0  0  0  0
  144.3920  158.3110  133.3870 C   0  0  0  0  0  0  0  0  0  0  0  0
  145.3000  158.7480  132.6310 O   0  0  0  0  0  0  0  0  0  0  0  0
  144.6400  157.1930  134.1730 O   0  0  0  0  0  0  0  0  0  0  0  0
  141.9050  158.3940  133.3880 C   0  0  0  0  0  0  0  0  0  0  0  0
  141.6020  157.0410  133.2030 C   0  0  0  0  0  0  0  0  0  0  0  0
  141.4210  149.4500  132.3210 C   0  0  0  0  0  0  0  0  0  0  0  0
  140.8610  148.4920  131.4690 C   0  0  0  0  0  0  0  0  0  0  0  0
  138.4919  146.8360  130.6195 H   0  0  0  0  0  0  0  0  0  0  0  0
  138.2106  148.1351  129.4113 H   0  0  0  0  0  0  0  0  0  0  0  0
  139.7617  147.2292  129.4113 H   0  0  0  0  0  0  0  0  0  0  0  0
  137.8013  149.9373  130.9594 H   0  0  0  0  0  0  0  0  0  0  0  0
  138.7979  151.6376  132.4909 H   0  0  0  0  0  0  0  0  0  0  0  0
  140.7273  154.0297  134.5376 H   0  0  0  0  0  0  0  0  0  0  0  0
  141.9317  154.7807  133.4411 H   0  0  0  0  0  0  0  0  0  0  0  0
  139.7625  155.0494  131.8663 H   0  0  0  0  0  0  0  0  0  0  0  0
  138.9266  155.0014  133.4659 H   0  0  0  0  0  0  0  0  0  0  0  0
  138.1722  157.3310  133.3206 H   0  0  0  0  0  0  0  0  0  0  0  0
  138.7848  159.7423  133.7000 H   0  0  0  0  0  0  0  0  0  0  0  0
  141.0166  161.5092  133.9560 H   0  0  0  0  0  0  0  0  0  0  0  0
  145.8720  160.8250  133.0710 H   0  0  0  0  0  0  0  0  0  0  0  0
  142.4013  156.2970  133.0702 H   0  0  0  0  0  0  0  0  0  0  0  0
  142.4426  149.3133  132.7053 H   0  0  0  0  0  0  0  0  0  0  0  0
  141.4492  147.6105  131.1741 H   0  0  0  0  0  0  0  0  0  0  0  0
  1  2  1  0
  2  3  2  0
  3  4  1  0
  4  5  2  0
  5  6  1  0
  6  7  1  0
  7  8  1  0
  8  9  1  0
  9 10  1  0
 10 11  2  0
 11 12  1  0
 12 13  2  0
 13 14  1  0
 14 15  2  0
 15 16  1  0
 16 17  1  0
 16 18  2  0
 15 19  1  0
 19 20  1  0
 20 21  2  0
 20 22  1  0
 19 23  1  0
 23 24  2  0
  5 25  1  0
 25 26  2  0
 26  2  1  0
 24 10  1  0
 23 13  1  0
  1 27  1  0
  1 28  1  0
  1 29  1  0
  3 30  1  0
  4 31  1  0
  8 32  1  0
  8 33  1  0
  9 34  1  0
  9 35  1  0
 11 36  1  0
 12 37  1  0
 14 38  1  0
 17 39  1  0
 24 40  1  0
 25 41  1  0
 26 42  1  0
M  CHG  2  17  -1  22  -1
M  END
>  <UniqueID>  (27) 
27

>  <SMILES>  (27) 
Cc1ccc(SOCCc2ccc3cc(C([NH-])=O)n(C(=O)[O-])c3c2)cc1

>  <Energy>  (27) 
77.21901752603361

>  <Genealogy>  (27) 
Cc1ccc(SOCCc2ccc3cc(C([NH-])=O)n(C(=O)[O-])c3c2)cc1 (protonated)
Cc1ccc(SOCCc2ccc3cc(C([NH-])=O)n(C(=O)[O-])c3c2)cc1 (3D coordinates assigned)
Cc1ccc(SOCCc2ccc3cc(C([NH-])=O)n(C(=O)[O-])c3c2)cc1 (optimized conformer: 77.21901752603361 kcal/mol)

>  <smiles>  (27) 
Cc1ccc(SOCCc2ccc3cc(C(N)=O)n(C(=O)O)c3c2)cc1

>  <score_type>  (27) 
oracle

>  <origin>  (27) 
adg

>  <m_score__min__energy>  (27) 
-8.75

>  <m_primary>  (27) 
energy

$$$$
27:0
     RDKit          3D

 41 43  0  0  0  0  0  0  0  0999 V2000
  148.0850  152.8910  137.6070 C   0  0  0  0  0  0  0  0  0  0  0  0
  147.2880  153.4210  136.5730 O   0  0  0  0  0  0  0  0  0  0  0  0
  147.7500  154.7120  136.2370 C   0  0  0  0  0  0  0  0  0  0  0  0
  147.4520  155.0100  134.7960 C   0  0  0  0  0  0  0  0  0  0  0  0
  148.1940  154.5210  133.9030 O   0  0  0  0  0  0  0  0  0  0  0  0
  146.3630  155.8690  134.4190 N   0  0  0  0  0  0  0  0  0  0  0  0
  145.0310  155.6980  134.6500 C   0  0  0  0  0  0  0  0  0  0  0  0
  144.4000  154.4880  135.2150 C   0  0  0  0  0  0  0  0  0  0  0  0
  144.6040  154.1260  136.5780 N   0  0  0  0  0  0  0  0  0  0  0  0
  143.7030  153.7430  134.4760 O   0  0  0  0  0  0  0  0  0  0  0  0
  144.3130  156.8090  134.2120 C   0  0  0  0  0  0  0  0  0  0  0  0
  145.2530  157.6670  133.6880 C   0  0  0  0  0  0  0  0  0  0  0  0
  145.1000  158.9260  133.1170 C   0  0  0  0  0  0  0  0  0  0  0  0
  146.2550  159.5940  132.6770 C   0  0  0  0  0  0  0  0  0  0  0  0
  147.5380  158.9990  132.8160 C   0  0  0  0  0  0  0  0  0  0  0  0
  148.7880  159.7250  132.3540 C   0  0  0  0  0  0  0  0  0  0  0  0
  148.4700  161.0160  131.5960 C   0  0  0  0  0  0  0  0  0  0  0  0
  149.5800  161.1590  130.5730 C   0  0  0  0  0  0  0  0  0  0  0  0
  149.9660  159.7380  130.1980 C   0  0  0  0  0  0  0  0  0  0  0  0
  149.6690  158.8760  131.4210 C   0  0  0  0  0  0  0  0  0  0  0  0
  147.6490  157.7200  133.4080 C   0  0  0  0  0  0  0  0  0  0  0  0
  146.4810  157.0750  133.8240 C   0  0  0  0  0  0  0  0  0  0  0  0
  147.6587  153.1745  138.5806 H   0  0  0  0  0  0  0  0  0  0  0  0
  148.1120  151.7945  137.5238 H   0  0  0  0  0  0  0  0  0  0  0  0
  149.1066  153.2903  137.5238 H   0  0  0  0  0  0  0  0  0  0  0  0
  147.2471  155.4551  136.8733 H   0  0  0  0  0  0  0  0  0  0  0  0
  148.8376  154.7568  136.3956 H   0  0  0  0  0  0  0  0  0  0  0  0
  145.4380  154.4690  137.1050 H   0  0  0  0  0  0  0  0  0  0  0  0
  143.2260  156.9668  134.2722 H   0  0  0  0  0  0  0  0  0  0  0  0
  144.1055  159.3845  133.0131 H   0  0  0  0  0  0  0  0  0  0  0  0
  146.1651  160.5901  132.2191 H   0  0  0  0  0  0  0  0  0  0  0  0
  149.3258  159.9438  133.2883 H   0  0  0  0  0  0  0  0  0  0  0  0
  147.4927  160.9397  131.0969 H   0  0  0  0  0  0  0  0  0  0  0  0
  148.4154  161.8850  132.2682 H   0  0  0  0  0  0  0  0  0  0  0  0
  149.2210  161.7066  129.6891 H   0  0  0  0  0  0  0  0  0  0  0  0
  150.4351  161.7241  130.9723 H   0  0  0  0  0  0  0  0  0  0  0  0
  149.3715  159.3963  129.3379 H   0  0  0  0  0  0  0  0  0  0  0  0
  151.0263  159.6742  129.9122 H   0  0  0  0  0  0  0  0  0  0  0  0
  149.1340  157.9629  131.1209 H   0  0  0  0  0  0  0  0  0  0  0  0
  150.5975  158.5679  131.9240 H   0  0  0  0  0  0  0  0  0  0  0  0
  148.6319  157.2435  133.5382 H   0  0  0  0  0  0  0  0  0  0  0  0
  1  2  1  0
  2  3  1  0
  3  4  1  0
  4  5  2  0
  4  6  1  0
  6  7  1  0
  7  8  1  0
  8  9  1  0
  8 10  2  0
  7 11  2  0
 11 12  1  0
 12 13  2  0
 13 14  1  0
 14 15  2  0
 15 16  1  0
 16 17  1  0
 17 18  1  0
 18 19  1  0
 19 20  1  0
 15 21  1  0
 21 22  2  0
 22  6  1  0
 22 12  1  0
 20 16  1  0
  1 23  1  0
  1 24  1  0
  1 25  1  0
  3 26  1  0
  3 27  1  0
  9 28  1  0
 11 29  1  0
 13 30  1  0
 14 31  1  0
 16 32  1  0
 17 33  1  0
 17 34  1  0
 18 35  1  0
 18 36  1  0
 19 37  1  0
 19 38  1  0
 20 39  1  0
 20 40  1  0
 21 41  1  0
M  CHG  1   9  -1
M  END
>  <UniqueID>  (28) 
28

>  <SMILES>  (28) 
COCC(=O)n1c(C([NH-])=O)cc2ccc(C3CCCC3)cc21

>  <Energy>  (28) 
84.14897888209298

>  <Genealogy>  (28) 
COCC(=O)n1c(C([NH-])=O)cc2ccc(C3CCCC3)cc21 (protonated)
COCC(=O)n1c(C([NH-])=O)cc2ccc(C3CCCC3)cc21 (3D coordinates assigned)
COCC(=O)n1c(C([NH-])=O)cc2ccc(C3CCCC3)cc21 (nonaromatic ring conformer: 84.14897888209298 kcal/mol)

>  <smiles>  (28) 
COCC(=O)n1c(C(N)=O)cc2ccc(C3CCCC3)cc21

>  <score_type>  (28) 
oracle

>  <origin>  (28) 
adg

>  <m_score__min__energy>  (28) 
-7.4199999999999999

>  <m_primary>  (28) 
energy

$$$$
28:0
     RDKit          3D

 37 38  0  0  0  0  0  0  0  0999 V2000
  143.3510  156.9060  134.6980 C   0  0  0  0  0  0  0  0  0  0  0  0
  143.7160  157.7370  133.5100 C   0  0  0  0  0  0  0  0  0  0  0  0
  142.8740  157.8940  132.5870 O   0  0  0  0  0  0  0  0  0  0  0  0
  145.0130  158.3480  133.4060 N   0  0  0  0  0  0  0  0  0  0  0  0
  145.3090  159.6780  133.4480 C   0  0  0  0  0  0  0  0  0  0  0  0
  144.3590  160.7700  133.7450 C   0  0  0  0  0  0  0  0  0  0  0  0
  142.9780  160.6560  133.4080 N   0  0  0  0  0  0  0  0  0  0  0  0
  144.7640  161.8090  134.3320 O   0  0  0  0  0  0  0  0  0  0  0  0
  146.6700  159.8800  133.2280 C   0  0  0  0  0  0  0  0  0  0  0  0
  147.2020  158.6240  133.0510 C   0  0  0  0  0  0  0  0  0  0  0  0
  148.5100  158.2340  132.7890 C   0  0  0  0  0  0  0  0  0  0  0  0
  148.7680  156.8640  132.6230 C   0  0  0  0  0  0  0  0  0  0  0  0
  147.7240  155.9060  132.7050 C   0  0  0  0  0  0  0  0  0  0  0  0
  148.0490  154.5110  132.5260 N   0  0  0  0  0  0  0  0  0  0  0  0
  148.0260  153.4640  133.5580 C   0  0  2  0  0  0  0  0  0  0  0  0
  148.1050  154.0880  134.9700 C   0  0  0  0  0  0  0  0  0  0  0  0
  146.8410  153.8730  135.7500 C   0  0  0  0  0  0  0  0  0  0  0  0
  145.7840  154.4770  135.4230 O   0  0  0  0  0  0  0  0  0  0  0  0
  146.8280  153.0060  136.8340 O   0  0  0  0  0  0  0  0  0  0  0  0
  149.0680  152.4080  133.2720 C   0  0  0  0  0  0  0  0  0  0  0  0
  149.7270  152.3380  132.0090 N   0  0  0  0  0  0  0  0  0  0  0  0
  149.3750  151.5840  134.1750 O   0  0  0  0  0  0  0  0  0  0  0  0
  146.4050  156.3480  132.9770 C   0  0  0  0  0  0  0  0  0  0  0  0
  146.1810  157.7170  133.1590 C   0  0  0  0  0  0  0  0  0  0  0  0
  143.5929  157.4567  135.6190 H   0  0  0  0  0  0  0  0  0  0  0  0
  142.2735  156.6861  134.6746 H   0  0  0  0  0  0  0  0  0  0  0  0
  143.9181  155.9637  134.6746 H   0  0  0  0  0  0  0  0  0  0  0  0
  142.6680  160.0560  132.6120 H   0  0  0  0  0  0  0  0  0  0  0  0
  147.2055  160.8405  133.2015 H   0  0  0  0  0  0  0  0  0  0  0  0
  149.3185  158.9761  132.7140 H   0  0  0  0  0  0  0  0  0  0  0  0
  149.7966  156.5274  132.4261 H   0  0  0  0  0  0  0  0  0  0  0  0
  148.2760  154.1920  131.5560 H   0  0  0  0  0  0  0  0  0  0  0  0
  147.0629  152.9333  133.5296 H   0  0  0  0  0  0  0  0  0  0  0  0
  148.9419  153.6277  135.5156 H   0  0  0  0  0  0  0  0  0  0  0  0
  148.2538  155.1718  134.8552 H   0  0  0  0  0  0  0  0  0  0  0  0
  150.4610  153.0320  131.7480 H   0  0  0  0  0  0  0  0  0  0  0  0
  145.5747  155.6296  133.0436 H   0  0  0  0  0  0  0  0  0  0  0  0
  1  2  1  0
  2  3  2  0
  2  4  1  0
  4  5  1  0
  5  6  1  0
  6  7  1  0
  6  8  2  0
  5  9  2  0
  9 10  1  0
 10 11  2  0
 11 12  1  0
 12 13  2  0
 13 14  1  0
 14 15  1  0
 15 16  1  0
 16 17  1  0
 17 18  2  0
 17 19  1  0
 15 20  1  0
 20 21  1  0
 20 22  2  0
 13 23  1  0
 23 24  2  0
 24  4  1  0
 24 10  1  0
  1 25  1  0
  1 26  1  0
  1 27  1  0
  7 28  1  0
  9 29  1  0
 11 30  1  0
 12 31  1  0
 14 32  1  0
 15 33  1  1
 16 34  1  0
 16 35  1  0
 21 36  1  0
 23 37  1  0
M  CHG  3   7  -1  19  -1  21  -1
M  END
>  <UniqueID>  (29) 
29

>  <SMILES>  (29) 
CC(=O)n1c(C([NH-])=O)cc2ccc(N[C@H](CC(=O)[O-])C([NH-])=O)cc21

>  <Energy>  (29) 
76.34688650855202

>  <Genealogy>  (29) 
CC(=O)n1c(C([NH-])=O)cc2ccc(N[C@H](CC(=O)[O-])C([NH-])=O)cc21 (protonated)
CC(=O)n1c(C([NH-])=O)cc2ccc(N[C@H](CC(=O)[O-])C([NH-])=O)cc21 (3D coordinates assigned)
CC(=O)n1c(C([NH-])=O)cc2ccc(N[C@H](CC(=O)[O-])C([NH-])=O)cc21 (optimized conformer: 76.34688650855202 kcal/mol)

>  <smiles>  (29) 
CC(=O)n1c(C(N)=O)cc2ccc(N[C@H](CC(=O)O)C(N)=O)cc21

>  <score_type>  (29) 
oracle

>  <origin>  (29) 
adg

>  <m_score__min__energy>  (29) 
-6.9900000000000002

>  <m_primary>  (29) 
energy

$$$$
29:0
     RDKit          3D

 42 44  0  0  0  0  0  0  0  0999 V2000
  145.0480  155.7740  134.2030 C   0  0  0  0  0  0  0  0  0  0  0  0
  145.7840  156.5620  133.1660 C   0  0  0  0  0  0  0  0  0  0  0  0
  146.3840  155.9500  132.2430 O   0  0  0  0  0  0  0  0  0  0  0  0
  145.7980  157.9990  133.1980 N   0  0  0  0  0  0  0  0  0  0  0  0
  146.8920  158.8100  133.1490 C   0  0  0  0  0  0  0  0  0  0  0  0
  148.2830  158.3710  132.9110 C   0  0  0  0  0  0  0  0  0  0  0  0
  148.5970  157.4140  131.8990 N   0  0  0  0  0  0  0  0  0  0  0  0
  149.2160  158.8870  133.5830 O   0  0  0  0  0  0  0  0  0  0  0  0
  146.5270  160.1410  133.3350 C   0  0  0  0  0  0  0  0  0  0  0  0
  145.1610  160.1230  133.4960 C   0  0  0  0  0  0  0  0  0  0  0  0
  144.2740  161.1700  133.7310 C   0  0  0  0  0  0  0  0  0  0  0  0
  142.9160  160.8570  133.9020 C   0  0  0  0  0  0  0  0  0  0  0  0
  142.4710  159.5110  133.8580 C   0  0  0  0  0  0  0  0  0  0  0  0
  141.0740  159.2050  134.0310 N   0  0  0  0  0  0  0  0  0  0  0  0
  140.2040  159.0760  132.8530 C   0  0  0  0  0  0  0  0  0  0  0  0
  138.9470  158.2470  133.1700 C   0  0  0  0  0  0  0  0  0  0  0  0
  139.2620  157.0600  134.1050 C   0  0  0  0  0  0  0  0  0  0  0  0
  140.0690  156.0100  133.3820 C   0  0  0  0  0  0  0  0  0  0  0  0
  139.5120  155.1870  132.6080 O   0  0  0  0  0  0  0  0  0  0  0  0
  141.4380  155.9220  133.5980 O   0  0  0  0  0  0  0  0  0  0  0  0
  139.9490  157.5100  135.4270 C   0  0  0  0  0  0  0  0  0  0  0  0
  140.5190  158.9340  135.3630 C   0  0  0  0  0  0  0  0  0  0  0  0
  143.4030  158.4770  133.6150 C   0  0  0  0  0  0  0  0  0  0  0  0
  144.7450  158.8180  133.4170 C   0  0  0  0  0  0  0  0  0  0  0  0
  145.3583  156.1062  135.2047 H   0  0  0  0  0  0  0  0  0  0  0  0
  143.9659  155.9312  134.0834 H   0  0  0  0  0  0  0  0  0  0  0  0
  145.2786  154.7051  134.0834 H   0  0  0  0  0  0  0  0  0  0  0  0
  147.8840  157.1090  131.2020 H   0  0  0  0  0  0  0  0  0  0  0  0
  149.5800  157.0810  131.7820 H   0  0  0  0  0  0  0  0  0  0  0  0
  147.1894  161.0190  133.3500 H   0  0  0  0  0  0  0  0  0  0  0  0
  144.6264  162.2108  133.7812 H   0  0  0  0  0  0  0  0  0  0  0  0
  142.1890  161.6648  134.0720 H   0  0  0  0  0  0  0  0  0  0  0  0
  139.8969  160.0796  132.5235 H   0  0  0  0  0  0  0  0  0  0  0  0
  140.7678  158.5603  132.0617 H   0  0  0  0  0  0  0  0  0  0  0  0
  138.2057  158.8971  133.6577 H   0  0  0  0  0  0  0  0  0  0  0  0
  138.5576  157.8423  132.2241 H   0  0  0  0  0  0  0  0  0  0  0  0
  138.3020  156.6097  134.3978 H   0  0  0  0  0  0  0  0  0  0  0  0
  139.2068  157.4675  136.2378 H   0  0  0  0  0  0  0  0  0  0  0  0
  140.7949  156.8289  135.6019 H   0  0  0  0  0  0  0  0  0  0  0  0
  139.7160  159.6554  135.5745 H   0  0  0  0  0  0  0  0  0  0  0  0
  141.3210  159.0307  136.1096 H   0  0  0  0  0  0  0  0  0  0  0  0
  143.0799  157.4260  133.5822 H   0  0  0  0  0  0  0  0  0  0  0  0
  1  2  1  0
  2  3  2  0
  2  4  1  0
  4  5  1  0
  5  6  1  0
  6  7  1  0
  6  8  2  0
  5  9  2  0
  9 10  1  0
 10 11  2  0
 11 12  1  0
 12 13  2  0
 13 14  1  0
 14 15  1  0
 15 16  1  0
 16 17  1  0
 17 18  1  0
 18 19  2  0
 18 20  1  0
 17 21  1  0
 21 22  1  0
 13 23  1  0
 23 24  2  0
 24  4  1  0
 24 10  1  0
 22 14  1  0
  1 25  1  0
  1 26  1  0
  1 27  1  0
  7 28  1  0
  7 29  1  0
  9 30  1  0
 11 31  1  0
 12 32  1  0
 15 33  1  0
 15 34  1  0
 16 35  1  0
 16 36  1  0
 17 37  1  0
 21 38  1  0
 21 39  1  0
 22 40  1  0
 22 41  1  0
 23 42  1  0
M  CHG  1  20  -1
M  END
>  <UniqueID>  (30) 
30

>  <SMILES>  (30) 
CC(=O)n1c(C(N)=O)cc2ccc(N3CCC(C(=O)[O-])CC3)cc21

>  <Energy>  (30) 
89.13381527229406

>  <Genealogy>  (30) 
CC(=O)n1c(C(N)=O)cc2ccc(N3CCC(C(=O)[O-])CC3)cc21 (protonated)
CC(=O)n1c(C(N)=O)cc2ccc(N3CCC(C(=O)[O-])CC3)cc21 (3D coordinates assigned)
CC(=O)n1c(C(N)=O)cc2ccc(N3CCC(C(=O)[O-])CC3)cc21 (nonaromatic ring conformer: 89.13381527229406 kcal/mol)

>  <smiles>  (30) 
CC(=O)n1c(C(N)=O)cc2ccc(N3CCC(C(=O)O)CC3)cc21

>  <score_type>  (30) 
oracle

>  <origin>  (30) 
adg

>  <m_score__min__energy>  (30) 
-8.0500000000000007

>  <m_primary>  (30) 
energy

$$$$
30:0
     RDKit          3D

 34 35  0  0  0  0  0  0  0  0999 V2000
  144.7450  163.2770  134.0950 C   0  0  0  0  0  0  0  0  0  0  0  0
  145.2010  161.8620  134.4280 C   0  0  0  0  0  0  0  0  0  0  0  0
  144.2710  160.8510  133.8250 C   0  0  0  0  0  0  0  0  0  0  0  0
  143.1290  161.2100  133.4320 O   0  0  0  0  0  0  0  0  0  0  0  0
  144.6540  159.4700  133.7340 N   0  0  0  0  0  0  0  0  0  0  0  0
  143.8760  158.3750  133.9570 C   0  0  0  0  0  0  0  0  0  0  0  0
  142.4740  158.3950  134.4240 C   0  0  0  0  0  0  0  0  0  0  0  0
  142.0590  159.3630  135.3850 N   0  0  0  0  0  0  0  0  0  0  0  0
  141.6310  157.5750  133.9720 O   0  0  0  0  0  0  0  0  0  0  0  0
  144.6030  157.2080  133.7280 C   0  0  0  0  0  0  0  0  0  0  0  0
  145.8590  157.6270  133.3510 C   0  0  0  0  0  0  0  0  0  0  0  0
  146.9840  156.8880  132.9950 C   0  0  0  0  0  0  0  0  0  0  0  0
  148.1440  157.5900  132.6260 C   0  0  0  0  0  0  0  0  0  0  0  0
  148.1520  159.0070  132.6020 C   0  0  0  0  0  0  0  0  0  0  0  0
  149.4050  159.7500  132.2270 C   0  0  0  0  0  0  0  0  0  0  0  0
  149.2430  160.3820  130.8790 C   0  0  0  0  0  0  0  0  0  0  0  0
  148.4940  161.5870  130.7300 N   0  0  0  0  0  0  0  0  0  0  0  0
  149.7410  159.8270  129.8630 O   0  0  0  0  0  0  0  0  0  0  0  0
  146.9950  159.7240  132.9780 C   0  0  0  0  0  0  0  0  0  0  0  0
  145.8620  158.9980  133.3600 C   0  0  0  0  0  0  0  0  0  0  0  0
  144.5657  163.8333  135.0269 H   0  0  0  0  0  0  0  0  0  0  0  0
  145.5249  163.7852  133.5089 H   0  0  0  0  0  0  0  0  0  0  0  0
  143.8152  163.2342  133.5089 H   0  0  0  0  0  0  0  0  0  0  0  0
  146.2137  161.7052  134.0281 H   0  0  0  0  0  0  0  0  0  0  0  0
  145.1995  161.7373  135.5209 H   0  0  0  0  0  0  0  0  0  0  0  0
  142.2010  160.3840  135.2150 H   0  0  0  0  0  0  0  0  0  0  0  0
  144.2482  156.1715  133.8275 H   0  0  0  0  0  0  0  0  0  0  0  0
  146.9653  155.7882  133.0024 H   0  0  0  0  0  0  0  0  0  0  0  0
  149.0537  157.0349  132.3534 H   0  0  0  0  0  0  0  0  0  0  0  0
  149.6019  160.5325  132.9747 H   0  0  0  0  0  0  0  0  0  0  0  0
  150.2474  159.0433  132.1951 H   0  0  0  0  0  0  0  0  0  0  0  0
  148.3690  162.0170  129.7870 H   0  0  0  0  0  0  0  0  0  0  0  0
  148.0610  162.0510  131.5600 H   0  0  0  0  0  0  0  0  0  0  0  0
  146.9850  160.8239  132.9707 H   0  0  0  0  0  0  0  0  0  0  0  0
  1  2  1  0
  2  3  1  0
  3  4  2  0
  3  5  1  0
  5  6  1  0
  6  7  1  0
  7  8  1  0
  7  9  2  0
  6 10  2  0
 10 11  1  0
 11 12  2  0
 12 13  1  0
 13 14  2  0
 14 15  1  0
 15 16  1  0
 16 17  1  0
 16 18  2  0
 14 19  1  0
 19 20  2  0
 20  5  1  0
 20 11  1  0
  1 21  1  0
  1 22  1  0
  1 23  1  0
  2 24  1  0
  2 25  1  0
  8 26  1  0
 10 27  1  0
 12 28  1  0
 13 29  1  0
 15 30  1  0
 15 31  1  0
 17 32  1  0
 17 33  1  0
 19 34  1  0
M  CHG  1   8  -1
M  END
>  <UniqueID>  (31) 
31

>  <SMILES>  (31) 
CCC(=O)n1c(C([NH-])=O)cc2ccc(CC(N)=O)cc21

>  <Energy>  (31) 
66.37439272043339

>  <Genealogy>  (31) 
CCC(=O)n1c(C([NH-])=O)cc2ccc(CC(N)=O)cc21 (protonated)
CCC(=O)n1c(C([NH-])=O)cc2ccc(CC(N)=O)cc21 (3D coordinates assigned)
CCC(=O)n1c(C([NH-])=O)cc2ccc(CC(N)=O)cc21 (optimized conformer: 66.37439272043339 kcal/mol)

>  <smiles>  (31) 
CCC(=O)n1c(C(N)=O)cc2ccc(CC(N)=O)cc21

>  <score_type>  (31) 
oracle

>  <origin>  (31) 
adg

>  <m_score__min__energy>  (31) 
-7.3300000000000001

>  <m_primary>  (31) 
energy

$$$$
31:0
     RDKit          3D

 30 31  0  0  0  0  0  0  0  0999 V2000
  148.9340  160.5180  130.3110 C   0  0  0  0  0  0  0  0  0  0  0  0
  149.9240  159.6300  130.8130 O   0  0  0  0  0  0  0  0  0  0  0  0
  149.7020  158.8000  131.9160 C   0  0  0  0  0  0  0  0  0  0  0  0
  149.9350  157.5620  131.8470 O   0  0  0  0  0  0  0  0  0  0  0  0
  149.1340  159.3810  133.1700 C   0  0  0  0  0  0  0  0  0  0  0  0
  147.6810  159.0190  133.2900 C   0  0  0  0  0  0  0  0  0  0  0  0
  147.2750  157.6650  133.1990 C   0  0  0  0  0  0  0  0  0  0  0  0
  145.9170  157.3170  133.2880 C   0  0  0  0  0  0  0  0  0  0  0  0
  144.9900  158.3430  133.4500 C   0  0  0  0  0  0  0  0  0  0  0  0
  143.6210  158.2860  133.5800 C   0  0  0  0  0  0  0  0  0  0  0  0
  143.2070  159.6090  133.7150 C   0  0  0  0  0  0  0  0  0  0  0  0
  141.7870  160.0130  133.7940 C   0  0  0  0  0  0  0  0  0  0  0  0
  140.9330  159.8210  132.6690 N   0  0  0  0  0  0  0  0  0  0  0  0
  141.3300  160.5600  134.8310 O   0  0  0  0  0  0  0  0  0  0  0  0
  144.2790  160.4530  133.6760 N   0  0  0  0  0  0  0  0  0  0  0  0
  144.2810  161.8790  133.8510 C   0  0  0  0  0  0  0  0  0  0  0  0
  143.3530  162.5810  133.3680 O   0  0  0  0  0  0  0  0  0  0  0  0
  145.3200  162.5020  134.5310 O   0  0  0  0  0  0  0  0  0  0  0  0
  145.3620  159.6620  133.5110 C   0  0  0  0  0  0  0  0  0  0  0  0
  146.7100  160.0340  133.4440 C   0  0  0  0  0  0  0  0  0  0  0  0
  148.4060  160.9916  131.1518 H   0  0  0  0  0  0  0  0  0  0  0  0
  149.4147  161.2934  129.6964 H   0  0  0  0  0  0  0  0  0  0  0  0
  148.2153  159.9562  129.6964 H   0  0  0  0  0  0  0  0  0  0  0  0
  149.6817  158.9829  134.0369 H   0  0  0  0  0  0  0  0  0  0  0  0
  149.2325  160.4761  133.1383 H   0  0  0  0  0  0  0  0  0  0  0  0
  148.0306  156.8783  133.0573 H   0  0  0  0  0  0  0  0  0  0  0  0
  145.5960  156.2664  133.2314 H   0  0  0  0  0  0  0  0  0  0  0  0
  142.9881  157.3863  133.5778 H   0  0  0  0  0  0  0  0  0  0  0  0
  141.3250  159.5730  131.7340 H   0  0  0  0  0  0  0  0  0  0  0  0
  147.0063  161.0913  133.5097 H   0  0  0  0  0  0  0  0  0  0  0  0
  1  2  1  0
  2  3  1  0
  3  4  2  0
  3  5  1  0
  5  6  1  0
  6  7  2  0
  7  8  1  0
  8  9  2  0
  9 10  1  0
 10 11  2  0
 11 12  1  0
 12 13  1  0
 12 14  2  0
 11 15  1  0
 15 16  1  0
 16 17  2  0
 16 18  1  0
 15 19  1  0
 19 20  2  0
 20  6  1  0
 19  9  1  0
  1 21  1  0
  1 22  1  0
  1 23  1  0
  5 24  1  0
  5 25  1  0
  7 26  1  0
  8 27  1  0
 10 28  1  0
 13 29  1  0
 20 30  1  0
M  CHG  2  13  -1  18  -1
M  END
>  <UniqueID>  (32) 
32

>  <SMILES>  (32) 
COC(=O)Cc1ccc2cc(C([NH-])=O)n(C(=O)[O-])c2c1

>  <Energy>  (32) 
65.54435917739129

>  <Genealogy>  (32) 
COC(=O)Cc1ccc2cc(C([NH-])=O)n(C(=O)[O-])c2c1 (protonated)
COC(=O)Cc1ccc2cc(C([NH-])=O)n(C(=O)[O-])c2c1 (3D coordinates assigned)
COC(=O)Cc1ccc2cc(C([NH-])=O)n(C(=O)[O-])c2c1 (optimized conformer: 65.54435917739129 kcal/mol)

>  <smiles>  (32) 
COC(=O)Cc1ccc2cc(C(N)=O)n(C(=O)O)c2c1

>  <score_type>  (32) 
oracle

>  <origin>  (32) 
adg

>  <m_score__min__energy>  (32) 
-6.3300000000000001

>  <m_primary>  (32) 
energy

$$$$
32:0
     RDKit          3D

 44 45  0  0  0  0  0  0  0  0999 V2000
  139.1090  157.5090  133.4400 C   0  0  0  0  0  0  0  0  0  0  0  0
  139.3550  158.0290  134.7410 O   0  0  0  0  0  0  0  0  0  0  0  0
  140.5720  157.8510  135.4060 C   0  0  0  0  0  0  0  0  0  0  0  0
  140.7590  158.3420  136.5530 O   0  0  0  0  0  0  0  0  0  0  0  0
  141.6810  157.1180  134.7210 C   0  0  0  0  0  0  0  0  0  0  0  0
  142.7780  158.0770  134.3500 C   0  0  0  0  0  0  0  0  0  0  0  0
  142.4960  159.4540  134.1660 C   0  0  0  0  0  0  0  0  0  0  0  0
  143.5150  160.3500  133.8000 C   0  0  0  0  0  0  0  0  0  0  0  0
  144.7950  159.8380  133.6040 C   0  0  0  0  0  0  0  0  0  0  0  0
  145.9610  160.4780  133.2490 C   0  0  0  0  0  0  0  0  0  0  0  0
  146.9280  159.4750  133.1820 C   0  0  0  0  0  0  0  0  0  0  0  0
  148.3200  159.7010  132.7320 C   0  0  0  0  0  0  0  0  0  0  0  0
  149.4050  158.9930  133.3340 N   0  0  0  0  0  0  0  0  0  0  0  0
  148.5650  160.5450  131.8310 O   0  0  0  0  0  0  0  0  0  0  0  0
  146.3810  158.2640  133.4870 N   0  0  0  0  0  0  0  0  0  0  0  0
  147.0390  156.9890  133.5530 C   0  0  0  0  0  0  0  0  0  0  0  0
  147.9820  156.8120  134.3690 O   0  0  0  0  0  0  0  0  0  0  0  0
  146.6030  155.9490  132.7170 O   0  0  0  0  0  0  0  0  0  0  0  0
  146.1850  154.6410  133.1280 C   0  0  0  0  0  0  0  0  0  0  0  0
  145.7470  154.7480  134.5960 C   0  0  0  0  0  0  0  0  0  0  0  0
  147.3550  153.6420  133.0310 C   0  0  0  0  0  0  0  0  0  0  0  0
  144.9910  154.1630  132.2820 C   0  0  0  0  0  0  0  0  0  0  0  0
  145.0760  158.5040  133.7460 C   0  0  0  0  0  0  0  0  0  0  0  0
  144.0880  157.5950  134.1400 C   0  0  0  0  0  0  0  0  0  0  0  0
  138.6400  156.5176  133.5241 H   0  0  0  0  0  0  0  0  0  0  0  0
  138.4365  158.1877  132.8950 H   0  0  0  0  0  0  0  0  0  0  0  0
  140.0603  157.4196  132.8950 H   0  0  0  0  0  0  0  0  0  0  0  0
  142.0824  156.3493  135.3978 H   0  0  0  0  0  0  0  0  0  0  0  0
  141.2912  156.6440  133.8081 H   0  0  0  0  0  0  0  0  0  0  0  0
  141.4705  159.8245  134.3110 H   0  0  0  0  0  0  0  0  0  0  0  0
  143.3078  161.4227  133.6723 H   0  0  0  0  0  0  0  0  0  0  0  0
  146.1005  161.5524  133.0586 H   0  0  0  0  0  0  0  0  0  0  0  0
  149.2390  158.2460  134.0450 H   0  0  0  0  0  0  0  0  0  0  0  0
  150.3870  159.1890  133.0370 H   0  0  0  0  0  0  0  0  0  0  0  0
  146.6055  154.5383  135.2510 H   0  0  0  0  0  0  0  0  0  0  0  0
  145.3740  155.7637  134.7943 H   0  0  0  0  0  0  0  0  0  0  0  0
  144.9477  154.0187  134.7943 H   0  0  0  0  0  0  0  0  0  0  0  0
  147.6829  153.3620  134.0430 H   0  0  0  0  0  0  0  0  0  0  0  0
  147.0253  152.7425  132.4904 H   0  0  0  0  0  0  0  0  0  0  0  0
  148.1917  154.1086  132.4904 H   0  0  0  0  0  0  0  0  0  0  0  0
  144.1775  153.8373  132.9469 H   0  0  0  0  0  0  0  0  0  0  0  0
  144.6374  154.9889  131.6473 H   0  0  0  0  0  0  0  0  0  0  0  0
  145.3050  153.3212  131.6473 H   0  0  0  0  0  0  0  0  0  0  0  0
  144.3263  156.5306  134.2826 H   0  0  0  0  0  0  0  0  0  0  0  0
  1  2  1  0
  2  3  1  0
  3  4  2  0
  3  5  1  0
  5  6  1  0
  6  7  2  0
  7  8  1  0
  8  9  2  0
  9 10  1  0
 10 11  2  0
 11 12  1  0
 12 13  1  0
 12 14  2  0
 11 15  1  0
 15 16  1  0
 16 17  2  0
 16 18  1  0
 18 19  1  0
 19 20  1  0
 19 21  1  0
 19 22  1  0
 15 23  1  0
 23 24  2  0
 24  6  1  0
 23  9  1  0
  1 25  1  0
  1 26  1  0
  1 27  1  0
  5 28  1  0
  5 29  1  0
  7 30  1  0
  8 31  1  0
 10 32  1  0
 13 33  1  0
 13 34  1  0
 20 35  1  0
 20 36  1  0
 20 37  1  0
 21 38  1  0
 21 39  1  0
 21 40  1  0
 22 41  1  0
 22 42  1  0
 22 43  1  0
 24 44  1  0
M  END
>  <UniqueID>  (33) 
33

>  <SMILES>  (33) 
COC(=O)Cc1ccc2cc(C(N)=O)n(C(=O)OC(C)(C)C)c2c1

>  <Energy>  (33) 
72.37524427665012

>  <Genealogy>  (33) 
COC(=O)Cc1ccc2cc(C(N)=O)n(C(=O)OC(C)(C)C)c2c1 (3D coordinates assigned)
COC(=O)Cc1ccc2cc(C(N)=O)n(C(=O)OC(C)(C)C)c2c1 (optimized conformer: 72.37524427665012 kcal/mol)

>  <smiles>  (33) 
COC(=O)Cc1ccc2cc(C(N)=O)n(C(=O)OC(C)(C)C)c2c1

>  <score_type>  (33) 
oracle

>  <origin>  (33) 
adg

>  <m_score__min__energy>  (33) 
-7.1500000000000004

>  <m_primary>  (33) 
energy

$$$$
33:0
     RDKit          3D

 43 45  0  0  0  0  0  0  0  0999 V2000
  140.6120  152.4830  138.6620 C   0  0  0  0  0  0  0  0  0  0  0  0
  140.5870  153.8730  139.2210 C   0  0  0  0  0  0  0  0  0  0  0  0
  139.7150  154.1640  140.0810 O   0  0  0  0  0  0  0  0  0  0  0  0
  141.5150  154.8890  138.8120 N   0  0  0  0  0  0  0  0  0  0  0  0
  141.3660  155.8740  137.7740 C   0  0  0  0  0  0  0  0  0  0  0  0
  141.1440  155.4880  136.4960 N   0  0  0  0  0  0  0  0  0  0  0  0
  141.0280  156.3920  135.4990 C   0  0  0  0  0  0  0  0  0  0  0  0
  140.8130  155.9820  134.3260 O   0  0  0  0  0  0  0  0  0  0  0  0
  141.1480  157.7290  135.7660 N   0  0  0  0  0  0  0  0  0  0  0  0
  141.0750  158.7250  134.6770 C   0  0  0  0  0  0  0  0  0  0  0  0
  142.4590  159.1530  134.2620 C   0  0  0  0  0  0  0  0  0  0  0  0
  142.7640  160.5300  134.1120 C   0  0  0  0  0  0  0  0  0  0  0  0
  144.0580  160.9410  133.7500 C   0  0  0  0  0  0  0  0  0  0  0  0
  145.0240  159.9580  133.5560 C   0  0  0  0  0  0  0  0  0  0  0  0
  146.3450  160.0770  133.1900 C   0  0  0  0  0  0  0  0  0  0  0  0
  146.8320  158.7730  133.1500 C   0  0  0  0  0  0  0  0  0  0  0  0
  148.2440  158.4450  132.8770 C   0  0  0  0  0  0  0  0  0  0  0  0
  148.6000  157.5110  131.8570 N   0  0  0  0  0  0  0  0  0  0  0  0
  149.1480  158.9480  133.5980 O   0  0  0  0  0  0  0  0  0  0  0  0
  145.8480  157.8810  133.4560 N   0  0  0  0  0  0  0  0  0  0  0  0
  145.9010  156.4440  133.4100 C   0  0  0  0  0  0  0  0  0  0  0  0
  146.4770  155.8470  132.4640 O   0  0  0  0  0  0  0  0  0  0  0  0
  144.7490  158.6240  133.7120 C   0  0  0  0  0  0  0  0  0  0  0  0
  143.4660  158.1850  134.0580 C   0  0  0  0  0  0  0  0  0  0  0  0
  141.3820  158.1290  137.0570 C   0  0  0  0  0  0  0  0  0  0  0  0
  141.5240  159.3570  137.3160 O   0  0  0  0  0  0  0  0  0  0  0  0
  141.4660  157.2050  138.0700 N   0  0  0  0  0  0  0  0  0  0  0  0
  141.7370  157.6300  139.4540 C   0  0  0  0  0  0  0  0  0  0  0  0
  140.6251  151.7560  139.4874 H   0  0  0  0  0  0  0  0  0  0  0  0
  139.7166  152.3201  138.0441 H   0  0  0  0  0  0  0  0  0  0  0  0
  141.5126  152.3524  138.0441 H   0  0  0  0  0  0  0  0  0  0  0  0
  140.5590  158.2803  133.8133 H   0  0  0  0  0  0  0  0  0  0  0  0
  140.5220  159.6057  135.0358 H   0  0  0  0  0  0  0  0  0  0  0  0
  141.9803  161.2832  134.2806 H   0  0  0  0  0  0  0  0  0  0  0  0
  144.3000  162.0066  133.6238 H   0  0  0  0  0  0  0  0  0  0  0  0
  146.8978  161.0034  132.9751 H   0  0  0  0  0  0  0  0  0  0  0  0
  147.8680  156.9640  131.3510 H   0  0  0  0  0  0  0  0  0  0  0  0
  149.6040  157.3090  131.6570 H   0  0  0  0  0  0  0  0  0  0  0  0
  145.4309  155.8585  134.2139 H   0  0  0  0  0  0  0  0  0  0  0  0
  143.2477  157.1125  134.1682 H   0  0  0  0  0  0  0  0  0  0  0  0
  141.2805  156.9141  140.1534 H   0  0  0  0  0  0  0  0  0  0  0  0
  142.8237  157.6638  139.6211 H   0  0  0  0  0  0  0  0  0  0  0  0
  141.3091  158.6295  139.6211 H   0  0  0  0  0  0  0  0  0  0  0  0
  1  2  1  0
  2  3  2  0
  2  4  1  0
  4  5  1  0
  5  6  2  0
  6  7  1  0
  7  8  2  0
  7  9  1  0
  9 10  1  0
 10 11  1  0
 11 12  2  0
 12 13  1  0
 13 14  2  0
 14 15  1  0
 15 16  2  0
 16 17  1  0
 17 18  1  0
 17 19  2  0
 16 20  1  0
 20 21  1  0
 21 22  2  0
 20 23  1  0
 23 24  2  0
  9 25  1  0
 25 26  2  0
 25 27  1  0
 27 28  1  0
 27  5  1  0
 24 11  1  0
 23 14  1  0
  1 29  1  0
  1 30  1  0
  1 31  1  0
 10 32  1  0
 10 33  1  0
 12 34  1  0
 13 35  1  0
 15 36  1  0
 18 37  1  0
 18 38  1  0
 21 39  1  0
 24 40  1  0
 28 41  1  0
 28 42  1  0
 28 43  1  0
M  CHG  1   4  -1
M  END
>  <UniqueID>  (34) 
34

>  <SMILES>  (34) 
CC(=O)[N-]c1nc(=O)n(Cc2ccc3cc(C(N)=O)n(C=O)c3c2)c(=O)n1C

>  <Energy>  (34) 
90.69961203994859

>  <Genealogy>  (34) 
CC(=O)[N-]c1nc(=O)n(Cc2ccc3cc(C(N)=O)n(C=O)c3c2)c(=O)n1C (protonated)
CC(=O)[N-]c1nc(=O)n(Cc2ccc3cc(C(N)=O)n(C=O)c3c2)c(=O)n1C (3D coordinates assigned)
CC(=O)[N-]c1nc(=O)n(Cc2ccc3cc(C(N)=O)n(C=O)c3c2)c(=O)n1C (optimized conformer: 90.69961203994859 kcal/mol)

>  <smiles>  (34) 
CC(=O)Nc1nc(=O)n(Cc2ccc3cc(C(N)=O)n(C=O)c3c2)c(=O)n1C

>  <score_type>  (34) 
oracle

>  <origin>  (34) 
adg

>  <m_score__min__energy>  (34) 
-8.1999999999999993

>  <m_primary>  (34) 
energy

$$$$
34:0
     RDKit          3D

 28 29  0  0  0  0  0  0  0  0999 V2000
  144.3540  161.5540  133.9860 C   0  0  0  0  0  0  0  0  0  0  0  0
  145.3270  160.5350  134.1730 O   0  0  0  0  0  0  0  0  0  0  0  0
  145.4240  159.4200  133.3330 C   0  0  0  0  0  0  0  0  0  0  0  0
  144.4110  159.0080  132.7050 O   0  0  0  0  0  0  0  0  0  0  0  0
  146.6880  158.7600  133.1680 N   0  0  0  0  0  0  0  0  0  0  0  0
  147.0450  157.5150  133.5940 C   0  0  0  0  0  0  0  0  0  0  0  0
  146.2460  156.6320  134.4680 C   0  0  0  0  0  0  0  0  0  0  0  0
  144.8220  156.7080  134.4850 N   0  0  0  0  0  0  0  0  0  0  0  0
  146.8290  155.8310  135.2470 O   0  0  0  0  0  0  0  0  0  0  0  0
  148.3300  157.1990  133.1570 C   0  0  0  0  0  0  0  0  0  0  0  0
  148.7580  158.3010  132.4530 C   0  0  0  0  0  0  0  0  0  0  0  0
  149.9570  158.5250  131.7830 C   0  0  0  0  0  0  0  0  0  0  0  0
  150.1150  159.7470  131.1070 C   0  0  0  0  0  0  0  0  0  0  0  0
  149.0810  160.7160  131.1180 C   0  0  0  0  0  0  0  0  0  0  0  0
  149.2420  161.9930  130.3480 C   0  0  0  0  0  0  0  0  0  0  0  0
  147.8720  160.4470  131.7940 C   0  0  0  0  0  0  0  0  0  0  0  0
  147.7490  159.2290  132.4750 C   0  0  0  0  0  0  0  0  0  0  0  0
  144.0088  161.9156  134.9658 H   0  0  0  0  0  0  0  0  0  0  0  0
  144.7997  162.3878  133.4237 H   0  0  0  0  0  0  0  0  0  0  0  0
  143.5005  161.1473  133.4237 H   0  0  0  0  0  0  0  0  0  0  0  0
  144.3320  157.6200  134.3550 H   0  0  0  0  0  0  0  0  0  0  0  0
  148.8846  156.2662  133.3368 H   0  0  0  0  0  0  0  0  0  0  0  0
  150.7562  157.7691  131.7825 H   0  0  0  0  0  0  0  0  0  0  0  0
  151.0495  159.9531  130.5646 H   0  0  0  0  0  0  0  0  0  0  0  0
  149.3480  162.8334  131.0498 H   0  0  0  0  0  0  0  0  0  0  0  0
  150.1392  161.9287  129.7148 H   0  0  0  0  0  0  0  0  0  0  0  0
  148.3570  162.1534  129.7148 H   0  0  0  0  0  0  0  0  0  0  0  0
  147.0473  161.1749  131.7865 H   0  0  0  0  0  0  0  0  0  0  0  0
  1  2  1  0
  2  3  1  0
  3  4  2  0
  3  5  1  0
  5  6  1  0
  6  7  1  0
  7  8  1  0
  7  9  2  0
  6 10  2  0
 10 11  1  0
 11 12  2  0
 12 13  1  0
 13 14  2  0
 14 15  1  0
 14 16  1  0
 16 17  2  0
 17  5  1  0
 17 11  1  0
  1 18  1  0
  1 19  1  0
  1 20  1  0
  8 21  1  0
 10 22  1  0
 12 23  1  0
 13 24  1  0
 15 25  1  0
 15 26  1  0
 15 27  1  0
 16 28  1  0
M  CHG  1   8  -1
M  END
>  <UniqueID>  (35) 
35

>  <SMILES>  (35) 
COC(=O)n1c(C([NH-])=O)cc2ccc(C)cc21

>  <Energy>  (35) 
64.91020295620949

>  <Genealogy>  (35) 
COC(=O)n1c(C([NH-])=O)cc2ccc(C)cc21 (protonated)
COC(=O)n1c(C([NH-])=O)cc2ccc(C)cc21 (3D coordinates assigned)
COC(=O)n1c(C([NH-])=O)cc2ccc(C)cc21 (optimized conformer: 64.91020295620949 kcal/mol)

>  <smiles>  (35) 
COC(=O)n1c(C(N)=O)cc2ccc(C)cc21

>  <score_type>  (35) 
oracle

>  <origin>  (35) 
adg

>  <m_score__min__energy>  (35) 
-5.5099999999999998

>  <m_primary>  (35) 
energy

$$$$
35:0
     RDKit          3D

 36 38  0  0  0  0  0  0  0  0999 V2000
  140.4620  150.5840  131.5650 N   0  0  0  0  0  0  0  0  0  0  0  0
  141.5840  150.9370  132.8300 S   0  0  0  0  0  0  0  0  0  0  0  0
  142.9530  150.4580  132.4360 O   0  0  0  0  0  0  0  0  0  0  0  0
  141.1640  150.2300  134.0880 O   0  0  0  0  0  0  0  0  0  0  0  0
  141.6270  152.6650  133.1150 C   0  0  0  0  0  0  0  0  0  0  0  0
  140.5360  153.5200  133.0720 C   0  0  0  0  0  0  0  0  0  0  0  0
  140.8700  154.8510  133.3710 C   0  0  0  0  0  0  0  0  0  0  0  0
  139.8830  155.9480  133.3840 C   0  0  0  0  0  0  0  0  0  0  0  0
  138.7200  155.7490  132.9390 O   0  0  0  0  0  0  0  0  0  0  0  0
  140.2280  157.2470  133.8920 N   0  0  0  0  0  0  0  0  0  0  0  0
  140.0990  158.4450  133.2570 C   0  0  0  0  0  0  0  0  0  0  0  0
  139.6800  158.6200  131.8470 C   0  0  0  0  0  0  0  0  0  0  0  0
  138.4400  158.0870  131.3760 N   0  0  0  0  0  0  0  0  0  0  0  0
  140.4130  159.2580  131.0460 O   0  0  0  0  0  0  0  0  0  0  0  0
  140.4750  159.4860  134.1070 C   0  0  0  0  0  0  0  0  0  0  0  0
  140.8290  158.8800  135.2930 C   0  0  0  0  0  0  0  0  0  0  0  0
  141.2570  159.4390  136.4930 C   0  0  0  0  0  0  0  0  0  0  0  0
  141.5200  158.5720  137.5660 C   0  0  0  0  0  0  0  0  0  0  0  0
  141.3630  157.1680  137.4220 C   0  0  0  0  0  0  0  0  0  0  0  0
  141.5940  156.2510  138.5970 C   0  0  0  0  0  0  0  0  0  0  0  0
  142.4700  155.2340  138.2600 F   0  0  0  0  0  0  0  0  0  0  0  0
  142.1280  156.9790  139.6430 F   0  0  0  0  0  0  0  0  0  0  0  0
  140.4030  155.6770  139.0070 F   0  0  0  0  0  0  0  0  0  0  0  0
  140.9020  156.6420  136.1930 C   0  0  0  0  0  0  0  0  0  0  0  0
  140.6660  157.5300  135.1370 C   0  0  0  0  0  0  0  0  0  0  0  0
  142.2270  155.0330  133.6390 C   0  0  0  0  0  0  0  0  0  0  0  0
  142.9990  153.5440  133.5180 S   0  0  0  0  0  0  0  0  0  0  0  0
  140.2290  151.4920  131.1030 H   0  0  0  0  0  0  0  0  0  0  0  0
  139.5152  153.1900  132.8290 H   0  0  0  0  0  0  0  0  0  0  0  0
  137.8330  157.4950  131.9840 H   0  0  0  0  0  0  0  0  0  0  0  0
  138.1440  158.2500  130.3890 H   0  0  0  0  0  0  0  0  0  0  0  0
  140.4864  160.5620  133.8787 H   0  0  0  0  0  0  0  0  0  0  0  0
  141.3854  160.5264  136.5980 H   0  0  0  0  0  0  0  0  0  0  0  0
  141.8517  158.9855  138.5298 H   0  0  0  0  0  0  0  0  0  0  0  0
  140.7331  155.5620  136.0699 H   0  0  0  0  0  0  0  0  0  0  0  0
  142.7104  155.9893  133.8876 H   0  0  0  0  0  0  0  0  0  0  0  0
  1  2  1  0
  2  3  2  0
  2  4  2  0
  2  5  1  0
  5  6  2  0
  6  7  1  0
  7  8  1  0
  8  9  2  0
  8 10  1  0
 10 11  1  0
 11 12  1  0
 12 13  1  0
 12 14  2  0
 11 15  2  0
 15 16  1  0
 16 17  2  0
 17 18  1  0
 18 19  2  0
 19 20  1  0
 20 21  1  0
 20 22  1  0
 20 23  1  0
 19 24  1  0
 24 25  2  0
  7 26  2  0
 26 27  1  0
 27  5  1  0
 25 10  1  0
 25 16  1  0
  1 28  1  0
  6 29  1  0
 13 30  1  0
 13 31  1  0
 15 32  1  0
 17 33  1  0
 18 34  1  0
 24 35  1  0
 26 36  1  0
M  CHG  1   1  -1
M  END
>  <UniqueID>  (36) 
36

>  <SMILES>  (36) 
[NH-]S(=O)(=O)c1cc(C(=O)n2c(C(N)=O)cc3ccc(C(F)(F)F)cc32)cs1

>  <Energy>  (36) 
103.76320030741901

>  <Genealogy>  (36) 
[NH-]S(=O)(=O)c1cc(C(=O)n2c(C(N)=O)cc3ccc(C(F)(F)F)cc32)cs1 (protonated)
[NH-]S(=O)(=O)c1cc(C(=O)n2c(C(N)=O)cc3ccc(C(F)(F)F)cc32)cs1 (3D coordinates assigned)
[NH-]S(=O)(=O)c1cc(C(=O)n2c(C(N)=O)cc3ccc(C(F)(F)F)cc32)cs1 (optimized conformer: 103.76320030741901 kcal/mol)

>  <smiles>  (36) 
NC(=O)c1cc2ccc(C(F)(F)F)cc2n1C(=O)c1csc(S(N)(=O)=O)c1

>  <score_type>  (36) 
oracle

>  <origin>  (36) 
adg

>  <m_score__min__energy>  (36) 
-8.4600000000000009

>  <m_primary>  (36) 
energy

$$$$
36:0
     RDKit          3D

 39 41  0  0  0  0  0  0  0  0999 V2000
  144.4700  154.7330  131.7090 C   0  0  0  0  0  0  0  0  0  0  0  0
  144.5340  155.7260  132.7260 O   0  0  0  0  0  0  0  0  0  0  0  0
  145.7100  156.4160  133.0330 C   0  0  0  0  0  0  0  0  0  0  0  0
  146.8010  155.7920  133.1470 O   0  0  0  0  0  0  0  0  0  0  0  0
  145.6760  157.8410  133.2200 N   0  0  0  0  0  0  0  0  0  0  0  0
  146.7000  158.7260  133.0580 C   0  0  0  0  0  0  0  0  0  0  0  0
  148.1100  158.3780  132.7960 C   0  0  0  0  0  0  0  0  0  0  0  0
  148.4590  157.3580  131.8580 N   0  0  0  0  0  0  0  0  0  0  0  0
  149.0210  158.9530  133.4490 O   0  0  0  0  0  0  0  0  0  0  0  0
  146.2510  160.0340  133.2210 C   0  0  0  0  0  0  0  0  0  0  0  0
  144.9100  159.9250  133.5060 C   0  0  0  0  0  0  0  0  0  0  0  0
  143.9650  160.9160  133.7530 C   0  0  0  0  0  0  0  0  0  0  0  0
  142.6380  160.5180  133.9850 C   0  0  0  0  0  0  0  0  0  0  0  0
  142.2780  159.1490  133.9460 C   0  0  0  0  0  0  0  0  0  0  0  0
  140.8580  158.7300  134.2110 C   0  0  0  0  0  0  0  0  0  0  0  0
  139.9950  159.0140  133.0090 C   0  0  0  0  0  0  0  0  0  0  0  0
  139.8250  160.3360  132.5640 C   0  0  0  0  0  0  0  0  0  0  0  0
  139.0560  160.6050  131.4280 C   0  0  0  0  0  0  0  0  0  0  0  0
  138.4580  159.5570  130.7230 C   0  0  0  0  0  0  0  0  0  0  0  0
  138.6310  158.2390  131.1510 C   0  0  0  0  0  0  0  0  0  0  0  0
  139.3990  157.9620  132.2860 C   0  0  0  0  0  0  0  0  0  0  0  0
  139.5600  156.6730  132.6800 F   0  0  0  0  0  0  0  0  0  0  0  0
  143.2650  158.1700  133.6960 C   0  0  0  0  0  0  0  0  0  0  0  0
  144.5850  158.5920  133.4960 C   0  0  0  0  0  0  0  0  0  0  0  0
  144.4058  153.7374  132.1722 H   0  0  0  0  0  0  0  0  0  0  0  0
  143.5811  154.9047  131.0843 H   0  0  0  0  0  0  0  0  0  0  0  0
  145.3736  154.7892  131.0843 H   0  0  0  0  0  0  0  0  0  0  0  0
  147.7300  156.7470  131.4310 H   0  0  0  0  0  0  0  0  0  0  0  0
  149.4630  157.1570  131.6530 H   0  0  0  0  0  0  0  0  0  0  0  0
  146.8428  160.9576  133.1392 H   0  0  0  0  0  0  0  0  0  0  0  0
  144.2485  161.9788  133.7662 H   0  0  0  0  0  0  0  0  0  0  0  0
  141.8711  161.2770  134.1990 H   0  0  0  0  0  0  0  0  0  0  0  0
  140.8326  157.6522  134.4292 H   0  0  0  0  0  0  0  0  0  0  0  0
  140.4722  159.2981  135.0703 H   0  0  0  0  0  0  0  0  0  0  0  0
  140.2994  161.1633  133.1122 H   0  0  0  0  0  0  0  0  0  0  0  0
  138.9215  161.6427  131.0887 H   0  0  0  0  0  0  0  0  0  0  0  0
  137.8509  159.7703  129.8308 H   0  0  0  0  0  0  0  0  0  0  0  0
  138.1612  157.4156  130.5930 H   0  0  0  0  0  0  0  0  0  0  0  0
  143.0031  157.1023  133.6593 H   0  0  0  0  0  0  0  0  0  0  0  0
  1  2  1  0
  2  3  1  0
  3  4  2  0
  3  5  1  0
  5  6  1  0
  6  7  1  0
  7  8  1  0
  7  9  2  0
  6 10  2  0
 10 11  1  0
 11 12  2  0
 12 13  1  0
 13 14  2  0
 14 15  1  0
 15 16  1  0
 16 17  2  0
 17 18  1  0
 18 19  2  0
 19 20  1  0
 20 21  2  0
 21 22  1  0
 14 23  1  0
 23 24  2  0
 24  5  1  0
 24 11  1  0
 21 16  1  0
  1 25  1  0
  1 26  1  0
  1 27  1  0
  8 28  1  0
  8 29  1  0
 10 30  1  0
 12 31  1  0
 13 32  1  0
 15 33  1  0
 15 34  1  0
 17 35  1  0
 18 36  1  0
 19 37  1  0
 20 38  1  0
 23 39  1  0
M  END
>  <UniqueID>  (37) 
37

>  <SMILES>  (37) 
COC(=O)n1c(C(N)=O)cc2ccc(Cc3ccccc3F)cc21

>  <Energy>  (37) 
77.76422777688819

>  <Genealogy>  (37) 
COC(=O)n1c(C(N)=O)cc2ccc(Cc3ccccc3F)cc21 (3D coordinates assigned)
COC(=O)n1c(C(N)=O)cc2ccc(Cc3ccccc3F)cc21 (optimized conformer: 77.76422777688819 kcal/mol)

>  <smiles>  (37) 
COC(=O)n1c(C(N)=O)cc2ccc(Cc3ccccc3F)cc21

>  <score_type>  (37) 
oracle

>  <origin>  (37) 
adg

>  <m_score__min__energy>  (37) 
-8.0700000000000003

>  <m_primary>  (37) 
energy

$$$$
37:0
     RDKit          3D

 36 38  0  0  0  0  0  0  0  0999 V2000
  139.1450  157.8630  136.6550 N   0  0  0  0  0  0  0  0  0  0  0  0
  139.5190  157.8500  135.2800 C   0  0  0  0  0  0  0  0  0  0  0  0
  138.6240  157.9350  134.3970 O   0  0  0  0  0  0  0  0  0  0  0  0
  140.9300  157.6770  134.8770 C   0  0  0  0  0  0  0  0  0  0  0  0
  141.6820  156.5470  135.1910 C   0  0  0  0  0  0  0  0  0  0  0  0
  142.9490  156.8120  134.7260 C   0  0  0  0  0  0  0  0  0  0  0  0
  144.0970  156.0270  134.7650 C   0  0  0  0  0  0  0  0  0  0  0  0
  145.2670  156.5420  134.1820 C   0  0  0  0  0  0  0  0  0  0  0  0
  145.2710  157.8210  133.5660 C   0  0  0  0  0  0  0  0  0  0  0  0
  146.5110  158.3490  132.9430 C   0  0  0  0  0  0  0  0  0  0  0  0
  147.6800  157.5680  132.9030 C   0  0  0  0  0  0  0  0  0  0  0  0
  148.8470  158.0650  132.3170 C   0  0  0  0  0  0  0  0  0  0  0  0
  148.8680  159.3550  131.7650 C   0  0  0  0  0  0  0  0  0  0  0  0
  150.1140  159.8770  131.1030 C   0  0  0  0  0  0  0  0  0  0  0  0
  149.7550  160.8550  130.0310 C   0  0  0  0  0  0  0  0  0  0  0  0
  149.6470  160.4740  128.8360 O   0  0  0  0  0  0  0  0  0  0  0  0
  149.5860  162.1980  130.3430 O   0  0  0  0  0  0  0  0  0  0  0  0
  147.7010  160.1320  131.7890 C   0  0  0  0  0  0  0  0  0  0  0  0
  146.5340  159.6370  132.3780 C   0  0  0  0  0  0  0  0  0  0  0  0
  144.0800  158.5870  133.5480 C   0  0  0  0  0  0  0  0  0  0  0  0
  142.9340  158.0560  134.1530 C   0  0  0  0  0  0  0  0  0  0  0  0
  141.7000  158.6010  134.2350 N   0  0  0  0  0  0  0  0  0  0  0  0
  141.2780  159.8500  133.6660 C   0  0  0  0  0  0  0  0  0  0  0  0
  141.7630  160.9360  134.0820 O   0  0  0  0  0  0  0  0  0  0  0  0
  140.3510  159.8720  132.6300 O   0  0  0  0  0  0  0  0  0  0  0  0
  139.1210  158.7560  137.1960 H   0  0  0  0  0  0  0  0  0  0  0  0
  141.3360  155.6365  135.7021 H   0  0  0  0  0  0  0  0  0  0  0  0
  144.0889  155.0338  135.2377 H   0  0  0  0  0  0  0  0  0  0  0  0
  146.1917  155.9466  134.2032 H   0  0  0  0  0  0  0  0  0  0  0  0
  147.6755  156.5572  133.3368 H   0  0  0  0  0  0  0  0  0  0  0  0
  149.7533  157.4423  132.2882 H   0  0  0  0  0  0  0  0  0  0  0  0
  150.7436  160.3758  131.8545 H   0  0  0  0  0  0  0  0  0  0  0  0
  150.6625  159.0359  130.6539 H   0  0  0  0  0  0  0  0  0  0  0  0
  147.7039  161.1370  131.3417 H   0  0  0  0  0  0  0  0  0  0  0  0
  145.6271  160.2591  132.3999 H   0  0  0  0  0  0  0  0  0  0  0  0
  144.0556  159.5771  133.0694 H   0  0  0  0  0  0  0  0  0  0  0  0
  1  2  1  0
  2  3  2  0
  2  4  1  0
  4  5  2  0
  5  6  1  0
  6  7  2  0
  7  8  1  0
  8  9  2  0
  9 10  1  0
 10 11  2  0
 11 12  1  0
 12 13  2  0
 13 14  1  0
 14 15  1  0
 15 16  2  0
 15 17  1  0
 13 18  1  0
 18 19  2  0
  9 20  1  0
 20 21  2  0
 21 22  1  0
 22 23  1  0
 23 24  2  0
 23 25  1  0
 22  4  1  0
 21  6  1  0
 19 10  1  0
  1 26  1  0
  5 27  1  0
  7 28  1  0
  8 29  1  0
 11 30  1  0
 12 31  1  0
 14 32  1  0
 14 33  1  0
 18 34  1  0
 19 35  1  0
 20 36  1  0
M  CHG  3   1  -1  17  -1  25  -1
M  END
>  <UniqueID>  (38) 
38

>  <SMILES>  (38) 
[NH-]C(=O)c1cc2ccc(-c3ccc(CC(=O)[O-])cc3)cc2n1C(=O)[O-]

>  <Energy>  (38) 
82.29229725672329

>  <Genealogy>  (38) 
[NH-]C(=O)c1cc2ccc(-c3ccc(CC(=O)[O-])cc3)cc2n1C(=O)[O-] (protonated)
[NH-]C(=O)c1cc2ccc(-c3ccc(CC(=O)[O-])cc3)cc2n1C(=O)[O-] (3D coordinates assigned)
[NH-]C(=O)c1cc2ccc(-c3ccc(CC(=O)[O-])cc3)cc2n1C(=O)[O-] (optimized conformer: 82.29229725672329 kcal/mol)

>  <smiles>  (38) 
NC(=O)c1cc2ccc(-c3ccc(CC(=O)O)cc3)cc2n1C(=O)O

>  <score_type>  (38) 
oracle

>  <origin>  (38) 
adg

>  <m_score__min__energy>  (38) 
-8.0399999999999991

>  <m_primary>  (38) 
energy

$$$$
38:0
     RDKit          3D

 50 52  0  0  0  0  0  0  0  0999 V2000
  147.1470  152.8270  132.6350 C   0  0  0  0  0  0  0  0  0  0  0  0
  148.0360  153.9280  133.0450 N   0  0  0  0  0  0  0  0  0  0  0  0
  149.3930  153.7000  132.5090 C   0  0  0  0  0  0  0  0  0  0  0  0
  148.0350  154.0460  134.5230 C   0  0  0  0  0  0  0  0  0  0  0  0
  147.0490  155.1020  135.0440 C   0  0  0  0  0  0  0  0  0  0  0  0
  145.9420  155.2340  134.1560 O   0  0  0  0  0  0  0  0  0  0  0  0
  145.9690  156.0810  133.0450 C   0  0  0  0  0  0  0  0  0  0  0  0
  145.9780  155.5990  131.8790 O   0  0  0  0  0  0  0  0  0  0  0  0
  145.9650  157.5060  133.2280 N   0  0  0  0  0  0  0  0  0  0  0  0
  146.9900  158.3750  132.9950 C   0  0  0  0  0  0  0  0  0  0  0  0
  148.3900  158.0090  132.6890 C   0  0  0  0  0  0  0  0  0  0  0  0
  148.7520  156.6590  132.4090 N   0  0  0  0  0  0  0  0  0  0  0  0
  149.2860  158.8950  132.7120 O   0  0  0  0  0  0  0  0  0  0  0  0
  146.5620  159.6900  133.1530 C   0  0  0  0  0  0  0  0  0  0  0  0
  145.2340  159.6010  133.4970 C   0  0  0  0  0  0  0  0  0  0  0  0
  144.3070  160.6080  133.7370 C   0  0  0  0  0  0  0  0  0  0  0  0
  142.9870  160.2320  134.0280 C   0  0  0  0  0  0  0  0  0  0  0  0
  142.6140  158.8650  134.0640 C   0  0  0  0  0  0  0  0  0  0  0  0
  141.1960  158.4780  134.3960 C   0  0  0  0  0  0  0  0  0  0  0  0
  140.2980  158.8060  133.2760 N   0  0  0  0  0  0  0  0  0  0  0  0
  140.2240  160.1040  132.8430 C   0  0  0  0  0  0  0  0  0  0  0  0
  139.4120  160.4520  131.7630 C   0  0  0  0  0  0  0  0  0  0  0  0
  138.6700  159.4660  131.1190 C   0  0  0  0  0  0  0  0  0  0  0  0
  138.7430  158.1460  131.5610 C   0  0  0  0  0  0  0  0  0  0  0  0
  139.5660  157.8260  132.6450 C   0  0  0  0  0  0  0  0  0  0  0  0
  139.6220  156.6270  133.0360 O   0  0  0  0  0  0  0  0  0  0  0  0
  143.5860  157.8670  133.8190 C   0  0  0  0  0  0  0  0  0  0  0  0
  144.8970  158.2710  133.5390 C   0  0  0  0  0  0  0  0  0  0  0  0
  146.7444  152.3284  133.5291 H   0  0  0  0  0  0  0  0  0  0  0  0
  146.3176  153.2295  132.0349 H   0  0  0  0  0  0  0  0  0  0  0  0
  147.7152  152.1010  132.0349 H   0  0  0  0  0  0  0  0  0  0  0  0
  147.6560  154.8100  132.6290 H   0  0  0  0  0  0  0  0  0  0  0  0
  150.1012  153.5810  133.3423 H   0  0  0  0  0  0  0  0  0  0  0  0
  149.3955  152.7888  131.8927 H   0  0  0  0  0  0  0  0  0  0  0  0
  149.6932  154.5603  131.8927 H   0  0  0  0  0  0  0  0  0  0  0  0
  147.7616  153.0705  134.9516 H   0  0  0  0  0  0  0  0  0  0  0  0
  149.0439  154.3621  134.8268 H   0  0  0  0  0  0  0  0  0  0  0  0
  146.6831  154.7973  136.0356 H   0  0  0  0  0  0  0  0  0  0  0  0
  147.5677  156.0697  135.1115 H   0  0  0  0  0  0  0  0  0  0  0  0
  148.1210  156.0380  131.8540 H   0  0  0  0  0  0  0  0  0  0  0  0
  147.1592  160.6054  133.0290 H   0  0  0  0  0  0  0  0  0  0  0  0
  144.5993  161.6678  133.7000 H   0  0  0  0  0  0  0  0  0  0  0  0
  142.2330  161.0069  134.2305 H   0  0  0  0  0  0  0  0  0  0  0  0
  141.1518  157.3963  134.5910 H   0  0  0  0  0  0  0  0  0  0  0  0
  140.8733  159.0365  135.2870 H   0  0  0  0  0  0  0  0  0  0  0  0
  140.8120  160.8812  133.3531 H   0  0  0  0  0  0  0  0  0  0  0  0
  139.3587  161.4969  131.4233 H   0  0  0  0  0  0  0  0  0  0  0  0
  138.0285  159.7275  130.2646 H   0  0  0  0  0  0  0  0  0  0  0  0
  138.1570  157.3613  131.0602 H   0  0  0  0  0  0  0  0  0  0  0  0
  143.3186  156.8004  133.8477 H   0  0  0  0  0  0  0  0  0  0  0  0
  1  2  1  0
  2  3  1  0
  2  4  1  0
  4  5  1  0
  5  6  1  0
  6  7  1  0
  7  8  2  0
  7  9  1  0
  9 10  1  0
 10 11  1  0
 11 12  1  0
 11 13  2  0
 10 14  2  0
 14 15  1  0
 15 16  2  0
 16 17  1  0
 17 18  2  0
 18 19  1  0
 19 20  1  0
 20 21  1  0
 21 22  2  0
 22 23  1  0
 23 24  2  0
 24 25  1  0
 25 26  2  0
 18 27  1  0
 27 28  2  0
 28  9  1  0
 28 15  1  0
 25 20  1  0
  1 29  1  0
  1 30  1  0
  1 31  1  0
  2 32  1  0
  3 33  1  0
  3 34  1  0
  3 35  1  0
  4 36  1  0
  4 37  1  0
  5 38  1  0
  5 39  1  0
 12 40  1  0
 14 41  1  0
 16 42  1  0
 17 43  1  0
 19 44  1  0
 19 45  1  0
 21 46  1  0
 22 47  1  0
 23 48  1  0
 24 49  1  0
 27 50  1  0
M  CHG  2   2   1  12  -1
M  END
>  <UniqueID>  (39) 
39

>  <SMILES>  (39) 
C[NH+](C)CCOC(=O)n1c(C([NH-])=O)cc2ccc(Cn3ccccc3=O)cc21

>  <Energy>  (39) 
88.16860385205588

>  <Genealogy>  (39) 
C[NH+](C)CCOC(=O)n1c(C([NH-])=O)cc2ccc(Cn3ccccc3=O)cc21 (protonated)
C[NH+](C)CCOC(=O)n1c(C([NH-])=O)cc2ccc(Cn3ccccc3=O)cc21 (3D coordinates assigned)
C[NH+](C)CCOC(=O)n1c(C([NH-])=O)cc2ccc(Cn3ccccc3=O)cc21 (optimized conformer: 88.16860385205588 kcal/mol)

>  <smiles>  (39) 
CN(C)CCOC(=O)n1c(C(N)=O)cc2ccc(Cn3ccccc3=O)cc21

>  <score_type>  (39) 
oracle

>  <origin>  (39) 
adg

>  <m_score__min__energy>  (39) 
-6.5499999999999998

>  <m_primary>  (39) 
energy

$$$$
39:0
     RDKit          3D

 38 39  0  0  0  0  0  0  0  0999 V2000
  149.4540  161.5370  130.4480 C   0  0  0  0  0  0  0  0  0  0  0  0
  149.6040  160.0420  130.2140 C   0  0  0  0  0  0  0  0  0  0  0  0
  148.6760  159.3380  131.0320 O   0  0  0  0  0  0  0  0  0  0  0  0
  149.0720  158.3900  131.9800 C   0  0  0  0  0  0  0  0  0  0  0  0
  150.2960  158.1600  132.1750 O   0  0  0  0  0  0  0  0  0  0  0  0
  148.0760  157.6790  132.7340 N   0  0  0  0  0  0  0  0  0  0  0  0
  146.9150  158.1810  133.2430 C   0  0  0  0  0  0  0  0  0  0  0  0
  146.5240  159.6050  133.2640 C   0  0  0  0  0  0  0  0  0  0  0  0
  147.4730  160.6370  132.9950 N   0  0  0  0  0  0  0  0  0  0  0  0
  145.3440  159.9170  133.5780 O   0  0  0  0  0  0  0  0  0  0  0  0
  146.1410  157.1670  133.7990 C   0  0  0  0  0  0  0  0  0  0  0  0
  146.8730  156.0150  133.6270 C   0  0  0  0  0  0  0  0  0  0  0  0
  146.5720  154.7050  133.9780 C   0  0  0  0  0  0  0  0  0  0  0  0
  147.4980  153.7030  133.6430 C   0  0  0  0  0  0  0  0  0  0  0  0
  148.6980  154.0180  132.9600 C   0  0  0  0  0  0  0  0  0  0  0  0
  149.6090  152.9520  132.6250 N   0  0  0  0  0  0  0  0  0  0  0  0
  149.6240  151.6360  133.2650 C   0  0  0  0  0  0  0  0  0  0  0  0
  149.9880  150.5480  132.2530 C   0  0  0  0  0  0  0  0  0  0  0  0
  150.3680  151.1270  131.0350 O   0  0  0  0  0  0  0  0  0  0  0  0
  148.9650  155.3660  132.6120 C   0  0  0  0  0  0  0  0  0  0  0  0
  148.0360  156.3490  132.9790 C   0  0  0  0  0  0  0  0  0  0  0  0
  149.4338  161.7387  131.5292 H   0  0  0  0  0  0  0  0  0  0  0  0
  150.3035  162.0666  129.9921 H   0  0  0  0  0  0  0  0  0  0  0  0
  148.5162  161.8872  129.9921 H   0  0  0  0  0  0  0  0  0  0  0  0
  149.4061  159.8148  129.1561 H   0  0  0  0  0  0  0  0  0  0  0  0
  150.6277  159.7317  130.4705 H   0  0  0  0  0  0  0  0  0  0  0  0
  148.4900  160.4230  132.8950 H   0  0  0  0  0  0  0  0  0  0  0  0
  147.1680  161.6360  132.9690 H   0  0  0  0  0  0  0  0  0  0  0  0
  145.1541  157.2656  134.2747 H   0  0  0  0  0  0  0  0  0  0  0  0
  145.6367  154.4596  134.5025 H   0  0  0  0  0  0  0  0  0  0  0  0
  147.2878  152.6582  133.9153 H   0  0  0  0  0  0  0  0  0  0  0  0
  150.3220  153.1260  131.8810 H   0  0  0  0  0  0  0  0  0  0  0  0
  150.3664  151.6374  134.0767 H   0  0  0  0  0  0  0  0  0  0  0  0
  148.6215  151.4257  133.6659 H   0  0  0  0  0  0  0  0  0  0  0  0
  150.8229  149.9500  132.6471 H   0  0  0  0  0  0  0  0  0  0  0  0
  149.1111  149.9052  132.0865 H   0  0  0  0  0  0  0  0  0  0  0  0
  151.2940  151.4630  131.1570 H   0  0  0  0  0  0  0  0  0  0  0  0
  149.8813  155.6346  132.0659 H   0  0  0  0  0  0  0  0  0  0  0  0
  1  2  1  0
  2  3  1  0
  3  4  1  0
  4  5  2  0
  4  6  1  0
  6  7  1  0
  7  8  1  0
  8  9  1  0
  8 10  2  0
  7 11  2  0
 11 12  1  0
 12 13  2  0
 13 14  1  0
 14 15  2  0
 15 16  1  0
 16 17  1  0
 17 18  1  0
 18 19  1  0
 15 20  1  0
 20 21  2  0
 21  6  1  0
 21 12  1  0
  1 22  1  0
  1 23  1  0
  1 24  1  0
  2 25  1  0
  2 26  1  0
  9 27  1  0
  9 28  1  0
 11 29  1  0
 13 30  1  0
 14 31  1  0
 16 32  1  0
 17 33  1  0
 17 34  1  0
 18 35  1  0
 18 36  1  0
 19 37  1  0
 20 38  1  0
M  END
>  <UniqueID>  (40) 
40

>  <SMILES>  (40) 
CCOC(=O)n1c(C(N)=O)cc2ccc(NCCO)cc21

>  <Energy>  (40) 
69.29468562359611

>  <Genealogy>  (40) 
CCOC(=O)n1c(C(N)=O)cc2ccc(NCCO)cc21 (3D coordinates assigned)
CCOC(=O)n1c(C(N)=O)cc2ccc(NCCO)cc21 (optimized conformer: 69.29468562359611 kcal/mol)

>  <smiles>  (40) 
CCOC(=O)n1c(C(N)=O)cc2ccc(NCCO)cc21

>  <score_type>  (40) 
oracle

>  <origin>  (40) 
adg

>  <m_score__min__energy>  (40) 
-6.5

>  <m_primary>  (40) 
energy

$$$$
40:0
     RDKit          3D

 52 54  0  0  0  0  0  0  0  0999 V2000
  138.4590  157.4420  133.6900 C   0  0  0  0  0  0  0  0  0  0  0  0
  139.9950  157.4300  133.7590 C   0  0  0  0  0  0  0  0  0  0  0  0
  140.5210  158.8210  133.3580 C   0  0  0  0  0  0  0  0  0  0  0  0
  140.4260  157.0760  135.1950 C   0  0  0  0  0  0  0  0  0  0  0  0
  140.4520  156.4370  132.8310 O   0  0  0  0  0  0  0  0  0  0  0  0
  140.5210  155.0540  133.0570 C   0  0  0  0  0  0  0  0  0  0  0  0
  139.4850  154.3840  133.3160 O   0  0  0  0  0  0  0  0  0  0  0  0
  141.8000  154.4050  133.0310 N   0  0  0  0  0  0  0  0  0  0  0  0
  143.0380  154.9750  133.0330 C   0  0  0  0  0  0  0  0  0  0  0  0
  143.3320  156.4120  133.2140 C   0  0  0  0  0  0  0  0  0  0  0  0
  142.9310  157.3720  132.2400 N   0  0  0  0  0  0  0  0  0  0  0  0
  143.9080  156.8030  134.2640 O   0  0  0  0  0  0  0  0  0  0  0  0
  144.0240  153.9960  132.9160 C   0  0  0  0  0  0  0  0  0  0  0  0
  143.3470  152.8000  132.8510 C   0  0  0  0  0  0  0  0  0  0  0  0
  143.8270  151.5010  132.7150 C   0  0  0  0  0  0  0  0  0  0  0  0
  142.8910  150.4560  132.6390 C   0  0  0  0  0  0  0  0  0  0  0  0
  141.4980  150.7220  132.6960 C   0  0  0  0  0  0  0  0  0  0  0  0
  140.5010  149.5820  132.5850 C   0  0  1  0  0  0  0  0  0  0  0  0
  139.0810  150.0780  132.1980 C   0  0  0  0  0  0  0  0  0  0  0  0
  138.7000  149.6840  130.7620 C   0  0  0  0  0  0  0  0  0  0  0  0
  138.7530  148.2140  130.5600 N   0  0  1  0  0  0  0  0  0  0  0  0
  138.7590  147.9250  129.1450 C   0  0  0  0  0  0  0  0  0  0  0  0
  138.7520  148.8600  128.2980 O   0  0  0  0  0  0  0  0  0  0  0  0
  138.7480  146.6070  128.7030 O   0  0  0  0  0  0  0  0  0  0  0  0
  139.8860  147.5310  131.2480 C   0  0  0  0  0  0  0  0  0  0  0  0
  141.0220  148.4910  131.6270 C   0  0  0  0  0  0  0  0  0  0  0  0
  141.0530  152.0580  132.8280 C   0  0  0  0  0  0  0  0  0  0  0  0
  142.0070  153.0750  132.9220 C   0  0  0  0  0  0  0  0  0  0  0  0
  138.0462  157.4452  134.7096 H   0  0  0  0  0  0  0  0  0  0  0  0
  138.1230  158.3428  133.1555 H   0  0  0  0  0  0  0  0  0  0  0  0
  138.1090  156.5466  133.1555 H   0  0  0  0  0  0  0  0  0  0  0  0
  140.7417  159.4047  134.2639 H   0  0  0  0  0  0  0  0  0  0  0  0
  141.4386  158.7082  132.7619 H   0  0  0  0  0  0  0  0  0  0  0  0
  139.7584  159.3435  132.7619 H   0  0  0  0  0  0  0  0  0  0  0  0
  139.7815  157.6053  135.9123 H   0  0  0  0  0  0  0  0  0  0  0  0
  140.3321  155.9909  135.3491 H   0  0  0  0  0  0  0  0  0  0  0  0
  141.4722  157.3790  135.3491 H   0  0  0  0  0  0  0  0  0  0  0  0
  142.0960  157.2090  131.6350 H   0  0  0  0  0  0  0  0  0  0  0  0
  145.1130  154.1478  132.8827 H   0  0  0  0  0  0  0  0  0  0  0  0
  144.9072  151.2983  132.6684 H   0  0  0  0  0  0  0  0  0  0  0  0
  143.2421  149.4188  132.5340 H   0  0  0  0  0  0  0  0  0  0  0  0
  140.4009  149.1282  133.5820 H   0  0  0  0  0  0  0  0  0  0  0  0
  139.0530  151.1743  132.2839 H   0  0  0  0  0  0  0  0  0  0  0  0
  138.3601  149.6046  132.8807 H   0  0  0  0  0  0  0  0  0  0  0  0
  139.4006  150.1647  130.0633 H   0  0  0  0  0  0  0  0  0  0  0  0
  137.6676  150.0168  130.5791 H   0  0  0  0  0  0  0  0  0  0  0  0
  137.8660  147.8160  130.9520 H   0  0  0  0  0  0  0  0  0  0  0  0
  140.2891  146.7580  130.5772 H   0  0  0  0  0  0  0  0  0  0  0  0
  139.4936  147.1001  132.1809 H   0  0  0  0  0  0  0  0  0  0  0  0
  141.4158  148.9654  130.7160 H   0  0  0  0  0  0  0  0  0  0  0  0
  141.8188  147.9231  132.1296 H   0  0  0  0  0  0  0  0  0  0  0  0
  139.9785  152.2917  132.8561 H   0  0  0  0  0  0  0  0  0  0  0  0
  1  2  1  0
  2  3  1  0
  2  4  1  0
  2  5  1  0
  5  6  1  0
  6  7  2  0
  6  8  1  0
  8  9  1  0
  9 10  1  0
 10 11  1  0
 10 12  2  0
  9 13  2  0
 13 14  1  0
 14 15  2  0
 15 16  1  0
 16 17  2  0
 17 18  1  0
 18 19  1  0
 19 20  1  0
 20 21  1  0
 21 22  1  0
 22 23  2  0
 22 24  1  0
 21 25  1  0
 25 26  1  0
 17 27  1  0
 27 28  2  0
 28  8  1  0
 28 14  1  0
 26 18  1  0
  1 29  1  0
  1 30  1  0
  1 31  1  0
  3 32  1  0
  3 33  1  0
  3 34  1  0
  4 35  1  0
  4 36  1  0
  4 37  1  0
 11 38  1  0
 13 39  1  0
 15 40  1  0
 16 41  1  0
 18 42  1  1
 19 43  1  0
 19 44  1  0
 20 45  1  0
 20 46  1  0
 21 47  1  1
 25 48  1  0
 25 49  1  0
 26 50  1  0
 26 51  1  0
 27 52  1  0
M  CHG  3  11  -1  21   1  24  -1
M  END
>  <UniqueID>  (41) 
41

>  <SMILES>  (41) 
CC(C)(C)OC(=O)n1c(C([NH-])=O)cc2ccc(C3CC[NH+](C(=O)[O-])CC3)cc21

>  <Energy>  (41) 
96.36068638367335

>  <Genealogy>  (41) 
CC(C)(C)OC(=O)n1c(C([NH-])=O)cc2ccc(C3CC[NH+](C(=O)[O-])CC3)cc21 (protonated)
CC(C)(C)OC(=O)n1c(C([NH-])=O)cc2ccc(C3CC[NH+](C(=O)[O-])CC3)cc21 (3D coordinates assigned)
CC(C)(C)OC(=O)n1c(C([NH-])=O)cc2ccc(C3CC[NH+](C(=O)[O-])CC3)cc21 (nonaromatic ring conformer: 96.36068638367335 kcal/mol)

>  <smiles>  (41) 
CC(C)(C)OC(=O)n1c(C(N)=O)cc2ccc(C3CCN(C(=O)O)CC3)cc21

>  <score_type>  (41) 
oracle

>  <origin>  (41) 
adg

>  <m_score__min__energy>  (41) 
-7.7000000000000002

>  <m_primary>  (41) 
energy

$$$$
41:0
     RDKit          3D

 49 51  0  0  0  0  0  0  0  0999 V2000
  147.5450  152.5770  138.1180 C   0  0  0  0  0  0  0  0  0  0  0  0
  146.9990  152.9880  136.8700 O   0  0  0  0  0  0  0  0  0  0  0  0
  147.5470  154.0300  136.1190 C   0  0  0  0  0  0  0  0  0  0  0  0
  148.3480  154.8500  136.6470 O   0  0  0  0  0  0  0  0  0  0  0  0
  147.2050  154.1540  134.6680 C   0  0  0  0  0  0  0  0  0  0  0  0
  146.6390  155.5150  134.3700 C   0  0  0  0  0  0  0  0  0  0  0  0
  147.4660  156.5340  133.8290 C   0  0  0  0  0  0  0  0  0  0  0  0
  146.9310  157.7940  133.5030 C   0  0  0  0  0  0  0  0  0  0  0  0
  145.5750  158.0050  133.7350 C   0  0  0  0  0  0  0  0  0  0  0  0
  144.7930  159.1170  133.5120 C   0  0  0  0  0  0  0  0  0  0  0  0
  143.5140  158.7660  133.9400 C   0  0  0  0  0  0  0  0  0  0  0  0
  142.3500  159.6740  133.8990 C   0  0  0  0  0  0  0  0  0  0  0  0
  141.7180  160.0020  132.6630 N   0  0  0  0  0  0  0  0  0  0  0  0
  141.9170  160.1810  134.9680 O   0  0  0  0  0  0  0  0  0  0  0  0
  143.5110  157.4870  134.4090 N   0  0  0  0  0  0  0  0  0  0  0  0
  142.4680  156.8090  135.1160 C   0  0  0  0  0  0  0  0  0  0  0  0
  142.6850  156.3640  136.2730 O   0  0  0  0  0  0  0  0  0  0  0  0
  141.1530  156.7380  134.5520 N   0  0  0  0  0  0  0  0  0  0  0  0
  140.9640  156.1050  133.2390 C   0  0  0  0  0  0  0  0  0  0  0  0
  139.5500  156.3510  132.7030 C   0  0  0  0  0  0  0  0  0  0  0  0
  139.1960  157.7700  132.8650 N   0  0  0  0  0  0  0  0  0  0  0  0
  138.5870  158.4970  131.7750 C   0  0  0  0  0  0  0  0  0  0  0  0
  138.3620  159.9750  131.8510 C   0  0  0  0  0  0  0  0  0  0  0  0
  138.2360  157.8890  130.7260 O   0  0  0  0  0  0  0  0  0  0  0  0
  139.4370  158.4340  134.1610 C   0  0  0  0  0  0  0  0  0  0  0  0
  140.0540  157.4710  135.1810 C   0  0  0  0  0  0  0  0  0  0  0  0
  144.7710  157.0360  134.2720 C   0  0  0  0  0  0  0  0  0  0  0  0
  145.2680  155.7720  134.5930 C   0  0  0  0  0  0  0  0  0  0  0  0
  146.9590  153.0181  138.9377 H   0  0  0  0  0  0  0  0  0  0  0  0
  147.5089  151.4800  138.1905 H   0  0  0  0  0  0  0  0  0  0  0  0
  148.5892  152.9151  138.1905 H   0  0  0  0  0  0  0  0  0  0  0  0
  148.1145  154.0019  134.0683 H   0  0  0  0  0  0  0  0  0  0  0  0
  146.4505  153.3942  134.4162 H   0  0  0  0  0  0  0  0  0  0  0  0
  148.5354  156.3368  133.6630 H   0  0  0  0  0  0  0  0  0  0  0  0
  147.5643  158.5869  133.0784 H   0  0  0  0  0  0  0  0  0  0  0  0
  145.1113  160.0798  133.0856 H   0  0  0  0  0  0  0  0  0  0  0  0
  141.7240  159.3290  131.8650 H   0  0  0  0  0  0  0  0  0  0  0  0
  141.6940  156.5236  132.5306 H   0  0  0  0  0  0  0  0  0  0  0  0
  141.1099  155.0205  133.3512 H   0  0  0  0  0  0  0  0  0  0  0  0
  139.5122  156.0845  131.6364 H   0  0  0  0  0  0  0  0  0  0  0  0
  138.8354  155.7317  133.2650 H   0  0  0  0  0  0  0  0  0  0  0  0
  138.3148  160.2850  132.9054 H   0  0  0  0  0  0  0  0  0  0  0  0
  139.1908  160.4982  131.3517 H   0  0  0  0  0  0  0  0  0  0  0  0
  137.4150  160.2279  131.3517 H   0  0  0  0  0  0  0  0  0  0  0  0
  140.1239  159.2793  134.0070 H   0  0  0  0  0  0  0  0  0  0  0  0
  138.4704  158.7807  134.5554 H   0  0  0  0  0  0  0  0  0  0  0  0
  140.4372  158.0416  136.0398 H   0  0  0  0  0  0  0  0  0  0  0  0
  139.2883  156.7610  135.5268 H   0  0  0  0  0  0  0  0  0  0  0  0
  144.6090  154.9957  135.0090 H   0  0  0  0  0  0  0  0  0  0  0  0
  1  2  1  0
  2  3  1  0
  3  4  2  0
  3  5  1  0
  5  6  1  0
  6  7  2  0
  7  8  1  0
  8  9  2  0
  9 10  1  0
 10 11  2  0
 11 12  1  0
 12 13  1  0
 12 14  2  0
 11 15  1  0
 15 16  1  0
 16 17  2  0
 16 18  1  0
 18 19  1  0
 19 20  1  0
 20 21  1  0
 21 22  1  0
 22 23  1  0
 22 24  2  0
 21 25  1  0
 25 26  1  0
 15 27  1  0
 27 28  2  0
 28  6  1  0
 27  9  1  0
 26 18  1  0
  1 29  1  0
  1 30  1  0
  1 31  1  0
  5 32  1  0
  5 33  1  0
  7 34  1  0
  8 35  1  0
 10 36  1  0
 13 37  1  0
 19 38  1  0
 19 39  1  0
 20 40  1  0
 20 41  1  0
 23 42  1  0
 23 43  1  0
 23 44  1  0
 25 45  1  0
 25 46  1  0
 26 47  1  0
 26 48  1  0
 28 49  1  0
M  CHG  1  13  -1
M  END
>  <UniqueID>  (42) 
42

>  <SMILES>  (42) 
COC(=O)Cc1ccc2cc(C([NH-])=O)n(C(=O)N3CCN(C(C)=O)CC3)c2c1

>  <Energy>  (42) 
88.68929502291466

>  <Genealogy>  (42) 
COC(=O)Cc1ccc2cc(C([NH-])=O)n(C(=O)N3CCN(C(C)=O)CC3)c2c1 (protonated)
COC(=O)Cc1ccc2cc(C([NH-])=O)n(C(=O)N3CCN(C(C)=O)CC3)c2c1 (3D coordinates assigned)
COC(=O)Cc1ccc2cc(C([NH-])=O)n(C(=O)N3CCN(C(C)=O)CC3)c2c1 (nonaromatic ring conformer: 88.68929502291466 kcal/mol)

>  <smiles>  (42) 
COC(=O)Cc1ccc2cc(C(N)=O)n(C(=O)N3CCN(C(C)=O)CC3)c2c1

>  <score_type>  (42) 
oracle

>  <origin>  (42) 
adg

>  <m_score__min__energy>  (42) 
-7.5700000000000003

>  <m_primary>  (42) 
energy

$$$$
42:0
     RDKit          3D

 31 32  0  0  0  0  0  0  0  0999 V2000
  141.4600  161.0520  133.7330 N   0  0  0  0  0  0  0  0  0  0  0  0
  142.2470  160.1300  134.4820 C   0  0  0  0  0  0  0  0  0  0  0  0
  141.8060  159.6900  135.5780 O   0  0  0  0  0  0  0  0  0  0  0  0
  143.5930  159.7300  134.0230 C   0  0  0  0  0  0  0  0  0  0  0  0
  143.9370  158.4150  133.7150 C   0  0  0  0  0  0  0  0  0  0  0  0
  145.2800  158.4470  133.4210 C   0  0  0  0  0  0  0  0  0  0  0  0
  146.1350  157.4210  133.0310 C   0  0  0  0  0  0  0  0  0  0  0  0
  147.4730  157.7460  132.7550 C   0  0  0  0  0  0  0  0  0  0  0  0
  147.9290  159.0840  132.8740 C   0  0  0  0  0  0  0  0  0  0  0  0
  149.3520  159.4280  132.5270 C   0  0  0  0  0  0  0  0  0  0  0  0
  149.3930  160.4570  131.3900 C   0  0  0  0  0  0  0  0  0  0  0  0
  149.1700  159.8020  130.0230 C   0  0  0  0  0  0  0  0  0  0  0  0
  149.6060  160.6420  128.9880 O   0  0  0  0  0  0  0  0  0  0  0  0
  147.0290  160.1010  133.2600 C   0  0  0  0  0  0  0  0  0  0  0  0
  145.7060  159.7440  133.5470 C   0  0  0  0  0  0  0  0  0  0  0  0
  144.6800  160.5470  133.9120 N   0  0  0  0  0  0  0  0  0  0  0  0
  144.7300  161.9750  134.0580 C   0  0  0  0  0  0  0  0  0  0  0  0
  143.9060  162.7050  133.4460 O   0  0  0  0  0  0  0  0  0  0  0  0
  145.7030  162.5660  134.8540 O   0  0  0  0  0  0  0  0  0  0  0  0
  141.8660  161.9520  133.3920 H   0  0  0  0  0  0  0  0  0  0  0  0
  143.2743  157.5371  133.7085 H   0  0  0  0  0  0  0  0  0  0  0  0
  145.7736  156.3859  132.9415 H   0  0  0  0  0  0  0  0  0  0  0  0
  148.1732  156.9567  132.4440 H   0  0  0  0  0  0  0  0  0  0  0  0
  149.8496  159.8479  133.4136 H   0  0  0  0  0  0  0  0  0  0  0  0
  149.8696  158.5143  132.1993 H   0  0  0  0  0  0  0  0  0  0  0  0
  148.6054  161.2061  131.5589 H   0  0  0  0  0  0  0  0  0  0  0  0
  150.3886  160.9247  131.3872 H   0  0  0  0  0  0  0  0  0  0  0  0
  149.7316  158.8571  129.9806 H   0  0  0  0  0  0  0  0  0  0  0  0
  148.0936  159.6156  129.8942 H   0  0  0  0  0  0  0  0  0  0  0  0
  148.8720  161.2890  128.8190 H   0  0  0  0  0  0  0  0  0  0  0  0
  147.3590  161.1478  133.3334 H   0  0  0  0  0  0  0  0  0  0  0  0
  1  2  1  0
  2  3  2  0
  2  4  1  0
  4  5  2  0
  5  6  1  0
  6  7  2  0
  7  8  1  0
  8  9  2  0
  9 10  1  0
 10 11  1  0
 11 12  1  0
 12 13  1  0
  9 14  1  0
 14 15  2  0
 15 16  1  0
 16 17  1  0
 17 18  2  0
 17 19  1  0
 16  4  1  0
 15  6  1  0
  1 20  1  0
  5 21  1  0
  7 22  1  0
  8 23  1  0
 10 24  1  0
 10 25  1  0
 11 26  1  0
 11 27  1  0
 12 28  1  0
 12 29  1  0
 13 30  1  0
 14 31  1  0
M  CHG  2   1  -1  19  -1
M  END
>  <UniqueID>  (43) 
43

>  <SMILES>  (43) 
[NH-]C(=O)c1cc2ccc(CCCO)cc2n1C(=O)[O-]

>  <Energy>  (43) 
66.32795714562445

>  <Genealogy>  (43) 
[NH-]C(=O)c1cc2ccc(CCCO)cc2n1C(=O)[O-] (protonated)
[NH-]C(=O)c1cc2ccc(CCCO)cc2n1C(=O)[O-] (3D coordinates assigned)
[NH-]C(=O)c1cc2ccc(CCCO)cc2n1C(=O)[O-] (optimized conformer: 66.32795714562445 kcal/mol)

>  <smiles>  (43) 
NC(=O)c1cc2ccc(CCCO)cc2n1C(=O)O

>  <score_type>  (43) 
oracle

>  <origin>  (43) 
adg

>  <m_score__min__energy>  (43) 
-6.5

>  <m_primary>  (43) 
energy

$$$$
43:0
     RDKit          3D

 46 48  0  0  0  0  0  0  0  0999 V2000
  140.6100  151.2570  139.8900 C   0  0  0  0  0  0  0  0  0  0  0  0
  141.4320  152.4690  140.0210 N   0  0  0  0  0  0  0  0  0  0  0  0
  142.2290  152.6990  138.7900 C   0  0  0  0  0  0  0  0  0  0  0  0
  142.5470  154.1810  138.5680 C   0  0  0  0  0  0  0  0  0  0  0  0
  141.2360  154.9620  138.3530 C   0  0  0  0  0  0  0  0  0  0  0  0
  141.4580  156.4200  138.4450 N   0  0  0  0  0  0  0  0  0  0  0  0
  142.0260  157.0320  139.6540 C   0  0  0  0  0  0  0  0  0  0  0  0
  141.1500  157.2710  137.3210 C   0  0  0  0  0  0  0  0  0  0  0  0
  141.1560  158.6820  137.4680 C   0  0  0  0  0  0  0  0  0  0  0  0
  140.8660  159.5180  136.3780 C   0  0  0  0  0  0  0  0  0  0  0  0
  140.5620  158.9220  135.1590 C   0  0  0  0  0  0  0  0  0  0  0  0
  140.2600  159.4980  133.9500 C   0  0  0  0  0  0  0  0  0  0  0  0
  140.0670  158.4340  133.0760 C   0  0  0  0  0  0  0  0  0  0  0  0
  139.6970  158.6140  131.6630 C   0  0  0  0  0  0  0  0  0  0  0  0
  138.5930  157.9050  131.1020 N   0  0  0  0  0  0  0  0  0  0  0  0
  140.4080  159.3460  130.9240 O   0  0  0  0  0  0  0  0  0  0  0  0
  140.2110  157.2390  133.7200 N   0  0  0  0  0  0  0  0  0  0  0  0
  139.9190  155.9270  133.1970 C   0  0  0  0  0  0  0  0  0  0  0  0
  140.9640  154.9800  132.9920 N   0  0  0  0  0  0  0  0  0  0  0  0
  138.7320  155.5850  132.9510 O   0  0  0  0  0  0  0  0  0  0  0  0
  140.5280  157.5590  134.9980 C   0  0  0  0  0  0  0  0  0  0  0  0
  140.8350  156.7030  136.0640 C   0  0  0  0  0  0  0  0  0  0  0  0
  140.1040  154.4920  139.3040 C   0  0  0  0  0  0  0  0  0  0  0  0
  140.6210  153.6300  140.4690 C   0  0  0  0  0  0  0  0  0  0  0  0
  140.3531  150.8783  140.8903 H   0  0  0  0  0  0  0  0  0  0  0  0
  139.6876  151.4971  139.3408 H   0  0  0  0  0  0  0  0  0  0  0  0
  141.1742  150.4889  139.3408 H   0  0  0  0  0  0  0  0  0  0  0  0
  143.1748  152.1434  138.8726 H   0  0  0  0  0  0  0  0  0  0  0  0
  141.6312  152.3526  137.9341 H   0  0  0  0  0  0  0  0  0  0  0  0
  143.0707  154.5795  139.4494 H   0  0  0  0  0  0  0  0  0  0  0  0
  143.1876  154.2892  137.6804 H   0  0  0  0  0  0  0  0  0  0  0  0
  140.8957  154.7400  137.3308 H   0  0  0  0  0  0  0  0  0  0  0  0
  141.5872  156.5592  140.5451 H   0  0  0  0  0  0  0  0  0  0  0  0
  143.1163  156.8865  139.6610 H   0  0  0  0  0  0  0  0  0  0  0  0
  141.7997  158.1084  139.6610 H   0  0  0  0  0  0  0  0  0  0  0  0
  141.3905  159.1259  138.4467 H   0  0  0  0  0  0  0  0  0  0  0  0
  140.8789  160.6127  136.4852 H   0  0  0  0  0  0  0  0  0  0  0  0
  140.1864  160.5715  133.7216 H   0  0  0  0  0  0  0  0  0  0  0  0
  138.3290  158.0500  130.1010 H   0  0  0  0  0  0  0  0  0  0  0  0
  138.0770  157.1920  131.6630 H   0  0  0  0  0  0  0  0  0  0  0  0
  141.8650  155.2610  132.5450 H   0  0  0  0  0  0  0  0  0  0  0  0
  140.8312  155.6116  135.9264 H   0  0  0  0  0  0  0  0  0  0  0  0
  139.6031  155.3791  139.7189 H   0  0  0  0  0  0  0  0  0  0  0  0
  139.4137  153.8709  138.7143 H   0  0  0  0  0  0  0  0  0  0  0  0
  141.2430  154.2604  141.1215 H   0  0  0  0  0  0  0  0  0  0  0  0
  139.7420  153.2314  140.9967 H   0  0  0  0  0  0  0  0  0  0  0  0
  1  2  1  0
  2  3  1  0
  3  4  1  0
  4  5  1  0
  5  6  1  0
  6  7  1  0
  6  8  1  0
  8  9  2  0
  9 10  1  0
 10 11  2  0
 11 12  1  0
 12 13  2  0
 13 14  1  0
 14 15  1  0
 14 16  2  0
 13 17  1  0
 17 18  1  0
 18 19  1  0
 18 20  2  0
 17 21  1  0
 21 22  2  0
  5 23  1  0
 23 24  1  0
 24  2  1  0
 22  8  1  0
 21 11  1  0
  1 25  1  0
  1 26  1  0
  1 27  1  0
  3 28  1  0
  3 29  1  0
  4 30  1  0
  4 31  1  0
  5 32  1  0
  7 33  1  0
  7 34  1  0
  7 35  1  0
  9 36  1  0
 10 37  1  0
 12 38  1  0
 15 39  1  0
 15 40  1  0
 19 41  1  0
 22 42  1  0
 23 43  1  0
 23 44  1  0
 24 45  1  0
 24 46  1  0
M  CHG  1  19  -1
M  END
>  <UniqueID>  (44) 
44

>  <SMILES>  (44) 
CN1CCC(N(C)c2ccc3cc(C(N)=O)n(C([NH-])=O)c3c2)CC1

>  <Energy>  (44) 
101.67142918980959

>  <Genealogy>  (44) 
CN1CCC(N(C)c2ccc3cc(C(N)=O)n(C([NH-])=O)c3c2)CC1 (protonated)
CN1CCC(N(C)c2ccc3cc(C(N)=O)n(C([NH-])=O)c3c2)CC1 (3D coordinates assigned)
CN1CCC(N(C)c2ccc3cc(C(N)=O)n(C([NH-])=O)c3c2)CC1 (nonaromatic ring conformer: 101.67142918980959 kcal/mol)

>  <smiles>  (44) 
CN1CCC(N(C)c2ccc3cc(C(N)=O)n(C(N)=O)c3c2)CC1

>  <score_type>  (44) 
oracle

>  <origin>  (44) 
adg

>  <m_score__min__energy>  (44) 
-8.3499999999999996

>  <m_primary>  (44) 
energy

$$$$
44:0
     RDKit          3D

 45 47  0  0  0  0  0  0  0  0999 V2000
  137.7840  160.0910  130.7680 C   0  0  0  0  0  0  0  0  0  0  0  0
  139.2660  159.7220  130.7530 C   0  0  0  0  0  0  0  0  0  0  0  0
  139.6000  158.7160  131.8620 C   0  0  0  0  0  0  0  0  0  0  0  0
  138.3370  158.2460  132.5960 C   0  0  0  0  0  0  0  0  0  0  0  0
  138.6490  157.1930  133.5590 N   0  0  0  0  0  0  0  0  0  0  0  0
  139.5530  157.3760  134.6580 C   0  0  0  0  0  0  0  0  0  0  0  0
  139.1060  157.5040  135.8300 O   0  0  0  0  0  0  0  0  0  0  0  0
  140.9650  157.4760  134.4140 N   0  0  0  0  0  0  0  0  0  0  0  0
  141.7900  158.5170  134.7140 C   0  0  0  0  0  0  0  0  0  0  0  0
  141.3590  159.8560  135.1540 C   0  0  0  0  0  0  0  0  0  0  0  0
  140.6170  160.0180  136.3600 N   0  0  0  0  0  0  0  0  0  0  0  0
  141.6000  160.8620  134.4320 O   0  0  0  0  0  0  0  0  0  0  0  0
  143.1160  158.1860  134.4440 C   0  0  0  0  0  0  0  0  0  0  0  0
  143.0760  156.9000  133.9530 C   0  0  0  0  0  0  0  0  0  0  0  0
  144.1090  156.0760  133.5170 C   0  0  0  0  0  0  0  0  0  0  0  0
  143.7780  154.7860  133.0650 C   0  0  0  0  0  0  0  0  0  0  0  0
  142.4320  154.3400  133.0630 C   0  0  0  0  0  0  0  0  0  0  0  0
  142.1050  152.9450  132.5560 C   0  0  2  0  0  0  0  0  0  0  0  0
  140.7590  152.4470  133.0150 C   0  0  0  0  0  0  0  0  0  0  0  0
  140.9860  150.9580  133.1380 C   0  0  0  0  0  0  0  0  0  0  0  0
  142.3420  150.7260  133.4420 O   0  0  0  0  0  0  0  0  0  0  0  0
  143.0720  151.8660  133.0440 C   0  0  0  0  0  0  0  0  0  0  0  0
  141.4110  155.2120  133.5160 C   0  0  0  0  0  0  0  0  0  0  0  0
  141.7670  156.4950  133.9440 C   0  0  0  0  0  0  0  0  0  0  0  0
  137.4381  160.1771  131.8086 H   0  0  0  0  0  0  0  0  0  0  0  0
  137.6403  161.0524  130.2531 H   0  0  0  0  0  0  0  0  0  0  0  0
  137.2063  159.3093  130.2531 H   0  0  0  0  0  0  0  0  0  0  0  0
  139.5148  159.2769  129.7783 H   0  0  0  0  0  0  0  0  0  0  0  0
  139.8536  160.6360  130.9242 H   0  0  0  0  0  0  0  0  0  0  0  0
  140.0986  157.8435  131.4145 H   0  0  0  0  0  0  0  0  0  0  0  0
  140.2574  159.2125  132.5909 H   0  0  0  0  0  0  0  0  0  0  0  0
  137.8925  159.0996  133.1286 H   0  0  0  0  0  0  0  0  0  0  0  0
  137.6317  157.8430  131.8543 H   0  0  0  0  0  0  0  0  0  0  0  0
  139.7410  159.4770  136.5250 H   0  0  0  0  0  0  0  0  0  0  0  0
  144.0049  158.8170  134.5915 H   0  0  0  0  0  0  0  0  0  0  0  0
  145.1528  156.4230  133.5256 H   0  0  0  0  0  0  0  0  0  0  0  0
  144.5732  154.1147  132.7086 H   0  0  0  0  0  0  0  0  0  0  0  0
  142.1570  153.0799  131.4655 H   0  0  0  0  0  0  0  0  0  0  0  0
  140.4810  152.8881  133.9836 H   0  0  0  0  0  0  0  0  0  0  0  0
  139.9377  152.7106  132.3324 H   0  0  0  0  0  0  0  0  0  0  0  0
  140.3531  150.5533  133.9415 H   0  0  0  0  0  0  0  0  0  0  0  0
  140.7266  150.4623  132.1909 H   0  0  0  0  0  0  0  0  0  0  0  0
  143.6482  152.2494  133.8990 H   0  0  0  0  0  0  0  0  0  0  0  0
  143.7605  151.5950  132.2300 H   0  0  0  0  0  0  0  0  0  0  0  0
  140.3603  154.8866  133.5307 H   0  0  0  0  0  0  0  0  0  0  0  0
  1  2  1  0
  2  3  1  0
  3  4  1  0
  4  5  1  0
  5  6  1  0
  6  7  2  0
  6  8  1  0
  8  9  1  0
  9 10  1  0
 10 11  1  0
 10 12  2  0
  9 13  2  0
 13 14  1  0
 14 15  2  0
 15 16  1  0
 16 17  2  0
 17 18  1  0
 18 19  1  0
 19 20  1  0
 20 21  1  0
 21 22  1  0
 17 23  1  0
 23 24  2  0
 24  8  1  0
 24 14  1  0
 22 18  1  0
  1 25  1  0
  1 26  1  0
  1 27  1  0
  2 28  1  0
  2 29  1  0
  3 30  1  0
  3 31  1  0
  4 32  1  0
  4 33  1  0
 11 34  1  0
 13 35  1  0
 15 36  1  0
 16 37  1  0
 18 38  1  6
 19 39  1  0
 19 40  1  0
 20 41  1  0
 20 42  1  0
 22 43  1  0
 22 44  1  0
 23 45  1  0
M  CHG  2   5  -1  11  -1
M  END
>  <UniqueID>  (45) 
45

>  <SMILES>  (45) 
CCCC[N-]C(=O)n1c(C([NH-])=O)cc2ccc([C@@H]3CCOC3)cc21

>  <Energy>  (45) 
79.84973879622044

>  <Genealogy>  (45) 
CCCC[N-]C(=O)n1c(C([NH-])=O)cc2ccc(C3CCOC3)cc21 (protonated)
CCCC[N-]C(=O)n1c(C([NH-])=O)cc2ccc([C@@H]3CCOC3)cc21 (chirality)
CCCC[N-]C(=O)n1c(C([NH-])=O)cc2ccc([C@@H]3CCOC3)cc21 (3D coordinates assigned)
CCCC[N-]C(=O)n1c(C([NH-])=O)cc2ccc([C@@H]3CCOC3)cc21 (nonaromatic ring conformer: 79.84973879622044 kcal/mol)

>  <smiles>  (45) 
CCCCNC(=O)n1c(C(N)=O)cc2ccc(C3CCOC3)cc21

>  <score_type>  (45) 
oracle

>  <origin>  (45) 
adg

>  <m_score__min__energy>  (45) 
-8.2599999999999998

>  <m_primary>  (45) 
energy

$$$$
45:0
     RDKit          3D

 36 37  0  0  0  0  0  0  0  0999 V2000
  139.4810  159.3880  131.0090 C   0  0  0  0  0  0  0  0  0  0  0  0
  140.0060  158.4900  131.9620 O   0  0  0  0  0  0  0  0  0  0  0  0
  139.2790  158.5730  133.1720 C   0  0  0  0  0  0  0  0  0  0  0  0
  139.1250  157.1930  133.8200 C   0  0  0  0  0  0  0  0  0  0  0  0
  140.3380  156.4490  133.7180 O   0  0  0  0  0  0  0  0  0  0  0  0
  140.4320  155.2030  133.0870 C   0  0  0  0  0  0  0  0  0  0  0  0
  139.4030  154.6490  132.6120 O   0  0  0  0  0  0  0  0  0  0  0  0
  141.7070  154.5490  132.9880 N   0  0  0  0  0  0  0  0  0  0  0  0
  142.9390  155.1320  132.9850 C   0  0  0  0  0  0  0  0  0  0  0  0
  143.1990  156.5870  132.9220 C   0  0  0  0  0  0  0  0  0  0  0  0
  142.2440  157.4740  132.3350 N   0  0  0  0  0  0  0  0  0  0  0  0
  144.2550  157.0630  133.4160 O   0  0  0  0  0  0  0  0  0  0  0  0
  143.9380  154.1600  132.9560 C   0  0  0  0  0  0  0  0  0  0  0  0
  143.2730  152.9550  132.9410 C   0  0  0  0  0  0  0  0  0  0  0  0
  143.7760  151.6580  132.9130 C   0  0  0  0  0  0  0  0  0  0  0  0
  142.8570  150.5950  132.9270 C   0  0  0  0  0  0  0  0  0  0  0  0
  141.4620  150.8430  132.9940 C   0  0  0  0  0  0  0  0  0  0  0  0
  140.4840  149.6940  132.9730 C   0  0  0  0  0  0  0  0  0  0  0  0
  140.2200  149.2530  134.2580 F   0  0  0  0  0  0  0  0  0  0  0  0
  139.2880  150.0820  132.3940 F   0  0  0  0  0  0  0  0  0  0  0  0
  141.0230  148.6530  132.2400 F   0  0  0  0  0  0  0  0  0  0  0  0
  140.9910  152.1770  132.9960 C   0  0  0  0  0  0  0  0  0  0  0  0
  141.9290  153.2160  132.9630 C   0  0  0  0  0  0  0  0  0  0  0  0
  138.9910  160.2262  131.5260 H   0  0  0  0  0  0  0  0  0  0  0  0
  140.2967  159.7723  130.3790 H   0  0  0  0  0  0  0  0  0  0  0  0
  138.7460  158.8657  130.3790 H   0  0  0  0  0  0  0  0  0  0  0  0
  139.8127  159.2383  133.8666 H   0  0  0  0  0  0  0  0  0  0  0  0
  138.2767  158.9683  132.9504 H   0  0  0  0  0  0  0  0  0  0  0  0
  138.8674  157.3196  134.8819 H   0  0  0  0  0  0  0  0  0  0  0  0
  138.3286  156.6438  133.2966 H   0  0  0  0  0  0  0  0  0  0  0  0
  141.3840  157.1130  131.8680 H   0  0  0  0  0  0  0  0  0  0  0  0
  142.4190  158.5030  132.3310 H   0  0  0  0  0  0  0  0  0  0  0  0
  145.0260  154.3217  132.9470 H   0  0  0  0  0  0  0  0  0  0  0  0
  144.8594  151.4705  132.8809 H   0  0  0  0  0  0  0  0  0  0  0  0
  143.2236  149.5587  132.8855 H   0  0  0  0  0  0  0  0  0  0  0  0
  139.9127  152.3930  133.0229 H   0  0  0  0  0  0  0  0  0  0  0  0
  1  2  1  0
  2  3  1  0
  3  4  1  0
  4  5  1  0
  5  6  1  0
  6  7  2  0
  6  8  1  0
  8  9  1  0
  9 10  1  0
 10 11  1  0
 10 12  2  0
  9 13  2  0
 13 14  1  0
 14 15  2  0
 15 16  1  0
 16 17  2  0
 17 18  1  0
 18 19  1  0
 18 20  1  0
 18 21  1  0
 17 22  1  0
 22 23  2  0
 23  8  1  0
 23 14  1  0
  1 24  1  0
  1 25  1  0
  1 26  1  0
  3 27  1  0
  3 28  1  0
  4 29  1  0
  4 30  1  0
 11 31  1  0
 11 32  1  0
 13 33  1  0
 15 34  1  0
 16 35  1  0
 22 36  1  0
M  END
>  <UniqueID>  (46) 
46

>  <SMILES>  (46) 
COCCOC(=O)n1c(C(N)=O)cc2ccc(C(F)(F)F)cc21

>  <Energy>  (46) 
74.37569212164385

>  <Genealogy>  (46) 
COCCOC(=O)n1c(C(N)=O)cc2ccc(C(F)(F)F)cc21 (3D coordinates assigned)
COCCOC(=O)n1c(C(N)=O)cc2ccc(C(F)(F)F)cc21 (optimized conformer: 74.37569212164385 kcal/mol)

>  <smiles>  (46) 
COCCOC(=O)n1c(C(N)=O)cc2ccc(C(F)(F)F)cc21

>  <score_type>  (46) 
oracle

>  <origin>  (46) 
adg

>  <m_score__min__energy>  (46) 
-6.0599999999999996

>  <m_primary>  (46) 
energy

$$$$
46:0
     RDKit          3D

 45 47  0  0  0  0  0  0  0  0999 V2000
  147.0100  155.7170  134.1190 C   0  0  0  0  0  0  0  0  0  0  0  0
  146.9140  156.5910  132.9090 C   0  0  0  0  0  0  0  0  0  0  0  0
  146.9960  156.0680  131.7650 O   0  0  0  0  0  0  0  0  0  0  0  0
  146.7220  158.0080  133.0350 N   0  0  0  0  0  0  0  0  0  0  0  0
  147.6000  158.9970  132.7010 C   0  0  0  0  0  0  0  0  0  0  0  0
  148.9900  158.7980  132.2400 C   0  0  0  0  0  0  0  0  0  0  0  0
  149.5440  157.4850  132.2000 N   0  0  0  0  0  0  0  0  0  0  0  0
  149.6890  159.7730  131.8580 O   0  0  0  0  0  0  0  0  0  0  0  0
  147.0260  160.2490  132.9080 C   0  0  0  0  0  0  0  0  0  0  0  0
  145.7580  159.9960  133.3810 C   0  0  0  0  0  0  0  0  0  0  0  0
  144.7440  160.8780  133.7400 C   0  0  0  0  0  0  0  0  0  0  0  0
  143.5190  160.3360  134.1630 C   0  0  0  0  0  0  0  0  0  0  0  0
  143.3220  158.9320  134.2000 C   0  0  0  0  0  0  0  0  0  0  0  0
  141.9890  158.3640  134.6300 C   0  0  0  0  0  0  0  0  0  0  0  0
  140.7540  159.0810  134.0240 C   0  0  0  0  0  0  0  0  0  0  0  0
  141.0210  159.6380  132.6060 C   0  0  0  0  0  0  0  0  0  0  0  0
  139.6970  159.9180  131.8890 C   0  0  0  0  0  0  0  0  0  0  0  0
  138.9230  158.6720  131.6610 N   0  0  0  0  0  0  0  0  0  0  0  0
  137.5010  158.9820  131.4510 C   0  0  0  0  0  0  0  0  0  0  0  0
  139.1030  157.6350  132.7120 C   0  0  0  0  0  0  0  0  0  0  0  0
  139.4550  158.2340  134.0830 C   0  0  0  0  0  0  0  0  0  0  0  0
  144.3860  158.0700  133.8490 C   0  0  0  0  0  0  0  0  0  0  0  0
  145.5980  158.6370  133.4460 C   0  0  0  0  0  0  0  0  0  0  0  0
  146.9419  156.3367  135.0253 H   0  0  0  0  0  0  0  0  0  0  0  0
  146.1865  154.9877  134.1108 H   0  0  0  0  0  0  0  0  0  0  0  0
  147.9721  155.1838  134.1108 H   0  0  0  0  0  0  0  0  0  0  0  0
  149.0590  156.7130  131.6920 H   0  0  0  0  0  0  0  0  0  0  0  0
  147.4878  161.2316  132.7311 H   0  0  0  0  0  0  0  0  0  0  0  0
  144.8967  161.9664  133.6941 H   0  0  0  0  0  0  0  0  0  0  0  0
  142.7036  161.0079  134.4689 H   0  0  0  0  0  0  0  0  0  0  0  0
  141.9536  157.3067  134.3286 H   0  0  0  0  0  0  0  0  0  0  0  0
  141.9274  158.5054  135.7191 H   0  0  0  0  0  0  0  0  0  0  0  0
  140.5777  159.9482  134.6774 H   0  0  0  0  0  0  0  0  0  0  0  0
  141.5959  160.5725  132.6851 H   0  0  0  0  0  0  0  0  0  0  0  0
  141.5905  158.8939  132.0298 H   0  0  0  0  0  0  0  0  0  0  0  0
  139.0961  160.6036  132.5046 H   0  0  0  0  0  0  0  0  0  0  0  0
  139.9246  160.3648  130.9100 H   0  0  0  0  0  0  0  0  0  0  0  0
  137.0017  159.0908  132.4251 H   0  0  0  0  0  0  0  0  0  0  0  0
  137.4101  159.9211  130.8854 H   0  0  0  0  0  0  0  0  0  0  0  0
  137.0275  158.1660  130.8854 H   0  0  0  0  0  0  0  0  0  0  0  0
  138.1674  157.0644  132.8071 H   0  0  0  0  0  0  0  0  0  0  0  0
  139.9418  156.9931  132.4049 H   0  0  0  0  0  0  0  0  0  0  0  0
  138.6258  158.8761  134.4148 H   0  0  0  0  0  0  0  0  0  0  0  0
  139.6184  157.4049  134.7872 H   0  0  0  0  0  0  0  0  0  0  0  0
  144.2627  156.9778  133.8921 H   0  0  0  0  0  0  0  0  0  0  0  0
  1  2  1  0
  2  3  2  0
  2  4  1  0
  4  5  1  0
  5  6  1  0
  6  7  1  0
  6  8  2  0
  5  9  2  0
  9 10  1  0
 10 11  2  0
 11 12  1  0
 12 13  2  0
 13 14  1  0
 14 15  1  0
 15 16  1  0
 16 17  1  0
 17 18  1  0
 18 19  1  0
 18 20  1  0
 20 21  1  0
 13 22  1  0
 22 23  2  0
 23  4  1  0
 23 10  1  0
 21 15  1  0
  1 24  1  0
  1 25  1  0
  1 26  1  0
  7 27  1  0
  9 28  1  0
 11 29  1  0
 12 30  1  0
 14 31  1  0
 14 32  1  0
 15 33  1  0
 16 34  1  0
 16 35  1  0
 17 36  1  0
 17 37  1  0
 19 38  1  0
 19 39  1  0
 19 40  1  0
 20 41  1  0
 20 42  1  0
 21 43  1  0
 21 44  1  0
 22 45  1  0
M  CHG  1   7  -1
M  END
>  <UniqueID>  (47) 
47

>  <SMILES>  (47) 
CC(=O)n1c(C([NH-])=O)cc2ccc(CC3CCN(C)CC3)cc21

>  <Energy>  (47) 
91.08028669517037

>  <Genealogy>  (47) 
CC(=O)n1c(C([NH-])=O)cc2ccc(CC3CCN(C)CC3)cc21 (protonated)
CC(=O)n1c(C([NH-])=O)cc2ccc(CC3CCN(C)CC3)cc21 (3D coordinates assigned)
CC(=O)n1c(C([NH-])=O)cc2ccc(CC3CCN(C)CC3)cc21 (nonaromatic ring conformer: 91.08028669517037 kcal/mol)

>  <smiles>  (47) 
CC(=O)n1c(C(N)=O)cc2ccc(CC3CCN(C)CC3)cc21

>  <score_type>  (47) 
oracle

>  <origin>  (47) 
adg

>  <m_score__min__energy>  (47) 
-8.0600000000000005

>  <m_primary>  (47) 
energy

$$$$
47:0
     RDKit          3D

 39 41  0  0  0  0  0  0  0  0999 V2000
  142.0900  154.2250  134.6000 C   0  0  0  0  0  0  0  0  0  0  0  0
  142.2360  155.6550  134.8880 N   0  0  0  0  0  0  0  0  0  0  0  0
  142.1400  156.1510  136.2640 C   0  0  0  0  0  0  0  0  0  0  0  0
  142.5390  156.5650  133.8140 C   0  0  0  0  0  0  0  0  0  0  0  0
  142.8710  156.1210  132.6820 O   0  0  0  0  0  0  0  0  0  0  0  0
  142.4670  157.9840  134.0140 N   0  0  0  0  0  0  0  0  0  0  0  0
  141.4030  158.7090  134.4560 C   0  0  0  0  0  0  0  0  0  0  0  0
  140.0590  158.1700  134.7470 C   0  0  0  0  0  0  0  0  0  0  0  0
  139.5720  158.1590  136.0870 N   0  0  0  0  0  0  0  0  0  0  0  0
  139.3280  157.7270  133.8210 O   0  0  0  0  0  0  0  0  0  0  0  0
  141.7470  160.0550  134.5680 C   0  0  0  0  0  0  0  0  0  0  0  0
  143.0690  160.1270  134.1840 C   0  0  0  0  0  0  0  0  0  0  0  0
  143.9280  161.2180  134.1170 C   0  0  0  0  0  0  0  0  0  0  0  0
  145.2520  160.9900  133.7040 C   0  0  0  0  0  0  0  0  0  0  0  0
  145.6990  159.6820  133.3710 C   0  0  0  0  0  0  0  0  0  0  0  0
  147.1010  159.4530  132.9380 C   0  0  0  0  0  0  0  0  0  0  0  0
  148.0590  158.6540  133.5480 C   0  0  0  0  0  0  0  0  0  0  0  0
  149.2030  158.7040  132.8380 N   0  0  0  0  0  0  0  0  0  0  0  0
  149.0030  159.5180  131.8150 N   0  0  0  0  0  0  0  0  0  0  0  0
  149.9940  159.7830  130.7810 C   0  0  0  0  0  0  0  0  0  0  0  0
  147.7410  159.9820  131.8310 C   0  0  0  0  0  0  0  0  0  0  0  0
  144.7910  158.6000  133.4570 C   0  0  0  0  0  0  0  0  0  0  0  0
  143.4780  158.8610  133.8580 C   0  0  0  0  0  0  0  0  0  0  0  0
  142.0328  153.6647  135.5449 H   0  0  0  0  0  0  0  0  0  0  0  0
  141.1703  154.0599  134.0195 H   0  0  0  0  0  0  0  0  0  0  0  0
  142.9573  153.8775  134.0195 H   0  0  0  0  0  0  0  0  0  0  0  0
  142.3010  155.3193  136.9656 H   0  0  0  0  0  0  0  0  0  0  0  0
  142.9053  156.9236  136.4295 H   0  0  0  0  0  0  0  0  0  0  0  0
  141.1417  156.5823  136.4295 H   0  0  0  0  0  0  0  0  0  0  0  0
  139.1100  159.0000  136.4980 H   0  0  0  0  0  0  0  0  0  0  0  0
  141.1010  160.8836  134.8936 H   0  0  0  0  0  0  0  0  0  0  0  0
  143.5821  162.2287  134.3792 H   0  0  0  0  0  0  0  0  0  0  0  0
  145.9524  161.8356  133.6374 H   0  0  0  0  0  0  0  0  0  0  0  0
  147.9074  158.0707  134.4682 H   0  0  0  0  0  0  0  0  0  0  0  0
  150.9547  160.0399  131.2511 H   0  0  0  0  0  0  0  0  0  0  0  0
  150.1199  158.8870  130.1555 H   0  0  0  0  0  0  0  0  0  0  0  0
  149.6558  160.6223  130.1555 H   0  0  0  0  0  0  0  0  0  0  0  0
  147.2947  160.6639  131.0922 H   0  0  0  0  0  0  0  0  0  0  0  0
  145.1116  157.5763  133.2136 H   0  0  0  0  0  0  0  0  0  0  0  0
  1  2  1  0
  2  3  1  0
  2  4  1  0
  4  5  2  0
  4  6  1  0
  6  7  1  0
  7  8  1  0
  8  9  1  0
  8 10  2  0
  7 11  2  0
 11 12  1  0
 12 13  2  0
 13 14  1  0
 14 15  2  0
 15 16  1  0
 16 17  1  0
 17 18  2  0
 18 19  1  0
 19 20  1  0
 19 21  1  0
 15 22  1  0
 22 23  2  0
 23  6  1  0
 23 12  1  0
 21 16  2  0
  1 24  1  0
  1 25  1  0
  1 26  1  0
  3 27  1  0
  3 28  1  0
  3 29  1  0
  9 30  1  0
 11 31  1  0
 13 32  1  0
 14 33  1  0
 17 34  1  0
 20 35  1  0
 20 36  1  0
 20 37  1  0
 21 38  1  0
 22 39  1  0
M  CHG  1   9  -1
M  END
>  <UniqueID>  (48) 
48

>  <SMILES>  (48) 
CN(C)C(=O)n1c(C([NH-])=O)cc2ccc(-c3cnn(C)c3)cc21

>  <Energy>  (48) 
108.56804712189029

>  <Genealogy>  (48) 
CN(C)C(=O)n1c(C([NH-])=O)cc2ccc(-c3cnn(C)c3)cc21 (protonated)
CN(C)C(=O)n1c(C([NH-])=O)cc2ccc(-c3cnn(C)c3)cc21 (3D coordinates assigned)
CN(C)C(=O)n1c(C([NH-])=O)cc2ccc(-c3cnn(C)c3)cc21 (optimized conformer: 108.56804712189029 kcal/mol)

>  <smiles>  (48) 
CN(C)C(=O)n1c(C(N)=O)cc2ccc(-c3cnn(C)c3)cc21

>  <score_type>  (48) 
oracle

>  <origin>  (48) 
adg

>  <m_score__min__energy>  (48) 
-7.25

>  <m_primary>  (48) 
energy

$$$$
48:0
     RDKit          3D

 34 36  0  0  0  0  0  0  0  0999 V2000
  139.3330  157.8290  136.7140 N   0  0  0  0  0  0  0  0  0  0  0  0
  139.6570  158.0620  135.3450 C   0  0  0  0  0  0  0  0  0  0  0  0
  138.7870  157.8410  134.4600 O   0  0  0  0  0  0  0  0  0  0  0  0
  141.0100  158.5000  134.9480 C   0  0  0  0  0  0  0  0  0  0  0  0
  141.3850  159.8390  134.8590 C   0  0  0  0  0  0  0  0  0  0  0  0
  142.6730  159.8260  134.3740 C   0  0  0  0  0  0  0  0  0  0  0  0
  143.5370  160.8810  134.1030 C   0  0  0  0  0  0  0  0  0  0  0  0
  144.8250  160.5760  133.6380 C   0  0  0  0  0  0  0  0  0  0  0  0
  145.2320  159.2280  133.4580 C   0  0  0  0  0  0  0  0  0  0  0  0
  146.6040  158.9210  132.9790 C   0  0  0  0  0  0  0  0  0  0  0  0
  147.2840  157.7900  133.4600 C   0  0  0  0  0  0  0  0  0  0  0  0
  148.5600  157.5000  132.9830 C   0  0  0  0  0  0  0  0  0  0  0  0
  149.1580  158.3360  132.0430 C   0  0  0  0  0  0  0  0  0  0  0  0
  148.4740  159.4780  131.5970 C   0  0  0  0  0  0  0  0  0  0  0  0
  149.0890  160.3730  130.5500 C   0  0  0  0  0  0  0  0  0  0  0  0
  150.4460  160.1210  130.4800 F   0  0  0  0  0  0  0  0  0  0  0  0
  148.8920  161.7070  130.8630 F   0  0  0  0  0  0  0  0  0  0  0  0
  148.5210  160.1290  129.3130 F   0  0  0  0  0  0  0  0  0  0  0  0
  147.2110  159.7270  132.0580 N   0  0  0  0  0  0  0  0  0  0  0  0
  144.3220  158.1820  133.7470 C   0  0  0  0  0  0  0  0  0  0  0  0
  143.0380  158.5170  134.1910 C   0  0  0  0  0  0  0  0  0  0  0  0
  142.0290  157.6890  134.5440 N   0  0  0  0  0  0  0  0  0  0  0  0
  142.0750  156.2540  134.5750 C   0  0  0  0  0  0  0  0  0  0  0  0
  141.3050  155.5770  133.8450 O   0  0  0  0  0  0  0  0  0  0  0  0
  142.9900  155.6000  135.3910 O   0  0  0  0  0  0  0  0  0  0  0  0
  139.1100  158.6210  137.3560 H   0  0  0  0  0  0  0  0  0  0  0  0
  140.7800  160.7196  135.1208 H   0  0  0  0  0  0  0  0  0  0  0  0
  143.2200  161.9242  134.2489 H   0  0  0  0  0  0  0  0  0  0  0  0
  145.5278  161.3910  133.4102 H   0  0  0  0  0  0  0  0  0  0  0  0
  146.8116  157.1373  134.2089 H   0  0  0  0  0  0  0  0  0  0  0  0
  149.0952  156.6112  133.3484 H   0  0  0  0  0  0  0  0  0  0  0  0
  150.1597  158.1029  131.6527 H   0  0  0  0  0  0  0  0  0  0  0  0
  146.7040  160.5710  131.7070 H   0  0  0  0  0  0  0  0  0  0  0  0
  144.6180  157.1296  133.6251 H   0  0  0  0  0  0  0  0  0  0  0  0
  1  2  1  0
  2  3  2  0
  2  4  1  0
  4  5  2  0
  5  6  1  0
  6  7  2  0
  7  8  1  0
  8  9  2  0
  9 10  1  0
 10 11  2  0
 11 12  1  0
 12 13  2  0
 13 14  1  0
 14 15  1  0
 15 16  1  0
 15 17  1  0
 15 18  1  0
 14 19  2  0
  9 20  1  0
 20 21  2  0
 21 22  1  0
 22 23  1  0
 23 24  2  0
 23 25  1  0
 22  4  1  0
 21  6  1  0
 19 10  1  0
  1 26  1  0
  5 27  1  0
  7 28  1  0
  8 29  1  0
 11 30  1  0
 12 31  1  0
 13 32  1  0
 19 33  1  0
 20 34  1  0
M  CHG  3   1  -1  19   1  25  -1
M  END
>  <UniqueID>  (49) 
49

>  <SMILES>  (49) 
[NH-]C(=O)c1cc2ccc(-c3cccc(C(F)(F)F)[nH+]3)cc2n1C(=O)[O-]

>  <Energy>  (49) 
82.25042249275623

>  <Genealogy>  (49) 
[NH-]C(=O)c1cc2ccc(-c3cccc(C(F)(F)F)[nH+]3)cc2n1C(=O)[O-] (protonated)
[NH-]C(=O)c1cc2ccc(-c3cccc(C(F)(F)F)[nH+]3)cc2n1C(=O)[O-] (3D coordinates assigned)
[NH-]C(=O)c1cc2ccc(-c3cccc(C(F)(F)F)[nH+]3)cc2n1C(=O)[O-] (optimized conformer: 82.25042249275623 kcal/mol)

>  <smiles>  (49) 
NC(=O)c1cc2ccc(-c3cccc(C(F)(F)F)n3)cc2n1C(=O)O

>  <score_type>  (49) 
oracle

>  <origin>  (49) 
adg

>  <m_score__min__energy>  (49) 
-7.1799999999999997

>  <m_primary>  (49) 
energy

$$$$
49:0
     RDKit          3D

 45 48  0  0  0  0  0  0  0  0999 V2000
  142.4410  161.1280  133.7360 N   0  0  0  0  0  0  0  0  0  0  0  0
  143.8580  161.2810  133.7360 C   0  0  0  0  0  0  0  0  0  0  0  0
  144.3530  162.4380  133.7230 O   0  0  0  0  0  0  0  0  0  0  0  0
  144.7260  160.0840  133.7050 C   0  0  0  0  0  0  0  0  0  0  0  0
  146.1000  160.1400  133.4840 C   0  0  0  0  0  0  0  0  0  0  0  0
  146.5440  158.8450  133.6200 C   0  0  0  0  0  0  0  0  0  0  0  0
  147.8260  158.3200  133.4930 C   0  0  0  0  0  0  0  0  0  0  0  0
  147.9910  156.9360  133.6600 C   0  0  0  0  0  0  0  0  0  0  0  0
  146.8780  156.0990  133.9440 C   0  0  0  0  0  0  0  0  0  0  0  0
  147.0510  154.6000  134.1020 C   0  0  2  0  0  0  0  0  0  0  0  0
  148.4640  154.1230  133.7640 C   0  0  0  0  0  0  0  0  0  0  0  0
  148.2920  153.1540  132.6070 C   0  0  0  0  0  0  0  0  0  0  0  0
  146.9040  152.6990  132.6250 N   0  0  0  0  0  0  0  0  0  0  0  0
  146.1210  153.8030  133.1810 C   0  0  0  0  0  0  0  0  0  0  0  0
  145.5900  156.6720  134.0610 C   0  0  0  0  0  0  0  0  0  0  0  0
  145.4600  158.0570  133.9080 C   0  0  0  0  0  0  0  0  0  0  0  0
  144.3350  158.8030  133.9600 N   0  0  0  0  0  0  0  0  0  0  0  0
  143.0040  158.3090  134.1780 C   0  0  0  0  0  0  0  0  0  0  0  0
  142.5320  158.2700  135.3470 O   0  0  0  0  0  0  0  0  0  0  0  0
  142.2520  157.8470  133.0890 O   0  0  0  0  0  0  0  0  0  0  0  0
  140.9230  158.1980  132.8130 C   0  0  0  0  0  0  0  0  0  0  0  0
  140.5820  159.1140  131.7980 C   0  0  0  0  0  0  0  0  0  0  0  0
  139.2410  159.4210  131.5500 C   0  0  0  0  0  0  0  0  0  0  0  0
  138.2310  158.8120  132.3000 C   0  0  0  0  0  0  0  0  0  0  0  0
  138.5620  157.8880  133.2950 C   0  0  0  0  0  0  0  0  0  0  0  0
  139.9020  157.5790  133.5450 C   0  0  0  0  0  0  0  0  0  0  0  0
  142.0020  160.1930  133.8890 H   0  0  0  0  0  0  0  0  0  0  0  0
  146.7022  161.0304  133.2504 H   0  0  0  0  0  0  0  0  0  0  0  0
  148.6846  158.9699  133.2685 H   0  0  0  0  0  0  0  0  0  0  0  0
  148.9942  156.4938  133.5699 H   0  0  0  0  0  0  0  0  0  0  0  0
  146.8185  154.4215  135.1622 H   0  0  0  0  0  0  0  0  0  0  0  0
  149.0964  154.9720  133.4652 H   0  0  0  0  0  0  0  0  0  0  0  0
  148.9551  153.6495  134.6269 H   0  0  0  0  0  0  0  0  0  0  0  0
  148.5097  153.6612  131.6555 H   0  0  0  0  0  0  0  0  0  0  0  0
  148.9823  152.3032  132.7052 H   0  0  0  0  0  0  0  0  0  0  0  0
  146.8180  151.8600  133.2450 H   0  0  0  0  0  0  0  0  0  0  0  0
  146.5790  152.4610  131.6590 H   0  0  0  0  0  0  0  0  0  0  0  0
  145.7503  154.4477  132.3705 H   0  0  0  0  0  0  0  0  0  0  0  0
  145.2518  153.4232  133.7380 H   0  0  0  0  0  0  0  0  0  0  0  0
  144.7111  156.0436  134.2674 H   0  0  0  0  0  0  0  0  0  0  0  0
  141.3732  159.5888  131.1992 H   0  0  0  0  0  0  0  0  0  0  0  0
  138.9800  160.1436  130.7627 H   0  0  0  0  0  0  0  0  0  0  0  0
  137.1767  159.0597  132.1074 H   0  0  0  0  0  0  0  0  0  0  0  0
  137.7675  157.4037  133.8817 H   0  0  0  0  0  0  0  0  0  0  0  0
  140.1566  156.8439  134.3227 H   0  0  0  0  0  0  0  0  0  0  0  0
  1  2  1  0
  2  3  2  0
  2  4  1  0
  4  5  2  0
  5  6  1  0
  6  7  2  0
  7  8  1  0
  8  9  2  0
  9 10  1  0
 10 11  1  0
 11 12  1  0
 12 13  1  0
 13 14  1  0
  9 15  1  0
 15 16  2  0
 16 17  1  0
 17 18  1  0
 18 19  2  0
 18 20  1  0
 20 21  1  0
 21 22  2  0
 22 23  1  0
 23 24  2  0
 24 25  1  0
 25 26  2  0
 17  4  1  0
 26 21  1  0
 16  6  1  0
 14 10  1  0
  1 27  1  0
  5 28  1  0
  7 29  1  0
  8 30  1  0
 10 31  1  1
 11 32  1  0
 11 33  1  0
 12 34  1  0
 12 35  1  0
 13 36  1  0
 13 37  1  0
 14 38  1  0
 14 39  1  0
 15 40  1  0
 22 41  1  0
 23 42  1  0
 24 43  1  0
 25 44  1  0
 26 45  1  0
M  CHG  2   1  -1  13   1
M  END
>  <UniqueID>  (50) 
50

>  <SMILES>  (50) 
[NH-]C(=O)c1cc2ccc([C@@H]3CC[NH2+]C3)cc2n1C(=O)Oc1ccccc1

>  <Energy>  (50) 
94.44333669841998

>  <Genealogy>  (50) 
[NH-]C(=O)c1cc2ccc(C3CC[NH2+]C3)cc2n1C(=O)Oc1ccccc1 (protonated)
[NH-]C(=O)c1cc2ccc([C@@H]3CC[NH2+]C3)cc2n1C(=O)Oc1ccccc1 (chirality)
[NH-]C(=O)c1cc2ccc([C@@H]3CC[NH2+]C3)cc2n1C(=O)Oc1ccccc1 (3D coordinates assigned)
[NH-]C(=O)c1cc2ccc([C@@H]3CC[NH2+]C3)cc2n1C(=O)Oc1ccccc1 (nonaromatic ring conformer: 94.44333669841998 kcal/mol)

>  <smiles>  (50) 
NC(=O)c1cc2ccc(C3CCNC3)cc2n1C(=O)Oc1ccccc1

>  <score_type>  (50) 
oracle

>  <origin>  (50) 
adg

>  <m_score__min__energy>  (50) 
-8.2899999999999991

>  <m_primary>  (50) 
energy

$$$$
50:0
     RDKit          3D

 57 60  0  0  0  0  0  0  0  0999 V2000
  139.1840  149.0880  130.6190 C   0  0  0  0  0  0  0  0  0  0  0  0
  139.6530  149.6820  131.9410 C   0  0  0  0  0  0  0  0  0  0  0  0
  140.4430  150.8480  131.7160 O   0  0  0  0  0  0  0  0  0  0  0  0
  141.6950  151.0610  132.3070 C   0  0  0  0  0  0  0  0  0  0  0  0
  142.5950  150.1800  132.2190 O   0  0  0  0  0  0  0  0  0  0  0  0
  141.9640  152.3250  133.0280 C   0  0  0  0  0  0  0  0  0  0  0  0
  141.0060  153.3530  133.0370 C   0  0  0  0  0  0  0  0  0  0  0  0
  141.2550  154.5490  133.7160 C   0  0  0  0  0  0  0  0  0  0  0  0
  142.4690  154.7450  134.3960 C   0  0  0  0  0  0  0  0  0  0  0  0
  142.7300  156.0170  135.1130 C   0  0  0  0  0  0  0  0  0  0  0  0
  142.4460  156.1200  136.3370 O   0  0  0  0  0  0  0  0  0  0  0  0
  143.3390  157.1320  134.4450 N   0  0  0  0  0  0  0  0  0  0  0  0
  142.7530  158.2920  134.0350 C   0  0  0  0  0  0  0  0  0  0  0  0
  141.3460  158.6830  134.2680 C   0  0  0  0  0  0  0  0  0  0  0  0
  140.7390  158.5160  135.5470 N   0  0  0  0  0  0  0  0  0  0  0  0
  140.6770  159.1960  133.3310 O   0  0  0  0  0  0  0  0  0  0  0  0
  143.6850  159.1040  133.3890 C   0  0  0  0  0  0  0  0  0  0  0  0
  144.8690  158.4020  133.4280 C   0  0  0  0  0  0  0  0  0  0  0  0
  146.1260  158.7320  132.9320 C   0  0  0  0  0  0  0  0  0  0  0  0
  147.1670  157.8020  133.1040 C   0  0  0  0  0  0  0  0  0  0  0  0
  146.9390  156.5660  133.7610 C   0  0  0  0  0  0  0  0  0  0  0  0
  148.0870  155.5850  133.9110 C   0  0  2  0  0  0  0  0  0  0  0  0
  148.8780  155.3410  132.6260 C   0  0  0  0  0  0  0  0  0  0  0  0
  148.4480  153.8740  132.6430 C   0  0  1  0  0  0  0  0  0  0  0  0
  149.5760  152.9670  132.8610 N   0  0  0  0  0  0  0  0  0  0  0  0
  149.1130  151.3440  132.4500 S   0  0  0  0  0  0  0  0  0  0  0  0
  147.3610  151.2990  132.1570 C   0  0  0  0  0  0  0  0  0  0  0  0
  149.8340  150.9110  131.2050 O   0  0  0  0  0  0  0  0  0  0  0  0
  149.4490  150.4070  133.5760 O   0  0  0  0  0  0  0  0  0  0  0  0
  147.6670  154.1140  133.9330 C   0  0  0  0  0  0  0  0  0  0  0  0
  145.6430  156.2700  134.2520 C   0  0  0  0  0  0  0  0  0  0  0  0
  144.6310  157.2190  134.0730 C   0  0  0  0  0  0  0  0  0  0  0  0
  143.4250  153.7150  134.3920 C   0  0  0  0  0  0  0  0  0  0  0  0
  143.1750  152.5170  133.7140 C   0  0  0  0  0  0  0  0  0  0  0  0
  138.5134  148.2386  130.8161 H   0  0  0  0  0  0  0  0  0  0  0  0
  138.6451  149.8548  130.0432 H   0  0  0  0  0  0  0  0  0  0  0  0
  140.0549  148.7417  130.0432 H   0  0  0  0  0  0  0  0  0  0  0  0
  138.7758  149.9513  132.5476 H   0  0  0  0  0  0  0  0  0  0  0  0
  140.2654  148.9352  132.4676 H   0  0  0  0  0  0  0  0  0  0  0  0
  140.0528  153.2154  132.5056 H   0  0  0  0  0  0  0  0  0  0  0  0
  140.4943  155.3435  133.7181 H   0  0  0  0  0  0  0  0  0  0  0  0
  141.0520  157.7620  136.1960 H   0  0  0  0  0  0  0  0  0  0  0  0
  143.5112  160.0945  132.9432 H   0  0  0  0  0  0  0  0  0  0  0  0
  146.3004  159.6904  132.4212 H   0  0  0  0  0  0  0  0  0  0  0  0
  148.1721  158.0366  132.7236 H   0  0  0  0  0  0  0  0  0  0  0  0
  148.5741  156.0352  134.7885 H   0  0  0  0  0  0  0  0  0  0  0  0
  148.5103  155.9071  131.7575 H   0  0  0  0  0  0  0  0  0  0  0  0
  149.9432  155.6092  132.5675 H   0  0  0  0  0  0  0  0  0  0  0  0
  147.9634  153.4282  131.7619 H   0  0  0  0  0  0  0  0  0  0  0  0
  146.8285  151.2853  133.1194 H   0  0  0  0  0  0  0  0  0  0  0  0
  147.0619  152.1898  131.5851 H   0  0  0  0  0  0  0  0  0  0  0  0
  147.1080  150.3941  131.5851 H   0  0  0  0  0  0  0  0  0  0  0  0
  146.5827  153.9548  133.8381 H   0  0  0  0  0  0  0  0  0  0  0  0
  147.8548  153.4939  134.8219 H   0  0  0  0  0  0  0  0  0  0  0  0
  145.4378  155.3170  134.7616 H   0  0  0  0  0  0  0  0  0  0  0  0
  144.3770  153.8517  134.9259 H   0  0  0  0  0  0  0  0  0  0  0  0
  143.9324  151.7193  133.7181 H   0  0  0  0  0  0  0  0  0  0  0  0
  1  2  1  0
  2  3  1  0
  3  4  1  0
  4  5  2  0
  4  6  1  0
  6  7  2  0
  7  8  1  0
  8  9  2  0
  9 10  1  0
 10 11  2  0
 10 12  1  0
 12 13  1  0
 13 14  1  0
 14 15  1  0
 14 16  2  0
 13 17  2  0
 17 18  1  0
 18 19  2  0
 19 20  1  0
 20 21  2  0
 21 22  1  0
 22 23  1  0
 23 24  1  0
 24 25  1  0
 25 26  1  0
 26 27  1  0
 26 28  2  0
 26 29  2  0
 24 30  1  0
 21 31  1  0
 31 32  2  0
  9 33  1  0
 33 34  2  0
 34  6  1  0
 32 12  1  0
 32 18  1  0
 30 22  1  0
  1 35  1  0
  1 36  1  0
  1 37  1  0
  2 38  1  0
  2 39  1  0
  7 40  1  0
  8 41  1  0
 15 42  1  0
 17 43  1  0
 19 44  1  0
 20 45  1  0
 22 46  1  1
 23 47  1  0
 23 48  1  0
 24 49  1  6
 27 50  1  0
 27 51  1  0
 27 52  1  0
 30 53  1  0
 30 54  1  0
 31 55  1  0
 33 56  1  0
 34 57  1  0
M  CHG  2  15  -1  25  -1
M  END
>  <UniqueID>  (51) 
51

>  <SMILES>  (51) 
CCOC(=O)c1ccc(C(=O)n2c(C([NH-])=O)cc3ccc(C4CC([N-]S(C)(=O)=O)C4)cc32)cc1

>  <Energy>  (51) 
153.66581660754414

>  <Genealogy>  (51) 
CCOC(=O)c1ccc(C(=O)n2c(C([NH-])=O)cc3ccc(C4CC([N-]S(C)(=O)=O)C4)cc32)cc1 (protonated)
CCOC(=O)c1ccc(C(=O)n2c(C([NH-])=O)cc3ccc(C4CC([N-]S(C)(=O)=O)C4)cc32)cc1 (3D coordinates assigned)
CCOC(=O)c1ccc(C(=O)n2c(C([NH-])=O)cc3ccc(C4CC([N-]S(C)(=O)=O)C4)cc32)cc1 (nonaromatic ring conformer: 153.66581660754414 kcal/mol)

>  <smiles>  (51) 
CCOC(=O)c1ccc(C(=O)n2c(C(N)=O)cc3ccc(C4CC(NS(C)(=O)=O)C4)cc32)cc1

>  <score_type>  (51) 
oracle

>  <origin>  (51) 
adg

>  <m_score__min__energy>  (51) 
-9.9700000000000006

>  <m_primary>  (51) 
energy

$$$$
51:0
     RDKit          3D

 41 43  0  0  0  0  0  0  0  0999 V2000
  146.4090  162.7660  134.5590 N   0  0  0  0  0  0  0  0  0  0  0  0
  145.1130  162.3950  134.0980 C   0  0  0  0  0  0  0  0  0  0  0  0
  144.2800  163.3000  133.8220 O   0  0  0  0  0  0  0  0  0  0  0  0
  144.7240  160.9740  133.9560 C   0  0  0  0  0  0  0  0  0  0  0  0
  143.4260  160.5090  134.1650 C   0  0  0  0  0  0  0  0  0  0  0  0
  143.4860  159.1500  133.9580 C   0  0  0  0  0  0  0  0  0  0  0  0
  142.4780  158.1930  134.0070 C   0  0  0  0  0  0  0  0  0  0  0  0
  142.8180  156.8630  133.7040 C   0  0  0  0  0  0  0  0  0  0  0  0
  144.1470  156.5160  133.3440 C   0  0  0  0  0  0  0  0  0  0  0  0
  144.4920  155.1110  133.0090 C   0  0  0  0  0  0  0  0  0  0  0  0
  143.5180  154.2320  132.5050 C   0  0  0  0  0  0  0  0  0  0  0  0
  143.8400  152.9460  132.2000 N   0  0  0  0  0  0  0  0  0  0  0  0
  145.1020  152.4670  132.3710 C   0  0  0  0  0  0  0  0  0  0  0  0
  146.1090  153.3000  132.8700 C   0  0  0  0  0  0  0  0  0  0  0  0
  147.4370  152.8010  133.0570 N   0  0  0  0  0  0  0  0  0  0  0  0
  145.7980  154.6270  133.1900 C   0  0  0  0  0  0  0  0  0  0  0  0
  145.1400  157.5240  133.3010 C   0  0  0  0  0  0  0  0  0  0  0  0
  144.7780  158.8320  133.6370 C   0  0  0  0  0  0  0  0  0  0  0  0
  145.5530  159.9390  133.6410 N   0  0  0  0  0  0  0  0  0  0  0  0
  146.9580  159.9950  133.3460 C   0  0  0  0  0  0  0  0  0  0  0  0
  147.3900  160.8570  132.5350 O   0  0  0  0  0  0  0  0  0  0  0  0
  147.9270  159.0700  134.0310 C   0  0  0  0  0  0  0  0  0  0  0  0
  148.4380  157.9780  133.0830 C   0  0  0  0  0  0  0  0  0  0  0  0
  148.2470  156.6020  133.6500 C   0  0  0  0  0  0  0  0  0  0  0  0
  148.5960  155.5890  132.9880 O   0  0  0  0  0  0  0  0  0  0  0  0
  147.7100  156.4400  134.9200 O   0  0  0  0  0  0  0  0  0  0  0  0
  147.2690  162.4430  134.0630 H   0  0  0  0  0  0  0  0  0  0  0  0
  142.5412  161.1030  134.4377 H   0  0  0  0  0  0  0  0  0  0  0  0
  141.4471  158.4681  134.2745 H   0  0  0  0  0  0  0  0  0  0  0  0
  142.0450  156.0815  133.7463 H   0  0  0  0  0  0  0  0  0  0  0  0
  142.4875  154.5866  132.3560 H   0  0  0  0  0  0  0  0  0  0  0  0
  143.1020  152.3110  131.8240 H   0  0  0  0  0  0  0  0  0  0  0  0
  145.3311  151.4217  132.1161 H   0  0  0  0  0  0  0  0  0  0  0  0
  147.5990  151.8170  133.3680 H   0  0  0  0  0  0  0  0  0  0  0  0
  148.2660  153.4110  132.8850 H   0  0  0  0  0  0  0  0  0  0  0  0
  146.5794  155.2931  133.5847 H   0  0  0  0  0  0  0  0  0  0  0  0
  146.1732  157.2836  133.0098 H   0  0  0  0  0  0  0  0  0  0  0  0
  148.7840  159.6567  134.3934 H   0  0  0  0  0  0  0  0  0  0  0  0
  147.4021  158.5811  134.8650 H   0  0  0  0  0  0  0  0  0  0  0  0
  147.8894  158.0489  132.1322 H   0  0  0  0  0  0  0  0  0  0  0  0
  149.5165  158.1361  132.9350 H   0  0  0  0  0  0  0  0  0  0  0  0
  1  2  1  0
  2  3  2  0
  2  4  1  0
  4  5  2  0
  5  6  1  0
  6  7  2  0
  7  8  1  0
  8  9  2  0
  9 10  1  0
 10 11  2  0
 11 12  1  0
 12 13  2  0
 13 14  1  0
 14 15  1  0
 14 16  2  0
  9 17  1  0
 17 18  2  0
 18 19  1  0
 19 20  1  0
 20 21  2  0
 20 22  1  0
 22 23  1  0
 23 24  1  0
 24 25  2  0
 24 26  1  0
 19  4  1  0
 18  6  1  0
 16 10  1  0
  1 27  1  0
  5 28  1  0
  7 29  1  0
  8 30  1  0
 11 31  1  0
 12 32  1  0
 13 33  1  0
 15 34  1  0
 15 35  1  0
 16 36  1  0
 17 37  1  0
 22 38  1  0
 22 39  1  0
 23 40  1  0
 23 41  1  0
M  CHG  3   1  -1  12   1  26  -1
M  END
>  <UniqueID>  (52) 
52

>  <SMILES>  (52) 
[NH-]C(=O)c1cc2ccc(-c3c[nH+]cc(N)c3)cc2n1C(=O)CCC(=O)[O-]

>  <Energy>  (52) 
83.65964676002358

>  <Genealogy>  (52) 
[NH-]C(=O)c1cc2ccc(-c3c[nH+]cc(N)c3)cc2n1C(=O)CCC(=O)[O-] (protonated)
[NH-]C(=O)c1cc2ccc(-c3c[nH+]cc(N)c3)cc2n1C(=O)CCC(=O)[O-] (3D coordinates assigned)
[NH-]C(=O)c1cc2ccc(-c3c[nH+]cc(N)c3)cc2n1C(=O)CCC(=O)[O-] (optimized conformer: 83.65964676002358 kcal/mol)

>  <smiles>  (52) 
NC(=O)c1cc2ccc(-c3cncc(N)c3)cc2n1C(=O)CCC(=O)O

>  <score_type>  (52) 
oracle

>  <origin>  (52) 
adg

>  <m_score__min__energy>  (52) 
-8

>  <m_primary>  (52) 
energy

$$$$
52:0
     RDKit          3D

 35 36  0  0  0  0  0  0  0  0999 V2000
  149.6030  151.4930  133.5060 C   0  0  0  0  0  0  0  0  0  0  0  0
  148.9010  152.0230  132.2600 C   0  0  0  0  0  0  0  0  0  0  0  0
  148.2040  153.2330  132.5520 O   0  0  0  0  0  0  0  0  0  0  0  0
  148.8360  154.4730  132.6880 C   0  0  0  0  0  0  0  0  0  0  0  0
  150.0040  154.6480  132.2430 O   0  0  0  0  0  0  0  0  0  0  0  0
  148.1570  155.5490  133.3550 N   0  0  0  0  0  0  0  0  0  0  0  0
  147.3210  155.4670  134.4280 C   0  0  0  0  0  0  0  0  0  0  0  0
  146.7900  154.2220  135.0220 C   0  0  0  0  0  0  0  0  0  0  0  0
  145.9870  153.3290  134.2560 N   0  0  0  0  0  0  0  0  0  0  0  0
  147.0100  153.9680  136.2370 O   0  0  0  0  0  0  0  0  0  0  0  0
  146.9510  156.7400  134.8580 C   0  0  0  0  0  0  0  0  0  0  0  0
  147.5860  157.6110  134.0050 C   0  0  0  0  0  0  0  0  0  0  0  0
  147.5870  159.0030  133.9860 C   0  0  0  0  0  0  0  0  0  0  0  0
  148.3680  159.6480  133.0120 C   0  0  0  0  0  0  0  0  0  0  0  0
  149.1250  158.8950  132.0790 C   0  0  0  0  0  0  0  0  0  0  0  0
  149.9940  159.5970  131.0720 C   0  0  0  0  0  0  0  0  0  0  0  0
  149.1380  160.3550  130.0550 C   0  0  0  0  0  0  0  0  0  0  0  0
  149.1420  161.7260  130.3430 O   0  0  0  0  0  0  0  0  0  0  0  0
  149.1090  157.4840  132.1380 C   0  0  0  0  0  0  0  0  0  0  0  0
  148.3080  156.8690  133.1070 C   0  0  0  0  0  0  0  0  0  0  0  0
  149.0956  151.8761  134.4036 H   0  0  0  0  0  0  0  0  0  0  0  0
  149.5687  150.3935  133.5065 H   0  0  0  0  0  0  0  0  0  0  0  0
  150.6510  151.8271  133.5065 H   0  0  0  0  0  0  0  0  0  0  0  0
  149.6501  152.2171  131.4782 H   0  0  0  0  0  0  0  0  0  0  0  0
  148.1762  151.2710  131.9147 H   0  0  0  0  0  0  0  0  0  0  0  0
  146.4220  152.5730  133.6830 H   0  0  0  0  0  0  0  0  0  0  0  0
  146.2912  156.9938  135.7007 H   0  0  0  0  0  0  0  0  0  0  0  0
  146.9946  159.5803  134.7111 H   0  0  0  0  0  0  0  0  0  0  0  0
  148.3923  160.7470  132.9730 H   0  0  0  0  0  0  0  0  0  0  0  0
  150.6495  160.3092  131.5946 H   0  0  0  0  0  0  0  0  0  0  0  0
  150.5953  158.8460  130.5387 H   0  0  0  0  0  0  0  0  0  0  0  0
  149.5459  160.1948  129.0461 H   0  0  0  0  0  0  0  0  0  0  0  0
  148.1048  159.9811  130.1071 H   0  0  0  0  0  0  0  0  0  0  0  0
  148.3090  162.1000  129.9530 H   0  0  0  0  0  0  0  0  0  0  0  0
  149.7109  156.8836  131.4400 H   0  0  0  0  0  0  0  0  0  0  0  0
  1  2  1  0
  2  3  1  0
  3  4  1  0
  4  5  2  0
  4  6  1  0
  6  7  1  0
  7  8  1  0
  8  9  1  0
  8 10  2  0
  7 11  2  0
 11 12  1  0
 12 13  2  0
 13 14  1  0
 14 15  2  0
 15 16  1  0
 16 17  1  0
 17 18  1  0
 15 19  1  0
 19 20  2  0
 20  6  1  0
 20 12  1  0
  1 21  1  0
  1 22  1  0
  1 23  1  0
  2 24  1  0
  2 25  1  0
  9 26  1  0
 11 27  1  0
 13 28  1  0
 14 29  1  0
 16 30  1  0
 16 31  1  0
 17 32  1  0
 17 33  1  0
 18 34  1  0
 19 35  1  0
M  CHG  1   9  -1
M  END
>  <UniqueID>  (53) 
53

>  <SMILES>  (53) 
CCOC(=O)n1c(C([NH-])=O)cc2ccc(CCO)cc21

>  <Energy>  (53) 
67.24718011627317

>  <Genealogy>  (53) 
CCOC(=O)n1c(C([NH-])=O)cc2ccc(CCO)cc21 (protonated)
CCOC(=O)n1c(C([NH-])=O)cc2ccc(CCO)cc21 (3D coordinates assigned)
CCOC(=O)n1c(C([NH-])=O)cc2ccc(CCO)cc21 (optimized conformer: 67.24718011627317 kcal/mol)

>  <smiles>  (53) 
CCOC(=O)n1c(C(N)=O)cc2ccc(CCO)cc21

>  <score_type>  (53) 
oracle

>  <origin>  (53) 
adg

>  <m_score__min__energy>  (53) 
-6.1500000000000004

>  <m_primary>  (53) 
energy

$$$$
53:0
     RDKit          3D

 38 40  0  0  0  0  0  0  0  0999 V2000
  149.1510  160.2500  130.9110 C   0  0  0  0  0  0  0  0  0  0  0  0
  149.6380  159.4040  131.9460 O   0  0  0  0  0  0  0  0  0  0  0  0
  148.8580  159.0340  133.0490 C   0  0  0  0  0  0  0  0  0  0  0  0
  148.8490  159.7560  134.0840 O   0  0  0  0  0  0  0  0  0  0  0  0
  148.0460  157.7980  132.9970 C   0  0  0  0  0  0  0  0  0  0  0  0
  146.6700  157.8310  133.2770 C   0  0  0  0  0  0  0  0  0  0  0  0
  145.9070  156.6610  133.2270 C   0  0  0  0  0  0  0  0  0  0  0  0
  146.5030  155.4320  132.8960 C   0  0  0  0  0  0  0  0  0  0  0  0
  145.6940  154.1890  132.8440 C   0  0  0  0  0  0  0  0  0  0  0  0
  146.3180  152.9370  132.5990 C   0  0  0  0  0  0  0  0  0  0  0  0
  145.5640  151.7530  132.5590 C   0  0  0  0  0  0  0  0  0  0  0  0
  144.1920  151.8460  132.7600 C   0  0  0  0  0  0  0  0  0  0  0  0
  143.2360  150.8570  132.7930 C   0  0  0  0  0  0  0  0  0  0  0  0
  142.0320  151.5150  133.0370 C   0  0  0  0  0  0  0  0  0  0  0  0
  140.7140  150.8420  133.0600 C   0  0  0  0  0  0  0  0  0  0  0  0
  139.5600  151.4780  132.5080 N   0  0  0  0  0  0  0  0  0  0  0  0
  140.5910  149.7110  133.6000 O   0  0  0  0  0  0  0  0  0  0  0  0
  142.2360  152.8590  133.1510 N   0  0  0  0  0  0  0  0  0  0  0  0
  141.2610  153.8670  133.4690 C   0  0  0  0  0  0  0  0  0  0  0  0
  140.3170  154.1130  132.6730 O   0  0  0  0  0  0  0  0  0  0  0  0
  141.3600  154.5910  134.6510 O   0  0  0  0  0  0  0  0  0  0  0  0
  143.5650  153.0450  132.9790 C   0  0  0  0  0  0  0  0  0  0  0  0
  144.2930  154.2390  133.0420 C   0  0  0  0  0  0  0  0  0  0  0  0
  147.8810  155.4000  132.6170 C   0  0  0  0  0  0  0  0  0  0  0  0
  148.6440  156.5700  132.6660 C   0  0  0  0  0  0  0  0  0  0  0  0
  148.6491  161.1219  131.3558 H   0  0  0  0  0  0  0  0  0  0  0  0
  149.9921  160.5892  130.2885 H   0  0  0  0  0  0  0  0  0  0  0  0
  148.4353  159.6930  130.2885 H   0  0  0  0  0  0  0  0  0  0  0  0
  146.1890  158.7853  133.5377 H   0  0  0  0  0  0  0  0  0  0  0  0
  144.8304  156.7025  133.4487 H   0  0  0  0  0  0  0  0  0  0  0  0
  147.4054  152.8942  132.4386 H   0  0  0  0  0  0  0  0  0  0  0  0
  146.0449  150.7811  132.3741 H   0  0  0  0  0  0  0  0  0  0  0  0
  143.3895  149.7764  132.6559 H   0  0  0  0  0  0  0  0  0  0  0  0
  139.6320  152.3910  132.0060 H   0  0  0  0  0  0  0  0  0  0  0  0
  138.6280  151.0120  132.5640 H   0  0  0  0  0  0  0  0  0  0  0  0
  143.7875  155.1955  133.2411 H   0  0  0  0  0  0  0  0  0  0  0  0
  148.3627  154.4456  132.3579 H   0  0  0  0  0  0  0  0  0  0  0  0
  149.7206  156.5294  132.4438 H   0  0  0  0  0  0  0  0  0  0  0  0
  1  2  1  0
  2  3  1  0
  3  4  2  0
  3  5  1  0
  5  6  2  0
  6  7  1  0
  7  8  2  0
  8  9  1  0
  9 10  2  0
 10 11  1  0
 11 12  2  0
 12 13  1  0
 13 14  2  0
 14 15  1  0
 15 16  1  0
 15 17  2  0
 14 18  1  0
 18 19  1  0
 19 20  2  0
 19 21  1  0
 18 22  1  0
 22 23  2  0
  8 24  1  0
 24 25  2  0
 25  5  1  0
 23  9  1  0
 22 12  1  0
  1 26  1  0
  1 27  1  0
  1 28  1  0
  6 29  1  0
  7 30  1  0
 10 31  1  0
 11 32  1  0
 13 33  1  0
 16 34  1  0
 16 35  1  0
 23 36  1  0
 24 37  1  0
 25 38  1  0
M  CHG  1  21  -1
M  END
>  <UniqueID>  (54) 
54

>  <SMILES>  (54) 
COC(=O)c1ccc(-c2ccc3cc(C(N)=O)n(C(=O)[O-])c3c2)cc1

>  <Energy>  (54) 
83.54370405872038

>  <Genealogy>  (54) 
COC(=O)c1ccc(-c2ccc3cc(C(N)=O)n(C(=O)[O-])c3c2)cc1 (protonated)
COC(=O)c1ccc(-c2ccc3cc(C(N)=O)n(C(=O)[O-])c3c2)cc1 (3D coordinates assigned)
COC(=O)c1ccc(-c2ccc3cc(C(N)=O)n(C(=O)[O-])c3c2)cc1 (optimized conformer: 83.54370405872038 kcal/mol)

>  <smiles>  (54) 
COC(=O)c1ccc(-c2ccc3cc(C(N)=O)n(C(=O)O)c3c2)cc1

>  <score_type>  (54) 
oracle

>  <origin>  (54) 
adg

>  <m_score__min__energy>  (54) 
-7.5899999999999999

>  <m_primary>  (54) 
energy

$$$$
54:0
     RDKit          3D

 44 46  0  0  0  0  0  0  0  0999 V2000
  140.3660  158.4310  135.9550 C   0  0  0  0  0  0  0  0  0  0  0  0
  140.9840  158.0860  134.6690 N   0  0  0  0  0  0  0  0  0  0  0  0
  140.2660  157.1680  133.7710 C   0  0  0  0  0  0  0  0  0  0  0  0
  139.0150  157.8420  133.1910 C   0  0  0  0  0  0  0  0  0  0  0  0
  139.2590  158.2600  131.7900 N   0  0  0  0  0  0  0  0  0  0  0  0
  138.0020  158.6100  131.1050 C   0  0  0  0  0  0  0  0  0  0  0  0
  137.8290  160.1250  131.1600 C   0  0  0  0  0  0  0  0  0  0  0  0
  139.1280  160.6660  131.7240 C   0  0  0  0  0  0  0  0  0  0  0  0
  140.0750  159.4810  131.7310 C   0  0  0  0  0  0  0  0  0  0  0  0
  142.2530  158.6800  134.2870 C   0  0  0  0  0  0  0  0  0  0  0  0
  142.3740  160.0840  134.0990 C   0  0  0  0  0  0  0  0  0  0  0  0
  143.6000  160.6630  133.7320 C   0  0  0  0  0  0  0  0  0  0  0  0
  144.6950  159.8240  133.5640 C   0  0  0  0  0  0  0  0  0  0  0  0
  145.9820  160.1180  133.1780 C   0  0  0  0  0  0  0  0  0  0  0  0
  146.6480  158.8930  133.1520 C   0  0  0  0  0  0  0  0  0  0  0  0
  148.0880  158.7560  132.8540 C   0  0  0  0  0  0  0  0  0  0  0  0
  148.5050  158.0870  131.6650 N   0  0  0  0  0  0  0  0  0  0  0  0
  148.9560  159.2500  133.6220 O   0  0  0  0  0  0  0  0  0  0  0  0
  145.8020  157.8830  133.5050 N   0  0  0  0  0  0  0  0  0  0  0  0
  146.0810  156.4730  133.5340 C   0  0  0  0  0  0  0  0  0  0  0  0
  146.7450  155.9380  132.6070 O   0  0  0  0  0  0  0  0  0  0  0  0
  145.6400  155.6910  134.5940 O   0  0  0  0  0  0  0  0  0  0  0  0
  144.6100  158.4710  133.7550 C   0  0  0  0  0  0  0  0  0  0  0  0
  143.3990  157.8630  134.1040 C   0  0  0  0  0  0  0  0  0  0  0  0
  141.0050  158.0743  136.7763 H   0  0  0  0  0  0  0  0  0  0  0  0
  140.2528  159.5228  136.0262 H   0  0  0  0  0  0  0  0  0  0  0  0
  139.3772  157.9544  136.0262 H   0  0  0  0  0  0  0  0  0  0  0  0
  140.9327  156.8745  132.9468 H   0  0  0  0  0  0  0  0  0  0  0  0
  139.9558  156.2828  134.3456 H   0  0  0  0  0  0  0  0  0  0  0  0
  138.1752  157.1320  133.2169 H   0  0  0  0  0  0  0  0  0  0  0  0
  138.7755  158.7308  133.7932 H   0  0  0  0  0  0  0  0  0  0  0  0
  138.0454  158.2789  130.0569 H   0  0  0  0  0  0  0  0  0  0  0  0
  137.1525  158.1145  131.5978 H   0  0  0  0  0  0  0  0  0  0  0  0
  137.6514  160.5276  130.1518 H   0  0  0  0  0  0  0  0  0  0  0  0
  136.9665  160.4129  131.7790 H   0  0  0  0  0  0  0  0  0  0  0  0
  139.5209  161.4715  131.0862 H   0  0  0  0  0  0  0  0  0  0  0  0
  138.9959  161.0960  132.7278 H   0  0  0  0  0  0  0  0  0  0  0  0
  140.6833  159.4816  130.8145 H   0  0  0  0  0  0  0  0  0  0  0  0
  140.7536  159.5341  132.5951 H   0  0  0  0  0  0  0  0  0  0  0  0
  141.4934  160.7272  134.2433 H   0  0  0  0  0  0  0  0  0  0  0  0
  143.6907  161.7489  133.5819 H   0  0  0  0  0  0  0  0  0  0  0  0
  146.3975  161.1084  132.9404 H   0  0  0  0  0  0  0  0  0  0  0  0
  148.2030  157.1060  131.4680 H   0  0  0  0  0  0  0  0  0  0  0  0
  143.3364  156.7725  134.2341 H   0  0  0  0  0  0  0  0  0  0  0  0
  1  2  1  0
  2  3  1  0
  3  4  1  0
  4  5  1  0
  5  6  1  0
  6  7  1  0
  7  8  1  0
  8  9  1  0
  2 10  1  0
 10 11  2  0
 11 12  1  0
 12 13  2  0
 13 14  1  0
 14 15  2  0
 15 16  1  0
 16 17  1  0
 16 18  2  0
 15 19  1  0
 19 20  1  0
 20 21  2  0
 20 22  1  0
 19 23  1  0
 23 24  2  0
  9  5  1  0
 24 10  1  0
 23 13  1  0
  1 25  1  0
  1 26  1  0
  1 27  1  0
  3 28  1  0
  3 29  1  0
  4 30  1  0
  4 31  1  0
  6 32  1  0
  6 33  1  0
  7 34  1  0
  7 35  1  0
  8 36  1  0
  8 37  1  0
  9 38  1  0
  9 39  1  0
 11 40  1  0
 12 41  1  0
 14 42  1  0
 17 43  1  0
 24 44  1  0
M  CHG  2  17  -1  22  -1
M  END
>  <UniqueID>  (55) 
55

>  <SMILES>  (55) 
CN(CCN1CCCC1)c1ccc2cc(C([NH-])=O)n(C(=O)[O-])c2c1

>  <Energy>  (55) 
88.44382065469405

>  <Genealogy>  (55) 
CN(CCN1CCCC1)c1ccc2cc(C([NH-])=O)n(C(=O)[O-])c2c1 (protonated)
CN(CCN1CCCC1)c1ccc2cc(C([NH-])=O)n(C(=O)[O-])c2c1 (3D coordinates assigned)
CN(CCN1CCCC1)c1ccc2cc(C([NH-])=O)n(C(=O)[O-])c2c1 (nonaromatic ring conformer: 88.44382065469405 kcal/mol)

>  <smiles>  (55) 
CN(CCN1CCCC1)c1ccc2cc(C(N)=O)n(C(=O)O)c2c1

>  <score_type>  (55) 
oracle

>  <origin>  (55) 
adg

>  <m_score__min__energy>  (55) 
-7.6200000000000001

>  <m_primary>  (55) 
energy

$$$$
55:0
     RDKit          3D

 35 37  0  0  0  0  0  0  0  0999 V2000
  138.3640  157.2060  133.3720 N   0  0  0  0  0  0  0  0  0  0  0  0
  139.0970  157.9650  134.3350 C   0  0  0  0  0  0  0  0  0  0  0  0
  138.5700  158.2190  135.4500 O   0  0  0  0  0  0  0  0  0  0  0  0
  140.4830  158.3970  134.0720 C   0  0  0  0  0  0  0  0  0  0  0  0
  140.8790  159.7320  134.0620 C   0  0  0  0  0  0  0  0  0  0  0  0
  142.2370  159.7060  133.8510 C   0  0  0  0  0  0  0  0  0  0  0  0
  143.1420  160.7570  133.7320 C   0  0  0  0  0  0  0  0  0  0  0  0
  144.4860  160.4420  133.4730 C   0  0  0  0  0  0  0  0  0  0  0  0
  144.9010  159.0930  133.3320 C   0  0  0  0  0  0  0  0  0  0  0  0
  146.2770  158.7790  133.0430 N   0  0  0  0  0  0  0  0  0  0  0  0
  147.0940  159.6950  132.2360 C   0  0  0  0  0  0  0  0  0  0  0  0
  148.5570  159.7280  132.7350 C   0  0  0  0  0  0  0  0  0  0  0  0
  148.8500  158.7470  133.7170 O   0  0  0  0  0  0  0  0  0  0  0  0
  148.3550  157.4890  133.3110 C   0  0  0  0  0  0  0  0  0  0  0  0
  146.8310  157.4790  133.4390 C   0  0  0  0  0  0  0  0  0  0  0  0
  143.9490  158.0550  133.4510 C   0  0  0  0  0  0  0  0  0  0  0  0
  142.6190  158.3940  133.7310 C   0  0  0  0  0  0  0  0  0  0  0  0
  141.5500  157.5770  133.8610 N   0  0  0  0  0  0  0  0  0  0  0  0
  141.5280  156.1490  133.6820 C   0  0  0  0  0  0  0  0  0  0  0  0
  142.4500  155.4330  134.1520 O   0  0  0  0  0  0  0  0  0  0  0  0
  140.4910  155.5470  132.9820 O   0  0  0  0  0  0  0  0  0  0  0  0
  137.3730  156.9390  133.5600 H   0  0  0  0  0  0  0  0  0  0  0  0
  138.8260  156.8380  132.5110 H   0  0  0  0  0  0  0  0  0  0  0  0
  140.2411  160.6183  134.1946 H   0  0  0  0  0  0  0  0  0  0  0  0
  142.8147  161.8019  133.8375 H   0  0  0  0  0  0  0  0  0  0  0  0
  145.2254  161.2509  133.3784 H   0  0  0  0  0  0  0  0  0  0  0  0
  147.0799  159.3598  131.1884 H   0  0  0  0  0  0  0  0  0  0  0  0
  146.6730  160.7073  132.3255 H   0  0  0  0  0  0  0  0  0  0  0  0
  149.2210  159.5650  131.8733 H   0  0  0  0  0  0  0  0  0  0  0  0
  148.7122  160.7095  133.2068 H   0  0  0  0  0  0  0  0  0  0  0  0
  148.6368  157.3039  132.2639 H   0  0  0  0  0  0  0  0  0  0  0  0
  148.7831  156.7017  133.9489 H   0  0  0  0  0  0  0  0  0  0  0  0
  146.4175  156.6950  132.7876 H   0  0  0  0  0  0  0  0  0  0  0  0
  146.5617  157.2800  134.4868 H   0  0  0  0  0  0  0  0  0  0  0  0
  144.2462  157.0033  133.3264 H   0  0  0  0  0  0  0  0  0  0  0  0
  1  2  1  0
  2  3  2  0
  2  4  1  0
  4  5  2  0
  5  6  1  0
  6  7  2  0
  7  8  1  0
  8  9  2  0
  9 10  1  0
 10 11  1  0
 11 12  1  0
 12 13  1  0
 13 14  1  0
 14 15  1  0
  9 16  1  0
 16 17  2  0
 17 18  1  0
 18 19  1  0
 19 20  2  0
 19 21  1  0
 18  4  1  0
 17  6  1  0
 15 10  1  0
  1 22  1  0
  1 23  1  0
  5 24  1  0
  7 25  1  0
  8 26  1  0
 11 27  1  0
 11 28  1  0
 12 29  1  0
 12 30  1  0
 14 31  1  0
 14 32  1  0
 15 33  1  0
 15 34  1  0
 16 35  1  0
M  CHG  1  21  -1
M  END
>  <UniqueID>  (56) 
56

>  <SMILES>  (56) 
NC(=O)c1cc2ccc(N3CCOCC3)cc2n1C(=O)[O-]

>  <Energy>  (56) 
87.27126175543864

>  <Genealogy>  (56) 
NC(=O)c1cc2ccc(N3CCOCC3)cc2n1C(=O)[O-] (protonated)
NC(=O)c1cc2ccc(N3CCOCC3)cc2n1C(=O)[O-] (3D coordinates assigned)
NC(=O)c1cc2ccc(N3CCOCC3)cc2n1C(=O)[O-] (nonaromatic ring conformer: 87.27126175543864 kcal/mol)

>  <smiles>  (56) 
NC(=O)c1cc2ccc(N3CCOCC3)cc2n1C(=O)O

>  <score_type>  (56) 
oracle

>  <origin>  (56) 
adg

>  <m_score__min__energy>  (56) 
-6.6600000000000001

>  <m_primary>  (56) 
energy

$$$$
56:0
     RDKit          3D

 62 63  0  0  0  0  0  0  0  0999 V2000
  140.7390  149.7020  133.6120 C   0  0  0  0  0  0  0  0  0  0  0  0
  140.5310  150.0530  132.1300 C   0  0  0  0  0  0  0  0  0  0  0  0
  139.0430  150.3750  131.8990 C   0  0  0  0  0  0  0  0  0  0  0  0
  140.9670  148.8460  131.2720 C   0  0  0  0  0  0  0  0  0  0  0  0
  141.3360  151.2070  131.8460 O   0  0  0  0  0  0  0  0  0  0  0  0
  141.6960  152.2180  132.7520 C   0  0  0  0  0  0  0  0  0  0  0  0
  141.1170  153.3350  132.7430 O   0  0  0  0  0  0  0  0  0  0  0  0
  142.7410  151.9910  133.7010 N   0  0  0  0  0  0  0  0  0  0  0  0
  143.2540  153.0130  134.6080 C   0  0  0  0  0  0  0  0  0  0  0  0
  142.1380  153.5850  135.4900 C   0  0  0  0  0  0  0  0  0  0  0  0
  142.1870  155.1250  135.5510 C   0  0  0  0  0  0  0  0  0  0  0  0
  142.3580  155.6980  134.2130 N   0  0  0  0  0  0  0  0  0  0  0  0
  143.2380  156.8010  133.9110 C   0  0  0  0  0  0  0  0  0  0  0  0
  142.6850  158.0900  133.7170 C   0  0  0  0  0  0  0  0  0  0  0  0
  143.5050  159.1840  133.4000 C   0  0  0  0  0  0  0  0  0  0  0  0
  144.8730  158.9610  133.2750 C   0  0  0  0  0  0  0  0  0  0  0  0
  145.8760  159.8400  132.9500 C   0  0  0  0  0  0  0  0  0  0  0  0
  147.0410  159.0840  132.9500 C   0  0  0  0  0  0  0  0  0  0  0  0
  148.3610  159.6640  132.6480 C   0  0  0  0  0  0  0  0  0  0  0  0
  149.5630  158.9840  133.0090 N   0  0  0  0  0  0  0  0  0  0  0  0
  148.4290  160.8150  132.1380 O   0  0  0  0  0  0  0  0  0  0  0  0
  146.7810  157.7750  133.2390 N   0  0  0  0  0  0  0  0  0  0  0  0
  147.7030  156.6620  133.1410 C   0  0  0  0  0  0  0  0  0  0  0  0
  148.5790  156.6410  132.2340 O   0  0  0  0  0  0  0  0  0  0  0  0
  147.6560  155.6230  134.0850 O   0  0  0  0  0  0  0  0  0  0  0  0
  147.7180  154.2160  133.8160 C   0  0  0  0  0  0  0  0  0  0  0  0
  148.1010  153.5200  135.1320 C   0  0  0  0  0  0  0  0  0  0  0  0
  146.3440  153.6910  133.3570 C   0  0  0  0  0  0  0  0  0  0  0  0
  148.7960  153.9100  132.7600 C   0  0  0  0  0  0  0  0  0  0  0  0
  145.4380  157.7240  133.4550 C   0  0  0  0  0  0  0  0  0  0  0  0
  144.6380  156.6230  133.7940 C   0  0  0  0  0  0  0  0  0  0  0  0
  140.2789  150.4785  134.2408 H   0  0  0  0  0  0  0  0  0  0  0  0
  140.2708  148.7303  133.8279 H   0  0  0  0  0  0  0  0  0  0  0  0
  141.8162  149.6460  133.8279 H   0  0  0  0  0  0  0  0  0  0  0  0
  138.5366  150.4846  132.8694 H   0  0  0  0  0  0  0  0  0  0  0  0
  138.9547  151.3130  131.3313 H   0  0  0  0  0  0  0  0  0  0  0  0
  138.5747  149.5574  131.3313 H   0  0  0  0  0  0  0  0  0  0  0  0
  141.2664  148.0172  131.9304 H   0  0  0  0  0  0  0  0  0  0  0  0
  140.1279  148.5252  130.6371 H   0  0  0  0  0  0  0  0  0  0  0  0
  141.8174  149.1355  130.6371 H   0  0  0  0  0  0  0  0  0  0  0  0
  144.0261  152.5662  135.2516 H   0  0  0  0  0  0  0  0  0  0  0  0
  143.6754  153.8317  134.0063 H   0  0  0  0  0  0  0  0  0  0  0  0
  141.1657  153.2760  135.0787 H   0  0  0  0  0  0  0  0  0  0  0  0
  142.2773  153.1984  136.5104 H   0  0  0  0  0  0  0  0  0  0  0  0
  141.2474  155.4980  135.9847 H   0  0  0  0  0  0  0  0  0  0  0  0
  143.0437  155.4242  136.1727 H   0  0  0  0  0  0  0  0  0  0  0  0
  141.8050  155.2720  133.4340 H   0  0  0  0  0  0  0  0  0  0  0  0
  141.5992  158.2357  133.8160 H   0  0  0  0  0  0  0  0  0  0  0  0
  143.0791  160.1878  133.2547 H   0  0  0  0  0  0  0  0  0  0  0  0
  145.7779  160.9144  132.7353 H   0  0  0  0  0  0  0  0  0  0  0  0
  149.5300  158.0850  133.5410 H   0  0  0  0  0  0  0  0  0  0  0  0
  150.4900  159.4080  132.7910 H   0  0  0  0  0  0  0  0  0  0  0  0
  147.7643  154.1319  135.9819 H   0  0  0  0  0  0  0  0  0  0  0  0
  147.6195  152.5321  135.1779 H   0  0  0  0  0  0  0  0  0  0  0  0
  149.1933  153.3981  135.1779 H   0  0  0  0  0  0  0  0  0  0  0  0
  145.7284  153.4558  134.2378 H   0  0  0  0  0  0  0  0  0  0  0  0
  145.8407  154.4602  132.7528 H   0  0  0  0  0  0  0  0  0  0  0  0
  146.4819  152.7822  132.7528 H   0  0  0  0  0  0  0  0  0  0  0  0
  149.7369  153.6429  133.2633 H   0  0  0  0  0  0  0  0  0  0  0  0
  148.4653  153.0702  132.1311 H   0  0  0  0  0  0  0  0  0  0  0  0
  148.9559  154.7983  132.1311 H   0  0  0  0  0  0  0  0  0  0  0  0
  145.0914  155.6357  133.9665 H   0  0  0  0  0  0  0  0  0  0  0  0
  1  2  1  0
  2  3  1  0
  2  4  1  0
  2  5  1  0
  5  6  1  0
  6  7  2  0
  6  8  1  0
  8  9  1  0
  9 10  1  0
 10 11  1  0
 11 12  1  0
 12 13  1  0
 13 14  2  0
 14 15  1  0
 15 16  2  0
 16 17  1  0
 17 18  2  0
 18 19  1  0
 19 20  1  0
 19 21  2  0
 18 22  1  0
 22 23  1  0
 23 24  2  0
 23 25  1  0
 25 26  1  0
 26 27  1  0
 26 28  1  0
 26 29  1  0
 22 30  1  0
 30 31  2  0
 31 13  1  0
 30 16  1  0
  1 32  1  0
  1 33  1  0
  1 34  1  0
  3 35  1  0
  3 36  1  0
  3 37  1  0
  4 38  1  0
  4 39  1  0
  4 40  1  0
  9 41  1  0
  9 42  1  0
 10 43  1  0
 10 44  1  0
 11 45  1  0
 11 46  1  0
 12 47  1  0
 14 48  1  0
 15 49  1  0
 17 50  1  0
 20 51  1  0
 20 52  1  0
 27 53  1  0
 27 54  1  0
 27 55  1  0
 28 56  1  0
 28 57  1  0
 28 58  1  0
 29 59  1  0
 29 60  1  0
 29 61  1  0
 31 62  1  0
M  CHG  1   8  -1
M  END
>  <UniqueID>  (57) 
57

>  <SMILES>  (57) 
CC(C)(C)OC(=O)[N-]CCCNc1ccc2cc(C(N)=O)n(C(=O)OC(C)(C)C)c2c1

>  <Energy>  (57) 
84.3713091731892

>  <Genealogy>  (57) 
CC(C)(C)OC(=O)[N-]CCCNc1ccc2cc(C(N)=O)n(C(=O)OC(C)(C)C)c2c1 (protonated)
CC(C)(C)OC(=O)[N-]CCCNc1ccc2cc(C(N)=O)n(C(=O)OC(C)(C)C)c2c1 (3D coordinates assigned)
CC(C)(C)OC(=O)[N-]CCCNc1ccc2cc(C(N)=O)n(C(=O)OC(C)(C)C)c2c1 (optimized conformer: 84.3713091731892 kcal/mol)

>  <smiles>  (57) 
CC(C)(C)OC(=O)NCCCNc1ccc2cc(C(N)=O)n(C(=O)OC(C)(C)C)c2c1

>  <score_type>  (57) 
oracle

>  <origin>  (57) 
adg

>  <m_score__min__energy>  (57) 
-8.5399999999999991

>  <m_primary>  (57) 
energy

$$$$
58:0
     RDKit          3D

 41 42  0  0  0  0  0  0  0  0999 V2000
  149.9910  150.7210  130.8420 C   0  0  0  0  0  0  0  0  0  0  0  0
  150.3060  151.1380  132.2700 C   0  0  0  0  0  0  0  0  0  0  0  0
  149.2180  151.8880  132.7980 O   0  0  0  0  0  0  0  0  0  0  0  0
  149.0880  153.2670  132.6060 C   0  0  0  0  0  0  0  0  0  0  0  0
  150.0790  153.9610  132.2530 O   0  0  0  0  0  0  0  0  0  0  0  0
  147.7520  153.9270  132.8220 C   0  0  1  0  0  0  0  0  0  0  0  0
  146.6800  152.9280  132.8330 N   0  0  0  0  0  0  0  0  0  0  0  0
  147.7590  154.7270  134.1350 C   0  0  0  0  0  0  0  0  0  0  0  0
  147.4140  156.1750  133.8980 C   0  0  0  0  0  0  0  0  0  0  0  0
  148.4260  157.0980  133.5280 C   0  0  0  0  0  0  0  0  0  0  0  0
  148.1210  158.4570  133.3420 C   0  0  0  0  0  0  0  0  0  0  0  0
  146.8040  158.8630  133.5340 C   0  0  0  0  0  0  0  0  0  0  0  0
  146.2380  160.1140  133.4440 C   0  0  0  0  0  0  0  0  0  0  0  0
  144.8910  159.9340  133.7520 C   0  0  0  0  0  0  0  0  0  0  0  0
  143.8870  161.0160  133.6930 C   0  0  0  0  0  0  0  0  0  0  0  0
  142.5000  160.7230  133.5390 N   0  0  0  0  0  0  0  0  0  0  0  0
  144.2620  162.2180  133.7360 O   0  0  0  0  0  0  0  0  0  0  0  0
  144.6380  158.6240  134.0330 N   0  0  0  0  0  0  0  0  0  0  0  0
  143.4060  158.0310  134.4720 C   0  0  0  0  0  0  0  0  0  0  0  0
  142.7760  156.9140  133.7030 C   0  0  0  0  0  0  0  0  0  0  0  0
  142.8070  158.5030  135.4750 O   0  0  0  0  0  0  0  0  0  0  0  0
  145.8150  157.9810  133.8900 C   0  0  0  0  0  0  0  0  0  0  0  0
  146.0900  156.6250  134.0930 C   0  0  0  0  0  0  0  0  0  0  0  0
  149.3280  149.8433  130.8541 H   0  0  0  0  0  0  0  0  0  0  0  0
  149.4919  151.5504  130.3194 H   0  0  0  0  0  0  0  0  0  0  0  0
  150.9252  150.4676  130.3194 H   0  0  0  0  0  0  0  0  0  0  0  0
  150.4662  150.2413  132.8866 H   0  0  0  0  0  0  0  0  0  0  0  0
  151.2152  151.7570  132.2783 H   0  0  0  0  0  0  0  0  0  0  0  0
  147.5662  154.6221  131.9899 H   0  0  0  0  0  0  0  0  0  0  0  0
  146.4660  152.6560  131.8450 H   0  0  0  0  0  0  0  0  0  0  0  0
  147.0070  152.0680  133.3310 H   0  0  0  0  0  0  0  0  0  0  0  0
  147.0203  154.2911  134.8237 H   0  0  0  0  0  0  0  0  0  0  0  0
  148.7702  154.6778  134.5653 H   0  0  0  0  0  0  0  0  0  0  0  0
  149.4586  156.7466  133.3855 H   0  0  0  0  0  0  0  0  0  0  0  0
  148.8999  159.1781  133.0533 H   0  0  0  0  0  0  0  0  0  0  0  0
  146.7421  161.0565  133.1840 H   0  0  0  0  0  0  0  0  0  0  0  0
  142.0240  160.0380  134.1660 H   0  0  0  0  0  0  0  0  0  0  0  0
  142.3595  156.1756  134.4039 H   0  0  0  0  0  0  0  0  0  0  0  0
  141.9702  157.3136  133.0697 H   0  0  0  0  0  0  0  0  0  0  0  0
  143.5348  156.4311  133.0697 H   0  0  0  0  0  0  0  0  0  0  0  0
  145.2957  155.9273  134.3966 H   0  0  0  0  0  0  0  0  0  0  0  0
  1  2  1  0
  2  3  1  0
  3  4  1  0
  4  5  2  0
  4  6  1  0
  6  7  1  0
  6  8  1  0
  8  9  1  0
  9 10  2  0
 10 11  1  0
 11 12  2  0
 12 13  1  0
 13 14  2  0
 14 15  1  0
 15 16  1  0
 15 17  2  0
 14 18  1  0
 18 19  1  0
 19 20  1  0
 19 21  2  0
 18 22  1  0
 22 23  2  0
 23  9  1  0
 22 12  1  0
  1 24  1  0
  1 25  1  0
  1 26  1  0
  2 27  1  0
  2 28  1  0
  6 29  1  6
  7 30  1  0
  7 31  1  0
  8 32  1  0
  8 33  1  0
 10 34  1  0
 11 35  1  0
 13 36  1  0
 16 37  1  0
 20 38  1  0
 20 39  1  0
 20 40  1  0
 23 41  1  0
M  CHG  1  16  -1
M  END
>  <UniqueID>  (58) 
58

>  <SMILES>  (58) 
CCOC(=O)[C@@H](N)Cc1ccc2cc(C([NH-])=O)n(C(C)=O)c2c1

>  <Energy>  (58) 
71.51164688423006

>  <Genealogy>  (58) 
CCOC(=O)C(N)Cc1ccc2cc(C([NH-])=O)n(C(C)=O)c2c1 (protonated)
CCOC(=O)[C@@H](N)Cc1ccc2cc(C([NH-])=O)n(C(C)=O)c2c1 (chirality)
CCOC(=O)[C@@H](N)Cc1ccc2cc(C([NH-])=O)n(C(C)=O)c2c1 (3D coordinates assigned)
CCOC(=O)[C@@H](N)Cc1ccc2cc(C([NH-])=O)n(C(C)=O)c2c1 (optimized conformer: 71.51164688423006 kcal/mol)

>  <smiles>  (58) 
CCOC(=O)C(N)Cc1ccc2cc(C(N)=O)n(C(C)=O)c2c1

>  <score_type>  (58) 
oracle

>  <origin>  (58) 
adg

>  <m_score__min__energy>  (58) 
-6.9400000000000004

>  <m_primary>  (58) 
energy

$$$$
59:0
     RDKit          3D

 66 70  0  0  0  0  0  0  0  0999 V2000
  144.3620  156.0810  132.6730 C   0  0  0  0  0  0  0  0  0  0  0  0
  145.1900  156.8710  133.6390 C   0  0  0  0  0  0  0  0  0  0  0  0
  145.9110  156.2570  134.4680 O   0  0  0  0  0  0  0  0  0  0  0  0
  145.1870  158.3100  133.6200 N   0  0  0  0  0  0  0  0  0  0  0  0
  146.2580  159.1540  133.6380 C   0  0  0  0  0  0  0  0  0  0  0  0
  147.6750  158.7590  133.5080 C   0  0  0  0  0  0  0  0  0  0  0  0
  148.2410  157.7510  134.3460 N   0  0  0  0  0  0  0  0  0  0  0  0
  148.3790  159.2770  132.6000 O   0  0  0  0  0  0  0  0  0  0  0  0
  145.8400  160.4800  133.7040 C   0  0  0  0  0  0  0  0  0  0  0  0
  144.4660  160.4270  133.7030 C   0  0  0  0  0  0  0  0  0  0  0  0
  143.5310  161.4570  133.7330 C   0  0  0  0  0  0  0  0  0  0  0  0
  142.1700  161.1120  133.7230 C   0  0  0  0  0  0  0  0  0  0  0  0
  141.7700  159.7520  133.7050 C   0  0  0  0  0  0  0  0  0  0  0  0
  140.3080  159.3950  133.6760 C   0  0  0  0  0  0  0  0  0  0  0  0
  139.9440  158.7110  132.3570 C   0  0  0  0  0  0  0  0  0  0  0  0
  139.1100  157.5440  132.6170 N   0  0  0  0  0  0  0  0  0  0  0  0
  139.5130  156.3550  133.3090 C   0  0  0  0  0  0  0  0  0  0  0  0
  138.8290  155.3070  133.1580 O   0  0  0  0  0  0  0  0  0  0  0  0
  140.6850  156.3190  134.1400 N   0  0  0  0  0  0  0  0  0  0  0  0
  140.6740  157.0450  135.4180 C   0  0  0  0  0  0  0  0  0  0  0  0
  141.9120  156.7300  136.2890 C   0  0  0  0  0  0  0  0  0  0  0  0
  142.3020  155.2060  136.3960 C   0  0  0  0  0  0  0  0  0  0  0  0
  141.7630  154.3990  135.1720 C   0  0  0  0  0  0  0  0  0  0  0  0
  141.6760  155.2640  133.9160 C   0  0  0  0  0  0  0  0  0  0  0  0
  143.8620  155.1460  136.4070 C   0  0  0  0  0  0  0  0  0  0  0  0
  144.3720  153.7760  136.7270 C   0  0  0  0  0  0  0  0  0  0  0  0
  145.4450  153.3590  136.2220 O   0  0  0  0  0  0  0  0  0  0  0  0
  143.6690  152.9730  137.6680 N   0  0  0  0  0  0  0  0  0  0  0  0
  142.4260  153.4100  138.2260 C   0  0  0  0  0  0  0  0  0  0  0  0
  141.8750  152.7060  139.3160 C   0  0  0  0  0  0  0  0  0  0  0  0
  142.5660  151.4920  139.8690 C   0  0  0  0  0  0  0  0  0  0  0  0
  140.6590  153.1290  139.8680 C   0  0  0  0  0  0  0  0  0  0  0  0
  139.9940  154.2340  139.3410 C   0  0  0  0  0  0  0  0  0  0  0  0
  140.5270  154.9240  138.2530 C   0  0  0  0  0  0  0  0  0  0  0  0
  141.7610  154.5430  137.6830 C   0  0  0  0  0  0  0  0  0  0  0  0
  142.7470  158.7320  133.6720 C   0  0  0  0  0  0  0  0  0  0  0  0
  144.0960  159.1070  133.6550 C   0  0  0  0  0  0  0  0  0  0  0  0
  143.6753  155.4258  133.2290 H   0  0  0  0  0  0  0  0  0  0  0  0
  143.7813  156.7683  132.0402 H   0  0  0  0  0  0  0  0  0  0  0  0
  145.0213  155.4686  132.0402 H   0  0  0  0  0  0  0  0  0  0  0  0
  147.6430  157.1920  134.9950 H   0  0  0  0  0  0  0  0  0  0  0  0
  149.2530  157.5010  134.2600 H   0  0  0  0  0  0  0  0  0  0  0  0
  146.4734  161.3783  133.7476 H   0  0  0  0  0  0  0  0  0  0  0  0
  143.8485  162.5097  133.7636 H   0  0  0  0  0  0  0  0  0  0  0  0
  141.4070  161.9043  133.7292 H   0  0  0  0  0  0  0  0  0  0  0  0
  140.0864  158.7125  134.5097 H   0  0  0  0  0  0  0  0  0  0  0  0
  139.7169  160.3179  133.7705 H   0  0  0  0  0  0  0  0  0  0  0  0
  139.3933  159.4181  131.7193 H   0  0  0  0  0  0  0  0  0  0  0  0
  140.8655  158.3915  131.8483 H   0  0  0  0  0  0  0  0  0  0  0  0
  140.6547  158.1250  135.2100 H   0  0  0  0  0  0  0  0  0  0  0  0
  139.7822  156.7245  135.9766 H   0  0  0  0  0  0  0  0  0  0  0  0
  142.7709  157.2697  135.8636 H   0  0  0  0  0  0  0  0  0  0  0  0
  141.6489  157.0448  137.3096 H   0  0  0  0  0  0  0  0  0  0  0  0
  142.4400  153.5543  134.9764 H   0  0  0  0  0  0  0  0  0  0  0  0
  140.7499  154.0458  135.4147 H   0  0  0  0  0  0  0  0  0  0  0  0
  142.6573  155.7159  133.7091 H   0  0  0  0  0  0  0  0  0  0  0  0
  141.3782  154.6466  133.0557 H   0  0  0  0  0  0  0  0  0  0  0  0
  144.2350  155.4402  135.4149 H   0  0  0  0  0  0  0  0  0  0  0  0
  144.2211  155.8315  137.1887 H   0  0  0  0  0  0  0  0  0  0  0  0
  142.5458  151.5275  140.9682 H   0  0  0  0  0  0  0  0  0  0  0  0
  142.0485  150.5855  139.5218 H   0  0  0  0  0  0  0  0  0  0  0  0
  143.6096  151.4741  139.5218 H   0  0  0  0  0  0  0  0  0  0  0  0
  140.2271  152.5861  140.7217 H   0  0  0  0  0  0  0  0  0  0  0  0
  139.0435  154.5638  139.7856 H   0  0  0  0  0  0  0  0  0  0  0  0
  139.9773  155.7788  137.8321 H   0  0  0  0  0  0  0  0  0  0  0  0
  142.4557  157.6713  133.6600 H   0  0  0  0  0  0  0  0  0  0  0  0
  1  2  1  0
  2  3  2  0
  2  4  1  0
  4  5  1  0
  5  6  1  0
  6  7  1  0
  6  8  2  0
  5  9  2  0
  9 10  1  0
 10 11  2  0
 11 12  1  0
 12 13  2  0
 13 14  1  0
 14 15  1  0
 15 16  1  0
 16 17  1  0
 17 18  2  0
 17 19  1  0
 19 20  1  0
 20 21  1  0
 21 22  1  0
 22 23  1  0
 23 24  1  0
 22 25  1  0
 25 26  1  0
 26 27  2  0
 26 28  1  0
 28 29  1  0
 29 30  2  0
 30 31  1  0
 30 32  1  0
 32 33  2  0
 33 34  1  0
 34 35  2  0
 13 36  1  0
 36 37  2  0
 37  4  1  0
 37 10  1  0
 24 19  1  0
 35 29  1  0
 35 22  1  0
  1 38  1  0
  1 39  1  0
  1 40  1  0
  7 41  1  0
  7 42  1  0
  9 43  1  0
 11 44  1  0
 12 45  1  0
 14 46  1  0
 14 47  1  0
 15 48  1  0
 15 49  1  0
 20 50  1  0
 20 51  1  0
 21 52  1  0
 21 53  1  0
 23 54  1  0
 23 55  1  0
 24 56  1  0
 24 57  1  0
 25 58  1  0
 25 59  1  0
 31 60  1  0
 31 61  1  0
 31 62  1  0
 32 63  1  0
 33 64  1  0
 34 65  1  0
 36 66  1  0
M  CHG  2  16  -1  28  -1
M  END
>  <UniqueID>  (59) 
59

>  <SMILES>  (59) 
CC(=O)n1c(C(N)=O)cc2ccc(CC[N-]C(=O)N3CCC4(CC3)CC(=O)[N-]c3c(C)cccc34)cc21

>  <Energy>  (59) 
124.36332356049299

>  <Genealogy>  (59) 
CC(=O)n1c(C(N)=O)cc2ccc(CC[N-]C(=O)N3CCC4(CC3)CC(=O)[N-]c3c(C)cccc34)cc21 (protonated)
CC(=O)n1c(C(N)=O)cc2ccc(CC[N-]C(=O)N3CCC4(CC3)CC(=O)[N-]c3c(C)cccc34)cc21 (3D coordinates assigned)
CC(=O)n1c(C(N)=O)cc2ccc(CC[N-]C(=O)N3CCC4(CC3)CC(=O)[N-]c3c(C)cccc34)cc21 (nonaromatic ring conformer: 124.36332356049299 kcal/mol)

>  <smiles>  (59) 
CC(=O)n1c(C(N)=O)cc2ccc(CCNC(=O)N3CCC4(CC3)CC(=O)Nc3c(C)cccc34)cc21

>  <score_type>  (59) 
oracle

>  <origin>  (59) 
adg

>  <m_score__min__energy>  (59) 
-10.76

>  <m_primary>  (59) 
energy

$$$$
60:0
     RDKit          3D

 25 26  0  0  0  0  0  0  0  0999 V2000
  141.7320  160.7910  133.9370 N   0  0  0  0  0  0  0  0  0  0  0  0
  142.5020  159.7380  134.5190 C   0  0  0  0  0  0  0  0  0  0  0  0
  141.9750  158.9960  135.3890 O   0  0  0  0  0  0  0  0  0  0  0  0
  143.8810  159.4640  134.0700 C   0  0  0  0  0  0  0  0  0  0  0  0
  144.3620  158.1810  133.8170 C   0  0  0  0  0  0  0  0  0  0  0  0
  145.6470  158.3590  133.3630 C   0  0  0  0  0  0  0  0  0  0  0  0
  146.5980  157.4170  132.9840 C   0  0  0  0  0  0  0  0  0  0  0  0
  147.8660  157.8800  132.5950 C   0  0  0  0  0  0  0  0  0  0  0  0
  148.1590  159.2650  132.5920 C   0  0  0  0  0  0  0  0  0  0  0  0
  149.5320  159.7430  132.2230 C   0  0  0  0  0  0  0  0  0  0  0  0
  149.5820  160.1470  130.4900 Cl  0  0  0  0  0  0  0  0  0  0  0  0
  147.1740  160.1930  132.9990 C   0  0  0  0  0  0  0  0  0  0  0  0
  145.9110  159.7060  133.3610 C   0  0  0  0  0  0  0  0  0  0  0  0
  144.8340  160.3990  133.7980 N   0  0  0  0  0  0  0  0  0  0  0  0
  144.7620  161.8130  134.0470 C   0  0  0  0  0  0  0  0  0  0  0  0
  145.5620  162.3640  134.8470 O   0  0  0  0  0  0  0  0  0  0  0  0
  143.8000  162.5890  133.4080 O   0  0  0  0  0  0  0  0  0  0  0  0
  142.0790  161.3150  133.1030 H   0  0  0  0  0  0  0  0  0  0  0  0
  140.7710  160.9930  134.2900 H   0  0  0  0  0  0  0  0  0  0  0  0
  143.8275  157.2291  133.9518 H   0  0  0  0  0  0  0  0  0  0  0  0
  146.3642  156.3422  132.9888 H   0  0  0  0  0  0  0  0  0  0  0  0
  148.6388  157.1592  132.2897 H   0  0  0  0  0  0  0  0  0  0  0  0
  149.7788  160.6373  132.8141 H   0  0  0  0  0  0  0  0  0  0  0  0
  150.2627  158.9480  132.4326 H   0  0  0  0  0  0  0  0  0  0  0  0
  147.3932  161.2705  133.0308 H   0  0  0  0  0  0  0  0  0  0  0  0
  1  2  1  0
  2  3  2  0
  2  4  1  0
  4  5  2  0
  5  6  1  0
  6  7  2  0
  7  8  1  0
  8  9  2  0
  9 10  1  0
 10 11  1  0
  9 12  1  0
 12 13  2  0
 13 14  1  0
 14 15  1  0
 15 16  2  0
 15 17  1  0
 14  4  1  0
 13  6  1  0
  1 18  1  0
  1 19  1  0
  5 20  1  0
  7 21  1  0
  8 22  1  0
 10 23  1  0
 10 24  1  0
 12 25  1  0
M  CHG  1  17  -1
M  END
>  <UniqueID>  (60) 
60

>  <SMILES>  (60) 
NC(=O)c1cc2ccc(CCl)cc2n1C(=O)[O-]

>  <Energy>  (60) 
64.53701026875932

>  <Genealogy>  (60) 
NC(=O)c1cc2ccc(CCl)cc2n1C(=O)[O-] (protonated)
NC(=O)c1cc2ccc(CCl)cc2n1C(=O)[O-] (3D coordinates assigned)
NC(=O)c1cc2ccc(CCl)cc2n1C(=O)[O-] (optimized conformer: 64.53701026875932 kcal/mol)

>  <smiles>  (60) 
NC(=O)c1cc2ccc(CCl)cc2n1C(=O)O

>  <score_type>  (60) 
oracle

>  <origin>  (60) 
adg

>  <m_score__min__energy>  (60) 
-6.0499999999999998

>  <m_primary>  (60) 
energy

$$$$
61:0
     RDKit          3D

 46 47  0  0  0  0  0  0  0  0999 V2000
  149.2210  161.2030  130.7260 C   0  0  0  0  0  0  0  0  0  0  0  0
  149.5230  159.7120  130.6200 C   0  0  0  0  0  0  0  0  0  0  0  0
  149.6660  159.1330  131.9160 O   0  0  0  0  0  0  0  0  0  0  0  0
  148.8190  158.1360  132.4100 C   0  0  0  0  0  0  0  0  0  0  0  0
  149.2300  156.9560  132.5720 O   0  0  0  0  0  0  0  0  0  0  0  0
  147.4590  158.4610  132.7290 C   0  0  0  0  0  0  0  0  0  0  0  0
  146.3160  158.7350  132.9990 C   0  0  0  0  0  0  0  0  0  0  0  0
  144.9530  159.0610  133.3230 C   0  0  0  0  0  0  0  0  0  0  0  0
  144.5870  160.4050  133.5630 C   0  0  0  0  0  0  0  0  0  0  0  0
  143.2560  160.7370  133.8650 C   0  0  0  0  0  0  0  0  0  0  0  0
  142.3230  159.7040  133.9280 C   0  0  0  0  0  0  0  0  0  0  0  0
  140.9690  159.7480  134.1650 C   0  0  0  0  0  0  0  0  0  0  0  0
  140.5400  158.4250  134.0950 C   0  0  0  0  0  0  0  0  0  0  0  0
  139.1480  158.0070  134.3530 C   0  0  0  0  0  0  0  0  0  0  0  0
  138.3920  157.3010  133.3680 N   0  0  0  0  0  0  0  0  0  0  0  0
  138.6340  158.2280  135.4820 O   0  0  0  0  0  0  0  0  0  0  0  0
  141.5830  157.5960  133.8120 N   0  0  0  0  0  0  0  0  0  0  0  0
  141.5340  156.1840  133.5520 C   0  0  0  0  0  0  0  0  0  0  0  0
  140.5240  155.6900  132.9830 O   0  0  0  0  0  0  0  0  0  0  0  0
  142.6130  155.3740  133.9360 O   0  0  0  0  0  0  0  0  0  0  0  0
  142.8450  154.8260  135.2410 C   0  0  0  0  0  0  0  0  0  0  0  0
  142.2910  153.3910  135.3340 C   0  0  0  0  0  0  0  0  0  0  0  0
  142.0960  155.7140  136.2450 C   0  0  0  0  0  0  0  0  0  0  0  0
  144.3480  154.8520  135.5800 C   0  0  0  0  0  0  0  0  0  0  0  0
  142.6700  158.3930  133.7150 C   0  0  0  0  0  0  0  0  0  0  0  0
  143.9860  158.0370  133.3900 C   0  0  0  0  0  0  0  0  0  0  0  0
  149.1627  161.4908  131.7861 H   0  0  0  0  0  0  0  0  0  0  0  0
  150.0215  161.7751  130.2342 H   0  0  0  0  0  0  0  0  0  0  0  0
  148.2610  161.4185  130.2342 H   0  0  0  0  0  0  0  0  0  0  0  0
  148.6977  159.2132  130.0907 H   0  0  0  0  0  0  0  0  0  0  0  0
  150.4653  159.5804  130.0680 H   0  0  0  0  0  0  0  0  0  0  0  0
  145.3496  161.1962  133.5129 H   0  0  0  0  0  0  0  0  0  0  0  0
  142.9593  161.7806  134.0462 H   0  0  0  0  0  0  0  0  0  0  0  0
  140.3556  160.6385  134.3668 H   0  0  0  0  0  0  0  0  0  0  0  0
  137.3950  157.0530  133.5520 H   0  0  0  0  0  0  0  0  0  0  0  0
  138.8400  156.9490  132.4940 H   0  0  0  0  0  0  0  0  0  0  0  0
  142.1817  153.1080  136.3913 H   0  0  0  0  0  0  0  0  0  0  0  0
  141.3100  153.3438  134.8385 H   0  0  0  0  0  0  0  0  0  0  0  0
  142.9858  152.6969  134.8385 H   0  0  0  0  0  0  0  0  0  0  0  0
  142.3544  155.4077  137.2694 H   0  0  0  0  0  0  0  0  0  0  0  0
  142.3850  156.7643  136.0924 H   0  0  0  0  0  0  0  0  0  0  0  0
  141.0120  155.6062  136.0924 H   0  0  0  0  0  0  0  0  0  0  0  0
  144.4775  154.8542  136.6723 H   0  0  0  0  0  0  0  0  0  0  0  0
  144.8352  153.9622  135.1548 H   0  0  0  0  0  0  0  0  0  0  0  0
  144.8042  155.7582  135.1548 H   0  0  0  0  0  0  0  0  0  0  0  0
  144.2566  156.9892  133.1929 H   0  0  0  0  0  0  0  0  0  0  0  0
  1  2  1  0
  2  3  1  0
  3  4  1  0
  4  5  2  0
  4  6  1  0
  6  7  3  0
  7  8  1  0
  8  9  2  0
  9 10  1  0
 10 11  2  0
 11 12  1  0
 12 13  2  0
 13 14  1  0
 14 15  1  0
 14 16  2  0
 13 17  1  0
 17 18  1  0
 18 19  2  0
 18 20  1  0
 20 21  1  0
 21 22  1  0
 21 23  1  0
 21 24  1  0
 17 25  1  0
 25 26  2  0
 26  8  1  0
 25 11  1  0
  1 27  1  0
  1 28  1  0
  1 29  1  0
  2 30  1  0
  2 31  1  0
  9 32  1  0
 10 33  1  0
 12 34  1  0
 15 35  1  0
 15 36  1  0
 22 37  1  0
 22 38  1  0
 22 39  1  0
 23 40  1  0
 23 41  1  0
 23 42  1  0
 24 43  1  0
 24 44  1  0
 24 45  1  0
 26 46  1  0
M  END
>  <UniqueID>  (61) 
61

>  <SMILES>  (61) 
CCOC(=O)C#Cc1ccc2cc(C(N)=O)n(C(=O)OC(C)(C)C)c2c1

>  <Energy>  (61) 
71.7446574798657

>  <Genealogy>  (61) 
CCOC(=O)C#Cc1ccc2cc(C(N)=O)n(C(=O)OC(C)(C)C)c2c1 (3D coordinates assigned)
CCOC(=O)C#Cc1ccc2cc(C(N)=O)n(C(=O)OC(C)(C)C)c2c1 (optimized conformer: 71.7446574798657 kcal/mol)

>  <smiles>  (61) 
CCOC(=O)C#Cc1ccc2cc(C(N)=O)n(C(=O)OC(C)(C)C)c2c1

>  <score_type>  (61) 
oracle

>  <origin>  (61) 
adg

>  <m_score__min__energy>  (61) 
-7.9199999999999999

>  <m_primary>  (61) 
energy

$$$$
62:0
     RDKit          3D

 31 33  0  0  0  0  0  0  0  0999 V2000
  139.1640  157.8580  136.3580 N   0  0  0  0  0  0  0  0  0  0  0  0
  139.4760  158.0880  134.9870 C   0  0  0  0  0  0  0  0  0  0  0  0
  138.5690  157.9770  134.1200 O   0  0  0  0  0  0  0  0  0  0  0  0
  140.8310  158.5130  134.5770 C   0  0  0  0  0  0  0  0  0  0  0  0
  141.2420  159.8440  134.5580 C   0  0  0  0  0  0  0  0  0  0  0  0
  142.5750  159.8100  134.2170 C   0  0  0  0  0  0  0  0  0  0  0  0
  143.4790  160.8520  134.0400 C   0  0  0  0  0  0  0  0  0  0  0  0
  144.7910  160.5270  133.6570 C   0  0  0  0  0  0  0  0  0  0  0  0
  145.1750  159.1760  133.4470 C   0  0  0  0  0  0  0  0  0  0  0  0
  146.5610  158.8470  133.0290 C   0  0  0  0  0  0  0  0  0  0  0  0
  147.1700  157.6500  133.4490 C   0  0  0  0  0  0  0  0  0  0  0  0
  148.4750  157.3430  133.0540 C   0  0  0  0  0  0  0  0  0  0  0  0
  149.1880  158.2240  132.2380 C   0  0  0  0  0  0  0  0  0  0  0  0
  150.4540  157.9150  131.8620 F   0  0  0  0  0  0  0  0  0  0  0  0
  148.5940  159.4190  131.8120 C   0  0  0  0  0  0  0  0  0  0  0  0
  149.4790  160.5300  130.7810 Cl  0  0  0  0  0  0  0  0  0  0  0  0
  147.2870  159.7270  132.2070 C   0  0  0  0  0  0  0  0  0  0  0  0
  144.2220  158.1470  133.6360 C   0  0  0  0  0  0  0  0  0  0  0  0
  142.9280  158.4990  134.0380 C   0  0  0  0  0  0  0  0  0  0  0  0
  141.8670  157.6880  134.2520 N   0  0  0  0  0  0  0  0  0  0  0  0
  141.8300  156.2630  134.0710 C   0  0  0  0  0  0  0  0  0  0  0  0
  140.9110  155.7330  133.3910 O   0  0  0  0  0  0  0  0  0  0  0  0
  142.7890  155.4550  134.6660 O   0  0  0  0  0  0  0  0  0  0  0  0
  139.0840  158.6520  137.0300 H   0  0  0  0  0  0  0  0  0  0  0  0
  140.6308  160.7335  134.7705 H   0  0  0  0  0  0  0  0  0  0  0  0
  143.1761  161.8981  134.1951 H   0  0  0  0  0  0  0  0  0  0  0  0
  145.5305  161.3294  133.5180 H   0  0  0  0  0  0  0  0  0  0  0  0
  146.6153  156.9513  134.0925 H   0  0  0  0  0  0  0  0  0  0  0  0
  148.9421  156.4044  133.3869 H   0  0  0  0  0  0  0  0  0  0  0  0
  146.8234  160.6663  131.8712 H   0  0  0  0  0  0  0  0  0  0  0  0
  144.4921  157.0936  133.4707 H   0  0  0  0  0  0  0  0  0  0  0  0
  1  2  1  0
  2  3  2  0
  2  4  1  0
  4  5  2  0
  5  6  1  0
  6  7  2  0
  7  8  1  0
  8  9  2  0
  9 10  1  0
 10 11  2  0
 11 12  1  0
 12 13  2  0
 13 14  1  0
 13 15  1  0
 15 16  1  0
 15 17  2  0
  9 18  1  0
 18 19  2  0
 19 20  1  0
 20 21  1  0
 21 22  2  0
 21 23  1  0
 20  4  1  0
 19  6  1  0
 17 10  1  0
  1 24  1  0
  5 25  1  0
  7 26  1  0
  8 27  1  0
 11 28  1  0
 12 29  1  0
 17 30  1  0
 18 31  1  0
M  CHG  2   1  -1  23  -1
M  END
>  <UniqueID>  (62) 
62

>  <SMILES>  (62) 
[NH-]C(=O)c1cc2ccc(-c3ccc(F)c(Cl)c3)cc2n1C(=O)[O-]

>  <Energy>  (62) 
79.36659069448005

>  <Genealogy>  (62) 
[NH-]C(=O)c1cc2ccc(-c3ccc(F)c(Cl)c3)cc2n1C(=O)[O-] (protonated)
[NH-]C(=O)c1cc2ccc(-c3ccc(F)c(Cl)c3)cc2n1C(=O)[O-] (3D coordinates assigned)
[NH-]C(=O)c1cc2ccc(-c3ccc(F)c(Cl)c3)cc2n1C(=O)[O-] (optimized conformer: 79.36659069448005 kcal/mol)

>  <smiles>  (62) 
NC(=O)c1cc2ccc(-c3ccc(F)c(Cl)c3)cc2n1C(=O)O

>  <score_type>  (62) 
oracle

>  <origin>  (62) 
adg

>  <m_score__min__energy>  (62) 
-8.0600000000000005

>  <m_primary>  (62) 
energy

$$$$
63:0
     RDKit          3D

 48 50  0  0  0  0  0  0  0  0999 V2000
  148.8710  154.0000  132.5980 C   0  0  0  0  0  0  0  0  0  0  0  0
  148.1520  155.2890  132.9910 C   0  0  0  0  0  0  0  0  0  0  0  0
  147.3900  155.1600  134.3150 C   0  0  0  0  0  0  0  0  0  0  0  0
  146.5470  156.2910  134.5350 O   0  0  0  0  0  0  0  0  0  0  0  0
  145.6190  156.7630  133.6000 C   0  0  0  0  0  0  0  0  0  0  0  0
  145.0100  155.9610  132.8410 O   0  0  0  0  0  0  0  0  0  0  0  0
  145.3560  158.1720  133.5100 N   0  0  0  0  0  0  0  0  0  0  0  0
  146.2710  159.1830  133.4720 C   0  0  0  0  0  0  0  0  0  0  0  0
  147.7330  159.0210  133.3440 C   0  0  0  0  0  0  0  0  0  0  0  0
  148.4810  158.2680  134.2990 N   0  0  0  0  0  0  0  0  0  0  0  0
  148.3250  159.5120  132.3460 O   0  0  0  0  0  0  0  0  0  0  0  0
  145.6380  160.4200  133.5360 C   0  0  0  0  0  0  0  0  0  0  0  0
  144.2930  160.1380  133.6030 C   0  0  0  0  0  0  0  0  0  0  0  0
  143.2060  160.9950  133.7330 C   0  0  0  0  0  0  0  0  0  0  0  0
  141.9280  160.4260  133.8490 C   0  0  0  0  0  0  0  0  0  0  0  0
  141.7480  159.0160  133.8100 C   0  0  0  0  0  0  0  0  0  0  0  0
  140.3660  158.4080  134.0360 C   0  0  0  0  0  0  0  0  0  0  0  0
  139.8950  158.5440  135.4710 C   0  0  0  0  0  0  0  0  0  0  0  0
  138.7320  158.1760  135.7980 O   0  0  0  0  0  0  0  0  0  0  0  0
  140.7560  159.0840  136.4330 O   0  0  0  0  0  0  0  0  0  0  0  0
  141.3280  158.3020  137.4740 C   0  0  0  0  0  0  0  0  0  0  0  0
  140.2100  156.9700  133.5030 C   0  0  0  0  0  0  0  0  0  0  0  0
  139.1120  157.4280  132.5560 C   0  0  0  0  0  0  0  0  0  0  0  0
  139.2970  158.8640  133.0230 C   0  0  0  0  0  0  0  0  0  0  0  0
  142.8890  158.1810  133.7260 C   0  0  0  0  0  0  0  0  0  0  0  0
  144.1490  158.7750  133.5880 C   0  0  0  0  0  0  0  0  0  0  0  0
  149.1736  153.4575  133.5058 H   0  0  0  0  0  0  0  0  0  0  0  0
  148.1942  153.3696  132.0026 H   0  0  0  0  0  0  0  0  0  0  0  0
  149.7630  154.2446  132.0026 H   0  0  0  0  0  0  0  0  0  0  0  0
  148.8975  156.0917  133.0905 H   0  0  0  0  0  0  0  0  0  0  0  0
  147.4165  155.5129  132.2043 H   0  0  0  0  0  0  0  0  0  0  0  0
  146.7713  154.2509  134.2864 H   0  0  0  0  0  0  0  0  0  0  0  0
  148.1211  155.1044  135.1350 H   0  0  0  0  0  0  0  0  0  0  0  0
  149.5200  158.2010  134.2170 H   0  0  0  0  0  0  0  0  0  0  0  0
  148.0040  157.7070  135.0390 H   0  0  0  0  0  0  0  0  0  0  0  0
  146.1120  161.4126  133.5336 H   0  0  0  0  0  0  0  0  0  0  0  0
  143.3433  162.0863  133.7446 H   0  0  0  0  0  0  0  0  0  0  0  0
  141.0526  161.0807  133.9719 H   0  0  0  0  0  0  0  0  0  0  0  0
  141.0273  158.7131  138.4490 H   0  0  0  0  0  0  0  0  0  0  0  0
  140.9747  157.2638  137.3891 H   0  0  0  0  0  0  0  0  0  0  0  0
  142.4245  158.3243  137.3891 H   0  0  0  0  0  0  0  0  0  0  0  0
  141.1052  156.5814  132.9955 H   0  0  0  0  0  0  0  0  0  0  0  0
  140.0279  156.1387  134.2000 H   0  0  0  0  0  0  0  0  0  0  0  0
  139.3431  157.2697  131.4923 H   0  0  0  0  0  0  0  0  0  0  0  0
  138.1183  156.9576  132.5911 H   0  0  0  0  0  0  0  0  0  0  0  0
  139.6779  159.5420  132.2451 H   0  0  0  0  0  0  0  0  0  0  0  0
  138.4307  159.4522  133.3600 H   0  0  0  0  0  0  0  0  0  0  0  0
  142.7869  157.0866  133.7684 H   0  0  0  0  0  0  0  0  0  0  0  0
  1  2  1  0
  2  3  1  0
  3  4  1  0
  4  5  1  0
  5  6  2  0
  5  7  1  0
  7  8  1  0
  8  9  1  0
  9 10  1  0
  9 11  2  0
  8 12  2  0
 12 13  1  0
 13 14  2  0
 14 15  1  0
 15 16  2  0
 16 17  1  0
 17 18  1  0
 18 19  2  0
 18 20  1  0
 20 21  1  0
 17 22  1  0
 22 23  1  0
 23 24  1  0
 16 25  1  0
 25 26  2  0
 26  7  1  0
 26 13  1  0
 24 17  1  0
  1 27  1  0
  1 28  1  0
  1 29  1  0
  2 30  1  0
  2 31  1  0
  3 32  1  0
  3 33  1  0
 10 34  1  0
 10 35  1  0
 12 36  1  0
 14 37  1  0
 15 38  1  0
 21 39  1  0
 21 40  1  0
 21 41  1  0
 22 42  1  0
 22 43  1  0
 23 44  1  0
 23 45  1  0
 24 46  1  0
 24 47  1  0
 25 48  1  0
M  END
>  <UniqueID>  (63) 
63

>  <SMILES>  (63) 
CCCOC(=O)n1c(C(N)=O)cc2ccc(C3(C(=O)OC)CCC3)cc21

>  <Energy>  (63) 
145.29944205834903

>  <Genealogy>  (63) 
CCCOC(=O)n1c(C(N)=O)cc2ccc(C3(C(=O)OC)CCC3)cc21 (3D coordinates assigned)
CCCOC(=O)n1c(C(N)=O)cc2ccc(C3(C(=O)OC)CCC3)cc21 (nonaromatic ring conformer: 145.29944205834903 kcal/mol)

>  <smiles>  (63) 
CCCOC(=O)n1c(C(N)=O)cc2ccc(C3(C(=O)OC)CCC3)cc21

>  <score_type>  (63) 
oracle

>  <origin>  (63) 
adg

>  <m_score__min__energy>  (63) 
-7.7699999999999996

>  <m_primary>  (63) 
energy

$$$$
64:0
     RDKit          3D

 31 33  0  0  0  0  0  0  0  0999 V2000
  139.7900  158.0340  136.6100 N   0  0  0  0  0  0  0  0  0  0  0  0
  140.0320  158.2580  135.2230 C   0  0  0  0  0  0  0  0  0  0  0  0
  139.0850  158.1220  134.4020 O   0  0  0  0  0  0  0  0  0  0  0  0
  141.3580  158.7010  134.7450 C   0  0  0  0  0  0  0  0  0  0  0  0
  141.7600  160.0340  134.7330 C   0  0  0  0  0  0  0  0  0  0  0  0
  143.0690  160.0160  134.3120 C   0  0  0  0  0  0  0  0  0  0  0  0
  143.9570  161.0680  134.1070 C   0  0  0  0  0  0  0  0  0  0  0  0
  145.2440  160.7610  133.6380 C   0  0  0  0  0  0  0  0  0  0  0  0
  145.6220  159.4180  133.3750 C   0  0  0  0  0  0  0  0  0  0  0  0
  146.9830  159.1080  132.8680 C   0  0  0  0  0  0  0  0  0  0  0  0
  147.7680  160.1100  132.2670 C   0  0  0  0  0  0  0  0  0  0  0  0
  149.0500  159.8150  131.7900 C   0  0  0  0  0  0  0  0  0  0  0  0
  149.7950  160.7860  131.2090 F   0  0  0  0  0  0  0  0  0  0  0  0
  149.5610  158.5210  131.9100 C   0  0  0  0  0  0  0  0  0  0  0  0
  148.7920  157.5180  132.5050 C   0  0  0  0  0  0  0  0  0  0  0  0
  149.2930  156.2640  132.6260 F   0  0  0  0  0  0  0  0  0  0  0  0
  147.5100  157.8070  132.9830 C   0  0  0  0  0  0  0  0  0  0  0  0
  144.6880  158.3790  133.5960 C   0  0  0  0  0  0  0  0  0  0  0  0
  143.4190  158.7120  134.0820 C   0  0  0  0  0  0  0  0  0  0  0  0
  142.3760  157.8900  134.3400 N   0  0  0  0  0  0  0  0  0  0  0  0
  142.3360  156.4700  134.1280 C   0  0  0  0  0  0  0  0  0  0  0  0
  141.4180  155.9550  133.4370 O   0  0  0  0  0  0  0  0  0  0  0  0
  143.2950  155.6470  134.7070 O   0  0  0  0  0  0  0  0  0  0  0  0
  139.1160  158.6300  137.1400 H   0  0  0  0  0  0  0  0  0  0  0  0
  141.1583  160.9144  135.0029 H   0  0  0  0  0  0  0  0  0  0  0  0
  143.6594  162.1080  134.3064 H   0  0  0  0  0  0  0  0  0  0  0  0
  145.9690  161.5715  133.4721 H   0  0  0  0  0  0  0  0  0  0  0  0
  147.3711  161.1315  132.1717 H   0  0  0  0  0  0  0  0  0  0  0  0
  150.5696  158.2914  131.5358 H   0  0  0  0  0  0  0  0  0  0  0  0
  146.9095  157.0134  133.4517 H   0  0  0  0  0  0  0  0  0  0  0  0
  144.9537  157.3316  133.3902 H   0  0  0  0  0  0  0  0  0  0  0  0
  1  2  1  0
  2  3  2  0
  2  4  1  0
  4  5  2  0
  5  6  1  0
  6  7  2  0
  7  8  1  0
  8  9  2  0
  9 10  1  0
 10 11  2  0
 11 12  1  0
 12 13  1  0
 12 14  2  0
 14 15  1  0
 15 16  1  0
 15 17  2  0
  9 18  1  0
 18 19  2  0
 19 20  1  0
 20 21  1  0
 21 22  2  0
 21 23  1  0
 20  4  1  0
 19  6  1  0
 17 10  1  0
  1 24  1  0
  5 25  1  0
  7 26  1  0
  8 27  1  0
 11 28  1  0
 14 29  1  0
 17 30  1  0
 18 31  1  0
M  CHG  2   1  -1  23  -1
M  END
>  <UniqueID>  (64) 
64

>  <SMILES>  (64) 
[NH-]C(=O)c1cc2ccc(-c3cc(F)cc(F)c3)cc2n1C(=O)[O-]

>  <Energy>  (64) 
79.27598995937245

>  <Genealogy>  (64) 
[NH-]C(=O)c1cc2ccc(-c3cc(F)cc(F)c3)cc2n1C(=O)[O-] (protonated)
[NH-]C(=O)c1cc2ccc(-c3cc(F)cc(F)c3)cc2n1C(=O)[O-] (3D coordinates assigned)
[NH-]C(=O)c1cc2ccc(-c3cc(F)cc(F)c3)cc2n1C(=O)[O-] (optimized conformer: 79.27598995937245 kcal/mol)

>  <smiles>  (64) 
NC(=O)c1cc2ccc(-c3cc(F)cc(F)c3)cc2n1C(=O)O

>  <score_type>  (64) 
oracle

>  <origin>  (64) 
adg

>  <m_score__min__energy>  (64) 
-7.2800000000000002

>  <m_primary>  (64) 
energy

$$$$
65:0
     RDKit          3D

 46 48  0  0  0  0  0  0  0  0999 V2000
  143.9614  154.6547  134.5822 H   0  0  0  0  0  0  0  0  0  0  0  0
  145.0480  154.5000  134.6560 C   0  0  0  0  0  0  0  0  0  0  0  0
  145.7940  154.3250  133.3940 C   0  0  0  0  0  0  0  0  0  0  0  0
  145.4360  153.4090  132.6070 O   0  0  0  0  0  0  0  0  0  0  0  0
  146.9440  155.1240  133.0670 N   0  0  0  0  0  0  0  0  0  0  0  0
  148.2130  154.7040  132.8050 C   0  0  0  0  0  0  0  0  0  0  0  0
  148.6580  153.2990  132.7150 C   0  0  0  0  0  0  0  0  0  0  0  0
  149.6790  153.0170  132.0320 O   0  0  0  0  0  0  0  0  0  0  0  0
  147.9240  152.2460  133.3410 N   0  0  0  0  0  0  0  0  0  0  0  0
  146.9830  152.4170  133.7570 H   0  0  0  0  0  0  0  0  0  0  0  0
  148.2830  151.2670  133.3090 H   0  0  0  0  0  0  0  0  0  0  0  0
  149.0600  155.7930  132.6150 C   0  0  0  0  0  0  0  0  0  0  0  0
  150.1399  155.7710  132.4067 H   0  0  0  0  0  0  0  0  0  0  0  0
  148.2550  156.9040  132.7440 C   0  0  0  0  0  0  0  0  0  0  0  0
  148.5780  158.2560  132.6800 C   0  0  0  0  0  0  0  0  0  0  0  0
  149.6044  158.5839  132.4586 H   0  0  0  0  0  0  0  0  0  0  0  0
  147.5520  159.1900  132.9070 C   0  0  0  0  0  0  0  0  0  0  0  0
  147.7756  160.2659  132.8587 H   0  0  0  0  0  0  0  0  0  0  0  0
  146.2300  158.7600  133.1980 C   0  0  0  0  0  0  0  0  0  0  0  0
  145.1480  159.7320  133.4690 C   0  0  0  0  0  0  0  0  0  0  0  0
  143.8700  159.4400  133.4450 O   0  0  0  0  0  0  0  0  0  0  0  0
  143.2190  160.5410  133.7370 C   0  0  0  0  0  0  0  0  0  0  0  0
  141.7320  160.6320  133.7960 C   0  0  0  0  0  0  0  0  0  0  0  0
  141.4073  160.6519  134.8468 H   0  0  0  0  0  0  0  0  0  0  0  0
  141.4007  161.5521  133.2924 H   0  0  0  0  0  0  0  0  0  0  0  0
  141.2910  159.7592  133.2924 H   0  0  0  0  0  0  0  0  0  0  0  0
  144.0370  161.5930  133.9560 N   0  0  0  0  0  0  0  0  0  0  0  0
  145.2660  161.0720  133.7860 C   0  0  0  0  0  0  0  0  0  0  0  0
  146.2125  161.6240  133.8836 H   0  0  0  0  0  0  0  0  0  0  0  0
  145.9430  157.3770  133.2470 C   0  0  0  0  0  0  0  0  0  0  0  0
  144.9261  157.0205  133.4678 H   0  0  0  0  0  0  0  0  0  0  0  0
  146.9830  156.4720  133.0080 C   0  0  0  0  0  0  0  0  0  0  0  0
  145.5850  154.4860  135.8850 C   0  0  0  0  0  0  0  0  0  0  0  0
  144.8954  154.5802  136.7368 H   0  0  0  0  0  0  0  0  0  0  0  0
  147.0550  154.3520  136.1980 C   0  0  0  0  0  0  0  0  0  0  0  0
  147.6279  154.4474  135.2638 H   0  0  0  0  0  0  0  0  0  0  0  0
  147.3260  155.1444  136.9112 H   0  0  0  0  0  0  0  0  0  0  0  0
  147.3680  153.0480  136.8200 N   0  0  0  0  0  0  0  0  0  0  0  0
  148.8100  152.9210  137.0940 C   0  0  0  0  0  0  0  0  0  0  0  0
  148.9768  152.9063  138.1812 H   0  0  0  0  0  0  0  0  0  0  0  0
  149.1861  151.9863  136.6527 H   0  0  0  0  0  0  0  0  0  0  0  0
  149.3437  153.7756  136.6527 H   0  0  0  0  0  0  0  0  0  0  0  0
  146.6200  152.9060  138.0810 C   0  0  0  0  0  0  0  0  0  0  0  0
  147.3060  153.0362  138.9309 H   0  0  0  0  0  0  0  0  0  0  0  0
  145.8302  153.6703  138.1269 H   0  0  0  0  0  0  0  0  0  0  0  0
  146.1652  151.9055  138.1269 H   0  0  0  0  0  0  0  0  0  0  0  0
  1  2  1  0
  2  3  1  0
  3  4  2  0
  3  5  1  0
  5  6  1  0
  6  7  1  0
  7  8  2  0
  7  9  1  0
  9 10  1  0
  9 11  1  0
  6 12  2  0
 12 13  1  0
 12 14  1  0
 14 15  2  0
 15 16  1  0
 15 17  1  0
 17 18  1  0
 17 19  2  0
 19 20  1  0
 20 21  1  0
 21 22  1  0
 22 23  1  0
 23 24  1  0
 23 25  1  0
 23 26  1  0
 22 27  2  0
 27 28  1  0
 28 29  1  0
 19 30  1  0
 30 31  1  0
 30 32  2  0
  2 33  2  0
 33 34  1  0
 33 35  1  0
 35 36  1  0
 35 37  1  0
 35 38  1  0
 38 39  1  0
 39 40  1  0
 39 41  1  0
 39 42  1  0
 38 43  1  0
 43 44  1  0
 43 45  1  0
 43 46  1  0
 32  5  1  0
 32 14  1  0
 28 20  2  0
M  END
>  <UniqueID>  (65) 
65

>  <SMILES>  (65) 
Cc1ncc(-c2ccc3cc(C(N)=O)n(C(=O)/C=C\CN(C)C)c3c2)o1

>  <Energy>  (65) 
116.05954181876666

>  <Genealogy>  (65) 
Cc1ncc(-c2ccc3cc(C(N)=O)n(C(=O)/C=C\CN(C)C)c3c2)o1 (cis-trans isomerization)
Cc1ncc(-c2ccc3cc(C(N)=O)n(C(=O)/C=C\CN(C)C)c3c2)o1 (3D coordinates assigned)
Cc1ncc(-c2ccc3cc(C(N)=O)n(C(=O)/C=C\CN(C)C)c3c2)o1 (optimized conformer: 116.05954181876666 kcal/mol)

>  <smiles>  (65) 
Cc1ncc(-c2ccc3cc(C(N)=O)n(C(=O)C=CCN(C)C)c3c2)o1

>  <score_type>  (65) 
oracle

>  <origin>  (65) 
adg

>  <m_score__min__energy>  (65) 
-8.1400000000000006

>  <m_primary>  (65) 
energy

$$$$
66:0
     RDKit          3D

 27 28  0  0  0  0  0  0  0  0999 V2000
  141.7470  160.9420  133.7130 N   0  0  0  0  0  0  0  0  0  0  0  0
  142.5750  160.1030  134.5110 C   0  0  0  0  0  0  0  0  0  0  0  0
  142.1130  159.6140  135.5770 O   0  0  0  0  0  0  0  0  0  0  0  0
  143.9470  159.7560  134.0810 C   0  0  0  0  0  0  0  0  0  0  0  0
  144.3510  158.4550  133.7870 C   0  0  0  0  0  0  0  0  0  0  0  0
  145.6520  158.5660  133.3530 C   0  0  0  0  0  0  0  0  0  0  0  0
  146.5430  157.5820  132.9360 C   0  0  0  0  0  0  0  0  0  0  0  0
  147.8390  157.9800  132.5670 C   0  0  0  0  0  0  0  0  0  0  0  0
  148.2220  159.3430  132.6380 C   0  0  0  0  0  0  0  0  0  0  0  0
  149.6060  159.7590  132.2220 C   0  0  0  0  0  0  0  0  0  0  0  0
  149.5860  160.2790  130.8210 C   0  0  0  0  0  0  0  0  0  0  0  0
  149.5840  159.4800  129.8480 O   0  0  0  0  0  0  0  0  0  0  0  0
  149.6200  161.6480  130.5870 O   0  0  0  0  0  0  0  0  0  0  0  0
  147.2870  160.3150  133.0570 C   0  0  0  0  0  0  0  0  0  0  0  0
  145.9970  159.8920  133.3990 C   0  0  0  0  0  0  0  0  0  0  0  0
  144.9610  160.6360  133.8460 N   0  0  0  0  0  0  0  0  0  0  0  0
  144.9750  162.0510  134.0980 C   0  0  0  0  0  0  0  0  0  0  0  0
  143.9840  162.8940  133.5150 N   0  0  0  0  0  0  0  0  0  0  0  0
  145.8710  162.5550  134.8260 O   0  0  0  0  0  0  0  0  0  0  0  0
  142.1470  161.7570  133.1960 H   0  0  0  0  0  0  0  0  0  0  0  0
  143.7560  157.5347  133.8818 H   0  0  0  0  0  0  0  0  0  0  0  0
  146.2420  156.5247  132.8964 H   0  0  0  0  0  0  0  0  0  0  0  0
  148.5625  157.2276  132.2201 H   0  0  0  0  0  0  0  0  0  0  0  0
  149.9675  160.5480  132.8979 H   0  0  0  0  0  0  0  0  0  0  0  0
  150.2749  158.8873  132.2732 H   0  0  0  0  0  0  0  0  0  0  0  0
  147.5653  161.3777  133.1132 H   0  0  0  0  0  0  0  0  0  0  0  0
  142.9680  162.7290  133.6930 H   0  0  0  0  0  0  0  0  0  0  0  0
  1  2  1  0
  2  3  2  0
  2  4  1  0
  4  5  2  0
  5  6  1  0
  6  7  2  0
  7  8  1  0
  8  9  2  0
  9 10  1  0
 10 11  1  0
 11 12  2  0
 11 13  1  0
  9 14  1  0
 14 15  2  0
 15 16  1  0
 16 17  1  0
 17 18  1  0
 17 19  2  0
 16  4  1  0
 15  6  1  0
  1 20  1  0
  5 21  1  0
  7 22  1  0
  8 23  1  0
 10 24  1  0
 10 25  1  0
 14 26  1  0
 18 27  1  0
M  CHG  3   1  -1  13  -1  18  -1
M  END
>  <UniqueID>  (66) 
66

>  <SMILES>  (66) 
[NH-]C(=O)c1cc2ccc(CC(=O)[O-])cc2n1C([NH-])=O

>  <Energy>  (66) 
65.26424097605421

>  <Genealogy>  (66) 
[NH-]C(=O)c1cc2ccc(CC(=O)[O-])cc2n1C([NH-])=O (protonated)
[NH-]C(=O)c1cc2ccc(CC(=O)[O-])cc2n1C([NH-])=O (3D coordinates assigned)
[NH-]C(=O)c1cc2ccc(CC(=O)[O-])cc2n1C([NH-])=O (optimized conformer: 65.26424097605421 kcal/mol)

>  <smiles>  (66) 
NC(=O)c1cc2ccc(CC(=O)O)cc2n1C(N)=O

>  <score_type>  (66) 
oracle

>  <origin>  (66) 
adg

>  <m_score__min__energy>  (66) 
-6.1699999999999999

>  <m_primary>  (66) 
energy

$$$$
67:0
     RDKit          3D

 32 33  0  0  0  0  0  0  0  0999 V2000
  138.7690  158.9900  130.9210 C   0  0  0  0  0  0  0  0  0  0  0  0
  139.1700  159.4440  132.1070 C   0  0  0  0  0  0  0  0  0  0  0  0
  139.5570  158.5420  133.2100 C   0  0  0  0  0  0  0  0  0  0  0  0
  138.7430  158.2870  134.1400 O   0  0  0  0  0  0  0  0  0  0  0  0
  140.8520  157.9200  133.2130 N   0  0  0  0  0  0  0  0  0  0  0  0
  141.1240  156.5850  133.2200 C   0  0  0  0  0  0  0  0  0  0  0  0
  140.1320  155.5000  133.0790 C   0  0  0  0  0  0  0  0  0  0  0  0
  138.7330  155.7770  133.0050 N   0  0  0  0  0  0  0  0  0  0  0  0
  140.5310  154.3090  132.9760 O   0  0  0  0  0  0  0  0  0  0  0  0
  142.4920  156.3640  133.3610 C   0  0  0  0  0  0  0  0  0  0  0  0
  143.0570  157.6170  133.4390 C   0  0  0  0  0  0  0  0  0  0  0  0
  144.3880  157.9900  133.6050 C   0  0  0  0  0  0  0  0  0  0  0  0
  144.6800  159.3600  133.7000 C   0  0  0  0  0  0  0  0  0  0  0  0
  143.6430  160.3250  133.6520 C   0  0  0  0  0  0  0  0  0  0  0  0
  143.9710  161.7910  133.7390 C   0  0  0  0  0  0  0  0  0  0  0  0
  145.2920  162.0070  134.4690 C   0  0  0  0  0  0  0  0  0  0  0  0
  142.3050  159.9090  133.4750 C   0  0  0  0  0  0  0  0  0  0  0  0
  142.0460  158.5400  133.3540 C   0  0  0  0  0  0  0  0  0  0  0  0
  138.4897  159.6980  130.1268 H   0  0  0  0  0  0  0  0  0  0  0  0
  138.7170  157.9070  130.7356 H   0  0  0  0  0  0  0  0  0  0  0  0
  139.2145  160.5308  132.2709 H   0  0  0  0  0  0  0  0  0  0  0  0
  138.3780  156.7520  132.8950 H   0  0  0  0  0  0  0  0  0  0  0  0
  138.0470  154.9910  132.9600 H   0  0  0  0  0  0  0  0  0  0  0  0
  143.0105  155.3947  133.4014 H   0  0  0  0  0  0  0  0  0  0  0  0
  145.1860  157.2349  133.6600 H   0  0  0  0  0  0  0  0  0  0  0  0
  145.7240  159.6877  133.8128 H   0  0  0  0  0  0  0  0  0  0  0  0
  144.0487  162.2043  132.7225 H   0  0  0  0  0  0  0  0  0  0  0  0
  143.1715  162.2989  134.2983 H   0  0  0  0  0  0  0  0  0  0  0  0
  145.1197  161.9788  135.5550 H   0  0  0  0  0  0  0  0  0  0  0  0
  145.9997  161.2126  134.1893 H   0  0  0  0  0  0  0  0  0  0  0  0
  145.7098  162.9854  134.1893 H   0  0  0  0  0  0  0  0  0  0  0  0
  141.4871  160.6434  133.4334 H   0  0  0  0  0  0  0  0  0  0  0  0
  1  2  2  0
  2  3  1  0
  3  4  2  0
  3  5  1  0
  5  6  1  0
  6  7  1  0
  7  8  1  0
  7  9  2  0
  6 10  2  0
 10 11  1  0
 11 12  2  0
 12 13  1  0
 13 14  2  0
 14 15  1  0
 15 16  1  0
 14 17  1  0
 17 18  2  0
 18  5  1  0
 18 11  1  0
  1 19  1  0
  1 20  1  0
  2 21  1  0
  8 22  1  0
  8 23  1  0
 10 24  1  0
 12 25  1  0
 13 26  1  0
 15 27  1  0
 15 28  1  0
 16 29  1  0
 16 30  1  0
 16 31  1  0
 17 32  1  0
M  END
>  <UniqueID>  (67) 
67

>  <SMILES>  (67) 
C=CC(=O)n1c(C(N)=O)cc2ccc(CC)cc21

>  <Energy>  (67) 
67.69916746669202

>  <Genealogy>  (67) 
C=CC(=O)n1c(C(N)=O)cc2ccc(CC)cc21 (3D coordinates assigned)
C=CC(=O)n1c(C(N)=O)cc2ccc(CC)cc21 (optimized conformer: 67.69916746669202 kcal/mol)

>  <smiles>  (67) 
C=CC(=O)n1c(C(N)=O)cc2ccc(CC)cc21

>  <score_type>  (67) 
oracle

>  <origin>  (67) 
adg

>  <m_score__min__energy>  (67) 
-7.0899999999999999

>  <m_primary>  (67) 
energy

$$$$
68:0
     RDKit          3D

 79 82  0  0  0  0  0  0  0  0999 V2000
  145.3420  154.5050  133.4060 C   0  0  0  0  0  0  0  0  0  0  0  0
  146.6040  154.0450  134.0150 N   0  0  0  0  0  0  0  0  0  0  0  0
  147.0930  154.9840  135.0430 C   0  0  0  0  0  0  0  0  0  0  0  0
  147.5800  156.3170  134.4350 C   0  0  0  0  0  0  0  0  0  0  0  0
  148.0140  156.1780  133.0250 N   0  0  0  0  0  0  0  0  0  0  0  0
  148.9100  157.2820  132.6180 C   0  0  0  0  0  0  0  0  0  0  0  0
  148.1130  158.5320  132.2290 C   0  0  0  0  0  0  0  0  0  0  0  0
  146.6940  158.3420  132.5310 N   0  0  0  0  0  0  0  0  0  0  0  0
  145.8970  159.3360  133.2000 C   0  0  0  0  0  0  0  0  0  0  0  0
  146.3640  160.4930  133.3870 O   0  0  0  0  0  0  0  0  0  0  0  0
  144.5130  159.0350  133.6370 C   0  0  0  0  0  0  0  0  0  0  0  0
  143.5620  160.0570  133.7930 C   0  0  0  0  0  0  0  0  0  0  0  0
  142.2740  159.7670  134.2500 C   0  0  0  0  0  0  0  0  0  0  0  0
  141.3730  160.7740  134.3820 F   0  0  0  0  0  0  0  0  0  0  0  0
  141.9090  158.4460  134.5490 C   0  0  0  0  0  0  0  0  0  0  0  0
  140.5760  158.1660  135.0040 N   0  0  0  0  0  0  0  0  0  0  0  0
  139.6150  157.5610  134.0830 C   0  0  0  0  0  0  0  0  0  0  0  0
  140.1260  158.6730  136.3000 C   0  0  0  0  0  0  0  0  0  0  0  0
  142.8480  157.4060  134.3750 C   0  0  0  0  0  0  0  0  0  0  0  0
  142.5150  156.0070  134.7140 C   0  0  0  0  0  0  0  0  0  0  0  0
  142.1300  155.1020  133.6950 C   0  0  0  0  0  0  0  0  0  0  0  0
  141.7670  153.7810  134.0120 C   0  0  0  0  0  0  0  0  0  0  0  0
  141.8190  153.3920  135.3460 C   0  0  0  0  0  0  0  0  0  0  0  0
  141.4900  152.1910  135.9320 C   0  0  0  0  0  0  0  0  0  0  0  0
  141.7340  152.3640  137.2920 C   0  0  0  0  0  0  0  0  0  0  0  0
  141.5850  151.2830  138.2880 C   0  0  0  0  0  0  0  0  0  0  0  0
  142.7140  150.8520  139.0410 N   0  0  0  0  0  0  0  0  0  0  0  0
  140.4600  150.7540  138.5000 O   0  0  0  0  0  0  0  0  0  0  0  0
  142.1820  153.6270  137.5440 N   0  0  0  0  0  0  0  0  0  0  0  0
  142.4620  154.2200  138.8240 C   0  0  0  0  0  0  0  0  0  0  0  0
  142.6780  153.4780  139.8200 O   0  0  0  0  0  0  0  0  0  0  0  0
  142.4990  155.6170  138.9460 O   0  0  0  0  0  0  0  0  0  0  0  0
  141.3780  156.4810  139.1870 C   0  0  0  0  0  0  0  0  0  0  0  0
  140.9780  156.3010  140.6620 C   0  0  0  0  0  0  0  0  0  0  0  0
  141.7640  157.9550  138.9560 C   0  0  0  0  0  0  0  0  0  0  0  0
  140.1890  156.0790  138.2950 C   0  0  0  0  0  0  0  0  0  0  0  0
  142.2270  154.2450  136.3410 C   0  0  0  0  0  0  0  0  0  0  0  0
  142.5700  155.5720  136.0570 C   0  0  0  0  0  0  0  0  0  0  0  0
  144.1370  157.7080  133.9070 C   0  0  0  0  0  0  0  0  0  0  0  0
  148.6620  154.8740  132.8030 C   0  0  0  0  0  0  0  0  0  0  0  0
  147.6380  153.7390  132.9960 C   0  0  0  0  0  0  0  0  0  0  0  0
  144.6259  154.7660  134.1992 H   0  0  0  0  0  0  0  0  0  0  0  0
  145.5370  155.3899  132.7823 H   0  0  0  0  0  0  0  0  0  0  0  0
  144.9218  153.7022  132.7823 H   0  0  0  0  0  0  0  0  0  0  0  0
  146.2749  155.1945  135.7476 H   0  0  0  0  0  0  0  0  0  0  0  0
  147.9483  154.5129  135.5495 H   0  0  0  0  0  0  0  0  0  0  0  0
  146.7571  157.0455  134.4796 H   0  0  0  0  0  0  0  0  0  0  0  0
  148.4505  156.6501  135.0192 H   0  0  0  0  0  0  0  0  0  0  0  0
  149.5775  157.5293  133.4566 H   0  0  0  0  0  0  0  0  0  0  0  0
  149.4897  156.9537  131.7427 H   0  0  0  0  0  0  0  0  0  0  0  0
  148.4924  159.3954  132.7953 H   0  0  0  0  0  0  0  0  0  0  0  0
  148.2291  158.7097  131.1497 H   0  0  0  0  0  0  0  0  0  0  0  0
  146.2560  157.4420  132.2320 H   0  0  0  0  0  0  0  0  0  0  0  0
  143.8340  161.0955  133.5531 H   0  0  0  0  0  0  0  0  0  0  0  0
  138.8212  157.0612  134.6575 H   0  0  0  0  0  0  0  0  0  0  0  0
  139.1719  158.3434  133.4493 H   0  0  0  0  0  0  0  0  0  0  0  0
  140.1289  156.8232  133.4493 H   0  0  0  0  0  0  0  0  0  0  0  0
  140.6232  158.1128  137.1056 H   0  0  0  0  0  0  0  0  0  0  0  0
  140.3799  159.7400  136.3846 H   0  0  0  0  0  0  0  0  0  0  0  0
  139.0365  158.5476  136.3846 H   0  0  0  0  0  0  0  0  0  0  0  0
  142.1148  155.4352  132.6468 H   0  0  0  0  0  0  0  0  0  0  0  0
  141.4514  153.0766  133.2283 H   0  0  0  0  0  0  0  0  0  0  0  0
  141.1140  151.2862  135.4320 H   0  0  0  0  0  0  0  0  0  0  0  0
  143.1870  151.4940  139.7170 H   0  0  0  0  0  0  0  0  0  0  0  0
  141.7892  156.6660  141.3091 H   0  0  0  0  0  0  0  0  0  0  0  0
  140.0609  156.8732  140.8656 H   0  0  0  0  0  0  0  0  0  0  0  0
  140.7980  155.2351  140.8656 H   0  0  0  0  0  0  0  0  0  0  0  0
  141.8952  158.4561  139.9264 H   0  0  0  0  0  0  0  0  0  0  0  0
  142.7050  158.0030  138.3883 H   0  0  0  0  0  0  0  0  0  0  0  0
  140.9673  158.4580  138.3883 H   0  0  0  0  0  0  0  0  0  0  0  0
  139.3367  155.7908  138.9279 H   0  0  0  0  0  0  0  0  0  0  0  0
  139.9028  156.9303  137.6599 H   0  0  0  0  0  0  0  0  0  0  0  0
  140.4781  155.2286  137.6599 H   0  0  0  0  0  0  0  0  0  0  0  0
  142.8749  156.2593  136.8599 H   0  0  0  0  0  0  0  0  0  0  0  0
  144.8617  156.8956  133.7497 H   0  0  0  0  0  0  0  0  0  0  0  0
  149.0609  154.8348  131.7786 H   0  0  0  0  0  0  0  0  0  0  0  0
  149.4811  154.7492  133.5265 H   0  0  0  0  0  0  0  0  0  0  0  0
  147.1363  153.5549  132.0346 H   0  0  0  0  0  0  0  0  0  0  0  0
  148.1929  152.8580  133.3510 H   0  0  0  0  0  0  0  0  0  0  0  0
  1  2  1  0
  2  3  1  0
  3  4  1  0
  4  5  1  0
  5  6  1  0
  6  7  1  0
  7  8  1  0
  8  9  1  0
  9 10  2  0
  9 11  1  0
 11 12  2  0
 12 13  1  0
 13 14  1  0
 13 15  2  0
 15 16  1  0
 16 17  1  0
 16 18  1  0
 15 19  1  0
 19 20  1  0
 20 21  2  0
 21 22  1  0
 22 23  2  0
 23 24  1  0
 24 25  2  0
 25 26  1  0
 26 27  1  0
 26 28  2  0
 25 29  1  0
 29 30  1  0
 30 31  2  0
 30 32  1  0
 32 33  1  0
 33 34  1  0
 33 35  1  0
 33 36  1  0
 29 37  1  0
 37 38  2  0
 19 39  2  0
  5 40  1  0
 40 41  1  0
 41  2  1  0
 39 11  1  0
 38 20  1  0
 37 23  1  0
  1 42  1  0
  1 43  1  0
  1 44  1  0
  3 45  1  0
  3 46  1  0
  4 47  1  0
  4 48  1  0
  6 49  1  0
  6 50  1  0
  7 51  1  0
  7 52  1  0
  8 53  1  0
 12 54  1  0
 17 55  1  0
 17 56  1  0
 17 57  1  0
 18 58  1  0
 18 59  1  0
 18 60  1  0
 21 61  1  0
 22 62  1  0
 24 63  1  0
 27 64  1  0
 34 65  1  0
 34 66  1  0
 34 67  1  0
 35 68  1  0
 35 69  1  0
 35 70  1  0
 36 71  1  0
 36 72  1  0
 36 73  1  0
 38 74  1  0
 39 75  1  0
 40 76  1  0
 40 77  1  0
 41 78  1  0
 41 79  1  0
M  CHG  1  27  -1
M  END
>  <UniqueID>  (68) 
68

>  <SMILES>  (68) 
CN1CCN(CCNC(=O)c2cc(F)c(N(C)C)c(-c3ccc4cc(C([NH-])=O)n(C(=O)OC(C)(C)C)c4c3)c2)CC1

>  <Energy>  (68) 
133.67103484452502

>  <Genealogy>  (68) 
CN1CCN(CCNC(=O)c2cc(F)c(N(C)C)c(-c3ccc4cc(C([NH-])=O)n(C(=O)OC(C)(C)C)c4c3)c2)CC1 (protonated)
CN1CCN(CCNC(=O)c2cc(F)c(N(C)C)c(-c3ccc4cc(C([NH-])=O)n(C(=O)OC(C)(C)C)c4c3)c2)CC1 (3D coordinates assigned)
CN1CCN(CCNC(=O)c2cc(F)c(N(C)C)c(-c3ccc4cc(C([NH-])=O)n(C(=O)OC(C)(C)C)c4c3)c2)CC1 (nonaromatic ring conformer: 133.67103484452502 kcal/mol)

>  <smiles>  (68) 
CN1CCN(CCNC(=O)c2cc(F)c(N(C)C)c(-c3ccc4cc(C(N)=O)n(C(=O)OC(C)(C)C)c4c3)c2)CC1

>  <score_type>  (68) 
oracle

>  <origin>  (68) 
adg

>  <m_score__min__energy>  (68) 
-11.09

>  <m_primary>  (68) 
energy

$$$$
69:0
     RDKit          3D

 28 29  0  0  0  0  0  0  0  0999 V2000
  145.5010  163.1160  135.2360 C   0  0  0  0  0  0  0  0  0  0  0  0
  145.5630  162.2940  134.1910 C   0  0  0  0  0  0  0  0  0  0  0  0
  144.4120  161.4920  133.7370 C   0  0  0  0  0  0  0  0  0  0  0  0
  143.3640  162.0840  133.3680 O   0  0  0  0  0  0  0  0  0  0  0  0
  144.4570  160.0560  133.7100 N   0  0  0  0  0  0  0  0  0  0  0  0
  143.5110  159.1870  134.1610 C   0  0  0  0  0  0  0  0  0  0  0  0
  142.1820  159.5610  134.6890 C   0  0  0  0  0  0  0  0  0  0  0  0
  141.2300  160.1920  133.8370 N   0  0  0  0  0  0  0  0  0  0  0  0
  141.8830  159.3400  135.8920 O   0  0  0  0  0  0  0  0  0  0  0  0
  143.9510  157.8720  134.0200 C   0  0  0  0  0  0  0  0  0  0  0  0
  145.2100  157.9660  133.4700 C   0  0  0  0  0  0  0  0  0  0  0  0
  146.1130  156.9680  133.1180 C   0  0  0  0  0  0  0  0  0  0  0  0
  147.3520  157.3590  132.5830 C   0  0  0  0  0  0  0  0  0  0  0  0
  147.6770  158.7330  132.4330 C   0  0  0  0  0  0  0  0  0  0  0  0
  148.9920  159.1390  131.8180 C   0  0  0  0  0  0  0  0  0  0  0  0
  150.0010  158.2720  132.2040 F   0  0  0  0  0  0  0  0  0  0  0  0
  148.8780  159.1120  130.4400 F   0  0  0  0  0  0  0  0  0  0  0  0
  149.3440  160.4170  132.2160 F   0  0  0  0  0  0  0  0  0  0  0  0
  146.7230  159.7150  132.7820 C   0  0  0  0  0  0  0  0  0  0  0  0
  145.4930  159.2950  133.2980 C   0  0  0  0  0  0  0  0  0  0  0  0
  146.3883  163.6932  135.5352 H   0  0  0  0  0  0  0  0  0  0  0  0
  144.5624  163.2182  135.8005 H   0  0  0  0  0  0  0  0  0  0  0  0
  146.5130  162.2094  133.6429 H   0  0  0  0  0  0  0  0  0  0  0  0
  141.5010  161.0010  133.2360 H   0  0  0  0  0  0  0  0  0  0  0  0
  143.4081  156.9543  134.2905 H   0  0  0  0  0  0  0  0  0  0  0  0
  145.8646  155.9051  133.2544 H   0  0  0  0  0  0  0  0  0  0  0  0
  148.0785  156.5919  132.2769 H   0  0  0  0  0  0  0  0  0  0  0  0
  146.9427  160.7848  132.6509 H   0  0  0  0  0  0  0  0  0  0  0  0
  1  2  2  0
  2  3  1  0
  3  4  2  0
  3  5  1  0
  5  6  1  0
  6  7  1  0
  7  8  1  0
  7  9  2  0
  6 10  2  0
 10 11  1  0
 11 12  2  0
 12 13  1  0
 13 14  2  0
 14 15  1  0
 15 16  1  0
 15 17  1  0
 15 18  1  0
 14 19  1  0
 19 20  2  0
 20  5  1  0
 20 11  1  0
  1 21  1  0
  1 22  1  0
  2 23  1  0
  8 24  1  0
 10 25  1  0
 12 26  1  0
 13 27  1  0
 19 28  1  0
M  CHG  1   8  -1
M  END
>  <UniqueID>  (69) 
69

>  <SMILES>  (69) 
C=CC(=O)n1c(C([NH-])=O)cc2ccc(C(F)(F)F)cc21

>  <Energy>  (69) 
67.24532322682012

>  <Genealogy>  (69) 
C=CC(=O)n1c(C([NH-])=O)cc2ccc(C(F)(F)F)cc21 (protonated)
C=CC(=O)n1c(C([NH-])=O)cc2ccc(C(F)(F)F)cc21 (3D coordinates assigned)
C=CC(=O)n1c(C([NH-])=O)cc2ccc(C(F)(F)F)cc21 (optimized conformer: 67.24532322682012 kcal/mol)

>  <smiles>  (69) 
C=CC(=O)n1c(C(N)=O)cc2ccc(C(F)(F)F)cc21

>  <score_type>  (69) 
oracle

>  <origin>  (69) 
adg

>  <m_score__min__energy>  (69) 
-5.9500000000000002

>  <m_primary>  (69) 
energy

$$$$
70:0
     RDKit          3D

 31 32  0  0  0  0  0  0  0  0999 V2000
  148.2340  156.6780  134.2980 N   0  0  0  0  0  0  0  0  0  0  0  0
  147.2750  156.9890  133.2890 C   0  0  0  0  0  0  0  0  0  0  0  0
  147.0210  156.1430  132.3920 O   0  0  0  0  0  0  0  0  0  0  0  0
  146.5940  158.2560  133.3040 N   0  0  0  0  0  0  0  0  0  0  0  0
  147.1270  159.4890  133.0690 C   0  0  0  0  0  0  0  0  0  0  0  0
  148.4890  159.7610  132.5690 C   0  0  0  0  0  0  0  0  0  0  0  0
  149.6080  158.9930  133.0140 N   0  0  0  0  0  0  0  0  0  0  0  0
  148.6590  160.6480  131.6910 O   0  0  0  0  0  0  0  0  0  0  0  0
  146.1870  160.4870  133.3100 C   0  0  0  0  0  0  0  0  0  0  0  0
  145.0430  159.8240  133.6910 C   0  0  0  0  0  0  0  0  0  0  0  0
  143.8030  160.3290  134.0700 C   0  0  0  0  0  0  0  0  0  0  0  0
  142.8100  159.4140  134.4590 C   0  0  0  0  0  0  0  0  0  0  0  0
  143.0740  158.0220  134.4640 C   0  0  0  0  0  0  0  0  0  0  0  0
  142.0160  157.0560  134.9310 C   0  0  0  0  0  0  0  0  0  0  0  0
  141.6060  157.3220  136.3850 C   0  0  0  0  0  0  0  0  0  0  0  0
  140.5000  158.3280  136.4720 C   0  0  0  0  0  0  0  0  0  0  0  0
  140.6880  159.4290  137.0530 O   0  0  0  0  0  0  0  0  0  0  0  0
  139.2480  158.0320  135.9480 O   0  0  0  0  0  0  0  0  0  0  0  0
  144.3490  157.5470  134.0820 C   0  0  0  0  0  0  0  0  0  0  0  0
  145.3130  158.4790  133.6810 C   0  0  0  0  0  0  0  0  0  0  0  0
  149.2370  156.9410  134.1830 H   0  0  0  0  0  0  0  0  0  0  0  0
  149.4780  158.1470  133.6120 H   0  0  0  0  0  0  0  0  0  0  0  0
  150.5680  159.2230  132.6760 H   0  0  0  0  0  0  0  0  0  0  0  0
  146.3285  161.5738  133.2159 H   0  0  0  0  0  0  0  0  0  0  0  0
  143.6061  161.4112  134.0653 H   0  0  0  0  0  0  0  0  0  0  0  0
  141.8187  159.7818  134.7624 H   0  0  0  0  0  0  0  0  0  0  0  0
  141.1304  157.1585  134.2866 H   0  0  0  0  0  0  0  0  0  0  0  0
  142.4309  156.0389  134.8726 H   0  0  0  0  0  0  0  0  0  0  0  0
  141.2668  156.3789  136.8383 H   0  0  0  0  0  0  0  0  0  0  0  0
  142.4790  157.7241  136.9200 H   0  0  0  0  0  0  0  0  0  0  0  0
  144.5781  156.4713  134.0994 H   0  0  0  0  0  0  0  0  0  0  0  0
  1  2  1  0
  2  3  2  0
  2  4  1  0
  4  5  1  0
  5  6  1  0
  6  7  1  0
  6  8  2  0
  5  9  2  0
  9 10  1  0
 10 11  2  0
 11 12  1  0
 12 13  2  0
 13 14  1  0
 14 15  1  0
 15 16  1  0
 16 17  2  0
 16 18  1  0
 13 19  1  0
 19 20  2  0
 20  4  1  0
 20 10  1  0
  1 21  1  0
  7 22  1  0
  7 23  1  0
  9 24  1  0
 11 25  1  0
 12 26  1  0
 14 27  1  0
 14 28  1  0
 15 29  1  0
 15 30  1  0
 19 31  1  0
M  CHG  2   1  -1  18  -1
M  END
>  <UniqueID>  (70) 
70

>  <SMILES>  (70) 
[NH-]C(=O)n1c(C(N)=O)cc2ccc(CCC(=O)[O-])cc21

>  <Energy>  (70) 
67.3632872260083

>  <Genealogy>  (70) 
[NH-]C(=O)n1c(C(N)=O)cc2ccc(CCC(=O)[O-])cc21 (protonated)
[NH-]C(=O)n1c(C(N)=O)cc2ccc(CCC(=O)[O-])cc21 (3D coordinates assigned)
[NH-]C(=O)n1c(C(N)=O)cc2ccc(CCC(=O)[O-])cc21 (optimized conformer: 67.3632872260083 kcal/mol)

>  <smiles>  (70) 
NC(=O)c1cc2ccc(CCC(=O)O)cc2n1C(N)=O

>  <score_type>  (70) 
oracle

>  <origin>  (70) 
adg

>  <m_score__min__energy>  (70) 
-6.7599999999999998

>  <m_primary>  (70) 
energy

$$$$
71:0
     RDKit          3D

 51 54  0  0  0  0  0  0  0  0999 V2000
  138.7630  160.6550  130.0560 C   0  0  0  0  0  0  0  0  0  0  0  0
  138.7770  159.2870  130.4460 O   0  0  0  0  0  0  0  0  0  0  0  0
  138.2670  158.8470  131.6730 C   0  0  0  0  0  0  0  0  0  0  0  0
  137.0290  158.6460  131.8050 O   0  0  0  0  0  0  0  0  0  0  0  0
  139.1830  158.6210  132.8130 C   0  0  0  0  0  0  0  0  0  0  0  0
  138.7310  157.9870  133.9800 C   0  0  0  0  0  0  0  0  0  0  0  0
  139.5950  157.7830  135.0570 C   0  0  0  0  0  0  0  0  0  0  0  0
  140.9300  158.2130  134.9970 C   0  0  0  0  0  0  0  0  0  0  0  0
  141.8180  157.9970  136.1950 C   0  0  0  0  0  0  0  0  0  0  0  0
  141.4060  158.8240  133.8110 C   0  0  0  0  0  0  0  0  0  0  0  0
  142.8140  159.2600  133.6650 C   0  0  0  0  0  0  0  0  0  0  0  0
  143.1640  160.6230  133.8340 C   0  0  0  0  0  0  0  0  0  0  0  0
  144.5030  161.0370  133.7290 C   0  0  0  0  0  0  0  0  0  0  0  0
  145.4640  160.0690  133.4550 C   0  0  0  0  0  0  0  0  0  0  0  0
  146.8330  160.1830  133.3460 C   0  0  0  0  0  0  0  0  0  0  0  0
  147.2900  158.8900  133.0990 C   0  0  0  0  0  0  0  0  0  0  0  0
  148.7080  158.5550  132.8680 C   0  0  0  0  0  0  0  0  0  0  0  0
  149.0810  157.4890  131.9940 N   0  0  0  0  0  0  0  0  0  0  0  0
  149.6050  159.2540  133.4090 O   0  0  0  0  0  0  0  0  0  0  0  0
  146.2500  158.0120  133.0690 N   0  0  0  0  0  0  0  0  0  0  0  0
  146.3010  156.5780  132.9950 C   0  0  0  0  0  0  0  0  0  0  0  0
  146.6870  156.0280  131.9280 O   0  0  0  0  0  0  0  0  0  0  0  0
  145.9370  155.7170  134.1840 C   0  0  0  0  0  0  0  0  0  0  0  0
  146.0120  154.2110  133.9240 C   0  0  0  0  0  0  0  0  0  0  0  0
  147.1140  154.0840  134.9660 C   0  0  0  0  0  0  0  0  0  0  0  0
  147.0600  155.5850  135.2120 C   0  0  0  0  0  0  0  0  0  0  0  0
  145.1400  158.7490  133.2840 C   0  0  0  0  0  0  0  0  0  0  0  0
  143.8190  158.3050  133.3990 C   0  0  0  0  0  0  0  0  0  0  0  0
  140.5230  159.0350  132.7390 C   0  0  0  0  0  0  0  0  0  0  0  0
  138.7565  161.2919  130.9528 H   0  0  0  0  0  0  0  0  0  0  0  0
  139.6589  160.8746  129.4568 H   0  0  0  0  0  0  0  0  0  0  0  0
  137.8627  160.8563  129.4568 H   0  0  0  0  0  0  0  0  0  0  0  0
  137.6868  157.6478  134.0468 H   0  0  0  0  0  0  0  0  0  0  0  0
  139.2258  157.2798  135.9628 H   0  0  0  0  0  0  0  0  0  0  0  0
  141.2329  158.1393  137.1155 H   0  0  0  0  0  0  0  0  0  0  0  0
  142.2224  156.9743  136.1720 H   0  0  0  0  0  0  0  0  0  0  0  0
  142.6470  158.7197  136.1720 H   0  0  0  0  0  0  0  0  0  0  0  0
  142.3801  161.3640  134.0494 H   0  0  0  0  0  0  0  0  0  0  0  0
  144.7823  162.0929  133.8593 H   0  0  0  0  0  0  0  0  0  0  0  0
  147.4360  161.0987  133.4349 H   0  0  0  0  0  0  0  0  0  0  0  0
  150.0890  157.2410  131.8720 H   0  0  0  0  0  0  0  0  0  0  0  0
  148.3710  156.9950  131.4120 H   0  0  0  0  0  0  0  0  0  0  0  0
  144.9781  156.1862  134.4492 H   0  0  0  0  0  0  0  0  0  0  0  0
  145.0907  153.6656  134.1764 H   0  0  0  0  0  0  0  0  0  0  0  0
  146.1650  153.8298  132.9036 H   0  0  0  0  0  0  0  0  0  0  0  0
  146.8370  153.4761  135.8399 H   0  0  0  0  0  0  0  0  0  0  0  0
  148.0666  153.5970  134.7103 H   0  0  0  0  0  0  0  0  0  0  0  0
  146.7661  155.8615  136.2353 H   0  0  0  0  0  0  0  0  0  0  0  0
  147.9704  156.1958  135.1216 H   0  0  0  0  0  0  0  0  0  0  0  0
  143.5696  157.2397  133.2852 H   0  0  0  0  0  0  0  0  0  0  0  0
  140.8867  159.5321  131.8276 H   0  0  0  0  0  0  0  0  0  0  0  0
  1  2  1  0
  2  3  1  0
  3  4  2  0
  3  5  1  0
  5  6  2  0
  6  7  1  0
  7  8  2  0
  8  9  1  0
  8 10  1  0
 10 11  1  0
 11 12  2  0
 12 13  1  0
 13 14  2  0
 14 15  1  0
 15 16  2  0
 16 17  1  0
 17 18  1  0
 17 19  2  0
 16 20  1  0
 20 21  1  0
 21 22  2  0
 21 23  1  0
 23 24  1  0
 24 25  1  0
 25 26  1  0
 20 27  1  0
 27 28  2  0
 10 29  2  0
 29  5  1  0
 28 11  1  0
 27 14  1  0
 26 23  1  0
  1 30  1  0
  1 31  1  0
  1 32  1  0
  6 33  1  0
  7 34  1  0
  9 35  1  0
  9 36  1  0
  9 37  1  0
 12 38  1  0
 13 39  1  0
 15 40  1  0
 18 41  1  0
 18 42  1  0
 23 43  1  0
 24 44  1  0
 24 45  1  0
 25 46  1  0
 25 47  1  0
 26 48  1  0
 26 49  1  0
 28 50  1  0
 29 51  1  0
M  END
>  <UniqueID>  (71) 
71

>  <SMILES>  (71) 
COC(=O)c1ccc(C)c(-c2ccc3cc(C(N)=O)n(C(=O)C4CCC4)c3c2)c1

>  <Energy>  (71) 
159.33746618327783

>  <Genealogy>  (71) 
COC(=O)c1ccc(C)c(-c2ccc3cc(C(N)=O)n(C(=O)C4CCC4)c3c2)c1 (3D coordinates assigned)
COC(=O)c1ccc(C)c(-c2ccc3cc(C(N)=O)n(C(=O)C4CCC4)c3c2)c1 (nonaromatic ring conformer: 159.33746618327783 kcal/mol)

>  <smiles>  (71) 
COC(=O)c1ccc(C)c(-c2ccc3cc(C(N)=O)n(C(=O)C4CCC4)c3c2)c1

>  <score_type>  (71) 
oracle

>  <origin>  (71) 
adg

>  <m_score__min__energy>  (71) 
-9.5099999999999998

>  <m_primary>  (71) 
energy

$$$$
72:0
     RDKit          3D

 32 33  0  0  0  0  0  0  0  0999 V2000
  146.9360  155.8320  134.1790 C   0  0  0  0  0  0  0  0  0  0  0  0
  146.8750  156.6530  132.9310 C   0  0  0  0  0  0  0  0  0  0  0  0
  146.9890  156.0840  131.8130 O   0  0  0  0  0  0  0  0  0  0  0  0
  146.6990  158.0770  132.9930 N   0  0  0  0  0  0  0  0  0  0  0  0
  147.6370  159.0400  132.7690 C   0  0  0  0  0  0  0  0  0  0  0  0
  149.0170  158.8130  132.2880 C   0  0  0  0  0  0  0  0  0  0  0  0
  149.5690  157.5000  132.2280 N   0  0  0  0  0  0  0  0  0  0  0  0
  149.7080  159.7890  131.8900 O   0  0  0  0  0  0  0  0  0  0  0  0
  147.1020  160.3060  133.0010 C   0  0  0  0  0  0  0  0  0  0  0  0
  145.7960  160.0870  133.3760 C   0  0  0  0  0  0  0  0  0  0  0  0
  144.8050  160.9930  133.7390 C   0  0  0  0  0  0  0  0  0  0  0  0
  143.5500  160.4840  134.1130 C   0  0  0  0  0  0  0  0  0  0  0  0
  143.3090  159.0840  134.1260 C   0  0  0  0  0  0  0  0  0  0  0  0
  141.9530  158.5570  134.5490 C   0  0  2  0  0  0  0  0  0  0  0  0
  140.8840  158.8540  133.4900 C   0  0  0  0  0  0  0  0  0  0  0  0
  141.5710  159.0990  135.9000 C   0  0  0  0  0  0  0  0  0  0  0  0
  142.0260  158.5840  136.9560 O   0  0  0  0  0  0  0  0  0  0  0  0
  140.6640  160.1480  135.9890 O   0  0  0  0  0  0  0  0  0  0  0  0
  144.3480  158.1970  133.7540 C   0  0  0  0  0  0  0  0  0  0  0  0
  145.5790  158.7340  133.3660 C   0  0  0  0  0  0  0  0  0  0  0  0
  146.8868  156.4940  135.0561 H   0  0  0  0  0  0  0  0  0  0  0  0
  146.0874  155.1324  134.1995 H   0  0  0  0  0  0  0  0  0  0  0  0
  147.8787  155.2655  134.1995 H   0  0  0  0  0  0  0  0  0  0  0  0
  149.0580  156.7230  131.7530 H   0  0  0  0  0  0  0  0  0  0  0  0
  147.6147  161.2744  132.9048 H   0  0  0  0  0  0  0  0  0  0  0  0
  144.9981  162.0759  133.7334 H   0  0  0  0  0  0  0  0  0  0  0  0
  142.7451  161.1771  134.3989 H   0  0  0  0  0  0  0  0  0  0  0  0
  142.0207  157.4626  134.6363 H   0  0  0  0  0  0  0  0  0  0  0  0
  139.9385  159.1167  133.9871 H   0  0  0  0  0  0  0  0  0  0  0  0
  141.2138  159.6945  132.8617 H   0  0  0  0  0  0  0  0  0  0  0  0
  140.7330  157.9638  132.8617 H   0  0  0  0  0  0  0  0  0  0  0  0
  144.1900  157.1085  133.7699 H   0  0  0  0  0  0  0  0  0  0  0  0
  1  2  1  0
  2  3  2  0
  2  4  1  0
  4  5  1  0
  5  6  1  0
  6  7  1  0
  6  8  2  0
  5  9  2  0
  9 10  1  0
 10 11  2  0
 11 12  1  0
 12 13  2  0
 13 14  1  0
 14 15  1  0
 14 16  1  0
 16 17  2  0
 16 18  1  0
 13 19  1  0
 19 20  2  0
 20  4  1  0
 20 10  1  0
  1 21  1  0
  1 22  1  0
  1 23  1  0
  7 24  1  0
  9 25  1  0
 11 26  1  0
 12 27  1  0
 14 28  1  1
 15 29  1  0
 15 30  1  0
 15 31  1  0
 19 32  1  0
M  CHG  2   7  -1  18  -1
M  END
>  <UniqueID>  (72) 
72

>  <SMILES>  (72) 
CC(=O)n1c(C([NH-])=O)cc2ccc([C@H](C)C(=O)[O-])cc21

>  <Energy>  (72) 
69.47473309856936

>  <Genealogy>  (72) 
CC(=O)n1c(C([NH-])=O)cc2ccc(C(C)C(=O)[O-])cc21 (protonated)
CC(=O)n1c(C([NH-])=O)cc2ccc([C@H](C)C(=O)[O-])cc21 (chirality)
CC(=O)n1c(C([NH-])=O)cc2ccc([C@H](C)C(=O)[O-])cc21 (3D coordinates assigned)
CC(=O)n1c(C([NH-])=O)cc2ccc([C@H](C)C(=O)[O-])cc21 (optimized conformer: 69.47473309856936 kcal/mol)

>  <smiles>  (72) 
CC(=O)n1c(C(N)=O)cc2ccc(C(C)C(=O)O)cc21

>  <score_type>  (72) 
oracle

>  <origin>  (72) 
adg

>  <m_score__min__energy>  (72) 
-6.4199999999999999

>  <m_primary>  (72) 
energy

$$$$
73:0
     RDKit          3D

 50 53  0  0  0  0  0  0  0  0999 V2000
  145.7090  157.5720  134.0090 C   0  0  0  0  0  0  0  0  0  0  0  0
  145.1390  158.7660  133.3110 C   0  0  0  0  0  0  0  0  0  0  0  0
  145.8660  159.4190  132.5160 O   0  0  0  0  0  0  0  0  0  0  0  0
  143.7840  159.1800  133.5450 N   0  0  0  0  0  0  0  0  0  0  0  0
  143.3310  160.4420  133.7870 C   0  0  0  0  0  0  0  0  0  0  0  0
  144.1370  161.6800  133.7340 C   0  0  0  0  0  0  0  0  0  0  0  0
  145.5240  161.6690  134.0630 N   0  0  0  0  0  0  0  0  0  0  0  0
  143.6020  162.7580  133.3630 O   0  0  0  0  0  0  0  0  0  0  0  0
  141.9600  160.4280  134.0390 C   0  0  0  0  0  0  0  0  0  0  0  0
  141.5850  159.1070  133.9430 C   0  0  0  0  0  0  0  0  0  0  0  0
  140.3380  158.5150  134.1170 C   0  0  0  0  0  0  0  0  0  0  0  0
  140.2470  157.1190  133.9890 C   0  0  0  0  0  0  0  0  0  0  0  0
  141.3980  156.3380  133.7020 C   0  0  0  0  0  0  0  0  0  0  0  0
  141.2930  154.8630  133.5780 C   0  0  0  0  0  0  0  0  0  0  0  0
  142.3270  154.0260  134.0280 C   0  0  0  0  0  0  0  0  0  0  0  0
  142.2170  152.6410  133.9020 C   0  0  0  0  0  0  0  0  0  0  0  0
  141.0690  152.0890  133.3200 C   0  0  0  0  0  0  0  0  0  0  0  0
  140.9240  150.5940  133.1570 C   0  0  0  0  0  0  0  0  0  0  0  0
  140.7660  150.1680  131.7490 N   0  0  0  0  0  0  0  0  0  0  0  0
  139.3950  150.3670  131.2320 C   0  0  0  0  0  0  0  0  0  0  0  0
  139.2160  149.6450  129.8920 C   0  0  0  0  0  0  0  0  0  0  0  0
  139.4050  148.1870  130.0180 N   0  0  0  0  0  0  0  0  0  0  0  0
  140.2750  147.7870  131.1420 C   0  0  0  0  0  0  0  0  0  0  0  0
  141.3520  148.8400  131.4450 C   0  0  0  0  0  0  0  0  0  0  0  0
  140.0710  152.9130  132.8990 N   0  0  0  0  0  0  0  0  0  0  0  0
  140.1550  154.2660  133.0100 C   0  0  0  0  0  0  0  0  0  0  0  0
  142.6480  156.9810  133.5340 C   0  0  0  0  0  0  0  0  0  0  0  0
  142.7040  158.3740  133.6460 C   0  0  0  0  0  0  0  0  0  0  0  0
  145.6402  157.7160  135.0974 H   0  0  0  0  0  0  0  0  0  0  0  0
  145.1424  156.6741  133.7215 H   0  0  0  0  0  0  0  0  0  0  0  0
  146.7635  157.4479  133.7215 H   0  0  0  0  0  0  0  0  0  0  0  0
  146.2410  161.3870  133.3600 H   0  0  0  0  0  0  0  0  0  0  0  0
  141.3149  161.2895  134.2663 H   0  0  0  0  0  0  0  0  0  0  0  0
  139.4500  159.1218  134.3479 H   0  0  0  0  0  0  0  0  0  0  0  0
  139.2721  156.6246  134.1126 H   0  0  0  0  0  0  0  0  0  0  0  0
  143.2279  154.4645  134.4820 H   0  0  0  0  0  0  0  0  0  0  0  0
  143.0267  151.9868  134.2574 H   0  0  0  0  0  0  0  0  0  0  0  0
  141.8217  150.1098  133.5689 H   0  0  0  0  0  0  0  0  0  0  0  0
  140.0089  150.2969  133.6903 H   0  0  0  0  0  0  0  0  0  0  0  0
  138.6726  149.9663  131.9583 H   0  0  0  0  0  0  0  0  0  0  0  0
  139.2245  151.4432  131.0815 H   0  0  0  0  0  0  0  0  0  0  0  0
  138.2005  149.8400  129.5168 H   0  0  0  0  0  0  0  0  0  0  0  0
  139.9782  150.0268  129.1968 H   0  0  0  0  0  0  0  0  0  0  0  0
  139.8300  147.8360  129.1290 H   0  0  0  0  0  0  0  0  0  0  0  0
  139.6535  147.6476  132.0389 H   0  0  0  0  0  0  0  0  0  0  0  0
  140.7847  146.8541  130.8593 H   0  0  0  0  0  0  0  0  0  0  0  0
  141.9407  148.5055  132.3119 H   0  0  0  0  0  0  0  0  0  0  0  0
  141.9828  148.9456  130.5501 H   0  0  0  0  0  0  0  0  0  0  0  0
  139.3273  154.8964  132.6530 H   0  0  0  0  0  0  0  0  0  0  0  0
  143.5557  156.3976  133.3200 H   0  0  0  0  0  0  0  0  0  0  0  0
  1  2  1  0
  2  3  2  0
  2  4  1  0
  4  5  1  0
  5  6  1  0
  6  7  1  0
  6  8  2  0
  5  9  2  0
  9 10  1  0
 10 11  2  0
 11 12  1  0
 12 13  2  0
 13 14  1  0
 14 15  2  0
 15 16  1  0
 16 17  2  0
 17 18  1  0
 18 19  1  0
 19 20  1  0
 20 21  1  0
 21 22  1  0
 22 23  1  0
 23 24  1  0
 17 25  1  0
 25 26  2  0
 13 27  1  0
 27 28  2  0
 28  4  1  0
 28 10  1  0
 26 14  1  0
 24 19  1  0
  1 29  1  0
  1 30  1  0
  1 31  1  0
  7 32  1  0
  9 33  1  0
 11 34  1  0
 12 35  1  0
 15 36  1  0
 16 37  1  0
 18 38  1  0
 18 39  1  0
 20 40  1  0
 20 41  1  0
 21 42  1  0
 21 43  1  0
 22 44  1  0
 23 45  1  0
 23 46  1  0
 24 47  1  0
 24 48  1  0
 26 49  1  0
 27 50  1  0
M  CHG  1   7  -1
M  END
>  <UniqueID>  (73) 
73

>  <SMILES>  (73) 
CC(=O)n1c(C([NH-])=O)cc2ccc(-c3ccc(CN4CCNCC4)nc3)cc21

>  <Energy>  (73) 
109.49124826572303

>  <Genealogy>  (73) 
CC(=O)n1c(C([NH-])=O)cc2ccc(-c3ccc(CN4CCNCC4)nc3)cc21 (protonated)
CC(=O)n1c(C([NH-])=O)cc2ccc(-c3ccc(CN4CCNCC4)nc3)cc21 (3D coordinates assigned)
CC(=O)n1c(C([NH-])=O)cc2ccc(-c3ccc(CN4CCNCC4)nc3)cc21 (nonaromatic ring conformer: 109.49124826572303 kcal/mol)

>  <smiles>  (73) 
CC(=O)n1c(C(N)=O)cc2ccc(-c3ccc(CN4CCNCC4)nc3)cc21

>  <score_type>  (73) 
oracle

>  <origin>  (73) 
adg

>  <m_score__min__energy>  (73) 
-9.3699999999999992

>  <m_primary>  (73) 
energy

$$$$
74:0
     RDKit          3D

 50 52  0  0  0  0  0  0  0  0999 V2000
  147.8370  153.5330  133.0220 C   0  0  0  0  0  0  0  0  0  0  0  0
  146.9700  154.2110  134.0050 N   0  0  0  0  0  0  0  0  0  0  0  0
  147.7060  154.3870  135.2700 C   0  0  0  0  0  0  0  0  0  0  0  0
  145.7190  153.4530  134.2560 C   0  0  0  0  0  0  0  0  0  0  0  0
  144.5570  154.3410  134.7420 C   0  0  0  0  0  0  0  0  0  0  0  0
  144.9070  155.7230  134.7210 O   0  0  0  0  0  0  0  0  0  0  0  0
  145.0210  156.4750  133.5470 C   0  0  0  0  0  0  0  0  0  0  0  0
  145.0910  155.9020  132.4250 O   0  0  0  0  0  0  0  0  0  0  0  0
  145.0920  157.9050  133.6250 N   0  0  0  0  0  0  0  0  0  0  0  0
  146.1940  158.6950  133.4800 C   0  0  0  0  0  0  0  0  0  0  0  0
  147.5920  158.2240  133.3880 C   0  0  0  0  0  0  0  0  0  0  0  0
  147.8920  156.8370  133.2630 N   0  0  0  0  0  0  0  0  0  0  0  0
  148.5360  159.0550  133.4640 O   0  0  0  0  0  0  0  0  0  0  0  0
  145.8360  160.0410  133.5050 C   0  0  0  0  0  0  0  0  0  0  0  0
  144.4690  160.0530  133.6710 C   0  0  0  0  0  0  0  0  0  0  0  0
  143.5850  161.1250  133.7490 C   0  0  0  0  0  0  0  0  0  0  0  0
  142.2170  160.8400  133.8890 C   0  0  0  0  0  0  0  0  0  0  0  0
  141.7580  159.4990  133.9270 C   0  0  0  0  0  0  0  0  0  0  0  0
  140.2930  159.2070  134.1010 C   0  0  0  0  0  0  0  0  0  0  0  0
  139.5710  159.3820  132.7940 C   0  0  0  0  0  0  0  0  0  0  0  0
  139.4570  160.6560  132.2120 C   0  0  0  0  0  0  0  0  0  0  0  0
  138.8170  160.8120  130.9780 C   0  0  0  0  0  0  0  0  0  0  0  0
  138.2950  159.6980  130.3140 C   0  0  0  0  0  0  0  0  0  0  0  0
  138.4150  158.4260  130.8810 C   0  0  0  0  0  0  0  0  0  0  0  0
  139.0540  158.2660  132.1140 C   0  0  0  0  0  0  0  0  0  0  0  0
  142.6860  158.4370  133.8530 C   0  0  0  0  0  0  0  0  0  0  0  0
  144.0450  158.7510  133.7380 C   0  0  0  0  0  0  0  0  0  0  0  0
  148.5966  152.9390  133.5513 H   0  0  0  0  0  0  0  0  0  0  0  0
  147.2271  152.8698  132.3910 H   0  0  0  0  0  0  0  0  0  0  0  0
  148.3336  154.2848  132.3910 H   0  0  0  0  0  0  0  0  0  0  0  0
  146.7320  155.1640  133.6410 H   0  0  0  0  0  0  0  0  0  0  0  0
  147.0235  154.2238  136.1171 H   0  0  0  0  0  0  0  0  0  0  0  0
  148.5307  153.6607  135.3185 H   0  0  0  0  0  0  0  0  0  0  0  0
  148.1130  155.4078  135.3185 H   0  0  0  0  0  0  0  0  0  0  0  0
  145.4150  152.9608  133.3204 H   0  0  0  0  0  0  0  0  0  0  0  0
  145.9316  152.7275  135.0550 H   0  0  0  0  0  0  0  0  0  0  0  0
  143.6885  154.1829  134.0857 H   0  0  0  0  0  0  0  0  0  0  0  0
  144.3219  154.0618  135.7797 H   0  0  0  0  0  0  0  0  0  0  0  0
  147.1690  156.1580  132.9360 H   0  0  0  0  0  0  0  0  0  0  0  0
  146.5038  160.9101  133.4119 H   0  0  0  0  0  0  0  0  0  0  0  0
  143.9464  162.1629  133.7024 H   0  0  0  0  0  0  0  0  0  0  0  0
  141.4944  161.6654  133.9700 H   0  0  0  0  0  0  0  0  0  0  0  0
  140.1676  158.1713  134.4497 H   0  0  0  0  0  0  0  0  0  0  0  0
  139.8727  159.9050  134.8400 H   0  0  0  0  0  0  0  0  0  0  0  0
  139.8725  161.5337  132.7287 H   0  0  0  0  0  0  0  0  0  0  0  0
  138.7244  161.8122  130.5296 H   0  0  0  0  0  0  0  0  0  0  0  0
  137.7896  159.8225  129.3449 H   0  0  0  0  0  0  0  0  0  0  0  0
  138.0061  157.5499  130.3564 H   0  0  0  0  0  0  0  0  0  0  0  0
  139.1526  157.2626  132.5538 H   0  0  0  0  0  0  0  0  0  0  0  0
  142.3494  157.3902  133.8849 H   0  0  0  0  0  0  0  0  0  0  0  0
  1  2  1  0
  2  3  1  0
  2  4  1  0
  4  5  1  0
  5  6  1  0
  6  7  1  0
  7  8  2  0
  7  9  1  0
  9 10  1  0
 10 11  1  0
 11 12  1  0
 11 13  2  0
 10 14  2  0
 14 15  1  0
 15 16  2  0
 16 17  1  0
 17 18  2  0
 18 19  1  0
 19 20  1  0
 20 21  2  0
 21 22  1  0
 22 23  2  0
 23 24  1  0
 24 25  2  0
 18 26  1  0
 26 27  2  0
 27  9  1  0
 27 15  1  0
 25 20  1  0
  1 28  1  0
  1 29  1  0
  1 30  1  0
  2 31  1  0
  3 32  1  0
  3 33  1  0
  3 34  1  0
  4 35  1  0
  4 36  1  0
  5 37  1  0
  5 38  1  0
 12 39  1  0
 14 40  1  0
 16 41  1  0
 17 42  1  0
 19 43  1  0
 19 44  1  0
 21 45  1  0
 22 46  1  0
 23 47  1  0
 24 48  1  0
 25 49  1  0
 26 50  1  0
M  CHG  2   2   1  12  -1
M  END
>  <UniqueID>  (74) 
74

>  <SMILES>  (74) 
C[NH+](C)CCOC(=O)n1c(C([NH-])=O)cc2ccc(Cc3ccccc3)cc21

>  <Energy>  (74) 
88.0520942511895

>  <Genealogy>  (74) 
C[NH+](C)CCOC(=O)n1c(C([NH-])=O)cc2ccc(Cc3ccccc3)cc21 (protonated)
C[NH+](C)CCOC(=O)n1c(C([NH-])=O)cc2ccc(Cc3ccccc3)cc21 (3D coordinates assigned)
C[NH+](C)CCOC(=O)n1c(C([NH-])=O)cc2ccc(Cc3ccccc3)cc21 (optimized conformer: 88.0520942511895 kcal/mol)

>  <smiles>  (74) 
CN(C)CCOC(=O)n1c(C(N)=O)cc2ccc(Cc3ccccc3)cc21

>  <score_type>  (74) 
oracle

>  <origin>  (74) 
adg

>  <m_score__min__energy>  (74) 
-6.6399999999999997

>  <m_primary>  (74) 
energy

$$$$
75:0
     RDKit          3D

 46 48  0  0  0  0  0  0  0  0999 V2000
  141.3190  158.9210  136.9190 C   0  0  0  0  0  0  0  0  0  0  0  0
  141.1240  157.5330  136.3210 C   0  0  0  0  0  0  0  0  0  0  0  0
  142.2720  157.1440  135.5690 O   0  0  0  0  0  0  0  0  0  0  0  0
  142.4680  157.4890  134.2270 C   0  0  0  0  0  0  0  0  0  0  0  0
  141.8120  156.9120  133.3170 O   0  0  0  0  0  0  0  0  0  0  0  0
  143.4010  158.5270  133.8880 N   0  0  0  0  0  0  0  0  0  0  0  0
  143.1570  159.8610  133.7520 C   0  0  0  0  0  0  0  0  0  0  0  0
  141.8280  160.5080  133.7710 C   0  0  0  0  0  0  0  0  0  0  0  0
  140.6340  159.7300  133.7780 N   0  0  0  0  0  0  0  0  0  0  0  0
  141.7460  161.7650  133.7320 O   0  0  0  0  0  0  0  0  0  0  0  0
  144.3410  160.5510  133.5030 C   0  0  0  0  0  0  0  0  0  0  0  0
  145.3260  159.5900  133.4790 C   0  0  0  0  0  0  0  0  0  0  0  0
  146.6960  159.7170  133.2730 C   0  0  0  0  0  0  0  0  0  0  0  0
  147.4790  158.5520  133.3240 C   0  0  0  0  0  0  0  0  0  0  0  0
  146.8890  157.2910  133.5930 C   0  0  0  0  0  0  0  0  0  0  0  0
  147.7020  156.1030  133.6420 N   0  0  0  0  0  0  0  0  0  0  0  0
  147.4340  155.0410  134.6180 C   0  0  0  0  0  0  0  0  0  0  0  0
  147.3450  153.6650  133.9230 C   0  0  0  0  0  0  0  0  0  0  0  0
  148.0380  153.6260  132.6090 N   0  0  0  0  0  0  0  0  0  0  0  0
  148.3870  152.2400  132.2540 C   0  0  0  0  0  0  0  0  0  0  0  0
  149.2460  154.4780  132.5990 C   0  0  0  0  0  0  0  0  0  0  0  0
  148.8500  155.9560  132.7380 C   0  0  0  0  0  0  0  0  0  0  0  0
  145.4920  157.2040  133.7900 C   0  0  0  0  0  0  0  0  0  0  0  0
  144.7320  158.3770  133.7150 C   0  0  0  0  0  0  0  0  0  0  0  0
  141.3093  158.8520  138.0168 H   0  0  0  0  0  0  0  0  0  0  0  0
  142.2836  159.3315  136.5859 H   0  0  0  0  0  0  0  0  0  0  0  0
  140.5048  159.5815  136.5859 H   0  0  0  0  0  0  0  0  0  0  0  0
  140.9616  156.8091  137.1332 H   0  0  0  0  0  0  0  0  0  0  0  0
  140.2521  157.5552  135.6507 H   0  0  0  0  0  0  0  0  0  0  0  0
  140.6720  158.6900  133.8640 H   0  0  0  0  0  0  0  0  0  0  0  0
  144.4630  161.6344  133.3566 H   0  0  0  0  0  0  0  0  0  0  0  0
  147.1516  160.6987  133.0764 H   0  0  0  0  0  0  0  0  0  0  0  0
  148.5636  158.6187  133.1531 H   0  0  0  0  0  0  0  0  0  0  0  0
  148.2470  155.0187  135.3586 H   0  0  0  0  0  0  0  0  0  0  0  0
  146.4725  155.2496  135.1099 H   0  0  0  0  0  0  0  0  0  0  0  0
  147.8012  152.9109  134.5812 H   0  0  0  0  0  0  0  0  0  0  0  0
  146.2802  153.4615  133.7367 H   0  0  0  0  0  0  0  0  0  0  0  0
  147.3770  153.9770  131.8740 H   0  0  0  0  0  0  0  0  0  0  0  0
  148.5349  151.6525  133.1721 H   0  0  0  0  0  0  0  0  0  0  0  0
  147.5724  151.7968  131.6624 H   0  0  0  0  0  0  0  0  0  0  0  0
  149.3143  152.2354  131.6624 H   0  0  0  0  0  0  0  0  0  0  0  0
  149.8977  154.1953  133.4388 H   0  0  0  0  0  0  0  0  0  0  0  0
  149.7793  154.3358  131.6475 H   0  0  0  0  0  0  0  0  0  0  0  0
  149.7025  156.5218  133.1420 H   0  0  0  0  0  0  0  0  0  0  0  0
  148.5711  156.3422  131.7465 H   0  0  0  0  0  0  0  0  0  0  0  0
  145.0127  156.2359  133.9976 H   0  0  0  0  0  0  0  0  0  0  0  0
  1  2  1  0
  2  3  1  0
  3  4  1  0
  4  5  2  0
  4  6  1  0
  6  7  1  0
  7  8  1  0
  8  9  1  0
  8 10  2  0
  7 11  2  0
 11 12  1  0
 12 13  2  0
 13 14  1  0
 14 15  2  0
 15 16  1  0
 16 17  1  0
 17 18  1  0
 18 19  1  0
 19 20  1  0
 19 21  1  0
 21 22  1  0
 15 23  1  0
 23 24  2  0
 24  6  1  0
 24 12  1  0
 22 16  1  0
  1 25  1  0
  1 26  1  0
  1 27  1  0
  2 28  1  0
  2 29  1  0
  9 30  1  0
 11 31  1  0
 13 32  1  0
 14 33  1  0
 17 34  1  0
 17 35  1  0
 18 36  1  0
 18 37  1  0
 19 38  1  0
 20 39  1  0
 20 40  1  0
 20 41  1  0
 21 42  1  0
 21 43  1  0
 22 44  1  0
 22 45  1  0
 23 46  1  0
M  CHG  2   9  -1  19   1
M  END
>  <UniqueID>  (75) 
75

>  <SMILES>  (75) 
CCOC(=O)n1c(C([NH-])=O)cc2ccc(N3CC[NH+](C)CC3)cc21

>  <Energy>  (75) 
91.57307919298422

>  <Genealogy>  (75) 
CCOC(=O)n1c(C([NH-])=O)cc2ccc(N3CC[NH+](C)CC3)cc21 (protonated)
CCOC(=O)n1c(C([NH-])=O)cc2ccc(N3CC[NH+](C)CC3)cc21 (3D coordinates assigned)
CCOC(=O)n1c(C([NH-])=O)cc2ccc(N3CC[NH+](C)CC3)cc21 (nonaromatic ring conformer: 91.57307919298422 kcal/mol)

>  <smiles>  (75) 
CCOC(=O)n1c(C(N)=O)cc2ccc(N3CCN(C)CC3)cc21

>  <score_type>  (75) 
oracle

>  <origin>  (75) 
adg

>  <m_score__min__energy>  (75) 
-6.4400000000000004

>  <m_primary>  (75) 
energy

$$$$
76:0
     RDKit          3D

 51 52  0  0  0  0  0  0  0  0999 V2000
  142.0070  156.3410  136.2550 C   0  0  0  0  0  0  0  0  0  0  0  0
  142.2340  156.4600  134.8090 N   0  0  0  0  0  0  0  0  0  0  0  0
  141.4730  155.5870  133.8940 C   0  0  0  0  0  0  0  0  0  0  0  0
  140.3620  156.3710  133.1740 C   0  0  1  0  0  0  0  0  0  0  0  0
  139.4550  155.4610  132.6080 O   0  0  0  0  0  0  0  0  0  0  0  0
  139.6200  157.3000  134.1480 C   0  0  0  0  0  0  0  0  0  0  0  0
  138.3150  157.5550  133.7020 O   0  0  0  0  0  0  0  0  0  0  0  0
  143.1880  157.4360  134.3100 C   0  0  0  0  0  0  0  0  0  0  0  0
  142.8300  158.8090  134.2170 C   0  0  0  0  0  0  0  0  0  0  0  0
  143.7440  159.7660  133.7540 C   0  0  0  0  0  0  0  0  0  0  0  0
  145.0110  159.3340  133.3800 C   0  0  0  0  0  0  0  0  0  0  0  0
  146.0850  160.0610  132.9320 C   0  0  0  0  0  0  0  0  0  0  0  0
  147.1020  159.1340  132.7470 C   0  0  0  0  0  0  0  0  0  0  0  0
  148.4580  159.5200  132.3230 C   0  0  0  0  0  0  0  0  0  0  0  0
  149.6070  158.9920  132.9860 N   0  0  0  0  0  0  0  0  0  0  0  0
  148.6040  160.3800  131.4150 O   0  0  0  0  0  0  0  0  0  0  0  0
  146.6750  157.8700  133.0360 N   0  0  0  0  0  0  0  0  0  0  0  0
  147.3980  156.6350  132.8280 C   0  0  0  0  0  0  0  0  0  0  0  0
  148.6560  156.6220  132.8850 O   0  0  0  0  0  0  0  0  0  0  0  0
  146.7030  155.4580  132.5170 O   0  0  0  0  0  0  0  0  0  0  0  0
  146.7410  154.2190  133.2390 C   0  0  0  0  0  0  0  0  0  0  0  0
  146.6830  154.5670  134.7340 C   0  0  0  0  0  0  0  0  0  0  0  0
  148.0540  153.4670  132.9540 C   0  0  0  0  0  0  0  0  0  0  0  0
  145.5230  153.3450  132.8830 C   0  0  0  0  0  0  0  0  0  0  0  0
  145.3860  158.0150  133.4410 C   0  0  0  0  0  0  0  0  0  0  0  0
  144.4910  157.0420  133.9110 C   0  0  0  0  0  0  0  0  0  0  0  0
  142.8547  156.7854  136.7970 H   0  0  0  0  0  0  0  0  0  0  0  0
  141.0811  156.8697  136.5255 H   0  0  0  0  0  0  0  0  0  0  0  0
  141.9152  155.2788  136.5255 H   0  0  0  0  0  0  0  0  0  0  0  0
  142.1598  155.1672  133.1443 H   0  0  0  0  0  0  0  0  0  0  0  0
  141.0069  154.7846  134.4847 H   0  0  0  0  0  0  0  0  0  0  0  0
  140.8187  156.9923  132.3896 H   0  0  0  0  0  0  0  0  0  0  0  0
  138.6920  155.9940  132.2600 H   0  0  0  0  0  0  0  0  0  0  0  0
  139.5752  156.8220  135.1377 H   0  0  0  0  0  0  0  0  0  0  0  0
  140.1639  158.2544  134.2059 H   0  0  0  0  0  0  0  0  0  0  0  0
  137.9590  156.6950  133.3570 H   0  0  0  0  0  0  0  0  0  0  0  0
  141.8191  159.1256  134.5133 H   0  0  0  0  0  0  0  0  0  0  0  0
  143.4663  160.8284  133.6886 H   0  0  0  0  0  0  0  0  0  0  0  0
  146.1306  161.1460  132.7569 H   0  0  0  0  0  0  0  0  0  0  0  0
  149.5030  158.3590  133.8110 H   0  0  0  0  0  0  0  0  0  0  0  0
  150.5660  159.2740  132.6850 H   0  0  0  0  0  0  0  0  0  0  0  0
  146.8351  153.6544  135.3291 H   0  0  0  0  0  0  0  0  0  0  0  0
  147.4721  155.2955  134.9718 H   0  0  0  0  0  0  0  0  0  0  0  0
  145.7003  155.0002  134.9718 H   0  0  0  0  0  0  0  0  0  0  0  0
  148.5333  153.1925  133.9053 H   0  0  0  0  0  0  0  0  0  0  0  0
  147.8370  152.5562  132.3765 H   0  0  0  0  0  0  0  0  0  0  0  0
  148.7298  154.1150  132.3765 H   0  0  0  0  0  0  0  0  0  0  0  0
  145.0385  152.9973  133.8073 H   0  0  0  0  0  0  0  0  0  0  0  0
  144.8069  153.9366  132.2938 H   0  0  0  0  0  0  0  0  0  0  0  0
  145.8541  152.4771  132.2938 H   0  0  0  0  0  0  0  0  0  0  0  0
  144.7960  155.9867  133.9693 H   0  0  0  0  0  0  0  0  0  0  0  0
  1  2  1  0
  2  3  1  0
  3  4  1  0
  4  5  1  0
  4  6  1  0
  6  7  1  0
  2  8  1  0
  8  9  2  0
  9 10  1  0
 10 11  2  0
 11 12  1  0
 12 13  2  0
 13 14  1  0
 14 15  1  0
 14 16  2  0
 13 17  1  0
 17 18  1  0
 18 19  2  0
 18 20  1  0
 20 21  1  0
 21 22  1  0
 21 23  1  0
 21 24  1  0
 17 25  1  0
 25 26  2  0
 26  8  1  0
 25 11  1  0
  1 27  1  0
  1 28  1  0
  1 29  1  0
  3 30  1  0
  3 31  1  0
  4 32  1  6
  5 33  1  0
  6 34  1  0
  6 35  1  0
  7 36  1  0
  9 37  1  0
 10 38  1  0
 12 39  1  0
 15 40  1  0
 15 41  1  0
 22 42  1  0
 22 43  1  0
 22 44  1  0
 23 45  1  0
 23 46  1  0
 23 47  1  0
 24 48  1  0
 24 49  1  0
 24 50  1  0
 26 51  1  0
M  END
>  <UniqueID>  (76) 
76

>  <SMILES>  (76) 
CN(C[C@@H](O)CO)c1ccc2cc(C(N)=O)n(C(=O)OC(C)(C)C)c2c1

>  <Energy>  (76) 
85.39563426966156

>  <Genealogy>  (76) 
CN(C[C@@H](O)CO)c1ccc2cc(C(N)=O)n(C(=O)OC(C)(C)C)c2c1 (chirality)
CN(C[C@@H](O)CO)c1ccc2cc(C(N)=O)n(C(=O)OC(C)(C)C)c2c1 (3D coordinates assigned)
CN(C[C@@H](O)CO)c1ccc2cc(C(N)=O)n(C(=O)OC(C)(C)C)c2c1 (optimized conformer: 85.39563426966156 kcal/mol)

>  <smiles>  (76) 
CN(CC(O)CO)c1ccc2cc(C(N)=O)n(C(=O)OC(C)(C)C)c2c1

>  <score_type>  (76) 
oracle

>  <origin>  (76) 
adg

>  <m_score__min__energy>  (76) 
-7.4400000000000004

>  <m_primary>  (76) 
energy

$$$$
77:0
     RDKit          3D

 30 32  0  0  0  0  0  0  0  0999 V2000
  148.7910  158.2140  131.7770 N   0  0  0  0  0  0  0  0  0  0  0  0
  148.3760  158.7740  133.0210 C   0  0  0  0  0  0  0  0  0  0  0  0
  149.2390  159.0240  133.9030 O   0  0  0  0  0  0  0  0  0  0  0  0
  146.9400  159.0130  133.2770 C   0  0  0  0  0  0  0  0  0  0  0  0
  146.3880  160.2840  133.4160 C   0  0  0  0  0  0  0  0  0  0  0  0
  145.0340  160.0810  133.5480 C   0  0  0  0  0  0  0  0  0  0  0  0
  144.0060  160.9990  133.7340 C   0  0  0  0  0  0  0  0  0  0  0  0
  142.6980  160.5060  133.8710 C   0  0  0  0  0  0  0  0  0  0  0  0
  142.4400  159.1130  133.8180 C   0  0  0  0  0  0  0  0  0  0  0  0
  141.0670  158.5900  133.9900 C   0  0  0  0  0  0  0  0  0  0  0  0
  140.2110  158.2080  132.9770 C   0  0  0  0  0  0  0  0  0  0  0  0
  139.0490  157.7860  133.5100 N   0  0  0  0  0  0  0  0  0  0  0  0
  139.1230  157.8970  134.8280 N   0  0  0  0  0  0  0  0  0  0  0  0
  140.3320  158.3940  135.1520 C   0  0  0  0  0  0  0  0  0  0  0  0
  140.7440  158.6770  136.5670 C   0  0  0  0  0  0  0  0  0  0  0  0
  142.0630  158.3030  136.7520 F   0  0  0  0  0  0  0  0  0  0  0  0
  140.6240  160.0280  136.8260 F   0  0  0  0  0  0  0  0  0  0  0  0
  139.9590  157.9620  137.4530 F   0  0  0  0  0  0  0  0  0  0  0  0
  143.5130  158.2110  133.6450 C   0  0  0  0  0  0  0  0  0  0  0  0
  144.8040  158.7300  133.4930 C   0  0  0  0  0  0  0  0  0  0  0  0
  145.9670  158.0590  133.3290 N   0  0  0  0  0  0  0  0  0  0  0  0
  146.1320  156.6310  133.2980 C   0  0  0  0  0  0  0  0  0  0  0  0
  146.9070  156.1000  132.4600 O   0  0  0  0  0  0  0  0  0  0  0  0
  145.4190  155.8230  134.1740 O   0  0  0  0  0  0  0  0  0  0  0  0
  148.4840  157.2580  131.4910 H   0  0  0  0  0  0  0  0  0  0  0  0
  146.9215  161.2460  133.4195 H   0  0  0  0  0  0  0  0  0  0  0  0
  144.2112  162.0790  133.7726 H   0  0  0  0  0  0  0  0  0  0  0  0
  141.8648  161.2083  134.0211 H   0  0  0  0  0  0  0  0  0  0  0  0
  140.4421  158.2429  131.9021 H   0  0  0  0  0  0  0  0  0  0  0  0
  143.3380  157.1251  133.6301 H   0  0  0  0  0  0  0  0  0  0  0  0
  1  2  1  0
  2  3  2  0
  2  4  1  0
  4  5  2  0
  5  6  1  0
  6  7  2  0
  7  8  1  0
  8  9  2  0
  9 10  1  0
 10 11  1  0
 11 12  2  0
 12 13  1  0
 13 14  1  0
 14 15  1  0
 15 16  1  0
 15 17  1  0
 15 18  1  0
  9 19  1  0
 19 20  2  0
 20 21  1  0
 21 22  1  0
 22 23  2  0
 22 24  1  0
 21  4  1  0
 20  6  1  0
 14 10  2  0
  1 25  1  0
  5 26  1  0
  7 27  1  0
  8 28  1  0
 11 29  1  0
 19 30  1  0
M  CHG  3   1  -1  13  -1  24  -1
M  END
>  <UniqueID>  (77) 
77

>  <SMILES>  (77) 
[NH-]C(=O)c1cc2ccc(-c3cn[n-]c3C(F)(F)F)cc2n1C(=O)[O-]

>  <Energy>  (77) 
106.43362416142658

>  <Genealogy>  (77) 
[NH-]C(=O)c1cc2ccc(-c3cn[n-]c3C(F)(F)F)cc2n1C(=O)[O-] (protonated)
[NH-]C(=O)c1cc2ccc(-c3cn[n-]c3C(F)(F)F)cc2n1C(=O)[O-] (3D coordinates assigned)
[NH-]C(=O)c1cc2ccc(-c3cn[n-]c3C(F)(F)F)cc2n1C(=O)[O-] (optimized conformer: 106.43362416142658 kcal/mol)

>  <smiles>  (77) 
NC(=O)c1cc2ccc(-c3cn[nH]c3C(F)(F)F)cc2n1C(=O)O

>  <score_type>  (77) 
oracle

>  <origin>  (77) 
adg

>  <m_score__min__energy>  (77) 
-6.2199999999999998

>  <m_primary>  (77) 
energy

$$$$
78:0
     RDKit          3D

 34 36  0  0  0  0  0  0  0  0999 V2000
  138.3780  157.0120  133.4840 N   0  0  0  0  0  0  0  0  0  0  0  0
  139.1450  157.7810  134.4130 C   0  0  0  0  0  0  0  0  0  0  0  0
  138.5880  158.2340  135.4470 O   0  0  0  0  0  0  0  0  0  0  0  0
  140.5610  158.1060  134.1490 C   0  0  0  0  0  0  0  0  0  0  0  0
  141.0890  159.3870  134.2870 C   0  0  0  0  0  0  0  0  0  0  0  0
  142.4020  159.2820  133.8930 C   0  0  0  0  0  0  0  0  0  0  0  0
  143.3980  160.2500  133.8450 C   0  0  0  0  0  0  0  0  0  0  0  0
  144.6820  159.8550  133.4340 C   0  0  0  0  0  0  0  0  0  0  0  0
  144.9540  158.5070  133.0910 C   0  0  0  0  0  0  0  0  0  0  0  0
  146.2880  158.1430  132.6900 N   0  0  0  0  0  0  0  0  0  0  0  0
  147.4920  158.6990  133.3100 C   0  0  0  0  0  0  0  0  0  0  0  0
  148.3650  159.3500  132.2810 C   0  0  0  0  0  0  0  0  0  0  0  0
  149.5370  158.8460  131.7600 C   0  0  0  0  0  0  0  0  0  0  0  0
  149.9300  159.7520  130.7960 C   0  0  0  0  0  0  0  0  0  0  0  0
  149.0560  160.7310  130.7220 O   0  0  0  0  0  0  0  0  0  0  0  0
  148.0980  160.5170  131.5950 C   0  0  0  0  0  0  0  0  0  0  0  0
  143.9110  157.5490  133.1560 C   0  0  0  0  0  0  0  0  0  0  0  0
  142.6350  157.9760  133.5460 C   0  0  0  0  0  0  0  0  0  0  0  0
  141.5110  157.2380  133.7010 N   0  0  0  0  0  0  0  0  0  0  0  0
  141.3880  155.8140  133.5410 C   0  0  0  0  0  0  0  0  0  0  0  0
  142.2820  155.0460  133.9840 O   0  0  0  0  0  0  0  0  0  0  0  0
  140.2850  155.2700  132.8960 O   0  0  0  0  0  0  0  0  0  0  0  0
  138.7580  156.7680  132.5430 H   0  0  0  0  0  0  0  0  0  0  0  0
  137.3900  156.7590  133.7050 H   0  0  0  0  0  0  0  0  0  0  0  0
  140.5671  160.2900  134.6366 H   0  0  0  0  0  0  0  0  0  0  0  0
  143.1873  161.2939  134.1205 H   0  0  0  0  0  0  0  0  0  0  0  0
  145.4873  160.6022  133.3776 H   0  0  0  0  0  0  0  0  0  0  0  0
  146.3960  157.4420  131.9200 H   0  0  0  0  0  0  0  0  0  0  0  0
  147.1988  159.4477  134.0607 H   0  0  0  0  0  0  0  0  0  0  0  0
  148.0546  157.8820  133.7854 H   0  0  0  0  0  0  0  0  0  0  0  0
  150.0507  157.9178  132.0509 H   0  0  0  0  0  0  0  0  0  0  0  0
  150.8385  159.6675  130.1816 H   0  0  0  0  0  0  0  0  0  0  0  0
  147.2230  161.1645  131.7537 H   0  0  0  0  0  0  0  0  0  0  0  0
  144.0993  156.4945  132.9059 H   0  0  0  0  0  0  0  0  0  0  0  0
  1  2  1  0
  2  3  2  0
  2  4  1  0
  4  5  2  0
  5  6  1  0
  6  7  2  0
  7  8  1  0
  8  9  2  0
  9 10  1  0
 10 11  1  0
 11 12  1  0
 12 13  1  0
 13 14  2  0
 14 15  1  0
 15 16  1  0
  9 17  1  0
 17 18  2  0
 18 19  1  0
 19 20  1  0
 20 21  2  0
 20 22  1  0
 19  4  1  0
 18  6  1  0
 16 12  2  0
  1 23  1  0
  1 24  1  0
  5 25  1  0
  7 26  1  0
  8 27  1  0
 10 28  1  0
 11 29  1  0
 11 30  1  0
 13 31  1  0
 14 32  1  0
 16 33  1  0
 17 34  1  0
M  CHG  1  22  -1
M  END
>  <UniqueID>  (78) 
78

>  <SMILES>  (78) 
NC(=O)c1cc2ccc(NCc3ccoc3)cc2n1C(=O)[O-]

>  <Energy>  (78) 
101.76843345141896

>  <Genealogy>  (78) 
NC(=O)c1cc2ccc(NCc3ccoc3)cc2n1C(=O)[O-] (protonated)
NC(=O)c1cc2ccc(NCc3ccoc3)cc2n1C(=O)[O-] (3D coordinates assigned)
NC(=O)c1cc2ccc(NCc3ccoc3)cc2n1C(=O)[O-] (optimized conformer: 101.76843345141896 kcal/mol)

>  <smiles>  (78) 
NC(=O)c1cc2ccc(NCc3ccoc3)cc2n1C(=O)O

>  <score_type>  (78) 
oracle

>  <origin>  (78) 
adg

>  <m_score__min__energy>  (78) 
-7.1900000000000004

>  <m_primary>  (78) 
energy

$$$$
79:0
     RDKit          3D

 41 43  0  0  0  0  0  0  0  0999 V2000
  141.9680  155.6780  134.1170 C   0  0  0  0  0  0  0  0  0  0  0  0
  142.7270  156.7240  133.3640 C   0  0  0  0  0  0  0  0  0  0  0  0
  143.2660  156.4240  132.2650 O   0  0  0  0  0  0  0  0  0  0  0  0
  142.7770  158.0800  133.8360 N   0  0  0  0  0  0  0  0  0  0  0  0
  141.7770  158.8130  134.4010 C   0  0  0  0  0  0  0  0  0  0  0  0
  140.4430  158.3090  134.7860 C   0  0  0  0  0  0  0  0  0  0  0  0
  139.9520  158.4720  136.1140 N   0  0  0  0  0  0  0  0  0  0  0  0
  139.7070  157.7630  133.9210 O   0  0  0  0  0  0  0  0  0  0  0  0
  142.2110  160.1140  134.6540 C   0  0  0  0  0  0  0  0  0  0  0  0
  143.5210  160.1500  134.2340 C   0  0  0  0  0  0  0  0  0  0  0  0
  144.4410  161.1930  134.2470 C   0  0  0  0  0  0  0  0  0  0  0  0
  145.7260  160.9450  133.7370 C   0  0  0  0  0  0  0  0  0  0  0  0
  146.0690  159.6680  133.2230 C   0  0  0  0  0  0  0  0  0  0  0  0
  147.4300  159.4190  132.6910 C   0  0  0  0  0  0  0  0  0  0  0  0
  148.1310  160.4640  132.0680 C   0  0  0  0  0  0  0  0  0  0  0  0
  149.3830  160.2340  131.5020 C   0  0  0  0  0  0  0  0  0  0  0  0
  149.9350  158.9550  131.5590 C   0  0  0  0  0  0  0  0  0  0  0  0
  149.2590  157.9520  132.1770 N   0  0  0  0  0  0  0  0  0  0  0  0
  148.0390  158.1420  132.7510 C   0  0  0  0  0  0  0  0  0  0  0  0
  147.4050  157.0400  133.4230 N   0  0  0  0  0  0  0  0  0  0  0  0
  146.8520  155.9470  132.6270 C   0  0  0  0  0  0  0  0  0  0  0  0
  147.6800  156.7970  134.8400 C   0  0  0  0  0  0  0  0  0  0  0  0
  145.1000  158.6370  133.2150 C   0  0  0  0  0  0  0  0  0  0  0  0
  143.8360  158.9090  133.7460 C   0  0  0  0  0  0  0  0  0  0  0  0
  142.0886  155.8442  135.1977 H   0  0  0  0  0  0  0  0  0  0  0  0
  140.9017  155.7378  133.8536 H   0  0  0  0  0  0  0  0  0  0  0  0
  142.3556  154.6828  133.8536 H   0  0  0  0  0  0  0  0  0  0  0  0
  139.4540  159.3430  136.4000 H   0  0  0  0  0  0  0  0  0  0  0  0
  141.6296  160.9368  135.0956 H   0  0  0  0  0  0  0  0  0  0  0  0
  144.1704  162.1823  134.6447 H   0  0  0  0  0  0  0  0  0  0  0  0
  146.4752  161.7504  133.7361 H   0  0  0  0  0  0  0  0  0  0  0  0
  147.6889  161.4704  132.0266 H   0  0  0  0  0  0  0  0  0  0  0  0
  149.9310  161.0539  131.0146 H   0  0  0  0  0  0  0  0  0  0  0  0
  150.9170  158.7584  131.1040 H   0  0  0  0  0  0  0  0  0  0  0  0
  146.4581  155.1684  133.2968 H   0  0  0  0  0  0  0  0  0  0  0  0
  146.0394  156.3303  131.9924 H   0  0  0  0  0  0  0  0  0  0  0  0
  147.6422  155.5193  131.9924 H   0  0  0  0  0  0  0  0  0  0  0  0
  146.9965  157.4009  135.4550 H   0  0  0  0  0  0  0  0  0  0  0  0
  147.5303  155.7307  135.0650 H   0  0  0  0  0  0  0  0  0  0  0  0
  148.7198  157.0768  135.0650 H   0  0  0  0  0  0  0  0  0  0  0  0
  145.3357  157.6455  132.8010 H   0  0  0  0  0  0  0  0  0  0  0  0
  1  2  1  0
  2  3  2  0
  2  4  1  0
  4  5  1  0
  5  6  1  0
  6  7  1  0
  6  8  2  0
  5  9  2  0
  9 10  1  0
 10 11  2  0
 11 12  1  0
 12 13  2  0
 13 14  1  0
 14 15  2  0
 15 16  1  0
 16 17  2  0
 17 18  1  0
 18 19  2  0
 19 20  1  0
 20 21  1  0
 20 22  1  0
 13 23  1  0
 23 24  2  0
 24  4  1  0
 24 10  1  0
 19 14  1  0
  1 25  1  0
  1 26  1  0
  1 27  1  0
  7 28  1  0
  9 29  1  0
 11 30  1  0
 12 31  1  0
 15 32  1  0
 16 33  1  0
 17 34  1  0
 21 35  1  0
 21 36  1  0
 21 37  1  0
 22 38  1  0
 22 39  1  0
 22 40  1  0
 23 41  1  0
M  CHG  1   7  -1
M  END
>  <UniqueID>  (79) 
79

>  <SMILES>  (79) 
CC(=O)n1c(C([NH-])=O)cc2ccc(-c3cccnc3N(C)C)cc21

>  <Energy>  (79) 
91.50004163912372

>  <Genealogy>  (79) 
CC(=O)n1c(C([NH-])=O)cc2ccc(-c3cccnc3N(C)C)cc21 (protonated)
CC(=O)n1c(C([NH-])=O)cc2ccc(-c3cccnc3N(C)C)cc21 (3D coordinates assigned)
CC(=O)n1c(C([NH-])=O)cc2ccc(-c3cccnc3N(C)C)cc21 (optimized conformer: 91.50004163912372 kcal/mol)

>  <smiles>  (79) 
CC(=O)n1c(C(N)=O)cc2ccc(-c3cccnc3N(C)C)cc21

>  <score_type>  (79) 
oracle

>  <origin>  (79) 
adg

>  <m_score__min__energy>  (79) 
-7.5800000000000001

>  <m_primary>  (79) 
energy

$$$$
80:0
     RDKit          3D

 37 38  0  0  0  0  0  0  0  0999 V2000
  139.1590  157.8240  132.4440 C   0  0  0  0  0  0  0  0  0  0  0  0
  139.5720  156.8680  133.5520 C   0  0  0  0  0  0  0  0  0  0  0  0
  140.4990  155.9180  133.0390 O   0  0  0  0  0  0  0  0  0  0  0  0
  140.2530  154.5420  133.0400 C   0  0  0  0  0  0  0  0  0  0  0  0
  139.0680  154.1110  132.9730 O   0  0  0  0  0  0  0  0  0  0  0  0
  141.3530  153.6210  133.1220 N   0  0  0  0  0  0  0  0  0  0  0  0
  142.6570  153.9180  133.3820 C   0  0  0  0  0  0  0  0  0  0  0  0
  143.1780  155.2340  133.8010 C   0  0  0  0  0  0  0  0  0  0  0  0
  143.0130  156.3910  132.9810 N   0  0  0  0  0  0  0  0  0  0  0  0
  143.7300  155.3510  134.9280 O   0  0  0  0  0  0  0  0  0  0  0  0
  143.4560  152.7860  133.2490 C   0  0  0  0  0  0  0  0  0  0  0  0
  142.5930  151.7700  132.9090 C   0  0  0  0  0  0  0  0  0  0  0  0
  142.8530  150.4280  132.6470 C   0  0  0  0  0  0  0  0  0  0  0  0
  141.7720  149.6070  132.2860 C   0  0  0  0  0  0  0  0  0  0  0  0
  140.4640  150.1410  132.1770 C   0  0  0  0  0  0  0  0  0  0  0  0
  139.3120  149.2430  131.8080 C   0  0  0  0  0  0  0  0  0  0  0  0
  139.7790  148.0200  131.0070 C   0  0  0  0  0  0  0  0  0  0  0  0
  138.9340  147.8020  129.7890 C   0  0  0  0  0  0  0  0  0  0  0  0
  138.3380  148.7700  129.2490 O   0  0  0  0  0  0  0  0  0  0  0  0
  138.7720  146.5210  129.2760 O   0  0  0  0  0  0  0  0  0  0  0  0
  140.2380  151.5070  132.4550 C   0  0  0  0  0  0  0  0  0  0  0  0
  141.3290  152.2990  132.8340 C   0  0  0  0  0  0  0  0  0  0  0  0
  138.7597  158.7483  132.8871 H   0  0  0  0  0  0  0  0  0  0  0  0
  140.0337  158.0639  131.8217 H   0  0  0  0  0  0  0  0  0  0  0  0
  138.3848  157.3515  131.8217 H   0  0  0  0  0  0  0  0  0  0  0  0
  140.0425  157.4350  134.3688 H   0  0  0  0  0  0  0  0  0  0  0  0
  138.6834  156.3436  133.9334 H   0  0  0  0  0  0  0  0  0  0  0  0
  142.4170  156.3630  132.1240 H   0  0  0  0  0  0  0  0  0  0  0  0
  143.4250  157.3040  133.2730 H   0  0  0  0  0  0  0  0  0  0  0  0
  144.5453  152.7182  133.3864 H   0  0  0  0  0  0  0  0  0  0  0  0
  143.8731  150.0230  132.7204 H   0  0  0  0  0  0  0  0  0  0  0  0
  141.9425  148.5389  132.0859 H   0  0  0  0  0  0  0  0  0  0  0  0
  138.8192  148.8987  132.7292 H   0  0  0  0  0  0  0  0  0  0  0  0
  138.6162  149.8187  131.1800 H   0  0  0  0  0  0  0  0  0  0  0  0
  140.8222  148.1752  130.6945 H   0  0  0  0  0  0  0  0  0  0  0  0
  139.6893  147.1327  131.6509 H   0  0  0  0  0  0  0  0  0  0  0  0
  139.2293  151.9385  132.3758 H   0  0  0  0  0  0  0  0  0  0  0  0
  1  2  1  0
  2  3  1  0
  3  4  1  0
  4  5  2  0
  4  6  1  0
  6  7  1  0
  7  8  1  0
  8  9  1  0
  8 10  2  0
  7 11  2  0
 11 12  1  0
 12 13  2  0
 13 14  1  0
 14 15  2  0
 15 16  1  0
 16 17  1  0
 17 18  1  0
 18 19  2  0
 18 20  1  0
 15 21  1  0
 21 22  2  0
 22  6  1  0
 22 12  1  0
  1 23  1  0
  1 24  1  0
  1 25  1  0
  2 26  1  0
  2 27  1  0
  9 28  1  0
  9 29  1  0
 11 30  1  0
 13 31  1  0
 14 32  1  0
 16 33  1  0
 16 34  1  0
 17 35  1  0
 17 36  1  0
 21 37  1  0
M  CHG  1  20  -1
M  END
>  <UniqueID>  (80) 
80

>  <SMILES>  (80) 
CCOC(=O)n1c(C(N)=O)cc2ccc(CCC(=O)[O-])cc21

>  <Energy>  (80) 
67.56013336553987

>  <Genealogy>  (80) 
CCOC(=O)n1c(C(N)=O)cc2ccc(CCC(=O)[O-])cc21 (protonated)
CCOC(=O)n1c(C(N)=O)cc2ccc(CCC(=O)[O-])cc21 (3D coordinates assigned)
CCOC(=O)n1c(C(N)=O)cc2ccc(CCC(=O)[O-])cc21 (optimized conformer: 67.56013336553987 kcal/mol)

>  <smiles>  (80) 
CCOC(=O)n1c(C(N)=O)cc2ccc(CCC(=O)O)cc21

>  <score_type>  (80) 
oracle

>  <origin>  (80) 
adg

>  <m_score__min__energy>  (80) 
-6.7699999999999996

>  <m_primary>  (80) 
energy

$$$$
81:0
     RDKit          3D

 37 39  0  0  0  0  0  0  0  0999 V2000
  147.3600  155.3480  132.0410 N   0  0  0  0  0  0  0  0  0  0  0  0
  146.2320  155.5790  132.8870 C   0  0  0  0  0  0  0  0  0  0  0  0
  145.6540  154.5950  133.4190 O   0  0  0  0  0  0  0  0  0  0  0  0
  145.7210  156.9490  133.1090 C   0  0  0  0  0  0  0  0  0  0  0  0
  144.3680  157.2650  133.2310 C   0  0  0  0  0  0  0  0  0  0  0  0
  144.3320  158.6080  133.5260 C   0  0  0  0  0  0  0  0  0  0  0  0
  143.2430  159.4460  133.7500 C   0  0  0  0  0  0  0  0  0  0  0  0
  143.4990  160.8010  134.0160 C   0  0  0  0  0  0  0  0  0  0  0  0
  144.8270  161.2940  134.0370 C   0  0  0  0  0  0  0  0  0  0  0  0
  145.0880  162.7440  134.3430 C   0  0  0  0  0  0  0  0  0  0  0  0
  144.0310  163.6080  133.7270 C   0  0  0  0  0  0  0  0  0  0  0  0
  144.3370  164.5190  132.9760 O   0  0  0  0  0  0  0  0  0  0  0  0
  145.9080  160.4110  133.8170 C   0  0  0  0  0  0  0  0  0  0  0  0
  145.6240  159.0620  133.5720 C   0  0  0  0  0  0  0  0  0  0  0  0
  146.4890  158.0560  133.3170 N   0  0  0  0  0  0  0  0  0  0  0  0
  147.9180  158.1670  133.2100 C   0  0  0  0  0  0  0  0  0  0  0  0
  148.6230  158.1870  134.2540 O   0  0  0  0  0  0  0  0  0  0  0  0
  148.5330  158.2260  131.9170 N   0  0  0  0  0  0  0  0  0  0  0  0
  148.8990  159.4120  131.1960 C   0  0  0  0  0  0  0  0  0  0  0  0
  149.6180  159.3670  129.9890 C   0  0  0  0  0  0  0  0  0  0  0  0
  149.9680  160.5540  129.3430 C   0  0  0  0  0  0  0  0  0  0  0  0
  149.6100  161.7760  129.9140 C   0  0  0  0  0  0  0  0  0  0  0  0
  148.9350  161.8030  131.0940 N   0  0  0  0  0  0  0  0  0  0  0  0
  148.5830  160.6600  131.7430 C   0  0  0  0  0  0  0  0  0  0  0  0
  147.8960  156.1400  131.6240 H   0  0  0  0  0  0  0  0  0  0  0  0
  147.6880  154.3740  131.8600 H   0  0  0  0  0  0  0  0  0  0  0  0
  143.5114  156.5845  133.1158 H   0  0  0  0  0  0  0  0  0  0  0  0
  142.2139  159.0587  133.7196 H   0  0  0  0  0  0  0  0  0  0  0  0
  142.6604  161.4860  134.2099 H   0  0  0  0  0  0  0  0  0  0  0  0
  145.0852  162.8902  135.4332 H   0  0  0  0  0  0  0  0  0  0  0  0
  146.0659  163.0255  133.9254 H   0  0  0  0  0  0  0  0  0  0  0  0
  142.9712  163.4196  133.9535 H   0  0  0  0  0  0  0  0  0  0  0  0
  146.9461  160.7741  133.8377 H   0  0  0  0  0  0  0  0  0  0  0  0
  149.9044  158.3980  129.5542 H   0  0  0  0  0  0  0  0  0  0  0  0
  150.5210  160.5264  128.3925 H   0  0  0  0  0  0  0  0  0  0  0  0
  149.8739  162.7172  129.4095 H   0  0  0  0  0  0  0  0  0  0  0  0
  148.0475  160.7177  132.7021 H   0  0  0  0  0  0  0  0  0  0  0  0
  1  2  1  0
  2  3  2  0
  2  4  1  0
  4  5  2  0
  5  6  1  0
  6  7  2  0
  7  8  1  0
  8  9  2  0
  9 10  1  0
 10 11  1  0
 11 12  2  0
  9 13  1  0
 13 14  2  0
 14 15  1  0
 15 16  1  0
 16 17  2  0
 16 18  1  0
 18 19  1  0
 19 20  2  0
 20 21  1  0
 21 22  2  0
 22 23  1  0
 23 24  2  0
 15  4  1  0
 24 19  1  0
 14  6  1  0
  1 25  1  0
  1 26  1  0
  5 27  1  0
  7 28  1  0
  8 29  1  0
 10 30  1  0
 10 31  1  0
 11 32  1  0
 13 33  1  0
 20 34  1  0
 21 35  1  0
 22 36  1  0
 24 37  1  0
M  CHG  1  18  -1
M  END
>  <UniqueID>  (81) 
81

>  <SMILES>  (81) 
NC(=O)c1cc2ccc(CC=O)cc2n1C(=O)[N-]c1cccnc1

>  <Energy>  (81) 
80.88872738840338

>  <Genealogy>  (81) 
NC(=O)c1cc2ccc(CC=O)cc2n1C(=O)[N-]c1cccnc1 (protonated)
NC(=O)c1cc2ccc(CC=O)cc2n1C(=O)[N-]c1cccnc1 (3D coordinates assigned)
NC(=O)c1cc2ccc(CC=O)cc2n1C(=O)[N-]c1cccnc1 (optimized conformer: 80.88872738840338 kcal/mol)

>  <smiles>  (81) 
NC(=O)c1cc2ccc(CC=O)cc2n1C(=O)Nc1cccnc1

>  <score_type>  (81) 
oracle

>  <origin>  (81) 
adg

>  <m_score__min__energy>  (81) 
-7.9100000000000001

>  <m_primary>  (81) 
energy

$$$$
82:0
     RDKit          3D

 30 32  0  0  0  0  0  0  0  0999 V2000
  141.7250  160.6090  133.8450 N   0  0  0  0  0  0  0  0  0  0  0  0
  142.6270  159.7990  134.5940 C   0  0  0  0  0  0  0  0  0  0  0  0
  142.2890  159.3980  135.7400 O   0  0  0  0  0  0  0  0  0  0  0  0
  143.9700  159.4730  134.0720 C   0  0  0  0  0  0  0  0  0  0  0  0
  144.3700  158.1790  133.7450 C   0  0  0  0  0  0  0  0  0  0  0  0
  145.6940  158.2850  133.3900 C   0  0  0  0  0  0  0  0  0  0  0  0
  146.5870  157.3070  132.9640 C   0  0  0  0  0  0  0  0  0  0  0  0
  147.8920  157.7040  132.6330 C   0  0  0  0  0  0  0  0  0  0  0  0
  148.2810  159.0680  132.7240 C   0  0  0  0  0  0  0  0  0  0  0  0
  149.6120  159.4940  132.3770 N   0  0  0  0  0  0  0  0  0  0  0  0
  149.9460  160.1010  131.0900 C   0  0  0  0  0  0  0  0  0  0  0  0
  149.1010  161.3210  130.7640 C   0  0  0  0  0  0  0  0  0  0  0  0
  148.8380  160.0020  130.0560 C   0  0  0  0  0  0  0  0  0  0  0  0
  147.3430  160.0300  133.1570 C   0  0  0  0  0  0  0  0  0  0  0  0
  146.0550  159.6030  133.5000 C   0  0  0  0  0  0  0  0  0  0  0  0
  145.0060  160.3470  133.9160 N   0  0  0  0  0  0  0  0  0  0  0  0
  144.9840  161.7750  134.0650 C   0  0  0  0  0  0  0  0  0  0  0  0
  143.9890  162.4420  133.6750 O   0  0  0  0  0  0  0  0  0  0  0  0
  146.0720  162.4390  134.6190 O   0  0  0  0  0  0  0  0  0  0  0  0
  142.0140  161.5480  133.4910 H   0  0  0  0  0  0  0  0  0  0  0  0
  143.7566  157.2662  133.7663 H   0  0  0  0  0  0  0  0  0  0  0  0
  146.2794  156.2536  132.8888 H   0  0  0  0  0  0  0  0  0  0  0  0
  148.6215  156.9513  132.2995 H   0  0  0  0  0  0  0  0  0  0  0  0
  150.3610  159.4440  133.1040 H   0  0  0  0  0  0  0  0  0  0  0  0
  151.0218  159.8719  131.1005 H   0  0  0  0  0  0  0  0  0  0  0  0
  148.3793  161.7032  131.5010 H   0  0  0  0  0  0  0  0  0  0  0  0
  149.3133  162.3500  130.4384 H   0  0  0  0  0  0  0  0  0  0  0  0
  147.9258  159.4296  130.2804 H   0  0  0  0  0  0  0  0  0  0  0  0
  148.7810  159.6810  129.0054 H   0  0  0  0  0  0  0  0  0  0  0  0
  147.6186  161.0928  133.2234 H   0  0  0  0  0  0  0  0  0  0  0  0
  1  2  1  0
  2  3  2  0
  2  4  1  0
  4  5  2  0
  5  6  1  0
  6  7  2  0
  7  8  1  0
  8  9  2  0
  9 10  1  0
 10 11  1  0
 11 12  1  0
 12 13  1  0
  9 14  1  0
 14 15  2  0
 15 16  1  0
 16 17  1  0
 17 18  2  0
 17 19  1  0
 16  4  1  0
 15  6  1  0
 13 11  1  0
  1 20  1  0
  5 21  1  0
  7 22  1  0
  8 23  1  0
 10 24  1  0
 11 25  1  0
 12 26  1  0
 12 27  1  0
 13 28  1  0
 13 29  1  0
 14 30  1  0
M  CHG  2   1  -1  19  -1
M  END
>  <UniqueID>  (82) 
82

>  <SMILES>  (82) 
[NH-]C(=O)c1cc2ccc(NC3CC3)cc2n1C(=O)[O-]

>  <Energy>  (82) 
335.37177195988363

>  <Genealogy>  (82) 
[NH-]C(=O)c1cc2ccc(NC3CC3)cc2n1C(=O)[O-] (protonated)
[NH-]C(=O)c1cc2ccc(NC3CC3)cc2n1C(=O)[O-] (3D coordinates assigned)
[NH-]C(=O)c1cc2ccc(NC3CC3)cc2n1C(=O)[O-] (nonaromatic ring conformer: 335.37177195988363 kcal/mol)

>  <smiles>  (82) 
NC(=O)c1cc2ccc(NC3CC3)cc2n1C(=O)O

>  <score_type>  (82) 
oracle

>  <origin>  (82) 
adg

>  <m_score__min__energy>  (82) 
-7.0800000000000001

>  <m_primary>  (82) 
energy

$$$$
83:0
     RDKit          3D

 37 38  0  0  0  0  0  0  0  0999 V2000
  146.9980  160.9250  133.4070 N   0  0  0  0  0  0  0  0  0  0  0  0
  146.0820  159.8520  133.1840 C   0  0  0  0  0  0  0  0  0  0  0  0
  144.8560  160.1050  133.0490 O   0  0  0  0  0  0  0  0  0  0  0  0
  146.5370  158.4470  133.1750 C   0  0  0  0  0  0  0  0  0  0  0  0
  145.7940  157.3990  133.7100 C   0  0  0  0  0  0  0  0  0  0  0  0
  146.5830  156.2820  133.5610 C   0  0  0  0  0  0  0  0  0  0  0  0
  146.3260  154.9570  133.9010 C   0  0  0  0  0  0  0  0  0  0  0  0
  147.3030  153.9970  133.5910 C   0  0  0  0  0  0  0  0  0  0  0  0
  148.5090  154.3750  132.9500 C   0  0  0  0  0  0  0  0  0  0  0  0
  149.5230  153.3280  132.5760 C   0  0  0  0  0  0  0  0  0  0  0  0
  149.2270  152.0110  133.3050 C   0  0  0  0  0  0  0  0  0  0  0  0
  149.3700  150.7770  132.3960 C   0  0  0  0  0  0  0  0  0  0  0  0
  150.6530  150.7370  131.5470 C   0  0  0  0  0  0  0  0  0  0  0  0
  150.4030  150.3770  130.0790 C   0  0  0  0  0  0  0  0  0  0  0  0
  151.1350  149.2610  129.7190 F   0  0  0  0  0  0  0  0  0  0  0  0
  148.7280  155.7280  132.6070 C   0  0  0  0  0  0  0  0  0  0  0  0
  147.7470  156.6680  132.9470 C   0  0  0  0  0  0  0  0  0  0  0  0
  147.7340  157.9980  132.7000 N   0  0  0  0  0  0  0  0  0  0  0  0
  148.7240  158.7470  131.9750 C   0  0  0  0  0  0  0  0  0  0  0  0
  148.9190  158.5280  130.7510 O   0  0  0  0  0  0  0  0  0  0  0  0
  149.4790  159.7220  132.6160 O   0  0  0  0  0  0  0  0  0  0  0  0
  146.6650  161.9140  133.3730 H   0  0  0  0  0  0  0  0  0  0  0  0
  147.9850  160.7400  133.6900 H   0  0  0  0  0  0  0  0  0  0  0  0
  144.7902  157.4524  134.1567 H   0  0  0  0  0  0  0  0  0  0  0  0
  145.3869  154.6707  134.3971 H   0  0  0  0  0  0  0  0  0  0  0  0
  147.1305  152.9415  133.8482 H   0  0  0  0  0  0  0  0  0  0  0  0
  149.4841  153.1576  131.4900 H   0  0  0  0  0  0  0  0  0  0  0  0
  150.5233  153.6801  132.8682 H   0  0  0  0  0  0  0  0  0  0  0  0
  149.9286  151.9103  134.1462 H   0  0  0  0  0  0  0  0  0  0  0  0
  148.1818  152.0503  133.6456 H   0  0  0  0  0  0  0  0  0  0  0  0
  149.3550  149.8806  133.0334 H   0  0  0  0  0  0  0  0  0  0  0  0
  148.5327  150.8222  131.6840 H   0  0  0  0  0  0  0  0  0  0  0  0
  151.1277  151.7285  131.5864 H   0  0  0  0  0  0  0  0  0  0  0  0
  151.2956  149.9499  131.9684 H   0  0  0  0  0  0  0  0  0  0  0  0
  149.3325  150.1687  129.9354 H   0  0  0  0  0  0  0  0  0  0  0  0
  150.7145  151.2231  129.4489 H   0  0  0  0  0  0  0  0  0  0  0  0
  149.6465  156.0356  132.0857 H   0  0  0  0  0  0  0  0  0  0  0  0
  1  2  1  0
  2  3  2  0
  2  4  1  0
  4  5  2  0
  5  6  1  0
  6  7  2  0
  7  8  1  0
  8  9  2  0
  9 10  1  0
 10 11  1  0
 11 12  1  0
 12 13  1  0
 13 14  1  0
 14 15  1  0
  9 16  1  0
 16 17  2  0
 17 18  1  0
 18 19  1  0
 19 20  2  0
 19 21  1  0
 18  4  1  0
 17  6  1  0
  1 22  1  0
  1 23  1  0
  5 24  1  0
  7 25  1  0
  8 26  1  0
 10 27  1  0
 10 28  1  0
 11 29  1  0
 11 30  1  0
 12 31  1  0
 12 32  1  0
 13 33  1  0
 13 34  1  0
 14 35  1  0
 14 36  1  0
 16 37  1  0
M  CHG  1  21  -1
M  END
>  <UniqueID>  (83) 
83

>  <SMILES>  (83) 
NC(=O)c1cc2ccc(CCCCCF)cc2n1C(=O)[O-]

>  <Energy>  (83) 
70.32262003804543

>  <Genealogy>  (83) 
NC(=O)c1cc2ccc(CCCCCF)cc2n1C(=O)[O-] (protonated)
NC(=O)c1cc2ccc(CCCCCF)cc2n1C(=O)[O-] (3D coordinates assigned)
NC(=O)c1cc2ccc(CCCCCF)cc2n1C(=O)[O-] (optimized conformer: 70.32262003804543 kcal/mol)

>  <smiles>  (83) 
NC(=O)c1cc2ccc(CCCCCF)cc2n1C(=O)O

>  <score_type>  (83) 
oracle

>  <origin>  (83) 
adg

>  <m_score__min__energy>  (83) 
-6.5700000000000003

>  <m_primary>  (83) 
energy

$$$$
84:0
     RDKit          3D

 58 62  0  0  0  0  0  0  0  0999 V2000
  139.5030  155.1880  133.0330 C   0  0  0  0  0  0  0  0  0  0  0  0
  139.6430  156.5140  133.0530 C   0  0  0  0  0  0  0  0  0  0  0  0
  140.9240  157.1680  133.3980 C   0  0  0  0  0  0  0  0  0  0  0  0
  141.9180  157.0460  132.6310 O   0  0  0  0  0  0  0  0  0  0  0  0
  141.0520  157.9510  134.6000 N   0  0  0  0  0  0  0  0  0  0  0  0
  141.2540  159.2990  134.6830 C   0  0  0  0  0  0  0  0  0  0  0  0
  141.1790  160.2530  133.5600 C   0  0  0  0  0  0  0  0  0  0  0  0
  140.8370  159.8110  132.2470 N   0  0  0  0  0  0  0  0  0  0  0  0
  141.3640  161.4830  133.7720 O   0  0  0  0  0  0  0  0  0  0  0  0
  141.5090  159.6820  135.9960 C   0  0  0  0  0  0  0  0  0  0  0  0
  141.4570  158.5210  136.7300 C   0  0  0  0  0  0  0  0  0  0  0  0
  141.6700  158.3170  138.0910 C   0  0  0  0  0  0  0  0  0  0  0  0
  141.6050  157.0020  138.5770 C   0  0  0  0  0  0  0  0  0  0  0  0
  141.3510  155.9210  137.6990 C   0  0  0  0  0  0  0  0  0  0  0  0
  141.2570  154.5430  138.2290 C   0  0  0  0  0  0  0  0  0  0  0  0
  140.3060  154.2820  139.2320 C   0  0  0  0  0  0  0  0  0  0  0  0
  140.2350  153.0230  139.8300 C   0  0  0  0  0  0  0  0  0  0  0  0
  141.1100  152.0100  139.4340 C   0  0  0  0  0  0  0  0  0  0  0  0
  141.0400  150.7870  140.0180 F   0  0  0  0  0  0  0  0  0  0  0  0
  142.0540  152.2510  138.4330 C   0  0  0  0  0  0  0  0  0  0  0  0
  142.1340  153.5090  137.8120 C   0  0  0  0  0  0  0  0  0  0  0  0
  143.1010  153.6850  136.7070 C   0  0  0  0  0  0  0  0  0  0  0  0
  144.0810  154.4730  136.8320 O   0  0  0  0  0  0  0  0  0  0  0  0
  142.8980  152.9980  135.5040 O   0  0  0  0  0  0  0  0  0  0  0  0
  141.8880  153.3530  134.5590 C   0  0  1  0  0  0  0  0  0  0  0  0
  142.5270  153.9090  133.2550 C   0  0  0  0  0  0  0  0  0  0  0  0
  142.4890  152.8930  132.2490 O   0  0  0  0  0  0  0  0  0  0  0  0
  142.2520  151.7410  133.0020 C   0  0  1  0  0  0  0  0  0  0  0  0
  141.2280  152.1350  133.9870 C   0  0  1  0  0  0  0  0  0  0  0  0
  140.9930  150.9820  134.7390 O   0  0  0  0  0  0  0  0  0  0  0  0
  140.9640  149.9630  133.7370 C   0  0  0  0  0  0  0  0  0  0  0  0
  141.6090  150.5110  132.4290 C   0  0  1  0  0  0  0  0  0  0  0  0
  140.6080  150.8340  131.4770 O   0  0  0  0  0  0  0  0  0  0  0  0
  139.4560  150.0540  131.7030 C   0  0  0  0  0  0  0  0  0  0  0  0
  141.1510  156.1620  136.3230 C   0  0  0  0  0  0  0  0  0  0  0  0
  141.1870  157.4870  135.8650 C   0  0  0  0  0  0  0  0  0  0  0  0
  138.5326  154.7413  132.7710 H   0  0  0  0  0  0  0  0  0  0  0  0
  140.3580  154.5409  133.2786 H   0  0  0  0  0  0  0  0  0  0  0  0
  138.7757  157.1433  132.8043 H   0  0  0  0  0  0  0  0  0  0  0  0
  141.3400  159.0120  131.8000 H   0  0  0  0  0  0  0  0  0  0  0  0
  141.7095  160.6977  136.3676 H   0  0  0  0  0  0  0  0  0  0  0  0
  141.8826  159.1605  138.7643 H   0  0  0  0  0  0  0  0  0  0  0  0
  141.7528  156.8096  139.6499 H   0  0  0  0  0  0  0  0  0  0  0  0
  139.6132  155.0761  139.5473 H   0  0  0  0  0  0  0  0  0  0  0  0
  139.4886  152.8287  140.6143 H   0  0  0  0  0  0  0  0  0  0  0  0
  142.7414  151.4483  138.1279 H   0  0  0  0  0  0  0  0  0  0  0  0
  141.2255  154.0408  135.1049 H   0  0  0  0  0  0  0  0  0  0  0  0
  141.9616  154.7883  132.9129 H   0  0  0  0  0  0  0  0  0  0  0  0
  143.5693  154.2031  133.4475 H   0  0  0  0  0  0  0  0  0  0  0  0
  143.2767  151.4475  133.2738 H   0  0  0  0  0  0  0  0  0  0  0  0
  140.2032  152.4321  133.7197 H   0  0  0  0  0  0  0  0  0  0  0  0
  141.5297  149.0869  134.0869 H   0  0  0  0  0  0  0  0  0  0  0  0
  139.9226  149.6686  133.5399 H   0  0  0  0  0  0  0  0  0  0  0  0
  142.2855  149.8309  131.8907 H   0  0  0  0  0  0  0  0  0  0  0  0
  139.2940  149.9443  132.7855 H   0  0  0  0  0  0  0  0  0  0  0  0
  138.5839  150.5482  131.2500 H   0  0  0  0  0  0  0  0  0  0  0  0
  139.5910  149.0608  131.2500 H   0  0  0  0  0  0  0  0  0  0  0  0
  140.9711  155.3302  135.6261 H   0  0  0  0  0  0  0  0  0  0  0  0
  1  2  2  0
  2  3  1  0
  3  4  2  0
  3  5  1  0
  5  6  1  0
  6  7  1  0
  7  8  1  0
  7  9  2  0
  6 10  2  0
 10 11  1  0
 11 12  2  0
 12 13  1  0
 13 14  2  0
 14 15  1  0
 15 16  2  0
 16 17  1  0
 17 18  2  0
 18 19  1  0
 18 20  1  0
 20 21  2  0
 21 22  1  0
 22 23  2  0
 22 24  1  0
 24 25  1  0
 25 26  1  0
 26 27  1  0
 27 28  1  0
 28 29  1  0
 29 30  1  0
 30 31  1  0
 31 32  1  0
 32 33  1  0
 33 34  1  0
 14 35  1  0
 35 36  2  0
 36  5  1  0
 36 11  1  0
 21 15  1  0
 29 25  1  0
 32 28  1  0
  1 37  1  0
  1 38  1  0
  2 39  1  0
  8 40  1  0
 10 41  1  0
 12 42  1  0
 13 43  1  0
 16 44  1  0
 17 45  1  0
 20 46  1  0
 25 47  1  1
 26 48  1  0
 26 49  1  0
 28 50  1  1
 29 51  1  6
 31 52  1  0
 31 53  1  0
 32 54  1  6
 34 55  1  0
 34 56  1  0
 34 57  1  0
 35 58  1  0
M  CHG  1   8  -1
M  END
>  <UniqueID>  (84) 
84

>  <SMILES>  (84) 
C=CC(=O)n1c(C([NH-])=O)cc2ccc(-c3ccc(F)cc3C(=O)O[C@H]3CO[C@H]4[C@H]3OC[C@H]4OC)cc21

>  <Energy>  (84) 
144.4392484146609

>  <Genealogy>  (84) 
C=CC(=O)n1c(C([NH-])=O)cc2ccc(-c3ccc(F)cc3C(=O)O[C@H]3CO[C@H]4C3OC[C@H]4OC)cc21 (protonated)
C=CC(=O)n1c(C([NH-])=O)cc2ccc(-c3ccc(F)cc3C(=O)O[C@H]3CO[C@H]4[C@H]3OC[C@H]4OC)cc21 (chirality)
C=CC(=O)n1c(C([NH-])=O)cc2ccc(-c3ccc(F)cc3C(=O)O[C@H]3CO[C@H]4[C@H]3OC[C@H]4OC)cc21 (3D coordinates assigned)
C=CC(=O)n1c(C([NH-])=O)cc2ccc(-c3ccc(F)cc3C(=O)O[C@H]3CO[C@H]4[C@H]3OC[C@H]4OC)cc21 (nonaromatic ring conformer: 144.4392484146609 kcal/mol)

>  <smiles>  (84) 
C=CC(=O)n1c(C(N)=O)cc2ccc(-c3ccc(F)cc3C(=O)O[C@H]3CO[C@H]4C3OC[C@H]4OC)cc21

>  <score_type>  (84) 
oracle

>  <origin>  (84) 
adg

>  <m_score__min__energy>  (84) 
-9.0700000000000003

>  <m_primary>  (84) 
energy

$$$$
85:0
     RDKit          3D

 44 46  0  0  0  0  0  0  0  0999 V2000
  143.6140  155.1840  132.7030 C   0  0  0  0  0  0  0  0  0  0  0  0
  145.0010  154.8870  133.2870 C   0  0  0  0  0  0  0  0  0  0  0  0
  144.9930  154.9790  134.8210 C   0  0  0  0  0  0  0  0  0  0  0  0
  146.1180  155.7400  132.6380 C   0  0  0  0  0  0  0  0  0  0  0  0
  146.8120  156.7350  133.5390 C   0  0  0  0  0  0  0  0  0  0  0  0
  147.7090  156.3700  134.3450 O   0  0  0  0  0  0  0  0  0  0  0  0
  146.5650  158.1360  133.3620 N   0  0  0  0  0  0  0  0  0  0  0  0
  147.4300  159.0950  132.9310 C   0  0  0  0  0  0  0  0  0  0  0  0
  148.8040  158.8590  132.4470 C   0  0  0  0  0  0  0  0  0  0  0  0
  149.3460  157.5400  132.4600 N   0  0  0  0  0  0  0  0  0  0  0  0
  149.5160  159.8140  132.0430 O   0  0  0  0  0  0  0  0  0  0  0  0
  146.8160  160.3470  132.9520 C   0  0  0  0  0  0  0  0  0  0  0  0
  145.5360  160.1180  133.4090 C   0  0  0  0  0  0  0  0  0  0  0  0
  144.4890  161.0060  133.6350 C   0  0  0  0  0  0  0  0  0  0  0  0
  143.2790  160.4850  134.1250 C   0  0  0  0  0  0  0  0  0  0  0  0
  143.1360  159.0960  134.3770 C   0  0  0  0  0  0  0  0  0  0  0  0
  141.8580  158.5660  134.9120 C   0  0  0  0  0  0  0  0  0  0  0  0
  141.8100  158.1340  136.2500 C   0  0  0  0  0  0  0  0  0  0  0  0
  140.6310  157.6150  136.7860 C   0  0  0  0  0  0  0  0  0  0  0  0
  139.4840  157.5220  135.9980 C   0  0  0  0  0  0  0  0  0  0  0  0
  139.5070  157.9550  134.6700 C   0  0  0  0  0  0  0  0  0  0  0  0
  138.3470  157.8660  133.9060 O   0  0  0  0  0  0  0  0  0  0  0  0
  140.6880  158.4820  134.1170 C   0  0  0  0  0  0  0  0  0  0  0  0
  140.6690  158.9700  132.7570 C   0  0  0  0  0  0  0  0  0  0  0  0
  140.6550  159.3630  131.6680 N   0  0  0  0  0  0  0  0  0  0  0  0
  144.2280  158.2280  134.1450 C   0  0  0  0  0  0  0  0  0  0  0  0
  145.4140  158.7740  133.6470 C   0  0  0  0  0  0  0  0  0  0  0  0
  142.8964  155.3377  133.5224 H   0  0  0  0  0  0  0  0  0  0  0  0
  143.6636  156.0919  132.0839 H   0  0  0  0  0  0  0  0  0  0  0  0
  143.2874  154.3354  132.0839 H   0  0  0  0  0  0  0  0  0  0  0  0
  145.2442  153.8454  133.0303 H   0  0  0  0  0  0  0  0  0  0  0  0
  145.0809  153.9696  135.2493 H   0  0  0  0  0  0  0  0  0  0  0  0
  145.8409  155.5945  135.1558 H   0  0  0  0  0  0  0  0  0  0  0  0
  144.0514  155.4387  135.1558 H   0  0  0  0  0  0  0  0  0  0  0  0
  146.8821  155.0510  132.2489 H   0  0  0  0  0  0  0  0  0  0  0  0
  145.6150  156.3437  131.8682 H   0  0  0  0  0  0  0  0  0  0  0  0
  149.5290  157.0440  133.3600 H   0  0  0  0  0  0  0  0  0  0  0  0
  147.2590  161.3120  132.6649 H   0  0  0  0  0  0  0  0  0  0  0  0
  144.6045  162.0817  133.4365 H   0  0  0  0  0  0  0  0  0  0  0  0
  142.4331  161.1619  134.3153 H   0  0  0  0  0  0  0  0  0  0  0  0
  142.7096  158.2060  136.8789 H   0  0  0  0  0  0  0  0  0  0  0  0
  140.6060  157.2783  137.8329 H   0  0  0  0  0  0  0  0  0  0  0  0
  138.5586  157.1065  136.4234 H   0  0  0  0  0  0  0  0  0  0  0  0
  144.1459  157.1506  134.3513 H   0  0  0  0  0  0  0  0  0  0  0  0
  1  2  1  0
  2  3  1  0
  2  4  1  0
  4  5  1  0
  5  6  2  0
  5  7  1  0
  7  8  1  0
  8  9  1  0
  9 10  1  0
  9 11  2  0
  8 12  2  0
 12 13  1  0
 13 14  2  0
 14 15  1  0
 15 16  2  0
 16 17  1  0
 17 18  2  0
 18 19  1  0
 19 20  2  0
 20 21  1  0
 21 22  1  0
 21 23  2  0
 23 24  1  0
 24 25  3  0
 16 26  1  0
 26 27  2  0
 27  7  1  0
 27 13  1  0
 23 17  1  0
  1 28  1  0
  1 29  1  0
  1 30  1  0
  2 31  1  0
  3 32  1  0
  3 33  1  0
  3 34  1  0
  4 35  1  0
  4 36  1  0
 10 37  1  0
 12 38  1  0
 14 39  1  0
 15 40  1  0
 18 41  1  0
 19 42  1  0
 20 43  1  0
 26 44  1  0
M  CHG  2  10  -1  22  -1
M  END
>  <UniqueID>  (85) 
85

>  <SMILES>  (85) 
CC(C)CC(=O)n1c(C([NH-])=O)cc2ccc(-c3cccc([O-])c3C#N)cc21

>  <Energy>  (85) 
91.2985541350513

>  <Genealogy>  (85) 
CC(C)CC(=O)n1c(C([NH-])=O)cc2ccc(-c3cccc([O-])c3C#N)cc21 (protonated)
CC(C)CC(=O)n1c(C([NH-])=O)cc2ccc(-c3cccc([O-])c3C#N)cc21 (3D coordinates assigned)
CC(C)CC(=O)n1c(C([NH-])=O)cc2ccc(-c3cccc([O-])c3C#N)cc21 (optimized conformer: 91.2985541350513 kcal/mol)

>  <smiles>  (85) 
CC(C)CC(=O)n1c(C(N)=O)cc2ccc(-c3cccc(O)c3C#N)cc21

>  <score_type>  (85) 
oracle

>  <origin>  (85) 
adg

>  <m_score__min__energy>  (85) 
-8.6600000000000001

>  <m_primary>  (85) 
energy

$$$$
86:0
     RDKit          3D

 55 58  0  0  0  0  0  0  0  0999 V2000
  139.4490  156.0300  133.0360 C   0  0  0  0  0  0  0  0  0  0  0  0
  138.9970  157.4510  133.3500 C   0  0  0  0  0  0  0  0  0  0  0  0
  140.1150  158.3340  133.4000 O   0  0  0  0  0  0  0  0  0  0  0  0
  141.3970  157.9350  133.7920 C   0  0  0  0  0  0  0  0  0  0  0  0
  142.3810  158.0990  133.0200 O   0  0  0  0  0  0  0  0  0  0  0  0
  141.5980  157.3620  135.0940 N   0  0  0  0  0  0  0  0  0  0  0  0
  141.3430  157.9310  136.3080 C   0  0  0  0  0  0  0  0  0  0  0  0
  140.9530  159.3360  136.5430 C   0  0  0  0  0  0  0  0  0  0  0  0
  140.9910  160.2970  135.4910 N   0  0  0  0  0  0  0  0  0  0  0  0
  140.6280  159.7070  137.7030 O   0  0  0  0  0  0  0  0  0  0  0  0
  141.5820  157.0190  137.3340 C   0  0  0  0  0  0  0  0  0  0  0  0
  142.0060  155.8690  136.7090 C   0  0  0  0  0  0  0  0  0  0  0  0
  142.3760  154.6400  137.2490 C   0  0  0  0  0  0  0  0  0  0  0  0
  142.7450  153.6160  136.3610 C   0  0  0  0  0  0  0  0  0  0  0  0
  142.7230  153.8330  134.9620 C   0  0  0  0  0  0  0  0  0  0  0  0
  143.1110  152.7460  134.0420 C   0  0  0  0  0  0  0  0  0  0  0  0
  144.3780  152.7240  133.4000 C   0  0  0  0  0  0  0  0  0  0  0  0
  145.3970  153.8300  133.6030 C   0  0  0  0  0  0  0  0  0  0  0  0
  145.6290  154.0030  134.9540 F   0  0  0  0  0  0  0  0  0  0  0  0
  144.9380  155.0180  133.0610 F   0  0  0  0  0  0  0  0  0  0  0  0
  146.6010  153.5260  132.9880 F   0  0  0  0  0  0  0  0  0  0  0  0
  144.7030  151.6220  132.5880 C   0  0  0  0  0  0  0  0  0  0  0  0
  143.7890  150.5900  132.3770 C   0  0  0  0  0  0  0  0  0  0  0  0
  142.5250  150.6250  132.9870 C   0  0  0  0  0  0  0  0  0  0  0  0
  141.5710  149.6090  132.8080 O   0  0  0  0  0  0  0  0  0  0  0  0
  140.1720  149.8140  132.6090 C   0  0  0  0  0  0  0  0  0  0  0  0
  139.6800  149.0250  131.4240 C   0  0  0  0  0  0  0  0  0  0  0  0
  138.8000  149.6050  130.4950 C   0  0  0  0  0  0  0  0  0  0  0  0
  138.3410  148.8640  129.4020 C   0  0  0  0  0  0  0  0  0  0  0  0
  138.7480  147.5370  129.2350 C   0  0  0  0  0  0  0  0  0  0  0  0
  139.6120  146.9490  130.1620 C   0  0  0  0  0  0  0  0  0  0  0  0
  140.0740  147.6870  131.2560 C   0  0  0  0  0  0  0  0  0  0  0  0
  142.1940  151.7040  133.8120 C   0  0  0  0  0  0  0  0  0  0  0  0
  140.9780  151.7240  134.4170 F   0  0  0  0  0  0  0  0  0  0  0  0
  142.3530  155.0950  134.4500 C   0  0  0  0  0  0  0  0  0  0  0  0
  142.0060  156.1020  135.3580 C   0  0  0  0  0  0  0  0  0  0  0  0
  139.6225  155.4844  133.9753 H   0  0  0  0  0  0  0  0  0  0  0  0
  138.6695  155.5177  132.4530 H   0  0  0  0  0  0  0  0  0  0  0  0
  140.3813  156.0622  132.4530 H   0  0  0  0  0  0  0  0  0  0  0  0
  138.3028  157.7908  132.5673 H   0  0  0  0  0  0  0  0  0  0  0  0
  138.4975  157.4557  134.3300 H   0  0  0  0  0  0  0  0  0  0  0  0
  140.9740  159.9990  134.4910 H   0  0  0  0  0  0  0  0  0  0  0  0
  141.4580  157.1836  138.4145 H   0  0  0  0  0  0  0  0  0  0  0  0
  142.3793  154.4761  138.3367 H   0  0  0  0  0  0  0  0  0  0  0  0
  143.0538  152.6369  136.7560 H   0  0  0  0  0  0  0  0  0  0  0  0
  145.6935  151.5736  132.1121 H   0  0  0  0  0  0  0  0  0  0  0  0
  144.0600  149.7436  131.7288 H   0  0  0  0  0  0  0  0  0  0  0  0
  139.6283  149.4904  133.5088 H   0  0  0  0  0  0  0  0  0  0  0  0
  139.9954  150.8830  132.4192 H   0  0  0  0  0  0  0  0  0  0  0  0
  138.4709  150.6461  130.6281 H   0  0  0  0  0  0  0  0  0  0  0  0
  137.6590  149.3255  128.6727 H   0  0  0  0  0  0  0  0  0  0  0  0
  138.3878  146.9557  128.3734 H   0  0  0  0  0  0  0  0  0  0  0  0
  139.9293  145.9039  130.0311 H   0  0  0  0  0  0  0  0  0  0  0  0
  140.7484  147.2183  131.9878 H   0  0  0  0  0  0  0  0  0  0  0  0
  142.3377  155.2822  133.3662 H   0  0  0  0  0  0  0  0  0  0  0  0
  1  2  1  0
  2  3  1  0
  3  4  1  0
  4  5  2  0
  4  6  1  0
  6  7  1  0
  7  8  1  0
  8  9  1  0
  8 10  2  0
  7 11  2  0
 11 12  1  0
 12 13  2  0
 13 14  1  0
 14 15  2  0
 15 16  1  0
 16 17  2  0
 17 18  1  0
 18 19  1  0
 18 20  1  0
 18 21  1  0
 17 22  1  0
 22 23  2  0
 23 24  1  0
 24 25  1  0
 25 26  1  0
 26 27  1  0
 27 28  2  0
 28 29  1  0
 29 30  2  0
 30 31  1  0
 31 32  2  0
 24 33  2  0
 33 34  1  0
 15 35  1  0
 35 36  2  0
 36  6  1  0
 36 12  1  0
 33 16  1  0
 32 27  1  0
  1 37  1  0
  1 38  1  0
  1 39  1  0
  2 40  1  0
  2 41  1  0
  9 42  1  0
 11 43  1  0
 13 44  1  0
 14 45  1  0
 22 46  1  0
 23 47  1  0
 26 48  1  0
 26 49  1  0
 28 50  1  0
 29 51  1  0
 30 52  1  0
 31 53  1  0
 32 54  1  0
 35 55  1  0
M  CHG  1   9  -1
M  END
>  <UniqueID>  (86) 
86

>  <SMILES>  (86) 
CCOC(=O)n1c(C([NH-])=O)cc2ccc(-c3c(C(F)(F)F)ccc(OCc4ccccc4)c3F)cc21

>  <Energy>  (86) 
104.70908280743204

>  <Genealogy>  (86) 
CCOC(=O)n1c(C([NH-])=O)cc2ccc(-c3c(C(F)(F)F)ccc(OCc4ccccc4)c3F)cc21 (protonated)
CCOC(=O)n1c(C([NH-])=O)cc2ccc(-c3c(C(F)(F)F)ccc(OCc4ccccc4)c3F)cc21 (3D coordinates assigned)
CCOC(=O)n1c(C([NH-])=O)cc2ccc(-c3c(C(F)(F)F)ccc(OCc4ccccc4)c3F)cc21 (optimized conformer: 104.70908280743204 kcal/mol)

>  <smiles>  (86) 
CCOC(=O)n1c(C(N)=O)cc2ccc(-c3c(C(F)(F)F)ccc(OCc4ccccc4)c3F)cc21

>  <score_type>  (86) 
oracle

>  <origin>  (86) 
adg

>  <m_score__min__energy>  (86) 
-9.2300000000000004

>  <m_primary>  (86) 
energy

$$$$
87:0
     RDKit          3D

 34 36  0  0  0  0  0  0  0  0999 V2000
  149.6550  159.6860  131.1360 C   0  0  0  0  0  0  0  0  0  0  0  0
  148.7780  158.9290  132.0890 C   0  0  0  0  0  0  0  0  0  0  0  0
  147.7400  159.6010  132.7820 C   0  0  0  0  0  0  0  0  0  0  0  0
  146.8790  158.8940  133.6390 C   0  0  0  0  0  0  0  0  0  0  0  0
  147.0770  157.5240  133.7780 C   0  0  0  0  0  0  0  0  0  0  0  0
  146.3720  156.5960  134.5100 C   0  0  0  0  0  0  0  0  0  0  0  0
  146.9940  155.3740  134.2570 C   0  0  0  0  0  0  0  0  0  0  0  0
  146.5910  154.1050  134.8980 C   0  0  0  0  0  0  0  0  0  0  0  0
  147.1280  153.7140  136.1590 N   0  0  0  0  0  0  0  0  0  0  0  0
  145.7320  153.3700  134.3410 O   0  0  0  0  0  0  0  0  0  0  0  0
  148.0410  155.5410  133.4000 N   0  0  0  0  0  0  0  0  0  0  0  0
  148.8860  154.5290  132.8350 C   0  0  0  0  0  0  0  0  0  0  0  0
  149.9430  154.8660  132.2340 O   0  0  0  0  0  0  0  0  0  0  0  0
  148.5280  153.1440  132.9580 N   0  0  0  0  0  0  0  0  0  0  0  0
  149.3610  152.0620  132.5250 C   0  0  0  0  0  0  0  0  0  0  0  0
  150.0090  151.2130  133.3490 N   0  0  0  0  0  0  0  0  0  0  0  0
  150.6340  150.3740  132.5390 N   0  0  0  0  0  0  0  0  0  0  0  0
  150.3780  150.7150  131.2870 N   0  0  0  0  0  0  0  0  0  0  0  0
  150.8430  149.9750  130.1260 C   0  0  0  0  0  0  0  0  0  0  0  0
  149.5700  151.7600  131.2300 N   0  0  0  0  0  0  0  0  0  0  0  0
  148.0780  156.8610  133.1160 C   0  0  0  0  0  0  0  0  0  0  0  0
  148.9380  157.5350  132.2420 C   0  0  0  0  0  0  0  0  0  0  0  0
  150.3681  160.3015  131.7040 H   0  0  0  0  0  0  0  0  0  0  0  0
  150.2069  158.9759  130.5026 H   0  0  0  0  0  0  0  0  0  0  0  0
  149.0331  160.3357  130.5026 H   0  0  0  0  0  0  0  0  0  0  0  0
  147.6072  160.6847  132.6480 H   0  0  0  0  0  0  0  0  0  0  0  0
  146.0732  159.4083  134.1832 H   0  0  0  0  0  0  0  0  0  0  0  0
  145.5020  156.7795  135.1576 H   0  0  0  0  0  0  0  0  0  0  0  0
  146.6580  152.9850  136.7400 H   0  0  0  0  0  0  0  0  0  0  0  0
  147.6010  152.9090  133.3780 H   0  0  0  0  0  0  0  0  0  0  0  0
  151.4012  149.0867  130.4568 H   0  0  0  0  0  0  0  0  0  0  0  0
  149.9794  149.6612  129.5212 H   0  0  0  0  0  0  0  0  0  0  0  0
  151.5004  150.6169  129.5212 H   0  0  0  0  0  0  0  0  0  0  0  0
  149.7186  156.9925  131.6885 H   0  0  0  0  0  0  0  0  0  0  0  0
  1  2  1  0
  2  3  2  0
  3  4  1  0
  4  5  2  0
  5  6  1  0
  6  7  2  0
  7  8  1  0
  8  9  1  0
  8 10  2  0
  7 11  1  0
 11 12  1  0
 12 13  2  0
 12 14  1  0
 14 15  1  0
 15 16  1  0
 16 17  2  0
 17 18  1  0
 18 19  1  0
 18 20  1  0
 11 21  1  0
 21 22  2  0
 22  2  1  0
 21  5  1  0
 20 15  2  0
  1 23  1  0
  1 24  1  0
  1 25  1  0
  3 26  1  0
  4 27  1  0
  6 28  1  0
  9 29  1  0
 14 30  1  0
 19 31  1  0
 19 32  1  0
 19 33  1  0
 22 34  1  0
M  CHG  1   9  -1
M  END
>  <UniqueID>  (87) 
87

>  <SMILES>  (87) 
Cc1ccc2cc(C([NH-])=O)n(C(=O)Nc3nnn(C)n3)c2c1

>  <Energy>  (87) 
112.46888074359148

>  <Genealogy>  (87) 
Cc1ccc2cc(C([NH-])=O)n(C(=O)Nc3nnn(C)n3)c2c1 (protonated)
Cc1ccc2cc(C([NH-])=O)n(C(=O)Nc3nnn(C)n3)c2c1 (3D coordinates assigned)
Cc1ccc2cc(C([NH-])=O)n(C(=O)Nc3nnn(C)n3)c2c1 (optimized conformer: 112.46888074359148 kcal/mol)

>  <smiles>  (87) 
Cc1ccc2cc(C(N)=O)n(C(=O)Nc3nnn(C)n3)c2c1

>  <score_type>  (87) 
oracle

>  <origin>  (87) 
adg

>  <m_score__min__energy>  (87) 
-7.9500000000000002

>  <m_primary>  (87) 
energy

$$$$
88:0
     RDKit          3D

 35 37  0  0  0  0  0  0  0  0999 V2000
  141.5650  153.1640  132.6330 C   0  0  0  0  0  0  0  0  0  0  0  0
  140.6170  154.1040  133.3590 C   0  0  0  0  0  0  0  0  0  0  0  0
  140.9060  155.4470  132.9870 O   0  0  0  0  0  0  0  0  0  0  0  0
  142.0080  156.1510  133.4780 C   0  0  0  0  0  0  0  0  0  0  0  0
  143.0940  155.5500  133.7070 O   0  0  0  0  0  0  0  0  0  0  0  0
  141.9030  157.5630  133.7290 N   0  0  0  0  0  0  0  0  0  0  0  0
  140.7700  158.2780  133.9820 C   0  0  0  0  0  0  0  0  0  0  0  0
  139.4250  157.7160  134.2230 C   0  0  0  0  0  0  0  0  0  0  0  0
  138.7560  156.9460  133.2230 N   0  0  0  0  0  0  0  0  0  0  0  0
  138.8860  157.8670  135.3510 O   0  0  0  0  0  0  0  0  0  0  0  0
  141.0530  159.6390  134.0540 C   0  0  0  0  0  0  0  0  0  0  0  0
  142.4110  159.7380  133.8520 C   0  0  0  0  0  0  0  0  0  0  0  0
  143.2280  160.8640  133.8110 C   0  0  0  0  0  0  0  0  0  0  0  0
  144.5950  160.6780  133.5530 C   0  0  0  0  0  0  0  0  0  0  0  0
  145.1220  159.3790  133.3280 C   0  0  0  0  0  0  0  0  0  0  0  0
  146.5590  159.1710  133.0460 C   0  0  0  0  0  0  0  0  0  0  0  0
  147.4600  158.3850  133.7420 C   0  0  0  0  0  0  0  0  0  0  0  0
  148.6670  158.4760  133.1500 N   0  0  0  0  0  0  0  0  0  0  0  0
  148.4470  159.3140  132.1170 C   0  0  0  0  0  0  0  0  0  0  0  0
  149.6940  159.7980  130.9850 Cl  0  0  0  0  0  0  0  0  0  0  0  0
  147.2040  159.7300  132.0500 O   0  0  0  0  0  0  0  0  0  0  0  0
  144.2570  158.2610  133.3740 C   0  0  0  0  0  0  0  0  0  0  0  0
  142.9020  158.4730  133.6570 C   0  0  0  0  0  0  0  0  0  0  0  0
  142.1456  152.5883  133.3689 H   0  0  0  0  0  0  0  0  0  0  0  0
  140.9854  152.4739  132.0023 H   0  0  0  0  0  0  0  0  0  0  0  0
  142.2502  153.7494  132.0023 H   0  0  0  0  0  0  0  0  0  0  0  0
  139.5794  153.8625  133.0850 H   0  0  0  0  0  0  0  0  0  0  0  0
  140.7450  153.9880  134.4454 H   0  0  0  0  0  0  0  0  0  0  0  0
  139.2410  156.6710  132.3410 H   0  0  0  0  0  0  0  0  0  0  0  0
  137.7930  156.5800  133.4010 H   0  0  0  0  0  0  0  0  0  0  0  0
  140.3432  160.4599  134.2339 H   0  0  0  0  0  0  0  0  0  0  0  0
  142.8146  161.8699  133.9759 H   0  0  0  0  0  0  0  0  0  0  0  0
  145.2661  161.5491  133.5248 H   0  0  0  0  0  0  0  0  0  0  0  0
  147.2287  157.7836  134.6336 H   0  0  0  0  0  0  0  0  0  0  0  0
  144.6405  157.2463  133.1913 H   0  0  0  0  0  0  0  0  0  0  0  0
  1  2  1  0
  2  3  1  0
  3  4  1  0
  4  5  2  0
  4  6  1  0
  6  7  1  0
  7  8  1  0
  8  9  1  0
  8 10  2  0
  7 11  2  0
 11 12  1  0
 12 13  2  0
 13 14  1  0
 14 15  2  0
 15 16  1  0
 16 17  2  0
 17 18  1  0
 18 19  2  0
 19 20  1  0
 19 21  1  0
 15 22  1  0
 22 23  2  0
 23  6  1  0
 23 12  1  0
 21 16  1  0
  1 24  1  0
  1 25  1  0
  1 26  1  0
  2 27  1  0
  2 28  1  0
  9 29  1  0
  9 30  1  0
 11 31  1  0
 13 32  1  0
 14 33  1  0
 17 34  1  0
 22 35  1  0
M  END
>  <UniqueID>  (88) 
88

>  <SMILES>  (88) 
CCOC(=O)n1c(C(N)=O)cc2ccc(-c3cnc(Cl)o3)cc21

>  <Energy>  (88) 
102.29597984053457

>  <Genealogy>  (88) 
CCOC(=O)n1c(C(N)=O)cc2ccc(-c3cnc(Cl)o3)cc21 (3D coordinates assigned)
CCOC(=O)n1c(C(N)=O)cc2ccc(-c3cnc(Cl)o3)cc21 (optimized conformer: 102.29597984053457 kcal/mol)

>  <smiles>  (88) 
CCOC(=O)n1c(C(N)=O)cc2ccc(-c3cnc(Cl)o3)cc21

>  <score_type>  (88) 
oracle

>  <origin>  (88) 
adg

>  <m_score__min__energy>  (88) 
-7.5099999999999998

>  <m_primary>  (88) 
energy

$$$$
89:0
     RDKit          3D

 32 33  0  0  0  0  0  0  0  0999 V2000
  149.1930  160.5880  130.3740 C   0  0  0  0  0  0  0  0  0  0  0  0
  148.2940  159.9310  131.2390 O   0  0  0  0  0  0  0  0  0  0  0  0
  149.0150  159.0750  132.1010 C   0  0  0  0  0  0  0  0  0  0  0  0
  148.2650  158.9020  133.3890 C   0  0  0  0  0  0  0  0  0  0  0  0
  148.8850  159.0360  134.4790 O   0  0  0  0  0  0  0  0  0  0  0  0
  146.8580  158.6050  133.4070 N   0  0  0  0  0  0  0  0  0  0  0  0
  146.2780  157.3730  133.3330 C   0  0  0  0  0  0  0  0  0  0  0  0
  147.0030  156.1010  133.1070 C   0  0  0  0  0  0  0  0  0  0  0  0
  146.8820  155.3980  131.8680 N   0  0  0  0  0  0  0  0  0  0  0  0
  147.7530  155.6330  134.0040 O   0  0  0  0  0  0  0  0  0  0  0  0
  144.8920  157.4820  133.4330 C   0  0  0  0  0  0  0  0  0  0  0  0
  144.6390  158.8270  133.5750 C   0  0  0  0  0  0  0  0  0  0  0  0
  143.4300  159.4980  133.7360 C   0  0  0  0  0  0  0  0  0  0  0  0
  143.4680  160.8930  133.8940 C   0  0  0  0  0  0  0  0  0  0  0  0
  144.7030  161.5870  133.8860 C   0  0  0  0  0  0  0  0  0  0  0  0
  144.7330  163.0700  134.1060 C   0  0  0  0  0  0  0  0  0  0  0  0
  143.7170  163.6640  133.3830 F   0  0  0  0  0  0  0  0  0  0  0  0
  145.9100  160.8700  133.7380 C   0  0  0  0  0  0  0  0  0  0  0  0
  145.8420  159.4840  133.5610 C   0  0  0  0  0  0  0  0  0  0  0  0
  149.9405  161.1343  130.9680 H   0  0  0  0  0  0  0  0  0  0  0  0
  149.6999  159.8460  129.7395 H   0  0  0  0  0  0  0  0  0  0  0  0
  148.6400  161.2963  129.7395 H   0  0  0  0  0  0  0  0  0  0  0  0
  149.1435  158.0948  131.6187 H   0  0  0  0  0  0  0  0  0  0  0  0
  150.0003  159.5167  132.3108 H   0  0  0  0  0  0  0  0  0  0  0  0
  147.4290  154.5220  131.7100 H   0  0  0  0  0  0  0  0  0  0  0  0
  146.2220  155.7130  131.1250 H   0  0  0  0  0  0  0  0  0  0  0  0
  144.1558  156.6651  133.4044 H   0  0  0  0  0  0  0  0  0  0  0  0
  142.4747  158.9526  133.7393 H   0  0  0  0  0  0  0  0  0  0  0  0
  142.5298  161.4521  134.0252 H   0  0  0  0  0  0  0  0  0  0  0  0
  144.5954  163.2847  135.1760 H   0  0  0  0  0  0  0  0  0  0  0  0
  145.7020  163.4703  133.7731 H   0  0  0  0  0  0  0  0  0  0  0  0
  146.8800  161.3883  133.7613 H   0  0  0  0  0  0  0  0  0  0  0  0
  1  2  1  0
  2  3  1  0
  3  4  1  0
  4  5  2  0
  4  6  1  0
  6  7  1  0
  7  8  1  0
  8  9  1  0
  8 10  2  0
  7 11  2  0
 11 12  1  0
 12 13  2  0
 13 14  1  0
 14 15  2  0
 15 16  1  0
 16 17  1  0
 15 18  1  0
 18 19  2  0
 19  6  1  0
 19 12  1  0
  1 20  1  0
  1 21  1  0
  1 22  1  0
  3 23  1  0
  3 24  1  0
  9 25  1  0
  9 26  1  0
 11 27  1  0
 13 28  1  0
 14 29  1  0
 16 30  1  0
 16 31  1  0
 18 32  1  0
M  END
>  <UniqueID>  (89) 
89

>  <SMILES>  (89) 
COCC(=O)n1c(C(N)=O)cc2ccc(CF)cc21

>  <Energy>  (89) 
70.80446894479516

>  <Genealogy>  (89) 
COCC(=O)n1c(C(N)=O)cc2ccc(CF)cc21 (3D coordinates assigned)
COCC(=O)n1c(C(N)=O)cc2ccc(CF)cc21 (optimized conformer: 70.80446894479516 kcal/mol)

>  <smiles>  (89) 
COCC(=O)n1c(C(N)=O)cc2ccc(CF)cc21

>  <score_type>  (89) 
oracle

>  <origin>  (89) 
adg

>  <m_score__min__energy>  (89) 
-6.2999999999999998

>  <m_primary>  (89) 
energy

$$$$
90:0
     RDKit          3D

 59 60  0  0  0  0  0  0  0  0999 V2000
  142.1290  152.8310  134.5060 C   0  0  0  0  0  0  0  0  0  0  0  0
  142.8800  153.8170  135.3860 C   0  0  0  0  0  0  0  0  0  0  0  0
  144.0710  154.2320  134.7270 O   0  0  0  0  0  0  0  0  0  0  0  0
  144.0770  155.1710  133.6910 C   0  0  0  0  0  0  0  0  0  0  0  0
  143.1810  155.1420  132.8030 O   0  0  0  0  0  0  0  0  0  0  0  0
  145.1170  156.1610  133.6370 N   0  0  0  0  0  0  0  0  0  0  0  0
  146.4400  155.9500  133.3890 C   0  0  0  0  0  0  0  0  0  0  0  0
  147.1070  154.6340  133.3150 C   0  0  0  0  0  0  0  0  0  0  0  0
  146.4920  153.4630  133.8520 N   0  0  0  0  0  0  0  0  0  0  0  0
  148.2600  154.5510  132.8170 O   0  0  0  0  0  0  0  0  0  0  0  0
  147.1130  157.1590  133.2400 C   0  0  0  0  0  0  0  0  0  0  0  0
  146.1560  158.1310  133.4150 C   0  0  0  0  0  0  0  0  0  0  0  0
  146.2670  159.5160  133.3380 C   0  0  0  0  0  0  0  0  0  0  0  0
  145.1010  160.2820  133.5060 C   0  0  0  0  0  0  0  0  0  0  0  0
  143.8530  159.6510  133.7410 C   0  0  0  0  0  0  0  0  0  0  0  0
  142.6090  160.4810  133.9380 C   0  0  0  0  0  0  0  0  0  0  0  0
  141.3960  159.6160  134.3170 C   0  0  0  0  0  0  0  0  0  0  0  0
  141.0050  159.7310  135.7980 C   0  0  0  0  0  0  0  0  0  0  0  0
  141.5720  158.6370  136.5790 N   0  0  0  0  0  0  0  0  0  0  0  0
  141.3380  157.2600  136.2810 C   0  0  0  0  0  0  0  0  0  0  0  0
  142.0750  156.3830  136.8080 O   0  0  0  0  0  0  0  0  0  0  0  0
  140.3060  156.8950  135.4090 O   0  0  0  0  0  0  0  0  0  0  0  0
  140.4890  156.0350  134.2850 C   0  0  0  0  0  0  0  0  0  0  0  0
  140.4450  156.8340  132.9800 C   0  0  0  0  0  0  0  0  0  0  0  0
  139.1090  156.9950  132.5420 O   0  0  0  0  0  0  0  0  0  0  0  0
  138.7300  158.3540  132.5920 C   0  0  0  0  0  0  0  0  0  0  0  0
  139.5040  159.1400  131.5380 C   0  0  0  0  0  0  0  0  0  0  0  0
  138.8100  160.3330  131.2150 O   0  0  0  0  0  0  0  0  0  0  0  0
  137.4930  160.0450  130.7950 C   0  0  0  0  0  0  0  0  0  0  0  0
  143.7800  158.2420  133.8150 C   0  0  0  0  0  0  0  0  0  0  0  0
  144.9590  157.5050  133.6560 C   0  0  0  0  0  0  0  0  0  0  0  0
  141.5841  152.1155  135.1394 H   0  0  0  0  0  0  0  0  0  0  0  0
  141.4152  153.3762  133.8709 H   0  0  0  0  0  0  0  0  0  0  0  0
  142.8442  152.2878  133.8709 H   0  0  0  0  0  0  0  0  0  0  0  0
  142.2440  154.6934  135.5796 H   0  0  0  0  0  0  0  0  0  0  0  0
  143.1390  153.3330  136.3393 H   0  0  0  0  0  0  0  0  0  0  0  0
  146.9470  152.5310  133.7310 H   0  0  0  0  0  0  0  0  0  0  0  0
  145.6170  153.5250  134.4170 H   0  0  0  0  0  0  0  0  0  0  0  0
  148.1823  157.3058  133.0276 H   0  0  0  0  0  0  0  0  0  0  0  0
  147.2385  159.9968  133.1512 H   0  0  0  0  0  0  0  0  0  0  0  0
  145.1567  161.3794  133.4548 H   0  0  0  0  0  0  0  0  0  0  0  0
  142.7912  161.2094  134.7419 H   0  0  0  0  0  0  0  0  0  0  0  0
  142.3830  160.9869  132.9877 H   0  0  0  0  0  0  0  0  0  0  0  0
  140.5382  159.9303  133.7043 H   0  0  0  0  0  0  0  0  0  0  0  0
  141.6745  158.5676  134.1346 H   0  0  0  0  0  0  0  0  0  0  0  0
  141.3786  160.6865  136.1947 H   0  0  0  0  0  0  0  0  0  0  0  0
  139.9087  159.6821  135.8740 H   0  0  0  0  0  0  0  0  0  0  0  0
  141.4645  155.5337  134.3689 H   0  0  0  0  0  0  0  0  0  0  0  0
  139.6781  155.2919  134.2724 H   0  0  0  0  0  0  0  0  0  0  0  0
  140.8931  157.8246  133.1468 H   0  0  0  0  0  0  0  0  0  0  0  0
  141.0086  156.2877  132.2093 H   0  0  0  0  0  0  0  0  0  0  0  0
  137.6513  158.4408  132.3946 H   0  0  0  0  0  0  0  0  0  0  0  0
  138.9555  158.7598  133.5892 H   0  0  0  0  0  0  0  0  0  0  0  0
  140.4998  159.3930  131.9309 H   0  0  0  0  0  0  0  0  0  0  0  0
  139.6053  158.5250  130.6316 H   0  0  0  0  0  0  0  0  0  0  0  0
  136.8497  159.9043  131.6761 H   0  0  0  0  0  0  0  0  0  0  0  0
  137.1098  160.8806  130.1909 H   0  0  0  0  0  0  0  0  0  0  0  0
  137.4935  159.1258  130.1909 H   0  0  0  0  0  0  0  0  0  0  0  0
  142.8195  157.7364  133.9933 H   0  0  0  0  0  0  0  0  0  0  0  0
  1  2  1  0
  2  3  1  0
  3  4  1  0
  4  5  2  0
  4  6  1  0
  6  7  1  0
  7  8  1  0
  8  9  1  0
  8 10  2  0
  7 11  2  0
 11 12  1  0
 12 13  2  0
 13 14  1  0
 14 15  2  0
 15 16  1  0
 16 17  1  0
 17 18  1  0
 18 19  1  0
 19 20  1  0
 20 21  2  0
 20 22  1  0
 22 23  1  0
 23 24  1  0
 24 25  1  0
 25 26  1  0
 26 27  1  0
 27 28  1  0
 28 29  1  0
 15 30  1  0
 30 31  2  0
 31  6  1  0
 31 12  1  0
  1 32  1  0
  1 33  1  0
  1 34  1  0
  2 35  1  0
  2 36  1  0
  9 37  1  0
  9 38  1  0
 11 39  1  0
 13 40  1  0
 14 41  1  0
 16 42  1  0
 16 43  1  0
 17 44  1  0
 17 45  1  0
 18 46  1  0
 18 47  1  0
 23 48  1  0
 23 49  1  0
 24 50  1  0
 24 51  1  0
 26 52  1  0
 26 53  1  0
 27 54  1  0
 27 55  1  0
 29 56  1  0
 29 57  1  0
 29 58  1  0
 30 59  1  0
M  CHG  1  19  -1
M  END
>  <UniqueID>  (90) 
90

>  <SMILES>  (90) 
CCOC(=O)n1c(C(N)=O)cc2ccc(CCC[N-]C(=O)OCCOCCOC)cc21

>  <Energy>  (90) 
85.26212605627134

>  <Genealogy>  (90) 
CCOC(=O)n1c(C(N)=O)cc2ccc(CCC[N-]C(=O)OCCOCCOC)cc21 (protonated)
CCOC(=O)n1c(C(N)=O)cc2ccc(CCC[N-]C(=O)OCCOCCOC)cc21 (3D coordinates assigned)
CCOC(=O)n1c(C(N)=O)cc2ccc(CCC[N-]C(=O)OCCOCCOC)cc21 (optimized conformer: 85.26212605627134 kcal/mol)

>  <smiles>  (90) 
CCOC(=O)n1c(C(N)=O)cc2ccc(CCCNC(=O)OCCOCCOC)cc21

>  <score_type>  (90) 
oracle

>  <origin>  (90) 
adg

>  <m_score__min__energy>  (90) 
-6.3799999999999999

>  <m_primary>  (90) 
energy

$$$$
91:0
     RDKit          3D

 60 63  0  0  0  0  0  0  0  0999 V2000
  144.3330  154.6220  135.4490 C   0  0  0  0  0  0  0  0  0  0  0  0
  143.3400  155.3170  134.5200 C   0  0  0  0  0  0  0  0  0  0  0  0
  144.0390  155.8430  133.3010 C   0  0  0  0  0  0  0  0  0  0  0  0
  143.8840  155.2630  132.1950 O   0  0  0  0  0  0  0  0  0  0  0  0
  144.9700  156.9280  133.4110 N   0  0  0  0  0  0  0  0  0  0  0  0
  146.3240  156.8880  133.2800 C   0  0  0  0  0  0  0  0  0  0  0  0
  147.1330  155.6510  133.1790 C   0  0  0  0  0  0  0  0  0  0  0  0
  146.7610  154.5970  132.2880 N   0  0  0  0  0  0  0  0  0  0  0  0
  148.1760  155.5250  133.8730 O   0  0  0  0  0  0  0  0  0  0  0  0
  146.8560  158.1760  133.3510 C   0  0  0  0  0  0  0  0  0  0  0  0
  145.7720  159.0080  133.5300 C   0  0  0  0  0  0  0  0  0  0  0  0
  145.7150  160.3910  133.6690 C   0  0  0  0  0  0  0  0  0  0  0  0
  144.4530  160.9830  133.8450 C   0  0  0  0  0  0  0  0  0  0  0  0
  143.2780  160.1880  133.8750 C   0  0  0  0  0  0  0  0  0  0  0  0
  141.9380  160.8260  134.1260 C   0  0  0  0  0  0  0  0  0  0  0  0
  141.0670  159.9080  134.9330 C   0  0  0  0  0  0  0  0  0  0  0  0
  140.9660  160.0730  136.1770 O   0  0  0  0  0  0  0  0  0  0  0  0
  140.3170  158.8590  134.2880 N   0  0  0  0  0  0  0  0  0  0  0  0
  140.0820  157.5730  134.9800 C   0  0  2  0  0  0  0  0  0  0  0  0
  140.9970  157.3470  136.1640 C   0  0  0  0  0  0  0  0  0  0  0  0
  142.2430  157.4840  136.0270 O   0  0  0  0  0  0  0  0  0  0  0  0
  140.4910  156.9410  137.3910 O   0  0  0  0  0  0  0  0  0  0  0  0
  140.1620  156.4010  133.9810 C   0  0  0  0  0  0  0  0  0  0  0  0
  139.7190  156.7830  132.5590 C   0  0  0  0  0  0  0  0  0  0  0  0
  138.7340  157.9700  132.5430 C   0  0  2  0  0  0  0  0  0  0  0  0
  138.2370  158.2260  131.0960 C   0  0  0  0  0  0  0  0  0  0  0  0
  137.8490  159.6910  130.8800 C   0  0  0  0  0  0  0  0  0  0  0  0
  139.0600  160.6210  131.0770 C   0  0  0  0  0  0  0  0  0  0  0  0
  140.0600  160.1140  132.1360 C   0  0  0  0  0  0  0  0  0  0  0  0
  139.3780  159.2330  133.2050 C   0  0  2  0  0  0  0  0  0  0  0  0
  143.3770  158.7870  133.7290 C   0  0  0  0  0  0  0  0  0  0  0  0
  144.6470  158.2280  133.5660 C   0  0  0  0  0  0  0  0  0  0  0  0
  144.0545  154.8169  136.4952 H   0  0  0  0  0  0  0  0  0  0  0  0
  144.3148  153.5384  135.2605 H   0  0  0  0  0  0  0  0  0  0  0  0
  145.3449  155.0101  135.2605 H   0  0  0  0  0  0  0  0  0  0  0  0
  142.5678  154.5968  134.2118 H   0  0  0  0  0  0  0  0  0  0  0  0
  142.8804  156.1596  135.0574 H   0  0  0  0  0  0  0  0  0  0  0  0
  147.3360  153.7250  132.2420 H   0  0  0  0  0  0  0  0  0  0  0  0
  145.8970  154.6520  131.7090 H   0  0  0  0  0  0  0  0  0  0  0  0
  147.9148  158.4655  133.2794 H   0  0  0  0  0  0  0  0  0  0  0  0
  146.6293  161.0020  133.6420 H   0  0  0  0  0  0  0  0  0  0  0  0
  144.3750  162.0741  133.9607 H   0  0  0  0  0  0  0  0  0  0  0  0
  142.0817  161.7672  134.6769 H   0  0  0  0  0  0  0  0  0  0  0  0
  141.4501  161.0252  133.1605 H   0  0  0  0  0  0  0  0  0  0  0  0
  139.0648  157.6228  135.3958 H   0  0  0  0  0  0  0  0  0  0  0  0
  141.2030  156.0480  133.9395 H   0  0  0  0  0  0  0  0  0  0  0  0
  139.4739  155.6207  134.3382 H   0  0  0  0  0  0  0  0  0  0  0  0
  140.6096  157.0564  131.9741 H   0  0  0  0  0  0  0  0  0  0  0  0
  139.2007  155.9143  132.1270 H   0  0  0  0  0  0  0  0  0  0  0  0
  137.8491  157.7242  133.1485 H   0  0  0  0  0  0  0  0  0  0  0  0
  139.0399  157.9626  130.3917 H   0  0  0  0  0  0  0  0  0  0  0  0
  137.3439  157.6067  130.9262 H   0  0  0  0  0  0  0  0  0  0  0  0
  137.4649  159.8136  129.8566 H   0  0  0  0  0  0  0  0  0  0  0  0
  137.0786  159.9603  131.6175 H   0  0  0  0  0  0  0  0  0  0  0  0
  139.5876  160.7136  130.1162 H   0  0  0  0  0  0  0  0  0  0  0  0
  138.6717  161.5860  131.4349 H   0  0  0  0  0  0  0  0  0  0  0  0
  140.8392  159.5223  131.6333 H   0  0  0  0  0  0  0  0  0  0  0  0
  140.4891  160.9906  132.6434 H   0  0  0  0  0  0  0  0  0  0  0  0
  138.5753  159.8243  133.6697 H   0  0  0  0  0  0  0  0  0  0  0  0
  142.4784  158.1528  133.7432 H   0  0  0  0  0  0  0  0  0  0  0  0
  1  2  1  0
  2  3  1  0
  3  4  2  0
  3  5  1  0
  5  6  1  0
  6  7  1  0
  7  8  1  0
  7  9  2  0
  6 10  2  0
 10 11  1  0
 11 12  2  0
 12 13  1  0
 13 14  2  0
 14 15  1  0
 15 16  1  0
 16 17  2  0
 16 18  1  0
 18 19  1  0
 19 20  1  0
 20 21  2  0
 20 22  1  0
 19 23  1  0
 23 24  1  0
 24 25  1  0
 25 26  1  0
 26 27  1  0
 27 28  1  0
 28 29  1  0
 29 30  1  0
 14 31  1  0
 31 32  2  0
 32  5  1  0
 32 11  1  0
 30 18  1  0
 30 25  1  0
  1 33  1  0
  1 34  1  0
  1 35  1  0
  2 36  1  0
  2 37  1  0
  8 38  1  0
  8 39  1  0
 10 40  1  0
 12 41  1  0
 13 42  1  0
 15 43  1  0
 15 44  1  0
 19 45  1  1
 23 46  1  0
 23 47  1  0
 24 48  1  0
 24 49  1  0
 25 50  1  1
 26 51  1  0
 26 52  1  0
 27 53  1  0
 27 54  1  0
 28 55  1  0
 28 56  1  0
 29 57  1  0
 29 58  1  0
 30 59  1  1
 31 60  1  0
M  CHG  1  22  -1
M  END
>  <UniqueID>  (91) 
91

>  <SMILES>  (91) 
CCC(=O)n1c(C(N)=O)cc2ccc(CC(=O)N3[C@H](C(=O)[O-])CC[C@@H]4CCCC[C@@H]43)cc21

>  <Energy>  (91) 
111.0123920099895

>  <Genealogy>  (91) 
CCC(=O)n1c(C(N)=O)cc2ccc(CC(=O)N3[C@H](C(=O)[O-])CC[C@@H]4CCCC[C@@H]43)cc21 (protonated)
CCC(=O)n1c(C(N)=O)cc2ccc(CC(=O)N3[C@H](C(=O)[O-])CC[C@@H]4CCCC[C@@H]43)cc21 (3D coordinates assigned)
CCC(=O)n1c(C(N)=O)cc2ccc(CC(=O)N3[C@H](C(=O)[O-])CC[C@@H]4CCCC[C@@H]43)cc21 (nonaromatic ring conformer: 111.0123920099895 kcal/mol)

>  <smiles>  (91) 
CCC(=O)n1c(C(N)=O)cc2ccc(CC(=O)N3[C@H](C(=O)O)CC[C@@H]4CCCC[C@@H]43)cc21

>  <score_type>  (91) 
oracle

>  <origin>  (91) 
adg

>  <m_score__min__energy>  (91) 
-10.15

>  <m_primary>  (91) 
energy

$$$$
92:0
     RDKit          3D

 51 55  0  0  0  0  0  0  0  0999 V2000
  148.7520  158.9580  131.9470 C   0  0  0  0  0  0  0  0  0  0  0  0
  147.9710  160.1820  132.4140 C   0  0  0  0  0  0  0  0  0  0  0  0
  146.5690  159.9180  132.3720 O   0  0  0  0  0  0  0  0  0  0  0  0
  145.9040  159.1510  133.3400 C   0  0  0  0  0  0  0  0  0  0  0  0
  146.5340  158.2920  134.0130 O   0  0  0  0  0  0  0  0  0  0  0  0
  144.4900  159.3180  133.5450 N   0  0  0  0  0  0  0  0  0  0  0  0
  143.7910  160.4770  133.7340 C   0  0  0  0  0  0  0  0  0  0  0  0
  144.3520  161.8410  133.7810 C   0  0  0  0  0  0  0  0  0  0  0  0
  145.7240  162.0660  134.1140 N   0  0  0  0  0  0  0  0  0  0  0  0
  143.6110  162.8260  133.5210 O   0  0  0  0  0  0  0  0  0  0  0  0
  142.4550  160.1980  134.0220 C   0  0  0  0  0  0  0  0  0  0  0  0
  142.3590  158.8250  134.0160 C   0  0  0  0  0  0  0  0  0  0  0  0
  141.2640  158.0010  134.2550 C   0  0  0  0  0  0  0  0  0  0  0  0
  141.4660  156.6120  134.2240 C   0  0  0  0  0  0  0  0  0  0  0  0
  142.7550  156.0660  133.9830 C   0  0  0  0  0  0  0  0  0  0  0  0
  142.9400  154.5540  133.9460 C   0  0  0  0  0  0  0  0  0  0  0  0
  144.2550  154.1090  133.4340 N   0  0  0  0  0  0  0  0  0  0  0  0
  144.4930  153.3180  132.3460 C   0  0  0  0  0  0  0  0  0  0  0  0
  145.7970  152.9750  132.2130 N   0  0  0  0  0  0  0  0  0  0  0  0
  146.3950  153.5490  133.2710 C   0  0  0  0  0  0  0  0  0  0  0  0
  147.7250  153.5120  133.6750 C   0  0  0  0  0  0  0  0  0  0  0  0
  148.7730  152.8010  132.8780 C   0  0  0  0  0  0  0  0  0  0  0  0
  148.0520  154.1760  134.8250 N   0  0  0  0  0  0  0  0  0  0  0  0
  147.1050  154.8410  135.5630 C   0  0  0  0  0  0  0  0  0  0  0  0
  145.8010  154.8670  135.1540 N   0  0  0  0  0  0  0  0  0  0  0  0
  145.4730  154.2190  134.0080 C   0  0  0  0  0  0  0  0  0  0  0  0
  141.7570  153.8150  133.3270 C   0  0  0  0  0  0  0  0  0  0  0  0
  141.4770  153.1180  134.5170 O   0  0  0  0  0  0  0  0  0  0  0  0
  142.5150  153.7870  135.1910 C   0  0  0  0  0  0  0  0  0  0  0  0
  143.8310  156.9400  133.6890 C   0  0  0  0  0  0  0  0  0  0  0  0
  143.6020  158.3200  133.7370 C   0  0  0  0  0  0  0  0  0  0  0  0
  149.1106  158.3960  132.8220 H   0  0  0  0  0  0  0  0  0  0  0  0
  148.0972  158.3145  131.3411 H   0  0  0  0  0  0  0  0  0  0  0  0
  149.6115  159.2807  131.3411 H   0  0  0  0  0  0  0  0  0  0  0  0
  148.2636  160.4279  133.4455 H   0  0  0  0  0  0  0  0  0  0  0  0
  148.1970  161.0275  131.7477 H   0  0  0  0  0  0  0  0  0  0  0  0
  146.4890  161.7990  133.4590 H   0  0  0  0  0  0  0  0  0  0  0  0
  141.6491  160.9218  134.2133 H   0  0  0  0  0  0  0  0  0  0  0  0
  140.2702  158.4248  134.4620 H   0  0  0  0  0  0  0  0  0  0  0  0
  140.6135  155.9366  134.3888 H   0  0  0  0  0  0  0  0  0  0  0  0
  143.7064  152.9928  131.6492 H   0  0  0  0  0  0  0  0  0  0  0  0
  146.2270  152.3700  131.4760 H   0  0  0  0  0  0  0  0  0  0  0  0
  149.4869  152.3166  133.5604 H   0  0  0  0  0  0  0  0  0  0  0  0
  148.2970  152.0386  132.2438 H   0  0  0  0  0  0  0  0  0  0  0  0
  149.3055  153.5251  132.2438 H   0  0  0  0  0  0  0  0  0  0  0  0
  147.3973  155.3565  136.4897 H   0  0  0  0  0  0  0  0  0  0  0  0
  140.9424  154.4822  133.0088 H   0  0  0  0  0  0  0  0  0  0  0  0
  141.9151  153.2420  132.4014 H   0  0  0  0  0  0  0  0  0  0  0  0
  142.1600  154.4368  136.0045 H   0  0  0  0  0  0  0  0  0  0  0  0
  143.2677  153.1908  135.7277 H   0  0  0  0  0  0  0  0  0  0  0  0
  144.8234  156.5430  133.4290 H   0  0  0  0  0  0  0  0  0  0  0  0
  1  2  1  0
  2  3  1  0
  3  4  1  0
  4  5  2  0
  4  6  1  0
  6  7  1  0
  7  8  1  0
  8  9  1  0
  8 10  2  0
  7 11  2  0
 11 12  1  0
 12 13  2  0
 13 14  1  0
 14 15  2  0
 15 16  1  0
 16 17  1  0
 17 18  1  0
 18 19  2  0
 19 20  1  0
 20 21  2  0
 21 22  1  0
 21 23  1  0
 23 24  2  0
 24 25  1  0
 25 26  2  0
 16 27  1  0
 27 28  1  0
 28 29  1  0
 15 30  1  0
 30 31  2  0
 31  6  1  0
 31 12  1  0
 29 16  1  0
 26 17  1  0
 26 20  1  0
  1 32  1  0
  1 33  1  0
  1 34  1  0
  2 35  1  0
  2 36  1  0
  9 37  1  0
 11 38  1  0
 13 39  1  0
 14 40  1  0
 18 41  1  0
 19 42  1  0
 22 43  1  0
 22 44  1  0
 22 45  1  0
 24 46  1  0
 27 47  1  0
 27 48  1  0
 29 49  1  0
 29 50  1  0
 30 51  1  0
M  CHG  2   9  -1  19   1
M  END
>  <UniqueID>  (92) 
92

>  <SMILES>  (92) 
CCOC(=O)n1c(C([NH-])=O)cc2ccc(C3(n4c[nH+]c5c(C)ncnc54)COC3)cc21

>  <Energy>  (92) 
205.6266294518093

>  <Genealogy>  (92) 
CCOC(=O)n1c(C([NH-])=O)cc2ccc(C3(n4c[nH+]c5c(C)ncnc54)COC3)cc21 (protonated)
CCOC(=O)n1c(C([NH-])=O)cc2ccc(C3(n4c[nH+]c5c(C)ncnc54)COC3)cc21 (3D coordinates assigned)
CCOC(=O)n1c(C([NH-])=O)cc2ccc(C3(n4c[nH+]c5c(C)ncnc54)COC3)cc21 (nonaromatic ring conformer: 205.6266294518093 kcal/mol)

>  <smiles>  (92) 
CCOC(=O)n1c(C(N)=O)cc2ccc(C3(n4cnc5c(C)ncnc54)COC3)cc21

>  <score_type>  (92) 
oracle

>  <origin>  (92) 
adg

>  <m_score__min__energy>  (92) 
-7.7199999999999998

>  <m_primary>  (92) 
energy

$$$$
93:0
     RDKit          3D

 45 46  0  0  0  0  0  0  0  0999 V2000
  148.6390  160.2560  130.8700 C   0  0  0  0  0  0  0  0  0  0  0  0
  147.3310  160.1000  131.4060 O   0  0  0  0  0  0  0  0  0  0  0  0
  147.0970  159.8630  132.7640 C   0  0  0  0  0  0  0  0  0  0  0  0
  147.6420  160.5900  133.6380 O   0  0  0  0  0  0  0  0  0  0  0  0
  146.2230  158.7950  133.1620 N   0  0  0  0  0  0  0  0  0  0  0  0
  144.9080  158.8840  133.5100 C   0  0  0  0  0  0  0  0  0  0  0  0
  144.1530  160.1420  133.7040 C   0  0  0  0  0  0  0  0  0  0  0  0
  144.7380  161.4020  133.3680 N   0  0  0  0  0  0  0  0  0  0  0  0
  142.9720  160.1100  134.1360 O   0  0  0  0  0  0  0  0  0  0  0  0
  144.3820  157.6170  133.7600 C   0  0  0  0  0  0  0  0  0  0  0  0
  145.4240  156.7430  133.5560 C   0  0  0  0  0  0  0  0  0  0  0  0
  145.4570  155.3540  133.6500 C   0  0  0  0  0  0  0  0  0  0  0  0
  146.6660  154.7030  133.3520 C   0  0  0  0  0  0  0  0  0  0  0  0
  147.8100  155.4460  132.9690 C   0  0  0  0  0  0  0  0  0  0  0  0
  149.0830  154.7310  132.5990 C   0  0  0  0  0  0  0  0  0  0  0  0
  148.9730  153.2400  132.9050 C   0  0  0  0  0  0  0  0  0  0  0  0
  149.5920  152.5110  131.8600 O   0  0  0  0  0  0  0  0  0  0  0  0
  149.4900  151.0930  131.9890 C   0  0  0  0  0  0  0  0  0  0  0  0
  148.0170  150.6390  131.8800 C   0  0  0  0  0  0  0  0  0  0  0  0
  149.9860  150.7540  133.4040 C   0  0  0  0  0  0  0  0  0  0  0  0
  150.3720  150.3160  130.9780 C   0  0  0  0  0  0  0  0  0  0  0  0
  147.7350  156.8530  132.8730 C   0  0  0  0  0  0  0  0  0  0  0  0
  146.5240  157.4780  133.1950 C   0  0  0  0  0  0  0  0  0  0  0  0
  149.3644  160.3425  131.6924 H   0  0  0  0  0  0  0  0  0  0  0  0
  148.8885  159.3812  130.2515 H   0  0  0  0  0  0  0  0  0  0  0  0
  148.6758  161.1649  130.2515 H   0  0  0  0  0  0  0  0  0  0  0  0
  145.7380  161.4740  133.0770 H   0  0  0  0  0  0  0  0  0  0  0  0
  144.1820  162.2800  133.4640 H   0  0  0  0  0  0  0  0  0  0  0  0
  143.3523  157.3692  134.0572 H   0  0  0  0  0  0  0  0  0  0  0  0
  144.5645  154.7843  133.9482 H   0  0  0  0  0  0  0  0  0  0  0  0
  146.7249  153.6065  133.4167 H   0  0  0  0  0  0  0  0  0  0  0  0
  149.2735  154.8659  131.5240 H   0  0  0  0  0  0  0  0  0  0  0  0
  149.9098  155.1530  133.1891 H   0  0  0  0  0  0  0  0  0  0  0  0
  149.4772  153.0203  133.8576 H   0  0  0  0  0  0  0  0  0  0  0  0
  147.9142  152.9525  132.9840 H   0  0  0  0  0  0  0  0  0  0  0  0
  147.5976  150.5097  132.8887 H   0  0  0  0  0  0  0  0  0  0  0  0
  147.4379  151.4004  131.3369 H   0  0  0  0  0  0  0  0  0  0  0  0
  147.9670  149.6837  131.3369 H   0  0  0  0  0  0  0  0  0  0  0  0
  149.3162  151.2118  134.1468 H   0  0  0  0  0  0  0  0  0  0  0  0
  149.9915  149.6623  133.5389 H   0  0  0  0  0  0  0  0  0  0  0  0
  151.0052  151.1453  133.5389 H   0  0  0  0  0  0  0  0  0  0  0  0
  151.0880  149.6852  131.5252 H   0  0  0  0  0  0  0  0  0  0  0  0
  149.7332  149.6818  130.3458 H   0  0  0  0  0  0  0  0  0  0  0  0
  150.9206  151.0297  130.3458 H   0  0  0  0  0  0  0  0  0  0  0  0
  148.6063  157.4433  132.5532 H   0  0  0  0  0  0  0  0  0  0  0  0
  1  2  1  0
  2  3  1  0
  3  4  2  0
  3  5  1  0
  5  6  1  0
  6  7  1  0
  7  8  1  0
  7  9  2  0
  6 10  2  0
 10 11  1  0
 11 12  2  0
 12 13  1  0
 13 14  2  0
 14 15  1  0
 15 16  1  0
 16 17  1  0
 17 18  1  0
 18 19  1  0
 18 20  1  0
 18 21  1  0
 14 22  1  0
 22 23  2  0
 23  5  1  0
 23 11  1  0
  1 24  1  0
  1 25  1  0
  1 26  1  0
  8 27  1  0
  8 28  1  0
 10 29  1  0
 12 30  1  0
 13 31  1  0
 15 32  1  0
 15 33  1  0
 16 34  1  0
 16 35  1  0
 19 36  1  0
 19 37  1  0
 19 38  1  0
 20 39  1  0
 20 40  1  0
 20 41  1  0
 21 42  1  0
 21 43  1  0
 21 44  1  0
 22 45  1  0
M  END
>  <UniqueID>  (93) 
93

>  <SMILES>  (93) 
COC(=O)n1c(C(N)=O)cc2ccc(CCOC(C)(C)C)cc21

>  <Energy>  (93) 
81.27122239511867

>  <Genealogy>  (93) 
COC(=O)n1c(C(N)=O)cc2ccc(CCOC(C)(C)C)cc21 (3D coordinates assigned)
COC(=O)n1c(C(N)=O)cc2ccc(CCOC(C)(C)C)cc21 (optimized conformer: 81.27122239511867 kcal/mol)

>  <smiles>  (93) 
COC(=O)n1c(C(N)=O)cc2ccc(CCOC(C)(C)C)cc21

>  <score_type>  (93) 
oracle

>  <origin>  (93) 
adg

>  <m_score__min__energy>  (93) 
-7.2400000000000002

>  <m_primary>  (93) 
energy

$$$$
94:0
     RDKit          3D

 49 52  0  0  0  0  0  0  0  0999 V2000
  141.6880  160.6020  133.7310 C   0  0  0  0  0  0  0  0  0  0  0  0
  140.7810  159.4900  133.4800 N   0  0  0  0  0  0  0  0  0  0  0  0
  140.4880  158.9380  132.1710 C   0  0  0  0  0  0  0  0  0  0  0  0
  139.4570  157.8170  132.4070 C   0  0  0  0  0  0  0  0  0  0  0  0
  139.3440  157.6100  133.9330 C   0  0  1  0  0  0  0  0  0  0  0  0
  139.9350  156.3760  134.3340 O   0  0  0  0  0  0  0  0  0  0  0  0
  140.2320  155.3420  133.4400 C   0  0  0  0  0  0  0  0  0  0  0  0
  139.3630  154.9430  132.6180 O   0  0  0  0  0  0  0  0  0  0  0  0
  141.5270  154.7220  133.4730 N   0  0  0  0  0  0  0  0  0  0  0  0
  142.6950  155.2620  133.9270 C   0  0  0  0  0  0  0  0  0  0  0  0
  142.9000  156.6660  134.3410 C   0  0  0  0  0  0  0  0  0  0  0  0
  142.3960  157.1150  135.5960 N   0  0  0  0  0  0  0  0  0  0  0  0
  143.5490  157.4640  133.6150 O   0  0  0  0  0  0  0  0  0  0  0  0
  143.7200  154.3200  133.8730 C   0  0  0  0  0  0  0  0  0  0  0  0
  143.1410  153.1800  133.3650 C   0  0  0  0  0  0  0  0  0  0  0  0
  143.6960  151.9340  133.1160 C   0  0  0  0  0  0  0  0  0  0  0  0
  142.8590  150.9230  132.6180 C   0  0  0  0  0  0  0  0  0  0  0  0
  141.4710  151.1590  132.3760 C   0  0  0  0  0  0  0  0  0  0  0  0
  140.6050  150.0970  131.8670 N   0  0  0  0  0  0  0  0  0  0  0  0
  139.1500  150.3380  131.7590 C   0  0  0  0  0  0  0  0  0  0  0  0
  138.3580  149.1140  131.2880 C   0  0  0  0  0  0  0  0  0  0  0  0
  139.0690  148.3990  130.3060 O   0  0  0  0  0  0  0  0  0  0  0  0
  140.1880  147.8020  130.9150 C   0  0  0  0  0  0  0  0  0  0  0  0
  141.2140  148.8590  131.3340 C   0  0  0  0  0  0  0  0  0  0  0  0
  140.9540  152.4560  132.6560 C   0  0  0  0  0  0  0  0  0  0  0  0
  141.8200  153.4470  133.1320 C   0  0  0  0  0  0  0  0  0  0  0  0
  140.1330  158.7310  134.4800 C   0  0  0  0  0  0  0  0  0  0  0  0
  140.2360  158.9840  135.7100 O   0  0  0  0  0  0  0  0  0  0  0  0
  141.8033  160.7434  134.8158 H   0  0  0  0  0  0  0  0  0  0  0  0
  142.6688  160.3834  133.2834 H   0  0  0  0  0  0  0  0  0  0  0  0
  141.2768  161.5188  133.2834 H   0  0  0  0  0  0  0  0  0  0  0  0
  140.0667  159.7134  131.5142 H   0  0  0  0  0  0  0  0  0  0  0  0
  141.3957  158.5556  131.6813 H   0  0  0  0  0  0  0  0  0  0  0  0
  138.4807  158.1105  131.9937 H   0  0  0  0  0  0  0  0  0  0  0  0
  139.7723  156.8875  131.9105 H   0  0  0  0  0  0  0  0  0  0  0  0
  138.2995  157.5813  134.2767 H   0  0  0  0  0  0  0  0  0  0  0  0
  141.3680  157.1490  135.7810 H   0  0  0  0  0  0  0  0  0  0  0  0
  144.7693  154.4583  134.1728 H   0  0  0  0  0  0  0  0  0  0  0  0
  144.7629  151.7429  133.3035 H   0  0  0  0  0  0  0  0  0  0  0  0
  143.2806  149.9286  132.4098 H   0  0  0  0  0  0  0  0  0  0  0  0
  138.7727  150.6365  132.7482 H   0  0  0  0  0  0  0  0  0  0  0  0
  139.0088  151.1238  131.0023 H   0  0  0  0  0  0  0  0  0  0  0  0
  138.1707  148.4542  132.1480 H   0  0  0  0  0  0  0  0  0  0  0  0
  137.4087  149.4582  130.8516 H   0  0  0  0  0  0  0  0  0  0  0  0
  139.8592  147.2468  131.8059 H   0  0  0  0  0  0  0  0  0  0  0  0
  140.6606  147.1228  130.1903 H   0  0  0  0  0  0  0  0  0  0  0  0
  141.8607  148.4268  132.1118 H   0  0  0  0  0  0  0  0  0  0  0  0
  141.7759  149.1390  130.4307 H   0  0  0  0  0  0  0  0  0  0  0  0
  139.8876  152.6761  132.5002 H   0  0  0  0  0  0  0  0  0  0  0  0
  1  2  1  0
  2  3  1  0
  3  4  1  0
  4  5  1  0
  5  6  1  0
  6  7  1  0
  7  8  2  0
  7  9  1  0
  9 10  1  0
 10 11  1  0
 11 12  1  0
 11 13  2  0
 10 14  2  0
 14 15  1  0
 15 16  2  0
 16 17  1  0
 17 18  2  0
 18 19  1  0
 19 20  1  0
 20 21  1  0
 21 22  1  0
 22 23  1  0
 23 24  1  0
 18 25  1  0
 25 26  2  0
  5 27  1  0
 27 28  2  0
 27  2  1  0
 26  9  1  0
 26 15  1  0
 24 19  1  0
  1 29  1  0
  1 30  1  0
  1 31  1  0
  3 32  1  0
  3 33  1  0
  4 34  1  0
  4 35  1  0
  5 36  1  1
 12 37  1  0
 14 38  1  0
 16 39  1  0
 17 40  1  0
 20 41  1  0
 20 42  1  0
 21 43  1  0
 21 44  1  0
 23 45  1  0
 23 46  1  0
 24 47  1  0
 24 48  1  0
 25 49  1  0
M  CHG  1  12  -1
M  END
>  <UniqueID>  (94) 
94

>  <SMILES>  (94) 
CN1CC[C@@H](OC(=O)n2c(C([NH-])=O)cc3ccc(N4CCOCC4)cc32)C1=O

>  <Energy>  (94) 
100.5079401720909

>  <Genealogy>  (94) 
CN1CCC(OC(=O)n2c(C([NH-])=O)cc3ccc(N4CCOCC4)cc32)C1=O (protonated)
CN1CC[C@@H](OC(=O)n2c(C([NH-])=O)cc3ccc(N4CCOCC4)cc32)C1=O (chirality)
CN1CC[C@@H](OC(=O)n2c(C([NH-])=O)cc3ccc(N4CCOCC4)cc32)C1=O (3D coordinates assigned)
CN1CC[C@@H](OC(=O)n2c(C([NH-])=O)cc3ccc(N4CCOCC4)cc32)C1=O (nonaromatic ring conformer: 100.5079401720909 kcal/mol)

>  <smiles>  (94) 
CN1CCC(OC(=O)n2c(C(N)=O)cc3ccc(N4CCOCC4)cc32)C1=O

>  <score_type>  (94) 
oracle

>  <origin>  (94) 
adg

>  <m_score__min__energy>  (94) 
-8.0099999999999998

>  <m_primary>  (94) 
energy

$$$$
95:0
     RDKit          3D

 31 33  0  0  0  0  0  0  0  0999 V2000
  138.7180  157.0030  133.3670 N   0  0  0  0  0  0  0  0  0  0  0  0
  139.3410  157.8440  134.3390 C   0  0  0  0  0  0  0  0  0  0  0  0
  138.6790  158.2230  135.3420 O   0  0  0  0  0  0  0  0  0  0  0  0
  140.7220  158.3290  134.1560 C   0  0  0  0  0  0  0  0  0  0  0  0
  141.0910  159.6620  134.3110 C   0  0  0  0  0  0  0  0  0  0  0  0
  142.4280  159.7070  133.9920 C   0  0  0  0  0  0  0  0  0  0  0  0
  143.3090  160.7830  133.9980 C   0  0  0  0  0  0  0  0  0  0  0  0
  144.6510  160.5370  133.6650 C   0  0  0  0  0  0  0  0  0  0  0  0
  145.0940  159.2290  133.3360 C   0  0  0  0  0  0  0  0  0  0  0  0
  146.5240  158.9990  133.0100 C   0  0  0  0  0  0  0  0  0  0  0  0
  147.1620  157.7780  133.3000 C   0  0  0  0  0  0  0  0  0  0  0  0
  148.5080  157.6090  132.9690 C   0  0  0  0  0  0  0  0  0  0  0  0
  149.2090  158.6440  132.3500 C   0  0  0  0  0  0  0  0  0  0  0  0
  148.5460  159.8400  132.0650 C   0  0  0  0  0  0  0  0  0  0  0  0
  149.2080  160.8540  131.4570 F   0  0  0  0  0  0  0  0  0  0  0  0
  147.2360  159.9870  132.3960 N   0  0  0  0  0  0  0  0  0  0  0  0
  144.1650  158.1590  133.3560 C   0  0  0  0  0  0  0  0  0  0  0  0
  142.8290  158.4370  133.6700 C   0  0  0  0  0  0  0  0  0  0  0  0
  141.7900  157.5750  133.7700 N   0  0  0  0  0  0  0  0  0  0  0  0
  141.8370  156.1450  133.6230 C   0  0  0  0  0  0  0  0  0  0  0  0
  142.8170  155.4900  134.0650 O   0  0  0  0  0  0  0  0  0  0  0  0
  140.7960  155.4700  132.9970 O   0  0  0  0  0  0  0  0  0  0  0  0
  137.7520  156.6410  133.5300 H   0  0  0  0  0  0  0  0  0  0  0  0
  139.1770  156.8080  132.4500 H   0  0  0  0  0  0  0  0  0  0  0  0
  140.4503  160.5003  134.6221 H   0  0  0  0  0  0  0  0  0  0  0  0
  142.9653  161.7957  134.2557 H   0  0  0  0  0  0  0  0  0  0  0  0
  145.3694  161.3700  133.6590 H   0  0  0  0  0  0  0  0  0  0  0  0
  146.6041  156.9628  133.7840 H   0  0  0  0  0  0  0  0  0  0  0  0
  149.0154  156.6599  133.1963 H   0  0  0  0  0  0  0  0  0  0  0  0
  150.2705  158.5199  132.0896 H   0  0  0  0  0  0  0  0  0  0  0  0
  144.4866  157.1317  133.1296 H   0  0  0  0  0  0  0  0  0  0  0  0
  1  2  1  0
  2  3  2  0
  2  4  1  0
  4  5  2  0
  5  6  1  0
  6  7  2  0
  7  8  1  0
  8  9  2  0
  9 10  1  0
 10 11  2  0
 11 12  1  0
 12 13  2  0
 13 14  1  0
 14 15  1  0
 14 16  2  0
  9 17  1  0
 17 18  2  0
 18 19  1  0
 19 20  1  0
 20 21  2  0
 20 22  1  0
 19  4  1  0
 18  6  1  0
 16 10  1  0
  1 23  1  0
  1 24  1  0
  5 25  1  0
  7 26  1  0
  8 27  1  0
 11 28  1  0
 12 29  1  0
 13 30  1  0
 17 31  1  0
M  CHG  1  22  -1
M  END
>  <UniqueID>  (95) 
95

>  <SMILES>  (95) 
NC(=O)c1cc2ccc(-c3cccc(F)n3)cc2n1C(=O)[O-]

>  <Energy>  (95) 
78.69130970752198

>  <Genealogy>  (95) 
NC(=O)c1cc2ccc(-c3cccc(F)n3)cc2n1C(=O)[O-] (protonated)
NC(=O)c1cc2ccc(-c3cccc(F)n3)cc2n1C(=O)[O-] (3D coordinates assigned)
NC(=O)c1cc2ccc(-c3cccc(F)n3)cc2n1C(=O)[O-] (optimized conformer: 78.69130970752198 kcal/mol)

>  <smiles>  (95) 
NC(=O)c1cc2ccc(-c3cccc(F)n3)cc2n1C(=O)O

>  <score_type>  (95) 
oracle

>  <origin>  (95) 
adg

>  <m_score__min__energy>  (95) 
-7.0599999999999996

>  <m_primary>  (95) 
energy

$$$$
96:0
     RDKit          3D

 38 39  0  0  0  0  0  0  0  0999 V2000
  139.5000  158.0130  135.0990 C   0  0  0  0  0  0  0  0  0  0  0  0
  139.7630  157.7320  133.6830 N   0  0  0  0  0  0  0  0  0  0  0  0
  140.0400  158.8540  132.7710 C   0  0  0  0  0  0  0  0  0  0  0  0
  138.9660  158.9360  131.6860 C   0  0  0  0  0  0  0  0  0  0  0  0
  137.7160  158.5840  132.2130 O   0  0  0  0  0  0  0  0  0  0  0  0
  139.8100  156.3550  133.2460 C   0  0  0  0  0  0  0  0  0  0  0  0
  139.1490  156.0020  132.2310 O   0  0  0  0  0  0  0  0  0  0  0  0
  140.6720  155.3180  133.9230 C   0  0  0  0  0  0  0  0  0  0  0  0
  142.1370  155.6260  133.7410 C   0  0  0  0  0  0  0  0  0  0  0  0
  143.0560  154.5850  133.4540 C   0  0  0  0  0  0  0  0  0  0  0  0
  144.4230  154.8620  133.2860 C   0  0  0  0  0  0  0  0  0  0  0  0
  144.8380  156.1860  133.3910 C   0  0  0  0  0  0  0  0  0  0  0  0
  146.0990  156.7270  133.2970 C   0  0  0  0  0  0  0  0  0  0  0  0
  145.9290  158.0970  133.4890 C   0  0  0  0  0  0  0  0  0  0  0  0
  147.0340  159.0730  133.3820 C   0  0  0  0  0  0  0  0  0  0  0  0
  146.9840  160.1360  132.4340 N   0  0  0  0  0  0  0  0  0  0  0  0
  148.0560  158.9390  134.1050 O   0  0  0  0  0  0  0  0  0  0  0  0
  144.6140  158.3910  133.7010 N   0  0  0  0  0  0  0  0  0  0  0  0
  144.0370  159.6660  134.0250 C   0  0  0  0  0  0  0  0  0  0  0  0
  144.3900  160.7010  133.4010 O   0  0  0  0  0  0  0  0  0  0  0  0
  143.1020  159.7720  135.0470 O   0  0  0  0  0  0  0  0  0  0  0  0
  143.9590  157.2100  133.6350 C   0  0  0  0  0  0  0  0  0  0  0  0
  142.5960  156.9610  133.8260 C   0  0  0  0  0  0  0  0  0  0  0  0
  140.1181  157.3525  135.7248 H   0  0  0  0  0  0  0  0  0  0  0  0
  139.7481  159.0623  135.3168 H   0  0  0  0  0  0  0  0  0  0  0  0
  138.4366  157.8348  135.3168 H   0  0  0  0  0  0  0  0  0  0  0  0
  140.0491  159.7930  133.3438 H   0  0  0  0  0  0  0  0  0  0  0  0
  141.0180  158.6931  132.2938 H   0  0  0  0  0  0  0  0  0  0  0  0
  138.9199  159.9642  131.2977 H   0  0  0  0  0  0  0  0  0  0  0  0
  139.2222  158.2386  130.8748 H   0  0  0  0  0  0  0  0  0  0  0  0
  137.7340  157.6010  132.3580 H   0  0  0  0  0  0  0  0  0  0  0  0
  140.4389  155.3034  134.9979 H   0  0  0  0  0  0  0  0  0  0  0  0
  140.4621  154.3386  133.4682 H   0  0  0  0  0  0  0  0  0  0  0  0
  142.6949  153.5500  133.3620 H   0  0  0  0  0  0  0  0  0  0  0  0
  145.1432  154.0570  133.0778 H   0  0  0  0  0  0  0  0  0  0  0  0
  147.0417  156.1920  133.1100 H   0  0  0  0  0  0  0  0  0  0  0  0
  146.0730  160.4780  132.0580 H   0  0  0  0  0  0  0  0  0  0  0  0
  141.8975  157.7841  134.0374 H   0  0  0  0  0  0  0  0  0  0  0  0
  1  2  1  0
  2  3  1  0
  3  4  1  0
  4  5  1  0
  2  6  1  0
  6  7  2  0
  6  8  1  0
  8  9  1  0
  9 10  2  0
 10 11  1  0
 11 12  2  0
 12 13  1  0
 13 14  2  0
 14 15  1  0
 15 16  1  0
 15 17  2  0
 14 18  1  0
 18 19  1  0
 19 20  2  0
 19 21  1  0
 18 22  1  0
 22 23  2  0
 23  9  1  0
 22 12  1  0
  1 24  1  0
  1 25  1  0
  1 26  1  0
  3 27  1  0
  3 28  1  0
  4 29  1  0
  4 30  1  0
  5 31  1  0
  8 32  1  0
  8 33  1  0
 10 34  1  0
 11 35  1  0
 13 36  1  0
 16 37  1  0
 23 38  1  0
M  CHG  2  16  -1  21  -1
M  END
>  <UniqueID>  (96) 
96

>  <SMILES>  (96) 
CN(CCO)C(=O)Cc1ccc2cc(C([NH-])=O)n(C(=O)[O-])c2c1

>  <Energy>  (96) 
73.30840754661175

>  <Genealogy>  (96) 
CN(CCO)C(=O)Cc1ccc2cc(C([NH-])=O)n(C(=O)[O-])c2c1 (protonated)
CN(CCO)C(=O)Cc1ccc2cc(C([NH-])=O)n(C(=O)[O-])c2c1 (3D coordinates assigned)
CN(CCO)C(=O)Cc1ccc2cc(C([NH-])=O)n(C(=O)[O-])c2c1 (optimized conformer: 73.30840754661175 kcal/mol)

>  <smiles>  (96) 
CN(CCO)C(=O)Cc1ccc2cc(C(N)=O)n(C(=O)O)c2c1

>  <score_type>  (96) 
oracle

>  <origin>  (96) 
adg

>  <m_score__min__energy>  (96) 
-6.2800000000000002

>  <m_primary>  (96) 
energy

$$$$
97:0
     RDKit          3D

 35 37  0  0  0  0  0  0  0  0999 V2000
  141.8590  157.8050  132.6060 C   0  0  0  0  0  0  0  0  0  0  0  0
  143.2750  157.9230  132.6750 O   0  0  0  0  0  0  0  0  0  0  0  0
  143.9240  158.6360  133.6870 C   0  0  0  0  0  0  0  0  0  0  0  0
  143.3400  158.8570  134.7840 O   0  0  0  0  0  0  0  0  0  0  0  0
  145.2700  159.0950  133.4860 N   0  0  0  0  0  0  0  0  0  0  0  0
  145.7680  160.3470  133.6970 C   0  0  0  0  0  0  0  0  0  0  0  0
  144.9810  161.5530  134.0270 C   0  0  0  0  0  0  0  0  0  0  0  0
  143.5850  161.6170  133.7500 N   0  0  0  0  0  0  0  0  0  0  0  0
  145.5600  162.5600  134.5160 O   0  0  0  0  0  0  0  0  0  0  0  0
  147.1440  160.3680  133.4750 C   0  0  0  0  0  0  0  0  0  0  0  0
  147.4750  159.0820  133.1110 C   0  0  0  0  0  0  0  0  0  0  0  0
  148.7130  158.5340  132.7940 C   0  0  0  0  0  0  0  0  0  0  0  0
  148.7680  157.1630  132.4880 C   0  0  0  0  0  0  0  0  0  0  0  0
  147.5910  156.3700  132.5040 C   0  0  0  0  0  0  0  0  0  0  0  0
  147.6680  154.9570  132.2340 N   0  0  0  0  0  0  0  0  0  0  0  0
  148.7540  154.3720  133.0320 C   0  0  0  0  0  0  0  0  0  0  0  0
  148.5980  152.8800  133.2870 C   0  0  0  0  0  0  0  0  0  0  0  0
  149.6410  153.3770  132.2950 C   0  0  0  0  0  0  0  0  0  0  0  0
  146.3530  156.9640  132.8430 C   0  0  0  0  0  0  0  0  0  0  0  0
  146.3250  158.3340  133.1250 C   0  0  0  0  0  0  0  0  0  0  0  0
  141.4439  157.7704  133.6241 H   0  0  0  0  0  0  0  0  0  0  0  0
  141.4445  158.6717  132.0703 H   0  0  0  0  0  0  0  0  0  0  0  0
  141.5937  156.8816  132.0703 H   0  0  0  0  0  0  0  0  0  0  0  0
  142.9920  160.7590  133.7810 H   0  0  0  0  0  0  0  0  0  0  0  0
  147.8216  161.2292  133.5704 H   0  0  0  0  0  0  0  0  0  0  0  0
  149.6214  159.1542  132.7830 H   0  0  0  0  0  0  0  0  0  0  0  0
  149.7329  156.7002  132.2336 H   0  0  0  0  0  0  0  0  0  0  0  0
  147.7930  154.7990  131.2060 H   0  0  0  0  0  0  0  0  0  0  0  0
  146.7690  154.4970  132.5130 H   0  0  0  0  0  0  0  0  0  0  0  0
  148.9408  155.2619  133.6510 H   0  0  0  0  0  0  0  0  0  0  0  0
  148.9147  152.4505  134.2489 H   0  0  0  0  0  0  0  0  0  0  0  0
  147.7614  152.1671  133.2439 H   0  0  0  0  0  0  0  0  0  0  0  0
  150.7110  153.3069  132.5404 H   0  0  0  0  0  0  0  0  0  0  0  0
  149.8700  153.1723  131.2388 H   0  0  0  0  0  0  0  0  0  0  0  0
  145.4330  156.3624  132.8840 H   0  0  0  0  0  0  0  0  0  0  0  0
  1  2  1  0
  2  3  1  0
  3  4  2  0
  3  5  1  0
  5  6  1  0
  6  7  1  0
  7  8  1  0
  7  9  2  0
  6 10  2  0
 10 11  1  0
 11 12  2  0
 12 13  1  0
 13 14  2  0
 14 15  1  0
 15 16  1  0
 16 17  1  0
 17 18  1  0
 14 19  1  0
 19 20  2  0
 20  5  1  0
 20 11  1  0
 18 16  1  0
  1 21  1  0
  1 22  1  0
  1 23  1  0
  8 24  1  0
 10 25  1  0
 12 26  1  0
 13 27  1  0
 15 28  1  0
 15 29  1  0
 16 30  1  0
 17 31  1  0
 17 32  1  0
 18 33  1  0
 18 34  1  0
 19 35  1  0
M  CHG  2   8  -1  15   1
M  END
>  <UniqueID>  (97) 
97

>  <SMILES>  (97) 
COC(=O)n1c(C([NH-])=O)cc2ccc([NH2+]C3CC3)cc21

>  <Energy>  (97) 
339.35484336920797

>  <Genealogy>  (97) 
COC(=O)n1c(C([NH-])=O)cc2ccc([NH2+]C3CC3)cc21 (protonated)
COC(=O)n1c(C([NH-])=O)cc2ccc([NH2+]C3CC3)cc21 (3D coordinates assigned)
COC(=O)n1c(C([NH-])=O)cc2ccc([NH2+]C3CC3)cc21 (nonaromatic ring conformer: 339.35484336920797 kcal/mol)

>  <smiles>  (97) 
COC(=O)n1c(C(N)=O)cc2ccc(NC3CC3)cc21

>  <score_type>  (97) 
oracle

>  <origin>  (97) 
adg

>  <m_score__min__energy>  (97) 
-6.0499999999999998

>  <m_primary>  (97) 
energy

$$$$
98:0
     RDKit          3D

 49 51  0  0  0  0  0  0  0  0999 V2000
  145.2820  160.5100  133.7500 C   0  0  0  0  0  0  0  0  0  0  0  0
  145.5090  159.1830  133.0350 C   0  0  0  0  0  0  0  0  0  0  0  0
  144.2680  158.5240  132.7930 O   0  0  0  0  0  0  0  0  0  0  0  0
  143.7590  157.5120  133.6150 C   0  0  0  0  0  0  0  0  0  0  0  0
  144.5330  156.8330  134.3450 O   0  0  0  0  0  0  0  0  0  0  0  0
  142.3450  157.2650  133.6470 N   0  0  0  0  0  0  0  0  0  0  0  0
  141.3410  158.1660  133.8510 C   0  0  0  0  0  0  0  0  0  0  0  0
  141.5110  159.5860  134.2230 C   0  0  0  0  0  0  0  0  0  0  0  0
  142.2100  160.4690  133.3490 N   0  0  0  0  0  0  0  0  0  0  0  0
  141.0150  160.0380  135.2880 O   0  0  0  0  0  0  0  0  0  0  0  0
  140.0980  157.5430  133.7460 C   0  0  0  0  0  0  0  0  0  0  0  0
  140.3740  156.2220  133.4760 C   0  0  0  0  0  0  0  0  0  0  0  0
  139.5100  155.1530  133.2680 C   0  0  0  0  0  0  0  0  0  0  0  0
  140.0700  153.8970  132.9830 C   0  0  0  0  0  0  0  0  0  0  0  0
  141.4810  153.7320  132.8970 C   0  0  0  0  0  0  0  0  0  0  0  0
  142.0810  152.4570  132.5970 N   0  0  0  0  0  0  0  0  0  0  0  0
  141.5020  151.1610  132.9540 C   0  0  0  0  0  0  0  0  0  0  0  0
  140.2190  150.9040  132.1490 C   0  0  0  0  0  0  0  0  0  0  0  0
  140.4300  149.8680  131.1140 N   0  0  0  0  0  0  0  0  0  0  0  0
  140.4990  148.5100  131.7080 C   0  0  0  0  0  0  0  0  0  0  0  0
  140.0650  147.4330  130.6990 C   0  0  0  0  0  0  0  0  0  0  0  0
  138.7260  147.5860  130.2490 O   0  0  0  0  0  0  0  0  0  0  0  0
  138.2790  148.9350  130.2330 C   0  0  0  0  0  0  0  0  0  0  0  0
  139.4110  149.9620  130.0400 C   0  0  0  0  0  0  0  0  0  0  0  0
  142.3220  154.8450  133.1220 C   0  0  0  0  0  0  0  0  0  0  0  0
  141.7350  156.0790  133.4220 C   0  0  0  0  0  0  0  0  0  0  0  0
  145.3094  160.3497  134.8379 H   0  0  0  0  0  0  0  0  0  0  0  0
  146.0717  161.2204  133.4640 H   0  0  0  0  0  0  0  0  0  0  0  0
  144.3011  160.9175  133.4640 H   0  0  0  0  0  0  0  0  0  0  0  0
  146.0115  159.3712  132.0748 H   0  0  0  0  0  0  0  0  0  0  0  0
  146.1336  158.5395  133.6720 H   0  0  0  0  0  0  0  0  0  0  0  0
  142.8060  160.0980  132.5760 H   0  0  0  0  0  0  0  0  0  0  0  0
  139.1074  158.0084  133.8557 H   0  0  0  0  0  0  0  0  0  0  0  0
  138.4197  155.2869  133.3250 H   0  0  0  0  0  0  0  0  0  0  0  0
  139.4106  153.0310  132.8244 H   0  0  0  0  0  0  0  0  0  0  0  0
  142.9960  152.4460  132.0920 H   0  0  0  0  0  0  0  0  0  0  0  0
  142.2311  150.3666  132.7362 H   0  0  0  0  0  0  0  0  0  0  0  0
  141.2543  151.1654  134.0257 H   0  0  0  0  0  0  0  0  0  0  0  0
  139.4271  150.5687  132.8350 H   0  0  0  0  0  0  0  0  0  0  0  0
  139.9308  151.8401  131.6484 H   0  0  0  0  0  0  0  0  0  0  0  0
  141.5337  148.3093  132.0228 H   0  0  0  0  0  0  0  0  0  0  0  0
  139.8150  148.4736  132.5687 H   0  0  0  0  0  0  0  0  0  0  0  0
  140.7335  147.4831  129.8269 H   0  0  0  0  0  0  0  0  0  0  0  0
  140.1247  146.4631  131.2146 H   0  0  0  0  0  0  0  0  0  0  0  0
  137.5598  149.0524  129.4090 H   0  0  0  0  0  0  0  0  0  0  0  0
  137.8285  149.1353  131.2163 H   0  0  0  0  0  0  0  0  0  0  0  0
  139.8974  149.7777  129.0707 H   0  0  0  0  0  0  0  0  0  0  0  0
  138.9688  150.9686  130.0757 H   0  0  0  0  0  0  0  0  0  0  0  0
  143.4157  154.7433  133.0625 H   0  0  0  0  0  0  0  0  0  0  0  0
  1  2  1  0
  2  3  1  0
  3  4  1  0
  4  5  2  0
  4  6  1  0
  6  7  1  0
  7  8  1  0
  8  9  1  0
  8 10  2  0
  7 11  2  0
 11 12  1  0
 12 13  2  0
 13 14  1  0
 14 15  2  0
 15 16  1  0
 16 17  1  0
 17 18  1  0
 18 19  1  0
 19 20  1  0
 20 21  1  0
 21 22  1  0
 22 23  1  0
 23 24  1  0
 15 25  1  0
 25 26  2  0
 26  6  1  0
 26 12  1  0
 24 19  1  0
  1 27  1  0
  1 28  1  0
  1 29  1  0
  2 30  1  0
  2 31  1  0
  9 32  1  0
 11 33  1  0
 13 34  1  0
 14 35  1  0
 16 36  1  0
 17 37  1  0
 17 38  1  0
 18 39  1  0
 18 40  1  0
 20 41  1  0
 20 42  1  0
 21 43  1  0
 21 44  1  0
 23 45  1  0
 23 46  1  0
 24 47  1  0
 24 48  1  0
 25 49  1  0
M  CHG  1   9  -1
M  END
>  <UniqueID>  (98) 
98

>  <SMILES>  (98) 
CCOC(=O)n1c(C([NH-])=O)cc2ccc(NCCN3CCOCC3)cc21

>  <Energy>  (98) 
97.44929760241159

>  <Genealogy>  (98) 
CCOC(=O)n1c(C([NH-])=O)cc2ccc(NCCN3CCOCC3)cc21 (protonated)
CCOC(=O)n1c(C([NH-])=O)cc2ccc(NCCN3CCOCC3)cc21 (3D coordinates assigned)
CCOC(=O)n1c(C([NH-])=O)cc2ccc(NCCN3CCOCC3)cc21 (nonaromatic ring conformer: 97.44929760241159 kcal/mol)

>  <smiles>  (98) 
CCOC(=O)n1c(C(N)=O)cc2ccc(NCCN3CCOCC3)cc21

>  <score_type>  (98) 
oracle

>  <origin>  (98) 
adg

>  <m_score__min__energy>  (98) 
-7.1799999999999997

>  <m_primary>  (98) 
energy

$$$$
