0:0
     RDKit          3D

 38 39  0  0  0  0  0  0  0  0999 V2000
  144.3680  154.6950  131.7490 C   0  0  0  0  0  0  0  0  0  0  0  0
  144.1110  155.1310  133.1270 N   0  0  0  0  0  0  0  0  0  0  0  0
  144.1910  154.1440  134.2110 C   0  0  0  0  0  0  0  0  0  0  0  0
  143.7850  156.5160  133.4130 C   0  0  0  0  0  0  0  0  0  0  0  0
  142.4560  156.8950  133.7550 C   0  0  0  0  0  0  0  0  0  0  0  0
  142.1280  158.2340  134.0200 C   0  0  0  0  0  0  0  0  0  0  0  0
  143.1430  159.1810  133.9510 C   0  0  0  0  0  0  0  0  0  0  0  0
  143.0930  160.5430  134.1320 C   0  0  0  0  0  0  0  0  0  0  0  0
  144.3950  160.9910  133.9280 C   0  0  0  0  0  0  0  0  0  0  0  0
  144.8030  162.4010  134.1050 C   0  0  0  0  0  0  0  0  0  0  0  0
  145.8600  162.7560  134.9900 N   0  0  0  0  0  0  0  0  0  0  0  0
  144.1740  163.3110  133.5000 O   0  0  0  0  0  0  0  0  0  0  0  0
  145.2180  159.9460  133.6240 N   0  0  0  0  0  0  0  0  0  0  0  0
  146.6110  159.9910  133.2690 C   0  0  0  0  0  0  0  0  0  0  0  0
  147.3460  160.9100  133.7220 O   0  0  0  0  0  0  0  0  0  0  0  0
  147.1330  159.0350  132.3890 O   0  0  0  0  0  0  0  0  0  0  0  0
  148.3140  159.2290  131.6120 C   0  0  0  0  0  0  0  0  0  0  0  0
  148.1980  160.4840  130.7450 C   0  0  0  0  0  0  0  0  0  0  0  0
  149.5390  160.9760  130.2980 C   0  0  0  0  0  0  0  0  0  0  0  0
  150.4240  160.1580  129.9330 O   0  0  0  0  0  0  0  0  0  0  0  0
  149.8170  162.3370  130.2980 O   0  0  0  0  0  0  0  0  0  0  0  0
  144.4340  158.8440  133.6440 C   0  0  0  0  0  0  0  0  0  0  0  0
  144.7850  157.5210  133.3520 C   0  0  0  0  0  0  0  0  0  0  0  0
  144.9265  153.7475  131.7624 H   0  0  0  0  0  0  0  0  0  0  0  0
  143.4113  154.5493  131.2260 H   0  0  0  0  0  0  0  0  0  0  0  0
  144.9587  155.4615  131.2260 H   0  0  0  0  0  0  0  0  0  0  0  0
  144.1491  154.6607  135.1812 H   0  0  0  0  0  0  0  0  0  0  0  0
  143.3467  153.4433  134.1320 H   0  0  0  0  0  0  0  0  0  0  0  0
  145.1371  153.5885  134.1320 H   0  0  0  0  0  0  0  0  0  0  0  0
  141.6724  156.1251  133.8126 H   0  0  0  0  0  0  0  0  0  0  0  0
  141.0982  158.5251  134.2747 H   0  0  0  0  0  0  0  0  0  0  0  0
  142.2111  161.1500  134.3845 H   0  0  0  0  0  0  0  0  0  0  0  0
  146.8530  162.7590  134.6680 H   0  0  0  0  0  0  0  0  0  0  0  0
  149.1756  159.3364  132.2873 H   0  0  0  0  0  0  0  0  0  0  0  0
  148.4478  158.3583  130.9532 H   0  0  0  0  0  0  0  0  0  0  0  0
  147.5910  160.2494  129.8582 H   0  0  0  0  0  0  0  0  0  0  0  0
  147.7272  161.2743  131.3482 H   0  0  0  0  0  0  0  0  0  0  0  0
  145.8194  157.2643  133.0796 H   0  0  0  0  0  0  0  0  0  0  0  0
  1  2  1  0
  2  3  1  0
  2  4  1  0
  4  5  2  0
  5  6  1  0
  6  7  2  0
  7  8  1  0
  8  9  2  0
  9 10  1  0
 10 11  1  0
 10 12  2  0
  9 13  1  0
 13 14  1  0
 14 15  2  0
 14 16  1  0
 16 17  1  0
 17 18  1  0
 18 19  1  0
 19 20  2  0
 19 21  1  0
 13 22  1  0
 22 23  2  0
 23  4  1  0
 22  7  1  0
  1 24  1  0
  1 25  1  0
  1 26  1  0
  3 27  1  0
  3 28  1  0
  3 29  1  0
  5 30  1  0
  6 31  1  0
  8 32  1  0
 11 33  1  0
 17 34  1  0
 17 35  1  0
 18 36  1  0
 18 37  1  0
 23 38  1  0
M  CHG  2  11  -1  21  -1
M  END
>  <UniqueID>  (1) 
1

>  <SMILES>  (1) 
CN(C)c1ccc2cc(C([NH-])=O)n(C(=O)OCCC(=O)[O-])c2c1

>  <Energy>  (1) 
75.13245038175772

>  <Genealogy>  (1) 
CN(C)c1ccc2cc(C([NH-])=O)n(C(=O)OCCC(=O)[O-])c2c1 (protonated)
CN(C)c1ccc2cc(C([NH-])=O)n(C(=O)OCCC(=O)[O-])c2c1 (3D coordinates assigned)
CN(C)c1ccc2cc(C([NH-])=O)n(C(=O)OCCC(=O)[O-])c2c1 (optimized conformer: 75.13245038175772 kcal/mol)

>  <smiles>  (1) 
CN(C)c1ccc2cc(C(N)=O)n(C(=O)OCCC(=O)O)c2c1

>  <score_type>  (1) 
oracle

>  <origin>  (1) 
adg

>  <m_score__min__energy>  (1) 
-6.1399999999999997

>  <m_primary>  (1) 
energy

$$$$
1:0
     RDKit          3D

 30 31  0  0  0  0  0  0  0  0999 V2000
  143.0900  161.2540  133.7440 N   0  0  0  0  0  0  0  0  0  0  0  0
  144.5020  161.4360  133.8090 C   0  0  0  0  0  0  0  0  0  0  0  0
  144.9640  162.5530  134.1630 O   0  0  0  0  0  0  0  0  0  0  0  0
  145.4270  160.3190  133.5210 C   0  0  0  0  0  0  0  0  0  0  0  0
  146.7920  160.4930  133.3050 C   0  0  0  0  0  0  0  0  0  0  0  0
  147.3050  159.2230  133.1690 C   0  0  0  0  0  0  0  0  0  0  0  0
  148.6100  158.8050  132.9280 C   0  0  0  0  0  0  0  0  0  0  0  0
  148.8480  157.4260  132.8040 C   0  0  0  0  0  0  0  0  0  0  0  0
  147.7850  156.4970  132.9160 C   0  0  0  0  0  0  0  0  0  0  0  0
  148.0590  155.0280  132.7630 C   0  0  0  0  0  0  0  0  0  0  0  0
  149.3990  154.8300  132.4890 F   0  0  0  0  0  0  0  0  0  0  0  0
  147.7290  154.3680  133.9320 F   0  0  0  0  0  0  0  0  0  0  0  0
  146.4710  156.9580  133.1580 C   0  0  0  0  0  0  0  0  0  0  0  0
  146.2660  158.3360  133.2960 C   0  0  0  0  0  0  0  0  0  0  0  0
  145.1060  158.9940  133.5090 N   0  0  0  0  0  0  0  0  0  0  0  0
  143.8020  158.4020  133.6130 C   0  0  0  0  0  0  0  0  0  0  0  0
  143.2670  157.8770  132.5980 O   0  0  0  0  0  0  0  0  0  0  0  0
  143.1420  158.3920  134.8470 O   0  0  0  0  0  0  0  0  0  0  0  0
  141.8890  157.7430  135.0590 C   0  0  0  0  0  0  0  0  0  0  0  0
  140.9060  158.6940  135.6620 C   0  0  0  0  0  0  0  0  0  0  0  0
  141.0950  159.9350  135.5790 O   0  0  0  0  0  0  0  0  0  0  0  0
  139.7640  158.2120  136.2900 O   0  0  0  0  0  0  0  0  0  0  0  0
  142.6430  160.3840  134.1120 H   0  0  0  0  0  0  0  0  0  0  0  0
  147.3431  161.4436  133.2539 H   0  0  0  0  0  0  0  0  0  0  0  0
  149.4304  159.5321  132.8373 H   0  0  0  0  0  0  0  0  0  0  0  0
  149.8701  157.0643  132.6181 H   0  0  0  0  0  0  0  0  0  0  0  0
  147.4526  154.6330  131.9346 H   0  0  0  0  0  0  0  0  0  0  0  0
  145.6309  156.2521  133.2359 H   0  0  0  0  0  0  0  0  0  0  0  0
  141.5000  157.3820  134.0955 H   0  0  0  0  0  0  0  0  0  0  0  0
  142.0365  156.8977  135.7473 H   0  0  0  0  0  0  0  0  0  0  0  0
  1  2  1  0
  2  3  2  0
  2  4  1  0
  4  5  2  0
  5  6  1  0
  6  7  2  0
  7  8  1  0
  8  9  2  0
  9 10  1  0
 10 11  1  0
 10 12  1  0
  9 13  1  0
 13 14  2  0
 14 15  1  0
 15 16  1  0
 16 17  2  0
 16 18  1  0
 18 19  1  0
 19 20  1  0
 20 21  2  0
 20 22  1  0
 15  4  1  0
 14  6  1  0
  1 23  1  0
  5 24  1  0
  7 25  1  0
  8 26  1  0
 10 27  1  0
 13 28  1  0
 19 29  1  0
 19 30  1  0
M  CHG  2   1  -1  22  -1
M  END
>  <UniqueID>  (2) 
2

>  <SMILES>  (2) 
[NH-]C(=O)c1cc2ccc(C(F)F)cc2n1C(=O)OCC(=O)[O-]

>  <Energy>  (2) 
67.04724881597787

>  <Genealogy>  (2) 
[NH-]C(=O)c1cc2ccc(C(F)F)cc2n1C(=O)OCC(=O)[O-] (protonated)
[NH-]C(=O)c1cc2ccc(C(F)F)cc2n1C(=O)OCC(=O)[O-] (3D coordinates assigned)
[NH-]C(=O)c1cc2ccc(C(F)F)cc2n1C(=O)OCC(=O)[O-] (optimized conformer: 67.04724881597787 kcal/mol)

>  <smiles>  (2) 
NC(=O)c1cc2ccc(C(F)F)cc2n1C(=O)OCC(=O)O

>  <score_type>  (2) 
oracle

>  <origin>  (2) 
adg

>  <m_score__min__energy>  (2) 
-5.5999999999999996

>  <m_primary>  (2) 
energy

$$$$
2:0
     RDKit          3D

 32 33  0  0  0  0  0  0  0  0999 V2000
  147.8190  154.3860  133.6090 C   0  0  0  0  0  0  0  0  0  0  0  0
  147.4610  155.7930  133.8030 N   0  0  0  0  0  0  0  0  0  0  0  0
  147.3630  156.3590  135.1520 C   0  0  0  0  0  0  0  0  0  0  0  0
  147.1470  156.6080  132.6570 C   0  0  0  0  0  0  0  0  0  0  0  0
  147.0330  156.0820  131.5170 O   0  0  0  0  0  0  0  0  0  0  0  0
  146.9610  158.0230  132.7940 N   0  0  0  0  0  0  0  0  0  0  0  0
  147.8790  159.0090  132.5890 C   0  0  0  0  0  0  0  0  0  0  0  0
  149.2560  158.8150  132.0890 C   0  0  0  0  0  0  0  0  0  0  0  0
  149.7760  157.5090  131.8530 N   0  0  0  0  0  0  0  0  0  0  0  0
  149.9810  159.8190  131.8500 O   0  0  0  0  0  0  0  0  0  0  0  0
  147.3280  160.2530  132.8920 C   0  0  0  0  0  0  0  0  0  0  0  0
  146.0370  159.9930  133.2950 C   0  0  0  0  0  0  0  0  0  0  0  0
  145.0400  160.8580  133.7350 C   0  0  0  0  0  0  0  0  0  0  0  0
  143.8060  160.3030  134.1150 C   0  0  0  0  0  0  0  0  0  0  0  0
  143.5850  158.9030  134.0390 C   0  0  0  0  0  0  0  0  0  0  0  0
  142.2760  158.3140  134.5010 C   0  0  0  0  0  0  0  0  0  0  0  0
  142.5190  157.4020  135.5120 F   0  0  0  0  0  0  0  0  0  0  0  0
  141.4360  159.3050  134.9800 F   0  0  0  0  0  0  0  0  0  0  0  0
  141.6340  157.6690  133.4570 F   0  0  0  0  0  0  0  0  0  0  0  0
  144.6330  158.0550  133.6120 C   0  0  0  0  0  0  0  0  0  0  0  0
  145.8440  158.6390  133.2290 C   0  0  0  0  0  0  0  0  0  0  0  0
  147.9425  153.9007  134.5884 H   0  0  0  0  0  0  0  0  0  0  0  0
  147.0213  153.8789  133.0465 H   0  0  0  0  0  0  0  0  0  0  0  0
  148.7621  154.3218  133.0465 H   0  0  0  0  0  0  0  0  0  0  0  0
  147.5013  155.5603  135.8956 H   0  0  0  0  0  0  0  0  0  0  0  0
  148.1421  157.1239  135.2862 H   0  0  0  0  0  0  0  0  0  0  0  0
  146.3721  156.8174  135.2862 H   0  0  0  0  0  0  0  0  0  0  0  0
  149.1540  156.7290  131.5490 H   0  0  0  0  0  0  0  0  0  0  0  0
  147.8201  161.2344  132.8237 H   0  0  0  0  0  0  0  0  0  0  0  0
  145.2124  161.9433  133.7840 H   0  0  0  0  0  0  0  0  0  0  0  0
  143.0019  160.9614  134.4756 H   0  0  0  0  0  0  0  0  0  0  0  0
  144.4987  156.9636  133.5820 H   0  0  0  0  0  0  0  0  0  0  0  0
  1  2  1  0
  2  3  1  0
  2  4  1  0
  4  5  2  0
  4  6  1  0
  6  7  1  0
  7  8  1  0
  8  9  1  0
  8 10  2  0
  7 11  2  0
 11 12  1  0
 12 13  2  0
 13 14  1  0
 14 15  2  0
 15 16  1  0
 16 17  1  0
 16 18  1  0
 16 19  1  0
 15 20  1  0
 20 21  2  0
 21  6  1  0
 21 12  1  0
  1 22  1  0
  1 23  1  0
  1 24  1  0
  3 25  1  0
  3 26  1  0
  3 27  1  0
  9 28  1  0
 11 29  1  0
 13 30  1  0
 14 31  1  0
 20 32  1  0
M  CHG  1   9  -1
M  END
>  <UniqueID>  (3) 
3

>  <SMILES>  (3) 
CN(C)C(=O)n1c(C([NH-])=O)cc2ccc(C(F)(F)F)cc21

>  <Energy>  (3) 
69.73761999457348

>  <Genealogy>  (3) 
CN(C)C(=O)n1c(C([NH-])=O)cc2ccc(C(F)(F)F)cc21 (protonated)
CN(C)C(=O)n1c(C([NH-])=O)cc2ccc(C(F)(F)F)cc21 (3D coordinates assigned)
CN(C)C(=O)n1c(C([NH-])=O)cc2ccc(C(F)(F)F)cc21 (optimized conformer: 69.73761999457348 kcal/mol)

>  <smiles>  (3) 
CN(C)C(=O)n1c(C(N)=O)cc2ccc(C(F)(F)F)cc21

>  <score_type>  (3) 
oracle

>  <origin>  (3) 
adg

>  <m_score__min__energy>  (3) 
-5.79

>  <m_primary>  (3) 
energy

$$$$
3:0
     RDKit          3D

 42 43  0  0  0  0  0  0  0  0999 V2000
  149.0070  159.9680  131.3470 C   0  0  0  0  0  0  0  0  0  0  0  0
  147.7390  160.1030  131.7310 C   0  0  0  0  0  0  0  0  0  0  0  0
  147.3140  159.9350  133.1350 C   0  0  0  0  0  0  0  0  0  0  0  0
  148.1230  160.1530  134.0780 O   0  0  0  0  0  0  0  0  0  0  0  0
  145.9710  159.5240  133.4330 N   0  0  0  0  0  0  0  0  0  0  0  0
  144.9340  160.3070  133.8450 C   0  0  0  0  0  0  0  0  0  0  0  0
  144.9430  161.7810  133.9420 C   0  0  0  0  0  0  0  0  0  0  0  0
  146.0780  162.4770  134.4530 N   0  0  0  0  0  0  0  0  0  0  0  0
  143.9490  162.4410  133.5350 O   0  0  0  0  0  0  0  0  0  0  0  0
  143.8120  159.5250  134.1160 C   0  0  0  0  0  0  0  0  0  0  0  0
  144.1980  158.2300  133.8540 C   0  0  0  0  0  0  0  0  0  0  0  0
  143.4840  157.0410  133.9710 C   0  0  0  0  0  0  0  0  0  0  0  0
  144.1460  155.8410  133.6650 C   0  0  0  0  0  0  0  0  0  0  0  0
  145.5090  155.8460  133.2580 C   0  0  0  0  0  0  0  0  0  0  0  0
  146.2090  154.6250  132.9500 N   0  0  0  0  0  0  0  0  0  0  0  0
  145.5410  153.4190  132.4550 C   0  0  0  0  0  0  0  0  0  0  0  0
  146.5120  152.2440  132.3690 C   0  0  0  0  0  0  0  0  0  0  0  0
  147.6680  152.5140  133.1570 O   0  0  0  0  0  0  0  0  0  0  0  0
  148.9020  152.8530  132.5950 C   0  0  0  0  0  0  0  0  0  0  0  0
  149.1360  154.0340  132.2190 O   0  0  0  0  0  0  0  0  0  0  0  0
  149.9680  151.8100  132.4830 C   0  0  0  0  0  0  0  0  0  0  0  0
  149.7050  150.9010  131.2890 C   0  0  0  0  0  0  0  0  0  0  0  0
  146.1970  157.0760  133.1560 C   0  0  0  0  0  0  0  0  0  0  0  0
  145.5060  158.2560  133.4470 C   0  0  0  0  0  0  0  0  0  0  0  0
  149.2787  160.1021  130.2896 H   0  0  0  0  0  0  0  0  0  0  0  0
  149.7827  159.7224  132.0873 H   0  0  0  0  0  0  0  0  0  0  0  0
  146.9799  160.3489  130.9739 H   0  0  0  0  0  0  0  0  0  0  0  0
  147.0140  162.0170  134.5010 H   0  0  0  0  0  0  0  0  0  0  0  0
  142.8274  159.8697  134.4650 H   0  0  0  0  0  0  0  0  0  0  0  0
  142.4324  157.0413  134.2936 H   0  0  0  0  0  0  0  0  0  0  0  0
  143.6045  154.8865  133.7409 H   0  0  0  0  0  0  0  0  0  0  0  0
  147.2460  154.6070  133.0880 H   0  0  0  0  0  0  0  0  0  0  0  0
  144.7208  153.1569  133.1395 H   0  0  0  0  0  0  0  0  0  0  0  0
  145.1543  153.6250  131.4460 H   0  0  0  0  0  0  0  0  0  0  0  0
  146.0190  151.3348  132.7436 H   0  0  0  0  0  0  0  0  0  0  0  0
  146.8130  152.0978  131.3211 H   0  0  0  0  0  0  0  0  0  0  0  0
  150.9434  152.3022  132.3548 H   0  0  0  0  0  0  0  0  0  0  0  0
  149.9666  151.2014  133.3993 H   0  0  0  0  0  0  0  0  0  0  0  0
  149.4158  149.9015  131.6458 H   0  0  0  0  0  0  0  0  0  0  0  0
  148.8919  151.3222  130.6796 H   0  0  0  0  0  0  0  0  0  0  0  0
  150.6174  150.8230  130.6796 H   0  0  0  0  0  0  0  0  0  0  0  0
  147.2543  157.1045  132.8539 H   0  0  0  0  0  0  0  0  0  0  0  0
  1  2  2  0
  2  3  1  0
  3  4  2  0
  3  5  1  0
  5  6  1  0
  6  7  1  0
  7  8  1  0
  7  9  2  0
  6 10  2  0
 10 11  1  0
 11 12  2  0
 12 13  1  0
 13 14  2  0
 14 15  1  0
 15 16  1  0
 16 17  1  0
 17 18  1  0
 18 19  1  0
 19 20  2  0
 19 21  1  0
 21 22  1  0
 14 23  1  0
 23 24  2  0
 24  5  1  0
 24 11  1  0
  1 25  1  0
  1 26  1  0
  2 27  1  0
  8 28  1  0
 10 29  1  0
 12 30  1  0
 13 31  1  0
 15 32  1  0
 16 33  1  0
 16 34  1  0
 17 35  1  0
 17 36  1  0
 21 37  1  0
 21 38  1  0
 22 39  1  0
 22 40  1  0
 22 41  1  0
 23 42  1  0
M  CHG  1   8  -1
M  END
>  <UniqueID>  (4) 
4

>  <SMILES>  (4) 
C=CC(=O)n1c(C([NH-])=O)cc2ccc(NCCOC(=O)CC)cc21

>  <Energy>  (4) 
71.3095616791609

>  <Genealogy>  (4) 
C=CC(=O)n1c(C([NH-])=O)cc2ccc(NCCOC(=O)CC)cc21 (protonated)
C=CC(=O)n1c(C([NH-])=O)cc2ccc(NCCOC(=O)CC)cc21 (3D coordinates assigned)
C=CC(=O)n1c(C([NH-])=O)cc2ccc(NCCOC(=O)CC)cc21 (optimized conformer: 71.3095616791609 kcal/mol)

>  <smiles>  (4) 
C=CC(=O)n1c(C(N)=O)cc2ccc(NCCOC(=O)CC)cc21

>  <score_type>  (4) 
oracle

>  <origin>  (4) 
adg

>  <m_score__min__energy>  (4) 
-6.8700000000000001

>  <m_primary>  (4) 
energy

$$$$
4:0
     RDKit          3D

 31 33  0  0  0  0  0  0  0  0999 V2000
  145.9540  163.1060  134.8690 N   0  0  0  0  0  0  0  0  0  0  0  0
  145.0360  162.3190  134.1160 C   0  0  0  0  0  0  0  0  0  0  0  0
  144.0020  162.8630  133.6420 O   0  0  0  0  0  0  0  0  0  0  0  0
  145.2490  160.8690  133.9320 C   0  0  0  0  0  0  0  0  0  0  0  0
  146.4850  160.3120  133.6100 C   0  0  0  0  0  0  0  0  0  0  0  0
  146.2450  158.9690  133.4380 C   0  0  0  0  0  0  0  0  0  0  0  0
  147.1220  157.9390  133.1170 C   0  0  0  0  0  0  0  0  0  0  0  0
  146.6060  156.6350  133.0330 C   0  0  0  0  0  0  0  0  0  0  0  0
  145.2330  156.3790  133.2740 C   0  0  0  0  0  0  0  0  0  0  0  0
  144.7260  154.9520  133.1830 C   0  0  0  0  0  0  0  0  0  0  0  0
  143.2690  154.8130  132.7580 C   0  0  0  0  0  0  0  0  0  0  0  0
  143.6260  154.1410  131.5070 N   0  0  0  0  0  0  0  0  0  0  0  0
  145.0410  154.2400  131.8720 C   0  0  0  0  0  0  0  0  0  0  0  0
  144.3720  157.4590  133.6000 C   0  0  0  0  0  0  0  0  0  0  0  0
  144.9100  158.7490  133.6590 C   0  0  0  0  0  0  0  0  0  0  0  0
  144.2850  159.9060  133.9680 N   0  0  0  0  0  0  0  0  0  0  0  0
  142.9080  160.0560  134.3510 C   0  0  0  0  0  0  0  0  0  0  0  0
  142.5090  159.6350  135.4680 O   0  0  0  0  0  0  0  0  0  0  0  0
  142.0100  160.6920  133.5030 O   0  0  0  0  0  0  0  0  0  0  0  0
  146.9690  162.8610  134.9030 H   0  0  0  0  0  0  0  0  0  0  0  0
  147.4478  160.8353  133.5139 H   0  0  0  0  0  0  0  0  0  0  0  0
  148.1881  158.1391  132.9343 H   0  0  0  0  0  0  0  0  0  0  0  0
  147.2766  155.8015  132.7768 H   0  0  0  0  0  0  0  0  0  0  0  0
  145.1011  154.6065  134.1576 H   0  0  0  0  0  0  0  0  0  0  0  0
  142.6720  154.1867  133.4372 H   0  0  0  0  0  0  0  0  0  0  0  0
  142.6379  155.7130  132.7177 H   0  0  0  0  0  0  0  0  0  0  0  0
  143.3930  154.7180  130.6650 H   0  0  0  0  0  0  0  0  0  0  0  0
  143.2900  153.1500  131.4770 H   0  0  0  0  0  0  0  0  0  0  0  0
  145.5279  153.2632  132.0094 H   0  0  0  0  0  0  0  0  0  0  0  0
  145.7419  154.7091  131.1659 H   0  0  0  0  0  0  0  0  0  0  0  0
  143.3047  157.2855  133.8019 H   0  0  0  0  0  0  0  0  0  0  0  0
  1  2  1  0
  2  3  2  0
  2  4  1  0
  4  5  2  0
  5  6  1  0
  6  7  2  0
  7  8  1  0
  8  9  2  0
  9 10  1  0
 10 11  1  0
 11 12  1  0
 12 13  1  0
  9 14  1  0
 14 15  2  0
 15 16  1  0
 16 17  1  0
 17 18  2  0
 17 19  1  0
 16  4  1  0
 15  6  1  0
 13 10  1  0
  1 20  1  0
  5 21  1  0
  7 22  1  0
  8 23  1  0
 10 24  1  0
 11 25  1  0
 11 26  1  0
 12 27  1  0
 12 28  1  0
 13 29  1  0
 13 30  1  0
 14 31  1  0
M  CHG  3   1  -1  12   1  19  -1
M  END
>  <UniqueID>  (5) 
5

>  <SMILES>  (5) 
[NH-]C(=O)c1cc2ccc(C3C[NH2+]C3)cc2n1C(=O)[O-]

>  <Energy>  (5) 
143.63539085651283

>  <Genealogy>  (5) 
[NH-]C(=O)c1cc2ccc(C3C[NH2+]C3)cc2n1C(=O)[O-] (protonated)
[NH-]C(=O)c1cc2ccc(C3C[NH2+]C3)cc2n1C(=O)[O-] (3D coordinates assigned)
[NH-]C(=O)c1cc2ccc(C3C[NH2+]C3)cc2n1C(=O)[O-] (nonaromatic ring conformer: 143.63539085651283 kcal/mol)

>  <smiles>  (5) 
NC(=O)c1cc2ccc(C3CNC3)cc2n1C(=O)O

>  <score_type>  (5) 
oracle

>  <origin>  (5) 
adg

>  <m_score__min__energy>  (5) 
-6.4000000000000004

>  <m_primary>  (5) 
energy

$$$$
5:0
     RDKit          3D

 45 47  0  0  0  0  0  0  0  0999 V2000
  149.4900  157.1900  131.9250 N   0  0  0  0  0  0  0  0  0  0  0  0
  149.0760  158.4770  132.3860 C   0  0  0  0  0  0  0  0  0  0  0  0
  149.9410  159.3750  132.5700 O   0  0  0  0  0  0  0  0  0  0  0  0
  147.6660  158.7490  132.7300 C   0  0  0  0  0  0  0  0  0  0  0  0
  147.1820  160.0280  132.9850 C   0  0  0  0  0  0  0  0  0  0  0  0
  145.8720  159.8510  133.3660 C   0  0  0  0  0  0  0  0  0  0  0  0
  144.9220  160.7920  133.7470 C   0  0  0  0  0  0  0  0  0  0  0  0
  143.6390  160.3350  134.0880 C   0  0  0  0  0  0  0  0  0  0  0  0
  143.3250  158.9500  134.0430 C   0  0  0  0  0  0  0  0  0  0  0  0
  142.0020  158.4870  134.4010 N   0  0  0  0  0  0  0  0  0  0  0  0
  141.3680  158.9690  135.6390 C   0  0  0  0  0  0  0  0  0  0  0  0
  140.2160  158.0560  136.0690 C   0  0  0  0  0  0  0  0  0  0  0  0
  139.1870  157.8770  134.9430 C   0  0  0  0  0  0  0  0  0  0  0  0
  139.8170  157.7350  133.5400 C   0  0  0  0  0  0  0  0  0  0  0  0
  141.3240  157.4660  133.5860 C   0  0  0  0  0  0  0  0  0  0  0  0
  144.3180  158.0270  133.6380 C   0  0  0  0  0  0  0  0  0  0  0  0
  145.5960  158.5090  133.3230 C   0  0  0  0  0  0  0  0  0  0  0  0
  146.6900  157.8150  132.9260 N   0  0  0  0  0  0  0  0  0  0  0  0
  146.7720  156.4010  132.6650 C   0  0  0  0  0  0  0  0  0  0  0  0
  146.9620  155.9900  131.4860 O   0  0  0  0  0  0  0  0  0  0  0  0
  146.6220  155.4840  133.7120 O   0  0  0  0  0  0  0  0  0  0  0  0
  147.7170  154.8840  134.4080 C   0  0  0  0  0  0  0  0  0  0  0  0
  148.3520  153.7890  133.5520 C   0  0  0  0  0  0  0  0  0  0  0  0
  148.5820  154.2460  132.2460 O   0  0  0  0  0  0  0  0  0  0  0  0
  150.4950  157.0010  131.7250 H   0  0  0  0  0  0  0  0  0  0  0  0
  148.8290  156.3840  131.9310 H   0  0  0  0  0  0  0  0  0  0  0  0
  147.7298  160.9781  132.9001 H   0  0  0  0  0  0  0  0  0  0  0  0
  145.1685  161.8635  133.7803 H   0  0  0  0  0  0  0  0  0  0  0  0
  142.8680  161.0576  134.3936 H   0  0  0  0  0  0  0  0  0  0  0  0
  142.1215  158.9958  136.4400 H   0  0  0  0  0  0  0  0  0  0  0  0
  140.9618  159.9739  135.4514 H   0  0  0  0  0  0  0  0  0  0  0  0
  140.6233  157.0709  136.3405 H   0  0  0  0  0  0  0  0  0  0  0  0
  139.7097  158.5215  136.9275 H   0  0  0  0  0  0  0  0  0  0  0  0
  138.5981  156.9718  135.1520 H   0  0  0  0  0  0  0  0  0  0  0  0
  138.5688  158.7867  134.9262 H   0  0  0  0  0  0  0  0  0  0  0  0
  139.3274  156.8992  133.0187 H   0  0  0  0  0  0  0  0  0  0  0  0
  139.6688  158.6898  133.0142 H   0  0  0  0  0  0  0  0  0  0  0  0
  141.5019  156.4738  134.0262 H   0  0  0  0  0  0  0  0  0  0  0  0
  141.7247  157.5023  132.5622 H   0  0  0  0  0  0  0  0  0  0  0  0
  144.0916  156.9526  133.5717 H   0  0  0  0  0  0  0  0  0  0  0  0
  148.4708  155.6534  134.6311 H   0  0  0  0  0  0  0  0  0  0  0  0
  147.3463  154.4382  135.3428 H   0  0  0  0  0  0  0  0  0  0  0  0
  149.3096  153.4892  134.0027 H   0  0  0  0  0  0  0  0  0  0  0  0
  147.6633  152.9324  133.5088 H   0  0  0  0  0  0  0  0  0  0  0  0
  147.6970  154.4920  131.8770 H   0  0  0  0  0  0  0  0  0  0  0  0
  1  2  1  0
  2  3  2  0
  2  4  1  0
  4  5  2  0
  5  6  1  0
  6  7  2  0
  7  8  1  0
  8  9  2  0
  9 10  1  0
 10 11  1  0
 11 12  1  0
 12 13  1  0
 13 14  1  0
 14 15  1  0
  9 16  1  0
 16 17  2  0
 17 18  1  0
 18 19  1  0
 19 20  2  0
 19 21  1  0
 21 22  1  0
 22 23  1  0
 23 24  1  0
 18  4  1  0
 17  6  1  0
 15 10  1  0
  1 25  1  0
  1 26  1  0
  5 27  1  0
  7 28  1  0
  8 29  1  0
 11 30  1  0
 11 31  1  0
 12 32  1  0
 12 33  1  0
 13 34  1  0
 13 35  1  0
 14 36  1  0
 14 37  1  0
 15 38  1  0
 15 39  1  0
 16 40  1  0
 22 41  1  0
 22 42  1  0
 23 43  1  0
 23 44  1  0
 24 45  1  0
M  END
>  <UniqueID>  (6) 
6

>  <SMILES>  (6) 
NC(=O)c1cc2ccc(N3CCCCC3)cc2n1C(=O)OCCO

>  <Energy>  (6) 
87.85778312886067

>  <Genealogy>  (6) 
NC(=O)c1cc2ccc(N3CCCCC3)cc2n1C(=O)OCCO (3D coordinates assigned)
NC(=O)c1cc2ccc(N3CCCCC3)cc2n1C(=O)OCCO (nonaromatic ring conformer: 87.85778312886067 kcal/mol)

>  <smiles>  (6) 
NC(=O)c1cc2ccc(N3CCCCC3)cc2n1C(=O)OCCO

>  <score_type>  (6) 
oracle

>  <origin>  (6) 
adg

>  <m_score__min__energy>  (6) 
-7.1100000000000003

>  <m_primary>  (6) 
energy

$$$$
6:0
     RDKit          3D

 45 46  0  0  0  0  0  0  0  0999 V2000
  138.7600  160.8610  130.4770 C   0  0  0  0  0  0  0  0  0  0  0  0
  137.8690  160.1240  131.1440 C   0  0  0  0  0  0  0  0  0  0  0  0
  138.0070  158.6340  131.2320 C   0  0  0  0  0  0  0  0  0  0  0  0
  138.4140  158.2730  132.5470 O   0  0  0  0  0  0  0  0  0  0  0  0
  139.5440  157.4890  132.8040 C   0  0  0  0  0  0  0  0  0  0  0  0
  139.5190  156.2470  132.5820 O   0  0  0  0  0  0  0  0  0  0  0  0
  140.7660  158.1400  133.4180 C   0  0  0  0  0  0  0  0  0  0  0  0
  140.5580  158.4270  134.9200 C   0  0  0  0  0  0  0  0  0  0  0  0
  141.0120  159.4710  132.6870 C   0  0  0  0  0  0  0  0  0  0  0  0
  141.9390  157.2640  133.2440 N   0  0  0  0  0  0  0  0  0  0  0  0
  143.2690  157.6030  133.6730 C   0  0  0  0  0  0  0  0  0  0  0  0
  143.5220  158.7490  134.1320 O   0  0  0  0  0  0  0  0  0  0  0  0
  144.3130  156.6200  133.6110 N   0  0  0  0  0  0  0  0  0  0  0  0
  144.1910  155.2650  133.6950 C   0  0  0  0  0  0  0  0  0  0  0  0
  142.9470  154.5270  133.9970 C   0  0  0  0  0  0  0  0  0  0  0  0
  141.9740  154.3270  132.9730 N   0  0  0  0  0  0  0  0  0  0  0  0
  142.7400  154.0530  135.1450 O   0  0  0  0  0  0  0  0  0  0  0  0
  145.4300  154.6530  133.5090 C   0  0  0  0  0  0  0  0  0  0  0  0
  146.3190  155.6840  133.3040 C   0  0  0  0  0  0  0  0  0  0  0  0
  147.6820  155.6500  133.0300 C   0  0  0  0  0  0  0  0  0  0  0  0
  148.3420  156.8720  132.8120 C   0  0  0  0  0  0  0  0  0  0  0  0
  147.6350  158.1010  132.8830 C   0  0  0  0  0  0  0  0  0  0  0  0
  148.3460  159.3970  132.5850 C   0  0  0  0  0  0  0  0  0  0  0  0
  148.5350  160.0950  133.7620 F   0  0  0  0  0  0  0  0  0  0  0  0
  147.5950  160.1700  131.7180 F   0  0  0  0  0  0  0  0  0  0  0  0
  149.5770  159.1610  131.9980 F   0  0  0  0  0  0  0  0  0  0  0  0
  146.2450  158.0900  133.1420 C   0  0  0  0  0  0  0  0  0  0  0  0
  145.6200  156.8600  133.3700 C   0  0  0  0  0  0  0  0  0  0  0  0
  138.6409  161.9533  130.4241 H   0  0  0  0  0  0  0  0  0  0  0  0
  139.6133  160.3761  129.9803 H   0  0  0  0  0  0  0  0  0  0  0  0
  137.0192  160.6184  131.6374 H   0  0  0  0  0  0  0  0  0  0  0  0
  137.0398  158.1620  131.0048 H   0  0  0  0  0  0  0  0  0  0  0  0
  138.7607  158.2918  130.5075 H   0  0  0  0  0  0  0  0  0  0  0  0
  141.1009  157.6779  135.5151 H   0  0  0  0  0  0  0  0  0  0  0  0
  140.9396  159.4309  135.1578 H   0  0  0  0  0  0  0  0  0  0  0  0
  139.4852  158.3768  135.1578 H   0  0  0  0  0  0  0  0  0  0  0  0
  141.1602  160.2729  133.4253 H   0  0  0  0  0  0  0  0  0  0  0  0
  141.9090  159.3827  132.0565 H   0  0  0  0  0  0  0  0  0  0  0  0
  140.1427  159.7092  132.0565 H   0  0  0  0  0  0  0  0  0  0  0  0
  141.8110  156.3290  132.7950 H   0  0  0  0  0  0  0  0  0  0  0  0
  141.3830  155.1180  132.6340 H   0  0  0  0  0  0  0  0  0  0  0  0
  145.6503  153.5754  133.5231 H   0  0  0  0  0  0  0  0  0  0  0  0
  148.2273  154.6957  132.9852 H   0  0  0  0  0  0  0  0  0  0  0  0
  149.4181  156.8759  132.5839 H   0  0  0  0  0  0  0  0  0  0  0  0
  145.6689  159.0268  133.1636 H   0  0  0  0  0  0  0  0  0  0  0  0
  1  2  2  0
  2  3  1  0
  3  4  1  0
  4  5  1  0
  5  6  2  0
  5  7  1  0
  7  8  1  0
  7  9  1  0
  7 10  1  0
 10 11  1  0
 11 12  2  0
 11 13  1  0
 13 14  1  0
 14 15  1  0
 15 16  1  0
 15 17  2  0
 14 18  2  0
 18 19  1  0
 19 20  2  0
 20 21  1  0
 21 22  2  0
 22 23  1  0
 23 24  1  0
 23 25  1  0
 23 26  1  0
 22 27  1  0
 27 28  2  0
 28 13  1  0
 28 19  1  0
  1 29  1  0
  1 30  1  0
  2 31  1  0
  3 32  1  0
  3 33  1  0
  8 34  1  0
  8 35  1  0
  8 36  1  0
  9 37  1  0
  9 38  1  0
  9 39  1  0
 10 40  1  0
 16 41  1  0
 18 42  1  0
 20 43  1  0
 21 44  1  0
 27 45  1  0
M  CHG  1  16  -1
M  END
>  <UniqueID>  (7) 
7

>  <SMILES>  (7) 
C=CCOC(=O)C(C)(C)NC(=O)n1c(C([NH-])=O)cc2ccc(C(F)(F)F)cc21

>  <Energy>  (7) 
74.40727867492886

>  <Genealogy>  (7) 
C=CCOC(=O)C(C)(C)NC(=O)n1c(C([NH-])=O)cc2ccc(C(F)(F)F)cc21 (protonated)
C=CCOC(=O)C(C)(C)NC(=O)n1c(C([NH-])=O)cc2ccc(C(F)(F)F)cc21 (3D coordinates assigned)
C=CCOC(=O)C(C)(C)NC(=O)n1c(C([NH-])=O)cc2ccc(C(F)(F)F)cc21 (optimized conformer: 74.40727867492886 kcal/mol)

>  <smiles>  (7) 
C=CCOC(=O)C(C)(C)NC(=O)n1c(C(N)=O)cc2ccc(C(F)(F)F)cc21

>  <score_type>  (7) 
oracle

>  <origin>  (7) 
adg

>  <m_score__min__energy>  (7) 
-7.4900000000000002

>  <m_primary>  (7) 
energy

$$$$
7:0
     RDKit          3D

 55 57  0  0  0  0  0  0  0  0999 V2000
  140.4060  159.6120  132.5350 C   0  0  0  0  0  0  0  0  0  0  0  0
  140.5080  159.7390  133.9480 O   0  0  0  0  0  0  0  0  0  0  0  0
  140.4560  158.6390  134.8080 C   0  0  0  0  0  0  0  0  0  0  0  0
  139.3540  158.2420  135.2750 O   0  0  0  0  0  0  0  0  0  0  0  0
  141.7160  157.8970  135.1270 C   0  0  0  0  0  0  0  0  0  0  0  0
  142.8640  158.6730  134.7890 O   0  0  0  0  0  0  0  0  0  0  0  0
  143.5820  158.5120  133.5970 C   0  0  0  0  0  0  0  0  0  0  0  0
  143.0800  157.8750  132.6310 O   0  0  0  0  0  0  0  0  0  0  0  0
  144.9000  159.0630  133.4790 N   0  0  0  0  0  0  0  0  0  0  0  0
  145.2830  160.3610  133.6430 C   0  0  0  0  0  0  0  0  0  0  0  0
  144.3820  161.5130  133.8550 C   0  0  0  0  0  0  0  0  0  0  0  0
  142.9690  161.3760  133.7260 N   0  0  0  0  0  0  0  0  0  0  0  0
  144.8700  162.6430  134.1220 O   0  0  0  0  0  0  0  0  0  0  0  0
  146.6670  160.4800  133.5260 C   0  0  0  0  0  0  0  0  0  0  0  0
  147.1240  159.2050  133.2790 C   0  0  0  0  0  0  0  0  0  0  0  0
  148.4230  158.7400  133.0950 C   0  0  0  0  0  0  0  0  0  0  0  0
  148.6060  157.3600  132.9030 C   0  0  0  0  0  0  0  0  0  0  0  0
  147.4980  156.4770  132.9150 C   0  0  0  0  0  0  0  0  0  0  0  0
  147.7100  155.0000  132.7160 C   0  0  0  0  0  0  0  0  0  0  0  0
  146.5300  154.1960  133.2950 C   0  0  0  0  0  0  0  0  0  0  0  0
  145.6950  153.5520  132.2440 N   0  0  0  0  0  0  0  0  0  0  0  0
  144.7200  154.4700  131.6120 C   0  0  0  0  0  0  0  0  0  0  0  0
  143.6320  154.9480  132.6000 C   0  0  0  0  0  0  0  0  0  0  0  0
  143.4640  154.0160  133.7350 N   0  0  0  0  0  0  0  0  0  0  0  0
  142.1730  154.2430  134.4010 C   0  0  0  0  0  0  0  0  0  0  0  0
  143.5820  152.6180  133.2930 C   0  0  0  0  0  0  0  0  0  0  0  0
  145.0080  152.3380  132.7650 C   0  0  0  0  0  0  0  0  0  0  0  0
  146.1920  156.9890  133.0850 C   0  0  0  0  0  0  0  0  0  0  0  0
  146.0390  158.3700  133.2570 C   0  0  0  0  0  0  0  0  0  0  0  0
  139.7346  158.7760  132.2895 H   0  0  0  0  0  0  0  0  0  0  0  0
  140.0020  160.5433  132.1114 H   0  0  0  0  0  0  0  0  0  0  0  0
  141.4025  159.4185  132.1114 H   0  0  0  0  0  0  0  0  0  0  0  0
  141.7382  157.6713  136.2034 H   0  0  0  0  0  0  0  0  0  0  0  0
  141.7347  156.9677  134.5387 H   0  0  0  0  0  0  0  0  0  0  0  0
  142.5300  160.4380  133.5960 H   0  0  0  0  0  0  0  0  0  0  0  0
  147.2668  161.3980  133.6127 H   0  0  0  0  0  0  0  0  0  0  0  0
  149.2791  159.4308  133.0997 H   0  0  0  0  0  0  0  0  0  0  0  0
  149.6186  156.9617  132.7419 H   0  0  0  0  0  0  0  0  0  0  0  0
  147.7964  154.7897  131.6398 H   0  0  0  0  0  0  0  0  0  0  0  0
  148.6307  154.7019  133.2390 H   0  0  0  0  0  0  0  0  0  0  0  0
  146.9300  153.4118  133.9546 H   0  0  0  0  0  0  0  0  0  0  0  0
  145.8865  154.9018  133.8406 H   0  0  0  0  0  0  0  0  0  0  0  0
  146.3490  153.2300  131.4900 H   0  0  0  0  0  0  0  0  0  0  0  0
  145.2596  155.3487  131.2291 H   0  0  0  0  0  0  0  0  0  0  0  0
  144.2183  153.9195  130.8025 H   0  0  0  0  0  0  0  0  0  0  0  0
  143.9173  155.9357  132.9912 H   0  0  0  0  0  0  0  0  0  0  0  0
  142.6772  154.9951  132.0559 H   0  0  0  0  0  0  0  0  0  0  0  0
  142.3137  154.2183  135.4917 H   0  0  0  0  0  0  0  0  0  0  0  0
  141.7752  155.2249  134.1048 H   0  0  0  0  0  0  0  0  0  0  0  0
  141.4642  153.4557  134.1048 H   0  0  0  0  0  0  0  0  0  0  0  0
  143.3723  151.9506  134.1419 H   0  0  0  0  0  0  0  0  0  0  0  0
  142.8599  152.4378  132.4830 H   0  0  0  0  0  0  0  0  0  0  0  0
  145.6091  151.9232  133.5876 H   0  0  0  0  0  0  0  0  0  0  0  0
  144.9108  151.6344  131.9250 H   0  0  0  0  0  0  0  0  0  0  0  0
  145.3186  156.3202  133.0823 H   0  0  0  0  0  0  0  0  0  0  0  0
  1  2  1  0
  2  3  1  0
  3  4  2  0
  3  5  1  0
  5  6  1  0
  6  7  1  0
  7  8  2  0
  7  9  1  0
  9 10  1  0
 10 11  1  0
 11 12  1  0
 11 13  2  0
 10 14  2  0
 14 15  1  0
 15 16  2  0
 16 17  1  0
 17 18  2  0
 18 19  1  0
 19 20  1  0
 20 21  1  0
 21 22  1  0
 22 23  1  0
 23 24  1  0
 24 25  1  0
 24 26  1  0
 26 27  1  0
 18 28  1  0
 28 29  2  0
 29  9  1  0
 29 15  1  0
 27 21  1  0
  1 30  1  0
  1 31  1  0
  1 32  1  0
  5 33  1  0
  5 34  1  0
 12 35  1  0
 14 36  1  0
 16 37  1  0
 17 38  1  0
 19 39  1  0
 19 40  1  0
 20 41  1  0
 20 42  1  0
 21 43  1  0
 22 44  1  0
 22 45  1  0
 23 46  1  0
 23 47  1  0
 25 48  1  0
 25 49  1  0
 25 50  1  0
 26 51  1  0
 26 52  1  0
 27 53  1  0
 27 54  1  0
 28 55  1  0
M  CHG  2  12  -1  21   1
M  END
>  <UniqueID>  (8) 
8

>  <SMILES>  (8) 
COC(=O)COC(=O)n1c(C([NH-])=O)cc2ccc(CC[NH+]3CCN(C)CC3)cc21

>  <Energy>  (8) 
101.64449785928444

>  <Genealogy>  (8) 
COC(=O)COC(=O)n1c(C([NH-])=O)cc2ccc(CC[NH+]3CCN(C)CC3)cc21 (protonated)
COC(=O)COC(=O)n1c(C([NH-])=O)cc2ccc(CC[NH+]3CCN(C)CC3)cc21 (3D coordinates assigned)
COC(=O)COC(=O)n1c(C([NH-])=O)cc2ccc(CC[NH+]3CCN(C)CC3)cc21 (nonaromatic ring conformer: 101.64449785928444 kcal/mol)

>  <smiles>  (8) 
COC(=O)COC(=O)n1c(C(N)=O)cc2ccc(CCN3CCN(C)CC3)cc21

>  <score_type>  (8) 
oracle

>  <origin>  (8) 
adg

>  <m_score__min__energy>  (8) 
-7.0099999999999998

>  <m_primary>  (8) 
energy

$$$$
8:0
     RDKit          3D

 47 50  0  0  0  0  0  0  0  0999 V2000
  149.4940  157.4520  132.2230 N   0  0  0  0  0  0  0  0  0  0  0  0
  148.9360  158.7700  132.1880 C   0  0  0  0  0  0  0  0  0  0  0  0
  149.6340  159.7320  131.7560 O   0  0  0  0  0  0  0  0  0  0  0  0
  147.5680  159.0050  132.6950 C   0  0  0  0  0  0  0  0  0  0  0  0
  147.0710  160.2660  133.0280 C   0  0  0  0  0  0  0  0  0  0  0  0
  145.7530  160.0570  133.3690 C   0  0  0  0  0  0  0  0  0  0  0  0
  144.7890  160.9600  133.7990 C   0  0  0  0  0  0  0  0  0  0  0  0
  143.5140  160.4630  134.1190 C   0  0  0  0  0  0  0  0  0  0  0  0
  143.2110  159.0680  134.0180 C   0  0  0  0  0  0  0  0  0  0  0  0
  141.8890  158.5540  134.3690 N   0  0  0  0  0  0  0  0  0  0  0  0
  140.9780  158.0990  133.2910 C   0  0  0  0  0  0  0  0  0  0  0  0
  139.6520  157.5300  133.8020 C   0  0  0  0  0  0  0  0  0  0  0  0
  139.1990  158.2390  134.9310 O   0  0  0  0  0  0  0  0  0  0  0  0
  140.0680  157.9640  136.0050 C   0  0  0  0  0  0  0  0  0  0  0  0
  141.4430  158.6020  135.7770 C   0  0  0  0  0  0  0  0  0  0  0  0
  144.2390  158.1900  133.5650 C   0  0  0  0  0  0  0  0  0  0  0  0
  145.4920  158.7190  133.2410 C   0  0  0  0  0  0  0  0  0  0  0  0
  146.5970  158.0570  132.8300 N   0  0  0  0  0  0  0  0  0  0  0  0
  146.7400  156.6350  132.7000 C   0  0  0  0  0  0  0  0  0  0  0  0
  147.1220  156.1390  131.6060 O   0  0  0  0  0  0  0  0  0  0  0  0
  146.4310  155.8120  133.7840 O   0  0  0  0  0  0  0  0  0  0  0  0
  147.3440  154.8750  134.3440 C   0  0  0  0  0  0  0  0  0  0  0  0
  147.7400  155.0330  135.8200 C   0  0  0  0  0  0  0  0  0  0  0  0
  147.7830  153.7020  136.5080 C   0  0  0  0  0  0  0  0  0  0  0  0
  148.8910  153.2140  136.8670 O   0  0  0  0  0  0  0  0  0  0  0  0
  146.6080  152.9900  136.7390 O   0  0  0  0  0  0  0  0  0  0  0  0
  148.4790  154.5380  133.3880 C   0  0  0  0  0  0  0  0  0  0  0  0
  147.3990  153.5020  133.6910 C   0  0  0  0  0  0  0  0  0  0  0  0
  149.1910  156.7240  131.5400 H   0  0  0  0  0  0  0  0  0  0  0  0
  147.6153  161.2219  133.0198 H   0  0  0  0  0  0  0  0  0  0  0  0
  145.0169  162.0326  133.8865 H   0  0  0  0  0  0  0  0  0  0  0  0
  142.7326  161.1609  134.4541 H   0  0  0  0  0  0  0  0  0  0  0  0
  140.7587  158.9562  132.6374 H   0  0  0  0  0  0  0  0  0  0  0  0
  141.4923  157.2849  132.7592 H   0  0  0  0  0  0  0  0  0  0  0  0
  138.8979  157.6041  133.0046 H   0  0  0  0  0  0  0  0  0  0  0  0
  139.8091  156.4796  134.0883 H   0  0  0  0  0  0  0  0  0  0  0  0
  139.6335  158.3675  136.9315 H   0  0  0  0  0  0  0  0  0  0  0  0
  140.1960  156.8742  136.0818 H   0  0  0  0  0  0  0  0  0  0  0  0
  141.3946  159.6551  136.0912 H   0  0  0  0  0  0  0  0  0  0  0  0
  142.1697  158.0237  136.3664 H   0  0  0  0  0  0  0  0  0  0  0  0
  144.0488  157.1106  133.4716 H   0  0  0  0  0  0  0  0  0  0  0  0
  148.7340  155.5007  135.8781 H   0  0  0  0  0  0  0  0  0  0  0  0
  146.9892  155.6627  136.3197 H   0  0  0  0  0  0  0  0  0  0  0  0
  148.5232  155.0132  132.3969 H   0  0  0  0  0  0  0  0  0  0  0  0
  149.5773  154.5574  133.4458 H   0  0  0  0  0  0  0  0  0  0  0  0
  146.6648  153.2303  132.9183 H   0  0  0  0  0  0  0  0  0  0  0  0
  147.3961  152.4649  134.0577 H   0  0  0  0  0  0  0  0  0  0  0  0
  1  2  1  0
  2  3  2  0
  2  4  1  0
  4  5  2  0
  5  6  1  0
  6  7  2  0
  7  8  1  0
  8  9  2  0
  9 10  1  0
 10 11  1  0
 11 12  1  0
 12 13  1  0
 13 14  1  0
 14 15  1  0
  9 16  1  0
 16 17  2  0
 17 18  1  0
 18 19  1  0
 19 20  2  0
 19 21  1  0
 21 22  1  0
 22 23  1  0
 23 24  1  0
 24 25  2  0
 24 26  1  0
 22 27  1  0
 27 28  1  0
 18  4  1  0
 28 22  1  0
 17  6  1  0
 15 10  1  0
  1 29  1  0
  5 30  1  0
  7 31  1  0
  8 32  1  0
 11 33  1  0
 11 34  1  0
 12 35  1  0
 12 36  1  0
 14 37  1  0
 14 38  1  0
 15 39  1  0
 15 40  1  0
 16 41  1  0
 23 42  1  0
 23 43  1  0
 27 44  1  0
 27 45  1  0
 28 46  1  0
 28 47  1  0
M  CHG  2   1  -1  26  -1
M  END
>  <UniqueID>  (9) 
9

>  <SMILES>  (9) 
[NH-]C(=O)c1cc2ccc(N3CCOCC3)cc2n1C(=O)OC1(CC(=O)[O-])CC1

>  <Energy>  (9) 
360.55325932212844

>  <Genealogy>  (9) 
[NH-]C(=O)c1cc2ccc(N3CCOCC3)cc2n1C(=O)OC1(CC(=O)[O-])CC1 (protonated)
[NH-]C(=O)c1cc2ccc(N3CCOCC3)cc2n1C(=O)OC1(CC(=O)[O-])CC1 (3D coordinates assigned)
[NH-]C(=O)c1cc2ccc(N3CCOCC3)cc2n1C(=O)OC1(CC(=O)[O-])CC1 (nonaromatic ring conformer: 360.55325932212844 kcal/mol)

>  <smiles>  (9) 
NC(=O)c1cc2ccc(N3CCOCC3)cc2n1C(=O)OC1(CC(=O)O)CC1

>  <score_type>  (9) 
oracle

>  <origin>  (9) 
adg

>  <m_score__min__energy>  (9) 
-8.0700000000000003

>  <m_primary>  (9) 
energy

$$$$
9:0
     RDKit          3D

 36 37  0  0  0  0  0  0  0  0999 V2000
  140.2850  151.6700  132.6060 C   0  0  0  0  0  0  0  0  0  0  0  0
  140.9300  152.7690  132.9910 C   0  0  0  0  0  0  0  0  0  0  0  0
  140.2520  154.0390  132.9910 C   0  0  0  0  0  0  0  0  0  0  0  0
  139.7070  155.0600  132.9910 N   0  0  0  0  0  0  0  0  0  0  0  0
  142.6250  152.7050  133.4630 S   0  0  0  0  0  0  0  0  0  0  0  0
  143.2570  151.4810  132.8640 O   0  0  0  0  0  0  0  0  0  0  0  0
  143.3630  153.9150  132.9620 O   0  0  0  0  0  0  0  0  0  0  0  0
  142.7470  152.6200  135.1870 N   0  0  0  0  0  0  0  0  0  0  0  0
  141.6740  152.1610  136.0130 C   0  0  0  0  0  0  0  0  0  0  0  0
  141.0210  151.1320  135.6900 O   0  0  0  0  0  0  0  0  0  0  0  0
  141.3640  152.8520  137.2320 N   0  0  0  0  0  0  0  0  0  0  0  0
  140.8890  152.3250  138.3960 C   0  0  0  0  0  0  0  0  0  0  0  0
  140.7640  150.8860  138.7090 C   0  0  0  0  0  0  0  0  0  0  0  0
  139.8100  150.0700  138.0330 N   0  0  0  0  0  0  0  0  0  0  0  0
  141.5390  150.3610  139.5520 O   0  0  0  0  0  0  0  0  0  0  0  0
  140.6020  153.3380  139.3100 C   0  0  0  0  0  0  0  0  0  0  0  0
  140.9250  154.5110  138.6660 C   0  0  0  0  0  0  0  0  0  0  0  0
  140.8160  155.8300  139.0990 C   0  0  0  0  0  0  0  0  0  0  0  0
  141.1860  156.8480  138.2060 C   0  0  0  0  0  0  0  0  0  0  0  0
  141.6540  156.5340  136.9050 C   0  0  0  0  0  0  0  0  0  0  0  0
  141.9990  157.6330  135.9410 C   0  0  0  0  0  0  0  0  0  0  0  0
  140.7220  158.9280  135.9870 P   0  0  0  0  0  0  0  0  0  0  0  0
  139.3600  158.2950  135.8110 O   0  0  0  0  0  0  0  0  0  0  0  0
  140.7790  159.7310  137.4730 O   0  0  0  0  0  0  0  0  0  0  0  0
  140.9910  160.0360  134.7390 O   0  0  0  0  0  0  0  0  0  0  0  0
  141.7430  155.1850  136.4980 C   0  0  0  0  0  0  0  0  0  0  0  0
  141.3830  154.1900  137.4140 C   0  0  0  0  0  0  0  0  0  0  0  0
  140.8032  150.6997  132.6061 H   0  0  0  0  0  0  0  0  0  0  0  0
  139.2339  151.7322  132.2878 H   0  0  0  0  0  0  0  0  0  0  0  0
  139.9510  149.7930  137.0360 H   0  0  0  0  0  0  0  0  0  0  0  0
  140.2026  153.2242  140.3286 H   0  0  0  0  0  0  0  0  0  0  0  0
  140.4513  156.0669  140.1094 H   0  0  0  0  0  0  0  0  0  0  0  0
  141.1121  157.9000  138.5188 H   0  0  0  0  0  0  0  0  0  0  0  0
  142.9698  158.0692  136.2188 H   0  0  0  0  0  0  0  0  0  0  0  0
  142.0532  157.2165  134.9243 H   0  0  0  0  0  0  0  0  0  0  0  0
  142.0866  154.9227  135.4865 H   0  0  0  0  0  0  0  0  0  0  0  0
  1  2  2  0
  2  3  1  0
  3  4  3  0
  2  5  1  0
  5  6  2  0
  5  7  2  0
  5  8  1  0
  8  9  1  0
  9 10  2  0
  9 11  1  0
 11 12  1  0
 12 13  1  0
 13 14  1  0
 13 15  2  0
 12 16  2  0
 16 17  1  0
 17 18  2  0
 18 19  1  0
 19 20  2  0
 20 21  1  0
 21 22  1  0
 22 23  2  0
 22 24  1  0
 22 25  1  0
 20 26  1  0
 26 27  2  0
 27 11  1  0
 27 17  1  0
  1 28  1  0
  1 29  1  0
 14 30  1  0
 16 31  1  0
 18 32  1  0
 19 33  1  0
 21 34  1  0
 21 35  1  0
 26 36  1  0
M  CHG  4   8  -1  14  -1  24  -1  25  -1
M  END
>  <UniqueID>  (10) 
10

>  <SMILES>  (10) 
C=C(C#N)S(=O)(=O)[N-]C(=O)n1c(C([NH-])=O)cc2ccc(CP(=O)([O-])[O-])cc21

>  <Energy>  (10) 
70.62021633570606

>  <Genealogy>  (10) 
C=C(C#N)S(=O)(=O)[N-]C(=O)n1c(C([NH-])=O)cc2ccc(CP(=O)([O-])[O-])cc21 (protonated)
C=C(C#N)S(=O)(=O)[N-]C(=O)n1c(C([NH-])=O)cc2ccc(CP(=O)([O-])[O-])cc21 (3D coordinates assigned)
C=C(C#N)S(=O)(=O)[N-]C(=O)n1c(C([NH-])=O)cc2ccc(CP(=O)([O-])[O-])cc21 (optimized conformer: 70.62021633570606 kcal/mol)

>  <smiles>  (10) 
C=C(C#N)S(=O)(=O)NC(=O)n1c(C(N)=O)cc2ccc(CP(=O)(O)O)cc21

>  <score_type>  (10) 
oracle

>  <origin>  (10) 
adg

>  <m_score__min__energy>  (10) 
-7.9299999999999997

>  <m_primary>  (10) 
energy

$$$$
10:0
     RDKit          3D

 32 33  0  0  0  0  0  0  0  0999 V2000
  146.9790  155.0430  135.2170 C   0  0  0  0  0  0  0  0  0  0  0  0
  145.9090  155.7620  134.6170 O   0  0  0  0  0  0  0  0  0  0  0  0
  146.0550  156.4730  133.4210 C   0  0  0  0  0  0  0  0  0  0  0  0
  146.2990  155.8610  132.3450 O   0  0  0  0  0  0  0  0  0  0  0  0
  145.9370  157.9050  133.4230 N   0  0  0  0  0  0  0  0  0  0  0  0
  146.8920  158.8140  133.0810 C   0  0  0  0  0  0  0  0  0  0  0  0
  148.3100  158.5020  132.7910 C   0  0  0  0  0  0  0  0  0  0  0  0
  148.6550  157.4840  131.8500 N   0  0  0  0  0  0  0  0  0  0  0  0
  149.2290  159.1570  133.3510 O   0  0  0  0  0  0  0  0  0  0  0  0
  146.3780  160.1080  133.1350 C   0  0  0  0  0  0  0  0  0  0  0  0
  145.0670  159.9630  133.5260 C   0  0  0  0  0  0  0  0  0  0  0  0
  144.0870  160.9260  133.7420 C   0  0  0  0  0  0  0  0  0  0  0  0
  142.8080  160.4910  134.1240 C   0  0  0  0  0  0  0  0  0  0  0  0
  142.5230  159.1070  134.2620 C   0  0  0  0  0  0  0  0  0  0  0  0
  141.1500  158.6530  134.7060 C   0  0  0  0  0  0  0  0  0  0  0  0
  140.2140  158.5490  133.5050 C   0  0  0  0  0  0  0  0  0  0  0  0
  141.2300  157.4170  135.3270 F   0  0  0  0  0  0  0  0  0  0  0  0
  140.6190  159.5510  135.6170 F   0  0  0  0  0  0  0  0  0  0  0  0
  143.5530  158.1600  134.0540 C   0  0  0  0  0  0  0  0  0  0  0  0
  144.8240  158.6250  133.6920 C   0  0  0  0  0  0  0  0  0  0  0  0
  146.8917  155.1017  136.3120 H   0  0  0  0  0  0  0  0  0  0  0  0
  146.9356  153.9901  134.9016 H   0  0  0  0  0  0  0  0  0  0  0  0
  147.9375  155.4810  134.9016 H   0  0  0  0  0  0  0  0  0  0  0  0
  147.9250  156.8850  131.4070 H   0  0  0  0  0  0  0  0  0  0  0  0
  149.6570  157.2980  131.6230 H   0  0  0  0  0  0  0  0  0  0  0  0
  146.9078  161.0460  132.9123 H   0  0  0  0  0  0  0  0  0  0  0  0
  144.3075  161.9964  133.6173 H   0  0  0  0  0  0  0  0  0  0  0  0
  142.0177  161.2309  134.3186 H   0  0  0  0  0  0  0  0  0  0  0  0
  139.1780  158.4339  133.8564 H   0  0  0  0  0  0  0  0  0  0  0  0
  140.2955  159.4617  132.8965 H   0  0  0  0  0  0  0  0  0  0  0  0
  140.4939  157.6764  132.8965 H   0  0  0  0  0  0  0  0  0  0  0  0
  143.3605  157.0836  134.1737 H   0  0  0  0  0  0  0  0  0  0  0  0
  1  2  1  0
  2  3  1  0
  3  4  2  0
  3  5  1  0
  5  6  1  0
  6  7  1  0
  7  8  1  0
  7  9  2  0
  6 10  2  0
 10 11  1  0
 11 12  2  0
 12 13  1  0
 13 14  2  0
 14 15  1  0
 15 16  1  0
 15 17  1  0
 15 18  1  0
 14 19  1  0
 19 20  2  0
 20  5  1  0
 20 11  1  0
  1 21  1  0
  1 22  1  0
  1 23  1  0
  8 24  1  0
  8 25  1  0
 10 26  1  0
 12 27  1  0
 13 28  1  0
 16 29  1  0
 16 30  1  0
 16 31  1  0
 19 32  1  0
M  END
>  <UniqueID>  (11) 
11

>  <SMILES>  (11) 
COC(=O)n1c(C(N)=O)cc2ccc(C(C)(F)F)cc21

>  <Energy>  (11) 
66.95254360207073

>  <Genealogy>  (11) 
COC(=O)n1c(C(N)=O)cc2ccc(C(C)(F)F)cc21 (3D coordinates assigned)
COC(=O)n1c(C(N)=O)cc2ccc(C(C)(F)F)cc21 (optimized conformer: 66.95254360207073 kcal/mol)

>  <smiles>  (11) 
COC(=O)n1c(C(N)=O)cc2ccc(C(C)(F)F)cc21

>  <score_type>  (11) 
oracle

>  <origin>  (11) 
adg

>  <m_score__min__energy>  (11) 
-6.1399999999999997

>  <m_primary>  (11) 
energy

$$$$
11:0
     RDKit          3D

 40 41  0  0  0  0  0  0  0  0999 V2000
  148.7230  159.4350  133.2150 C   0  0  0  0  0  0  0  0  0  0  0  0
  147.5280  159.4900  133.3590 C   0  0  0  0  0  0  0  0  0  0  0  0
  146.1000  159.5520  133.5310 C   0  0  0  0  0  0  0  0  0  0  0  0
  145.4660  160.8030  133.7160 C   0  0  0  0  0  0  0  0  0  0  0  0
  144.0710  160.8780  133.8690 C   0  0  0  0  0  0  0  0  0  0  0  0
  143.3480  159.6880  133.8400 C   0  0  0  0  0  0  0  0  0  0  0  0
  141.9910  159.4760  133.9370 C   0  0  0  0  0  0  0  0  0  0  0  0
  141.8240  158.0950  133.8310 C   0  0  0  0  0  0  0  0  0  0  0  0
  140.5210  157.4080  133.9710 C   0  0  0  0  0  0  0  0  0  0  0  0
  140.4050  156.0060  133.7250 N   0  0  0  0  0  0  0  0  0  0  0  0
  139.4910  158.0630  134.2790 O   0  0  0  0  0  0  0  0  0  0  0  0
  143.0310  157.4790  133.6740 N   0  0  0  0  0  0  0  0  0  0  0  0
  143.2830  156.0800  133.4670 C   0  0  0  0  0  0  0  0  0  0  0  0
  143.6130  155.6610  132.3240 O   0  0  0  0  0  0  0  0  0  0  0  0
  143.1720  155.1870  134.5390 O   0  0  0  0  0  0  0  0  0  0  0  0
  143.0280  153.7810  134.3630 C   0  0  0  0  0  0  0  0  0  0  0  0
  141.6490  153.4330  134.2780 O   0  0  0  0  0  0  0  0  0  0  0  0
  141.0250  153.0900  133.0750 C   0  0  0  0  0  0  0  0  0  0  0  0
  140.0740  153.7840  132.6220 O   0  0  0  0  0  0  0  0  0  0  0  0
  141.5270  151.9210  132.2940 C   0  0  0  0  0  0  0  0  0  0  0  0
  140.8520  150.4070  132.9490 S   0  0  0  0  0  0  0  0  0  0  0  0
  141.7400  149.0240  132.2700 C   0  0  0  0  0  0  0  0  0  0  0  0
  140.9870  150.3980  134.4460 O   0  0  0  0  0  0  0  0  0  0  0  0
  139.4000  150.2960  132.5790 O   0  0  0  0  0  0  0  0  0  0  0  0
  143.9520  158.4670  133.6810 C   0  0  0  0  0  0  0  0  0  0  0  0
  145.3390  158.3660  133.5070 C   0  0  0  0  0  0  0  0  0  0  0  0
  149.8140  159.3848  133.0835 H   0  0  0  0  0  0  0  0  0  0  0  0
  146.0687  161.7229  133.7403 H   0  0  0  0  0  0  0  0  0  0  0  0
  143.5663  161.8456  134.0072 H   0  0  0  0  0  0  0  0  0  0  0  0
  141.2054  160.2344  134.0699 H   0  0  0  0  0  0  0  0  0  0  0  0
  139.4740  155.5390  133.7880 H   0  0  0  0  0  0  0  0  0  0  0  0
  141.2440  155.4180  133.5220 H   0  0  0  0  0  0  0  0  0  0  0  0
  143.5369  153.4771  133.4364 H   0  0  0  0  0  0  0  0  0  0  0  0
  143.4754  153.2644  135.2249 H   0  0  0  0  0  0  0  0  0  0  0  0
  141.2231  152.0292  131.2424 H   0  0  0  0  0  0  0  0  0  0  0  0
  142.6240  151.8856  132.3664 H   0  0  0  0  0  0  0  0  0  0  0  0
  142.1371  148.4056  133.0885 H   0  0  0  0  0  0  0  0  0  0  0  0
  141.0604  148.4202  131.6507 H   0  0  0  0  0  0  0  0  0  0  0  0
  142.5719  149.3907  131.6507 H   0  0  0  0  0  0  0  0  0  0  0  0
  145.8202  157.3884  133.3559 H   0  0  0  0  0  0  0  0  0  0  0  0
  1  2  3  0
  2  3  1  0
  3  4  2  0
  4  5  1  0
  5  6  2  0
  6  7  1  0
  7  8  2  0
  8  9  1  0
  9 10  1  0
  9 11  2  0
  8 12  1  0
 12 13  1  0
 13 14  2  0
 13 15  1  0
 15 16  1  0
 16 17  1  0
 17 18  1  0
 18 19  2  0
 18 20  1  0
 20 21  1  0
 21 22  1  0
 21 23  2  0
 21 24  2  0
 12 25  1  0
 25 26  2  0
 26  3  1  0
 25  6  1  0
  1 27  1  0
  4 28  1  0
  5 29  1  0
  7 30  1  0
 10 31  1  0
 10 32  1  0
 16 33  1  0
 16 34  1  0
 20 35  1  0
 20 36  1  0
 22 37  1  0
 22 38  1  0
 22 39  1  0
 26 40  1  0
M  END
>  <UniqueID>  (12) 
12

>  <SMILES>  (12) 
C#Cc1ccc2cc(C(N)=O)n(C(=O)OCOC(=O)CS(C)(=O)=O)c2c1

>  <Energy>  (12) 
64.35024948724288

>  <Genealogy>  (12) 
C#Cc1ccc2cc(C(N)=O)n(C(=O)OCOC(=O)CS(C)(=O)=O)c2c1 (3D coordinates assigned)
C#Cc1ccc2cc(C(N)=O)n(C(=O)OCOC(=O)CS(C)(=O)=O)c2c1 (optimized conformer: 64.35024948724288 kcal/mol)

>  <smiles>  (12) 
C#Cc1ccc2cc(C(N)=O)n(C(=O)OCOC(=O)CS(C)(=O)=O)c2c1

>  <score_type>  (12) 
oracle

>  <origin>  (12) 
adg

>  <m_score__min__energy>  (12) 
-7.8600000000000003

>  <m_primary>  (12) 
energy

$$$$
12:0
     RDKit          3D

 39 40  0  0  0  0  0  0  0  0999 V2000
  142.8820  155.4840  133.6960 N   0  0  0  0  0  0  0  0  0  0  0  0
  144.0160  155.8390  134.4910 C   0  0  0  0  0  0  0  0  0  0  0  0
  143.9950  155.6070  135.7300 O   0  0  0  0  0  0  0  0  0  0  0  0
  145.1880  156.5180  133.9020 C   0  0  0  0  0  0  0  0  0  0  0  0
  146.3850  155.8710  133.6060 C   0  0  0  0  0  0  0  0  0  0  0  0
  147.2070  156.8470  133.0870 C   0  0  0  0  0  0  0  0  0  0  0  0
  148.5090  156.7580  132.6060 C   0  0  0  0  0  0  0  0  0  0  0  0
  149.0990  157.9210  132.0800 C   0  0  0  0  0  0  0  0  0  0  0  0
  148.3700  159.1370  132.0140 C   0  0  0  0  0  0  0  0  0  0  0  0
  149.0240  160.3850  131.4780 C   0  0  0  0  0  0  0  0  0  0  0  0
  148.3810  161.4930  131.9970 F   0  0  0  0  0  0  0  0  0  0  0  0
  148.9450  160.4250  130.0970 F   0  0  0  0  0  0  0  0  0  0  0  0
  150.3600  160.4290  131.8370 F   0  0  0  0  0  0  0  0  0  0  0  0
  147.0540  159.1890  132.5290 C   0  0  0  0  0  0  0  0  0  0  0  0
  146.5030  158.0230  133.0720 C   0  0  0  0  0  0  0  0  0  0  0  0
  145.2650  157.8380  133.5790 N   0  0  0  0  0  0  0  0  0  0  0  0
  144.2000  158.8030  133.6050 C   0  0  0  0  0  0  0  0  0  0  0  0
  144.4130  159.9520  134.0780 O   0  0  0  0  0  0  0  0  0  0  0  0
  142.8720  158.4760  133.0670 C   0  0  0  0  0  0  0  0  0  0  0  0
  142.7470  157.5560  132.2140 O   0  0  0  0  0  0  0  0  0  0  0  0
  141.7270  159.2170  133.5020 N   0  0  0  0  0  0  0  0  0  0  0  0
  140.3820  158.6550  133.5940 C   0  0  0  0  0  0  0  0  0  0  0  0
  139.6370  158.8420  132.2620 C   0  0  0  0  0  0  0  0  0  0  0  0
  140.5070  158.6210  131.1870 O   0  0  0  0  0  0  0  0  0  0  0  0
  140.4760  157.1740  133.9950 C   0  0  0  0  0  0  0  0  0  0  0  0
  140.6850  156.3540  132.8740 O   0  0  0  0  0  0  0  0  0  0  0  0
  142.0910  154.9540  134.1230 H   0  0  0  0  0  0  0  0  0  0  0  0
  142.7770  155.8310  132.7180 H   0  0  0  0  0  0  0  0  0  0  0  0
  146.6233  154.8075  133.7549 H   0  0  0  0  0  0  0  0  0  0  0  0
  149.0605  155.8067  132.6361 H   0  0  0  0  0  0  0  0  0  0  0  0
  150.1364  157.8880  131.7158 H   0  0  0  0  0  0  0  0  0  0  0  0
  146.4765  160.1249  132.5033 H   0  0  0  0  0  0  0  0  0  0  0  0
  139.8062  159.1840  134.3677 H   0  0  0  0  0  0  0  0  0  0  0  0
  138.8034  158.1263  132.2081 H   0  0  0  0  0  0  0  0  0  0  0  0
  139.2520  159.8710  132.2070 H   0  0  0  0  0  0  0  0  0  0  0  0
  141.3450  158.2630  131.5790 H   0  0  0  0  0  0  0  0  0  0  0  0
  141.3148  157.0448  134.6948 H   0  0  0  0  0  0  0  0  0  0  0  0
  139.5266  156.8812  134.4671 H   0  0  0  0  0  0  0  0  0  0  0  0
  141.2630  156.8650  132.2510 H   0  0  0  0  0  0  0  0  0  0  0  0
  1  2  1  0
  2  3  2  0
  2  4  1  0
  4  5  2  0
  5  6  1  0
  6  7  2  0
  7  8  1  0
  8  9  2  0
  9 10  1  0
 10 11  1  0
 10 12  1  0
 10 13  1  0
  9 14  1  0
 14 15  2  0
 15 16  1  0
 16 17  1  0
 17 18  2  0
 17 19  1  0
 19 20  2  0
 19 21  1  0
 21 22  1  0
 22 23  1  0
 23 24  1  0
 22 25  1  0
 25 26  1  0
 16  4  1  0
 15  6  1  0
  1 27  1  0
  1 28  1  0
  5 29  1  0
  7 30  1  0
  8 31  1  0
 14 32  1  0
 22 33  1  0
 23 34  1  0
 23 35  1  0
 24 36  1  0
 25 37  1  0
 25 38  1  0
 26 39  1  0
M  CHG  1  21  -1
M  END
>  <UniqueID>  (13) 
13

>  <SMILES>  (13) 
NC(=O)c1cc2ccc(C(F)(F)F)cc2n1C(=O)C(=O)[N-]C(CO)CO

>  <Energy>  (13) 
74.35590136237445

>  <Genealogy>  (13) 
NC(=O)c1cc2ccc(C(F)(F)F)cc2n1C(=O)C(=O)[N-]C(CO)CO (protonated)
NC(=O)c1cc2ccc(C(F)(F)F)cc2n1C(=O)C(=O)[N-]C(CO)CO (3D coordinates assigned)
NC(=O)c1cc2ccc(C(F)(F)F)cc2n1C(=O)C(=O)[N-]C(CO)CO (optimized conformer: 74.35590136237445 kcal/mol)

>  <smiles>  (13) 
NC(=O)c1cc2ccc(C(F)(F)F)cc2n1C(=O)C(=O)NC(CO)CO

>  <score_type>  (13) 
oracle

>  <origin>  (13) 
adg

>  <m_score__min__energy>  (13) 
-5.2999999999999998

>  <m_primary>  (13) 
energy

$$$$
13:0
     RDKit          3D

 41 42  0  0  0  0  0  0  0  0999 V2000
  149.8520  151.0790  133.7290 C   0  0  0  0  0  0  0  0  0  0  0  0
  149.9060  152.2530  132.9480 O   0  0  0  0  0  0  0  0  0  0  0  0
  148.6260  152.5550  132.4300 C   0  0  0  0  0  0  0  0  0  0  0  0
  148.3320  153.9820  132.6000 C   0  0  0  0  0  0  0  0  0  0  0  0
  148.0920  155.1560  132.7440 C   0  0  0  0  0  0  0  0  0  0  0  0
  147.8060  156.5550  132.9130 C   0  0  0  0  0  0  0  0  0  0  0  0
  148.8580  157.4990  132.8700 C   0  0  0  0  0  0  0  0  0  0  0  0
  148.5890  158.8700  133.0190 C   0  0  0  0  0  0  0  0  0  0  0  0
  147.2660  159.2580  133.2170 C   0  0  0  0  0  0  0  0  0  0  0  0
  146.7250  160.5150  133.3600 C   0  0  0  0  0  0  0  0  0  0  0  0
  145.3550  160.3120  133.5130 C   0  0  0  0  0  0  0  0  0  0  0  0
  144.3980  161.4060  133.7780 C   0  0  0  0  0  0  0  0  0  0  0  0
  143.0070  161.2390  133.5220 N   0  0  0  0  0  0  0  0  0  0  0  0
  144.8070  162.4830  134.2870 O   0  0  0  0  0  0  0  0  0  0  0  0
  145.0580  158.9820  133.4600 N   0  0  0  0  0  0  0  0  0  0  0  0
  143.7550  158.3750  133.4710 C   0  0  0  0  0  0  0  0  0  0  0  0
  143.4310  157.5650  132.5600 O   0  0  0  0  0  0  0  0  0  0  0  0
  142.8410  158.7140  134.4740 O   0  0  0  0  0  0  0  0  0  0  0  0
  141.4950  158.2380  134.5160 C   0  0  1  0  0  0  0  0  0  0  0  0
  140.9670  158.2480  135.9560 C   0  0  0  0  0  0  0  0  0  0  0  0
  140.6220  159.1100  133.6040 C   0  0  0  0  0  0  0  0  0  0  0  0
  141.2210  159.2880  132.3470 O   0  0  0  0  0  0  0  0  0  0  0  0
  146.2390  158.3500  133.2800 C   0  0  0  0  0  0  0  0  0  0  0  0
  146.4770  156.9790  133.1140 C   0  0  0  0  0  0  0  0  0  0  0  0
  149.8643  151.3473  134.7957 H   0  0  0  0  0  0  0  0  0  0  0  0
  148.9276  150.5285  133.5001 H   0  0  0  0  0  0  0  0  0  0  0  0
  150.7220  150.4460  133.5001 H   0  0  0  0  0  0  0  0  0  0  0  0
  148.5993  152.3040  131.3593 H   0  0  0  0  0  0  0  0  0  0  0  0
  147.8720  151.9669  132.9737 H   0  0  0  0  0  0  0  0  0  0  0  0
  149.8929  157.1580  132.7190 H   0  0  0  0  0  0  0  0  0  0  0  0
  149.3983  159.6140  132.9805 H   0  0  0  0  0  0  0  0  0  0  0  0
  147.2603  161.4760  133.3547 H   0  0  0  0  0  0  0  0  0  0  0  0
  142.6410  160.3590  133.0950 H   0  0  0  0  0  0  0  0  0  0  0  0
  141.4616  157.1993  134.1556 H   0  0  0  0  0  0  0  0  0  0  0  0
  141.8143  158.2320  136.6573 H   0  0  0  0  0  0  0  0  0  0  0  0
  140.3710  159.1576  136.1217 H   0  0  0  0  0  0  0  0  0  0  0  0
  140.3370  157.3616  136.1217 H   0  0  0  0  0  0  0  0  0  0  0  0
  139.6448  158.6230  133.4701 H   0  0  0  0  0  0  0  0  0  0  0  0
  140.5023  160.0965  134.0757 H   0  0  0  0  0  0  0  0  0  0  0  0
  142.1950  159.3910  132.5060 H   0  0  0  0  0  0  0  0  0  0  0  0
  145.6499  156.2542  133.1398 H   0  0  0  0  0  0  0  0  0  0  0  0
  1  2  1  0
  2  3  1  0
  3  4  1  0
  4  5  3  0
  5  6  1  0
  6  7  2  0
  7  8  1  0
  8  9  2  0
  9 10  1  0
 10 11  2  0
 11 12  1  0
 12 13  1  0
 12 14  2  0
 11 15  1  0
 15 16  1  0
 16 17  2  0
 16 18  1  0
 18 19  1  0
 19 20  1  0
 19 21  1  0
 21 22  1  0
 15 23  1  0
 23 24  2  0
 24  6  1  0
 23  9  1  0
  1 25  1  0
  1 26  1  0
  1 27  1  0
  3 28  1  0
  3 29  1  0
  7 30  1  0
  8 31  1  0
 10 32  1  0
 13 33  1  0
 19 34  1  6
 20 35  1  0
 20 36  1  0
 20 37  1  0
 21 38  1  0
 21 39  1  0
 22 40  1  0
 24 41  1  0
M  CHG  1  13  -1
M  END
>  <UniqueID>  (14) 
14

>  <SMILES>  (14) 
COCC#Cc1ccc2cc(C([NH-])=O)n(C(=O)O[C@@H](C)CO)c2c1

>  <Energy>  (14) 
72.01943618472741

>  <Genealogy>  (14) 
COCC#Cc1ccc2cc(C([NH-])=O)n(C(=O)OC(C)CO)c2c1 (protonated)
COCC#Cc1ccc2cc(C([NH-])=O)n(C(=O)O[C@@H](C)CO)c2c1 (chirality)
COCC#Cc1ccc2cc(C([NH-])=O)n(C(=O)O[C@@H](C)CO)c2c1 (3D coordinates assigned)
COCC#Cc1ccc2cc(C([NH-])=O)n(C(=O)O[C@@H](C)CO)c2c1 (optimized conformer: 72.01943618472741 kcal/mol)

>  <smiles>  (14) 
COCC#Cc1ccc2cc(C(N)=O)n(C(=O)OC(C)CO)c2c1

>  <score_type>  (14) 
oracle

>  <origin>  (14) 
adg

>  <m_score__min__energy>  (14) 
-6.7199999999999998

>  <m_primary>  (14) 
energy

$$$$
14:0
     RDKit          3D

 48 49  0  0  0  0  0  0  0  0999 V2000
  148.2270  157.5500  133.5280 N   0  0  0  0  0  0  0  0  0  0  0  0
  147.5820  158.8250  133.5220 C   0  0  0  0  0  0  0  0  0  0  0  0
  148.2780  159.8630  133.3710 O   0  0  0  0  0  0  0  0  0  0  0  0
  146.1180  158.9350  133.7150 C   0  0  0  0  0  0  0  0  0  0  0  0
  145.4020  160.1290  133.6210 C   0  0  0  0  0  0  0  0  0  0  0  0
  144.0790  159.7720  133.7580 C   0  0  0  0  0  0  0  0  0  0  0  0
  142.9310  160.5580  133.7340 C   0  0  0  0  0  0  0  0  0  0  0  0
  141.6910  159.9180  133.9060 C   0  0  0  0  0  0  0  0  0  0  0  0
  141.6230  158.5180  134.1110 C   0  0  0  0  0  0  0  0  0  0  0  0
  140.2910  157.8400  134.2670 C   0  0  0  0  0  0  0  0  0  0  0  0
  139.4490  158.0850  133.0570 C   0  0  0  0  0  0  0  0  0  0  0  0
  139.1740  157.1290  132.2820 O   0  0  0  0  0  0  0  0  0  0  0  0
  138.9290  159.3640  132.8300 O   0  0  0  0  0  0  0  0  0  0  0  0
  138.9800  160.0200  131.5630 C   0  0  0  0  0  0  0  0  0  0  0  0
  137.6850  159.8000  130.7810 C   0  0  0  0  0  0  0  0  0  0  0  0
  136.8100  158.9730  131.4980 O   0  0  0  0  0  0  0  0  0  0  0  0
  142.8100  157.7510  134.1160 C   0  0  0  0  0  0  0  0  0  0  0  0
  144.0270  158.4140  133.9300 C   0  0  0  0  0  0  0  0  0  0  0  0
  145.2690  157.8870  133.9100 N   0  0  0  0  0  0  0  0  0  0  0  0
  145.6040  156.5010  134.0900 C   0  0  0  0  0  0  0  0  0  0  0  0
  145.9570  156.0870  135.2270 O   0  0  0  0  0  0  0  0  0  0  0  0
  145.5760  155.5630  132.9590 C   0  0  0  0  0  0  0  0  0  0  0  0
  144.5070  155.3900  132.3100 O   0  0  0  0  0  0  0  0  0  0  0  0
  146.7430  154.8800  132.6010 O   0  0  0  0  0  0  0  0  0  0  0  0
  147.0080  153.5300  132.9760 C   0  0  0  0  0  0  0  0  0  0  0  0
  148.4600  153.3790  133.4440 C   0  0  0  0  0  0  0  0  0  0  0  0
  149.4380  154.1030  132.5130 C   0  0  0  0  0  0  0  0  0  0  0  0
  149.2620  155.4930  132.5830 O   0  0  0  0  0  0  0  0  0  0  0  0
  149.2650  157.4900  133.4320 H   0  0  0  0  0  0  0  0  0  0  0  0
  147.6800  156.6640  133.5830 H   0  0  0  0  0  0  0  0  0  0  0  0
  145.8079  161.1401  133.4697 H   0  0  0  0  0  0  0  0  0  0  0  0
  142.9917  161.6462  133.5851 H   0  0  0  0  0  0  0  0  0  0  0  0
  140.7644  160.5103  133.8812 H   0  0  0  0  0  0  0  0  0  0  0  0
  140.4451  156.7579  134.3907 H   0  0  0  0  0  0  0  0  0  0  0  0
  139.7796  158.2471  135.1517 H   0  0  0  0  0  0  0  0  0  0  0  0
  139.1258  161.0987  131.7218 H   0  0  0  0  0  0  0  0  0  0  0  0
  139.8155  159.6000  130.9837 H   0  0  0  0  0  0  0  0  0  0  0  0
  137.2004  160.7714  130.6036 H   0  0  0  0  0  0  0  0  0  0  0  0
  137.9269  159.3149  129.8239 H   0  0  0  0  0  0  0  0  0  0  0  0
  137.3610  158.2380  131.8760 H   0  0  0  0  0  0  0  0  0  0  0  0
  142.7774  156.6613  134.2623 H   0  0  0  0  0  0  0  0  0  0  0  0
  146.3319  153.2421  133.7945 H   0  0  0  0  0  0  0  0  0  0  0  0
  146.8454  152.8796  132.1039 H   0  0  0  0  0  0  0  0  0  0  0  0
  148.5534  153.8009  134.4556 H   0  0  0  0  0  0  0  0  0  0  0  0
  148.7112  152.3081  133.4365 H   0  0  0  0  0  0  0  0  0  0  0  0
  150.4678  153.8552  132.8099 H   0  0  0  0  0  0  0  0  0  0  0  0
  149.2460  153.7766  131.4802 H   0  0  0  0  0  0  0  0  0  0  0  0
  148.5960  155.7300  131.8850 H   0  0  0  0  0  0  0  0  0  0  0  0
  1  2  1  0
  2  3  2  0
  2  4  1  0
  4  5  2  0
  5  6  1  0
  6  7  2  0
  7  8  1  0
  8  9  2  0
  9 10  1  0
 10 11  1  0
 11 12  2  0
 11 13  1  0
 13 14  1  0
 14 15  1  0
 15 16  1  0
  9 17  1  0
 17 18  2  0
 18 19  1  0
 19 20  1  0
 20 21  2  0
 20 22  1  0
 22 23  2  0
 22 24  1  0
 24 25  1  0
 25 26  1  0
 26 27  1  0
 27 28  1  0
 19  4  1  0
 18  6  1  0
  1 29  1  0
  1 30  1  0
  5 31  1  0
  7 32  1  0
  8 33  1  0
 10 34  1  0
 10 35  1  0
 14 36  1  0
 14 37  1  0
 15 38  1  0
 15 39  1  0
 16 40  1  0
 17 41  1  0
 25 42  1  0
 25 43  1  0
 26 44  1  0
 26 45  1  0
 27 46  1  0
 27 47  1  0
 28 48  1  0
M  END
>  <UniqueID>  (15) 
15

>  <SMILES>  (15) 
NC(=O)c1cc2ccc(CC(=O)OCCO)cc2n1C(=O)C(=O)OCCCO

>  <Energy>  (15) 
75.25676399949127

>  <Genealogy>  (15) 
NC(=O)c1cc2ccc(CC(=O)OCCO)cc2n1C(=O)C(=O)OCCCO (3D coordinates assigned)
NC(=O)c1cc2ccc(CC(=O)OCCO)cc2n1C(=O)C(=O)OCCCO (optimized conformer: 75.25676399949127 kcal/mol)

>  <smiles>  (15) 
NC(=O)c1cc2ccc(CC(=O)OCCO)cc2n1C(=O)C(=O)OCCCO

>  <score_type>  (15) 
oracle

>  <origin>  (15) 
adg

>  <m_score__min__energy>  (15) 
-5.8300000000000001

>  <m_primary>  (15) 
energy

$$$$
15:0
     RDKit          3D

 34 36  0  0  0  0  0  0  0  0999 V2000
  143.0250  160.6450  133.3620 N   0  0  0  0  0  0  0  0  0  0  0  0
  144.3970  160.8060  133.7160 C   0  0  0  0  0  0  0  0  0  0  0  0
  144.7820  161.8960  134.2130 O   0  0  0  0  0  0  0  0  0  0  0  0
  145.3560  159.7100  133.4580 C   0  0  0  0  0  0  0  0  0  0  0  0
  146.7060  159.9210  133.1810 C   0  0  0  0  0  0  0  0  0  0  0  0
  147.2610  158.6650  133.0950 C   0  0  0  0  0  0  0  0  0  0  0  0
  148.5710  158.2840  132.8290 C   0  0  0  0  0  0  0  0  0  0  0  0
  148.8600  156.9100  132.7740 C   0  0  0  0  0  0  0  0  0  0  0  0
  147.8410  155.9410  132.9770 C   0  0  0  0  0  0  0  0  0  0  0  0
  148.1540  154.4920  132.9060 C   0  0  0  0  0  0  0  0  0  0  0  0
  147.4190  153.4370  133.4220 C   0  0  0  0  0  0  0  0  0  0  0  0
  148.0660  152.2940  133.1350 N   0  0  0  0  0  0  0  0  0  0  0  0
  149.1470  152.5880  132.4770 O   0  0  0  0  0  0  0  0  0  0  0  0
  149.2520  153.8860  132.3110 C   0  0  0  0  0  0  0  0  0  0  0  0
  146.5190  156.3760  133.2440 C   0  0  0  0  0  0  0  0  0  0  0  0
  146.2650  157.7510  133.3110 C   0  0  0  0  0  0  0  0  0  0  0  0
  145.0880  158.3750  133.5320 N   0  0  0  0  0  0  0  0  0  0  0  0
  143.8170  157.7410  133.7440 C   0  0  0  0  0  0  0  0  0  0  0  0
  142.8940  157.8820  132.8960 O   0  0  0  0  0  0  0  0  0  0  0  0
  143.6170  156.9500  134.8810 O   0  0  0  0  0  0  0  0  0  0  0  0
  143.2140  155.5840  134.8260 C   0  0  0  0  0  0  0  0  0  0  0  0
  144.4030  154.6860  134.9340 C   0  0  0  0  0  0  0  0  0  0  0  0
  145.3920  155.0290  135.6350 O   0  0  0  0  0  0  0  0  0  0  0  0
  144.4110  153.4560  134.2880 O   0  0  0  0  0  0  0  0  0  0  0  0
  142.7430  160.0110  132.5830 H   0  0  0  0  0  0  0  0  0  0  0  0
  147.2185  160.8865  133.0575 H   0  0  0  0  0  0  0  0  0  0  0  0
  149.3577  159.0354  132.6664 H   0  0  0  0  0  0  0  0  0  0  0  0
  149.8895  156.5800  132.5710 H   0  0  0  0  0  0  0  0  0  0  0  0
  146.4698  153.5202  133.9717 H   0  0  0  0  0  0  0  0  0  0  0  0
  147.7640  151.3290  133.3920 H   0  0  0  0  0  0  0  0  0  0  0  0
  150.0701  154.4046  131.7896 H   0  0  0  0  0  0  0  0  0  0  0  0
  145.7086  155.6478  133.3956 H   0  0  0  0  0  0  0  0  0  0  0  0
  142.5254  155.3754  135.6580 H   0  0  0  0  0  0  0  0  0  0  0  0
  142.7124  155.3982  133.8648 H   0  0  0  0  0  0  0  0  0  0  0  0
  1  2  1  0
  2  3  2  0
  2  4  1  0
  4  5  2  0
  5  6  1  0
  6  7  2  0
  7  8  1  0
  8  9  2  0
  9 10  1  0
 10 11  1  0
 11 12  2  0
 12 13  1  0
 13 14  1  0
  9 15  1  0
 15 16  2  0
 16 17  1  0
 17 18  1  0
 18 19  2  0
 18 20  1  0
 20 21  1  0
 21 22  1  0
 22 23  2  0
 22 24  1  0
 17  4  1  0
 16  6  1  0
 14 10  2  0
  1 25  1  0
  5 26  1  0
  7 27  1  0
  8 28  1  0
 11 29  1  0
 12 30  1  0
 14 31  1  0
 15 32  1  0
 21 33  1  0
 21 34  1  0
M  CHG  3   1  -1  12   1  24  -1
M  END
>  <UniqueID>  (16) 
16

>  <SMILES>  (16) 
[NH-]C(=O)c1cc2ccc(-c3c[nH+]oc3)cc2n1C(=O)OCC(=O)[O-]

>  <Energy>  (16) 
106.02240322618924

>  <Genealogy>  (16) 
[NH-]C(=O)c1cc2ccc(-c3c[nH+]oc3)cc2n1C(=O)OCC(=O)[O-] (protonated)
[NH-]C(=O)c1cc2ccc(-c3c[nH+]oc3)cc2n1C(=O)OCC(=O)[O-] (3D coordinates assigned)
[NH-]C(=O)c1cc2ccc(-c3c[nH+]oc3)cc2n1C(=O)OCC(=O)[O-] (optimized conformer: 106.02240322618924 kcal/mol)

>  <smiles>  (16) 
NC(=O)c1cc2ccc(-c3cnoc3)cc2n1C(=O)OCC(=O)O

>  <score_type>  (16) 
oracle

>  <origin>  (16) 
adg

>  <m_score__min__energy>  (16) 
-6.75

>  <m_primary>  (16) 
energy

$$$$
16:0
     RDKit          3D

 39 40  0  0  0  0  0  0  0  0999 V2000
  142.8850  160.1190  134.5270 N   0  0  0  0  0  0  0  0  0  0  0  0
  144.0380  160.7190  133.9420 C   0  0  0  0  0  0  0  0  0  0  0  0
  144.0770  161.9700  133.7960 O   0  0  0  0  0  0  0  0  0  0  0  0
  145.2090  159.9010  133.5660 C   0  0  0  0  0  0  0  0  0  0  0  0
  146.4600  160.4430  133.2800 C   0  0  0  0  0  0  0  0  0  0  0  0
  147.2870  159.3630  133.0790 C   0  0  0  0  0  0  0  0  0  0  0  0
  148.6380  159.3230  132.7460 C   0  0  0  0  0  0  0  0  0  0  0  0
  149.2370  158.0650  132.5760 C   0  0  0  0  0  0  0  0  0  0  0  0
  148.4840  156.8770  132.7480 C   0  0  0  0  0  0  0  0  0  0  0  0
  149.1430  155.5280  132.6210 C   0  0  0  0  0  0  0  0  0  0  0  0
  148.1390  154.3740  132.8090 C   0  0  0  0  0  0  0  0  0  0  0  0
  148.7940  153.0610  133.2660 C   0  0  0  0  0  0  0  0  0  0  0  0
  149.6710  152.5030  132.2430 N   0  0  0  0  0  0  0  0  0  0  0  0
  149.6110  151.1460  131.7990 C   0  0  0  0  0  0  0  0  0  0  0  0
  148.8530  150.3380  132.3970 O   0  0  0  0  0  0  0  0  0  0  0  0
  150.3890  150.7250  130.7140 O   0  0  0  0  0  0  0  0  0  0  0  0
  150.6510  149.3540  130.4280 C   0  0  0  0  0  0  0  0  0  0  0  0
  151.4260  149.2290  129.1550 C   0  0  0  0  0  0  0  0  0  0  0  0
  150.8570  148.8480  128.0990 O   0  0  0  0  0  0  0  0  0  0  0  0
  152.7690  149.5780  129.1270 O   0  0  0  0  0  0  0  0  0  0  0  0
  147.1100  156.9580  133.0710 C   0  0  0  0  0  0  0  0  0  0  0  0
  146.5390  158.2250  133.2410 C   0  0  0  0  0  0  0  0  0  0  0  0
  145.2560  158.5390  133.5300 N   0  0  0  0  0  0  0  0  0  0  0  0
  144.1500  157.6230  133.6280 C   0  0  0  0  0  0  0  0  0  0  0  0
  144.1390  156.7280  134.5120 O   0  0  0  0  0  0  0  0  0  0  0  0
  143.0980  157.6960  132.7230 O   0  0  0  0  0  0  0  0  0  0  0  0
  142.5530  159.1790  134.2150 H   0  0  0  0  0  0  0  0  0  0  0  0
  146.7290  161.5082  133.2264 H   0  0  0  0  0  0  0  0  0  0  0  0
  149.2184  160.2489  132.6199 H   0  0  0  0  0  0  0  0  0  0  0  0
  150.3016  158.0007  132.3066 H   0  0  0  0  0  0  0  0  0  0  0  0
  149.5946  155.4463  131.6213 H   0  0  0  0  0  0  0  0  0  0  0  0
  149.9050  155.4469  133.4102 H   0  0  0  0  0  0  0  0  0  0  0  0
  147.3991  154.6757  133.5650 H   0  0  0  0  0  0  0  0  0  0  0  0
  147.6787  154.1822  131.8285 H   0  0  0  0  0  0  0  0  0  0  0  0
  149.3853  153.2559  134.1729 H   0  0  0  0  0  0  0  0  0  0  0  0
  147.9937  152.3322  133.4618 H   0  0  0  0  0  0  0  0  0  0  0  0
  151.2334  148.9161  131.2520 H   0  0  0  0  0  0  0  0  0  0  0  0
  149.6945  148.8218  130.3187 H   0  0  0  0  0  0  0  0  0  0  0  0
  146.5040  156.0472  133.1860 H   0  0  0  0  0  0  0  0  0  0  0  0
  1  2  1  0
  2  3  2  0
  2  4  1  0
  4  5  2  0
  5  6  1  0
  6  7  2  0
  7  8  1  0
  8  9  2  0
  9 10  1  0
 10 11  1  0
 11 12  1  0
 12 13  1  0
 13 14  1  0
 14 15  2  0
 14 16  1  0
 16 17  1  0
 17 18  1  0
 18 19  2  0
 18 20  1  0
  9 21  1  0
 21 22  2  0
 22 23  1  0
 23 24  1  0
 24 25  2  0
 24 26  1  0
 23  4  1  0
 22  6  1  0
  1 27  1  0
  5 28  1  0
  7 29  1  0
  8 30  1  0
 10 31  1  0
 10 32  1  0
 11 33  1  0
 11 34  1  0
 12 35  1  0
 12 36  1  0
 17 37  1  0
 17 38  1  0
 21 39  1  0
M  CHG  4   1  -1  13  -1  20  -1  26  -1
M  END
>  <UniqueID>  (17) 
17

>  <SMILES>  (17) 
[NH-]C(=O)c1cc2ccc(CCC[N-]C(=O)OCC(=O)[O-])cc2n1C(=O)[O-]

>  <Energy>  (17) 
68.11967823156571

>  <Genealogy>  (17) 
[NH-]C(=O)c1cc2ccc(CCC[N-]C(=O)OCC(=O)[O-])cc2n1C(=O)[O-] (protonated)
[NH-]C(=O)c1cc2ccc(CCC[N-]C(=O)OCC(=O)[O-])cc2n1C(=O)[O-] (3D coordinates assigned)
[NH-]C(=O)c1cc2ccc(CCC[N-]C(=O)OCC(=O)[O-])cc2n1C(=O)[O-] (optimized conformer: 68.11967823156571 kcal/mol)

>  <smiles>  (17) 
NC(=O)c1cc2ccc(CCCNC(=O)OCC(=O)O)cc2n1C(=O)O

>  <score_type>  (17) 
oracle

>  <origin>  (17) 
adg

>  <m_score__min__energy>  (17) 
-6.5199999999999996

>  <m_primary>  (17) 
energy

$$$$
17:0
     RDKit          3D

 36 37  0  0  0  0  0  0  0  0999 V2000
  141.7130  156.4490  136.9850 C   0  0  0  0  0  0  0  0  0  0  0  0
  140.7580  157.4990  136.9060 O   0  0  0  0  0  0  0  0  0  0  0  0
  140.8630  158.5440  135.9830 C   0  0  0  0  0  0  0  0  0  0  0  0
  140.7120  159.7420  136.3440 O   0  0  0  0  0  0  0  0  0  0  0  0
  141.1930  158.2340  134.5580 C   0  0  0  0  0  0  0  0  0  0  0  0
  142.5340  158.8100  134.2030 C   0  0  0  0  0  0  0  0  0  0  0  0
  142.7000  160.2150  134.1050 C   0  0  0  0  0  0  0  0  0  0  0  0
  143.9530  160.7660  133.7870 C   0  0  0  0  0  0  0  0  0  0  0  0
  145.0190  159.8940  133.5910 C   0  0  0  0  0  0  0  0  0  0  0  0
  146.3260  160.1580  133.2470 C   0  0  0  0  0  0  0  0  0  0  0  0
  146.9470  158.9130  133.1770 C   0  0  0  0  0  0  0  0  0  0  0  0
  148.3880  158.7370  132.9050 C   0  0  0  0  0  0  0  0  0  0  0  0
  148.8360  158.0290  131.7510 N   0  0  0  0  0  0  0  0  0  0  0  0
  149.2370  159.1770  133.7250 O   0  0  0  0  0  0  0  0  0  0  0  0
  146.0590  157.9190  133.4620 N   0  0  0  0  0  0  0  0  0  0  0  0
  146.2810  156.5030  133.4010 C   0  0  0  0  0  0  0  0  0  0  0  0
  146.7910  155.9890  132.3680 O   0  0  0  0  0  0  0  0  0  0  0  0
  145.9510  155.7000  134.4970 O   0  0  0  0  0  0  0  0  0  0  0  0
  146.9260  155.0050  135.2640 C   0  0  0  0  0  0  0  0  0  0  0  0
  146.2470  153.9910  136.1200 C   0  0  0  0  0  0  0  0  0  0  0  0
  144.9930  153.9940  136.2360 O   0  0  0  0  0  0  0  0  0  0  0  0
  146.9950  153.0090  136.7570 O   0  0  0  0  0  0  0  0  0  0  0  0
  144.8830  158.5360  133.7140 C   0  0  0  0  0  0  0  0  0  0  0  0
  143.6430  157.9570  134.0110 C   0  0  0  0  0  0  0  0  0  0  0  0
  141.9205  156.2208  138.0409 H   0  0  0  0  0  0  0  0  0  0  0  0
  141.3143  155.5525  136.4876 H   0  0  0  0  0  0  0  0  0  0  0  0
  142.6431  156.7612  136.4876 H   0  0  0  0  0  0  0  0  0  0  0  0
  141.2170  157.1431  134.4189 H   0  0  0  0  0  0  0  0  0  0  0  0
  140.4261  158.6771  133.9057 H   0  0  0  0  0  0  0  0  0  0  0  0
  141.8406  160.8791  134.2794 H   0  0  0  0  0  0  0  0  0  0  0  0
  144.0869  161.8540  133.6958 H   0  0  0  0  0  0  0  0  0  0  0  0
  146.7825  161.1423  133.0660 H   0  0  0  0  0  0  0  0  0  0  0  0
  148.4170  157.1100  131.4870 H   0  0  0  0  0  0  0  0  0  0  0  0
  147.6341  154.5017  134.5893 H   0  0  0  0  0  0  0  0  0  0  0  0
  147.4722  155.7178  135.8993 H   0  0  0  0  0  0  0  0  0  0  0  0
  143.5355  156.8653  134.0927 H   0  0  0  0  0  0  0  0  0  0  0  0
  1  2  1  0
  2  3  1  0
  3  4  2  0
  3  5  1  0
  5  6  1  0
  6  7  2  0
  7  8  1  0
  8  9  2  0
  9 10  1  0
 10 11  2  0
 11 12  1  0
 12 13  1  0
 12 14  2  0
 11 15  1  0
 15 16  1  0
 16 17  2  0
 16 18  1  0
 18 19  1  0
 19 20  1  0
 20 21  2  0
 20 22  1  0
 15 23  1  0
 23 24  2  0
 24  6  1  0
 23  9  1  0
  1 25  1  0
  1 26  1  0
  1 27  1  0
  5 28  1  0
  5 29  1  0
  7 30  1  0
  8 31  1  0
 10 32  1  0
 13 33  1  0
 19 34  1  0
 19 35  1  0
 24 36  1  0
M  CHG  2  13  -1  22  -1
M  END
>  <UniqueID>  (18) 
18

>  <SMILES>  (18) 
COC(=O)Cc1ccc2cc(C([NH-])=O)n(C(=O)OCC(=O)[O-])c2c1

>  <Energy>  (18) 
68.0039639573698

>  <Genealogy>  (18) 
COC(=O)Cc1ccc2cc(C([NH-])=O)n(C(=O)OCC(=O)[O-])c2c1 (protonated)
COC(=O)Cc1ccc2cc(C([NH-])=O)n(C(=O)OCC(=O)[O-])c2c1 (3D coordinates assigned)
COC(=O)Cc1ccc2cc(C([NH-])=O)n(C(=O)OCC(=O)[O-])c2c1 (optimized conformer: 68.0039639573698 kcal/mol)

>  <smiles>  (18) 
COC(=O)Cc1ccc2cc(C(N)=O)n(C(=O)OCC(=O)O)c2c1

>  <score_type>  (18) 
oracle

>  <origin>  (18) 
adg

>  <m_score__min__energy>  (18) 
-6.04

>  <m_primary>  (18) 
energy

$$$$
18:0
     RDKit          3D

 34 35  0  0  0  0  0  0  0  0999 V2000
  147.0110  153.3730  136.7250 N   0  0  0  0  0  0  0  0  0  0  0  0
  146.4690  154.0910  135.9970 C   0  0  0  0  0  0  0  0  0  0  0  0
  145.7830  155.0000  135.0740 C   0  0  0  0  0  0  0  0  0  0  0  0
  146.7830  155.6760  134.1800 C   0  0  0  0  0  0  0  0  0  0  0  0
  147.9240  154.9680  133.7280 C   0  0  0  0  0  0  0  0  0  0  0  0
  148.8890  155.6020  132.9270 C   0  0  0  0  0  0  0  0  0  0  0  0
  148.6860  156.9380  132.5960 C   0  0  0  0  0  0  0  0  0  0  0  0
  149.4770  157.7990  131.8700 C   0  0  0  0  0  0  0  0  0  0  0  0
  148.7980  159.0130  131.8740 C   0  0  0  0  0  0  0  0  0  0  0  0
  149.2700  160.2110  131.1490 C   0  0  0  0  0  0  0  0  0  0  0  0
  148.4810  161.4010  131.0920 N   0  0  0  0  0  0  0  0  0  0  0  0
  150.3620  160.1650  130.5240 O   0  0  0  0  0  0  0  0  0  0  0  0
  147.6400  158.9160  132.5850 N   0  0  0  0  0  0  0  0  0  0  0  0
  146.7230  159.9730  132.9110 C   0  0  0  0  0  0  0  0  0  0  0  0
  147.1340  160.9900  133.5340 O   0  0  0  0  0  0  0  0  0  0  0  0
  145.3780  159.8680  132.5400 O   0  0  0  0  0  0  0  0  0  0  0  0
  144.3300  159.5670  133.4580 C   0  0  0  0  0  0  0  0  0  0  0  0
  143.7750  160.8500  134.0780 C   0  0  0  0  0  0  0  0  0  0  0  0
  144.5240  161.9570  133.6550 O   0  0  0  0  0  0  0  0  0  0  0  0
  147.5820  157.6370  133.0180 C   0  0  0  0  0  0  0  0  0  0  0  0
  146.6170  157.0360  133.8350 C   0  0  0  0  0  0  0  0  0  0  0  0
  145.0733  154.4272  134.4590 H   0  0  0  0  0  0  0  0  0  0  0  0
  145.2432  155.7633  135.6537 H   0  0  0  0  0  0  0  0  0  0  0  0
  148.0557  153.9121  134.0067 H   0  0  0  0  0  0  0  0  0  0  0  0
  149.7775  155.0588  132.5727 H   0  0  0  0  0  0  0  0  0  0  0  0
  150.4406  157.5749  131.3891 H   0  0  0  0  0  0  0  0  0  0  0  0
  147.5000  161.4150  131.4480 H   0  0  0  0  0  0  0  0  0  0  0  0
  148.8490  162.2510  130.6110 H   0  0  0  0  0  0  0  0  0  0  0  0
  143.5221  159.0434  132.9258 H   0  0  0  0  0  0  0  0  0  0  0  0
  144.7318  158.9299  134.2596 H   0  0  0  0  0  0  0  0  0  0  0  0
  142.7278  160.9800  133.7673 H   0  0  0  0  0  0  0  0  0  0  0  0
  143.8356  160.7739  135.1737 H   0  0  0  0  0  0  0  0  0  0  0  0
  145.1410  161.6280  132.9490 H   0  0  0  0  0  0  0  0  0  0  0  0
  145.7511  157.6083  134.1993 H   0  0  0  0  0  0  0  0  0  0  0  0
  1  2  3  0
  2  3  1  0
  3  4  1  0
  4  5  2  0
  5  6  1  0
  6  7  2  0
  7  8  1  0
  8  9  2  0
  9 10  1  0
 10 11  1  0
 10 12  2  0
  9 13  1  0
 13 14  1  0
 14 15  2  0
 14 16  1  0
 16 17  1  0
 17 18  1  0
 18 19  1  0
 13 20  1  0
 20 21  2  0
 21  4  1  0
 20  7  1  0
  3 22  1  0
  3 23  1  0
  5 24  1  0
  6 25  1  0
  8 26  1  0
 11 27  1  0
 11 28  1  0
 17 29  1  0
 17 30  1  0
 18 31  1  0
 18 32  1  0
 19 33  1  0
 21 34  1  0
M  END
>  <UniqueID>  (19) 
19

>  <SMILES>  (19) 
N#CCc1ccc2cc(C(N)=O)n(C(=O)OCCO)c2c1

>  <Energy>  (19) 
67.86063782233366

>  <Genealogy>  (19) 
N#CCc1ccc2cc(C(N)=O)n(C(=O)OCCO)c2c1 (3D coordinates assigned)
N#CCc1ccc2cc(C(N)=O)n(C(=O)OCCO)c2c1 (optimized conformer: 67.86063782233366 kcal/mol)

>  <smiles>  (19) 
N#CCc1ccc2cc(C(N)=O)n(C(=O)OCCO)c2c1

>  <score_type>  (19) 
oracle

>  <origin>  (19) 
adg

>  <m_score__min__energy>  (19) 
-6.7300000000000004

>  <m_primary>  (19) 
energy

$$$$
19:0
     RDKit          3D

 38 39  0  0  0  0  0  0  0  0999 V2000
  146.0560  159.5960  132.9900 C   0  0  0  0  0  0  0  0  0  0  0  0
  147.2070  158.8820  132.4200 N   0  0  0  0  0  0  0  0  0  0  0  0
  148.0390  159.7770  131.6010 C   0  0  0  0  0  0  0  0  0  0  0  0
  147.9840  158.1180  133.4250 C   0  0  0  0  0  0  0  0  0  0  0  0
  147.4710  156.6840  133.6960 C   0  0  0  0  0  0  0  0  0  0  0  0
  146.3140  156.3460  132.8620 N   0  0  0  0  0  0  0  0  0  0  0  0
  145.6690  155.0580  132.8900 C   0  0  0  0  0  0  0  0  0  0  0  0
  146.4050  153.8530  132.7210 C   0  0  0  0  0  0  0  0  0  0  0  0
  145.7560  152.6070  132.7410 C   0  0  0  0  0  0  0  0  0  0  0  0
  144.3790  152.5910  132.9340 C   0  0  0  0  0  0  0  0  0  0  0  0
  143.5060  151.5290  132.9730 C   0  0  0  0  0  0  0  0  0  0  0  0
  142.2490  152.0920  133.1840 C   0  0  0  0  0  0  0  0  0  0  0  0
  141.0160  151.3010  133.3860 C   0  0  0  0  0  0  0  0  0  0  0  0
  139.8500  151.5500  132.5970 N   0  0  0  0  0  0  0  0  0  0  0  0
  140.9910  150.3720  134.2380 O   0  0  0  0  0  0  0  0  0  0  0  0
  142.3420  153.4500  133.2710 N   0  0  0  0  0  0  0  0  0  0  0  0
  141.2660  154.3910  133.4150 C   0  0  0  0  0  0  0  0  0  0  0  0
  140.2500  154.3170  132.6760 O   0  0  0  0  0  0  0  0  0  0  0  0
  141.3270  155.3860  134.3840 O   0  0  0  0  0  0  0  0  0  0  0  0
  143.6540  153.7390  133.1150 C   0  0  0  0  0  0  0  0  0  0  0  0
  144.2710  154.9950  133.0830 C   0  0  0  0  0  0  0  0  0  0  0  0
  146.1107  159.5621  134.0881 H   0  0  0  0  0  0  0  0  0  0  0  0
  146.0713  160.6434  132.6543 H   0  0  0  0  0  0  0  0  0  0  0  0
  145.1244  159.1169  132.6543 H   0  0  0  0  0  0  0  0  0  0  0  0
  148.6395  160.4230  132.2584 H   0  0  0  0  0  0  0  0  0  0  0  0
  148.7076  159.1771  130.9661 H   0  0  0  0  0  0  0  0  0  0  0  0
  147.3920  160.4001  130.9661 H   0  0  0  0  0  0  0  0  0  0  0  0
  149.0232  158.0475  133.0712 H   0  0  0  0  0  0  0  0  0  0  0  0
  147.8817  158.6654  134.3736 H   0  0  0  0  0  0  0  0  0  0  0  0
  148.2815  155.9712  133.4839 H   0  0  0  0  0  0  0  0  0  0  0  0
  147.1573  156.6296  134.7489 H   0  0  0  0  0  0  0  0  0  0  0  0
  145.9310  157.0660  132.2070 H   0  0  0  0  0  0  0  0  0  0  0  0
  147.4941  153.8969  132.5730 H   0  0  0  0  0  0  0  0  0  0  0  0
  146.3203  151.6722  132.6080 H   0  0  0  0  0  0  0  0  0  0  0  0
  143.7485  150.4619  132.8614 H   0  0  0  0  0  0  0  0  0  0  0  0
  139.8150  152.3430  131.9190 H   0  0  0  0  0  0  0  0  0  0  0  0
  138.9990  150.9600  132.7200 H   0  0  0  0  0  0  0  0  0  0  0  0
  143.6794  155.9142  133.2056 H   0  0  0  0  0  0  0  0  0  0  0  0
  1  2  1  0
  2  3  1  0
  2  4  1  0
  4  5  1  0
  5  6  1  0
  6  7  1  0
  7  8  2  0
  8  9  1  0
  9 10  2  0
 10 11  1  0
 11 12  2  0
 12 13  1  0
 13 14  1  0
 13 15  2  0
 12 16  1  0
 16 17  1  0
 17 18  2  0
 17 19  1  0
 16 20  1  0
 20 21  2  0
 21  7  1  0
 20 10  1  0
  1 22  1  0
  1 23  1  0
  1 24  1  0
  3 25  1  0
  3 26  1  0
  3 27  1  0
  4 28  1  0
  4 29  1  0
  5 30  1  0
  5 31  1  0
  6 32  1  0
  8 33  1  0
  9 34  1  0
 11 35  1  0
 14 36  1  0
 14 37  1  0
 21 38  1  0
M  CHG  1  19  -1
M  END
>  <UniqueID>  (20) 
20

>  <SMILES>  (20) 
CN(C)CCNc1ccc2cc(C(N)=O)n(C(=O)[O-])c2c1

>  <Energy>  (20) 
79.88749170053453

>  <Genealogy>  (20) 
CN(C)CCNc1ccc2cc(C(N)=O)n(C(=O)[O-])c2c1 (protonated)
CN(C)CCNc1ccc2cc(C(N)=O)n(C(=O)[O-])c2c1 (3D coordinates assigned)
CN(C)CCNc1ccc2cc(C(N)=O)n(C(=O)[O-])c2c1 (optimized conformer: 79.88749170053453 kcal/mol)

>  <smiles>  (20) 
CN(C)CCNc1ccc2cc(C(N)=O)n(C(=O)O)c2c1

>  <score_type>  (20) 
oracle

>  <origin>  (20) 
adg

>  <m_score__min__energy>  (20) 
-6.54

>  <m_primary>  (20) 
energy

$$$$
20:0
     RDKit          3D

 43 45  0  0  0  0  0  0  0  0999 V2000
  141.5600  152.2080  133.2690 N   0  0  0  0  0  0  0  0  0  0  0  0
  142.2310  153.1460  133.1720 C   0  0  0  0  0  0  0  0  0  0  0  0
  143.0820  154.3360  133.0500 C   0  0  0  0  0  0  0  0  0  0  0  0
  142.6030  155.3740  133.9000 O   0  0  0  0  0  0  0  0  0  0  0  0
  141.5180  156.1960  133.5740 C   0  0  0  0  0  0  0  0  0  0  0  0
  140.4900  155.7090  133.0290 O   0  0  0  0  0  0  0  0  0  0  0  0
  141.5660  157.5980  133.8850 N   0  0  0  0  0  0  0  0  0  0  0  0
  140.5320  158.4030  134.2630 C   0  0  0  0  0  0  0  0  0  0  0  0
  139.1600  157.9590  134.5840 C   0  0  0  0  0  0  0  0  0  0  0  0
  138.2980  157.5070  133.5430 N   0  0  0  0  0  0  0  0  0  0  0  0
  138.7260  158.0100  135.7650 O   0  0  0  0  0  0  0  0  0  0  0  0
  140.9620  159.7220  134.3900 C   0  0  0  0  0  0  0  0  0  0  0  0
  142.3030  159.7000  134.0820 C   0  0  0  0  0  0  0  0  0  0  0  0
  143.2270  160.7390  134.0340 C   0  0  0  0  0  0  0  0  0  0  0  0
  144.5430  160.4320  133.6530 C   0  0  0  0  0  0  0  0  0  0  0  0
  144.9150  159.1020  133.3220 C   0  0  0  0  0  0  0  0  0  0  0  0
  146.2650  158.8030  132.9070 N   0  0  0  0  0  0  0  0  0  0  0  0
  147.2180  159.8980  132.6560 C   0  0  0  0  0  0  0  0  0  0  0  0
  148.5690  159.6840  133.3780 C   0  0  0  0  0  0  0  0  0  0  0  0
  149.5610  158.7710  132.6310 C   0  0  0  0  0  0  0  0  0  0  0  0
  149.1750  157.3490  132.6170 N   0  0  0  0  0  0  0  0  0  0  0  0
  147.9680  157.0070  133.3930 C   0  0  0  0  0  0  0  0  0  0  0  0
  146.6530  157.3960  132.6900 C   0  0  0  0  0  0  0  0  0  0  0  0
  143.9420  158.0770  133.3790 C   0  0  0  0  0  0  0  0  0  0  0  0
  142.6430  158.4080  133.7800 C   0  0  0  0  0  0  0  0  0  0  0  0
  144.1117  154.0771  133.3378 H   0  0  0  0  0  0  0  0  0  0  0  0
  143.0597  154.6872  132.0078 H   0  0  0  0  0  0  0  0  0  0  0  0
  138.5120  156.6330  133.0110 H   0  0  0  0  0  0  0  0  0  0  0  0
  140.3578  160.5956  134.6758 H   0  0  0  0  0  0  0  0  0  0  0  0
  142.9355  161.7691  134.2867 H   0  0  0  0  0  0  0  0  0  0  0  0
  145.2962  161.2326  133.6103 H   0  0  0  0  0  0  0  0  0  0  0  0
  147.4029  159.9637  131.5736 H   0  0  0  0  0  0  0  0  0  0  0  0
  146.7730  160.8248  133.0471 H   0  0  0  0  0  0  0  0  0  0  0  0
  149.0439  160.6667  133.5145 H   0  0  0  0  0  0  0  0  0  0  0  0
  148.3372  159.1796  134.3277 H   0  0  0  0  0  0  0  0  0  0  0  0
  149.6349  159.1193  131.5902 H   0  0  0  0  0  0  0  0  0  0  0  0
  150.5184  158.8350  133.1689 H   0  0  0  0  0  0  0  0  0  0  0  0
  149.9710  156.7890  133.0020 H   0  0  0  0  0  0  0  0  0  0  0  0
  147.9619  155.9207  133.5661 H   0  0  0  0  0  0  0  0  0  0  0  0
  148.0143  157.5794  134.3312 H   0  0  0  0  0  0  0  0  0  0  0  0
  146.7735  157.2305  131.6092 H   0  0  0  0  0  0  0  0  0  0  0  0
  145.8576  156.7702  133.1210 H   0  0  0  0  0  0  0  0  0  0  0  0
  144.2011  157.0414  133.1136 H   0  0  0  0  0  0  0  0  0  0  0  0
  1  2  3  0
  2  3  1  0
  3  4  1  0
  4  5  1  0
  5  6  2  0
  5  7  1  0
  7  8  1  0
  8  9  1  0
  9 10  1  0
  9 11  2  0
  8 12  2  0
 12 13  1  0
 13 14  2  0
 14 15  1  0
 15 16  2  0
 16 17  1  0
 17 18  1  0
 18 19  1  0
 19 20  1  0
 20 21  1  0
 21 22  1  0
 22 23  1  0
 16 24  1  0
 24 25  2  0
 25  7  1  0
 25 13  1  0
 23 17  1  0
  3 26  1  0
  3 27  1  0
 10 28  1  0
 12 29  1  0
 14 30  1  0
 15 31  1  0
 18 32  1  0
 18 33  1  0
 19 34  1  0
 19 35  1  0
 20 36  1  0
 20 37  1  0
 21 38  1  0
 22 39  1  0
 22 40  1  0
 23 41  1  0
 23 42  1  0
 24 43  1  0
M  CHG  1  10  -1
M  END
>  <UniqueID>  (21) 
21

>  <SMILES>  (21) 
N#CCOC(=O)n1c(C([NH-])=O)cc2ccc(N3CCCNCC3)cc21

>  <Energy>  (21) 
93.37950736323857

>  <Genealogy>  (21) 
N#CCOC(=O)n1c(C([NH-])=O)cc2ccc(N3CCCNCC3)cc21 (protonated)
N#CCOC(=O)n1c(C([NH-])=O)cc2ccc(N3CCCNCC3)cc21 (3D coordinates assigned)
N#CCOC(=O)n1c(C([NH-])=O)cc2ccc(N3CCCNCC3)cc21 (nonaromatic ring conformer: 93.37950736323857 kcal/mol)

>  <smiles>  (21) 
N#CCOC(=O)n1c(C(N)=O)cc2ccc(N3CCCNCC3)cc21

>  <score_type>  (21) 
oracle

>  <origin>  (21) 
adg

>  <m_score__min__energy>  (21) 
-5.5800000000000001

>  <m_primary>  (21) 
energy

$$$$
21:0
     RDKit          3D

 47 48  0  0  0  0  0  0  0  0999 V2000
  149.6030  161.6360  130.5560 C   0  0  0  0  0  0  0  0  0  0  0  0
  148.9950  160.3200  130.8160 N   0  0  0  0  0  0  0  0  0  0  0  0
  149.1960  159.4470  129.6500 C   0  0  0  0  0  0  0  0  0  0  0  0
  149.5720  159.6980  132.0290 C   0  0  0  0  0  0  0  0  0  0  0  0
  148.4690  159.3550  133.0380 C   0  0  0  0  0  0  0  0  0  0  0  0
  147.2630  160.1420  132.7770 N   0  0  0  0  0  0  0  0  0  0  0  0
  145.9420  159.7870  133.2360 C   0  0  0  0  0  0  0  0  0  0  0  0
  145.0740  160.8120  133.6900 C   0  0  0  0  0  0  0  0  0  0  0  0
  143.7720  160.5150  134.1320 C   0  0  0  0  0  0  0  0  0  0  0  0
  143.3650  159.1850  134.1070 C   0  0  0  0  0  0  0  0  0  0  0  0
  142.1670  158.6120  134.4800 C   0  0  0  0  0  0  0  0  0  0  0  0
  142.3240  157.2450  134.2440 C   0  0  0  0  0  0  0  0  0  0  0  0
  141.2740  156.2360  134.4960 C   0  0  0  0  0  0  0  0  0  0  0  0
  140.8320  155.3630  133.4600 N   0  0  0  0  0  0  0  0  0  0  0  0
  140.7510  156.1490  135.6390 O   0  0  0  0  0  0  0  0  0  0  0  0
  143.5630  156.9920  133.7430 N   0  0  0  0  0  0  0  0  0  0  0  0
  144.1400  155.7210  133.4190 C   0  0  0  0  0  0  0  0  0  0  0  0
  143.5670  154.9890  132.5680 O   0  0  0  0  0  0  0  0  0  0  0  0
  145.3510  155.2750  134.0610 N   0  0  0  0  0  0  0  0  0  0  0  0
  146.5950  155.2300  133.2890 C   0  0  0  0  0  0  0  0  0  0  0  0
  145.3480  154.8560  135.4690 C   0  0  0  0  0  0  0  0  0  0  0  0
  146.7330  154.5120  135.9180 C   0  0  0  0  0  0  0  0  0  0  0  0
  146.9860  153.3660  136.3720 O   0  0  0  0  0  0  0  0  0  0  0  0
  147.7410  155.4670  135.8620 O   0  0  0  0  0  0  0  0  0  0  0  0
  144.1880  158.1840  133.6710 C   0  0  0  0  0  0  0  0  0  0  0  0
  145.4880  158.4450  133.2320 C   0  0  0  0  0  0  0  0  0  0  0  0
  149.8311  162.1298  131.5121 H   0  0  0  0  0  0  0  0  0  0  0  0
  150.5313  161.5038  129.9809 H   0  0  0  0  0  0  0  0  0  0  0  0
  148.9006  162.2572  129.9809 H   0  0  0  0  0  0  0  0  0  0  0  0
  149.4306  158.4279  129.9911 H   0  0  0  0  0  0  0  0  0  0  0  0
  148.2786  159.4285  129.0433 H   0  0  0  0  0  0  0  0  0  0  0  0
  150.0291  159.8315  129.0433 H   0  0  0  0  0  0  0  0  0  0  0  0
  150.1016  158.7765  131.7455 H   0  0  0  0  0  0  0  0  0  0  0  0
  150.2690  160.4102  132.4948 H   0  0  0  0  0  0  0  0  0  0  0  0
  148.2261  158.2852  132.9570 H   0  0  0  0  0  0  0  0  0  0  0  0
  148.8312  159.5898  134.0498 H   0  0  0  0  0  0  0  0  0  0  0  0
  147.3660  160.9810  132.1620 H   0  0  0  0  0  0  0  0  0  0  0  0
  145.4239  161.8549  133.6967 H   0  0  0  0  0  0  0  0  0  0  0  0
  143.0976  161.3087  134.4859 H   0  0  0  0  0  0  0  0  0  0  0  0
  141.2780  159.1229  134.8783 H   0  0  0  0  0  0  0  0  0  0  0  0
  141.4080  155.2080  132.6030 H   0  0  0  0  0  0  0  0  0  0  0  0
  147.4526  155.1990  133.9771 H   0  0  0  0  0  0  0  0  0  0  0  0
  146.6008  154.3311  132.6551 H   0  0  0  0  0  0  0  0  0  0  0  0
  146.6658  156.1262  132.6551 H   0  0  0  0  0  0  0  0  0  0  0  0
  144.9600  155.6770  136.0898 H   0  0  0  0  0  0  0  0  0  0  0  0
  144.7097  153.9662  135.5733 H   0  0  0  0  0  0  0  0  0  0  0  0
  146.1428  157.6292  132.8918 H   0  0  0  0  0  0  0  0  0  0  0  0
  1  2  1  0
  2  3  1  0
  2  4  1  0
  4  5  1  0
  5  6  1  0
  6  7  1  0
  7  8  2  0
  8  9  1  0
  9 10  2  0
 10 11  1  0
 11 12  2  0
 12 13  1  0
 13 14  1  0
 13 15  2  0
 12 16  1  0
 16 17  1  0
 17 18  2  0
 17 19  1  0
 19 20  1  0
 19 21  1  0
 21 22  1  0
 22 23  2  0
 22 24  1  0
 16 25  1  0
 25 26  2  0
 26  7  1  0
 25 10  1  0
  1 27  1  0
  1 28  1  0
  1 29  1  0
  3 30  1  0
  3 31  1  0
  3 32  1  0
  4 33  1  0
  4 34  1  0
  5 35  1  0
  5 36  1  0
  6 37  1  0
  8 38  1  0
  9 39  1  0
 11 40  1  0
 14 41  1  0
 20 42  1  0
 20 43  1  0
 20 44  1  0
 21 45  1  0
 21 46  1  0
 26 47  1  0
M  CHG  2  14  -1  24  -1
M  END
>  <UniqueID>  (22) 
22

>  <SMILES>  (22) 
CN(C)CCNc1ccc2cc(C([NH-])=O)n(C(=O)N(C)CC(=O)[O-])c2c1

>  <Energy>  (22) 
80.94509470145182

>  <Genealogy>  (22) 
CN(C)CCNc1ccc2cc(C([NH-])=O)n(C(=O)N(C)CC(=O)[O-])c2c1 (protonated)
CN(C)CCNc1ccc2cc(C([NH-])=O)n(C(=O)N(C)CC(=O)[O-])c2c1 (3D coordinates assigned)
CN(C)CCNc1ccc2cc(C([NH-])=O)n(C(=O)N(C)CC(=O)[O-])c2c1 (optimized conformer: 80.94509470145182 kcal/mol)

>  <smiles>  (22) 
CN(C)CCNc1ccc2cc(C(N)=O)n(C(=O)N(C)CC(=O)O)c2c1

>  <score_type>  (22) 
oracle

>  <origin>  (22) 
adg

>  <m_score__min__energy>  (22) 
-6.9400000000000004

>  <m_primary>  (22) 
energy

$$$$
22:0
     RDKit          3D

 35 36  0  0  0  0  0  0  0  0999 V2000
  143.0200  161.2460  133.6770 N   0  0  0  0  0  0  0  0  0  0  0  0
  144.4290  161.4390  133.7600 C   0  0  0  0  0  0  0  0  0  0  0  0
  144.8790  162.5750  134.0660 O   0  0  0  0  0  0  0  0  0  0  0  0
  145.3640  160.3150  133.5440 C   0  0  0  0  0  0  0  0  0  0  0  0
  146.7350  160.4820  133.3610 C   0  0  0  0  0  0  0  0  0  0  0  0
  147.2490  159.2070  133.2770 C   0  0  0  0  0  0  0  0  0  0  0  0
  148.5570  158.7810  133.0640 C   0  0  0  0  0  0  0  0  0  0  0  0
  148.7940  157.3990  132.9760 C   0  0  0  0  0  0  0  0  0  0  0  0
  147.7300  156.4700  133.1100 C   0  0  0  0  0  0  0  0  0  0  0  0
  147.9870  154.9940  132.9480 C   0  0  0  0  0  0  0  0  0  0  0  0
  146.9330  154.4200  132.2620 F   0  0  0  0  0  0  0  0  0  0  0  0
  148.1090  154.3810  134.1830 F   0  0  0  0  0  0  0  0  0  0  0  0
  149.1560  154.7760  132.2400 F   0  0  0  0  0  0  0  0  0  0  0  0
  146.4100  156.9450  133.2990 C   0  0  0  0  0  0  0  0  0  0  0  0
  146.2070  158.3260  133.4030 C   0  0  0  0  0  0  0  0  0  0  0  0
  145.0430  158.9910  133.5670 N   0  0  0  0  0  0  0  0  0  0  0  0
  143.7330  158.4060  133.6320 C   0  0  0  0  0  0  0  0  0  0  0  0
  143.2400  157.8590  132.6080 O   0  0  0  0  0  0  0  0  0  0  0  0
  143.0040  158.4720  134.8240 O   0  0  0  0  0  0  0  0  0  0  0  0
  141.7510  157.8180  135.0250 C   0  0  0  0  0  0  0  0  0  0  0  0
  140.5870  158.8080  134.9040 C   0  0  0  0  0  0  0  0  0  0  0  0
  140.0730  158.9410  133.4660 C   0  0  0  0  0  0  0  0  0  0  0  0
  141.0560  159.5250  132.6550 O   0  0  0  0  0  0  0  0  0  0  0  0
  142.5910  160.3180  133.8890 H   0  0  0  0  0  0  0  0  0  0  0  0
  147.2890  161.4302  133.2972 H   0  0  0  0  0  0  0  0  0  0  0  0
  149.3800  159.5044  132.9675 H   0  0  0  0  0  0  0  0  0  0  0  0
  149.8165  157.0329  132.8012 H   0  0  0  0  0  0  0  0  0  0  0  0
  145.5637  156.2453  133.3626 H   0  0  0  0  0  0  0  0  0  0  0  0
  141.6319  157.0290  134.2679 H   0  0  0  0  0  0  0  0  0  0  0  0
  141.7398  157.3870  136.0370 H   0  0  0  0  0  0  0  0  0  0  0  0
  139.7614  158.4607  135.5425 H   0  0  0  0  0  0  0  0  0  0  0  0
  140.9556  159.7955  135.2186 H   0  0  0  0  0  0  0  0  0  0  0  0
  139.8242  157.9434  133.0749 H   0  0  0  0  0  0  0  0  0  0  0  0
  139.1770  159.5790  133.4616 H   0  0  0  0  0  0  0  0  0  0  0  0
  141.9080  159.4770  133.1620 H   0  0  0  0  0  0  0  0  0  0  0  0
  1  2  1  0
  2  3  2  0
  2  4  1  0
  4  5  2  0
  5  6  1  0
  6  7  2  0
  7  8  1  0
  8  9  2  0
  9 10  1  0
 10 11  1  0
 10 12  1  0
 10 13  1  0
  9 14  1  0
 14 15  2  0
 15 16  1  0
 16 17  1  0
 17 18  2  0
 17 19  1  0
 19 20  1  0
 20 21  1  0
 21 22  1  0
 22 23  1  0
 16  4  1  0
 15  6  1  0
  1 24  1  0
  5 25  1  0
  7 26  1  0
  8 27  1  0
 14 28  1  0
 20 29  1  0
 20 30  1  0
 21 31  1  0
 21 32  1  0
 22 33  1  0
 22 34  1  0
 23 35  1  0
M  CHG  1   1  -1
M  END
>  <UniqueID>  (23) 
23

>  <SMILES>  (23) 
[NH-]C(=O)c1cc2ccc(C(F)(F)F)cc2n1C(=O)OCCCO

>  <Energy>  (23) 
70.36165328045871

>  <Genealogy>  (23) 
[NH-]C(=O)c1cc2ccc(C(F)(F)F)cc2n1C(=O)OCCCO (protonated)
[NH-]C(=O)c1cc2ccc(C(F)(F)F)cc2n1C(=O)OCCCO (3D coordinates assigned)
[NH-]C(=O)c1cc2ccc(C(F)(F)F)cc2n1C(=O)OCCCO (optimized conformer: 70.36165328045871 kcal/mol)

>  <smiles>  (23) 
NC(=O)c1cc2ccc(C(F)(F)F)cc2n1C(=O)OCCCO

>  <score_type>  (23) 
oracle

>  <origin>  (23) 
adg

>  <m_score__min__energy>  (23) 
-5.1299999999999999

>  <m_primary>  (23) 
energy

$$$$
23:0
     RDKit          3D

 38 39  0  0  0  0  0  0  0  0999 V2000
  140.6780  158.8300  136.8440 C   0  0  0  0  0  0  0  0  0  0  0  0
  140.1050  158.5180  135.6760 C   0  0  0  0  0  0  0  0  0  0  0  0
  140.4970  159.1570  134.3600 C   0  0  2  0  0  0  0  0  0  0  0  0
  139.5700  158.7870  133.2290 C   0  0  0  0  0  0  0  0  0  0  0  0
  139.4970  157.5970  132.8160 O   0  0  0  0  0  0  0  0  0  0  0  0
  138.8370  159.8010  132.6010 O   0  0  0  0  0  0  0  0  0  0  0  0
  137.9760  159.5800  131.4850 C   0  0  0  0  0  0  0  0  0  0  0  0
  138.7430  159.7200  130.1690 C   0  0  0  0  0  0  0  0  0  0  0  0
  140.0990  159.4110  130.3410 O   0  0  0  0  0  0  0  0  0  0  0  0
  141.9540  158.8930  134.0250 C   0  0  0  0  0  0  0  0  0  0  0  0
  142.3380  157.6020  133.5780 C   0  0  0  0  0  0  0  0  0  0  0  0
  143.6700  157.3230  133.2390 C   0  0  0  0  0  0  0  0  0  0  0  0
  144.5990  158.3550  133.3350 C   0  0  0  0  0  0  0  0  0  0  0  0
  145.9510  158.3480  133.0890 C   0  0  0  0  0  0  0  0  0  0  0  0
  146.3810  159.6460  133.3510 C   0  0  0  0  0  0  0  0  0  0  0  0
  147.7790  160.0900  133.1590 C   0  0  0  0  0  0  0  0  0  0  0  0
  148.1080  160.9410  132.0620 N   0  0  0  0  0  0  0  0  0  0  0  0
  148.6840  159.7520  133.9670 O   0  0  0  0  0  0  0  0  0  0  0  0
  145.3360  160.4280  133.7460 N   0  0  0  0  0  0  0  0  0  0  0  0
  145.3920  161.8070  134.1500 C   0  0  0  0  0  0  0  0  0  0  0  0
  144.4710  162.6110  133.8480 O   0  0  0  0  0  0  0  0  0  0  0  0
  144.2490  159.6190  133.7340 C   0  0  0  0  0  0  0  0  0  0  0  0
  142.9290  159.9200  134.0970 C   0  0  0  0  0  0  0  0  0  0  0  0
  140.3502  158.3312  137.7680 H   0  0  0  0  0  0  0  0  0  0  0  0
  141.4769  159.5853  136.8803 H   0  0  0  0  0  0  0  0  0  0  0  0
  139.3089  157.7590  135.6712 H   0  0  0  0  0  0  0  0  0  0  0  0
  140.3854  160.2434  134.4912 H   0  0  0  0  0  0  0  0  0  0  0  0
  137.5545  158.5661  131.5503 H   0  0  0  0  0  0  0  0  0  0  0  0
  137.1729  160.3314  131.5059 H   0  0  0  0  0  0  0  0  0  0  0  0
  138.3096  159.0346  129.4258 H   0  0  0  0  0  0  0  0  0  0  0  0
  138.6625  160.7622  129.8264 H   0  0  0  0  0  0  0  0  0  0  0  0
  140.1620  158.8660  131.1690 H   0  0  0  0  0  0  0  0  0  0  0  0
  141.5802  156.8089  133.4963 H   0  0  0  0  0  0  0  0  0  0  0  0
  143.9715  156.3185  132.9071 H   0  0  0  0  0  0  0  0  0  0  0  0
  146.5636  157.4973  132.7558 H   0  0  0  0  0  0  0  0  0  0  0  0
  147.7740  161.9290  132.0300 H   0  0  0  0  0  0  0  0  0  0  0  0
  146.2536  162.1655  134.7324 H   0  0  0  0  0  0  0  0  0  0  0  0
  142.6552  160.9318  134.4308 H   0  0  0  0  0  0  0  0  0  0  0  0
  1  2  2  0
  2  3  1  0
  3  4  1  0
  4  5  2  0
  4  6  1  0
  6  7  1  0
  7  8  1  0
  8  9  1  0
  3 10  1  0
 10 11  2  0
 11 12  1  0
 12 13  2  0
 13 14  1  0
 14 15  2  0
 15 16  1  0
 16 17  1  0
 16 18  2  0
 15 19  1  0
 19 20  1  0
 20 21  2  0
 19 22  1  0
 22 23  2  0
 23 10  1  0
 22 13  1  0
  1 24  1  0
  1 25  1  0
  2 26  1  0
  3 27  1  1
  7 28  1  0
  7 29  1  0
  8 30  1  0
  8 31  1  0
  9 32  1  0
 11 33  1  0
 12 34  1  0
 14 35  1  0
 17 36  1  0
 20 37  1  0
 23 38  1  0
M  CHG  1  17  -1
M  END
>  <UniqueID>  (24) 
24

>  <SMILES>  (24) 
C=C[C@H](C(=O)OCCO)c1ccc2cc(C([NH-])=O)n(C=O)c2c1

>  <Energy>  (24) 
72.970420378

>  <Genealogy>  (24) 
C=CC(C(=O)OCCO)c1ccc2cc(C([NH-])=O)n(C=O)c2c1 (protonated)
C=C[C@H](C(=O)OCCO)c1ccc2cc(C([NH-])=O)n(C=O)c2c1 (chirality)
C=C[C@H](C(=O)OCCO)c1ccc2cc(C([NH-])=O)n(C=O)c2c1 (3D coordinates assigned)
C=C[C@H](C(=O)OCCO)c1ccc2cc(C([NH-])=O)n(C=O)c2c1 (optimized conformer: 72.970420378 kcal/mol)

>  <smiles>  (24) 
C=CC(C(=O)OCCO)c1ccc2cc(C(N)=O)n(C=O)c2c1

>  <score_type>  (24) 
oracle

>  <origin>  (24) 
adg

>  <m_score__min__energy>  (24) 
-6.1600000000000001

>  <m_primary>  (24) 
energy

$$$$
24:0
     RDKit          3D

 44 46  0  0  0  0  0  0  0  0999 V2000
  145.2520  162.5410  134.1150 N   0  0  0  0  0  0  0  0  0  0  0  0
  144.1880  161.6710  133.7370 C   0  0  0  0  0  0  0  0  0  0  0  0
  143.0890  162.1640  133.3700 O   0  0  0  0  0  0  0  0  0  0  0  0
  144.3760  160.2050  133.7170 C   0  0  0  0  0  0  0  0  0  0  0  0
  143.3800  159.3010  134.0760 C   0  0  0  0  0  0  0  0  0  0  0  0
  143.9150  158.0560  133.8390 C   0  0  0  0  0  0  0  0  0  0  0  0
  143.3640  156.7940  134.0340 C   0  0  0  0  0  0  0  0  0  0  0  0
  144.1570  155.6750  133.7340 C   0  0  0  0  0  0  0  0  0  0  0  0
  145.4840  155.8290  133.2520 C   0  0  0  0  0  0  0  0  0  0  0  0
  146.2950  154.6700  132.9600 N   0  0  0  0  0  0  0  0  0  0  0  0
  145.7030  153.4950  132.3050 C   0  0  0  0  0  0  0  0  0  0  0  0
  146.5180  152.2400  132.6340 C   0  0  0  0  0  0  0  0  0  0  0  0
  147.9370  152.3770  132.2230 N   0  0  0  0  0  0  0  0  0  0  0  0
  148.7400  151.4030  132.9260 C   0  0  0  0  0  0  0  0  0  0  0  0
  148.6960  150.1830  132.6090 O   0  0  0  0  0  0  0  0  0  0  0  0
  149.5910  151.8110  133.9460 O   0  0  0  0  0  0  0  0  0  0  0  0
  148.5020  153.7470  132.3810 C   0  0  0  0  0  0  0  0  0  0  0  0
  147.7070  154.6210  133.3620 C   0  0  0  0  0  0  0  0  0  0  0  0
  146.0060  157.1330  133.0710 C   0  0  0  0  0  0  0  0  0  0  0  0
  145.1870  158.2300  133.3600 C   0  0  0  0  0  0  0  0  0  0  0  0
  145.4870  159.5450  133.2820 N   0  0  0  0  0  0  0  0  0  0  0  0
  146.7550  160.1120  132.9150 C   0  0  0  0  0  0  0  0  0  0  0  0
  147.4020  160.7920  133.7580 O   0  0  0  0  0  0  0  0  0  0  0  0
  147.2440  159.9250  131.6150 O   0  0  0  0  0  0  0  0  0  0  0  0
  148.5130  159.4220  131.2970 C   0  0  0  0  0  0  0  0  0  0  0  0
  148.8560  158.2560  131.6340 O   0  0  0  0  0  0  0  0  0  0  0  0
  149.4470  160.2590  130.4860 C   0  0  0  0  0  0  0  0  0  0  0  0
  149.0330  160.2870  129.1670 F   0  0  0  0  0  0  0  0  0  0  0  0
  149.4720  161.5520  130.9770 F   0  0  0  0  0  0  0  0  0  0  0  0
  150.7190  159.7220  130.5530 F   0  0  0  0  0  0  0  0  0  0  0  0
  146.2000  162.4460  133.6890 H   0  0  0  0  0  0  0  0  0  0  0  0
  142.3781  159.5330  134.4663 H   0  0  0  0  0  0  0  0  0  0  0  0
  142.3377  156.6762  134.4119 H   0  0  0  0  0  0  0  0  0  0  0  0
  143.7448  154.6649  133.8742 H   0  0  0  0  0  0  0  0  0  0  0  0
  144.6708  153.3618  132.6612 H   0  0  0  0  0  0  0  0  0  0  0  0
  145.7070  153.6507  131.2161 H   0  0  0  0  0  0  0  0  0  0  0  0
  146.4777  152.0644  133.7191 H   0  0  0  0  0  0  0  0  0  0  0  0
  146.0827  151.3961  132.0787 H   0  0  0  0  0  0  0  0  0  0  0  0
  147.9880  152.1370  131.2040 H   0  0  0  0  0  0  0  0  0  0  0  0
  149.5347  153.6587  132.7496 H   0  0  0  0  0  0  0  0  0  0  0  0
  148.4544  154.2352  131.3964 H   0  0  0  0  0  0  0  0  0  0  0  0
  147.7833  154.1953  134.3734 H   0  0  0  0  0  0  0  0  0  0  0  0
  148.1204  155.6404  133.3543 H   0  0  0  0  0  0  0  0  0  0  0  0
  147.0347  157.2804  132.7104 H   0  0  0  0  0  0  0  0  0  0  0  0
  1  2  1  0
  2  3  2  0
  2  4  1  0
  4  5  2  0
  5  6  1  0
  6  7  2  0
  7  8  1  0
  8  9  2  0
  9 10  1  0
 10 11  1  0
 11 12  1  0
 12 13  1  0
 13 14  1  0
 14 15  2  0
 14 16  1  0
 13 17  1  0
 17 18  1  0
  9 19  1  0
 19 20  2  0
 20 21  1  0
 21 22  1  0
 22 23  2  0
 22 24  1  0
 24 25  1  0
 25 26  2  0
 25 27  1  0
 27 28  1  0
 27 29  1  0
 27 30  1  0
 21  4  1  0
 20  6  1  0
 18 10  1  0
  1 31  1  0
  5 32  1  0
  7 33  1  0
  8 34  1  0
 11 35  1  0
 11 36  1  0
 12 37  1  0
 12 38  1  0
 13 39  1  0
 17 40  1  0
 17 41  1  0
 18 42  1  0
 18 43  1  0
 19 44  1  0
M  CHG  3   1  -1  13   1  16  -1
M  END
>  <UniqueID>  (25) 
25

>  <SMILES>  (25) 
[NH-]C(=O)c1cc2ccc(N3CC[NH+](C(=O)[O-])CC3)cc2n1C(=O)OC(=O)C(F)(F)F

>  <Energy>  (25) 
95.87656368809529

>  <Genealogy>  (25) 
[NH-]C(=O)c1cc2ccc(N3CC[NH+](C(=O)[O-])CC3)cc2n1C(=O)OC(=O)C(F)(F)F (protonated)
[NH-]C(=O)c1cc2ccc(N3CC[NH+](C(=O)[O-])CC3)cc2n1C(=O)OC(=O)C(F)(F)F (3D coordinates assigned)
[NH-]C(=O)c1cc2ccc(N3CC[NH+](C(=O)[O-])CC3)cc2n1C(=O)OC(=O)C(F)(F)F (nonaromatic ring conformer: 95.87656368809529 kcal/mol)

>  <smiles>  (25) 
NC(=O)c1cc2ccc(N3CCN(C(=O)O)CC3)cc2n1C(=O)OC(=O)C(F)(F)F

>  <score_type>  (25) 
oracle

>  <origin>  (25) 
adg

>  <m_score__min__energy>  (25) 
-6.71

>  <m_primary>  (25) 
energy

$$$$
25:0
     RDKit          3D

 27 28  0  0  0  0  0  0  0  0999 V2000
  138.7320  155.7470  132.9980 N   0  0  0  0  0  0  0  0  0  0  0  0
  140.1230  155.4500  133.1400 C   0  0  0  0  0  0  0  0  0  0  0  0
  140.4950  154.2470  133.1520 O   0  0  0  0  0  0  0  0  0  0  0  0
  141.1140  156.5360  133.3110 C   0  0  0  0  0  0  0  0  0  0  0  0
  142.4910  156.3270  133.3590 C   0  0  0  0  0  0  0  0  0  0  0  0
  143.0480  157.5840  133.4250 C   0  0  0  0  0  0  0  0  0  0  0  0
  144.3840  157.9650  133.5060 C   0  0  0  0  0  0  0  0  0  0  0  0
  144.6730  159.3360  133.5940 C   0  0  0  0  0  0  0  0  0  0  0  0
  143.6290  160.2960  133.5970 C   0  0  0  0  0  0  0  0  0  0  0  0
  143.9510  161.7580  133.7360 C   0  0  0  0  0  0  0  0  0  0  0  0
  145.2720  161.9410  134.4170 C   0  0  0  0  0  0  0  0  0  0  0  0
  145.4700  162.9090  135.1340 O   0  0  0  0  0  0  0  0  0  0  0  0
  142.2840  159.8700  133.5220 C   0  0  0  0  0  0  0  0  0  0  0  0
  142.0260  158.4970  133.4180 C   0  0  0  0  0  0  0  0  0  0  0  0
  140.8300  157.8690  133.3490 N   0  0  0  0  0  0  0  0  0  0  0  0
  139.5310  158.4850  133.3910 C   0  0  0  0  0  0  0  0  0  0  0  0
  139.1670  159.2670  132.4740 O   0  0  0  0  0  0  0  0  0  0  0  0
  138.6710  158.2390  134.4540 O   0  0  0  0  0  0  0  0  0  0  0  0
  138.3920  156.7310  132.9310 H   0  0  0  0  0  0  0  0  0  0  0  0
  138.0370  154.9710  132.9180 H   0  0  0  0  0  0  0  0  0  0  0  0
  143.0202  155.3627  133.3467 H   0  0  0  0  0  0  0  0  0  0  0  0
  145.1887  157.2151  133.5012 H   0  0  0  0  0  0  0  0  0  0  0  0
  145.7193  159.6689  133.6613 H   0  0  0  0  0  0  0  0  0  0  0  0
  143.9921  162.2163  132.7369 H   0  0  0  0  0  0  0  0  0  0  0  0
  143.1686  162.2389  134.3415 H   0  0  0  0  0  0  0  0  0  0  0  0
  146.0697  161.1979  134.2702 H   0  0  0  0  0  0  0  0  0  0  0  0
  141.4599  160.5983  133.5447 H   0  0  0  0  0  0  0  0  0  0  0  0
  1  2  1  0
  2  3  2  0
  2  4  1  0
  4  5  2  0
  5  6  1  0
  6  7  2  0
  7  8  1  0
  8  9  2  0
  9 10  1  0
 10 11  1  0
 11 12  2  0
  9 13  1  0
 13 14  2  0
 14 15  1  0
 15 16  1  0
 16 17  2  0
 16 18  1  0
 15  4  1  0
 14  6  1  0
  1 19  1  0
  1 20  1  0
  5 21  1  0
  7 22  1  0
  8 23  1  0
 10 24  1  0
 10 25  1  0
 11 26  1  0
 13 27  1  0
M  CHG  1  18  -1
M  END
>  <UniqueID>  (26) 
26

>  <SMILES>  (26) 
NC(=O)c1cc2ccc(CC=O)cc2n1C(=O)[O-]

>  <Energy>  (26) 
64.62907333158792

>  <Genealogy>  (26) 
NC(=O)c1cc2ccc(CC=O)cc2n1C(=O)[O-] (protonated)
NC(=O)c1cc2ccc(CC=O)cc2n1C(=O)[O-] (3D coordinates assigned)
NC(=O)c1cc2ccc(CC=O)cc2n1C(=O)[O-] (optimized conformer: 64.62907333158792 kcal/mol)

>  <smiles>  (26) 
NC(=O)c1cc2ccc(CC=O)cc2n1C(=O)O

>  <score_type>  (26) 
oracle

>  <origin>  (26) 
adg

>  <m_score__min__energy>  (26) 
-5.9800000000000004

>  <m_primary>  (26) 
energy

$$$$
26:0
     RDKit          3D

 43 44  0  0  0  0  0  0  0  0999 V2000
  142.1400  154.6270  133.5100 C   0  0  0  0  0  0  0  0  0  0  0  0
  141.2130  155.6700  133.7910 O   0  0  0  0  0  0  0  0  0  0  0  0
  139.8950  155.6490  133.3260 C   0  0  0  0  0  0  0  0  0  0  0  0
  139.3710  154.5770  132.9180 O   0  0  0  0  0  0  0  0  0  0  0  0
  139.1180  156.9260  133.2680 C   0  0  0  0  0  0  0  0  0  0  0  0
  139.9990  158.0650  132.7480 C   0  0  0  0  0  0  0  0  0  0  0  0
  140.3270  159.0600  133.8680 C   0  0  0  0  0  0  0  0  0  0  0  0
  141.7850  159.4340  133.8310 C   0  0  0  0  0  0  0  0  0  0  0  0
  142.1720  160.7950  133.7790 C   0  0  0  0  0  0  0  0  0  0  0  0
  143.5300  161.1520  133.7320 C   0  0  0  0  0  0  0  0  0  0  0  0
  144.4730  160.1270  133.7150 C   0  0  0  0  0  0  0  0  0  0  0  0
  145.8480  160.1910  133.6990 C   0  0  0  0  0  0  0  0  0  0  0  0
  146.2770  158.8670  133.6900 C   0  0  0  0  0  0  0  0  0  0  0  0
  147.6980  158.4730  133.6050 C   0  0  0  0  0  0  0  0  0  0  0  0
  148.2020  157.3580  134.3400 N   0  0  0  0  0  0  0  0  0  0  0  0
  148.4670  159.0990  132.8280 O   0  0  0  0  0  0  0  0  0  0  0  0
  145.2130  158.0150  133.7150 N   0  0  0  0  0  0  0  0  0  0  0  0
  145.2370  156.5820  133.8110 C   0  0  0  0  0  0  0  0  0  0  0  0
  144.9930  155.8780  132.7920 O   0  0  0  0  0  0  0  0  0  0  0  0
  145.5350  155.9730  135.0330 O   0  0  0  0  0  0  0  0  0  0  0  0
  145.6990  154.5670  135.1750 C   0  0  0  0  0  0  0  0  0  0  0  0
  146.9180  154.2960  135.9930 C   0  0  0  0  0  0  0  0  0  0  0  0
  147.8940  155.0910  135.9630 O   0  0  0  0  0  0  0  0  0  0  0  0
  146.9750  153.1650  136.7980 O   0  0  0  0  0  0  0  0  0  0  0  0
  144.1140  158.8040  133.7300 C   0  0  0  0  0  0  0  0  0  0  0  0
  142.7690  158.4210  133.8040 C   0  0  0  0  0  0  0  0  0  0  0  0
  142.5148  154.2053  134.4543 H   0  0  0  0  0  0  0  0  0  0  0  0
  141.6395  153.8382  132.9293 H   0  0  0  0  0  0  0  0  0  0  0  0
  142.9821  155.0315  132.9293 H   0  0  0  0  0  0  0  0  0  0  0  0
  138.2582  156.7966  132.5942 H   0  0  0  0  0  0  0  0  0  0  0  0
  138.7707  157.1781  134.2808 H   0  0  0  0  0  0  0  0  0  0  0  0
  140.9361  157.6443  132.3545 H   0  0  0  0  0  0  0  0  0  0  0  0
  139.4530  158.5969  131.9549 H   0  0  0  0  0  0  0  0  0  0  0  0
  139.7174  159.9662  133.7371 H   0  0  0  0  0  0  0  0  0  0  0  0
  140.1048  158.5902  134.8375 H   0  0  0  0  0  0  0  0  0  0  0  0
  141.4019  161.5805  133.7754 H   0  0  0  0  0  0  0  0  0  0  0  0
  143.8388  162.2075  133.7093 H   0  0  0  0  0  0  0  0  0  0  0  0
  146.4740  161.0955  133.6943 H   0  0  0  0  0  0  0  0  0  0  0  0
  147.5610  156.7160  134.8560 H   0  0  0  0  0  0  0  0  0  0  0  0
  149.2200  157.1250  134.3060 H   0  0  0  0  0  0  0  0  0  0  0  0
  144.8171  154.1424  135.6769 H   0  0  0  0  0  0  0  0  0  0  0  0
  145.8092  154.1053  134.1827 H   0  0  0  0  0  0  0  0  0  0  0  0
  142.4861  157.3586  133.8402 H   0  0  0  0  0  0  0  0  0  0  0  0
  1  2  1  0
  2  3  1  0
  3  4  2  0
  3  5  1  0
  5  6  1  0
  6  7  1  0
  7  8  1  0
  8  9  2  0
  9 10  1  0
 10 11  2  0
 11 12  1  0
 12 13  2  0
 13 14  1  0
 14 15  1  0
 14 16  2  0
 13 17  1  0
 17 18  1  0
 18 19  2  0
 18 20  1  0
 20 21  1  0
 21 22  1  0
 22 23  2  0
 22 24  1  0
 17 25  1  0
 25 26  2  0
 26  8  1  0
 25 11  1  0
  1 27  1  0
  1 28  1  0
  1 29  1  0
  5 30  1  0
  5 31  1  0
  6 32  1  0
  6 33  1  0
  7 34  1  0
  7 35  1  0
  9 36  1  0
 10 37  1  0
 12 38  1  0
 15 39  1  0
 15 40  1  0
 21 41  1  0
 21 42  1  0
 26 43  1  0
M  CHG  1  24  -1
M  END
>  <UniqueID>  (27) 
27

>  <SMILES>  (27) 
COC(=O)CCCc1ccc2cc(C(N)=O)n(C(=O)OCC(=O)[O-])c2c1

>  <Energy>  (27) 
70.49601703996476

>  <Genealogy>  (27) 
COC(=O)CCCc1ccc2cc(C(N)=O)n(C(=O)OCC(=O)[O-])c2c1 (protonated)
COC(=O)CCCc1ccc2cc(C(N)=O)n(C(=O)OCC(=O)[O-])c2c1 (3D coordinates assigned)
COC(=O)CCCc1ccc2cc(C(N)=O)n(C(=O)OCC(=O)[O-])c2c1 (optimized conformer: 70.49601703996476 kcal/mol)

>  <smiles>  (27) 
COC(=O)CCCc1ccc2cc(C(N)=O)n(C(=O)OCC(=O)O)c2c1

>  <score_type>  (27) 
oracle

>  <origin>  (27) 
adg

>  <m_score__min__energy>  (27) 
-6.9800000000000004

>  <m_primary>  (27) 
energy

$$$$
27:0
     RDKit          3D

 41 44  0  0  0  0  0  0  0  0999 V2000
  139.8780  157.1150  135.2170 N   0  0  0  0  0  0  0  0  0  0  0  0
  140.7010  156.6410  134.1560 C   0  0  0  0  0  0  0  0  0  0  0  0
  140.2260  155.8190  133.3280 O   0  0  0  0  0  0  0  0  0  0  0  0
  142.0870  157.1290  133.9900 C   0  0  0  0  0  0  0  0  0  0  0  0
  143.1590  156.3060  133.6490 C   0  0  0  0  0  0  0  0  0  0  0  0
  144.2390  157.1500  133.5120 C   0  0  0  0  0  0  0  0  0  0  0  0
  145.5600  156.8710  133.1750 C   0  0  0  0  0  0  0  0  0  0  0  0
  146.4640  157.9460  133.1130 C   0  0  0  0  0  0  0  0  0  0  0  0
  146.0370  159.2660  133.4030 C   0  0  0  0  0  0  0  0  0  0  0  0
  147.0030  160.4120  133.2960 C   0  0  0  0  0  0  0  0  0  0  0  0
  148.0740  160.0730  132.3630 N   0  0  0  0  0  0  0  0  0  0  0  0
  148.1030  160.3220  131.0440 C   0  0  0  0  0  0  0  0  0  0  0  0
  149.2520  159.7590  130.5360 C   0  0  0  0  0  0  0  0  0  0  0  0
  149.9350  159.1480  131.5270 N   0  0  0  0  0  0  0  0  0  0  0  0
  149.1820  159.3560  132.6280 C   0  0  0  0  0  0  0  0  0  0  0  0
  144.6850  159.5110  133.7270 C   0  0  0  0  0  0  0  0  0  0  0  0
  143.8070  158.4240  133.7700 C   0  0  0  0  0  0  0  0  0  0  0  0
  142.4920  158.4280  134.0710 N   0  0  0  0  0  0  0  0  0  0  0  0
  141.7200  159.5780  134.4470 C   0  0  0  0  0  0  0  0  0  0  0  0
  141.2660  159.6660  135.6190 O   0  0  0  0  0  0  0  0  0  0  0  0
  141.4080  160.6280  133.4660 C   0  0  0  0  0  0  0  0  0  0  0  0
  142.1600  161.6340  133.3580 O   0  0  0  0  0  0  0  0  0  0  0  0
  140.2590  160.4980  132.6260 N   0  0  0  0  0  0  0  0  0  0  0  0
  140.0190  159.3120  131.8140 C   0  0  0  0  0  0  0  0  0  0  0  0
  138.6930  158.6370  132.1030 C   0  0  0  0  0  0  0  0  0  0  0  0
  138.8620  159.4810  130.8480 C   0  0  0  0  0  0  0  0  0  0  0  0
  139.7610  158.1380  135.3910 H   0  0  0  0  0  0  0  0  0  0  0  0
  143.1454  155.2140  133.5172 H   0  0  0  0  0  0  0  0  0  0  0  0
  145.8866  155.8420  132.9638 H   0  0  0  0  0  0  0  0  0  0  0  0
  147.5126  157.7609  132.8368 H   0  0  0  0  0  0  0  0  0  0  0  0
  146.4718  161.3043  132.9331 H   0  0  0  0  0  0  0  0  0  0  0  0
  147.4360  160.6147  134.2867 H   0  0  0  0  0  0  0  0  0  0  0  0
  147.3446  160.8765  130.4718 H   0  0  0  0  0  0  0  0  0  0  0  0
  149.5658  159.8007  129.4825 H   0  0  0  0  0  0  0  0  0  0  0  0
  149.4443  158.9819  133.6286 H   0  0  0  0  0  0  0  0  0  0  0  0
  144.3316  160.5307  133.9401 H   0  0  0  0  0  0  0  0  0  0  0  0
  141.0622  158.9721  131.7354 H   0  0  0  0  0  0  0  0  0  0  0  0
  138.6031  157.5436  132.0228 H   0  0  0  0  0  0  0  0  0  0  0  0
  137.9900  158.6324  132.9491 H   0  0  0  0  0  0  0  0  0  0  0  0
  138.8946  158.9981  129.8602 H   0  0  0  0  0  0  0  0  0  0  0  0
  138.3323  160.3398  130.4100 H   0  0  0  0  0  0  0  0  0  0  0  0
  1  2  1  0
  2  3  2  0
  2  4  1  0
  4  5  2  0
  5  6  1  0
  6  7  2  0
  7  8  1  0
  8  9  2  0
  9 10  1  0
 10 11  1  0
 11 12  1  0
 12 13  2  0
 13 14  1  0
 14 15  2  0
  9 16  1  0
 16 17  2  0
 17 18  1  0
 18 19  1  0
 19 20  2  0
 19 21  1  0
 21 22  2  0
 21 23  1  0
 23 24  1  0
 24 25  1  0
 25 26  1  0
 18  4  1  0
 26 24  1  0
 17  6  1  0
 15 11  1  0
  1 27  1  0
  5 28  1  0
  7 29  1  0
  8 30  1  0
 10 31  1  0
 10 32  1  0
 12 33  1  0
 13 34  1  0
 15 35  1  0
 16 36  1  0
 24 37  1  0
 25 38  1  0
 25 39  1  0
 26 40  1  0
 26 41  1  0
M  CHG  2   1  -1  23  -1
M  END
>  <UniqueID>  (28) 
28

>  <SMILES>  (28) 
[NH-]C(=O)c1cc2ccc(Cn3ccnc3)cc2n1C(=O)C(=O)[N-]C1CC1

>  <Energy>  (28) 
373.7342571936186

>  <Genealogy>  (28) 
[NH-]C(=O)c1cc2ccc(Cn3ccnc3)cc2n1C(=O)C(=O)[N-]C1CC1 (protonated)
[NH-]C(=O)c1cc2ccc(Cn3ccnc3)cc2n1C(=O)C(=O)[N-]C1CC1 (3D coordinates assigned)
[NH-]C(=O)c1cc2ccc(Cn3ccnc3)cc2n1C(=O)C(=O)[N-]C1CC1 (nonaromatic ring conformer: 373.7342571936186 kcal/mol)

>  <smiles>  (28) 
NC(=O)c1cc2ccc(Cn3ccnc3)cc2n1C(=O)C(=O)NC1CC1

>  <score_type>  (28) 
oracle

>  <origin>  (28) 
adg

>  <m_score__min__energy>  (28) 
-7.6100000000000003

>  <m_primary>  (28) 
energy

$$$$
28:0
     RDKit          3D

 35 36  0  0  0  0  0  0  0  0999 V2000
  147.9410  152.0390  132.5990 C   0  0  0  0  0  0  0  0  0  0  0  0
  148.0090  153.5030  132.4650 N   0  0  0  0  0  0  0  0  0  0  0  0
  149.3810  153.9850  132.6890 C   0  0  0  0  0  0  0  0  0  0  0  0
  147.0960  154.1350  133.3990 C   0  0  0  0  0  0  0  0  0  0  0  0
  147.2670  154.0160  134.6060 O   0  0  0  0  0  0  0  0  0  0  0  0
  145.9420  154.9660  132.9060 C   0  0  0  0  0  0  0  0  0  0  0  0
  146.2610  156.4270  133.0620 C   0  0  0  0  0  0  0  0  0  0  0  0
  147.5580  156.9080  132.7550 C   0  0  0  0  0  0  0  0  0  0  0  0
  147.8500  158.2800  132.8460 C   0  0  0  0  0  0  0  0  0  0  0  0
  146.8310  159.1400  133.2420 C   0  0  0  0  0  0  0  0  0  0  0  0
  146.8320  160.5100  133.3760 C   0  0  0  0  0  0  0  0  0  0  0  0
  145.5390  160.8420  133.7750 C   0  0  0  0  0  0  0  0  0  0  0  0
  145.1240  162.2200  134.1130 C   0  0  0  0  0  0  0  0  0  0  0  0
  145.9560  163.0630  134.9060 N   0  0  0  0  0  0  0  0  0  0  0  0
  144.0420  162.6750  133.6560 O   0  0  0  0  0  0  0  0  0  0  0  0
  144.7650  159.7230  133.8760 N   0  0  0  0  0  0  0  0  0  0  0  0
  143.3610  159.6440  134.1720 C   0  0  0  0  0  0  0  0  0  0  0  0
  142.5270  160.2880  133.4830 O   0  0  0  0  0  0  0  0  0  0  0  0
  142.9080  158.8330  135.2060 O   0  0  0  0  0  0  0  0  0  0  0  0
  145.5720  158.6900  133.5500 C   0  0  0  0  0  0  0  0  0  0  0  0
  145.2490  157.3310  133.4520 C   0  0  0  0  0  0  0  0  0  0  0  0
  147.9284  151.7686  133.6652 H   0  0  0  0  0  0  0  0  0  0  0  0
  147.0247  151.6688  132.1160 H   0  0  0  0  0  0  0  0  0  0  0  0
  148.8190  151.5854  132.1160 H   0  0  0  0  0  0  0  0  0  0  0  0
  147.7400  153.7500  131.4840 H   0  0  0  0  0  0  0  0  0  0  0  0
  149.5739  154.0528  133.7698 H   0  0  0  0  0  0  0  0  0  0  0  0
  150.0951  153.2839  132.2323 H   0  0  0  0  0  0  0  0  0  0  0  0
  149.4997  154.9787  132.2323 H   0  0  0  0  0  0  0  0  0  0  0  0
  145.7596  154.7437  131.8443 H   0  0  0  0  0  0  0  0  0  0  0  0
  145.0447  154.7260  133.4952 H   0  0  0  0  0  0  0  0  0  0  0  0
  148.3422  156.2025  132.4432 H   0  0  0  0  0  0  0  0  0  0  0  0
  148.8544  158.6621  132.6110 H   0  0  0  0  0  0  0  0  0  0  0  0
  147.6743  161.1965  133.2046 H   0  0  0  0  0  0  0  0  0  0  0  0
  146.9950  163.0450  134.7980 H   0  0  0  0  0  0  0  0  0  0  0  0
  144.2316  156.9764  133.6735 H   0  0  0  0  0  0  0  0  0  0  0  0
  1  2  1  0
  2  3  1  0
  2  4  1  0
  4  5  2  0
  4  6  1  0
  6  7  1  0
  7  8  2  0
  8  9  1  0
  9 10  2  0
 10 11  1  0
 11 12  2  0
 12 13  1  0
 13 14  1  0
 13 15  2  0
 12 16  1  0
 16 17  1  0
 17 18  2  0
 17 19  1  0
 16 20  1  0
 20 21  2  0
 21  7  1  0
 20 10  1  0
  1 22  1  0
  1 23  1  0
  1 24  1  0
  2 25  1  0
  3 26  1  0
  3 27  1  0
  3 28  1  0
  6 29  1  0
  6 30  1  0
  8 31  1  0
  9 32  1  0
 11 33  1  0
 14 34  1  0
 21 35  1  0
M  CHG  3   2   1  14  -1  19  -1
M  END
>  <UniqueID>  (29) 
29

>  <SMILES>  (29) 
C[NH+](C)C(=O)Cc1ccc2cc(C([NH-])=O)n(C(=O)[O-])c2c1

>  <Energy>  (29) 
72.10013442106687

>  <Genealogy>  (29) 
C[NH+](C)C(=O)Cc1ccc2cc(C([NH-])=O)n(C(=O)[O-])c2c1 (protonated)
C[NH+](C)C(=O)Cc1ccc2cc(C([NH-])=O)n(C(=O)[O-])c2c1 (3D coordinates assigned)
C[NH+](C)C(=O)Cc1ccc2cc(C([NH-])=O)n(C(=O)[O-])c2c1 (optimized conformer: 72.10013442106687 kcal/mol)

>  <smiles>  (29) 
CN(C)C(=O)Cc1ccc2cc(C(N)=O)n(C(=O)O)c2c1

>  <score_type>  (29) 
oracle

>  <origin>  (29) 
adg

>  <m_score__min__energy>  (29) 
-6.4900000000000002

>  <m_primary>  (29) 
energy

$$$$
29:0
     RDKit          3D

 30 32  0  0  0  0  0  0  0  0999 V2000
  140.3860  159.1630  136.2830 N   0  0  0  0  0  0  0  0  0  0  0  0
  140.7240  158.7520  134.9610 C   0  0  0  0  0  0  0  0  0  0  0  0
  139.8100  158.6270  134.1030 O   0  0  0  0  0  0  0  0  0  0  0  0
  142.1310  158.5310  134.5700 C   0  0  0  0  0  0  0  0  0  0  0  0
  142.7790  157.3040  134.7030 C   0  0  0  0  0  0  0  0  0  0  0  0
  144.0230  157.4870  134.1470 C   0  0  0  0  0  0  0  0  0  0  0  0
  145.0840  156.5970  134.0170 C   0  0  0  0  0  0  0  0  0  0  0  0
  146.2680  157.0640  133.4250 C   0  0  0  0  0  0  0  0  0  0  0  0
  146.3790  158.4070  132.9800 C   0  0  0  0  0  0  0  0  0  0  0  0
  147.6410  158.8930  132.3660 C   0  0  0  0  0  0  0  0  0  0  0  0
  147.6940  160.1480  131.7350 C   0  0  0  0  0  0  0  0  0  0  0  0
  148.8910  160.5870  131.1650 C   0  0  0  0  0  0  0  0  0  0  0  0
  150.0000  159.8040  131.2190 N   0  0  0  0  0  0  0  0  0  0  0  0
  149.9820  158.5870  131.8230 C   0  0  0  0  0  0  0  0  0  0  0  0
  148.8070  158.1090  132.4060 C   0  0  0  0  0  0  0  0  0  0  0  0
  145.2750  159.2820  133.1310 C   0  0  0  0  0  0  0  0  0  0  0  0
  144.1020  158.7830  133.7080 C   0  0  0  0  0  0  0  0  0  0  0  0
  142.9470  159.4390  133.9630 N   0  0  0  0  0  0  0  0  0  0  0  0
  142.6880  160.8330  133.7310 C   0  0  0  0  0  0  0  0  0  0  0  0
  141.5160  161.2350  133.5090 O   0  0  0  0  0  0  0  0  0  0  0  0
  143.7330  161.7480  133.7210 O   0  0  0  0  0  0  0  0  0  0  0  0
  139.4170  159.0410  136.6530 H   0  0  0  0  0  0  0  0  0  0  0  0
  142.3799  156.3847  135.1564 H   0  0  0  0  0  0  0  0  0  0  0  0
  144.9978  155.5580  134.3677 H   0  0  0  0  0  0  0  0  0  0  0  0
  147.1210  156.3800  133.3044 H   0  0  0  0  0  0  0  0  0  0  0  0
  146.7961  160.7819  131.6904 H   0  0  0  0  0  0  0  0  0  0  0  0
  148.9360  161.5689  130.6712 H   0  0  0  0  0  0  0  0  0  0  0  0
  150.8964  157.9763  131.8527 H   0  0  0  0  0  0  0  0  0  0  0  0
  148.7937  157.1234  132.8944 H   0  0  0  0  0  0  0  0  0  0  0  0
  145.3385  160.3298  132.8021 H   0  0  0  0  0  0  0  0  0  0  0  0
  1  2  1  0
  2  3  2  0
  2  4  1  0
  4  5  2  0
  5  6  1  0
  6  7  2  0
  7  8  1  0
  8  9  2  0
  9 10  1  0
 10 11  2  0
 11 12  1  0
 12 13  2  0
 13 14  1  0
 14 15  2  0
  9 16  1  0
 16 17  2  0
 17 18  1  0
 18 19  1  0
 19 20  2  0
 19 21  1  0
 18  4  1  0
 17  6  1  0
 15 10  1  0
  1 22  1  0
  5 23  1  0
  7 24  1  0
  8 25  1  0
 11 26  1  0
 12 27  1  0
 14 28  1  0
 15 29  1  0
 16 30  1  0
M  CHG  2   1  -1  21  -1
M  END
>  <UniqueID>  (30) 
30

>  <SMILES>  (30) 
[NH-]C(=O)c1cc2ccc(-c3ccncc3)cc2n1C(=O)[O-]

>  <Energy>  (30) 
79.04694481255424

>  <Genealogy>  (30) 
[NH-]C(=O)c1cc2ccc(-c3ccncc3)cc2n1C(=O)[O-] (protonated)
[NH-]C(=O)c1cc2ccc(-c3ccncc3)cc2n1C(=O)[O-] (3D coordinates assigned)
[NH-]C(=O)c1cc2ccc(-c3ccncc3)cc2n1C(=O)[O-] (optimized conformer: 79.04694481255424 kcal/mol)

>  <smiles>  (30) 
NC(=O)c1cc2ccc(-c3ccncc3)cc2n1C(=O)O

>  <score_type>  (30) 
oracle

>  <origin>  (30) 
adg

>  <m_score__min__energy>  (30) 
-7.0800000000000001

>  <m_primary>  (30) 
energy

$$$$
30:0
     RDKit          3D

 39 41  0  0  0  0  0  0  0  0999 V2000
  139.8740  154.8840  132.9850 C   0  0  0  0  0  0  0  0  0  0  0  0
  140.4950  156.1630  132.9770 O   0  0  0  0  0  0  0  0  0  0  0  0
  141.6810  156.4300  133.6690 C   0  0  0  0  0  0  0  0  0  0  0  0
  142.4730  155.4900  133.9540 O   0  0  0  0  0  0  0  0  0  0  0  0
  141.9970  157.7780  134.0560 N   0  0  0  0  0  0  0  0  0  0  0  0
  141.1580  158.7010  134.6060 C   0  0  0  0  0  0  0  0  0  0  0  0
  139.7800  158.4500  135.0690 C   0  0  0  0  0  0  0  0  0  0  0  0
  138.7660  158.0020  134.1680 N   0  0  0  0  0  0  0  0  0  0  0  0
  139.5040  158.5800  136.2920 O   0  0  0  0  0  0  0  0  0  0  0  0
  141.7950  159.9320  134.7270 C   0  0  0  0  0  0  0  0  0  0  0  0
  143.0670  159.7330  134.2430 C   0  0  0  0  0  0  0  0  0  0  0  0
  144.1240  160.6260  134.1150 C   0  0  0  0  0  0  0  0  0  0  0  0
  145.3180  160.1590  133.5430 C   0  0  0  0  0  0  0  0  0  0  0  0
  145.4350  158.8130  133.0960 C   0  0  0  0  0  0  0  0  0  0  0  0
  146.6450  158.3070  132.4950 N   0  0  0  0  0  0  0  0  0  0  0  0
  147.9760  158.9230  132.6190 C   0  0  0  0  0  0  0  0  0  0  0  0
  148.4820  159.0090  134.0670 C   0  0  0  0  0  0  0  0  0  0  0  0
  148.0980  160.2290  131.8530 C   0  0  0  0  0  0  0  0  0  0  0  0
  149.0330  159.6900  130.9480 O   0  0  0  0  0  0  0  0  0  0  0  0
  148.9770  158.4370  131.5880 C   0  0  0  0  0  0  0  0  0  0  0  0
  144.3340  157.9390  133.2480 C   0  0  0  0  0  0  0  0  0  0  0  0
  143.1650  158.4260  133.8420 C   0  0  0  0  0  0  0  0  0  0  0  0
  139.7164  154.5594  134.0241 H   0  0  0  0  0  0  0  0  0  0  0  0
  138.9046  154.9438  132.4685 H   0  0  0  0  0  0  0  0  0  0  0  0
  140.5205  154.1593  132.4685 H   0  0  0  0  0  0  0  0  0  0  0  0
  138.9990  157.7210  133.1910 H   0  0  0  0  0  0  0  0  0  0  0  0
  137.7870  157.8690  134.5060 H   0  0  0  0  0  0  0  0  0  0  0  0
  141.3714  160.8659  135.1251 H   0  0  0  0  0  0  0  0  0  0  0  0
  144.0279  161.6687  134.4521 H   0  0  0  0  0  0  0  0  0  0  0  0
  146.1739  160.8421  133.4390 H   0  0  0  0  0  0  0  0  0  0  0  0
  146.5530  157.4890  131.8510 H   0  0  0  0  0  0  0  0  0  0  0  0
  147.6391  158.8657  134.7591 H   0  0  0  0  0  0  0  0  0  0  0  0
  149.2351  158.2260  134.2394 H   0  0  0  0  0  0  0  0  0  0  0  0
  148.9341  159.9969  134.2394 H   0  0  0  0  0  0  0  0  0  0  0  0
  147.1591  160.5463  131.3758 H   0  0  0  0  0  0  0  0  0  0  0  0
  148.3575  161.1458  132.4028 H   0  0  0  0  0  0  0  0  0  0  0  0
  148.5879  157.6340  130.9448 H   0  0  0  0  0  0  0  0  0  0  0  0
  149.9135  157.9752  131.9338 H   0  0  0  0  0  0  0  0  0  0  0  0
  144.3956  156.8955  132.9055 H   0  0  0  0  0  0  0  0  0  0  0  0
  1  2  1  0
  2  3  1  0
  3  4  2  0
  3  5  1  0
  5  6  1  0
  6  7  1  0
  7  8  1  0
  7  9  2  0
  6 10  2  0
 10 11  1  0
 11 12  2  0
 12 13  1  0
 13 14  2  0
 14 15  1  0
 15 16  1  0
 16 17  1  0
 16 18  1  0
 18 19  1  0
 19 20  1  0
 14 21  1  0
 21 22  2  0
 22  5  1  0
 22 11  1  0
 20 16  1  0
  1 23  1  0
  1 24  1  0
  1 25  1  0
  8 26  1  0
  8 27  1  0
 10 28  1  0
 12 29  1  0
 13 30  1  0
 15 31  1  0
 17 32  1  0
 17 33  1  0
 17 34  1  0
 18 35  1  0
 18 36  1  0
 20 37  1  0
 20 38  1  0
 21 39  1  0
M  END
>  <UniqueID>  (31) 
31

>  <SMILES>  (31) 
COC(=O)n1c(C(N)=O)cc2ccc(NC3(C)COC3)cc21

>  <Energy>  (31) 
142.3096549037061

>  <Genealogy>  (31) 
COC(=O)n1c(C(N)=O)cc2ccc(NC3(C)COC3)cc21 (3D coordinates assigned)
COC(=O)n1c(C(N)=O)cc2ccc(NC3(C)COC3)cc21 (nonaromatic ring conformer: 142.3096549037061 kcal/mol)

>  <smiles>  (31) 
COC(=O)n1c(C(N)=O)cc2ccc(NC3(C)COC3)cc21

>  <score_type>  (31) 
oracle

>  <origin>  (31) 
adg

>  <m_score__min__energy>  (31) 
-7.3200000000000003

>  <m_primary>  (31) 
energy

$$$$
31:0
     RDKit          3D

 31 32  0  0  0  0  0  0  0  0999 V2000
  146.6460  160.5770  132.9680 N   0  0  0  0  0  0  0  0  0  0  0  0
  145.8370  159.5150  133.4760 C   0  0  0  0  0  0  0  0  0  0  0  0
  144.7840  159.7910  134.1100 O   0  0  0  0  0  0  0  0  0  0  0  0
  146.2450  158.1030  133.3270 C   0  0  0  0  0  0  0  0  0  0  0  0
  145.3710  157.0330  133.4920 C   0  0  0  0  0  0  0  0  0  0  0  0
  146.1440  155.9060  133.3350 C   0  0  0  0  0  0  0  0  0  0  0  0
  145.7870  154.5620  133.3930 C   0  0  0  0  0  0  0  0  0  0  0  0
  146.7860  153.6040  133.1600 C   0  0  0  0  0  0  0  0  0  0  0  0
  148.1130  154.0000  132.8460 C   0  0  0  0  0  0  0  0  0  0  0  0
  149.1840  152.9610  132.6320 C   0  0  0  0  0  0  0  0  0  0  0  0
  148.8100  152.0670  131.6450 F   0  0  0  0  0  0  0  0  0  0  0  0
  150.3730  153.5570  132.2480 F   0  0  0  0  0  0  0  0  0  0  0  0
  149.3880  152.2690  133.8120 F   0  0  0  0  0  0  0  0  0  0  0  0
  148.4410  155.3760  132.8180 C   0  0  0  0  0  0  0  0  0  0  0  0
  147.4300  156.3100  133.0760 C   0  0  0  0  0  0  0  0  0  0  0  0
  147.5070  157.6610  133.0670 N   0  0  0  0  0  0  0  0  0  0  0  0
  148.6520  158.4560  132.7180 C   0  0  0  0  0  0  0  0  0  0  0  0
  149.1000  159.3090  133.5300 O   0  0  0  0  0  0  0  0  0  0  0  0
  149.2660  158.2770  131.4720 O   0  0  0  0  0  0  0  0  0  0  0  0
  149.5840  159.3540  130.5940 C   0  0  0  0  0  0  0  0  0  0  0  0
  148.6830  160.5200  130.8530 C   0  0  0  0  0  0  0  0  0  0  0  0
  149.1150  161.5320  131.4640 O   0  0  0  0  0  0  0  0  0  0  0  0
  147.3730  160.4970  130.3940 O   0  0  0  0  0  0  0  0  0  0  0  0
  146.3210  161.5660  133.0460 H   0  0  0  0  0  0  0  0  0  0  0  0
  147.6000  160.3930  132.5870 H   0  0  0  0  0  0  0  0  0  0  0  0
  144.2924  157.0786  133.7029 H   0  0  0  0  0  0  0  0  0  0  0  0
  144.7529  154.2596  133.6148 H   0  0  0  0  0  0  0  0  0  0  0  0
  146.5381  152.5341  133.2214 H   0  0  0  0  0  0  0  0  0  0  0  0
  149.4675  155.7049  132.5984 H   0  0  0  0  0  0  0  0  0  0  0  0
  150.6281  159.6591  130.7576 H   0  0  0  0  0  0  0  0  0  0  0  0
  149.4467  159.0203  129.5549 H   0  0  0  0  0  0  0  0  0  0  0  0
  1  2  1  0
  2  3  2  0
  2  4  1  0
  4  5  2  0
  5  6  1  0
  6  7  2  0
  7  8  1  0
  8  9  2  0
  9 10  1  0
 10 11  1  0
 10 12  1  0
 10 13  1  0
  9 14  1  0
 14 15  2  0
 15 16  1  0
 16 17  1  0
 17 18  2  0
 17 19  1  0
 19 20  1  0
 20 21  1  0
 21 22  2  0
 21 23  1  0
 16  4  1  0
 15  6  1  0
  1 24  1  0
  1 25  1  0
  5 26  1  0
  7 27  1  0
  8 28  1  0
 14 29  1  0
 20 30  1  0
 20 31  1  0
M  CHG  1  23  -1
M  END
>  <UniqueID>  (32) 
32

>  <SMILES>  (32) 
NC(=O)c1cc2ccc(C(F)(F)F)cc2n1C(=O)OCC(=O)[O-]

>  <Energy>  (32) 
69.11971383356837

>  <Genealogy>  (32) 
NC(=O)c1cc2ccc(C(F)(F)F)cc2n1C(=O)OCC(=O)[O-] (protonated)
NC(=O)c1cc2ccc(C(F)(F)F)cc2n1C(=O)OCC(=O)[O-] (3D coordinates assigned)
NC(=O)c1cc2ccc(C(F)(F)F)cc2n1C(=O)OCC(=O)[O-] (optimized conformer: 69.11971383356837 kcal/mol)

>  <smiles>  (32) 
NC(=O)c1cc2ccc(C(F)(F)F)cc2n1C(=O)OCC(=O)O

>  <score_type>  (32) 
oracle

>  <origin>  (32) 
adg

>  <m_score__min__energy>  (32) 
-5.7199999999999998

>  <m_primary>  (32) 
energy

$$$$
32:0
     RDKit          3D

 42 43  0  0  0  0  0  0  0  0999 V2000
  148.2360  153.3000  134.2030 H   0  0  0  0  0  0  0  0  0  0  0  0
  147.7440  154.2150  134.3080 N   0  0  0  0  0  0  0  0  0  0  0  0
  147.7270  155.1650  133.2470 C   0  0  0  0  0  0  0  0  0  0  0  0
  148.4490  154.9680  132.2330 O   0  0  0  0  0  0  0  0  0  0  0  0
  146.9020  156.3890  133.3320 C   0  0  0  0  0  0  0  0  0  0  0  0
  147.4330  157.6760  133.4110 C   0  0  0  0  0  0  0  0  0  0  0  0
  148.4951  157.9617  133.3912 H   0  0  0  0  0  0  0  0  0  0  0  0
  146.3450  158.5130  133.5190 C   0  0  0  0  0  0  0  0  0  0  0  0
  146.2870  159.9000  133.6120 C   0  0  0  0  0  0  0  0  0  0  0  0
  147.2046  160.5065  133.6256 H   0  0  0  0  0  0  0  0  0  0  0  0
  145.0190  160.5020  133.6880 C   0  0  0  0  0  0  0  0  0  0  0  0
  144.9405  161.5973  133.7521 H   0  0  0  0  0  0  0  0  0  0  0  0
  143.8380  159.7130  133.6830 C   0  0  0  0  0  0  0  0  0  0  0  0
  142.4830  160.3730  133.7120 C   0  0  0  0  0  0  0  0  0  0  0  0
  141.7060  159.8600  132.6900 F   0  0  0  0  0  0  0  0  0  0  0  0
  141.8510  160.1380  134.9210 F   0  0  0  0  0  0  0  0  0  0  0  0
  142.6030  161.7410  133.5440 F   0  0  0  0  0  0  0  0  0  0  0  0
  143.9420  158.3070  133.5600 C   0  0  0  0  0  0  0  0  0  0  0  0
  143.0410  157.6777  133.5135 H   0  0  0  0  0  0  0  0  0  0  0  0
  145.2170  157.7370  133.4990 C   0  0  0  0  0  0  0  0  0  0  0  0
  145.5430  156.4310  133.3960 N   0  0  0  0  0  0  0  0  0  0  0  0
  144.6230  155.3380  133.2530 C   0  0  0  0  0  0  0  0  0  0  0  0
  143.9020  155.0100  134.2320 O   0  0  0  0  0  0  0  0  0  0  0  0
  144.5470  154.5310  132.0160 C   0  0  0  0  0  0  0  0  0  0  0  0
  144.0942  155.0055  131.1329 H   0  0  0  0  0  0  0  0  0  0  0  0
  144.9830  153.2700  131.8790 C   0  0  0  0  0  0  0  0  0  0  0  0
  144.8221  152.7745  130.9102 H   0  0  0  0  0  0  0  0  0  0  0  0
  145.6790  152.4850  132.9630 C   0  0  0  0  0  0  0  0  0  0  0  0
  145.6189  153.0445  133.9082 H   0  0  0  0  0  0  0  0  0  0  0  0
  145.1836  151.5080  133.0631 H   0  0  0  0  0  0  0  0  0  0  0  0
  147.0920  152.2630  132.6240 N   0  0  0  0  0  0  0  0  0  0  0  0
  147.6590  152.2460  133.5040 H   0  0  0  0  0  0  0  0  0  0  0  0
  147.4160  153.0470  132.0110 H   0  0  0  0  0  0  0  0  0  0  0  0
  147.2550  150.9860  131.9100 C   0  0  0  0  0  0  0  0  0  0  0  0
  146.3457  150.3830  132.0498 H   0  0  0  0  0  0  0  0  0  0  0  0
  147.4250  151.2118  130.8469 H   0  0  0  0  0  0  0  0  0  0  0  0
  148.4640  150.1860  132.4230 C   0  0  0  0  0  0  0  0  0  0  0  0
  148.1053  149.4449  133.1524 H   0  0  0  0  0  0  0  0  0  0  0  0
  148.9350  149.7190  131.5455 H   0  0  0  0  0  0  0  0  0  0  0  0
  149.7330  151.2090  133.2230 S   0  0  0  0  0  4  0  0  0  0  0  0
  149.2360  151.3830  134.6520 O   0  0  0  0  0  0  0  0  0  0  0  0
  149.5650  152.7630  132.5450 O   0  0  0  0  0  0  0  0  0  0  0  0
  1  2  1  0
  2  3  1  0
  3  4  2  0
  3  5  1  0
  5  6  2  0
  6  7  1  0
  6  8  1  0
  8  9  2  0
  9 10  1  0
  9 11  1  0
 11 12  1  0
 11 13  2  0
 13 14  1  0
 14 15  1  0
 14 16  1  0
 14 17  1  0
 13 18  1  0
 18 19  1  0
 18 20  2  0
 20 21  1  0
 21 22  1  0
 22 23  2  0
 22 24  1  0
 24 25  1  0
 24 26  2  0
 26 27  1  0
 26 28  1  0
 28 29  1  0
 28 30  1  0
 28 31  1  0
 31 32  1  0
 31 33  1  0
 31 34  1  0
 34 35  1  0
 34 36  1  0
 34 37  1  0
 37 38  1  0
 37 39  1  0
 37 40  1  0
 40 41  2  0
 40 42  1  6
 21  5  1  0
 20  8  1  0
M  CHG  3   2  -1  31   1  42  -1
M  END
>  <UniqueID>  (33) 
33

>  <SMILES>  (33) 
[NH-]C(=O)c1cc2ccc(C(F)(F)F)cc2n1C(=O)/C=C\C[NH2+]CC[S@](=O)[O-]

>  <Energy>  (33) 
78.91021270234944

>  <Genealogy>  (33) 
[NH-]C(=O)c1cc2ccc(C(F)(F)F)cc2n1C(=O)C=CC[NH2+]CCS(=O)[O-] (protonated)
[NH-]C(=O)c1cc2ccc(C(F)(F)F)cc2n1C(=O)C=CC[NH2+]CC[S@](=O)[O-] (chirality)
[NH-]C(=O)c1cc2ccc(C(F)(F)F)cc2n1C(=O)/C=C\C[NH2+]CC[S@](=O)[O-] (cis-trans isomerization)
[NH-]C(=O)c1cc2ccc(C(F)(F)F)cc2n1C(=O)/C=C\C[NH2+]CC[S@](=O)[O-] (3D coordinates assigned)
[NH-]C(=O)c1cc2ccc(C(F)(F)F)cc2n1C(=O)/C=C\C[NH2+]CC[S@](=O)[O-] (optimized conformer: 78.91021270234944 kcal/mol)

>  <smiles>  (33) 
NC(=O)c1cc2ccc(C(F)(F)F)cc2n1C(=O)C=CCNCCS(=O)O

>  <score_type>  (33) 
oracle

>  <origin>  (33) 
adg

>  <m_score__min__energy>  (33) 
-5.8600000000000003

>  <m_primary>  (33) 
energy

$$$$
34:0
     RDKit          3D

 33 34  0  0  0  0  0  0  0  0999 V2000
  150.3030  151.1170  132.2340 C   0  0  0  0  0  0  0  0  0  0  0  0
  149.9870  152.2100  133.0870 O   0  0  0  0  0  0  0  0  0  0  0  0
  148.8400  152.9900  132.9150 C   0  0  0  0  0  0  0  0  0  0  0  0
  147.6920  152.4680  132.9660 O   0  0  0  0  0  0  0  0  0  0  0  0
  148.9810  154.4570  132.6290 C   0  0  0  0  0  0  0  0  0  0  0  0
  147.6950  155.0600  132.2420 N   0  0  0  0  0  0  0  0  0  0  0  0
  147.6490  156.4620  132.5860 C   0  0  0  0  0  0  0  0  0  0  0  0
  148.8290  157.2480  132.5430 C   0  0  0  0  0  0  0  0  0  0  0  0
  148.7880  158.6210  132.8350 C   0  0  0  0  0  0  0  0  0  0  0  0
  147.5580  159.1800  133.1700 C   0  0  0  0  0  0  0  0  0  0  0  0
  147.2320  160.4830  133.4680 C   0  0  0  0  0  0  0  0  0  0  0  0
  145.8590  160.4740  133.7080 C   0  0  0  0  0  0  0  0  0  0  0  0
  145.1040  161.6670  134.1460 C   0  0  0  0  0  0  0  0  0  0  0  0
  143.7520  161.8450  133.7290 N   0  0  0  0  0  0  0  0  0  0  0  0
  145.6510  162.5510  134.8560 O   0  0  0  0  0  0  0  0  0  0  0  0
  145.3540  159.2150  133.5550 N   0  0  0  0  0  0  0  0  0  0  0  0
  143.9830  158.7960  133.6500 C   0  0  0  0  0  0  0  0  0  0  0  0
  143.4660  158.0980  132.7380 O   0  0  0  0  0  0  0  0  0  0  0  0
  143.2210  159.1370  134.7600 O   0  0  0  0  0  0  0  0  0  0  0  0
  146.4080  158.4350  133.2290 C   0  0  0  0  0  0  0  0  0  0  0  0
  146.4170  157.0690  132.9250 C   0  0  0  0  0  0  0  0  0  0  0  0
  150.5573  150.2375  132.8438 H   0  0  0  0  0  0  0  0  0  0  0  0
  149.4353  150.8845  131.5992 H   0  0  0  0  0  0  0  0  0  0  0  0
  151.1609  151.3834  131.5992 H   0  0  0  0  0  0  0  0  0  0  0  0
  149.3549  154.9623  133.5317 H   0  0  0  0  0  0  0  0  0  0  0  0
  149.6836  154.5781  131.7913 H   0  0  0  0  0  0  0  0  0  0  0  0
  147.5740  154.9570  131.2080 H   0  0  0  0  0  0  0  0  0  0  0  0
  146.9060  154.5440  132.6980 H   0  0  0  0  0  0  0  0  0  0  0  0
  149.7869  156.7768  132.2779 H   0  0  0  0  0  0  0  0  0  0  0  0
  149.6996  159.2357  132.8001 H   0  0  0  0  0  0  0  0  0  0  0  0
  147.9105  161.3479  133.5083 H   0  0  0  0  0  0  0  0  0  0  0  0
  143.0670  161.0590  133.7760 H   0  0  0  0  0  0  0  0  0  0  0  0
  145.4877  156.4810  132.9491 H   0  0  0  0  0  0  0  0  0  0  0  0
  1  2  1  0
  2  3  1  0
  3  4  2  0
  3  5  1  0
  5  6  1  0
  6  7  1  0
  7  8  2  0
  8  9  1  0
  9 10  2  0
 10 11  1  0
 11 12  2  0
 12 13  1  0
 13 14  1  0
 13 15  2  0
 12 16  1  0
 16 17  1  0
 17 18  2  0
 17 19  1  0
 16 20  1  0
 20 21  2  0
 21  7  1  0
 20 10  1  0
  1 22  1  0
  1 23  1  0
  1 24  1  0
  5 25  1  0
  5 26  1  0
  6 27  1  0
  6 28  1  0
  8 29  1  0
  9 30  1  0
 11 31  1  0
 14 32  1  0
 21 33  1  0
M  CHG  3   6   1  14  -1  19  -1
M  END
>  <UniqueID>  (34) 
34

>  <SMILES>  (34) 
COC(=O)C[NH2+]c1ccc2cc(C([NH-])=O)n(C(=O)[O-])c2c1

>  <Energy>  (34) 
70.42058906787483

>  <Genealogy>  (34) 
COC(=O)C[NH2+]c1ccc2cc(C([NH-])=O)n(C(=O)[O-])c2c1 (protonated)
COC(=O)C[NH2+]c1ccc2cc(C([NH-])=O)n(C(=O)[O-])c2c1 (3D coordinates assigned)
COC(=O)C[NH2+]c1ccc2cc(C([NH-])=O)n(C(=O)[O-])c2c1 (optimized conformer: 70.42058906787483 kcal/mol)

>  <smiles>  (34) 
COC(=O)CNc1ccc2cc(C(N)=O)n(C(=O)O)c2c1

>  <score_type>  (34) 
oracle

>  <origin>  (34) 
adg

>  <m_score__min__energy>  (34) 
-6.21

>  <m_primary>  (34) 
energy

$$$$
35:0
     RDKit          3D

 58 61  0  0  0  0  0  0  0  0999 V2000
  140.1480  149.3170  129.4910 C   0  0  0  0  0  0  0  0  0  0  0  0
  139.8270  148.5840  130.8080 C   0  0  0  0  0  0  0  0  0  0  0  0
  139.8430  147.0690  130.5500 C   0  0  0  0  0  0  0  0  0  0  0  0
  138.4340  148.9860  131.3290 C   0  0  0  0  0  0  0  0  0  0  0  0
  140.8330  148.8560  131.7950 O   0  0  0  0  0  0  0  0  0  0  0  0
  140.6970  149.6860  132.9210 C   0  0  0  0  0  0  0  0  0  0  0  0
  140.2870  149.2120  134.0160 O   0  0  0  0  0  0  0  0  0  0  0  0
  141.0310  151.0840  132.8250 N   0  0  0  0  0  0  0  0  0  0  0  0
  142.4430  151.4950  132.6570 C   0  0  0  0  0  0  0  0  0  0  0  0
  142.7690  152.7430  133.4980 C   0  0  0  0  0  0  0  0  0  0  0  0
  141.6910  153.7600  133.3280 C   0  0  0  0  0  0  0  0  0  0  0  0
  141.7920  155.0790  133.5730 N   0  0  0  0  0  0  0  0  0  0  0  0
  140.5900  155.5980  133.3560 N   0  0  0  0  0  0  0  0  0  0  0  0
  140.2970  157.0250  133.4390 C   0  0  0  0  0  0  0  0  0  0  0  0
  140.9750  157.6500  134.6630 C   0  0  0  0  0  0  0  0  0  0  0  0
  142.1770  158.4700  134.2680 C   0  0  0  0  0  0  0  0  0  0  0  0
  142.0530  159.8710  134.0860 C   0  0  0  0  0  0  0  0  0  0  0  0
  143.1770  160.6520  133.7730 C   0  0  0  0  0  0  0  0  0  0  0  0
  144.4050  160.0080  133.6490 C   0  0  0  0  0  0  0  0  0  0  0  0
  145.6510  160.5270  133.3820 C   0  0  0  0  0  0  0  0  0  0  0  0
  146.5160  159.4340  133.3900 C   0  0  0  0  0  0  0  0  0  0  0  0
  147.9530  159.5340  133.0590 C   0  0  0  0  0  0  0  0  0  0  0  0
  148.9270  159.0140  133.9620 N   0  0  0  0  0  0  0  0  0  0  0  0
  148.3340  160.1080  132.0060 O   0  0  0  0  0  0  0  0  0  0  0  0
  145.8330  158.2850  133.6630 N   0  0  0  0  0  0  0  0  0  0  0  0
  146.3660  156.9590  133.8290 C   0  0  0  0  0  0  0  0  0  0  0  0
  145.7210  156.0900  134.4760 O   0  0  0  0  0  0  0  0  0  0  0  0
  147.5850  156.6150  133.2600 O   0  0  0  0  0  0  0  0  0  0  0  0
  144.5400  158.6530  133.8140 C   0  0  0  0  0  0  0  0  0  0  0  0
  143.4410  157.8530  134.1450 C   0  0  0  0  0  0  0  0  0  0  0  0
  139.7220  154.6340  132.9770 C   0  0  0  0  0  0  0  0  0  0  0  0
  140.4090  153.4420  132.9690 C   0  0  0  0  0  0  0  0  0  0  0  0
  139.9480  152.0670  132.6080 C   0  0  0  0  0  0  0  0  0  0  0  0
  140.5799  150.3033  129.7162 H   0  0  0  0  0  0  0  0  0  0  0  0
  140.8693  148.7252  128.9084 H   0  0  0  0  0  0  0  0  0  0  0  0
  139.2239  149.4458  128.9084 H   0  0  0  0  0  0  0  0  0  0  0  0
  139.8487  146.5335  131.5108 H   0  0  0  0  0  0  0  0  0  0  0  0
  138.9478  146.7851  129.9773 H   0  0  0  0  0  0  0  0  0  0  0  0
  140.7440  146.8041  129.9773 H   0  0  0  0  0  0  0  0  0  0  0  0
  138.4394  148.9844  132.4290 H   0  0  0  0  0  0  0  0  0  0  0  0
  138.1830  149.9932  130.9650 H   0  0  0  0  0  0  0  0  0  0  0  0
  137.6850  148.2674  130.9650 H   0  0  0  0  0  0  0  0  0  0  0  0
  143.0963  150.6689  132.9744 H   0  0  0  0  0  0  0  0  0  0  0  0
  142.6087  151.7388  131.5972 H   0  0  0  0  0  0  0  0  0  0  0  0
  142.8411  152.4605  134.5587 H   0  0  0  0  0  0  0  0  0  0  0  0
  143.7266  153.1680  133.1628 H   0  0  0  0  0  0  0  0  0  0  0  0
  140.6655  157.5222  132.5296 H   0  0  0  0  0  0  0  0  0  0  0  0
  139.2090  157.1564  133.5334 H   0  0  0  0  0  0  0  0  0  0  0  0
  140.2528  158.2995  135.1793 H   0  0  0  0  0  0  0  0  0  0  0  0
  141.3123  156.8379  135.3239 H   0  0  0  0  0  0  0  0  0  0  0  0
  141.0682  160.3497  134.1909 H   0  0  0  0  0  0  0  0  0  0  0  0
  143.0900  161.7392  133.6301 H   0  0  0  0  0  0  0  0  0  0  0  0
  145.9096  161.5807  133.2007 H   0  0  0  0  0  0  0  0  0  0  0  0
  149.1430  157.9940  133.9910 H   0  0  0  0  0  0  0  0  0  0  0  0
  143.5586  156.7711  134.3053 H   0  0  0  0  0  0  0  0  0  0  0  0
  138.6615  154.7762  132.7219 H   0  0  0  0  0  0  0  0  0  0  0  0
  139.0846  151.7986  133.2345 H   0  0  0  0  0  0  0  0  0  0  0  0
  139.6640  152.0546  131.5454 H   0  0  0  0  0  0  0  0  0  0  0  0
  1  2  1  0
  2  3  1  0
  2  4  1  0
  2  5  1  0
  5  6  1  0
  6  7  2  0
  6  8  1  0
  8  9  1  0
  9 10  1  0
 10 11  1  0
 11 12  2  0
 12 13  1  0
 13 14  1  0
 14 15  1  0
 15 16  1  0
 16 17  2  0
 17 18  1  0
 18 19  2  0
 19 20  1  0
 20 21  2  0
 21 22  1  0
 22 23  1  0
 22 24  2  0
 21 25  1  0
 25 26  1  0
 26 27  2  0
 26 28  1  0
 25 29  1  0
 29 30  2  0
 13 31  1  0
 31 32  2  0
 32 33  1  0
 33  8  1  0
 32 11  1  0
 30 16  1  0
 29 19  1  0
  1 34  1  0
  1 35  1  0
  1 36  1  0
  3 37  1  0
  3 38  1  0
  3 39  1  0
  4 40  1  0
  4 41  1  0
  4 42  1  0
  9 43  1  0
  9 44  1  0
 10 45  1  0
 10 46  1  0
 14 47  1  0
 14 48  1  0
 15 49  1  0
 15 50  1  0
 17 51  1  0
 18 52  1  0
 20 53  1  0
 23 54  1  0
 30 55  1  0
 31 56  1  0
 33 57  1  0
 33 58  1  0
M  CHG  2  23  -1  28  -1
M  END
>  <UniqueID>  (35) 
35

>  <SMILES>  (35) 
CC(C)(C)OC(=O)N1CCc2nn(CCc3ccc4cc(C([NH-])=O)n(C(=O)[O-])c4c3)cc2C1

>  <Energy>  (35) 
123.63000452333435

>  <Genealogy>  (35) 
CC(C)(C)OC(=O)N1CCc2nn(CCc3ccc4cc(C([NH-])=O)n(C(=O)[O-])c4c3)cc2C1 (protonated)
CC(C)(C)OC(=O)N1CCc2nn(CCc3ccc4cc(C([NH-])=O)n(C(=O)[O-])c4c3)cc2C1 (3D coordinates assigned)
CC(C)(C)OC(=O)N1CCc2nn(CCc3ccc4cc(C([NH-])=O)n(C(=O)[O-])c4c3)cc2C1 (nonaromatic ring conformer: 123.63000452333435 kcal/mol)

>  <smiles>  (35) 
CC(C)(C)OC(=O)N1CCc2nn(CCc3ccc4cc(C(N)=O)n(C(=O)O)c4c3)cc2C1

>  <score_type>  (35) 
oracle

>  <origin>  (35) 
adg

>  <m_score__min__energy>  (35) 
-9.3000000000000007

>  <m_primary>  (35) 
energy

$$$$
36:0
     RDKit          3D

 43 44  0  0  0  0  0  0  0  0999 V2000
  143.5230  154.2010  134.2160 C   0  0  0  0  0  0  0  0  0  0  0  0
  143.8360  155.1860  133.1700 N   0  0  0  0  0  0  0  0  0  0  0  0
  144.4140  154.7160  131.9050 C   0  0  0  0  0  0  0  0  0  0  0  0
  143.5700  156.5990  133.3840 C   0  0  0  0  0  0  0  0  0  0  0  0
  142.2350  157.0760  133.5290 C   0  0  0  0  0  0  0  0  0  0  0  0
  141.9680  158.4420  133.7240 C   0  0  0  0  0  0  0  0  0  0  0  0
  143.0450  159.3170  133.7830 C   0  0  0  0  0  0  0  0  0  0  0  0
  143.0650  160.6860  133.9310 C   0  0  0  0  0  0  0  0  0  0  0  0
  144.4110  161.0400  133.9020 C   0  0  0  0  0  0  0  0  0  0  0  0
  144.8930  162.4240  134.0970 C   0  0  0  0  0  0  0  0  0  0  0  0
  146.0730  162.6620  134.8600 N   0  0  0  0  0  0  0  0  0  0  0  0
  144.2930  163.3970  133.5680 O   0  0  0  0  0  0  0  0  0  0  0  0
  145.1930  159.9340  133.7370 N   0  0  0  0  0  0  0  0  0  0  0  0
  146.6200  159.8860  133.5800 C   0  0  0  0  0  0  0  0  0  0  0  0
  147.2310  160.8780  133.0990 O   0  0  0  0  0  0  0  0  0  0  0  0
  147.3190  158.7310  133.9500 O   0  0  0  0  0  0  0  0  0  0  0  0
  148.1050  157.9570  133.0880 C   0  0  0  0  0  0  0  0  0  0  0  0
  149.2530  158.3410  132.7280 O   0  0  0  0  0  0  0  0  0  0  0  0
  147.5750  156.6430  132.6050 C   0  0  0  0  0  0  0  0  0  0  0  0
  148.4720  155.4910  133.0790 C   0  0  0  0  0  0  0  0  0  0  0  0
  147.6990  154.4200  133.8650 C   0  0  0  0  0  0  0  0  0  0  0  0
  147.3650  154.8720  135.5950 S   0  0  0  0  0  0  0  0  0  0  0  0
  146.0280  155.5990  135.5780 O   0  0  0  0  0  0  0  0  0  0  0  0
  147.0070  153.3930  136.3570 O   0  0  0  0  0  0  0  0  0  0  0  0
  144.3380  158.8870  133.6660 C   0  0  0  0  0  0  0  0  0  0  0  0
  144.6360  157.5360  133.4490 C   0  0  0  0  0  0  0  0  0  0  0  0
  143.6684  154.6585  135.2057 H   0  0  0  0  0  0  0  0  0  0  0  0
  142.4773  153.8759  134.1124 H   0  0  0  0  0  0  0  0  0  0  0  0
  144.1892  153.3319  134.1124 H   0  0  0  0  0  0  0  0  0  0  0  0
  145.2517  154.0348  132.1153 H   0  0  0  0  0  0  0  0  0  0  0  0
  143.6451  154.1837  131.3259 H   0  0  0  0  0  0  0  0  0  0  0  0
  144.7783  155.5774  131.3259 H   0  0  0  0  0  0  0  0  0  0  0  0
  141.3988  156.3625  133.4876 H   0  0  0  0  0  0  0  0  0  0  0  0
  140.9357  158.8076  133.8269 H   0  0  0  0  0  0  0  0  0  0  0  0
  142.2012  161.3570  134.0474 H   0  0  0  0  0  0  0  0  0  0  0  0
  147.0220  162.5670  134.4320 H   0  0  0  0  0  0  0  0  0  0  0  0
  146.5589  156.4959  132.9999 H   0  0  0  0  0  0  0  0  0  0  0  0
  147.5587  156.6501  131.5051 H   0  0  0  0  0  0  0  0  0  0  0  0
  148.9314  155.0179  132.1986 H   0  0  0  0  0  0  0  0  0  0  0  0
  149.2288  155.9164  133.7545 H   0  0  0  0  0  0  0  0  0  0  0  0
  146.7370  154.2471  133.3604 H   0  0  0  0  0  0  0  0  0  0  0  0
  148.3324  153.5209  133.8867 H   0  0  0  0  0  0  0  0  0  0  0  0
  145.6785  157.2056  133.3308 H   0  0  0  0  0  0  0  0  0  0  0  0
  1  2  1  0
  2  3  1  0
  2  4  1  0
  4  5  2  0
  5  6  1  0
  6  7  2  0
  7  8  1  0
  8  9  2  0
  9 10  1  0
 10 11  1  0
 10 12  2  0
  9 13  1  0
 13 14  1  0
 14 15  2  0
 14 16  1  0
 16 17  1  0
 17 18  2  0
 17 19  1  0
 19 20  1  0
 20 21  1  0
 21 22  1  0
 22 23  2  0
 22 24  1  1
 13 25  1  0
 25 26  2  0
 26  4  1  0
 25  7  1  0
  1 27  1  0
  1 28  1  0
  1 29  1  0
  3 30  1  0
  3 31  1  0
  3 32  1  0
  5 33  1  0
  6 34  1  0
  8 35  1  0
 11 36  1  0
 19 37  1  0
 19 38  1  0
 20 39  1  0
 20 40  1  0
 21 41  1  0
 21 42  1  0
 26 43  1  0
M  CHG  2  11  -1  24  -1
M  END
>  <UniqueID>  (36) 
36

>  <SMILES>  (36) 
CN(C)c1ccc2cc(C([NH-])=O)n(C(=O)OC(=O)CCC[S@@](=O)[O-])c2c1

>  <Energy>  (36) 
78.37978407789949

>  <Genealogy>  (36) 
CN(C)c1ccc2cc(C([NH-])=O)n(C(=O)OC(=O)CCCS(=O)[O-])c2c1 (protonated)
CN(C)c1ccc2cc(C([NH-])=O)n(C(=O)OC(=O)CCC[S@@](=O)[O-])c2c1 (chirality)
CN(C)c1ccc2cc(C([NH-])=O)n(C(=O)OC(=O)CCC[S@@](=O)[O-])c2c1 (3D coordinates assigned)
CN(C)c1ccc2cc(C([NH-])=O)n(C(=O)OC(=O)CCC[S@@](=O)[O-])c2c1 (optimized conformer: 78.37978407789949 kcal/mol)

>  <smiles>  (36) 
CN(C)c1ccc2cc(C(N)=O)n(C(=O)OC(=O)CCCS(=O)O)c2c1

>  <score_type>  (36) 
oracle

>  <origin>  (36) 
adg

>  <m_score__min__energy>  (36) 
-7.1500000000000004

>  <m_primary>  (36) 
energy

$$$$
37:0
     RDKit          3D

 29 30  0  0  0  0  0  0  0  0999 V2000
  148.6790  155.8110  133.2280 N   0  0  0  0  0  0  0  0  0  0  0  0
  147.3060  156.0000  132.8930 C   0  0  0  0  0  0  0  0  0  0  0  0
  146.6840  155.0770  132.3020 O   0  0  0  0  0  0  0  0  0  0  0  0
  146.6160  157.2700  133.1980 C   0  0  0  0  0  0  0  0  0  0  0  0
  145.2370  157.3820  133.3670 C   0  0  0  0  0  0  0  0  0  0  0  0
  145.0010  158.7250  133.5690 C   0  0  0  0  0  0  0  0  0  0  0  0
  143.8100  159.4010  133.8120 C   0  0  0  0  0  0  0  0  0  0  0  0
  143.8700  160.7910  134.0150 C   0  0  0  0  0  0  0  0  0  0  0  0
  145.1100  161.4790  133.9550 C   0  0  0  0  0  0  0  0  0  0  0  0
  145.1720  162.9600  134.2310 C   0  0  0  0  0  0  0  0  0  0  0  0
  146.3420  163.5030  133.7270 F   0  0  0  0  0  0  0  0  0  0  0  0
  144.0930  163.5810  133.6300 F   0  0  0  0  0  0  0  0  0  0  0  0
  145.1340  163.2040  135.5930 F   0  0  0  0  0  0  0  0  0  0  0  0
  146.3010  160.7510  133.7270 C   0  0  0  0  0  0  0  0  0  0  0  0
  146.2060  159.3720  133.5210 C   0  0  0  0  0  0  0  0  0  0  0  0
  147.2060  158.4940  133.2980 N   0  0  0  0  0  0  0  0  0  0  0  0
  148.6040  158.8080  133.2640 C   0  0  0  0  0  0  0  0  0  0  0  0
  149.2290  158.9940  134.3420 O   0  0  0  0  0  0  0  0  0  0  0  0
  149.3490  158.8040  131.9640 C   0  0  0  0  0  0  0  0  0  0  0  0
  148.8560  159.9170  131.0960 C   0  0  0  0  0  0  0  0  0  0  0  0
  148.5030  161.0110  131.6090 O   0  0  0  0  0  0  0  0  0  0  0  0
  148.7460  159.7310  129.7230 O   0  0  0  0  0  0  0  0  0  0  0  0
  149.2370  156.5800  133.6610 H   0  0  0  0  0  0  0  0  0  0  0  0
  144.4945  156.5707  133.3441 H   0  0  0  0  0  0  0  0  0  0  0  0
  142.8503  158.8645  133.8444 H   0  0  0  0  0  0  0  0  0  0  0  0
  142.9463  161.3511  134.2225 H   0  0  0  0  0  0  0  0  0  0  0  0
  147.2774  161.2574  133.7122 H   0  0  0  0  0  0  0  0  0  0  0  0
  150.4232  158.9402  132.1580 H   0  0  0  0  0  0  0  0  0  0  0  0
  149.1841  157.8439  131.4532 H   0  0  0  0  0  0  0  0  0  0  0  0
  1  2  1  0
  2  3  2  0
  2  4  1  0
  4  5  2  0
  5  6  1  0
  6  7  2  0
  7  8  1  0
  8  9  2  0
  9 10  1  0
 10 11  1  0
 10 12  1  0
 10 13  1  0
  9 14  1  0
 14 15  2  0
 15 16  1  0
 16 17  1  0
 17 18  2  0
 17 19  1  0
 19 20  1  0
 20 21  2  0
 20 22  1  0
 16  4  1  0
 15  6  1  0
  1 23  1  0
  5 24  1  0
  7 25  1  0
  8 26  1  0
 14 27  1  0
 19 28  1  0
 19 29  1  0
M  CHG  2   1  -1  22  -1
M  END
>  <UniqueID>  (37) 
37

>  <SMILES>  (37) 
[NH-]C(=O)c1cc2ccc(C(F)(F)F)cc2n1C(=O)CC(=O)[O-]

>  <Energy>  (37) 
67.92509984206619

>  <Genealogy>  (37) 
[NH-]C(=O)c1cc2ccc(C(F)(F)F)cc2n1C(=O)CC(=O)[O-] (protonated)
[NH-]C(=O)c1cc2ccc(C(F)(F)F)cc2n1C(=O)CC(=O)[O-] (3D coordinates assigned)
[NH-]C(=O)c1cc2ccc(C(F)(F)F)cc2n1C(=O)CC(=O)[O-] (optimized conformer: 67.92509984206619 kcal/mol)

>  <smiles>  (37) 
NC(=O)c1cc2ccc(C(F)(F)F)cc2n1C(=O)CC(=O)O

>  <score_type>  (37) 
oracle

>  <origin>  (37) 
adg

>  <m_score__min__energy>  (37) 
-5.5800000000000001

>  <m_primary>  (37) 
energy

$$$$
38:0
     RDKit          3D

 40 41  0  0  0  0  0  0  0  0999 V2000
  141.6550  159.1920  134.3440 C   0  0  0  0  0  0  0  0  0  0  0  0
  140.2440  159.0980  134.5020 O   0  0  0  0  0  0  0  0  0  0  0  0
  139.5870  157.8790  134.6990 C   0  0  0  0  0  0  0  0  0  0  0  0
  139.2480  157.5110  135.8570 O   0  0  0  0  0  0  0  0  0  0  0  0
  139.2490  157.0240  133.5170 C   0  0  1  0  0  0  0  0  0  0  0  0
  138.9540  157.9120  132.3060 C   0  0  0  0  0  0  0  0  0  0  0  0
  140.3490  156.1570  133.2450 O   0  0  0  0  0  0  0  0  0  0  0  0
  140.2390  154.7630  133.1610 C   0  0  0  0  0  0  0  0  0  0  0  0
  139.1160  154.2220  132.9740 O   0  0  0  0  0  0  0  0  0  0  0  0
  141.4100  153.9460  133.3240 N   0  0  0  0  0  0  0  0  0  0  0  0
  142.5560  154.2610  133.9940 C   0  0  0  0  0  0  0  0  0  0  0  0
  142.9070  155.5870  134.5410 C   0  0  0  0  0  0  0  0  0  0  0  0
  142.0750  156.2230  135.5060 N   0  0  0  0  0  0  0  0  0  0  0  0
  143.9270  156.1890  134.1120 O   0  0  0  0  0  0  0  0  0  0  0  0
  143.4160  153.1660  134.0320 C   0  0  0  0  0  0  0  0  0  0  0  0
  142.7630  152.1630  133.3530 C   0  0  0  0  0  0  0  0  0  0  0  0
  143.1560  150.8520  133.0980 C   0  0  0  0  0  0  0  0  0  0  0  0
  142.2630  150.0220  132.3990 C   0  0  0  0  0  0  0  0  0  0  0  0
  141.0050  150.5160  131.9810 C   0  0  0  0  0  0  0  0  0  0  0  0
  140.0940  149.6510  131.2780 C   0  0  0  0  0  0  0  0  0  0  0  0
  139.3310  148.9280  130.6880 C   0  0  0  0  0  0  0  0  0  0  0  0
  138.4020  148.0500  129.9710 C   0  0  0  0  0  0  0  0  0  0  0  0
  138.7960  146.7130  130.1190 O   0  0  0  0  0  0  0  0  0  0  0  0
  140.6370  151.8480  132.2550 C   0  0  0  0  0  0  0  0  0  0  0  0
  141.5530  152.6590  132.9370 C   0  0  0  0  0  0  0  0  0  0  0  0
  142.1335  159.2239  135.3340 H   0  0  0  0  0  0  0  0  0  0  0  0
  142.0208  158.3162  133.7879 H   0  0  0  0  0  0  0  0  0  0  0  0
  141.9014  160.1086  133.7879 H   0  0  0  0  0  0  0  0  0  0  0  0
  138.3552  156.4197  133.7311 H   0  0  0  0  0  0  0  0  0  0  0  0
  138.6246  158.9036  132.6500 H   0  0  0  0  0  0  0  0  0  0  0  0
  139.8650  158.0185  131.6988 H   0  0  0  0  0  0  0  0  0  0  0  0
  138.1603  157.4522  131.6988 H   0  0  0  0  0  0  0  0  0  0  0  0
  141.1230  156.5690  135.2520 H   0  0  0  0  0  0  0  0  0  0  0  0
  144.4078  153.1140  134.5049 H   0  0  0  0  0  0  0  0  0  0  0  0
  144.1346  150.4777  133.4331 H   0  0  0  0  0  0  0  0  0  0  0  0
  142.5438  148.9822  132.1756 H   0  0  0  0  0  0  0  0  0  0  0  0
  137.3892  148.1789  130.3805 H   0  0  0  0  0  0  0  0  0  0  0  0
  138.4083  148.3125  128.9028 H   0  0  0  0  0  0  0  0  0  0  0  0
  137.9830  146.1590  129.9790 H   0  0  0  0  0  0  0  0  0  0  0  0
  139.6580  152.2400  131.9422 H   0  0  0  0  0  0  0  0  0  0  0  0
  1  2  1  0
  2  3  1  0
  3  4  2  0
  3  5  1  0
  5  6  1  0
  5  7  1  0
  7  8  1  0
  8  9  2  0
  8 10  1  0
 10 11  1  0
 11 12  1  0
 12 13  1  0
 12 14  2  0
 11 15  2  0
 15 16  1  0
 16 17  2  0
 17 18  1  0
 18 19  2  0
 19 20  1  0
 20 21  3  0
 21 22  1  0
 22 23  1  0
 19 24  1  0
 24 25  2  0
 25 10  1  0
 25 16  1  0
  1 26  1  0
  1 27  1  0
  1 28  1  0
  5 29  1  1
  6 30  1  0
  6 31  1  0
  6 32  1  0
 13 33  1  0
 15 34  1  0
 17 35  1  0
 18 36  1  0
 22 37  1  0
 22 38  1  0
 23 39  1  0
 24 40  1  0
M  CHG  1  13  -1
M  END
>  <UniqueID>  (38) 
38

>  <SMILES>  (38) 
COC(=O)[C@@H](C)OC(=O)n1c(C([NH-])=O)cc2ccc(C#CCO)cc21

>  <Energy>  (38) 
67.3502408273198

>  <Genealogy>  (38) 
COC(=O)C(C)OC(=O)n1c(C([NH-])=O)cc2ccc(C#CCO)cc21 (protonated)
COC(=O)[C@@H](C)OC(=O)n1c(C([NH-])=O)cc2ccc(C#CCO)cc21 (chirality)
COC(=O)[C@@H](C)OC(=O)n1c(C([NH-])=O)cc2ccc(C#CCO)cc21 (3D coordinates assigned)
COC(=O)[C@@H](C)OC(=O)n1c(C([NH-])=O)cc2ccc(C#CCO)cc21 (optimized conformer: 67.3502408273198 kcal/mol)

>  <smiles>  (38) 
COC(=O)C(C)OC(=O)n1c(C(N)=O)cc2ccc(C#CCO)cc21

>  <score_type>  (38) 
oracle

>  <origin>  (38) 
adg

>  <m_score__min__energy>  (38) 
-6.7599999999999998

>  <m_primary>  (38) 
energy

$$$$
39:0
     RDKit          3D

 24 25  0  0  0  0  0  0  0  0999 V2000
  141.3000  160.8570  133.7410 N   0  0  0  0  0  0  0  0  0  0  0  0
  142.1270  160.0600  134.5850 C   0  0  0  0  0  0  0  0  0  0  0  0
  141.7130  159.7410  135.7310 O   0  0  0  0  0  0  0  0  0  0  0  0
  143.4730  159.6570  134.1270 C   0  0  0  0  0  0  0  0  0  0  0  0
  143.8480  158.3310  133.9230 C   0  0  0  0  0  0  0  0  0  0  0  0
  145.1250  158.3860  133.4170 C   0  0  0  0  0  0  0  0  0  0  0  0
  145.9880  157.3580  133.0540 C   0  0  0  0  0  0  0  0  0  0  0  0
  147.2690  157.7040  132.5930 C   0  0  0  0  0  0  0  0  0  0  0  0
  147.6620  159.0640  132.4930 C   0  0  0  0  0  0  0  0  0  0  0  0
  149.0610  159.4180  132.0550 C   0  0  0  0  0  0  0  0  0  0  0  0
  149.9830  159.0460  133.0190 F   0  0  0  0  0  0  0  0  0  0  0  0
  149.1780  160.7820  131.8470 F   0  0  0  0  0  0  0  0  0  0  0  0
  149.3490  158.7550  130.8770 F   0  0  0  0  0  0  0  0  0  0  0  0
  146.7640  160.0790  132.8950 C   0  0  0  0  0  0  0  0  0  0  0  0
  145.4860  159.7060  133.3330 C   0  0  0  0  0  0  0  0  0  0  0  0
  144.4830  160.5010  133.7700 N   0  0  0  0  0  0  0  0  0  0  0  0
  144.5200  161.9320  133.8970 C   0  0  0  0  0  0  0  0  0  0  0  0
  143.6310  162.6410  133.3560 O   0  0  0  0  0  0  0  0  0  0  0  0
  145.5530  162.5490  134.5920 O   0  0  0  0  0  0  0  0  0  0  0  0
  141.6470  161.7600  133.3460 H   0  0  0  0  0  0  0  0  0  0  0  0
  143.2491  157.4305  134.1242 H   0  0  0  0  0  0  0  0  0  0  0  0
  145.6769  156.3053  133.1257 H   0  0  0  0  0  0  0  0  0  0  0  0
  147.9758  156.9115  132.3061 H   0  0  0  0  0  0  0  0  0  0  0  0
  147.0615  161.1376  132.8648 H   0  0  0  0  0  0  0  0  0  0  0  0
  1  2  1  0
  2  3  2  0
  2  4  1  0
  4  5  2  0
  5  6  1  0
  6  7  2  0
  7  8  1  0
  8  9  2  0
  9 10  1  0
 10 11  1  0
 10 12  1  0
 10 13  1  0
  9 14  1  0
 14 15  2  0
 15 16  1  0
 16 17  1  0
 17 18  2  0
 17 19  1  0
 16  4  1  0
 15  6  1  0
  1 20  1  0
  5 21  1  0
  7 22  1  0
  8 23  1  0
 14 24  1  0
M  CHG  2   1  -1  19  -1
M  END
>  <UniqueID>  (39) 
39

>  <SMILES>  (39) 
[NH-]C(=O)c1cc2ccc(C(F)(F)F)cc2n1C(=O)[O-]

>  <Energy>  (39) 
64.6696072630226

>  <Genealogy>  (39) 
[NH-]C(=O)c1cc2ccc(C(F)(F)F)cc2n1C(=O)[O-] (protonated)
[NH-]C(=O)c1cc2ccc(C(F)(F)F)cc2n1C(=O)[O-] (3D coordinates assigned)
[NH-]C(=O)c1cc2ccc(C(F)(F)F)cc2n1C(=O)[O-] (optimized conformer: 64.6696072630226 kcal/mol)

>  <smiles>  (39) 
NC(=O)c1cc2ccc(C(F)(F)F)cc2n1C(=O)O

>  <score_type>  (39) 
oracle

>  <origin>  (39) 
adg

>  <m_score__min__energy>  (39) 
-5.1600000000000001

>  <m_primary>  (39) 
energy

$$$$
40:0
     RDKit          3D

 39 40  0  0  0  0  0  0  0  0999 V2000
  148.8990  158.6650  132.8260 C   0  0  0  0  0  0  0  0  0  0  0  0
  147.9810  159.0540  133.7080 C   0  0  0  0  0  0  0  0  0  0  0  0
  147.0350  160.1540  133.4440 C   0  0  0  0  0  0  0  0  0  0  0  0
  147.4740  161.2390  132.9790 O   0  0  0  0  0  0  0  0  0  0  0  0
  145.6280  160.0140  133.6950 N   0  0  0  0  0  0  0  0  0  0  0  0
  144.7210  161.0030  133.9360 C   0  0  0  0  0  0  0  0  0  0  0  0
  145.0350  162.4350  134.1190 C   0  0  0  0  0  0  0  0  0  0  0  0
  146.1760  162.8490  134.8650 N   0  0  0  0  0  0  0  0  0  0  0  0
  144.2720  163.3090  133.6280 O   0  0  0  0  0  0  0  0  0  0  0  0
  143.4360  160.4720  134.0270 C   0  0  0  0  0  0  0  0  0  0  0  0
  143.5830  159.1170  133.8280 C   0  0  0  0  0  0  0  0  0  0  0  0
  142.6290  158.1060  133.7870 C   0  0  0  0  0  0  0  0  0  0  0  0
  143.0670  156.7960  133.5250 C   0  0  0  0  0  0  0  0  0  0  0  0
  144.4430  156.5250  133.3120 C   0  0  0  0  0  0  0  0  0  0  0  0
  144.8950  155.1310  132.9810 C   0  0  0  0  0  0  0  0  0  0  0  0
  146.2870  154.9050  133.5060 C   0  0  0  0  0  0  0  0  0  0  0  0
  146.5080  155.0850  134.6980 O   0  0  0  0  0  0  0  0  0  0  0  0
  147.3470  154.4540  132.6260 N   0  0  0  0  0  0  0  0  0  0  0  0
  148.4770  155.3960  132.6680 C   0  0  0  0  0  0  0  0  0  0  0  0
  147.7820  153.0990  133.0040 C   0  0  0  0  0  0  0  0  0  0  0  0
  145.3810  157.5800  133.3490 C   0  0  0  0  0  0  0  0  0  0  0  0
  144.9160  158.8690  133.6240 C   0  0  0  0  0  0  0  0  0  0  0  0
  149.5819  157.8383  133.0713 H   0  0  0  0  0  0  0  0  0  0  0  0
  148.9747  159.1703  131.8518 H   0  0  0  0  0  0  0  0  0  0  0  0
  147.9257  158.5327  134.6750 H   0  0  0  0  0  0  0  0  0  0  0  0
  147.1380  162.7500  134.4740 H   0  0  0  0  0  0  0  0  0  0  0  0
  142.5012  161.0195  134.2176 H   0  0  0  0  0  0  0  0  0  0  0  0
  141.5640  158.3246  133.9545 H   0  0  0  0  0  0  0  0  0  0  0  0
  142.3367  155.9744  133.4848 H   0  0  0  0  0  0  0  0  0  0  0  0
  144.2089  154.4059  133.4430 H   0  0  0  0  0  0  0  0  0  0  0  0
  144.8945  155.0002  131.8888 H   0  0  0  0  0  0  0  0  0  0  0  0
  146.9980  154.4140  131.6400 H   0  0  0  0  0  0  0  0  0  0  0  0
  148.7358  155.6117  133.7151 H   0  0  0  0  0  0  0  0  0  0  0  0
  149.3450  154.9503  132.1601 H   0  0  0  0  0  0  0  0  0  0  0  0
  148.1948  156.3300  132.1601 H   0  0  0  0  0  0  0  0  0  0  0  0
  147.8089  153.0151  134.1005 H   0  0  0  0  0  0  0  0  0  0  0  0
  147.0759  152.3603  132.5970 H   0  0  0  0  0  0  0  0  0  0  0  0
  148.7862  152.9094  132.5970 H   0  0  0  0  0  0  0  0  0  0  0  0
  146.4493  157.3923  133.1662 H   0  0  0  0  0  0  0  0  0  0  0  0
  1  2  2  0
  2  3  1  0
  3  4  2  0
  3  5  1  0
  5  6  1  0
  6  7  1  0
  7  8  1  0
  7  9  2  0
  6 10  2  0
 10 11  1  0
 11 12  2  0
 12 13  1  0
 13 14  2  0
 14 15  1  0
 15 16  1  0
 16 17  2  0
 16 18  1  0
 18 19  1  0
 18 20  1  0
 14 21  1  0
 21 22  2  0
 22  5  1  0
 22 11  1  0
  1 23  1  0
  1 24  1  0
  2 25  1  0
  8 26  1  0
 10 27  1  0
 12 28  1  0
 13 29  1  0
 15 30  1  0
 15 31  1  0
 18 32  1  0
 19 33  1  0
 19 34  1  0
 19 35  1  0
 20 36  1  0
 20 37  1  0
 20 38  1  0
 21 39  1  0
M  CHG  2   8  -1  18   1
M  END
>  <UniqueID>  (40) 
40

>  <SMILES>  (40) 
C=CC(=O)n1c(C([NH-])=O)cc2ccc(CC(=O)[NH+](C)C)cc21

>  <Energy>  (40) 
74.41440579179213

>  <Genealogy>  (40) 
C=CC(=O)n1c(C([NH-])=O)cc2ccc(CC(=O)[NH+](C)C)cc21 (protonated)
C=CC(=O)n1c(C([NH-])=O)cc2ccc(CC(=O)[NH+](C)C)cc21 (3D coordinates assigned)
C=CC(=O)n1c(C([NH-])=O)cc2ccc(CC(=O)[NH+](C)C)cc21 (optimized conformer: 74.41440579179213 kcal/mol)

>  <smiles>  (40) 
C=CC(=O)n1c(C(N)=O)cc2ccc(CC(=O)N(C)C)cc21

>  <score_type>  (40) 
oracle

>  <origin>  (40) 
adg

>  <m_score__min__energy>  (40) 
-6.4199999999999999

>  <m_primary>  (40) 
energy

$$$$
41:0
     RDKit          3D

 45 46  0  0  0  0  0  0  0  0999 V2000
  138.7890  158.6110  131.6500 C   0  0  0  0  0  0  0  0  0  0  0  0
  139.1280  157.4980  132.2980 C   0  0  0  0  0  0  0  0  0  0  0  0
  139.3890  157.4640  133.7480 C   0  0  0  0  0  0  0  0  0  0  0  0
  138.5420  157.9700  134.5330 O   0  0  0  0  0  0  0  0  0  0  0  0
  140.5740  156.8580  134.2870 N   0  0  0  0  0  0  0  0  0  0  0  0
  141.4760  157.4130  135.1450 C   0  0  0  0  0  0  0  0  0  0  0  0
  141.4930  158.8240  135.5890 C   0  0  0  0  0  0  0  0  0  0  0  0
  140.4510  159.3500  136.4060 N   0  0  0  0  0  0  0  0  0  0  0  0
  142.4290  159.5820  135.2200 O   0  0  0  0  0  0  0  0  0  0  0  0
  142.4280  156.4680  135.5280 C   0  0  0  0  0  0  0  0  0  0  0  0
  142.0750  155.3080  134.8760 C   0  0  0  0  0  0  0  0  0  0  0  0
  142.6610  154.0450  134.9090 C   0  0  0  0  0  0  0  0  0  0  0  0
  142.0620  153.0210  134.1550 C   0  0  0  0  0  0  0  0  0  0  0  0
  140.8990  153.2780  133.3850 C   0  0  0  0  0  0  0  0  0  0  0  0
  140.2500  152.1690  132.6010 C   0  0  0  0  0  0  0  0  0  0  0  0
  140.7650  150.8000  133.0630 C   0  0  0  0  0  0  0  0  0  0  0  0
  141.1370  149.9720  131.8910 N   0  0  0  0  0  0  0  0  0  0  0  0
  141.2230  148.5470  132.2710 C   0  0  0  0  0  0  0  0  0  0  0  0
  140.1740  150.1500  130.7850 C   0  0  0  0  0  0  0  0  0  0  0  0
  139.1040  149.0910  130.8470 C   0  0  0  0  0  0  0  0  0  0  0  0
  138.3430  149.0590  131.8510 O   0  0  0  0  0  0  0  0  0  0  0  0
  138.9050  148.1320  129.8010 N   0  0  0  0  0  0  0  0  0  0  0  0
  139.1350  146.6980  129.9250 C   0  0  0  0  0  0  0  0  0  0  0  0
  140.3240  154.5680  133.3900 C   0  0  0  0  0  0  0  0  0  0  0  0
  140.9510  155.5700  134.1380 C   0  0  0  0  0  0  0  0  0  0  0  0
  138.6049  158.5818  130.5659 H   0  0  0  0  0  0  0  0  0  0  0  0
  138.6931  159.5594  132.1989 H   0  0  0  0  0  0  0  0  0  0  0  0
  139.2171  156.5628  131.7257 H   0  0  0  0  0  0  0  0  0  0  0  0
  139.4470  159.1860  136.1710 H   0  0  0  0  0  0  0  0  0  0  0  0
  143.2802  156.6179  136.2071 H   0  0  0  0  0  0  0  0  0  0  0  0
  143.5647  153.8547  135.5066 H   0  0  0  0  0  0  0  0  0  0  0  0
  142.4990  152.0116  134.1622 H   0  0  0  0  0  0  0  0  0  0  0  0
  139.1608  152.2129  132.7486 H   0  0  0  0  0  0  0  0  0  0  0  0
  140.4984  152.2979  131.5372 H   0  0  0  0  0  0  0  0  0  0  0  0
  141.6481  150.9410  133.7035 H   0  0  0  0  0  0  0  0  0  0  0  0
  139.9707  150.2887  133.6267 H   0  0  0  0  0  0  0  0  0  0  0  0
  141.2283  148.4596  133.3675 H   0  0  0  0  0  0  0  0  0  0  0  0
  140.3559  148.0061  131.8642 H   0  0  0  0  0  0  0  0  0  0  0  0
  142.1489  148.1143  131.8642 H   0  0  0  0  0  0  0  0  0  0  0  0
  139.7071  151.1426  130.8667 H   0  0  0  0  0  0  0  0  0  0  0  0
  140.7087  150.0624  129.8277 H   0  0  0  0  0  0  0  0  0  0  0  0
  139.1789  146.4244  130.9895 H   0  0  0  0  0  0  0  0  0  0  0  0
  138.3130  146.1515  129.4395 H   0  0  0  0  0  0  0  0  0  0  0  0
  140.0866  146.4359  129.4395 H   0  0  0  0  0  0  0  0  0  0  0  0
  139.4069  154.7792  132.8205 H   0  0  0  0  0  0  0  0  0  0  0  0
  1  2  2  0
  2  3  1  0
  3  4  2  0
  3  5  1  0
  5  6  1  0
  6  7  1  0
  7  8  1  0
  7  9  2  0
  6 10  2  0
 10 11  1  0
 11 12  2  0
 12 13  1  0
 13 14  2  0
 14 15  1  0
 15 16  1  0
 16 17  1  0
 17 18  1  0
 17 19  1  0
 19 20  1  0
 20 21  2  0
 20 22  1  0
 22 23  1  0
 14 24  1  0
 24 25  2  0
 25  5  1  0
 25 11  1  0
  1 26  1  0
  1 27  1  0
  2 28  1  0
  8 29  1  0
 10 30  1  0
 12 31  1  0
 13 32  1  0
 15 33  1  0
 15 34  1  0
 16 35  1  0
 16 36  1  0
 18 37  1  0
 18 38  1  0
 18 39  1  0
 19 40  1  0
 19 41  1  0
 23 42  1  0
 23 43  1  0
 23 44  1  0
 24 45  1  0
M  CHG  2   8  -1  22  -1
M  END
>  <UniqueID>  (41) 
41

>  <SMILES>  (41) 
C=CC(=O)n1c(C([NH-])=O)cc2ccc(CCN(C)CC(=O)[N-]C)cc21

>  <Energy>  (41) 
80.81417717219698

>  <Genealogy>  (41) 
C=CC(=O)n1c(C([NH-])=O)cc2ccc(CCN(C)CC(=O)[N-]C)cc21 (protonated)
C=CC(=O)n1c(C([NH-])=O)cc2ccc(CCN(C)CC(=O)[N-]C)cc21 (3D coordinates assigned)
C=CC(=O)n1c(C([NH-])=O)cc2ccc(CCN(C)CC(=O)[N-]C)cc21 (optimized conformer: 80.81417717219698 kcal/mol)

>  <smiles>  (41) 
C=CC(=O)n1c(C(N)=O)cc2ccc(CCN(C)CC(=O)NC)cc21

>  <score_type>  (41) 
oracle

>  <origin>  (41) 
adg

>  <m_score__min__energy>  (41) 
-7.54

>  <m_primary>  (41) 
energy

$$$$
42:0
     RDKit          3D

 33 34  0  0  0  0  0  0  0  0999 V2000
  143.3810  158.1080  133.4130 C   0  0  0  0  0  0  0  0  0  0  0  0
  144.0220  159.4630  133.6880 C   0  0  0  0  0  0  0  0  0  0  0  0
  145.0540  159.7330  132.7410 O   0  0  0  0  0  0  0  0  0  0  0  0
  146.4030  159.8700  133.0900 C   0  0  0  0  0  0  0  0  0  0  0  0
  146.7930  160.8730  133.7480 O   0  0  0  0  0  0  0  0  0  0  0  0
  147.3490  158.8730  132.6760 N   0  0  0  0  0  0  0  0  0  0  0  0
  148.4040  159.0280  131.8270 C   0  0  0  0  0  0  0  0  0  0  0  0
  148.6910  160.2240  131.0080 C   0  0  0  0  0  0  0  0  0  0  0  0
  148.5220  161.5350  131.5410 N   0  0  0  0  0  0  0  0  0  0  0  0
  149.0420  160.0870  129.8060 O   0  0  0  0  0  0  0  0  0  0  0  0
  149.1560  157.8570  131.7630 C   0  0  0  0  0  0  0  0  0  0  0  0
  148.5220  156.9690  132.6010 C   0  0  0  0  0  0  0  0  0  0  0  0
  148.8520  155.6580  132.9320 C   0  0  0  0  0  0  0  0  0  0  0  0
  148.0360  154.9870  133.8570 C   0  0  0  0  0  0  0  0  0  0  0  0
  146.9110  155.6320  134.4290 C   0  0  0  0  0  0  0  0  0  0  0  0
  146.0730  154.9210  135.4540 C   0  0  0  0  0  0  0  0  0  0  0  0
  146.9470  154.1310  136.3740 C   0  0  0  0  0  0  0  0  0  0  0  0
  146.5910  152.9870  136.7600 O   0  0  0  0  0  0  0  0  0  0  0  0
  148.1330  154.6790  136.8460 O   0  0  0  0  0  0  0  0  0  0  0  0
  146.6140  156.9680  134.0780 C   0  0  0  0  0  0  0  0  0  0  0  0
  147.4330  157.6060  133.1390 C   0  0  0  0  0  0  0  0  0  0  0  0
  143.1467  157.6128  134.3669 H   0  0  0  0  0  0  0  0  0  0  0  0
  142.4549  158.2507  132.8368 H   0  0  0  0  0  0  0  0  0  0  0  0
  144.0787  157.4825  132.8368 H   0  0  0  0  0  0  0  0  0  0  0  0
  143.2536  160.2470  133.6183 H   0  0  0  0  0  0  0  0  0  0  0  0
  144.4616  159.4487  134.6963 H   0  0  0  0  0  0  0  0  0  0  0  0
  147.7170  161.7620  132.1650 H   0  0  0  0  0  0  0  0  0  0  0  0
  150.0643  157.6799  131.1684 H   0  0  0  0  0  0  0  0  0  0  0  0
  149.7254  155.1627  132.4827 H   0  0  0  0  0  0  0  0  0  0  0  0
  148.2722  153.9507  134.1404 H   0  0  0  0  0  0  0  0  0  0  0  0
  145.5060  155.6614  136.0374 H   0  0  0  0  0  0  0  0  0  0  0  0
  145.3798  154.2380  134.9412 H   0  0  0  0  0  0  0  0  0  0  0  0
  145.7606  157.4936  134.5312 H   0  0  0  0  0  0  0  0  0  0  0  0
  1  2  1  0
  2  3  1  0
  3  4  1  0
  4  5  2  0
  4  6  1  0
  6  7  1  0
  7  8  1  0
  8  9  1  0
  8 10  2  0
  7 11  2  0
 11 12  1  0
 12 13  2  0
 13 14  1  0
 14 15  2  0
 15 16  1  0
 16 17  1  0
 17 18  2  0
 17 19  1  0
 15 20  1  0
 20 21  2  0
 21  6  1  0
 21 12  1  0
  1 22  1  0
  1 23  1  0
  1 24  1  0
  2 25  1  0
  2 26  1  0
  9 27  1  0
 11 28  1  0
 13 29  1  0
 14 30  1  0
 16 31  1  0
 16 32  1  0
 20 33  1  0
M  CHG  2   9  -1  19  -1
M  END
>  <UniqueID>  (42) 
42

>  <SMILES>  (42) 
CCOC(=O)n1c(C([NH-])=O)cc2ccc(CC(=O)[O-])cc21

>  <Energy>  (42) 
66.7881484160926

>  <Genealogy>  (42) 
CCOC(=O)n1c(C([NH-])=O)cc2ccc(CC(=O)[O-])cc21 (protonated)
CCOC(=O)n1c(C([NH-])=O)cc2ccc(CC(=O)[O-])cc21 (3D coordinates assigned)
CCOC(=O)n1c(C([NH-])=O)cc2ccc(CC(=O)[O-])cc21 (optimized conformer: 66.7881484160926 kcal/mol)

>  <smiles>  (42) 
CCOC(=O)n1c(C(N)=O)cc2ccc(CC(=O)O)cc21

>  <score_type>  (42) 
oracle

>  <origin>  (42) 
adg

>  <m_score__min__energy>  (42) 
-6.2300000000000004

>  <m_primary>  (42) 
energy

$$$$
43:0
     RDKit          3D

 37 39  0  0  0  0  0  0  0  0999 V2000
  141.6740  160.8640  133.8010 C   0  0  0  0  0  0  0  0  0  0  0  0
  143.1070  160.6510  133.6530 N   0  0  0  0  0  0  0  0  0  0  0  0
  143.7190  159.4920  133.3660 C   0  0  0  0  0  0  0  0  0  0  0  0
  145.0770  159.7520  133.4110 C   0  0  0  0  0  0  0  0  0  0  0  0
  146.1920  158.8070  133.1700 C   0  0  0  0  0  0  0  0  0  0  0  0
  147.4750  159.2750  132.7800 C   0  0  0  0  0  0  0  0  0  0  0  0
  148.5320  158.3750  132.5640 C   0  0  0  0  0  0  0  0  0  0  0  0
  148.2820  157.0180  132.7360 C   0  0  0  0  0  0  0  0  0  0  0  0
  149.1290  155.9400  132.6140 C   0  0  0  0  0  0  0  0  0  0  0  0
  148.3490  154.8230  132.9070 C   0  0  0  0  0  0  0  0  0  0  0  0
  148.8350  153.4290  132.8090 C   0  0  0  0  0  0  0  0  0  0  0  0
  148.2540  152.3950  133.6060 N   0  0  0  0  0  0  0  0  0  0  0  0
  149.7940  153.1450  132.0430 O   0  0  0  0  0  0  0  0  0  0  0  0
  147.0710  155.1980  133.2010 N   0  0  0  0  0  0  0  0  0  0  0  0
  145.9790  154.3530  133.6030 C   0  0  0  0  0  0  0  0  0  0  0  0
  145.7610  153.2720  132.9920 O   0  0  0  0  0  0  0  0  0  0  0  0
  145.1740  154.7280  134.6840 O   0  0  0  0  0  0  0  0  0  0  0  0
  145.5070  154.4500  136.0420 C   0  0  0  0  0  0  0  0  0  0  0  0
  146.9720  154.1760  136.1730 C   0  0  0  0  0  0  0  0  0  0  0  0
  147.3830  153.0030  136.3670 O   0  0  0  0  0  0  0  0  0  0  0  0
  147.8820  155.2220  136.0930 O   0  0  0  0  0  0  0  0  0  0  0  0
  147.0470  156.5440  133.0920 C   0  0  0  0  0  0  0  0  0  0  0  0
  145.9800  157.4180  133.3320 C   0  0  0  0  0  0  0  0  0  0  0  0
  145.2390  161.0540  133.7380 N   0  0  0  0  0  0  0  0  0  0  0  0
  144.0280  161.5720  133.8850 N   0  0  0  0  0  0  0  0  0  0  0  0
  141.4174  160.9021  134.8700 H   0  0  0  0  0  0  0  0  0  0  0  0
  141.3931  161.8138  133.3224 H   0  0  0  0  0  0  0  0  0  0  0  0
  141.1290  160.0370  133.3224 H   0  0  0  0  0  0  0  0  0  0  0  0
  143.2378  158.5289  133.1403 H   0  0  0  0  0  0  0  0  0  0  0  0
  147.6429  160.3538  132.6456 H   0  0  0  0  0  0  0  0  0  0  0  0
  149.5287  158.7335  132.2673 H   0  0  0  0  0  0  0  0  0  0  0  0
  150.1949  155.9566  132.3429 H   0  0  0  0  0  0  0  0  0  0  0  0
  148.6290  151.4220  133.5570 H   0  0  0  0  0  0  0  0  0  0  0  0
  147.4280  152.5800  134.2170 H   0  0  0  0  0  0  0  0  0  0  0  0
  145.2432  155.3173  136.6650 H   0  0  0  0  0  0  0  0  0  0  0  0
  144.9466  153.5632  136.3730 H   0  0  0  0  0  0  0  0  0  0  0  0
  144.9970  157.0324  133.6402 H   0  0  0  0  0  0  0  0  0  0  0  0
  1  2  1  0
  2  3  1  0
  3  4  2  0
  4  5  1  0
  5  6  2  0
  6  7  1  0
  7  8  2  0
  8  9  1  0
  9 10  2  0
 10 11  1  0
 11 12  1  0
 11 13  2  0
 10 14  1  0
 14 15  1  0
 15 16  2  0
 15 17  1  0
 17 18  1  0
 18 19  1  0
 19 20  2  0
 19 21  1  0
 14 22  1  0
 22 23  2  0
  4 24  1  0
 24 25  2  0
 25  2  1  0
 23  5  1  0
 22  8  1  0
  1 26  1  0
  1 27  1  0
  1 28  1  0
  3 29  1  0
  6 30  1  0
  7 31  1  0
  9 32  1  0
 12 33  1  0
 12 34  1  0
 18 35  1  0
 18 36  1  0
 23 37  1  0
M  CHG  1  21  -1
M  END
>  <UniqueID>  (43) 
43

>  <SMILES>  (43) 
Cn1cc(-c2ccc3cc(C(N)=O)n(C(=O)OCC(=O)[O-])c3c2)nn1

>  <Energy>  (43) 
110.80772880129928

>  <Genealogy>  (43) 
Cn1cc(-c2ccc3cc(C(N)=O)n(C(=O)OCC(=O)[O-])c3c2)nn1 (protonated)
Cn1cc(-c2ccc3cc(C(N)=O)n(C(=O)OCC(=O)[O-])c3c2)nn1 (3D coordinates assigned)
Cn1cc(-c2ccc3cc(C(N)=O)n(C(=O)OCC(=O)[O-])c3c2)nn1 (optimized conformer: 110.80772880129928 kcal/mol)

>  <smiles>  (43) 
Cn1cc(-c2ccc3cc(C(N)=O)n(C(=O)OCC(=O)O)c3c2)nn1

>  <score_type>  (43) 
oracle

>  <origin>  (43) 
adg

>  <m_score__min__energy>  (43) 
-7.3499999999999996

>  <m_primary>  (43) 
energy

$$$$
44:0
     RDKit          3D

 39 40  0  0  0  0  0  0  0  0999 V2000
  148.7740  155.6890  132.7460 C   0  0  0  0  0  0  0  0  0  0  0  0
  148.0280  156.6190  132.9280 C   0  0  0  0  0  0  0  0  0  0  0  0
  147.1380  157.7300  133.1420 C   0  0  0  0  0  0  0  0  0  0  0  0
  147.6490  159.0470  133.1690 C   0  0  0  0  0  0  0  0  0  0  0  0
  146.7880  160.1410  133.3660 C   0  0  0  0  0  0  0  0  0  0  0  0
  145.4310  159.8800  133.5410 C   0  0  0  0  0  0  0  0  0  0  0  0
  144.3790  160.7480  133.7240 C   0  0  0  0  0  0  0  0  0  0  0  0
  143.2490  159.9400  133.8310 C   0  0  0  0  0  0  0  0  0  0  0  0
  141.8990  160.4690  134.1250 C   0  0  0  0  0  0  0  0  0  0  0  0
  140.9780  159.7300  134.9210 N   0  0  0  0  0  0  0  0  0  0  0  0
  141.5740  161.6120  133.7060 O   0  0  0  0  0  0  0  0  0  0  0  0
  143.5870  158.6250  133.7090 N   0  0  0  0  0  0  0  0  0  0  0  0
  142.7110  157.4860  133.6840 C   0  0  0  0  0  0  0  0  0  0  0  0
  143.0360  156.4300  134.2920 O   0  0  0  0  0  0  0  0  0  0  0  0
  141.4900  157.5650  133.0060 O   0  0  0  0  0  0  0  0  0  0  0  0
  140.3530  156.7750  133.3470 C   0  0  0  0  0  0  0  0  0  0  0  0
  139.1470  157.6450  133.4980 C   0  0  0  0  0  0  0  0  0  0  0  0
  138.7370  157.9540  134.6510 O   0  0  0  0  0  0  0  0  0  0  0  0
  138.4910  158.1110  132.3540 O   0  0  0  0  0  0  0  0  0  0  0  0
  138.6930  159.4130  131.8040 C   0  0  0  0  0  0  0  0  0  0  0  0
  139.8570  159.3580  130.8170 C   0  0  0  0  0  0  0  0  0  0  0  0
  137.4190  159.8930  131.1040 C   0  0  0  0  0  0  0  0  0  0  0  0
  144.9270  158.6040  133.5350 C   0  0  0  0  0  0  0  0  0  0  0  0
  145.7590  157.4980  133.3220 C   0  0  0  0  0  0  0  0  0  0  0  0
  149.4544  154.8408  132.5800 H   0  0  0  0  0  0  0  0  0  0  0  0
  148.7274  159.2176  133.0351 H   0  0  0  0  0  0  0  0  0  0  0  0
  147.1740  161.1709  133.3814 H   0  0  0  0  0  0  0  0  0  0  0  0
  144.4212  161.8460  133.7750 H   0  0  0  0  0  0  0  0  0  0  0  0
  140.7500  158.7360  134.6960 H   0  0  0  0  0  0  0  0  0  0  0  0
  140.1715  156.0370  132.5517 H   0  0  0  0  0  0  0  0  0  0  0  0
  140.5460  156.2602  134.2998 H   0  0  0  0  0  0  0  0  0  0  0  0
  138.9300  160.1240  132.6092 H   0  0  0  0  0  0  0  0  0  0  0  0
  140.8060  159.3132  131.3714 H   0  0  0  0  0  0  0  0  0  0  0  0
  139.7593  158.4635  130.1843 H   0  0  0  0  0  0  0  0  0  0  0  0
  139.8441  160.2578  130.1843 H   0  0  0  0  0  0  0  0  0  0  0  0
  136.6701  160.1752  131.8587 H   0  0  0  0  0  0  0  0  0  0  0  0
  137.6524  160.7648  130.4752 H   0  0  0  0  0  0  0  0  0  0  0  0
  137.0191  159.0839  130.4752 H   0  0  0  0  0  0  0  0  0  0  0  0
  145.3486  156.4778  133.2959 H   0  0  0  0  0  0  0  0  0  0  0  0
  1  2  3  0
  2  3  1  0
  3  4  2  0
  4  5  1  0
  5  6  2  0
  6  7  1  0
  7  8  2  0
  8  9  1  0
  9 10  1  0
  9 11  2  0
  8 12  1  0
 12 13  1  0
 13 14  2  0
 13 15  1  0
 15 16  1  0
 16 17  1  0
 17 18  2  0
 17 19  1  0
 19 20  1  0
 20 21  1  0
 20 22  1  0
 12 23  1  0
 23 24  2  0
 24  3  1  0
 23  6  1  0
  1 25  1  0
  4 26  1  0
  5 27  1  0
  7 28  1  0
 10 29  1  0
 16 30  1  0
 16 31  1  0
 20 32  1  0
 21 33  1  0
 21 34  1  0
 21 35  1  0
 22 36  1  0
 22 37  1  0
 22 38  1  0
 24 39  1  0
M  CHG  1  10  -1
M  END
>  <UniqueID>  (44) 
44

>  <SMILES>  (44) 
C#Cc1ccc2cc(C([NH-])=O)n(C(=O)OCC(=O)OC(C)C)c2c1

>  <Energy>  (44) 
67.10835631443541

>  <Genealogy>  (44) 
C#Cc1ccc2cc(C([NH-])=O)n(C(=O)OCC(=O)OC(C)C)c2c1 (protonated)
C#Cc1ccc2cc(C([NH-])=O)n(C(=O)OCC(=O)OC(C)C)c2c1 (3D coordinates assigned)
C#Cc1ccc2cc(C([NH-])=O)n(C(=O)OCC(=O)OC(C)C)c2c1 (optimized conformer: 67.10835631443541 kcal/mol)

>  <smiles>  (44) 
C#Cc1ccc2cc(C(N)=O)n(C(=O)OCC(=O)OC(C)C)c2c1

>  <score_type>  (44) 
oracle

>  <origin>  (44) 
adg

>  <m_score__min__energy>  (44) 
-6.9199999999999999

>  <m_primary>  (44) 
energy

$$$$
45:0
     RDKit          3D

 36 38  0  0  0  0  0  0  0  0999 V2000
  148.6840  158.0020  131.7610 N   0  0  0  0  0  0  0  0  0  0  0  0
  148.3190  158.7280  132.9320 C   0  0  0  0  0  0  0  0  0  0  0  0
  149.2220  159.1300  133.7140 O   0  0  0  0  0  0  0  0  0  0  0  0
  146.8930  158.9630  133.2370 C   0  0  0  0  0  0  0  0  0  0  0  0
  146.3320  160.2330  133.3540 C   0  0  0  0  0  0  0  0  0  0  0  0
  144.9870  160.0230  133.5490 C   0  0  0  0  0  0  0  0  0  0  0  0
  143.9560  160.9380  133.7450 C   0  0  0  0  0  0  0  0  0  0  0  0
  142.6620  160.4360  133.9570 C   0  0  0  0  0  0  0  0  0  0  0  0
  142.4210  159.0400  133.9650 C   0  0  0  0  0  0  0  0  0  0  0  0
  141.0430  158.5140  134.2490 C   0  0  0  0  0  0  0  0  0  0  0  0
  140.1770  158.7440  133.0980 N   0  0  0  0  0  0  0  0  0  0  0  0
  139.4560  157.8250  132.4370 C   0  0  0  0  0  0  0  0  0  0  0  0
  138.7100  158.3970  131.4720 N   0  0  0  0  0  0  0  0  0  0  0  0
  139.0190  159.7070  131.6020 C   0  0  0  0  0  0  0  0  0  0  0  0
  139.9030  159.9330  132.5940 N   0  0  0  0  0  0  0  0  0  0  0  0
  143.4940  158.1410  133.7760 C   0  0  0  0  0  0  0  0  0  0  0  0
  144.7700  158.6690  133.5510 C   0  0  0  0  0  0  0  0  0  0  0  0
  145.9310  158.0030  133.3640 N   0  0  0  0  0  0  0  0  0  0  0  0
  146.1020  156.5770  133.3670 C   0  0  0  0  0  0  0  0  0  0  0  0
  146.5280  155.9920  132.3330 O   0  0  0  0  0  0  0  0  0  0  0  0
  145.8180  155.8470  134.5270 O   0  0  0  0  0  0  0  0  0  0  0  0
  146.1790  154.4790  134.7000 C   0  0  0  0  0  0  0  0  0  0  0  0
  147.0720  154.3220  135.8890 C   0  0  0  0  0  0  0  0  0  0  0  0
  147.9370  155.2000  136.1490 O   0  0  0  0  0  0  0  0  0  0  0  0
  146.9320  153.2230  136.7270 O   0  0  0  0  0  0  0  0  0  0  0  0
  148.1850  157.1220  131.4980 H   0  0  0  0  0  0  0  0  0  0  0  0
  146.8546  161.1995  133.3015 H   0  0  0  0  0  0  0  0  0  0  0  0
  144.1493  162.0208  133.7341 H   0  0  0  0  0  0  0  0  0  0  0  0
  141.8270  161.1336  134.1185 H   0  0  0  0  0  0  0  0  0  0  0  0
  141.0995  157.4346  134.4531 H   0  0  0  0  0  0  0  0  0  0  0  0
  140.6290  159.0366  135.1239 H   0  0  0  0  0  0  0  0  0  0  0  0
  139.4721  156.7468  132.6545 H   0  0  0  0  0  0  0  0  0  0  0  0
  138.5958  160.5003  130.9684 H   0  0  0  0  0  0  0  0  0  0  0  0
  143.3306  157.0536  133.8050 H   0  0  0  0  0  0  0  0  0  0  0  0
  145.2686  153.8799  134.8489 H   0  0  0  0  0  0  0  0  0  0  0  0
  146.7152  154.1353  133.8031 H   0  0  0  0  0  0  0  0  0  0  0  0
  1  2  1  0
  2  3  2  0
  2  4  1  0
  4  5  2  0
  5  6  1  0
  6  7  2  0
  7  8  1  0
  8  9  2  0
  9 10  1  0
 10 11  1  0
 11 12  1  0
 12 13  2  0
 13 14  1  0
 14 15  2  0
  9 16  1  0
 16 17  2  0
 17 18  1  0
 18 19  1  0
 19 20  2  0
 19 21  1  0
 21 22  1  0
 22 23  1  0
 23 24  2  0
 23 25  1  0
 18  4  1  0
 17  6  1  0
 15 11  1  0
  1 26  1  0
  5 27  1  0
  7 28  1  0
  8 29  1  0
 10 30  1  0
 10 31  1  0
 12 32  1  0
 14 33  1  0
 16 34  1  0
 22 35  1  0
 22 36  1  0
M  CHG  2   1  -1  25  -1
M  END
>  <UniqueID>  (45) 
45

>  <SMILES>  (45) 
[NH-]C(=O)c1cc2ccc(Cn3cncn3)cc2n1C(=O)OCC(=O)[O-]

>  <Energy>  (45) 
105.75901898906143

>  <Genealogy>  (45) 
[NH-]C(=O)c1cc2ccc(Cn3cncn3)cc2n1C(=O)OCC(=O)[O-] (protonated)
[NH-]C(=O)c1cc2ccc(Cn3cncn3)cc2n1C(=O)OCC(=O)[O-] (3D coordinates assigned)
[NH-]C(=O)c1cc2ccc(Cn3cncn3)cc2n1C(=O)OCC(=O)[O-] (optimized conformer: 105.75901898906143 kcal/mol)

>  <smiles>  (45) 
NC(=O)c1cc2ccc(Cn3cncn3)cc2n1C(=O)OCC(=O)O

>  <score_type>  (45) 
oracle

>  <origin>  (45) 
adg

>  <m_score__min__energy>  (45) 
-6.6900000000000004

>  <m_primary>  (45) 
energy

$$$$
46:0
     RDKit          3D

 38 40  0  0  0  0  0  0  0  0999 V2000
  149.5320  161.9410  130.3280 C   0  0  0  0  0  0  0  0  0  0  0  0
  149.1380  160.8050  131.1490 N   0  0  0  0  0  0  0  0  0  0  0  0
  147.8760  160.4450  131.4410 C   0  0  0  0  0  0  0  0  0  0  0  0
  147.9230  159.3670  132.3070 C   0  0  0  0  0  0  0  0  0  0  0  0
  146.7790  158.6340  132.9030 C   0  0  0  0  0  0  0  0  0  0  0  0
  145.4560  159.1340  132.7730 C   0  0  0  0  0  0  0  0  0  0  0  0
  144.3670  158.4490  133.3380 C   0  0  0  0  0  0  0  0  0  0  0  0
  144.6230  157.2660  134.0220 C   0  0  0  0  0  0  0  0  0  0  0  0
  143.7600  156.4180  134.6770 C   0  0  0  0  0  0  0  0  0  0  0  0
  144.5600  155.3970  135.1860 C   0  0  0  0  0  0  0  0  0  0  0  0
  144.0310  154.2060  135.8880 C   0  0  0  0  0  0  0  0  0  0  0  0
  144.6210  153.7550  137.1080 N   0  0  0  0  0  0  0  0  0  0  0  0
  143.0350  153.5890  135.4250 O   0  0  0  0  0  0  0  0  0  0  0  0
  145.8670  155.6080  134.8600 N   0  0  0  0  0  0  0  0  0  0  0  0
  147.0060  154.8180  135.2390 C   0  0  0  0  0  0  0  0  0  0  0  0
  147.6470  154.1760  134.3620 O   0  0  0  0  0  0  0  0  0  0  0  0
  147.3910  154.7550  136.5820 O   0  0  0  0  0  0  0  0  0  0  0  0
  147.9090  153.5770  137.1950 C   0  0  0  0  0  0  0  0  0  0  0  0
  147.1220  153.2380  138.4220 C   0  0  0  0  0  0  0  0  0  0  0  0
  146.2390  152.3430  138.3790 O   0  0  0  0  0  0  0  0  0  0  0  0
  147.3560  153.9190  139.6100 O   0  0  0  0  0  0  0  0  0  0  0  0
  145.8880  156.7560  134.1460 C   0  0  0  0  0  0  0  0  0  0  0  0
  146.9940  157.4250  133.6090 C   0  0  0  0  0  0  0  0  0  0  0  0
  149.2770  159.1370  132.5050 C   0  0  0  0  0  0  0  0  0  0  0  0
  149.9940  160.0290  131.7950 N   0  0  0  0  0  0  0  0  0  0  0  0
  149.8229  162.7796  130.9777 H   0  0  0  0  0  0  0  0  0  0  0  0
  150.3840  161.6565  129.6930 H   0  0  0  0  0  0  0  0  0  0  0  0
  148.6869  162.2451  129.6930 H   0  0  0  0  0  0  0  0  0  0  0  0
  146.9635  160.9248  131.0575 H   0  0  0  0  0  0  0  0  0  0  0  0
  145.2815  160.0702  132.2225 H   0  0  0  0  0  0  0  0  0  0  0  0
  143.3423  158.8372  133.2420 H   0  0  0  0  0  0  0  0  0  0  0  0
  142.6697  156.5236  134.7775 H   0  0  0  0  0  0  0  0  0  0  0  0
  145.4840  154.1990  137.4910 H   0  0  0  0  0  0  0  0  0  0  0  0
  144.2160  152.9350  137.6130 H   0  0  0  0  0  0  0  0  0  0  0  0
  147.8479  152.7409  136.4828 H   0  0  0  0  0  0  0  0  0  0  0  0
  148.9563  153.7545  137.4807 H   0  0  0  0  0  0  0  0  0  0  0  0
  148.0093  157.0202  133.7327 H   0  0  0  0  0  0  0  0  0  0  0  0
  149.6998  158.3475  133.1437 H   0  0  0  0  0  0  0  0  0  0  0  0
  1  2  1  0
  2  3  1  0
  3  4  2  0
  4  5  1  0
  5  6  2  0
  6  7  1  0
  7  8  2  0
  8  9  1  0
  9 10  2  0
 10 11  1  0
 11 12  1  0
 11 13  2  0
 10 14  1  0
 14 15  1  0
 15 16  2  0
 15 17  1  0
 17 18  1  0
 18 19  1  0
 19 20  2  0
 19 21  1  0
 14 22  1  0
 22 23  2  0
  4 24  1  0
 24 25  2  0
 25  2  1  0
 23  5  1  0
 22  8  1  0
  1 26  1  0
  1 27  1  0
  1 28  1  0
  3 29  1  0
  6 30  1  0
  7 31  1  0
  9 32  1  0
 12 33  1  0
 12 34  1  0
 18 35  1  0
 18 36  1  0
 23 37  1  0
 24 38  1  0
M  CHG  1  21  -1
M  END
>  <UniqueID>  (46) 
46

>  <SMILES>  (46) 
Cn1cc(-c2ccc3cc(C(N)=O)n(C(=O)OCC(=O)[O-])c3c2)cn1

>  <Energy>  (46) 
107.5677805753001

>  <Genealogy>  (46) 
Cn1cc(-c2ccc3cc(C(N)=O)n(C(=O)OCC(=O)[O-])c3c2)cn1 (protonated)
Cn1cc(-c2ccc3cc(C(N)=O)n(C(=O)OCC(=O)[O-])c3c2)cn1 (3D coordinates assigned)
Cn1cc(-c2ccc3cc(C(N)=O)n(C(=O)OCC(=O)[O-])c3c2)cn1 (optimized conformer: 107.5677805753001 kcal/mol)

>  <smiles>  (46) 
Cn1cc(-c2ccc3cc(C(N)=O)n(C(=O)OCC(=O)O)c3c2)cn1

>  <score_type>  (46) 
oracle

>  <origin>  (46) 
adg

>  <m_score__min__energy>  (46) 
-7.2400000000000002

>  <m_primary>  (46) 
energy

$$$$
47:0
     RDKit          3D

 33 34  0  0  0  0  0  0  0  0999 V2000
  148.1120  153.9460  133.9290 C   0  0  0  0  0  0  0  0  0  0  0  0
  147.5840  154.7860  135.0990 C   0  0  1  0  0  0  0  0  0  0  0  0
  145.8710  155.3780  134.7640 S   0  0  0  0  0  0  0  0  0  0  0  0
  146.1490  156.4360  133.3240 C   0  0  0  0  0  0  0  0  0  0  0  0
  146.6370  155.9390  132.2690 O   0  0  0  0  0  0  0  0  0  0  0  0
  146.0340  157.8690  133.4440 N   0  0  0  0  0  0  0  0  0  0  0  0
  146.9730  158.8310  133.1820 C   0  0  0  0  0  0  0  0  0  0  0  0
  148.4170  158.6270  132.9540 C   0  0  0  0  0  0  0  0  0  0  0  0
  148.8930  157.8590  131.8550 N   0  0  0  0  0  0  0  0  0  0  0  0
  149.2500  159.0880  133.7870 O   0  0  0  0  0  0  0  0  0  0  0  0
  146.4070  160.1030  133.2620 C   0  0  0  0  0  0  0  0  0  0  0  0
  145.0870  159.9000  133.5800 C   0  0  0  0  0  0  0  0  0  0  0  0
  144.0630  160.8200  133.7580 C   0  0  0  0  0  0  0  0  0  0  0  0
  142.7790  160.3290  134.0540 C   0  0  0  0  0  0  0  0  0  0  0  0
  142.5350  158.9310  134.1260 C   0  0  0  0  0  0  0  0  0  0  0  0
  141.1620  158.4210  134.4990 C   0  0  0  0  0  0  0  0  0  0  0  0
  141.0160  157.0990  134.1200 F   0  0  0  0  0  0  0  0  0  0  0  0
  140.2030  159.1810  133.8560 F   0  0  0  0  0  0  0  0  0  0  0  0
  140.9580  158.5040  135.8670 F   0  0  0  0  0  0  0  0  0  0  0  0
  143.6080  158.0280  133.9420 C   0  0  0  0  0  0  0  0  0  0  0  0
  144.8840  158.5430  133.6770 C   0  0  0  0  0  0  0  0  0  0  0  0
  147.7290  154.0970  136.4330 C   0  0  0  0  0  0  0  0  0  0  0  0
  146.9690  153.1360  136.7230 O   0  0  0  0  0  0  0  0  0  0  0  0
  148.6650  154.5290  137.3680 O   0  0  0  0  0  0  0  0  0  0  0  0
  148.6591  153.0756  134.3201 H   0  0  0  0  0  0  0  0  0  0  0  0
  147.2673  153.6021  133.3140 H   0  0  0  0  0  0  0  0  0  0  0  0
  148.7881  154.5580  133.3140 H   0  0  0  0  0  0  0  0  0  0  0  0
  148.2227  155.6781  135.1774 H   0  0  0  0  0  0  0  0  0  0  0  0
  148.3270  157.0650  131.4780 H   0  0  0  0  0  0  0  0  0  0  0  0
  146.9124  161.0671  133.1035 H   0  0  0  0  0  0  0  0  0  0  0  0
  144.2502  161.9004  133.6702 H   0  0  0  0  0  0  0  0  0  0  0  0
  141.9544  161.0349  134.2318 H   0  0  0  0  0  0  0  0  0  0  0  0
  143.4440  156.9422  134.0057 H   0  0  0  0  0  0  0  0  0  0  0  0
  1  2  1  0
  2  3  1  0
  3  4  1  0
  4  5  2  0
  4  6  1  0
  6  7  1  0
  7  8  1  0
  8  9  1  0
  8 10  2  0
  7 11  2  0
 11 12  1  0
 12 13  2  0
 13 14  1  0
 14 15  2  0
 15 16  1  0
 16 17  1  0
 16 18  1  0
 16 19  1  0
 15 20  1  0
 20 21  2  0
  2 22  1  0
 22 23  2  0
 22 24  1  0
 21  6  1  0
 21 12  1  0
  1 25  1  0
  1 26  1  0
  1 27  1  0
  2 28  1  1
  9 29  1  0
 11 30  1  0
 13 31  1  0
 14 32  1  0
 20 33  1  0
M  CHG  2   9  -1  24  -1
M  END
>  <UniqueID>  (47) 
47

>  <SMILES>  (47) 
C[C@@H](SC(=O)n1c(C([NH-])=O)cc2ccc(C(F)(F)F)cc21)C(=O)[O-]

>  <Energy>  (47) 
82.08356986715053

>  <Genealogy>  (47) 
CC(SC(=O)n1c(C([NH-])=O)cc2ccc(C(F)(F)F)cc21)C(=O)[O-] (protonated)
C[C@@H](SC(=O)n1c(C([NH-])=O)cc2ccc(C(F)(F)F)cc21)C(=O)[O-] (chirality)
C[C@@H](SC(=O)n1c(C([NH-])=O)cc2ccc(C(F)(F)F)cc21)C(=O)[O-] (3D coordinates assigned)
C[C@@H](SC(=O)n1c(C([NH-])=O)cc2ccc(C(F)(F)F)cc21)C(=O)[O-] (optimized conformer: 82.08356986715053 kcal/mol)

>  <smiles>  (47) 
CC(SC(=O)n1c(C(N)=O)cc2ccc(C(F)(F)F)cc21)C(=O)O

>  <score_type>  (47) 
oracle

>  <origin>  (47) 
adg

>  <m_score__min__energy>  (47) 
-6.79

>  <m_primary>  (47) 
energy

$$$$
48:0
     RDKit          3D

 40 41  0  0  0  0  0  0  0  0999 V2000
  139.5640  157.5340  135.7620 C   0  0  0  0  0  0  0  0  0  0  0  0
  140.3810  158.1080  134.6900 N   0  0  0  0  0  0  0  0  0  0  0  0
  140.1250  157.7470  133.2890 C   0  0  0  0  0  0  0  0  0  0  0  0
  139.7810  158.9900  132.4710 C   0  0  0  0  0  0  0  0  0  0  0  0
  140.9560  159.6860  132.1630 O   0  0  0  0  0  0  0  0  0  0  0  0
  141.4500  159.0150  135.0190 C   0  0  0  0  0  0  0  0  0  0  0  0
  141.1840  160.1830  135.4170 O   0  0  0  0  0  0  0  0  0  0  0  0
  142.7810  158.5910  134.8890 O   0  0  0  0  0  0  0  0  0  0  0  0
  143.4700  158.4390  133.6790 C   0  0  0  0  0  0  0  0  0  0  0  0
  142.9550  157.7980  132.7210 O   0  0  0  0  0  0  0  0  0  0  0  0
  144.7760  159.0210  133.5340 N   0  0  0  0  0  0  0  0  0  0  0  0
  145.1030  160.3400  133.6350 C   0  0  0  0  0  0  0  0  0  0  0  0
  144.1470  161.4620  133.7340 C   0  0  0  0  0  0  0  0  0  0  0  0
  142.7370  161.2330  133.7310 N   0  0  0  0  0  0  0  0  0  0  0  0
  144.5810  162.6430  133.7650 O   0  0  0  0  0  0  0  0  0  0  0  0
  146.4820  160.5130  133.5820 C   0  0  0  0  0  0  0  0  0  0  0  0
  147.0000  159.2480  133.4330 C   0  0  0  0  0  0  0  0  0  0  0  0
  148.3230  158.8330  133.3290 C   0  0  0  0  0  0  0  0  0  0  0  0
  148.5750  157.4550  133.2150 C   0  0  0  0  0  0  0  0  0  0  0  0
  147.5100  156.5190  133.2340 C   0  0  0  0  0  0  0  0  0  0  0  0
  147.7910  155.0460  133.0750 C   0  0  0  0  0  0  0  0  0  0  0  0
  148.0110  154.4540  134.3060 F   0  0  0  0  0  0  0  0  0  0  0  0
  146.7200  154.4070  132.4730 F   0  0  0  0  0  0  0  0  0  0  0  0
  148.9150  154.8810  132.2880 F   0  0  0  0  0  0  0  0  0  0  0  0
  146.1760  156.9830  133.3180 C   0  0  0  0  0  0  0  0  0  0  0  0
  145.9520  158.3630  133.4090 C   0  0  0  0  0  0  0  0  0  0  0  0
  139.9805  157.8266  136.7372 H   0  0  0  0  0  0  0  0  0  0  0  0
  138.5327  157.9071  135.6769 H   0  0  0  0  0  0  0  0  0  0  0  0
  139.5654  156.4373  135.6769 H   0  0  0  0  0  0  0  0  0  0  0  0
  141.0237  157.2732  132.8672 H   0  0  0  0  0  0  0  0  0  0  0  0
  139.2754  157.0494  133.2508 H   0  0  0  0  0  0  0  0  0  0  0  0
  139.2786  158.6888  131.5400 H   0  0  0  0  0  0  0  0  0  0  0  0
  139.1124  159.6397  133.0549 H   0  0  0  0  0  0  0  0  0  0  0  0
  141.5920  159.0120  131.8100 H   0  0  0  0  0  0  0  0  0  0  0  0
  142.0760  162.0340  133.8360 H   0  0  0  0  0  0  0  0  0  0  0  0
  142.3450  160.2820  133.5530 H   0  0  0  0  0  0  0  0  0  0  0  0
  147.0391  161.4594  133.6457 H   0  0  0  0  0  0  0  0  0  0  0  0
  149.1475  159.5611  133.3357 H   0  0  0  0  0  0  0  0  0  0  0  0
  149.6103  157.0985  133.1098 H   0  0  0  0  0  0  0  0  0  0  0  0
  145.3334  156.2759  133.3120 H   0  0  0  0  0  0  0  0  0  0  0  0
  1  2  1  0
  2  3  1  0
  3  4  1  0
  4  5  1  0
  2  6  1  0
  6  7  2  0
  6  8  1  0
  8  9  1  0
  9 10  2  0
  9 11  1  0
 11 12  1  0
 12 13  1  0
 13 14  1  0
 13 15  2  0
 12 16  2  0
 16 17  1  0
 17 18  2  0
 18 19  1  0
 19 20  2  0
 20 21  1  0
 21 22  1  0
 21 23  1  0
 21 24  1  0
 20 25  1  0
 25 26  2  0
 26 11  1  0
 26 17  1  0
  1 27  1  0
  1 28  1  0
  1 29  1  0
  3 30  1  0
  3 31  1  0
  4 32  1  0
  4 33  1  0
  5 34  1  0
 14 35  1  0
 14 36  1  0
 16 37  1  0
 18 38  1  0
 19 39  1  0
 25 40  1  0
M  END
>  <UniqueID>  (48) 
48

>  <SMILES>  (48) 
CN(CCO)C(=O)OC(=O)n1c(C(N)=O)cc2ccc(C(F)(F)F)cc21

>  <Energy>  (48) 
74.30167010227893

>  <Genealogy>  (48) 
CN(CCO)C(=O)OC(=O)n1c(C(N)=O)cc2ccc(C(F)(F)F)cc21 (3D coordinates assigned)
CN(CCO)C(=O)OC(=O)n1c(C(N)=O)cc2ccc(C(F)(F)F)cc21 (optimized conformer: 74.30167010227893 kcal/mol)

>  <smiles>  (48) 
CN(CCO)C(=O)OC(=O)n1c(C(N)=O)cc2ccc(C(F)(F)F)cc21

>  <score_type>  (48) 
oracle

>  <origin>  (48) 
adg

>  <m_score__min__energy>  (48) 
-5.9299999999999997

>  <m_primary>  (48) 
energy

$$$$
49:0
     RDKit          3D

 44 45  0  0  0  0  0  0  0  0999 V2000
  145.4460  162.7570  134.9190 C   0  0  0  0  0  0  0  0  0  0  0  0
  144.6130  162.6040  133.7130 N   0  0  0  0  0  0  0  0  0  0  0  0
  143.8820  163.8540  133.4560 C   0  0  0  0  0  0  0  0  0  0  0  0
  143.6750  161.4690  133.8550 C   0  0  0  0  0  0  0  0  0  0  0  0
  144.4160  160.1280  133.7660 C   0  0  0  0  0  0  0  0  0  0  0  0
  145.6730  160.2720  133.0300 N   0  0  0  0  0  0  0  0  0  0  0  0
  146.6560  159.2300  132.8880 C   0  0  0  0  0  0  0  0  0  0  0  0
  147.9890  159.5150  132.4860 C   0  0  0  0  0  0  0  0  0  0  0  0
  148.9340  158.4830  132.3560 C   0  0  0  0  0  0  0  0  0  0  0  0
  148.5250  157.1830  132.6330 C   0  0  0  0  0  0  0  0  0  0  0  0
  149.2370  156.0060  132.6020 C   0  0  0  0  0  0  0  0  0  0  0  0
  148.3310  155.0160  132.9760 C   0  0  0  0  0  0  0  0  0  0  0  0
  148.6470  153.5700  132.9870 C   0  0  0  0  0  0  0  0  0  0  0  0
  147.8390  152.6520  133.7240 N   0  0  0  0  0  0  0  0  0  0  0  0
  149.6540  153.1370  132.3660 O   0  0  0  0  0  0  0  0  0  0  0  0
  147.1070  155.5610  133.2310 N   0  0  0  0  0  0  0  0  0  0  0  0
  145.9220  154.8860  133.6840 C   0  0  0  0  0  0  0  0  0  0  0  0
  145.4210  153.9590  132.9900 O   0  0  0  0  0  0  0  0  0  0  0  0
  145.3360  155.2520  134.9010 O   0  0  0  0  0  0  0  0  0  0  0  0
  145.1680  154.3500  135.9920 C   0  0  0  0  0  0  0  0  0  0  0  0
  146.4850  153.7740  136.4010 C   0  0  0  0  0  0  0  0  0  0  0  0
  146.5320  152.8400  137.2440 O   0  0  0  0  0  0  0  0  0  0  0  0
  147.6610  154.2520  135.8370 O   0  0  0  0  0  0  0  0  0  0  0  0
  147.2430  156.8880  133.0160 C   0  0  0  0  0  0  0  0  0  0  0  0
  146.2880  157.8980  133.1760 C   0  0  0  0  0  0  0  0  0  0  0  0
  144.8185  162.6417  135.8151 H   0  0  0  0  0  0  0  0  0  0  0  0
  146.2329  161.9884  134.9211 H   0  0  0  0  0  0  0  0  0  0  0  0
  145.9084  163.7551  134.9211 H   0  0  0  0  0  0  0  0  0  0  0  0
  143.6083  164.3221  134.4131 H   0  0  0  0  0  0  0  0  0  0  0  0
  144.5208  164.5408  132.8814 H   0  0  0  0  0  0  0  0  0  0  0  0
  142.9702  163.6340  132.8814 H   0  0  0  0  0  0  0  0  0  0  0  0
  143.1722  161.5379  134.8309 H   0  0  0  0  0  0  0  0  0  0  0  0
  142.9399  161.5178  133.0381 H   0  0  0  0  0  0  0  0  0  0  0  0
  144.6334  159.7688  134.7827 H   0  0  0  0  0  0  0  0  0  0  0  0
  143.7773  159.4090  133.2321 H   0  0  0  0  0  0  0  0  0  0  0  0
  145.9160  161.2280  132.6870 H   0  0  0  0  0  0  0  0  0  0  0  0
  148.2839  160.5534  132.2745 H   0  0  0  0  0  0  0  0  0  0  0  0
  149.9669  158.6972  132.0443 H   0  0  0  0  0  0  0  0  0  0  0  0
  150.2967  155.8746  132.3380 H   0  0  0  0  0  0  0  0  0  0  0  0
  148.0950  151.6400  133.7590 H   0  0  0  0  0  0  0  0  0  0  0  0
  146.9650  152.9610  134.2030 H   0  0  0  0  0  0  0  0  0  0  0  0
  144.7285  154.8897  136.8438 H   0  0  0  0  0  0  0  0  0  0  0  0
  144.5032  153.5316  135.6785 H   0  0  0  0  0  0  0  0  0  0  0  0
  145.2707  157.6588  133.5194 H   0  0  0  0  0  0  0  0  0  0  0  0
  1  2  1  0
  2  3  1  0
  2  4  1  0
  4  5  1  0
  5  6  1  0
  6  7  1  0
  7  8  2  0
  8  9  1  0
  9 10  2  0
 10 11  1  0
 11 12  2  0
 12 13  1  0
 13 14  1  0
 13 15  2  0
 12 16  1  0
 16 17  1  0
 17 18  2  0
 17 19  1  0
 19 20  1  0
 20 21  1  0
 21 22  2  0
 21 23  1  0
 16 24  1  0
 24 25  2  0
 25  7  1  0
 24 10  1  0
  1 26  1  0
  1 27  1  0
  1 28  1  0
  3 29  1  0
  3 30  1  0
  3 31  1  0
  4 32  1  0
  4 33  1  0
  5 34  1  0
  5 35  1  0
  6 36  1  0
  8 37  1  0
  9 38  1  0
 11 39  1  0
 14 40  1  0
 14 41  1  0
 20 42  1  0
 20 43  1  0
 25 44  1  0
M  CHG  1  23  -1
M  END
>  <UniqueID>  (49) 
49

>  <SMILES>  (49) 
CN(C)CCNc1ccc2cc(C(N)=O)n(C(=O)OCC(=O)[O-])c2c1

>  <Energy>  (49) 
79.18378644564974

>  <Genealogy>  (49) 
CN(C)CCNc1ccc2cc(C(N)=O)n(C(=O)OCC(=O)[O-])c2c1 (protonated)
CN(C)CCNc1ccc2cc(C(N)=O)n(C(=O)OCC(=O)[O-])c2c1 (3D coordinates assigned)
CN(C)CCNc1ccc2cc(C(N)=O)n(C(=O)OCC(=O)[O-])c2c1 (optimized conformer: 79.18378644564974 kcal/mol)

>  <smiles>  (49) 
CN(C)CCNc1ccc2cc(C(N)=O)n(C(=O)OCC(=O)O)c2c1

>  <score_type>  (49) 
oracle

>  <origin>  (49) 
adg

>  <m_score__min__energy>  (49) 
-6.9100000000000001

>  <m_primary>  (49) 
energy

$$$$
50:0
     RDKit          3D

 29 30  0  0  0  0  0  0  0  0999 V2000
  148.5260  159.7400  131.2290 C   0  0  0  0  0  0  0  0  0  0  0  0
  148.6690  159.3460  132.4930 C   0  0  0  0  0  0  0  0  0  0  0  0
  148.0050  158.1430  133.0290 C   0  0  0  0  0  0  0  0  0  0  0  0
  148.6850  157.1380  133.3720 O   0  0  0  0  0  0  0  0  0  0  0  0
  146.5730  158.1030  133.1470 N   0  0  0  0  0  0  0  0  0  0  0  0
  145.7670  157.0100  133.0360 C   0  0  0  0  0  0  0  0  0  0  0  0
  146.2140  155.6520  132.6460 C   0  0  0  0  0  0  0  0  0  0  0  0
  147.4050  155.4650  131.8790 N   0  0  0  0  0  0  0  0  0  0  0  0
  145.5540  154.6430  133.0060 O   0  0  0  0  0  0  0  0  0  0  0  0
  144.4370  157.3620  133.2710 C   0  0  0  0  0  0  0  0  0  0  0  0
  144.4590  158.7120  133.5390 C   0  0  0  0  0  0  0  0  0  0  0  0
  143.4160  159.5790  133.8480 C   0  0  0  0  0  0  0  0  0  0  0  0
  143.7320  160.9240  134.1040 C   0  0  0  0  0  0  0  0  0  0  0  0
  145.0790  161.3710  134.0750 C   0  0  0  0  0  0  0  0  0  0  0  0
  145.4020  162.8250  134.3170 C   0  0  0  0  0  0  0  0  0  0  0  0
  146.6260  163.1520  133.7590 F   0  0  0  0  0  0  0  0  0  0  0  0
  144.4200  163.6090  133.7430 F   0  0  0  0  0  0  0  0  0  0  0  0
  145.4590  163.0930  135.6730 F   0  0  0  0  0  0  0  0  0  0  0  0
  146.1070  160.4620  133.7340 C   0  0  0  0  0  0  0  0  0  0  0  0
  145.7590  159.1340  133.4630 C   0  0  0  0  0  0  0  0  0  0  0  0
  149.0410  160.6446  130.8733 H   0  0  0  0  0  0  0  0  0  0  0  0
  147.8929  159.1609  130.5407 H   0  0  0  0  0  0  0  0  0  0  0  0
  149.3070  159.9407  133.1632 H   0  0  0  0  0  0  0  0  0  0  0  0
  147.9480  156.2740  131.5050 H   0  0  0  0  0  0  0  0  0  0  0  0
  147.7290  154.5000  131.6430 H   0  0  0  0  0  0  0  0  0  0  0  0
  143.5580  156.7011  133.2471 H   0  0  0  0  0  0  0  0  0  0  0  0
  142.3762  159.2227  133.8906 H   0  0  0  0  0  0  0  0  0  0  0  0
  142.9266  161.6385  134.3294 H   0  0  0  0  0  0  0  0  0  0  0  0
  147.1554  160.7910  133.6829 H   0  0  0  0  0  0  0  0  0  0  0  0
  1  2  2  0
  2  3  1  0
  3  4  2  0
  3  5  1  0
  5  6  1  0
  6  7  1  0
  7  8  1  0
  7  9  2  0
  6 10  2  0
 10 11  1  0
 11 12  2  0
 12 13  1  0
 13 14  2  0
 14 15  1  0
 15 16  1  0
 15 17  1  0
 15 18  1  0
 14 19  1  0
 19 20  2  0
 20  5  1  0
 20 11  1  0
  1 21  1  0
  1 22  1  0
  2 23  1  0
  8 24  1  0
  8 25  1  0
 10 26  1  0
 12 27  1  0
 13 28  1  0
 19 29  1  0
M  END
>  <UniqueID>  (50) 
50

>  <SMILES>  (50) 
C=CC(=O)n1c(C(N)=O)cc2ccc(C(F)(F)F)cc21

>  <Energy>  (50) 
67.97626747110321

>  <Genealogy>  (50) 
C=CC(=O)n1c(C(N)=O)cc2ccc(C(F)(F)F)cc21 (3D coordinates assigned)
C=CC(=O)n1c(C(N)=O)cc2ccc(C(F)(F)F)cc21 (optimized conformer: 67.97626747110321 kcal/mol)

>  <smiles>  (50) 
C=CC(=O)n1c(C(N)=O)cc2ccc(C(F)(F)F)cc21

>  <score_type>  (50) 
oracle

>  <origin>  (50) 
adg

>  <m_score__min__energy>  (50) 
-6.5700000000000003

>  <m_primary>  (50) 
energy

$$$$
51:0
     RDKit          3D

 39 40  0  0  0  0  0  0  0  0999 V2000
  143.0910  161.2620  133.7300 N   0  0  0  0  0  0  0  0  0  0  0  0
  144.5030  161.4340  133.8160 C   0  0  0  0  0  0  0  0  0  0  0  0
  144.9660  162.5530  134.1630 O   0  0  0  0  0  0  0  0  0  0  0  0
  145.4260  160.3070  133.5620 C   0  0  0  0  0  0  0  0  0  0  0  0
  146.7950  160.4710  133.3620 C   0  0  0  0  0  0  0  0  0  0  0  0
  147.3030  159.1970  133.2530 C   0  0  0  0  0  0  0  0  0  0  0  0
  148.6100  158.7720  133.0430 C   0  0  0  0  0  0  0  0  0  0  0  0
  148.8470  157.3900  132.9470 C   0  0  0  0  0  0  0  0  0  0  0  0
  147.7760  156.4630  133.0370 C   0  0  0  0  0  0  0  0  0  0  0  0
  148.0450  154.9810  132.9740 C   0  0  0  0  0  0  0  0  0  0  0  0
  148.1860  154.4520  134.2450 F   0  0  0  0  0  0  0  0  0  0  0  0
  149.2100  154.7280  132.2690 F   0  0  0  0  0  0  0  0  0  0  0  0
  146.9890  154.3540  132.3390 F   0  0  0  0  0  0  0  0  0  0  0  0
  146.4630  156.9360  133.2730 C   0  0  0  0  0  0  0  0  0  0  0  0
  146.2610  158.3170  133.3820 C   0  0  0  0  0  0  0  0  0  0  0  0
  145.0990  158.9830  133.5700 N   0  0  0  0  0  0  0  0  0  0  0  0
  143.7880  158.4020  133.6500 C   0  0  0  0  0  0  0  0  0  0  0  0
  143.1070  158.2370  132.6020 O   0  0  0  0  0  0  0  0  0  0  0  0
  143.2680  158.0350  134.8930 O   0  0  0  0  0  0  0  0  0  0  0  0
  141.8690  157.9670  135.1550 C   0  0  0  0  0  0  0  0  0  0  0  0
  141.2530  159.1950  134.7850 O   0  0  0  0  0  0  0  0  0  0  0  0
  140.6020  159.3790  133.5610 C   0  0  0  0  0  0  0  0  0  0  0  0
  140.5800  160.5120  133.0060 O   0  0  0  0  0  0  0  0  0  0  0  0
  139.8890  158.2250  132.9270 C   0  0  0  0  0  0  0  0  0  0  0  0
  138.4490  158.5920  132.5560 C   0  0  0  0  0  0  0  0  0  0  0  0
  138.3750  159.2520  131.2120 C   0  0  0  0  0  0  0  0  0  0  0  0
  139.2830  159.0590  130.3620 O   0  0  0  0  0  0  0  0  0  0  0  0
  137.3210  160.1080  130.9130 O   0  0  0  0  0  0  0  0  0  0  0  0
  142.6730  160.3200  133.5630 H   0  0  0  0  0  0  0  0  0  0  0  0
  147.3516  161.4180  133.3036 H   0  0  0  0  0  0  0  0  0  0  0  0
  149.4338  159.4956  132.9546 H   0  0  0  0  0  0  0  0  0  0  0  0
  149.8735  157.0229  132.8006 H   0  0  0  0  0  0  0  0  0  0  0  0
  145.6209  156.2348  133.3685 H   0  0  0  0  0  0  0  0  0  0  0  0
  141.4270  157.1456  134.5719 H   0  0  0  0  0  0  0  0  0  0  0  0
  141.7070  157.7862  136.2279 H   0  0  0  0  0  0  0  0  0  0  0  0
  140.4286  157.9282  132.0156 H   0  0  0  0  0  0  0  0  0  0  0  0
  139.8593  157.3972  133.6507 H   0  0  0  0  0  0  0  0  0  0  0  0
  137.8409  157.6756  132.5373 H   0  0  0  0  0  0  0  0  0  0  0  0
  138.0705  159.3003  133.3077 H   0  0  0  0  0  0  0  0  0  0  0  0
  1  2  1  0
  2  3  2  0
  2  4  1  0
  4  5  2  0
  5  6  1  0
  6  7  2  0
  7  8  1  0
  8  9  2  0
  9 10  1  0
 10 11  1  0
 10 12  1  0
 10 13  1  0
  9 14  1  0
 14 15  2  0
 15 16  1  0
 16 17  1  0
 17 18  2  0
 17 19  1  0
 19 20  1  0
 20 21  1  0
 21 22  1  0
 22 23  2  0
 22 24  1  0
 24 25  1  0
 25 26  1  0
 26 27  2  0
 26 28  1  0
 16  4  1  0
 15  6  1  0
  1 29  1  0
  5 30  1  0
  7 31  1  0
  8 32  1  0
 14 33  1  0
 20 34  1  0
 20 35  1  0
 24 36  1  0
 24 37  1  0
 25 38  1  0
 25 39  1  0
M  CHG  2   1  -1  28  -1
M  END
>  <UniqueID>  (51) 
51

>  <SMILES>  (51) 
[NH-]C(=O)c1cc2ccc(C(F)(F)F)cc2n1C(=O)OCOC(=O)CCC(=O)[O-]

>  <Energy>  (51) 
70.84990954665741

>  <Genealogy>  (51) 
[NH-]C(=O)c1cc2ccc(C(F)(F)F)cc2n1C(=O)OCOC(=O)CCC(=O)[O-] (protonated)
[NH-]C(=O)c1cc2ccc(C(F)(F)F)cc2n1C(=O)OCOC(=O)CCC(=O)[O-] (3D coordinates assigned)
[NH-]C(=O)c1cc2ccc(C(F)(F)F)cc2n1C(=O)OCOC(=O)CCC(=O)[O-] (optimized conformer: 70.84990954665741 kcal/mol)

>  <smiles>  (51) 
NC(=O)c1cc2ccc(C(F)(F)F)cc2n1C(=O)OCOC(=O)CCC(=O)O

>  <score_type>  (51) 
oracle

>  <origin>  (51) 
adg

>  <m_score__min__energy>  (51) 
-6.3499999999999996

>  <m_primary>  (51) 
energy

$$$$
52:0
     RDKit          3D

 42 43  0  0  0  0  0  0  0  0999 V2000
  149.1380  153.7020  132.9250 C   0  0  0  0  0  0  0  0  0  0  0  0
  147.8030  154.0790  133.6030 C   0  0  0  0  0  0  0  0  0  0  0  0
  146.6690  153.2550  132.9650 C   0  0  0  0  0  0  0  0  0  0  0  0
  147.9200  153.7030  135.0280 C   0  0  0  0  0  0  0  0  0  0  0  0
  148.0120  153.4090  136.1440 N   0  0  0  0  0  0  0  0  0  0  0  0
  147.4630  155.5730  133.4940 C   0  0  0  0  0  0  0  0  0  0  0  0
  148.5130  156.5170  133.2910 C   0  0  0  0  0  0  0  0  0  0  0  0
  148.2550  157.8970  133.2360 C   0  0  0  0  0  0  0  0  0  0  0  0
  146.9420  158.3200  133.3900 C   0  0  0  0  0  0  0  0  0  0  0  0
  146.4230  159.5950  133.4330 C   0  0  0  0  0  0  0  0  0  0  0  0
  145.0580  159.4290  133.6530 C   0  0  0  0  0  0  0  0  0  0  0  0
  144.1030  160.5510  133.7640 C   0  0  0  0  0  0  0  0  0  0  0  0
  142.7800  160.4570  133.2350 N   0  0  0  0  0  0  0  0  0  0  0  0
  144.4780  161.6280  134.2990 O   0  0  0  0  0  0  0  0  0  0  0  0
  144.7460  158.1050  133.7430 N   0  0  0  0  0  0  0  0  0  0  0  0
  143.4770  157.5360  134.0990 C   0  0  0  0  0  0  0  0  0  0  0  0
  143.3790  156.8320  135.1390 O   0  0  0  0  0  0  0  0  0  0  0  0
  142.2800  157.7880  133.2830 C   0  0  0  0  0  0  0  0  0  0  0  0
  142.2760  157.4850  132.0590 O   0  0  0  0  0  0  0  0  0  0  0  0
  141.1570  158.3770  133.8750 O   0  0  0  0  0  0  0  0  0  0  0  0
  139.8310  158.2170  133.3740 C   0  0  0  0  0  0  0  0  0  0  0  0
  139.4510  159.3780  132.4540 C   0  0  0  0  0  0  0  0  0  0  0  0
  140.5950  160.0750  132.0420 O   0  0  0  0  0  0  0  0  0  0  0  0
  145.9120  157.4400  133.5860 C   0  0  0  0  0  0  0  0  0  0  0  0
  146.1410  156.0640  133.6760 C   0  0  0  0  0  0  0  0  0  0  0  0
  149.8933  153.4887  133.6958 H   0  0  0  0  0  0  0  0  0  0  0  0
  148.9918  152.8100  132.2981 H   0  0  0  0  0  0  0  0  0  0  0  0
  149.4800  154.5387  132.2981 H   0  0  0  0  0  0  0  0  0  0  0  0
  146.0515  152.8063  133.7570 H   0  0  0  0  0  0  0  0  0  0  0  0
  146.0448  153.9117  132.3411 H   0  0  0  0  0  0  0  0  0  0  0  0
  147.1008  152.4585  132.3411 H   0  0  0  0  0  0  0  0  0  0  0  0
  149.5460  156.1571  133.1751 H   0  0  0  0  0  0  0  0  0  0  0  0
  149.0685  158.6199  133.0758 H   0  0  0  0  0  0  0  0  0  0  0  0
  146.9700  160.5424  133.3181 H   0  0  0  0  0  0  0  0  0  0  0  0
  142.1040  161.2400  133.3760 H   0  0  0  0  0  0  0  0  0  0  0  0
  142.4980  159.6650  132.6170 H   0  0  0  0  0  0  0  0  0  0  0  0
  139.7708  157.2752  132.8089 H   0  0  0  0  0  0  0  0  0  0  0  0
  139.1337  158.2001  134.2246 H   0  0  0  0  0  0  0  0  0  0  0  0
  138.9301  158.9829  131.5694 H   0  0  0  0  0  0  0  0  0  0  0  0
  138.7947  160.0675  133.0053 H   0  0  0  0  0  0  0  0  0  0  0  0
  141.3110  159.3970  131.9170 H   0  0  0  0  0  0  0  0  0  0  0  0
  145.3117  155.3720  133.8843 H   0  0  0  0  0  0  0  0  0  0  0  0
  1  2  1  0
  2  3  1  0
  2  4  1  0
  4  5  3  0
  2  6  1  0
  6  7  2  0
  7  8  1  0
  8  9  2  0
  9 10  1  0
 10 11  2  0
 11 12  1  0
 12 13  1  0
 12 14  2  0
 11 15  1  0
 15 16  1  0
 16 17  2  0
 16 18  1  0
 18 19  2  0
 18 20  1  0
 20 21  1  0
 21 22  1  0
 22 23  1  0
 15 24  1  0
 24 25  2  0
 25  6  1  0
 24  9  1  0
  1 26  1  0
  1 27  1  0
  1 28  1  0
  3 29  1  0
  3 30  1  0
  3 31  1  0
  7 32  1  0
  8 33  1  0
 10 34  1  0
 13 35  1  0
 13 36  1  0
 21 37  1  0
 21 38  1  0
 22 39  1  0
 22 40  1  0
 23 41  1  0
 25 42  1  0
M  END
>  <UniqueID>  (52) 
52

>  <SMILES>  (52) 
CC(C)(C#N)c1ccc2cc(C(N)=O)n(C(=O)C(=O)OCCO)c2c1

>  <Energy>  (52) 
78.8481574108994

>  <Genealogy>  (52) 
CC(C)(C#N)c1ccc2cc(C(N)=O)n(C(=O)C(=O)OCCO)c2c1 (3D coordinates assigned)
CC(C)(C#N)c1ccc2cc(C(N)=O)n(C(=O)C(=O)OCCO)c2c1 (optimized conformer: 78.8481574108994 kcal/mol)

>  <smiles>  (52) 
CC(C)(C#N)c1ccc2cc(C(N)=O)n(C(=O)C(=O)OCCO)c2c1

>  <score_type>  (52) 
oracle

>  <origin>  (52) 
adg

>  <m_score__min__energy>  (52) 
-6.8799999999999999

>  <m_primary>  (52) 
energy

$$$$
53:0
     RDKit          3D

 30 31  0  0  0  0  0  0  0  0999 V2000
  145.0080  154.0230  134.7890 C   0  0  0  0  0  0  0  0  0  0  0  0
  146.0380  154.8890  135.5230 C   0  0  1  0  0  0  0  0  0  0  0  0
  146.8340  154.0830  136.5150 C   0  0  0  0  0  0  0  0  0  0  0  0
  146.3550  153.0170  136.9850 O   0  0  0  0  0  0  0  0  0  0  0  0
  148.0730  154.5280  136.9620 O   0  0  0  0  0  0  0  0  0  0  0  0
  146.9570  155.5910  134.5450 C   0  0  0  0  0  0  0  0  0  0  0  0
  148.0200  154.8910  133.9150 C   0  0  0  0  0  0  0  0  0  0  0  0
  148.8600  155.5360  132.9930 C   0  0  0  0  0  0  0  0  0  0  0  0
  148.6230  156.8800  132.7250 C   0  0  0  0  0  0  0  0  0  0  0  0
  149.2610  157.7310  131.8520 C   0  0  0  0  0  0  0  0  0  0  0  0
  148.6010  158.9500  131.9790 C   0  0  0  0  0  0  0  0  0  0  0  0
  149.0100  160.1720  131.2580 C   0  0  0  0  0  0  0  0  0  0  0  0
  148.0890  161.2400  131.0330 N   0  0  0  0  0  0  0  0  0  0  0  0
  150.2060  160.2990  130.8860 O   0  0  0  0  0  0  0  0  0  0  0  0
  147.5850  158.8560  132.8830 N   0  0  0  0  0  0  0  0  0  0  0  0
  146.6040  159.8610  133.1940 C   0  0  0  0  0  0  0  0  0  0  0  0
  146.9610  160.9900  133.6220 O   0  0  0  0  0  0  0  0  0  0  0  0
  145.2500  159.5940  133.0330 O   0  0  0  0  0  0  0  0  0  0  0  0
  147.6130  157.5810  133.3330 C   0  0  0  0  0  0  0  0  0  0  0  0
  146.7480  156.9570  134.2400 C   0  0  0  0  0  0  0  0  0  0  0  0
  144.3815  153.4963  135.5239 H   0  0  0  0  0  0  0  0  0  0  0  0
  144.3737  154.6631  134.1582 H   0  0  0  0  0  0  0  0  0  0  0  0
  145.5297  153.2882  134.1582 H   0  0  0  0  0  0  0  0  0  0  0  0
  145.4808  155.6545  136.0830 H   0  0  0  0  0  0  0  0  0  0  0  0
  148.1875  153.8300  134.1523 H   0  0  0  0  0  0  0  0  0  0  0  0
  149.6800  154.9951  132.4980 H   0  0  0  0  0  0  0  0  0  0  0  0
  150.1112  157.4978  131.1941 H   0  0  0  0  0  0  0  0  0  0  0  0
  147.1410  161.2370  131.4720 H   0  0  0  0  0  0  0  0  0  0  0  0
  148.3860  162.0810  130.4910 H   0  0  0  0  0  0  0  0  0  0  0  0
  145.9234  157.5167  134.7057 H   0  0  0  0  0  0  0  0  0  0  0  0
  1  2  1  0
  2  3  1  0
  3  4  2  0
  3  5  1  0
  2  6  1  0
  6  7  2  0
  7  8  1  0
  8  9  2  0
  9 10  1  0
 10 11  2  0
 11 12  1  0
 12 13  1  0
 12 14  2  0
 11 15  1  0
 15 16  1  0
 16 17  2  0
 16 18  1  0
 15 19  1  0
 19 20  2  0
 20  6  1  0
 19  9  1  0
  1 21  1  0
  1 22  1  0
  1 23  1  0
  2 24  1  1
  7 25  1  0
  8 26  1  0
 10 27  1  0
 13 28  1  0
 13 29  1  0
 20 30  1  0
M  CHG  2   5  -1  18  -1
M  END
>  <UniqueID>  (53) 
53

>  <SMILES>  (53) 
C[C@@H](C(=O)[O-])c1ccc2cc(C(N)=O)n(C(=O)[O-])c2c1

>  <Energy>  (53) 
69.04445573789322

>  <Genealogy>  (53) 
CC(C(=O)[O-])c1ccc2cc(C(N)=O)n(C(=O)[O-])c2c1 (protonated)
C[C@@H](C(=O)[O-])c1ccc2cc(C(N)=O)n(C(=O)[O-])c2c1 (chirality)
C[C@@H](C(=O)[O-])c1ccc2cc(C(N)=O)n(C(=O)[O-])c2c1 (3D coordinates assigned)
C[C@@H](C(=O)[O-])c1ccc2cc(C(N)=O)n(C(=O)[O-])c2c1 (optimized conformer: 69.04445573789322 kcal/mol)

>  <smiles>  (53) 
CC(C(=O)O)c1ccc2cc(C(N)=O)n(C(=O)O)c2c1

>  <score_type>  (53) 
oracle

>  <origin>  (53) 
adg

>  <m_score__min__energy>  (53) 
-6.5499999999999998

>  <m_primary>  (53) 
energy

$$$$
54:0
     RDKit          3D

 42 43  0  0  0  0  0  0  0  0999 V2000
  140.2830  156.5190  133.2880 C   0  0  0  0  0  0  0  0  0  0  0  0
  140.4530  157.9360  133.8690 C   0  0  0  0  0  0  0  0  0  0  0  0
  139.6830  158.0600  135.1990 C   0  0  0  0  0  0  0  0  0  0  0  0
  139.8990  158.9590  132.8540 C   0  0  0  0  0  0  0  0  0  0  0  0
  140.9050  159.8560  132.4630 O   0  0  0  0  0  0  0  0  0  0  0  0
  141.8770  158.2290  134.0750 N   0  0  0  0  0  0  0  0  0  0  0  0
  142.9770  157.7300  133.3030 C   0  0  0  0  0  0  0  0  0  0  0  0
  142.8450  157.4850  132.0740 O   0  0  0  0  0  0  0  0  0  0  0  0
  144.2780  157.5110  133.9530 C   0  0  0  0  0  0  0  0  0  0  0  0
  144.3770  156.6550  134.8720 O   0  0  0  0  0  0  0  0  0  0  0  0
  145.4340  158.2680  133.5600 N   0  0  0  0  0  0  0  0  0  0  0  0
  145.5740  159.6230  133.5560 C   0  0  0  0  0  0  0  0  0  0  0  0
  144.4920  160.5930  133.8480 C   0  0  0  0  0  0  0  0  0  0  0  0
  143.1770  160.4080  133.3230 N   0  0  0  0  0  0  0  0  0  0  0  0
  144.7210  161.5910  134.5830 O   0  0  0  0  0  0  0  0  0  0  0  0
  146.8690  159.9760  133.1730 C   0  0  0  0  0  0  0  0  0  0  0  0
  147.5220  158.7850  132.9530 C   0  0  0  0  0  0  0  0  0  0  0  0
  148.8400  158.5400  132.5720 C   0  0  0  0  0  0  0  0  0  0  0  0
  149.2540  157.2020  132.4540 C   0  0  0  0  0  0  0  0  0  0  0  0
  148.3520  156.1470  132.7240 C   0  0  0  0  0  0  0  0  0  0  0  0
  148.7900  154.7820  132.6110 C   0  0  0  0  0  0  0  0  0  0  0  0
  149.1560  153.6360  132.5160 C   0  0  0  0  0  0  0  0  0  0  0  0
  149.5910  152.2740  132.4020 C   0  0  0  0  0  0  0  0  0  0  0  0
  149.9570  151.6430  133.4270 O   0  0  0  0  0  0  0  0  0  0  0  0
  149.6090  151.6520  131.1610 O   0  0  0  0  0  0  0  0  0  0  0  0
  147.0260  156.4270  133.1100 C   0  0  0  0  0  0  0  0  0  0  0  0
  146.6360  157.7690  133.1990 C   0  0  0  0  0  0  0  0  0  0  0  0
  140.1960  155.7936  134.1103 H   0  0  0  0  0  0  0  0  0  0  0  0
  139.3741  156.4829  132.6695 H   0  0  0  0  0  0  0  0  0  0  0  0
  141.1576  156.2690  132.6695 H   0  0  0  0  0  0  0  0  0  0  0  0
  140.3831  157.9473  136.0399 H   0  0  0  0  0  0  0  0  0  0  0  0
  139.2010  159.0473  135.2530 H   0  0  0  0  0  0  0  0  0  0  0  0
  138.9155  157.2739  135.2530 H   0  0  0  0  0  0  0  0  0  0  0  0
  139.5259  158.4245  131.9679 H   0  0  0  0  0  0  0  0  0  0  0  0
  139.0823  159.5238  133.3272 H   0  0  0  0  0  0  0  0  0  0  0  0
  141.6840  159.3000  132.2020 H   0  0  0  0  0  0  0  0  0  0  0  0
  142.4170  161.0810  133.5680 H   0  0  0  0  0  0  0  0  0  0  0  0
  142.9590  159.6350  132.6560 H   0  0  0  0  0  0  0  0  0  0  0  0
  147.2802  160.9909  133.0691 H   0  0  0  0  0  0  0  0  0  0  0  0
  149.5350  159.3683  132.3698 H   0  0  0  0  0  0  0  0  0  0  0  0
  150.2862  156.9741  132.1497 H   0  0  0  0  0  0  0  0  0  0  0  0
  146.3182  155.6155  133.3347 H   0  0  0  0  0  0  0  0  0  0  0  0
  1  2  1  0
  2  3  1  0
  2  4  1  0
  4  5  1  0
  2  6  1  0
  6  7  1  0
  7  8  2  0
  7  9  1  0
  9 10  2  0
  9 11  1  0
 11 12  1  0
 12 13  1  0
 13 14  1  0
 13 15  2  0
 12 16  2  0
 16 17  1  0
 17 18  2  0
 18 19  1  0
 19 20  2  0
 20 21  1  0
 21 22  3  0
 22 23  1  0
 23 24  2  0
 23 25  1  0
 20 26  1  0
 26 27  2  0
 27 11  1  0
 27 17  1  0
  1 28  1  0
  1 29  1  0
  1 30  1  0
  3 31  1  0
  3 32  1  0
  3 33  1  0
  4 34  1  0
  4 35  1  0
  5 36  1  0
 14 37  1  0
 14 38  1  0
 16 39  1  0
 18 40  1  0
 19 41  1  0
 26 42  1  0
M  CHG  2   6  -1  25  -1
M  END
>  <UniqueID>  (54) 
54

>  <SMILES>  (54) 
CC(C)(CO)[N-]C(=O)C(=O)n1c(C(N)=O)cc2ccc(C#CC(=O)[O-])cc21

>  <Energy>  (54) 
71.55374040919448

>  <Genealogy>  (54) 
CC(C)(CO)[N-]C(=O)C(=O)n1c(C(N)=O)cc2ccc(C#CC(=O)[O-])cc21 (protonated)
CC(C)(CO)[N-]C(=O)C(=O)n1c(C(N)=O)cc2ccc(C#CC(=O)[O-])cc21 (3D coordinates assigned)
CC(C)(CO)[N-]C(=O)C(=O)n1c(C(N)=O)cc2ccc(C#CC(=O)[O-])cc21 (optimized conformer: 71.55374040919448 kcal/mol)

>  <smiles>  (54) 
CC(C)(CO)NC(=O)C(=O)n1c(C(N)=O)cc2ccc(C#CC(=O)O)cc21

>  <score_type>  (54) 
oracle

>  <origin>  (54) 
adg

>  <m_score__min__energy>  (54) 
-7.6900000000000004

>  <m_primary>  (54) 
energy

$$$$
55:0
     RDKit          3D

 41 42  0  0  0  0  0  0  0  0999 V2000
  139.8460  158.1110  136.5300 C   0  0  0  0  0  0  0  0  0  0  0  0
  140.8000  157.8500  135.3440 C   0  0  0  0  0  0  0  0  0  0  0  0
  141.1040  156.3390  135.2540 C   0  0  0  0  0  0  0  0  0  0  0  0
  140.1360  158.3340  134.0290 C   0  0  0  0  0  0  0  0  0  0  0  0
  140.7210  159.5220  133.5590 O   0  0  0  0  0  0  0  0  0  0  0  0
  142.1250  158.6350  135.5360 C   0  0  0  0  0  0  0  0  0  0  0  0
  143.2310  157.9770  134.9140 O   0  0  0  0  0  0  0  0  0  0  0  0
  143.7470  158.3300  133.6620 C   0  0  0  0  0  0  0  0  0  0  0  0
  143.0750  158.1330  132.6140 O   0  0  0  0  0  0  0  0  0  0  0  0
  145.0370  158.9520  133.5760 N   0  0  0  0  0  0  0  0  0  0  0  0
  145.3200  160.2850  133.5450 C   0  0  0  0  0  0  0  0  0  0  0  0
  144.3510  161.3810  133.7500 C   0  0  0  0  0  0  0  0  0  0  0  0
  142.9580  161.1380  133.5650 N   0  0  0  0  0  0  0  0  0  0  0  0
  144.7400  162.5390  134.0540 O   0  0  0  0  0  0  0  0  0  0  0  0
  146.6860  160.4890  133.3620 C   0  0  0  0  0  0  0  0  0  0  0  0
  147.2370  159.2300  133.2850 C   0  0  0  0  0  0  0  0  0  0  0  0
  148.5570  158.8420  133.0760 C   0  0  0  0  0  0  0  0  0  0  0  0
  148.8340  157.4670  132.9960 C   0  0  0  0  0  0  0  0  0  0  0  0
  147.7970  156.5070  133.1340 C   0  0  0  0  0  0  0  0  0  0  0  0
  148.0970  155.0380  132.9810 C   0  0  0  0  0  0  0  0  0  0  0  0
  147.0930  154.4060  132.2690 F   0  0  0  0  0  0  0  0  0  0  0  0
  149.2930  154.8870  132.3050 F   0  0  0  0  0  0  0  0  0  0  0  0
  148.2000  154.4280  134.2190 F   0  0  0  0  0  0  0  0  0  0  0  0
  146.4650  156.9450  133.3210 C   0  0  0  0  0  0  0  0  0  0  0  0
  146.2210  158.3200  133.4170 C   0  0  0  0  0  0  0  0  0  0  0  0
  140.3877  157.9628  137.4758 H   0  0  0  0  0  0  0  0  0  0  0  0
  139.4724  159.1444  136.4795 H   0  0  0  0  0  0  0  0  0  0  0  0
  138.9984  157.4117  136.4795 H   0  0  0  0  0  0  0  0  0  0  0  0
  141.1881  155.9209  136.2680 H   0  0  0  0  0  0  0  0  0  0  0  0
  140.2897  155.8326  134.7150 H   0  0  0  0  0  0  0  0  0  0  0  0
  142.0507  156.1869  134.7150 H   0  0  0  0  0  0  0  0  0  0  0  0
  140.2505  157.5528  133.2631 H   0  0  0  0  0  0  0  0  0  0  0  0
  139.0735  158.5321  134.2336 H   0  0  0  0  0  0  0  0  0  0  0  0
  141.7030  159.3790  133.5490 H   0  0  0  0  0  0  0  0  0  0  0  0
  142.0124  159.6358  135.0936 H   0  0  0  0  0  0  0  0  0  0  0  0
  142.3297  158.6982  136.6149 H   0  0  0  0  0  0  0  0  0  0  0  0
  142.6200  160.2450  133.1450 H   0  0  0  0  0  0  0  0  0  0  0  0
  147.2127  161.4523  133.2935 H   0  0  0  0  0  0  0  0  0  0  0  0
  149.3586  159.5887  132.9765 H   0  0  0  0  0  0  0  0  0  0  0  0
  149.8669  157.1300  132.8243 H   0  0  0  0  0  0  0  0  0  0  0  0
  145.6394  156.2213  133.3894 H   0  0  0  0  0  0  0  0  0  0  0  0
  1  2  1  0
  2  3  1  0
  2  4  1  0
  4  5  1  0
  2  6  1  0
  6  7  1  0
  7  8  1  0
  8  9  2  0
  8 10  1  0
 10 11  1  0
 11 12  1  0
 12 13  1  0
 12 14  2  0
 11 15  2  0
 15 16  1  0
 16 17  2  0
 17 18  1  0
 18 19  2  0
 19 20  1  0
 20 21  1  0
 20 22  1  0
 20 23  1  0
 19 24  1  0
 24 25  2  0
 25 10  1  0
 25 16  1  0
  1 26  1  0
  1 27  1  0
  1 28  1  0
  3 29  1  0
  3 30  1  0
  3 31  1  0
  4 32  1  0
  4 33  1  0
  5 34  1  0
  6 35  1  0
  6 36  1  0
 13 37  1  0
 15 38  1  0
 17 39  1  0
 18 40  1  0
 24 41  1  0
M  CHG  1  13  -1
M  END
>  <UniqueID>  (55) 
55

>  <SMILES>  (55) 
CC(C)(CO)COC(=O)n1c(C([NH-])=O)cc2ccc(C(F)(F)F)cc21

>  <Energy>  (55) 
75.85101815967396

>  <Genealogy>  (55) 
CC(C)(CO)COC(=O)n1c(C([NH-])=O)cc2ccc(C(F)(F)F)cc21 (protonated)
CC(C)(CO)COC(=O)n1c(C([NH-])=O)cc2ccc(C(F)(F)F)cc21 (3D coordinates assigned)
CC(C)(CO)COC(=O)n1c(C([NH-])=O)cc2ccc(C(F)(F)F)cc21 (optimized conformer: 75.85101815967396 kcal/mol)

>  <smiles>  (55) 
CC(C)(CO)COC(=O)n1c(C(N)=O)cc2ccc(C(F)(F)F)cc21

>  <score_type>  (55) 
oracle

>  <origin>  (55) 
adg

>  <m_score__min__energy>  (55) 
-6.2400000000000002

>  <m_primary>  (55) 
energy

$$$$
56:0
     RDKit          3D

 39 42  0  0  0  0  0  0  0  0999 V2000
  149.3700  151.3600  133.1390 C   0  0  0  0  0  0  0  0  0  0  0  0
  148.6430  152.6540  133.1320 C   0  0  0  0  0  0  0  0  0  0  0  0
  149.2480  153.8480  132.9980 N   0  0  0  0  0  0  0  0  0  0  0  0
  148.3320  154.8310  133.0300 C   0  0  0  0  0  0  0  0  0  0  0  0
  148.4740  156.2110  132.9320 C   0  0  0  0  0  0  0  0  0  0  0  0
  147.3170  156.9760  133.0020 C   0  0  0  0  0  0  0  0  0  0  0  0
  146.0860  156.3760  133.1620 C   0  0  0  0  0  0  0  0  0  0  0  0
  144.9140  157.2440  133.2270 C   0  0  0  0  0  0  0  0  0  0  0  0
  145.0660  158.6080  133.3520 C   0  0  0  0  0  0  0  0  0  0  0  0
  143.9360  159.3870  133.4070 C   0  0  0  0  0  0  0  0  0  0  0  0
  142.6880  158.8060  133.3370 C   0  0  0  0  0  0  0  0  0  0  0  0
  141.4260  159.3470  133.3680 C   0  0  0  0  0  0  0  0  0  0  0  0
  140.4680  158.3260  133.2620 C   0  0  0  0  0  0  0  0  0  0  0  0
  139.0630  158.5980  133.2640 C   0  0  0  0  0  0  0  0  0  0  0  0
  138.0310  157.8690  133.8730 N   0  0  0  0  0  0  0  0  0  0  0  0
  138.6790  159.6450  132.6260 O   0  0  0  0  0  0  0  0  0  0  0  0
  141.1700  157.1870  133.1680 N   0  0  0  0  0  0  0  0  0  0  0  0
  140.6550  155.8770  133.0460 C   0  0  0  0  0  0  0  0  0  0  0  0
  141.3480  154.8300  132.9970 O   0  0  0  0  0  0  0  0  0  0  0  0
  139.2680  155.6420  132.9660 O   0  0  0  0  0  0  0  0  0  0  0  0
  142.5030  157.4480  133.2110 C   0  0  0  0  0  0  0  0  0  0  0  0
  143.6520  156.6770  133.1570 C   0  0  0  0  0  0  0  0  0  0  0  0
  145.9490  154.9970  133.2600 C   0  0  0  0  0  0  0  0  0  0  0  0
  147.0970  154.2380  133.1900 C   0  0  0  0  0  0  0  0  0  0  0  0
  147.3260  152.9020  133.2490 N   0  0  0  0  0  0  0  0  0  0  0  0
  149.5472  151.0446  134.1778 H   0  0  0  0  0  0  0  0  0  0  0  0
  148.7678  150.5983  132.6222 H   0  0  0  0  0  0  0  0  0  0  0  0
  150.3338  151.4781  132.6222 H   0  0  0  0  0  0  0  0  0  0  0  0
  149.4620  156.6774  132.8043 H   0  0  0  0  0  0  0  0  0  0  0  0
  147.3834  158.0716  132.9291 H   0  0  0  0  0  0  0  0  0  0  0  0
  146.0668  159.0613  133.4064 H   0  0  0  0  0  0  0  0  0  0  0  0
  144.0274  160.4786  133.5073 H   0  0  0  0  0  0  0  0  0  0  0  0
  141.1997  160.4194  133.4618 H   0  0  0  0  0  0  0  0  0  0  0  0
  137.6850  158.0670  134.8480 H   0  0  0  0  0  0  0  0  0  0  0  0
  137.5890  157.0990  133.3230 H   0  0  0  0  0  0  0  0  0  0  0  0
  138.7040  156.0560  132.2200 H   0  0  0  0  0  0  0  0  0  0  0  0
  143.5602  155.5855  133.0558 H   0  0  0  0  0  0  0  0  0  0  0  0
  144.9619  154.5289  133.3885 H   0  0  0  0  0  0  0  0  0  0  0  0
  146.5970  152.1650  133.3680 H   0  0  0  0  0  0  0  0  0  0  0  0
  1  2  1  0
  2  3  2  0
  3  4  1  0
  4  5  2  0
  5  6  1  0
  6  7  2  0
  7  8  1  0
  8  9  2  0
  9 10  1  0
 10 11  2  0
 11 12  1  0
 12 13  2  0
 13 14  1  0
 14 15  1  0
 14 16  2  0
 13 17  1  0
 17 18  1  0
 18 19  2  0
 18 20  1  0
 17 21  1  0
 21 22  2  0
  7 23  1  0
 23 24  2  0
 24 25  1  0
 25  2  1  0
 24  4  1  0
 22  8  1  0
 21 11  1  0
  1 26  1  0
  1 27  1  0
  1 28  1  0
  5 29  1  0
  6 30  1  0
  9 31  1  0
 10 32  1  0
 12 33  1  0
 15 34  1  0
 15 35  1  0
 20 36  1  0
 22 37  1  0
 23 38  1  0
 25 39  1  0
M  END
>  <smiles>  (56) 
Cc1nc2ccc(-c3ccc4cc(C(N)=O)n(C(=O)O)c4c3)cc2[nH]1

>  <score_type>  (56) 
oracle

>  <origin>  (56) 
adg

>  <m_score__min__energy>  (56) 
-8.6999999999999993

>  <m_primary>  (56) 
energy

$$$$
57:0
     RDKit          3D

 49 50  0  0  0  0  0  0  0  0999 V2000
  140.2600  150.7350  131.5800 C   0  0  0  0  0  0  0  0  0  0  0  0
  141.2240  150.0960  132.6030 C   0  0  0  0  0  0  0  0  0  0  0  0
  142.4150  149.4690  131.8570 C   0  0  0  0  0  0  0  0  0  0  0  0
  140.4690  149.0020  133.3800 C   0  0  0  0  0  0  0  0  0  0  0  0
  141.7480  151.1300  133.5800 C   0  0  0  0  0  0  0  0  0  0  0  0
  141.0720  151.4590  134.5960 O   0  0  0  0  0  0  0  0  0  0  0  0
  142.9760  151.7520  133.3250 O   0  0  0  0  0  0  0  0  0  0  0  0
  143.2700  153.0830  133.7320 C   0  0  0  0  0  0  0  0  0  0  0  0
  142.5300  154.0010  132.9350 O   0  0  0  0  0  0  0  0  0  0  0  0
  141.2650  154.4690  133.2960 C   0  0  0  0  0  0  0  0  0  0  0  0
  140.2250  153.8380  132.9640 O   0  0  0  0  0  0  0  0  0  0  0  0
  141.1450  155.7700  134.0300 C   0  0  0  0  0  0  0  0  0  0  0  0
  142.3800  156.0400  134.9000 C   0  0  0  0  0  0  0  0  0  0  0  0
  143.2630  157.1050  134.2990 C   0  0  0  0  0  0  0  0  0  0  0  0
  142.7480  158.4040  134.0650 C   0  0  0  0  0  0  0  0  0  0  0  0
  143.5780  159.4260  133.5760 C   0  0  0  0  0  0  0  0  0  0  0  0
  144.9160  159.1230  133.3380 C   0  0  0  0  0  0  0  0  0  0  0  0
  145.9440  159.9360  132.9240 C   0  0  0  0  0  0  0  0  0  0  0  0
  147.0740  159.1230  132.9090 C   0  0  0  0  0  0  0  0  0  0  0  0
  148.4140  159.5780  132.4770 C   0  0  0  0  0  0  0  0  0  0  0  0
  149.5930  158.9290  132.9550 N   0  0  0  0  0  0  0  0  0  0  0  0
  148.5260  160.5640  131.7010 O   0  0  0  0  0  0  0  0  0  0  0  0
  146.7560  157.8540  133.2960 N   0  0  0  0  0  0  0  0  0  0  0  0
  147.6530  156.7490  133.5010 C   0  0  0  0  0  0  0  0  0  0  0  0
  148.4940  156.4390  132.6160 O   0  0  0  0  0  0  0  0  0  0  0  0
  147.6130  156.0210  134.6830 O   0  0  0  0  0  0  0  0  0  0  0  0
  145.4290  157.8700  133.5530 C   0  0  0  0  0  0  0  0  0  0  0  0
  144.6270  156.8350  134.0420 C   0  0  0  0  0  0  0  0  0  0  0  0
  139.4584  151.2664  132.1139 H   0  0  0  0  0  0  0  0  0  0  0  0
  140.8137  151.4455  130.9487 H   0  0  0  0  0  0  0  0  0  0  0  0
  139.8212  149.9483  130.9487 H   0  0  0  0  0  0  0  0  0  0  0  0
  143.1436  149.0854  132.5863 H   0  0  0  0  0  0  0  0  0  0  0  0
  142.0579  148.6420  131.2257 H   0  0  0  0  0  0  0  0  0  0  0  0
  142.8947  150.2314  131.2257 H   0  0  0  0  0  0  0  0  0  0  0  0
  140.5865  149.1722  134.4604 H   0  0  0  0  0  0  0  0  0  0  0  0
  139.4014  149.0362  133.1174 H   0  0  0  0  0  0  0  0  0  0  0  0
  140.8798  148.0159  133.1174 H   0  0  0  0  0  0  0  0  0  0  0  0
  142.9948  153.2116  134.7892 H   0  0  0  0  0  0  0  0  0  0  0  0
  144.3458  153.2743  133.6053 H   0  0  0  0  0  0  0  0  0  0  0  0
  141.0378  156.5846  133.2986 H   0  0  0  0  0  0  0  0  0  0  0  0
  140.2646  155.7160  134.6872 H   0  0  0  0  0  0  0  0  0  0  0  0
  142.0494  156.3709  135.8956 H   0  0  0  0  0  0  0  0  0  0  0  0
  142.9624  155.1092  134.9675 H   0  0  0  0  0  0  0  0  0  0  0  0
  141.6876  158.6142  134.2683 H   0  0  0  0  0  0  0  0  0  0  0  0
  143.1831  160.4351  133.3868 H   0  0  0  0  0  0  0  0  0  0  0  0
  145.8862  161.0024  132.6605 H   0  0  0  0  0  0  0  0  0  0  0  0
  149.5360  158.0730  133.5500 H   0  0  0  0  0  0  0  0  0  0  0  0
  150.5350  159.2800  132.6740 H   0  0  0  0  0  0  0  0  0  0  0  0
  145.0468  155.8344  134.2226 H   0  0  0  0  0  0  0  0  0  0  0  0
  1  2  1  0
  2  3  1  0
  2  4  1  0
  2  5  1  0
  5  6  2  0
  5  7  1  0
  7  8  1  0
  8  9  1  0
  9 10  1  0
 10 11  2  0
 10 12  1  0
 12 13  1  0
 13 14  1  0
 14 15  2  0
 15 16  1  0
 16 17  2  0
 17 18  1  0
 18 19  2  0
 19 20  1  0
 20 21  1  0
 20 22  2  0
 19 23  1  0
 23 24  1  0
 24 25  2  0
 24 26  1  0
 23 27  1  0
 27 28  2  0
 28 14  1  0
 27 17  1  0
  1 29  1  0
  1 30  1  0
  1 31  1  0
  3 32  1  0
  3 33  1  0
  3 34  1  0
  4 35  1  0
  4 36  1  0
  4 37  1  0
  8 38  1  0
  8 39  1  0
 12 40  1  0
 12 41  1  0
 13 42  1  0
 13 43  1  0
 15 44  1  0
 16 45  1  0
 18 46  1  0
 21 47  1  0
 21 48  1  0
 28 49  1  0
M  CHG  1  26  -1
M  END
>  <UniqueID>  (57) 
56

>  <SMILES>  (57) 
CC(C)(C)C(=O)OCOC(=O)CCc1ccc2cc(C(N)=O)n(C(=O)[O-])c2c1

>  <Energy>  (57) 
71.58367284767128

>  <Genealogy>  (57) 
CC(C)(C)C(=O)OCOC(=O)CCc1ccc2cc(C(N)=O)n(C(=O)[O-])c2c1 (protonated)
CC(C)(C)C(=O)OCOC(=O)CCc1ccc2cc(C(N)=O)n(C(=O)[O-])c2c1 (3D coordinates assigned)
CC(C)(C)C(=O)OCOC(=O)CCc1ccc2cc(C(N)=O)n(C(=O)[O-])c2c1 (optimized conformer: 71.58367284767128 kcal/mol)

>  <smiles>  (57) 
CC(C)(C)C(=O)OCOC(=O)CCc1ccc2cc(C(N)=O)n(C(=O)O)c2c1

>  <score_type>  (57) 
oracle

>  <origin>  (57) 
adg

>  <m_score__min__energy>  (57) 
-7.5199999999999996

>  <m_primary>  (57) 
energy

$$$$
58:0
     RDKit          3D

 34 35  0  0  0  0  0  0  0  0999 V2000
  137.5530  159.6230  131.1250 N   0  0  0  0  0  0  0  0  0  0  0  0
  138.7450  159.7670  131.8910 C   0  0  0  0  0  0  0  0  0  0  0  0
  139.2380  160.9160  132.0530 O   0  0  0  0  0  0  0  0  0  0  0  0
  139.4410  158.5880  132.4430 C   0  0  0  0  0  0  0  0  0  0  0  0
  139.1060  157.2760  132.1100 C   0  0  0  0  0  0  0  0  0  0  0  0
  139.9110  156.4840  132.8960 C   0  0  0  0  0  0  0  0  0  0  0  0
  140.0000  155.0970  132.9720 C   0  0  0  0  0  0  0  0  0  0  0  0
  140.9390  154.5440  133.8580 C   0  0  0  0  0  0  0  0  0  0  0  0
  141.7760  155.3830  134.6370 C   0  0  0  0  0  0  0  0  0  0  0  0
  142.7670  154.7810  135.6020 C   0  0  0  0  0  0  0  0  0  0  0  0
  142.1480  154.5600  136.9990 C   0  0  2  0  0  0  0  0  0  0  0  0
  142.8090  155.4310  137.9930 N   0  0  0  0  0  0  0  0  0  0  0  0
  141.8800  156.3740  138.5530 C   0  0  0  0  0  0  0  0  0  0  0  0
  140.6550  156.3100  138.2620 O   0  0  0  0  0  0  0  0  0  0  0  0
  142.3340  157.3840  139.3930 O   0  0  0  0  0  0  0  0  0  0  0  0
  142.2490  153.1060  137.3960 C   0  0  0  0  0  0  0  0  0  0  0  0
  143.0330  152.7450  138.3140 O   0  0  0  0  0  0  0  0  0  0  0  0
  141.4850  152.1520  136.7340 O   0  0  0  0  0  0  0  0  0  0  0  0
  141.6530  156.7860  134.5380 C   0  0  0  0  0  0  0  0  0  0  0  0
  140.6950  157.3090  133.6600 C   0  0  0  0  0  0  0  0  0  0  0  0
  140.4210  158.6050  133.3920 N   0  0  0  0  0  0  0  0  0  0  0  0
  141.1020  159.7510  133.9290 C   0  0  0  0  0  0  0  0  0  0  0  0
  141.8190  160.4700  133.1860 O   0  0  0  0  0  0  0  0  0  0  0  0
  140.9510  160.0920  135.2680 O   0  0  0  0  0  0  0  0  0  0  0  0
  137.5120  158.9660  130.3140 H   0  0  0  0  0  0  0  0  0  0  0  0
  138.3574  156.9447  131.3752 H   0  0  0  0  0  0  0  0  0  0  0  0
  139.3543  154.4533  132.3566 H   0  0  0  0  0  0  0  0  0  0  0  0
  141.0259  153.4512  133.9485 H   0  0  0  0  0  0  0  0  0  0  0  0
  143.1059  153.8124  135.2058 H   0  0  0  0  0  0  0  0  0  0  0  0
  143.6082  155.4818  135.7086 H   0  0  0  0  0  0  0  0  0  0  0  0
  141.0817  154.8279  136.9633 H   0  0  0  0  0  0  0  0  0  0  0  0
  143.5720  155.9780  137.5300 H   0  0  0  0  0  0  0  0  0  0  0  0
  143.2380  154.8590  138.7580 H   0  0  0  0  0  0  0  0  0  0  0  0
  142.2934  157.4517  135.1353 H   0  0  0  0  0  0  0  0  0  0  0  0
  1  2  1  0
  2  3  2  0
  2  4  1  0
  4  5  2  0
  5  6  1  0
  6  7  2  0
  7  8  1  0
  8  9  2  0
  9 10  1  0
 10 11  1  0
 11 12  1  0
 12 13  1  0
 13 14  2  0
 13 15  1  0
 11 16  1  0
 16 17  2  0
 16 18  1  0
  9 19  1  0
 19 20  2  0
 20 21  1  0
 21 22  1  0
 22 23  2  0
 22 24  1  0
 21  4  1  0
 20  6  1  0
  1 25  1  0
  5 26  1  0
  7 27  1  0
  8 28  1  0
 10 29  1  0
 10 30  1  0
 11 31  1  6
 12 32  1  0
 12 33  1  0
 19 34  1  0
M  CHG  5   1  -1  12   1  15  -1  18  -1  24  -1
M  END
>  <UniqueID>  (58) 
57

>  <SMILES>  (58) 
[NH-]C(=O)c1cc2ccc(C[C@H]([NH2+]C(=O)[O-])C(=O)[O-])cc2n1C(=O)[O-]

>  <Energy>  (58) 
73.75399237216716

>  <Genealogy>  (58) 
[NH-]C(=O)c1cc2ccc(C[C@H]([NH2+]C(=O)[O-])C(=O)[O-])cc2n1C(=O)[O-] (protonated)
[NH-]C(=O)c1cc2ccc(C[C@H]([NH2+]C(=O)[O-])C(=O)[O-])cc2n1C(=O)[O-] (3D coordinates assigned)
[NH-]C(=O)c1cc2ccc(C[C@H]([NH2+]C(=O)[O-])C(=O)[O-])cc2n1C(=O)[O-] (optimized conformer: 73.75399237216716 kcal/mol)

>  <smiles>  (58) 
NC(=O)c1cc2ccc(C[C@H](NC(=O)O)C(=O)O)cc2n1C(=O)O

>  <score_type>  (58) 
oracle

>  <origin>  (58) 
adg

>  <m_score__min__energy>  (58) 
-6.6100000000000003

>  <m_primary>  (58) 
energy

$$$$
59:0
     RDKit          3D

 35 36  0  0  0  0  0  0  0  0999 V2000
  142.8330  160.9090  134.0370 N   0  0  0  0  0  0  0  0  0  0  0  0
  144.1970  161.2490  133.8050 C   0  0  0  0  0  0  0  0  0  0  0  0
  144.5500  162.4570  133.8620 O   0  0  0  0  0  0  0  0  0  0  0  0
  145.2110  160.2020  133.5570 C   0  0  0  0  0  0  0  0  0  0  0  0
  146.5610  160.4760  133.3560 C   0  0  0  0  0  0  0  0  0  0  0  0
  147.1700  159.2470  133.2530 C   0  0  0  0  0  0  0  0  0  0  0  0
  148.5090  158.9270  133.0450 C   0  0  0  0  0  0  0  0  0  0  0  0
  148.8550  157.5680  132.9550 C   0  0  0  0  0  0  0  0  0  0  0  0
  147.8620  156.5590  133.0470 C   0  0  0  0  0  0  0  0  0  0  0  0
  148.2530  155.1040  132.9860 C   0  0  0  0  0  0  0  0  0  0  0  0
  148.3300  154.5990  134.2710 F   0  0  0  0  0  0  0  0  0  0  0  0
  147.3190  154.3740  132.2710 F   0  0  0  0  0  0  0  0  0  0  0  0
  149.4830  154.9540  132.3680 F   0  0  0  0  0  0  0  0  0  0  0  0
  146.5160  156.9250  133.2810 C   0  0  0  0  0  0  0  0  0  0  0  0
  146.2030  158.2860  133.3860 C   0  0  0  0  0  0  0  0  0  0  0  0
  144.9920  158.8560  133.5720 N   0  0  0  0  0  0  0  0  0  0  0  0
  143.7310  158.1750  133.6560 C   0  0  0  0  0  0  0  0  0  0  0  0
  143.1270  157.8450  132.5980 O   0  0  0  0  0  0  0  0  0  0  0  0
  143.1750  157.9060  134.9140 O   0  0  0  0  0  0  0  0  0  0  0  0
  142.1940  156.9380  135.1700 C   0  0  0  0  0  0  0  0  0  0  0  0
  142.3860  155.7220  134.8990 O   0  0  0  0  0  0  0  0  0  0  0  0
  140.8800  157.3700  135.7440 C   0  0  0  0  0  0  0  0  0  0  0  0
  140.5110  158.7870  135.2830 C   0  0  0  0  0  0  0  0  0  0  0  0
  141.3030  159.7320  135.9540 O   0  0  0  0  0  0  0  0  0  0  0  0
  140.7490  158.9070  133.9070 O   0  0  0  0  0  0  0  0  0  0  0  0
  142.5490  159.9230  134.2300 H   0  0  0  0  0  0  0  0  0  0  0  0
  147.0389  161.4648  133.2930 H   0  0  0  0  0  0  0  0  0  0  0  0
  149.2724  159.7137  132.9539 H   0  0  0  0  0  0  0  0  0  0  0  0
  149.9078  157.2833  132.8116 H   0  0  0  0  0  0  0  0  0  0  0  0
  145.7332  156.1584  133.3783 H   0  0  0  0  0  0  0  0  0  0  0  0
  140.0975  156.6705  135.4148 H   0  0  0  0  0  0  0  0  0  0  0  0
  140.9630  157.3714  136.8409 H   0  0  0  0  0  0  0  0  0  0  0  0
  139.4486  158.9661  135.5048 H   0  0  0  0  0  0  0  0  0  0  0  0
  142.1900  159.7380  135.5080 H   0  0  0  0  0  0  0  0  0  0  0  0
  141.7260  159.0500  133.7940 H   0  0  0  0  0  0  0  0  0  0  0  0
  1  2  1  0
  2  3  2  0
  2  4  1  0
  4  5  2  0
  5  6  1  0
  6  7  2  0
  7  8  1  0
  8  9  2  0
  9 10  1  0
 10 11  1  0
 10 12  1  0
 10 13  1  0
  9 14  1  0
 14 15  2  0
 15 16  1  0
 16 17  1  0
 17 18  2  0
 17 19  1  0
 19 20  1  0
 20 21  2  0
 20 22  1  0
 22 23  1  0
 23 24  1  0
 23 25  1  0
 16  4  1  0
 15  6  1  0
  1 26  1  0
  5 27  1  0
  7 28  1  0
  8 29  1  0
 14 30  1  0
 22 31  1  0
 22 32  1  0
 23 33  1  0
 24 34  1  0
 25 35  1  0
M  CHG  1   1  -1
M  END
>  <UniqueID>  (59) 
58

>  <SMILES>  (59) 
[NH-]C(=O)c1cc2ccc(C(F)(F)F)cc2n1C(=O)OC(=O)CC(O)O

>  <Energy>  (59) 
73.26226393538096

>  <Genealogy>  (59) 
[NH-]C(=O)c1cc2ccc(C(F)(F)F)cc2n1C(=O)OC(=O)CC(O)O (protonated)
[NH-]C(=O)c1cc2ccc(C(F)(F)F)cc2n1C(=O)OC(=O)CC(O)O (3D coordinates assigned)
[NH-]C(=O)c1cc2ccc(C(F)(F)F)cc2n1C(=O)OC(=O)CC(O)O (optimized conformer: 73.26226393538096 kcal/mol)

>  <smiles>  (59) 
NC(=O)c1cc2ccc(C(F)(F)F)cc2n1C(=O)OC(=O)CC(O)O

>  <score_type>  (59) 
oracle

>  <origin>  (59) 
adg

>  <m_score__min__energy>  (59) 
-4.7599999999999998

>  <m_primary>  (59) 
energy

$$$$
60:0
     RDKit          3D

 27 28  0  0  0  0  0  0  0  0999 V2000
  149.3490  160.5270  131.0950 C   0  0  0  0  0  0  0  0  0  0  0  0
  149.3250  159.5360  132.2550 C   0  0  2  0  0  0  0  0  0  0  0  0
  150.0360  158.3990  131.9100 F   0  0  0  0  0  0  0  0  0  0  0  0
  147.9070  159.1730  132.6170 C   0  0  0  0  0  0  0  0  0  0  0  0
  147.4980  157.8160  132.6100 C   0  0  0  0  0  0  0  0  0  0  0  0
  146.1950  157.4580  132.9880 C   0  0  0  0  0  0  0  0  0  0  0  0
  145.3230  158.4730  133.3670 C   0  0  0  0  0  0  0  0  0  0  0  0
  144.0210  158.4020  133.8080 C   0  0  0  0  0  0  0  0  0  0  0  0
  143.6460  159.7190  134.0660 C   0  0  0  0  0  0  0  0  0  0  0  0
  142.2830  160.1070  134.4830 C   0  0  0  0  0  0  0  0  0  0  0  0
  141.4930  160.9870  133.6870 N   0  0  0  0  0  0  0  0  0  0  0  0
  141.7890  159.6170  135.5340 O   0  0  0  0  0  0  0  0  0  0  0  0
  144.6800  160.5710  133.8060 N   0  0  0  0  0  0  0  0  0  0  0  0
  144.7300  161.9910  134.0240 C   0  0  0  0  0  0  0  0  0  0  0  0
  145.5940  162.4850  134.7960 O   0  0  0  0  0  0  0  0  0  0  0  0
  143.8440  162.8330  133.3660 O   0  0  0  0  0  0  0  0  0  0  0  0
  145.6970  159.7920  133.3750 C   0  0  0  0  0  0  0  0  0  0  0  0
  146.9960  160.1760  133.0220 C   0  0  0  0  0  0  0  0  0  0  0  0
  149.3739  161.5533  131.4900 H   0  0  0  0  0  0  0  0  0  0  0  0
  150.2431  160.3493  130.4794 H   0  0  0  0  0  0  0  0  0  0  0  0
  148.4473  160.3928  130.4794 H   0  0  0  0  0  0  0  0  0  0  0  0
  149.7938  160.0061  133.1320 H   0  0  0  0  0  0  0  0  0  0  0  0
  148.2099  157.0349  132.3049 H   0  0  0  0  0  0  0  0  0  0  0  0
  145.8729  156.4062  132.9847 H   0  0  0  0  0  0  0  0  0  0  0  0
  143.4069  157.4976  133.9307 H   0  0  0  0  0  0  0  0  0  0  0  0
  141.8940  161.8720  133.3060 H   0  0  0  0  0  0  0  0  0  0  0  0
  147.3008  161.2323  133.0587 H   0  0  0  0  0  0  0  0  0  0  0  0
  1  2  1  0
  2  3  1  0
  2  4  1  0
  4  5  2  0
  5  6  1  0
  6  7  2  0
  7  8  1  0
  8  9  2  0
  9 10  1  0
 10 11  1  0
 10 12  2  0
  9 13  1  0
 13 14  1  0
 14 15  2  0
 14 16  1  0
 13 17  1  0
 17 18  2  0
 18  4  1  0
 17  7  1  0
  1 19  1  0
  1 20  1  0
  1 21  1  0
  2 22  1  1
  5 23  1  0
  6 24  1  0
  8 25  1  0
 11 26  1  0
 18 27  1  0
M  CHG  2  11  -1  16  -1
M  END
>  <UniqueID>  (60) 
59

>  <SMILES>  (60) 
C[C@H](F)c1ccc2cc(C([NH-])=O)n(C(=O)[O-])c2c1

>  <Energy>  (60) 
64.63546257145934

>  <Genealogy>  (60) 
CC(F)c1ccc2cc(C([NH-])=O)n(C(=O)[O-])c2c1 (protonated)
C[C@H](F)c1ccc2cc(C([NH-])=O)n(C(=O)[O-])c2c1 (chirality)
C[C@H](F)c1ccc2cc(C([NH-])=O)n(C(=O)[O-])c2c1 (3D coordinates assigned)
C[C@H](F)c1ccc2cc(C([NH-])=O)n(C(=O)[O-])c2c1 (optimized conformer: 64.63546257145934 kcal/mol)

>  <smiles>  (60) 
CC(F)c1ccc2cc(C(N)=O)n(C(=O)O)c2c1

>  <score_type>  (60) 
oracle

>  <origin>  (60) 
adg

>  <m_score__min__energy>  (60) 
-6.0099999999999998

>  <m_primary>  (60) 
energy

$$$$
61:0
     RDKit          3D

 42 43  0  0  0  0  0  0  0  0999 V2000
  139.4860  156.9330  132.9840 C   0  0  0  0  0  0  0  0  0  0  0  0
  139.3230  158.2320  133.6610 N   0  0  0  0  0  0  0  0  0  0  0  0
  140.0910  159.2600  132.9440 C   0  0  0  0  0  0  0  0  0  0  0  0
  139.7540  158.1580  135.0760 C   0  0  0  0  0  0  0  0  0  0  0  0
  141.2710  158.3750  135.2200 C   0  0  0  0  0  0  0  0  0  0  0  0
  142.0580  157.0610  135.2400 C   0  0  0  0  0  0  0  0  0  0  0  0
  143.4000  157.2950  134.8300 O   0  0  0  0  0  0  0  0  0  0  0  0
  143.7400  157.9090  133.6240 C   0  0  0  0  0  0  0  0  0  0  0  0
  142.9400  157.8770  132.6490 O   0  0  0  0  0  0  0  0  0  0  0  0
  145.0180  158.5550  133.4910 N   0  0  0  0  0  0  0  0  0  0  0  0
  145.2840  159.8930  133.4710 C   0  0  0  0  0  0  0  0  0  0  0  0
  144.3120  160.9790  133.7140 C   0  0  0  0  0  0  0  0  0  0  0  0
  142.9400  160.7920  133.3710 N   0  0  0  0  0  0  0  0  0  0  0  0
  144.6840  162.0870  134.1810 O   0  0  0  0  0  0  0  0  0  0  0  0
  146.6470  160.1170  133.2870 C   0  0  0  0  0  0  0  0  0  0  0  0
  147.2150  158.8680  133.2070 C   0  0  0  0  0  0  0  0  0  0  0  0
  148.5470  158.5020  133.0440 C   0  0  0  0  0  0  0  0  0  0  0  0
  148.8530  157.1320  132.9930 C   0  0  0  0  0  0  0  0  0  0  0  0
  147.8280  156.1560  133.0810 C   0  0  0  0  0  0  0  0  0  0  0  0
  148.1840  154.6910  133.0630 C   0  0  0  0  0  0  0  0  0  0  0  0
  147.1270  153.9470  132.5700 F   0  0  0  0  0  0  0  0  0  0  0  0
  148.4780  154.2340  134.3370 F   0  0  0  0  0  0  0  0  0  0  0  0
  149.2860  154.5000  132.2520 F   0  0  0  0  0  0  0  0  0  0  0  0
  146.4880  156.5690  133.2660 C   0  0  0  0  0  0  0  0  0  0  0  0
  146.2130  157.9410  133.3330 C   0  0  0  0  0  0  0  0  0  0  0  0
  139.5859  156.1372  133.7368 H   0  0  0  0  0  0  0  0  0  0  0  0
  138.6057  156.7343  132.3550 H   0  0  0  0  0  0  0  0  0  0  0  0
  140.3880  156.9580  132.3550 H   0  0  0  0  0  0  0  0  0  0  0  0
  140.5853  159.9217  133.6705 H   0  0  0  0  0  0  0  0  0  0  0  0
  140.8507  158.7763  132.3125 H   0  0  0  0  0  0  0  0  0  0  0  0
  139.4117  159.8513  132.3125 H   0  0  0  0  0  0  0  0  0  0  0  0
  139.2266  158.9337  135.6505 H   0  0  0  0  0  0  0  0  0  0  0  0
  139.5131  157.1543  135.4563 H   0  0  0  0  0  0  0  0  0  0  0  0
  141.6215  158.9820  134.3722 H   0  0  0  0  0  0  0  0  0  0  0  0
  141.4441  158.8800  136.1818 H   0  0  0  0  0  0  0  0  0  0  0  0
  142.0546  156.6492  136.2600 H   0  0  0  0  0  0  0  0  0  0  0  0
  141.5873  156.3460  134.5492 H   0  0  0  0  0  0  0  0  0  0  0  0
  142.6520  160.0460  132.7000 H   0  0  0  0  0  0  0  0  0  0  0  0
  147.1598  161.0879  133.2200 H   0  0  0  0  0  0  0  0  0  0  0  0
  149.3370  159.2625  132.9576 H   0  0  0  0  0  0  0  0  0  0  0  0
  149.8999  156.8125  132.8835 H   0  0  0  0  0  0  0  0  0  0  0  0
  145.6792  155.8288  133.3554 H   0  0  0  0  0  0  0  0  0  0  0  0
  1  2  1  0
  2  3  1  0
  2  4  1  0
  4  5  1  0
  5  6  1  0
  6  7  1  0
  7  8  1  0
  8  9  2  0
  8 10  1  0
 10 11  1  0
 11 12  1  0
 12 13  1  0
 12 14  2  0
 11 15  2  0
 15 16  1  0
 16 17  2  0
 17 18  1  0
 18 19  2  0
 19 20  1  0
 20 21  1  0
 20 22  1  0
 20 23  1  0
 19 24  1  0
 24 25  2  0
 25 10  1  0
 25 16  1  0
  1 26  1  0
  1 27  1  0
  1 28  1  0
  3 29  1  0
  3 30  1  0
  3 31  1  0
  4 32  1  0
  4 33  1  0
  5 34  1  0
  5 35  1  0
  6 36  1  0
  6 37  1  0
 13 38  1  0
 15 39  1  0
 17 40  1  0
 18 41  1  0
 24 42  1  0
M  CHG  1  13  -1
M  END
>  <UniqueID>  (61) 
60

>  <SMILES>  (61) 
CN(C)CCCOC(=O)n1c(C([NH-])=O)cc2ccc(C(F)(F)F)cc21

>  <Energy>  (61) 
74.35542317495887

>  <Genealogy>  (61) 
CN(C)CCCOC(=O)n1c(C([NH-])=O)cc2ccc(C(F)(F)F)cc21 (protonated)
CN(C)CCCOC(=O)n1c(C([NH-])=O)cc2ccc(C(F)(F)F)cc21 (3D coordinates assigned)
CN(C)CCCOC(=O)n1c(C([NH-])=O)cc2ccc(C(F)(F)F)cc21 (optimized conformer: 74.35542317495887 kcal/mol)

>  <smiles>  (61) 
CN(C)CCCOC(=O)n1c(C(N)=O)cc2ccc(C(F)(F)F)cc21

>  <score_type>  (61) 
oracle

>  <origin>  (61) 
adg

>  <m_score__min__energy>  (61) 
-6.2199999999999998

>  <m_primary>  (61) 
energy

$$$$
62:0
     RDKit          3D

 39 40  0  0  0  0  0  0  0  0999 V2000
  149.2010  153.7420  132.5720 C   0  0  0  0  0  0  0  0  0  0  0  0
  148.8310  154.8870  132.6480 C   0  0  0  0  0  0  0  0  0  0  0  0
  148.3870  156.2540  132.7370 C   0  0  0  0  0  0  0  0  0  0  0  0
  149.2690  157.3050  132.3940 C   0  0  0  0  0  0  0  0  0  0  0  0
  148.8410  158.6420  132.4600 C   0  0  0  0  0  0  0  0  0  0  0  0
  147.5370  158.8900  132.8790 C   0  0  0  0  0  0  0  0  0  0  0  0
  146.8520  160.0790  132.9920 C   0  0  0  0  0  0  0  0  0  0  0  0
  145.5740  159.7300  133.4240 C   0  0  0  0  0  0  0  0  0  0  0  0
  144.5180  160.7160  133.7340 C   0  0  0  0  0  0  0  0  0  0  0  0
  143.1630  160.4850  133.3570 N   0  0  0  0  0  0  0  0  0  0  0  0
  144.8090  161.7610  134.3750 O   0  0  0  0  0  0  0  0  0  0  0  0
  145.4730  158.3800  133.5710 N   0  0  0  0  0  0  0  0  0  0  0  0
  144.3010  157.6140  133.8840 C   0  0  0  0  0  0  0  0  0  0  0  0
  144.3420  156.7550  134.8060 O   0  0  0  0  0  0  0  0  0  0  0  0
  143.1350  157.8000  133.1330 O   0  0  0  0  0  0  0  0  0  0  0  0
  142.0960  156.8280  133.0260 C   0  0  0  0  0  0  0  0  0  0  0  0
  140.7530  157.4830  132.6570 C   0  0  0  0  0  0  0  0  0  0  0  0
  140.8660  158.9510  132.4340 N   0  0  0  0  0  0  0  0  0  0  0  0
  140.0390  159.3700  131.2880 C   0  0  0  0  0  0  0  0  0  0  0  0
  140.4540  159.7080  133.6320 C   0  0  0  0  0  0  0  0  0  0  0  0
  146.6800  157.8790  133.2320 C   0  0  0  0  0  0  0  0  0  0  0  0
  147.0720  156.5370  133.1570 C   0  0  0  0  0  0  0  0  0  0  0  0
  149.5386  152.6974  132.5027 H   0  0  0  0  0  0  0  0  0  0  0  0
  150.2958  157.0747  132.0737 H   0  0  0  0  0  0  0  0  0  0  0  0
  149.5159  159.4672  132.1889 H   0  0  0  0  0  0  0  0  0  0  0  0
  147.2328  161.0900  132.7851 H   0  0  0  0  0  0  0  0  0  0  0  0
  142.9270  159.8640  132.5530 H   0  0  0  0  0  0  0  0  0  0  0  0
  142.3655  156.0998  132.2469 H   0  0  0  0  0  0  0  0  0  0  0  0
  141.9836  156.3313  134.0010 H   0  0  0  0  0  0  0  0  0  0  0  0
  140.3763  157.0159  131.7351 H   0  0  0  0  0  0  0  0  0  0  0  0
  140.0674  157.3296  133.5034 H   0  0  0  0  0  0  0  0  0  0  0  0
  141.8550  159.2100  132.2070 H   0  0  0  0  0  0  0  0  0  0  0  0
  139.1140  159.8386  131.6552 H   0  0  0  0  0  0  0  0  0  0  0  0
  140.5988  160.0932  130.6768 H   0  0  0  0  0  0  0  0  0  0  0  0
  139.7870  158.4908  130.6768 H   0  0  0  0  0  0  0  0  0  0  0  0
  140.7541  159.1566  134.5353 H   0  0  0  0  0  0  0  0  0  0  0  0
  140.9393  160.6951  133.6268 H   0  0  0  0  0  0  0  0  0  0  0  0
  139.3615  159.8364  133.6268 H   0  0  0  0  0  0  0  0  0  0  0  0
  146.3743  155.7277  133.4181 H   0  0  0  0  0  0  0  0  0  0  0  0
  1  2  3  0
  2  3  1  0
  3  4  2  0
  4  5  1  0
  5  6  2  0
  6  7  1  0
  7  8  2  0
  8  9  1  0
  9 10  1  0
  9 11  2  0
  8 12  1  0
 12 13  1  0
 13 14  2  0
 13 15  1  0
 15 16  1  0
 16 17  1  0
 17 18  1  0
 18 19  1  0
 18 20  1  0
 12 21  1  0
 21 22  2  0
 22  3  1  0
 21  6  1  0
  1 23  1  0
  4 24  1  0
  5 25  1  0
  7 26  1  0
 10 27  1  0
 16 28  1  0
 16 29  1  0
 17 30  1  0
 17 31  1  0
 18 32  1  0
 19 33  1  0
 19 34  1  0
 19 35  1  0
 20 36  1  0
 20 37  1  0
 20 38  1  0
 22 39  1  0
M  CHG  2  10  -1  18   1
M  END
>  <UniqueID>  (62) 
61

>  <SMILES>  (62) 
C#Cc1ccc2cc(C([NH-])=O)n(C(=O)OCC[NH+](C)C)c2c1

>  <Energy>  (62) 
76.84599572242992

>  <Genealogy>  (62) 
C#Cc1ccc2cc(C([NH-])=O)n(C(=O)OCC[NH+](C)C)c2c1 (protonated)
C#Cc1ccc2cc(C([NH-])=O)n(C(=O)OCC[NH+](C)C)c2c1 (3D coordinates assigned)
C#Cc1ccc2cc(C([NH-])=O)n(C(=O)OCC[NH+](C)C)c2c1 (optimized conformer: 76.84599572242992 kcal/mol)

>  <smiles>  (62) 
C#Cc1ccc2cc(C(N)=O)n(C(=O)OCCN(C)C)c2c1

>  <score_type>  (62) 
oracle

>  <origin>  (62) 
adg

>  <m_score__min__energy>  (62) 
-5.7599999999999998

>  <m_primary>  (62) 
energy

$$$$
63:0
     RDKit          3D

 36 37  0  0  0  0  0  0  0  0999 V2000
  142.3470  157.3070  132.6120 N   0  0  0  0  0  0  0  0  0  0  0  0
  142.4310  157.7130  133.9800 C   0  0  0  0  0  0  0  0  0  0  0  0
  142.7810  158.8920  134.2490 O   0  0  0  0  0  0  0  0  0  0  0  0
  142.1480  156.7530  135.0710 C   0  0  0  0  0  0  0  0  0  0  0  0
  141.3620  157.0510  136.1830 C   0  0  0  0  0  0  0  0  0  0  0  0
  141.2700  155.8750  136.8900 C   0  0  0  0  0  0  0  0  0  0  0  0
  140.6040  155.5980  138.0810 C   0  0  0  0  0  0  0  0  0  0  0  0
  140.6930  154.2940  138.5970 C   0  0  0  0  0  0  0  0  0  0  0  0
  141.4540  153.3030  137.9280 C   0  0  0  0  0  0  0  0  0  0  0  0
  141.5260  151.9060  138.4780 C   0  0  0  0  0  0  0  0  0  0  0  0
  140.5390  151.0290  137.7790 C   0  0  0  0  0  0  0  0  0  0  0  0
  139.6610  150.4120  138.4390 O   0  0  0  0  0  0  0  0  0  0  0  0
  140.6170  150.8520  136.4030 O   0  0  0  0  0  0  0  0  0  0  0  0
  142.1070  153.6190  136.7160 C   0  0  0  0  0  0  0  0  0  0  0  0
  141.9840  154.9200  136.2140 C   0  0  0  0  0  0  0  0  0  0  0  0
  142.5290  155.4440  135.0930 N   0  0  0  0  0  0  0  0  0  0  0  0
  143.3800  154.7590  134.1590 C   0  0  0  0  0  0  0  0  0  0  0  0
  144.5460  154.4190  134.5000 O   0  0  0  0  0  0  0  0  0  0  0  0
  142.9050  154.4570  132.8800 O   0  0  0  0  0  0  0  0  0  0  0  0
  142.2670  153.2250  132.5650 C   0  0  0  0  0  0  0  0  0  0  0  0
  140.9730  153.1080  133.3660 C   0  0  0  0  0  0  0  0  0  0  0  0
  139.9990  154.1790  132.9780 C   0  0  0  0  0  0  0  0  0  0  0  0
  140.2810  155.3570  133.1330 O   0  0  0  0  0  0  0  0  0  0  0  0
  142.0080  156.3560  132.3480 H   0  0  0  0  0  0  0  0  0  0  0  0
  142.5870  157.9800  131.8510 H   0  0  0  0  0  0  0  0  0  0  0  0
  140.9111  158.0208  136.4403 H   0  0  0  0  0  0  0  0  0  0  0  0
  140.0262  156.3758  138.6018 H   0  0  0  0  0  0  0  0  0  0  0  0
  140.1670  154.0399  139.5291 H   0  0  0  0  0  0  0  0  0  0  0  0
  142.5396  151.5067  138.3259 H   0  0  0  0  0  0  0  0  0  0  0  0
  141.2907  151.9288  139.5523 H   0  0  0  0  0  0  0  0  0  0  0  0
  142.6976  152.8615  136.1799 H   0  0  0  0  0  0  0  0  0  0  0  0
  142.0376  153.1944  131.4896 H   0  0  0  0  0  0  0  0  0  0  0  0
  142.9347  152.3886  132.8192 H   0  0  0  0  0  0  0  0  0  0  0  0
  140.5199  152.1241  133.1748 H   0  0  0  0  0  0  0  0  0  0  0  0
  141.2116  153.2231  134.4336 H   0  0  0  0  0  0  0  0  0  0  0  0
  139.0238  153.9022  132.5509 H   0  0  0  0  0  0  0  0  0  0  0  0
  1  2  1  0
  2  3  2  0
  2  4  1  0
  4  5  2  0
  5  6  1  0
  6  7  2  0
  7  8  1  0
  8  9  2  0
  9 10  1  0
 10 11  1  0
 11 12  2  0
 11 13  1  0
  9 14  1  0
 14 15  2  0
 15 16  1  0
 16 17  1  0
 17 18  2  0
 17 19  1  0
 19 20  1  0
 20 21  1  0
 21 22  1  0
 22 23  2  0
 16  4  1  0
 15  6  1  0
  1 24  1  0
  1 25  1  0
  5 26  1  0
  7 27  1  0
  8 28  1  0
 10 29  1  0
 10 30  1  0
 14 31  1  0
 20 32  1  0
 20 33  1  0
 21 34  1  0
 21 35  1  0
 22 36  1  0
M  CHG  1  13  -1
M  END
>  <UniqueID>  (63) 
62

>  <SMILES>  (63) 
NC(=O)c1cc2ccc(CC(=O)[O-])cc2n1C(=O)OCCC=O

>  <Energy>  (63) 
66.74247563547976

>  <Genealogy>  (63) 
NC(=O)c1cc2ccc(CC(=O)[O-])cc2n1C(=O)OCCC=O (protonated)
NC(=O)c1cc2ccc(CC(=O)[O-])cc2n1C(=O)OCCC=O (3D coordinates assigned)
NC(=O)c1cc2ccc(CC(=O)[O-])cc2n1C(=O)OCCC=O (optimized conformer: 66.74247563547976 kcal/mol)

>  <smiles>  (63) 
NC(=O)c1cc2ccc(CC(=O)O)cc2n1C(=O)OCCC=O

>  <score_type>  (63) 
oracle

>  <origin>  (63) 
adg

>  <m_score__min__energy>  (63) 
-6.6900000000000004

>  <m_primary>  (63) 
energy

$$$$
64:0
     RDKit          3D

 39 41  0  0  0  0  0  0  0  0999 V2000
  149.1450  158.9840  134.7640 N   0  0  0  0  0  0  0  0  0  0  0  0
  148.4300  159.3850  133.5980 C   0  0  0  0  0  0  0  0  0  0  0  0
  149.0710  159.7530  132.5780 O   0  0  0  0  0  0  0  0  0  0  0  0
  146.9510  159.4090  133.5810 C   0  0  0  0  0  0  0  0  0  0  0  0
  146.1980  160.5780  133.6650 C   0  0  0  0  0  0  0  0  0  0  0  0
  144.8850  160.1670  133.6730 C   0  0  0  0  0  0  0  0  0  0  0  0
  143.7130  160.9130  133.7280 C   0  0  0  0  0  0  0  0  0  0  0  0
  142.4890  160.2230  133.6890 C   0  0  0  0  0  0  0  0  0  0  0  0
  142.4540  158.8070  133.5860 C   0  0  0  0  0  0  0  0  0  0  0  0
  141.1890  158.1080  133.5360 N   0  0  0  0  0  0  0  0  0  0  0  0
  141.0660  156.7520  134.0870 C   0  0  0  0  0  0  0  0  0  0  0  0
  139.9120  156.0080  133.4090 C   0  0  0  0  0  0  0  0  0  0  0  0
  138.6280  156.7210  133.5400 N   0  0  0  0  0  0  0  0  0  0  0  0
  138.7300  158.1950  133.5410 C   0  0  0  0  0  0  0  0  0  0  0  0
  140.0180  158.7200  132.8950 C   0  0  0  0  0  0  0  0  0  0  0  0
  143.6710  158.0870  133.5310 C   0  0  0  0  0  0  0  0  0  0  0  0
  144.8730  158.8000  133.5910 C   0  0  0  0  0  0  0  0  0  0  0  0
  146.1340  158.3190  133.5390 N   0  0  0  0  0  0  0  0  0  0  0  0
  146.5160  156.9440  133.3830 C   0  0  0  0  0  0  0  0  0  0  0  0
  145.8540  156.1930  132.6160 O   0  0  0  0  0  0  0  0  0  0  0  0
  147.6960  156.3880  134.1230 C   0  0  0  0  0  0  0  0  0  0  0  0
  148.8660  156.5820  133.3770 O   0  0  0  0  0  0  0  0  0  0  0  0
  149.3330  157.9750  134.9580 H   0  0  0  0  0  0  0  0  0  0  0  0
  146.5735  161.6107  133.7144 H   0  0  0  0  0  0  0  0  0  0  0  0
  143.7427  162.0102  133.7999 H   0  0  0  0  0  0  0  0  0  0  0  0
  141.5460  160.7871  133.7389 H   0  0  0  0  0  0  0  0  0  0  0  0
  142.0035  156.2032  133.9141 H   0  0  0  0  0  0  0  0  0  0  0  0
  140.8641  156.8202  135.1662 H   0  0  0  0  0  0  0  0  0  0  0  0
  140.1451  155.8940  132.3400 H   0  0  0  0  0  0  0  0  0  0  0  0
  139.8053  155.0321  133.9052 H   0  0  0  0  0  0  0  0  0  0  0  0
  138.0140  156.4270  132.7440 H   0  0  0  0  0  0  0  0  0  0  0  0
  137.8715  158.6037  132.9878 H   0  0  0  0  0  0  0  0  0  0  0  0
  138.7409  158.5176  134.5926 H   0  0  0  0  0  0  0  0  0  0  0  0
  140.0166  158.4689  131.8240 H   0  0  0  0  0  0  0  0  0  0  0  0
  140.0664  159.8114  133.0231 H   0  0  0  0  0  0  0  0  0  0  0  0
  143.6718  156.9905  133.4430 H   0  0  0  0  0  0  0  0  0  0  0  0
  147.7927  156.9004  135.0915 H   0  0  0  0  0  0  0  0  0  0  0  0
  147.5455  155.3103  134.2837 H   0  0  0  0  0  0  0  0  0  0  0  0
  149.2820  157.4200  133.7130 H   0  0  0  0  0  0  0  0  0  0  0  0
  1  2  1  0
  2  3  2  0
  2  4  1  0
  4  5  2  0
  5  6  1  0
  6  7  2  0
  7  8  1  0
  8  9  2  0
  9 10  1  0
 10 11  1  0
 11 12  1  0
 12 13  1  0
 13 14  1  0
 14 15  1  0
  9 16  1  0
 16 17  2  0
 17 18  1  0
 18 19  1  0
 19 20  2  0
 19 21  1  0
 21 22  1  0
 18  4  1  0
 17  6  1  0
 15 10  1  0
  1 23  1  0
  5 24  1  0
  7 25  1  0
  8 26  1  0
 11 27  1  0
 11 28  1  0
 12 29  1  0
 12 30  1  0
 13 31  1  0
 14 32  1  0
 14 33  1  0
 15 34  1  0
 15 35  1  0
 16 36  1  0
 21 37  1  0
 21 38  1  0
 22 39  1  0
M  CHG  1   1  -1
M  END
>  <UniqueID>  (64) 
63

>  <SMILES>  (64) 
[NH-]C(=O)c1cc2ccc(N3CCNCC3)cc2n1C(=O)CO

>  <Energy>  (64) 
86.70573640875914

>  <Genealogy>  (64) 
[NH-]C(=O)c1cc2ccc(N3CCNCC3)cc2n1C(=O)CO (protonated)
[NH-]C(=O)c1cc2ccc(N3CCNCC3)cc2n1C(=O)CO (3D coordinates assigned)
[NH-]C(=O)c1cc2ccc(N3CCNCC3)cc2n1C(=O)CO (nonaromatic ring conformer: 86.70573640875914 kcal/mol)

>  <smiles>  (64) 
NC(=O)c1cc2ccc(N3CCNCC3)cc2n1C(=O)CO

>  <score_type>  (64) 
oracle

>  <origin>  (64) 
adg

>  <m_score__min__energy>  (64) 
-6.9199999999999999

>  <m_primary>  (64) 
energy

$$$$
65:0
     RDKit          3D

 35 36  0  0  0  0  0  0  0  0999 V2000
  141.9140  157.0530  133.9960 C   0  0  0  0  0  0  0  0  0  0  0  0
  142.3730  158.3140  134.5940 N   0  0  0  0  0  0  0  0  0  0  0  0
  141.5520  158.9440  135.6360 C   0  0  0  0  0  0  0  0  0  0  0  0
  143.6160  158.9260  134.1640 C   0  0  0  0  0  0  0  0  0  0  0  0
  143.7480  160.3420  134.1110 C   0  0  0  0  0  0  0  0  0  0  0  0
  144.9520  160.9440  133.7070 C   0  0  0  0  0  0  0  0  0  0  0  0
  146.0090  160.1160  133.3510 C   0  0  0  0  0  0  0  0  0  0  0  0
  147.2850  160.4360  132.9470 C   0  0  0  0  0  0  0  0  0  0  0  0
  147.9200  159.2150  132.7310 C   0  0  0  0  0  0  0  0  0  0  0  0
  149.2930  159.0950  132.1980 C   0  0  0  0  0  0  0  0  0  0  0  0
  149.8550  157.8210  131.8950 N   0  0  0  0  0  0  0  0  0  0  0  0
  149.9640  160.1360  131.9630 O   0  0  0  0  0  0  0  0  0  0  0  0
  147.0710  158.1810  133.0000 N   0  0  0  0  0  0  0  0  0  0  0  0
  147.3580  156.7750  132.9750 C   0  0  0  0  0  0  0  0  0  0  0  0
  147.3480  156.1510  131.8790 O   0  0  0  0  0  0  0  0  0  0  0  0
  147.6700  156.1100  134.1660 O   0  0  0  0  0  0  0  0  0  0  0  0
  147.5560  154.6990  134.3290 C   0  0  0  0  0  0  0  0  0  0  0  0
  146.6360  154.3790  135.4630 C   0  0  0  0  0  0  0  0  0  0  0  0
  145.5500  155.0020  135.5900 O   0  0  0  0  0  0  0  0  0  0  0  0
  146.9620  153.3710  136.3630 O   0  0  0  0  0  0  0  0  0  0  0  0
  145.9040  158.7520  133.3740 C   0  0  0  0  0  0  0  0  0  0  0  0
  144.7260  158.1230  133.7920 C   0  0  0  0  0  0  0  0  0  0  0  0
  141.6551  156.3416  134.7941 H   0  0  0  0  0  0  0  0  0  0  0  0
  141.0277  157.2438  133.3731 H   0  0  0  0  0  0  0  0  0  0  0  0
  142.7156  156.6294  133.3731 H   0  0  0  0  0  0  0  0  0  0  0  0
  141.9308  158.6533  136.6270 H   0  0  0  0  0  0  0  0  0  0  0  0
  141.6019  160.0378  135.5308 H   0  0  0  0  0  0  0  0  0  0  0  0
  140.5084  158.6127  135.5308 H   0  0  0  0  0  0  0  0  0  0  0  0
  142.8936  160.9758  134.3908 H   0  0  0  0  0  0  0  0  0  0  0  0
  145.0543  162.0387  133.6737 H   0  0  0  0  0  0  0  0  0  0  0  0
  147.7125  161.4417  132.8214 H   0  0  0  0  0  0  0  0  0  0  0  0
  149.2700  157.0610  131.4810 H   0  0  0  0  0  0  0  0  0  0  0  0
  147.1576  154.2581  133.4033 H   0  0  0  0  0  0  0  0  0  0  0  0
  148.5506  154.2832  134.5476 H   0  0  0  0  0  0  0  0  0  0  0  0
  144.6612  157.0256  133.8317 H   0  0  0  0  0  0  0  0  0  0  0  0
  1  2  1  0
  2  3  1  0
  2  4  1  0
  4  5  2  0
  5  6  1  0
  6  7  2  0
  7  8  1  0
  8  9  2  0
  9 10  1  0
 10 11  1  0
 10 12  2  0
  9 13  1  0
 13 14  1  0
 14 15  2  0
 14 16  1  0
 16 17  1  0
 17 18  1  0
 18 19  2  0
 18 20  1  0
 13 21  1  0
 21 22  2  0
 22  4  1  0
 21  7  1  0
  1 23  1  0
  1 24  1  0
  1 25  1  0
  3 26  1  0
  3 27  1  0
  3 28  1  0
  5 29  1  0
  6 30  1  0
  8 31  1  0
 11 32  1  0
 17 33  1  0
 17 34  1  0
 22 35  1  0
M  CHG  2  11  -1  20  -1
M  END
>  <UniqueID>  (65) 
64

>  <SMILES>  (65) 
CN(C)c1ccc2cc(C([NH-])=O)n(C(=O)OCC(=O)[O-])c2c1

>  <Energy>  (65) 
73.44573201484795

>  <Genealogy>  (65) 
CN(C)c1ccc2cc(C([NH-])=O)n(C(=O)OCC(=O)[O-])c2c1 (protonated)
CN(C)c1ccc2cc(C([NH-])=O)n(C(=O)OCC(=O)[O-])c2c1 (3D coordinates assigned)
CN(C)c1ccc2cc(C([NH-])=O)n(C(=O)OCC(=O)[O-])c2c1 (optimized conformer: 73.44573201484795 kcal/mol)

>  <smiles>  (65) 
CN(C)c1ccc2cc(C(N)=O)n(C(=O)OCC(=O)O)c2c1

>  <score_type>  (65) 
oracle

>  <origin>  (65) 
adg

>  <m_score__min__energy>  (65) 
-6.0599999999999996

>  <m_primary>  (65) 
energy

$$$$
66:0
     RDKit          3D

 42 43  0  0  0  0  0  0  0  0999 V2000
  149.4520  161.4050  130.4250 C   0  0  0  0  0  0  0  0  0  0  0  0
  148.9120  160.2480  131.2000 C   0  0  0  0  0  0  0  0  0  0  0  0
  149.3350  159.0840  130.9570 O   0  0  0  0  0  0  0  0  0  0  0  0
  147.9250  160.4800  132.1690 O   0  0  0  0  0  0  0  0  0  0  0  0
  147.6390  159.6280  133.2440 C   0  0  0  0  0  0  0  0  0  0  0  0
  148.5250  159.3380  134.0920 O   0  0  0  0  0  0  0  0  0  0  0  0
  146.3170  159.0800  133.3790 N   0  0  0  0  0  0  0  0  0  0  0  0
  145.1820  159.7440  133.7320 C   0  0  0  0  0  0  0  0  0  0  0  0
  145.0510  161.2050  133.8850 C   0  0  0  0  0  0  0  0  0  0  0  0
  146.2010  162.0170  134.1070 N   0  0  0  0  0  0  0  0  0  0  0  0
  143.9150  161.7450  133.7910 O   0  0  0  0  0  0  0  0  0  0  0  0
  144.1130  158.8620  133.8530 C   0  0  0  0  0  0  0  0  0  0  0  0
  144.6320  157.6220  133.5570 C   0  0  0  0  0  0  0  0  0  0  0  0
  144.0110  156.3770  133.5300 C   0  0  0  0  0  0  0  0  0  0  0  0
  144.7940  155.2560  133.2150 C   0  0  0  0  0  0  0  0  0  0  0  0
  146.1830  155.3830  132.9360 C   0  0  0  0  0  0  0  0  0  0  0  0
  146.9540  154.1950  132.5820 N   0  0  2  0  0  0  0  0  0  0  0  0
  146.1530  152.9560  132.6620 C   0  0  0  0  0  0  0  0  0  0  0  0
  148.2620  154.0900  133.2950 C   0  0  0  0  0  0  0  0  0  0  0  0
  148.0710  153.7290  134.7790 C   0  0  0  0  0  0  0  0  0  0  0  0
  149.2620  153.1100  132.6500 C   0  0  0  0  0  0  0  0  0  0  0  0
  146.7730  156.6780  132.9770 C   0  0  0  0  0  0  0  0  0  0  0  0
  145.9630  157.7780  133.2770 C   0  0  0  0  0  0  0  0  0  0  0  0
  149.8121  162.1767  131.1213 H   0  0  0  0  0  0  0  0  0  0  0  0
  150.2846  161.0654  129.7915 H   0  0  0  0  0  0  0  0  0  0  0  0
  148.6569  161.8251  129.7915 H   0  0  0  0  0  0  0  0  0  0  0  0
  147.0020  161.9970  133.4410 H   0  0  0  0  0  0  0  0  0  0  0  0
  143.0754  159.1038  134.1266 H   0  0  0  0  0  0  0  0  0  0  0  0
  142.9379  156.2746  133.7491 H   0  0  0  0  0  0  0  0  0  0  0  0
  144.3253  154.2613  133.1832 H   0  0  0  0  0  0  0  0  0  0  0  0
  147.1930  154.2690  131.5650 H   0  0  0  0  0  0  0  0  0  0  0  0
  145.9847  152.6957  133.7174 H   0  0  0  0  0  0  0  0  0  0  0  0
  145.1847  153.1126  132.1641 H   0  0  0  0  0  0  0  0  0  0  0  0
  146.6932  152.1373  132.1641 H   0  0  0  0  0  0  0  0  0  0  0  0
  148.7029  155.0941  133.2092 H   0  0  0  0  0  0  0  0  0  0  0  0
  148.4931  154.5268  135.4077 H   0  0  0  0  0  0  0  0  0  0  0  0
  146.9978  153.6211  134.9949 H   0  0  0  0  0  0  0  0  0  0  0  0
  148.5856  152.7811  134.9949 H   0  0  0  0  0  0  0  0  0  0  0  0
  149.8098  152.5732  133.4385 H   0  0  0  0  0  0  0  0  0  0  0  0
  148.7163  152.3873  132.0256 H   0  0  0  0  0  0  0  0  0  0  0  0
  149.9735  153.6702  132.0256 H   0  0  0  0  0  0  0  0  0  0  0  0
  147.8463  156.8110  132.7764 H   0  0  0  0  0  0  0  0  0  0  0  0
  1  2  1  0
  2  3  2  0
  2  4  1  0
  4  5  1  0
  5  6  2  0
  5  7  1  0
  7  8  1  0
  8  9  1  0
  9 10  1  0
  9 11  2  0
  8 12  2  0
 12 13  1  0
 13 14  2  0
 14 15  1  0
 15 16  2  0
 16 17  1  0
 17 18  1  0
 17 19  1  0
 19 20  1  0
 19 21  1  0
 16 22  1  0
 22 23  2  0
 23  7  1  0
 23 13  1  0
  1 24  1  0
  1 25  1  0
  1 26  1  0
 10 27  1  0
 12 28  1  0
 14 29  1  0
 15 30  1  0
 17 31  1  6
 18 32  1  0
 18 33  1  0
 18 34  1  0
 19 35  1  0
 20 36  1  0
 20 37  1  0
 20 38  1  0
 21 39  1  0
 21 40  1  0
 21 41  1  0
 22 42  1  0
M  CHG  2  10  -1  17   1
M  END
>  <UniqueID>  (66) 
65

>  <SMILES>  (66) 
CC(=O)OC(=O)n1c(C([NH-])=O)cc2ccc([N@H+](C)C(C)C)cc21

>  <Energy>  (66) 
87.04829235303565

>  <Genealogy>  (66) 
CC(=O)OC(=O)n1c(C([NH-])=O)cc2ccc([NH+](C)C(C)C)cc21 (protonated)
CC(=O)OC(=O)n1c(C([NH-])=O)cc2ccc([N@H+](C)C(C)C)cc21 (chirality)
CC(=O)OC(=O)n1c(C([NH-])=O)cc2ccc([N@H+](C)C(C)C)cc21 (3D coordinates assigned)
CC(=O)OC(=O)n1c(C([NH-])=O)cc2ccc([N@H+](C)C(C)C)cc21 (optimized conformer: 87.04829235303565 kcal/mol)

>  <smiles>  (66) 
CC(=O)OC(=O)n1c(C(N)=O)cc2ccc(N(C)C(C)C)cc21

>  <score_type>  (66) 
oracle

>  <origin>  (66) 
adg

>  <m_score__min__energy>  (66) 
-6.71

>  <m_primary>  (66) 
energy

$$$$
67:0
     RDKit          3D

 45 46  0  0  0  0  0  0  0  0999 V2000
  142.2620  160.0080  133.0240 N   0  0  0  0  0  0  0  0  0  0  0  0
  143.5360  160.4860  133.4600 C   0  0  0  0  0  0  0  0  0  0  0  0
  143.6200  161.6470  133.9450 O   0  0  0  0  0  0  0  0  0  0  0  0
  144.7370  159.6280  133.3760 C   0  0  0  0  0  0  0  0  0  0  0  0
  146.0470  160.1050  133.4340 C   0  0  0  0  0  0  0  0  0  0  0  0
  146.8470  159.0010  133.2420 C   0  0  0  0  0  0  0  0  0  0  0  0
  148.2360  158.8930  133.2260 C   0  0  0  0  0  0  0  0  0  0  0  0
  148.7940  157.6150  133.0480 C   0  0  0  0  0  0  0  0  0  0  0  0
  147.9580  156.4840  132.8980 C   0  0  0  0  0  0  0  0  0  0  0  0
  148.5390  155.1770  132.7390 C   0  0  0  0  0  0  0  0  0  0  0  0
  149.0240  154.0820  132.6050 C   0  0  0  0  0  0  0  0  0  0  0  0
  149.6150  152.7480  132.4420 C   0  0  0  0  0  0  0  0  0  0  0  0
  148.6440  151.6610  132.8970 C   0  0  0  0  0  0  0  0  0  0  0  0
  149.2480  150.8510  133.8680 O   0  0  0  0  0  0  0  0  0  0  0  0
  146.5570  156.6280  132.9150 C   0  0  0  0  0  0  0  0  0  0  0  0
  146.0290  157.9140  133.0760 C   0  0  0  0  0  0  0  0  0  0  0  0
  144.7320  158.2830  133.1540 N   0  0  0  0  0  0  0  0  0  0  0  0
  143.5940  157.4070  133.1100 C   0  0  0  0  0  0  0  0  0  0  0  0
  143.0280  157.1660  132.0090 O   0  0  0  0  0  0  0  0  0  0  0  0
  143.1380  156.8030  134.2880 O   0  0  0  0  0  0  0  0  0  0  0  0
  141.8810  157.1100  134.8860 C   0  0  0  0  0  0  0  0  0  0  0  0
  140.8720  157.4170  133.8260 C   0  0  0  0  0  0  0  0  0  0  0  0
  140.5580  156.5290  132.9870 O   0  0  0  0  0  0  0  0  0  0  0  0
  140.3290  158.7040  133.7440 O   0  0  0  0  0  0  0  0  0  0  0  0
  139.1070  158.9960  133.0690 C   0  0  0  0  0  0  0  0  0  0  0  0
  139.3020  158.9070  131.5550 C   0  0  0  0  0  0  0  0  0  0  0  0
  140.6650  158.9840  131.2350 O   0  0  0  0  0  0  0  0  0  0  0  0
  141.4150  160.6090  133.1240 H   0  0  0  0  0  0  0  0  0  0  0  0
  142.1600  159.0770  132.5630 H   0  0  0  0  0  0  0  0  0  0  0  0
  146.3717  161.1430  133.5983 H   0  0  0  0  0  0  0  0  0  0  0  0
  148.8756  159.7795  133.3487 H   0  0  0  0  0  0  0  0  0  0  0  0
  149.8871  157.4939  133.0253 H   0  0  0  0  0  0  0  0  0  0  0  0
  149.8605  152.5903  131.3814 H   0  0  0  0  0  0  0  0  0  0  0  0
  150.5229  152.6886  133.0602 H   0  0  0  0  0  0  0  0  0  0  0  0
  147.7454  152.1311  133.3231 H   0  0  0  0  0  0  0  0  0  0  0  0
  148.3675  151.0404  132.0319 H   0  0  0  0  0  0  0  0  0  0  0  0
  148.5090  150.4990  134.4300 H   0  0  0  0  0  0  0  0  0  0  0  0
  145.8970  155.7549  132.8049 H   0  0  0  0  0  0  0  0  0  0  0  0
  141.5381  156.2476  135.4765 H   0  0  0  0  0  0  0  0  0  0  0  0
  141.9966  157.9872  135.5395 H   0  0  0  0  0  0  0  0  0  0  0  0
  138.3393  158.2718  133.3791 H   0  0  0  0  0  0  0  0  0  0  0  0
  138.7897  160.0166  133.3293 H   0  0  0  0  0  0  0  0  0  0  0  0
  138.8976  157.9504  131.1925 H   0  0  0  0  0  0  0  0  0  0  0  0
  138.7739  159.7448  131.0761 H   0  0  0  0  0  0  0  0  0  0  0  0
  141.1190  158.2720  131.7560 H   0  0  0  0  0  0  0  0  0  0  0  0
  1  2  1  0
  2  3  2  0
  2  4  1  0
  4  5  2  0
  5  6  1  0
  6  7  2  0
  7  8  1  0
  8  9  2  0
  9 10  1  0
 10 11  3  0
 11 12  1  0
 12 13  1  0
 13 14  1  0
  9 15  1  0
 15 16  2  0
 16 17  1  0
 17 18  1  0
 18 19  2  0
 18 20  1  0
 20 21  1  0
 21 22  1  0
 22 23  2  0
 22 24  1  0
 24 25  1  0
 25 26  1  0
 26 27  1  0
 17  4  1  0
 16  6  1  0
  1 28  1  0
  1 29  1  0
  5 30  1  0
  7 31  1  0
  8 32  1  0
 12 33  1  0
 12 34  1  0
 13 35  1  0
 13 36  1  0
 14 37  1  0
 15 38  1  0
 21 39  1  0
 21 40  1  0
 25 41  1  0
 25 42  1  0
 26 43  1  0
 26 44  1  0
 27 45  1  0
M  END
>  <UniqueID>  (67) 
66

>  <SMILES>  (67) 
NC(=O)c1cc2ccc(C#CCCO)cc2n1C(=O)OCC(=O)OCCO

>  <Energy>  (67) 
68.8159669739413

>  <Genealogy>  (67) 
NC(=O)c1cc2ccc(C#CCCO)cc2n1C(=O)OCC(=O)OCCO (3D coordinates assigned)
NC(=O)c1cc2ccc(C#CCCO)cc2n1C(=O)OCC(=O)OCCO (optimized conformer: 68.8159669739413 kcal/mol)

>  <smiles>  (67) 
NC(=O)c1cc2ccc(C#CCCO)cc2n1C(=O)OCC(=O)OCCO

>  <score_type>  (67) 
oracle

>  <origin>  (67) 
adg

>  <m_score__min__energy>  (67) 
-6.46

>  <m_primary>  (67) 
energy

$$$$
68:0
     RDKit          3D

 37 38  0  0  0  0  0  0  0  0999 V2000
  141.1470  159.7220  135.0770 N   0  0  0  0  0  0  0  0  0  0  0  0
  141.9050  160.3950  134.0700 C   0  0  0  0  0  0  0  0  0  0  0  0
  141.3600  161.3200  133.4110 O   0  0  0  0  0  0  0  0  0  0  0  0
  143.3000  159.9960  133.7800 C   0  0  0  0  0  0  0  0  0  0  0  0
  144.3720  160.8850  133.7310 C   0  0  0  0  0  0  0  0  0  0  0  0
  145.4870  160.1040  133.5300 C   0  0  0  0  0  0  0  0  0  0  0  0
  146.8250  160.4670  133.4080 C   0  0  0  0  0  0  0  0  0  0  0  0
  147.7660  159.4480  133.1860 C   0  0  0  0  0  0  0  0  0  0  0  0
  147.3560  158.0950  133.0640 C   0  0  0  0  0  0  0  0  0  0  0  0
  148.3760  157.0030  132.8630 C   0  0  0  0  0  0  0  0  0  0  0  0
  148.8380  156.5380  134.0820 F   0  0  0  0  0  0  0  0  0  0  0  0
  147.8250  155.9370  132.1750 F   0  0  0  0  0  0  0  0  0  0  0  0
  149.4420  157.5040  132.1390 F   0  0  0  0  0  0  0  0  0  0  0  0
  145.9900  157.7670  133.2170 C   0  0  0  0  0  0  0  0  0  0  0  0
  145.0770  158.7990  133.4600 C   0  0  0  0  0  0  0  0  0  0  0  0
  143.7380  158.7150  133.6150 N   0  0  0  0  0  0  0  0  0  0  0  0
  142.9510  157.5150  133.5640 C   0  0  0  0  0  0  0  0  0  0  0  0
  143.0100  156.7660  132.5500 O   0  0  0  0  0  0  0  0  0  0  0  0
  142.1310  157.1760  134.6450 O   0  0  0  0  0  0  0  0  0  0  0  0
  142.5730  156.3490  135.7170 C   0  0  0  0  0  0  0  0  0  0  0  0
  141.3730  155.7380  136.4450 C   0  0  0  0  0  0  0  0  0  0  0  0
  140.9270  156.5490  137.6700 C   0  0  0  0  0  0  0  0  0  0  0  0
  140.6330  157.9760  137.3190 C   0  0  0  0  0  0  0  0  0  0  0  0
  139.6950  158.2530  136.5260 O   0  0  0  0  0  0  0  0  0  0  0  0
  141.4190  158.9950  137.8410 O   0  0  0  0  0  0  0  0  0  0  0  0
  140.1510  159.9860  135.2480 H   0  0  0  0  0  0  0  0  0  0  0  0
  141.5790  158.9910  135.6850 H   0  0  0  0  0  0  0  0  0  0  0  0
  144.3348  161.9797  133.8317 H   0  0  0  0  0  0  0  0  0  0  0  0
  147.1360  161.5194  133.4831 H   0  0  0  0  0  0  0  0  0  0  0  0
  148.8333  159.7018  133.1058 H   0  0  0  0  0  0  0  0  0  0  0  0
  145.6517  156.7227  133.1465 H   0  0  0  0  0  0  0  0  0  0  0  0
  143.2041  155.5419  135.3165 H   0  0  0  0  0  0  0  0  0  0  0  0
  143.1494  156.9604  136.4269 H   0  0  0  0  0  0  0  0  0  0  0  0
  140.5305  155.6787  135.7402 H   0  0  0  0  0  0  0  0  0  0  0  0
  141.6824  154.7463  136.8066 H   0  0  0  0  0  0  0  0  0  0  0  0
  140.0183  156.0911  138.0879 H   0  0  0  0  0  0  0  0  0  0  0  0
  141.7482  156.5403  138.4018 H   0  0  0  0  0  0  0  0  0  0  0  0
  1  2  1  0
  2  3  2  0
  2  4  1  0
  4  5  2  0
  5  6  1  0
  6  7  2  0
  7  8  1  0
  8  9  2  0
  9 10  1  0
 10 11  1  0
 10 12  1  0
 10 13  1  0
  9 14  1  0
 14 15  2  0
 15 16  1  0
 16 17  1  0
 17 18  2  0
 17 19  1  0
 19 20  1  0
 20 21  1  0
 21 22  1  0
 22 23  1  0
 23 24  2  0
 23 25  1  0
 16  4  1  0
 15  6  1  0
  1 26  1  0
  1 27  1  0
  5 28  1  0
  7 29  1  0
  8 30  1  0
 14 31  1  0
 20 32  1  0
 20 33  1  0
 21 34  1  0
 21 35  1  0
 22 36  1  0
 22 37  1  0
M  CHG  1  25  -1
M  END
>  <UniqueID>  (68) 
67

>  <SMILES>  (68) 
NC(=O)c1cc2ccc(C(F)(F)F)cc2n1C(=O)OCCCC(=O)[O-]

>  <Energy>  (68) 
68.84218460847079

>  <Genealogy>  (68) 
NC(=O)c1cc2ccc(C(F)(F)F)cc2n1C(=O)OCCCC(=O)[O-] (protonated)
NC(=O)c1cc2ccc(C(F)(F)F)cc2n1C(=O)OCCCC(=O)[O-] (3D coordinates assigned)
NC(=O)c1cc2ccc(C(F)(F)F)cc2n1C(=O)OCCCC(=O)[O-] (optimized conformer: 68.84218460847079 kcal/mol)

>  <smiles>  (68) 
NC(=O)c1cc2ccc(C(F)(F)F)cc2n1C(=O)OCCCC(=O)O

>  <score_type>  (68) 
oracle

>  <origin>  (68) 
adg

>  <m_score__min__energy>  (68) 
-6.04

>  <m_primary>  (68) 
energy

$$$$
69:0
     RDKit          3D

 34 35  0  0  0  0  0  0  0  0999 V2000
  144.6340  154.0640  135.9770 C   0  0  0  0  0  0  0  0  0  0  0  0
  145.8730  154.5600  135.2310 C   0  0  1  0  0  0  0  0  0  0  0  0
  145.7950  155.9690  135.0260 O   0  0  0  0  0  0  0  0  0  0  0  0
  145.4570  156.5540  133.8000 C   0  0  0  0  0  0  0  0  0  0  0  0
  145.3180  155.8370  132.7720 O   0  0  0  0  0  0  0  0  0  0  0  0
  145.2940  157.9790  133.7110 N   0  0  0  0  0  0  0  0  0  0  0  0
  146.2810  158.9190  133.7130 C   0  0  0  0  0  0  0  0  0  0  0  0
  147.7280  158.6480  133.6340 C   0  0  0  0  0  0  0  0  0  0  0  0
  148.3190  157.5910  134.3920 N   0  0  0  0  0  0  0  0  0  0  0  0
  148.4450  159.3230  132.8460 O   0  0  0  0  0  0  0  0  0  0  0  0
  145.7430  160.2020  133.7280 C   0  0  0  0  0  0  0  0  0  0  0  0
  144.3770  160.0210  133.7230 C   0  0  0  0  0  0  0  0  0  0  0  0
  143.3520  160.9610  133.7290 C   0  0  0  0  0  0  0  0  0  0  0  0
  142.0280  160.4920  133.7520 C   0  0  0  0  0  0  0  0  0  0  0  0
  141.7500  159.1000  133.7990 C   0  0  0  0  0  0  0  0  0  0  0  0
  140.3260  158.5990  133.8110 C   0  0  0  0  0  0  0  0  0  0  0  0
  139.5470  159.4200  133.0180 F   0  0  0  0  0  0  0  0  0  0  0  0
  140.2700  157.3080  133.3160 F   0  0  0  0  0  0  0  0  0  0  0  0
  139.8080  158.5920  135.0970 F   0  0  0  0  0  0  0  0  0  0  0  0
  142.8210  158.1750  133.7630 C   0  0  0  0  0  0  0  0  0  0  0  0
  144.1300  158.6710  133.7190 C   0  0  0  0  0  0  0  0  0  0  0  0
  147.1110  154.2590  136.0200 C   0  0  0  0  0  0  0  0  0  0  0  0
  148.0560  155.0920  136.0540 O   0  0  0  0  0  0  0  0  0  0  0  0
  147.2170  153.0740  136.7390 O   0  0  0  0  0  0  0  0  0  0  0  0
  144.8066  154.1331  137.0612 H   0  0  0  0  0  0  0  0  0  0  0  0
  143.7682  154.6848  135.7033 H   0  0  0  0  0  0  0  0  0  0  0  0
  144.4358  153.0172  135.7033 H   0  0  0  0  0  0  0  0  0  0  0  0
  145.9164  154.0441  134.2605 H   0  0  0  0  0  0  0  0  0  0  0  0
  147.7280  156.9250  134.9350 H   0  0  0  0  0  0  0  0  0  0  0  0
  149.3510  157.4270  134.3500 H   0  0  0  0  0  0  0  0  0  0  0  0
  146.2905  161.1560  133.7410 H   0  0  0  0  0  0  0  0  0  0  0  0
  143.5714  162.0388  133.7161 H   0  0  0  0  0  0  0  0  0  0  0  0
  141.1963  161.2117  133.7334 H   0  0  0  0  0  0  0  0  0  0  0  0
  142.6295  157.0918  133.7694 H   0  0  0  0  0  0  0  0  0  0  0  0
  1  2  1  0
  2  3  1  0
  3  4  1  0
  4  5  2  0
  4  6  1  0
  6  7  1  0
  7  8  1  0
  8  9  1  0
  8 10  2  0
  7 11  2  0
 11 12  1  0
 12 13  2  0
 13 14  1  0
 14 15  2  0
 15 16  1  0
 16 17  1  0
 16 18  1  0
 16 19  1  0
 15 20  1  0
 20 21  2  0
  2 22  1  0
 22 23  2  0
 22 24  1  0
 21  6  1  0
 21 12  1  0
  1 25  1  0
  1 26  1  0
  1 27  1  0
  2 28  1  6
  9 29  1  0
  9 30  1  0
 11 31  1  0
 13 32  1  0
 14 33  1  0
 20 34  1  0
M  CHG  1  24  -1
M  END
>  <UniqueID>  (69) 
68

>  <SMILES>  (69) 
C[C@@H](OC(=O)n1c(C(N)=O)cc2ccc(C(F)(F)F)cc21)C(=O)[O-]

>  <Energy>  (69) 
69.94835358392523

>  <Genealogy>  (69) 
CC(OC(=O)n1c(C(N)=O)cc2ccc(C(F)(F)F)cc21)C(=O)[O-] (protonated)
C[C@@H](OC(=O)n1c(C(N)=O)cc2ccc(C(F)(F)F)cc21)C(=O)[O-] (chirality)
C[C@@H](OC(=O)n1c(C(N)=O)cc2ccc(C(F)(F)F)cc21)C(=O)[O-] (3D coordinates assigned)
C[C@@H](OC(=O)n1c(C(N)=O)cc2ccc(C(F)(F)F)cc21)C(=O)[O-] (optimized conformer: 69.94835358392523 kcal/mol)

>  <smiles>  (69) 
CC(OC(=O)n1c(C(N)=O)cc2ccc(C(F)(F)F)cc21)C(=O)O

>  <score_type>  (69) 
oracle

>  <origin>  (69) 
adg

>  <m_score__min__energy>  (69) 
-6.0800000000000001

>  <m_primary>  (69) 
energy

$$$$
70:0
     RDKit          3D

 36 38  0  0  0  0  0  0  0  0999 V2000
  142.9230  160.4760  133.3940 N   0  0  0  0  0  0  0  0  0  0  0  0
  144.2900  160.7380  133.7030 C   0  0  0  0  0  0  0  0  0  0  0  0
  144.6170  161.8740  134.1390 O   0  0  0  0  0  0  0  0  0  0  0  0
  145.2960  159.6670  133.5490 C   0  0  0  0  0  0  0  0  0  0  0  0
  146.6520  159.9110  133.3500 C   0  0  0  0  0  0  0  0  0  0  0  0
  147.2240  158.6740  133.1640 C   0  0  0  0  0  0  0  0  0  0  0  0
  148.5500  158.3280  132.9320 C   0  0  0  0  0  0  0  0  0  0  0  0
  148.8630  156.9640  132.8000 C   0  0  0  0  0  0  0  0  0  0  0  0
  147.8520  155.9730  132.9120 C   0  0  0  0  0  0  0  0  0  0  0  0
  148.1960  154.5330  132.7820 C   0  0  0  0  0  0  0  0  0  0  0  0
  149.4610  154.1260  132.3320 C   0  0  0  0  0  0  0  0  0  0  0  0
  149.7520  152.8050  132.2160 N   0  0  0  0  0  0  0  0  0  0  0  0
  148.8350  151.8560  132.5330 C   0  0  0  0  0  0  0  0  0  0  0  0
  147.6020  152.2200  132.9720 N   0  0  0  0  0  0  0  0  0  0  0  0
  147.2670  153.5310  133.1010 C   0  0  0  0  0  0  0  0  0  0  0  0
  146.5140  156.3680  133.1500 C   0  0  0  0  0  0  0  0  0  0  0  0
  146.2300  157.7350  133.2570 C   0  0  0  0  0  0  0  0  0  0  0  0
  145.0390  158.3280  133.4960 N   0  0  0  0  0  0  0  0  0  0  0  0
  143.7860  157.6580  133.7100 C   0  0  0  0  0  0  0  0  0  0  0  0
  142.8580  157.7700  132.8630 O   0  0  0  0  0  0  0  0  0  0  0  0
  143.5930  156.9060  134.8720 O   0  0  0  0  0  0  0  0  0  0  0  0
  143.2190  155.5340  134.8480 C   0  0  0  0  0  0  0  0  0  0  0  0
  144.4430  154.6900  134.9720 C   0  0  0  0  0  0  0  0  0  0  0  0
  145.4280  155.0990  135.6410 O   0  0  0  0  0  0  0  0  0  0  0  0
  144.4750  153.4260  134.3980 O   0  0  0  0  0  0  0  0  0  0  0  0
  142.6600  159.8930  132.5690 H   0  0  0  0  0  0  0  0  0  0  0  0
  147.1591  160.8871  133.3430 H   0  0  0  0  0  0  0  0  0  0  0  0
  149.3311  159.0985  132.8540 H   0  0  0  0  0  0  0  0  0  0  0  0
  149.9028  156.6608  132.6078 H   0  0  0  0  0  0  0  0  0  0  0  0
  150.2193  154.8794  132.0724 H   0  0  0  0  0  0  0  0  0  0  0  0
  149.0905  150.7906  132.4343 H   0  0  0  0  0  0  0  0  0  0  0  0
  146.9030  151.4830  133.2170 H   0  0  0  0  0  0  0  0  0  0  0  0
  146.2636  153.8075  133.4569 H   0  0  0  0  0  0  0  0  0  0  0  0
  145.7153  155.6182  133.2487 H   0  0  0  0  0  0  0  0  0  0  0  0
  142.5399  155.3230  135.6873 H   0  0  0  0  0  0  0  0  0  0  0  0
  142.7076  155.3067  133.9010 H   0  0  0  0  0  0  0  0  0  0  0  0
  1  2  1  0
  2  3  2  0
  2  4  1  0
  4  5  2  0
  5  6  1  0
  6  7  2  0
  7  8  1  0
  8  9  2  0
  9 10  1  0
 10 11  2  0
 11 12  1  0
 12 13  2  0
 13 14  1  0
 14 15  2  0
  9 16  1  0
 16 17  2  0
 17 18  1  0
 18 19  1  0
 19 20  2  0
 19 21  1  0
 21 22  1  0
 22 23  1  0
 23 24  2  0
 23 25  1  0
 18  4  1  0
 17  6  1  0
 15 10  1  0
  1 26  1  0
  5 27  1  0
  7 28  1  0
  8 29  1  0
 11 30  1  0
 13 31  1  0
 14 32  1  0
 15 33  1  0
 16 34  1  0
 22 35  1  0
 22 36  1  0
M  CHG  3   1  -1  14   1  25  -1
M  END
>  <UniqueID>  (70) 
69

>  <SMILES>  (70) 
[NH-]C(=O)c1cc2ccc(-c3cnc[nH+]c3)cc2n1C(=O)OCC(=O)[O-]

>  <Energy>  (70) 
79.80500214532263

>  <Genealogy>  (70) 
[NH-]C(=O)c1cc2ccc(-c3cnc[nH+]c3)cc2n1C(=O)OCC(=O)[O-] (protonated)
[NH-]C(=O)c1cc2ccc(-c3cnc[nH+]c3)cc2n1C(=O)OCC(=O)[O-] (3D coordinates assigned)
[NH-]C(=O)c1cc2ccc(-c3cnc[nH+]c3)cc2n1C(=O)OCC(=O)[O-] (optimized conformer: 79.80500214532263 kcal/mol)

>  <smiles>  (70) 
NC(=O)c1cc2ccc(-c3cncnc3)cc2n1C(=O)OCC(=O)O

>  <score_type>  (70) 
oracle

>  <origin>  (70) 
adg

>  <m_score__min__energy>  (70) 
-6.9100000000000001

>  <m_primary>  (70) 
energy

$$$$
71:0
     RDKit          3D

 54 57  0  0  0  0  0  0  0  0999 V2000
  142.9520  159.9440  133.2580 N   0  0  0  0  0  0  0  0  0  0  0  0
  144.1930  159.9950  133.9610 C   0  0  0  0  0  0  0  0  0  0  0  0
  144.3750  160.8900  134.8270 O   0  0  0  0  0  0  0  0  0  0  0  0
  145.2310  158.9770  133.6950 C   0  0  0  0  0  0  0  0  0  0  0  0
  146.5400  159.2880  133.3300 C   0  0  0  0  0  0  0  0  0  0  0  0
  147.1520  158.0780  133.1030 C   0  0  0  0  0  0  0  0  0  0  0  0
  148.4640  157.7920  132.7370 C   0  0  0  0  0  0  0  0  0  0  0  0
  148.8340  156.4430  132.6090 C   0  0  0  0  0  0  0  0  0  0  0  0
  147.8950  155.4050  132.8550 C   0  0  0  0  0  0  0  0  0  0  0  0
  148.2940  153.9810  132.7280 C   0  0  0  0  0  0  0  0  0  0  0  0
  147.3210  152.9670  132.7240 C   0  0  0  0  0  0  0  0  0  0  0  0
  147.7140  151.6340  132.5880 C   0  0  0  0  0  0  0  0  0  0  0  0
  149.0660  151.3200  132.4590 C   0  0  0  0  0  0  0  0  0  0  0  0
  150.0100  152.3470  132.4680 C   0  0  0  0  0  0  0  0  0  0  0  0
  149.6130  153.6430  132.6000 N   0  0  0  0  0  0  0  0  0  0  0  0
  146.5720  155.7390  133.2250 C   0  0  0  0  0  0  0  0  0  0  0  0
  146.2280  157.0920  133.3270 C   0  0  0  0  0  0  0  0  0  0  0  0
  145.0430  157.6280  133.6940 N   0  0  0  0  0  0  0  0  0  0  0  0
  143.8700  156.9030  134.0910 C   0  0  0  0  0  0  0  0  0  0  0  0
  143.9370  156.0710  135.0370 O   0  0  0  0  0  0  0  0  0  0  0  0
  142.6510  157.1450  133.4460 O   0  0  0  0  0  0  0  0  0  0  0  0
  141.3920  157.1000  134.1120 C   0  0  0  0  0  0  0  0  0  0  0  0
  140.3720  157.9730  133.3830 C   0  0  0  0  0  0  0  0  0  0  0  0
  140.8040  158.1860  131.9930 N   0  0  0  0  0  0  0  0  0  0  0  0
  139.8700  158.9960  131.1810 C   0  0  2  0  0  0  0  0  0  0  0  0
  139.7020  160.4410  131.6980 C   0  0  0  0  0  0  0  0  0  0  0  0
  138.6990  161.2020  130.8210 C   0  0  0  0  0  0  0  0  0  0  0  0
  137.5130  160.3090  130.4050 C   0  0  0  0  0  0  0  0  0  0  0  0
  137.4040  159.1700  131.2400 O   0  0  0  0  0  0  0  0  0  0  0  0
  138.4940  158.2940  131.0060 C   0  0  0  0  0  0  0  0  0  0  0  0
  142.7110  159.1300  132.6540 H   0  0  0  0  0  0  0  0  0  0  0  0
  146.9880  160.2888  133.2423 H   0  0  0  0  0  0  0  0  0  0  0  0
  149.1895  158.5982  132.5535 H   0  0  0  0  0  0  0  0  0  0  0  0
  149.8626  156.1870  132.3149 H   0  0  0  0  0  0  0  0  0  0  0  0
  146.2560  153.2219  132.8274 H   0  0  0  0  0  0  0  0  0  0  0  0
  146.9590  150.8341  132.5827 H   0  0  0  0  0  0  0  0  0  0  0  0
  149.3853  150.2729  132.3512 H   0  0  0  0  0  0  0  0  0  0  0  0
  151.0793  152.1091  132.3681 H   0  0  0  0  0  0  0  0  0  0  0  0
  150.3500  154.3830  132.6220 H   0  0  0  0  0  0  0  0  0  0  0  0
  145.8296  154.9532  133.4282 H   0  0  0  0  0  0  0  0  0  0  0  0
  141.0304  156.0614  134.1336 H   0  0  0  0  0  0  0  0  0  0  0  0
  141.5172  157.4783  135.1373 H   0  0  0  0  0  0  0  0  0  0  0  0
  139.3923  157.4728  133.3887 H   0  0  0  0  0  0  0  0  0  0  0  0
  140.2940  158.9446  133.8928 H   0  0  0  0  0  0  0  0  0  0  0  0
  141.7310  158.6720  132.0120 H   0  0  0  0  0  0  0  0  0  0  0  0
  140.3366  159.0774  130.1882 H   0  0  0  0  0  0  0  0  0  0  0  0
  139.3335  160.4161  132.7341 H   0  0  0  0  0  0  0  0  0  0  0  0
  140.6750  160.9526  131.6587 H   0  0  0  0  0  0  0  0  0  0  0  0
  138.3150  162.0647  131.3851 H   0  0  0  0  0  0  0  0  0  0  0  0
  139.2196  161.5279  129.9084 H   0  0  0  0  0  0  0  0  0  0  0  0
  136.5837  160.8935  130.4743 H   0  0  0  0  0  0  0  0  0  0  0  0
  137.6835  159.9664  129.3737 H   0  0  0  0  0  0  0  0  0  0  0  0
  138.4323  157.4565  131.7165 H   0  0  0  0  0  0  0  0  0  0  0  0
  138.4260  157.9466  129.9645 H   0  0  0  0  0  0  0  0  0  0  0  0
  1  2  1  0
  2  3  2  0
  2  4  1  0
  4  5  2  0
  5  6  1  0
  6  7  2  0
  7  8  1  0
  8  9  2  0
  9 10  1  0
 10 11  2  0
 11 12  1  0
 12 13  2  0
 13 14  1  0
 14 15  2  0
  9 16  1  0
 16 17  2  0
 17 18  1  0
 18 19  1  0
 19 20  2  0
 19 21  1  0
 21 22  1  0
 22 23  1  0
 23 24  1  0
 24 25  1  0
 25 26  1  0
 26 27  1  0
 27 28  1  0
 28 29  1  0
 29 30  1  0
 18  4  1  0
 30 25  1  0
 17  6  1  0
 15 10  1  0
  1 31  1  0
  5 32  1  0
  7 33  1  0
  8 34  1  0
 11 35  1  0
 12 36  1  0
 13 37  1  0
 14 38  1  0
 15 39  1  0
 16 40  1  0
 22 41  1  0
 22 42  1  0
 23 43  1  0
 23 44  1  0
 24 45  1  0
 25 46  1  6
 26 47  1  0
 26 48  1  0
 27 49  1  0
 27 50  1  0
 28 51  1  0
 28 52  1  0
 30 53  1  0
 30 54  1  0
M  CHG  2   1  -1  15   1
M  END
>  <UniqueID>  (71) 
70

>  <SMILES>  (71) 
[NH-]C(=O)c1cc2ccc(-c3cccc[nH+]3)cc2n1C(=O)OCCN[C@@H]1CCCOC1

>  <Energy>  (71) 
107.23793783415285

>  <Genealogy>  (71) 
[NH-]C(=O)c1cc2ccc(-c3cccc[nH+]3)cc2n1C(=O)OCCN[C@@H]1CCCOC1 (protonated)
[NH-]C(=O)c1cc2ccc(-c3cccc[nH+]3)cc2n1C(=O)OCCN[C@@H]1CCCOC1 (3D coordinates assigned)
[NH-]C(=O)c1cc2ccc(-c3cccc[nH+]3)cc2n1C(=O)OCCN[C@@H]1CCCOC1 (nonaromatic ring conformer: 107.23793783415285 kcal/mol)

>  <smiles>  (71) 
NC(=O)c1cc2ccc(-c3ccccn3)cc2n1C(=O)OCCN[C@@H]1CCCOC1

>  <score_type>  (71) 
oracle

>  <origin>  (71) 
adg

>  <m_score__min__energy>  (71) 
-8.2899999999999991

>  <m_primary>  (71) 
energy

$$$$
72:0
     RDKit          3D

 45 47  0  0  0  0  0  0  0  0999 V2000
  141.6310  154.5080  137.6030 C   0  0  0  0  0  0  0  0  0  0  0  0
  142.0780  155.8580  137.0270 C   0  0  2  0  0  0  0  0  0  0  0  0
  141.0540  156.9460  137.2290 C   0  0  0  0  0  0  0  0  0  0  0  0
  139.8590  156.6720  137.5210 O   0  0  0  0  0  0  0  0  0  0  0  0
  141.4220  158.2740  137.0470 O   0  0  0  0  0  0  0  0  0  0  0  0
  142.4370  155.7290  135.6010 N   0  0  0  0  0  0  0  0  0  0  0  0
  143.6230  154.9500  135.2260 C   0  0  0  0  0  0  0  0  0  0  0  0
  141.5960  156.2580  134.5530 C   0  0  0  0  0  0  0  0  0  0  0  0
  140.8200  155.4990  133.9130 O   0  0  0  0  0  0  0  0  0  0  0  0
  141.6380  157.6530  134.2150 N   0  0  0  0  0  0  0  0  0  0  0  0
  140.6230  158.5560  134.2890 C   0  0  0  0  0  0  0  0  0  0  0  0
  139.2100  158.2460  134.5940 C   0  0  0  0  0  0  0  0  0  0  0  0
  138.6750  158.4170  135.9080 N   0  0  0  0  0  0  0  0  0  0  0  0
  138.4700  157.7840  133.6850 O   0  0  0  0  0  0  0  0  0  0  0  0
  141.0970  159.8450  134.0490 C   0  0  0  0  0  0  0  0  0  0  0  0
  142.4490  159.7000  133.8300 C   0  0  0  0  0  0  0  0  0  0  0  0
  143.4280  160.6600  133.5810 C   0  0  0  0  0  0  0  0  0  0  0  0
  144.7590  160.2250  133.4560 C   0  0  0  0  0  0  0  0  0  0  0  0
  145.0830  158.8530  133.5950 C   0  0  0  0  0  0  0  0  0  0  0  0
  146.4400  158.4230  133.4790 N   0  0  0  0  0  0  0  0  0  0  0  0
  147.1650  157.1530  133.2880 C   0  0  0  0  0  0  0  0  0  0  0  0
  148.5350  157.7520  133.3020 C   0  0  0  0  0  0  0  0  0  0  0  0
  149.1600  157.6960  132.0500 O   0  0  0  0  0  0  0  0  0  0  0  0
  147.7830  159.0300  133.4960 C   0  0  0  0  0  0  0  0  0  0  0  0
  144.0690  157.9110  133.8520 C   0  0  0  0  0  0  0  0  0  0  0  0
  142.7500  158.3680  133.9450 C   0  0  0  0  0  0  0  0  0  0  0  0
  141.6466  154.5550  138.7019 H   0  0  0  0  0  0  0  0  0  0  0  0
  140.6104  154.2829  137.2600 H   0  0  0  0  0  0  0  0  0  0  0  0
  142.3156  153.7183  137.2600 H   0  0  0  0  0  0  0  0  0  0  0  0
  142.9737  156.1605  137.5893 H   0  0  0  0  0  0  0  0  0  0  0  0
  144.1408  154.6099  136.1350 H   0  0  0  0  0  0  0  0  0  0  0  0
  143.3155  154.0774  134.6310 H   0  0  0  0  0  0  0  0  0  0  0  0
  144.3016  155.5788  134.6310 H   0  0  0  0  0  0  0  0  0  0  0  0
  139.2910  158.6050  136.7270 H   0  0  0  0  0  0  0  0  0  0  0  0
  137.6590  158.2500  136.0820 H   0  0  0  0  0  0  0  0  0  0  0  0
  140.5153  160.7785  134.0371 H   0  0  0  0  0  0  0  0  0  0  0  0
  143.1676  161.7244  133.4853 H   0  0  0  0  0  0  0  0  0  0  0  0
  145.5548  160.9555  133.2487 H   0  0  0  0  0  0  0  0  0  0  0  0
  147.0031  156.4430  134.1124 H   0  0  0  0  0  0  0  0  0  0  0  0
  146.8916  156.5457  132.4125 H   0  0  0  0  0  0  0  0  0  0  0  0
  149.3518  157.4044  133.9516 H   0  0  0  0  0  0  0  0  0  0  0  0
  148.5740  157.1330  131.4820 H   0  0  0  0  0  0  0  0  0  0  0  0
  148.0162  159.5191  134.4533 H   0  0  0  0  0  0  0  0  0  0  0  0
  147.9766  159.8400  132.7774 H   0  0  0  0  0  0  0  0  0  0  0  0
  144.3073  156.8443  133.9764 H   0  0  0  0  0  0  0  0  0  0  0  0
  1  2  1  0
  2  3  1  0
  3  4  2  0
  3  5  1  0
  2  6  1  0
  6  7  1  0
  6  8  1  0
  8  9  2  0
  8 10  1  0
 10 11  1  0
 11 12  1  0
 12 13  1  0
 12 14  2  0
 11 15  2  0
 15 16  1  0
 16 17  2  0
 17 18  1  0
 18 19  2  0
 19 20  1  0
 20 21  1  0
 21 22  1  0
 22 23  1  0
 22 24  1  0
 19 25  1  0
 25 26  2  0
 26 10  1  0
 26 16  1  0
 24 20  1  0
  1 27  1  0
  1 28  1  0
  1 29  1  0
  2 30  1  1
  7 31  1  0
  7 32  1  0
  7 33  1  0
 13 34  1  0
 13 35  1  0
 15 36  1  0
 17 37  1  0
 18 38  1  0
 21 39  1  0
 21 40  1  0
 22 41  1  0
 23 42  1  0
 24 43  1  0
 24 44  1  0
 25 45  1  0
M  CHG  1   5  -1
M  END
>  <UniqueID>  (72) 
71

>  <SMILES>  (72) 
C[C@H](C(=O)[O-])N(C)C(=O)n1c(C(N)=O)cc2ccc(N3CC(O)C3)cc21

>  <Energy>  (72) 
127.66292266036551

>  <Genealogy>  (72) 
CC(C(=O)[O-])N(C)C(=O)n1c(C(N)=O)cc2ccc(N3CC(O)C3)cc21 (protonated)
C[C@H](C(=O)[O-])N(C)C(=O)n1c(C(N)=O)cc2ccc(N3CC(O)C3)cc21 (chirality)
C[C@H](C(=O)[O-])N(C)C(=O)n1c(C(N)=O)cc2ccc(N3CC(O)C3)cc21 (3D coordinates assigned)
C[C@H](C(=O)[O-])N(C)C(=O)n1c(C(N)=O)cc2ccc(N3CC(O)C3)cc21 (nonaromatic ring conformer: 127.66292266036551 kcal/mol)

>  <smiles>  (72) 
CC(C(=O)O)N(C)C(=O)n1c(C(N)=O)cc2ccc(N3CC(O)C3)cc21

>  <score_type>  (72) 
oracle

>  <origin>  (72) 
adg

>  <m_score__min__energy>  (72) 
-7.5700000000000003

>  <m_primary>  (72) 
energy

$$$$
73:0
     RDKit          3D

 46 49  0  0  0  0  0  0  0  0999 V2000
  139.4890  156.0720  133.0330 C   0  0  0  0  0  0  0  0  0  0  0  0
  139.2660  157.2560  133.8840 N   0  0  0  0  0  0  0  0  0  0  0  0
  139.2210  158.4710  133.0440 C   0  0  0  0  0  0  0  0  0  0  0  0
  140.1690  157.4110  135.0720 C   0  0  1  0  0  0  0  0  0  0  0  0
  141.3580  156.4150  135.0290 C   0  0  0  0  0  0  0  0  0  0  0  0
  142.4810  156.9780  134.1520 C   0  0  0  0  0  0  0  0  0  0  0  0
  142.8890  158.3220  134.5960 N   0  0  0  0  0  0  0  0  0  0  0  0
  144.1220  158.8870  134.1020 C   0  0  0  0  0  0  0  0  0  0  0  0
  144.3040  160.2950  134.0800 C   0  0  0  0  0  0  0  0  0  0  0  0
  145.5010  160.8590  133.6090 C   0  0  0  0  0  0  0  0  0  0  0  0
  146.4940  159.9970  133.1540 C   0  0  0  0  0  0  0  0  0  0  0  0
  147.7510  160.2750  132.6700 C   0  0  0  0  0  0  0  0  0  0  0  0
  148.3140  159.0360  132.3730 C   0  0  0  0  0  0  0  0  0  0  0  0
  149.6390  158.8770  131.7400 C   0  0  0  0  0  0  0  0  0  0  0  0
  150.1490  159.8660  130.8490 N   0  0  0  0  0  0  0  0  0  0  0  0
  150.3520  157.8800  132.0280 O   0  0  0  0  0  0  0  0  0  0  0  0
  147.4430  158.0300  132.6700 N   0  0  0  0  0  0  0  0  0  0  0  0
  147.6790  156.6150  132.5990 C   0  0  0  0  0  0  0  0  0  0  0  0
  146.9720  155.8880  131.8530 O   0  0  0  0  0  0  0  0  0  0  0  0
  148.6710  156.0290  133.3760 O   0  0  0  0  0  0  0  0  0  0  0  0
  146.3310  158.6370  133.1460 C   0  0  0  0  0  0  0  0  0  0  0  0
  145.1570  158.0470  133.6280 C   0  0  0  0  0  0  0  0  0  0  0  0
  142.1400  158.9950  135.6680 C   0  0  0  0  0  0  0  0  0  0  0  0
  140.6250  158.8380  135.4390 C   0  0  2  0  0  0  0  0  0  0  0  0
  139.9330  158.8130  136.6670 O   0  0  0  0  0  0  0  0  0  0  0  0
  139.4510  157.5110  136.4170 C   0  0  0  0  0  0  0  0  0  0  0  0
  139.6552  155.1897  133.6686 H   0  0  0  0  0  0  0  0  0  0  0  0
  138.6064  155.9055  132.3979 H   0  0  0  0  0  0  0  0  0  0  0  0
  140.3717  156.2379  132.3979 H   0  0  0  0  0  0  0  0  0  0  0  0
  139.1880  159.3616  133.6888 H   0  0  0  0  0  0  0  0  0  0  0  0
  140.1183  158.5112  132.4090 H   0  0  0  0  0  0  0  0  0  0  0  0
  138.3232  158.4447  132.4090 H   0  0  0  0  0  0  0  0  0  0  0  0
  141.7373  156.2561  136.0492 H   0  0  0  0  0  0  0  0  0  0  0  0
  141.0139  155.4596  134.6062 H   0  0  0  0  0  0  0  0  0  0  0  0
  143.3490  156.3045  134.2064 H   0  0  0  0  0  0  0  0  0  0  0  0
  142.1086  157.0533  133.1197 H   0  0  0  0  0  0  0  0  0  0  0  0
  143.4973  160.9524  134.4364 H   0  0  0  0  0  0  0  0  0  0  0  0
  145.6489  161.9490  133.6001 H   0  0  0  0  0  0  0  0  0  0  0  0
  148.2134  161.2651  132.5442 H   0  0  0  0  0  0  0  0  0  0  0  0
  150.8290  160.5860  131.1780 H   0  0  0  0  0  0  0  0  0  0  0  0
  145.0414  156.9531  133.6381 H   0  0  0  0  0  0  0  0  0  0  0  0
  142.4094  158.5469  136.6358 H   0  0  0  0  0  0  0  0  0  0  0  0
  142.3940  160.0653  135.6655 H   0  0  0  0  0  0  0  0  0  0  0  0
  140.4389  159.6320  134.7008 H   0  0  0  0  0  0  0  0  0  0  0  0
  139.7963  156.7692  137.1522 H   0  0  0  0  0  0  0  0  0  0  0  0
  138.3658  157.3344  136.4505 H   0  0  0  0  0  0  0  0  0  0  0  0
  1  2  1  0
  2  3  1  0
  4  2  1  6
  4  5  1  0
  5  6  1  0
  6  7  1  0
  7  8  1  0
  8  9  2  0
  9 10  1  0
 10 11  2  0
 11 12  1  0
 12 13  2  0
 13 14  1  0
 14 15  1  0
 14 16  2  0
 13 17  1  0
 17 18  1  0
 18 19  2  0
 18 20  1  0
 17 21  1  0
 21 22  2  0
  7 23  1  0
 23 24  1  0
 24 25  1  0
 25 26  1  0
 24  4  1  0
 26  4  1  0
 22  8  1  0
 21 11  1  0
  1 27  1  0
  1 28  1  0
  1 29  1  0
  3 30  1  0
  3 31  1  0
  3 32  1  0
  5 33  1  0
  5 34  1  0
  6 35  1  0
  6 36  1  0
  9 37  1  0
 10 38  1  0
 12 39  1  0
 15 40  1  0
 22 41  1  0
 23 42  1  0
 23 43  1  0
 24 44  1  6
 26 45  1  0
 26 46  1  0
M  CHG  2  15  -1  20  -1
M  END
>  <UniqueID>  (73) 
72

>  <SMILES>  (73) 
CN(C)[C@@]12CCN(c3ccc4cc(C([NH-])=O)n(C(=O)[O-])c4c3)C[C@@H]1OC2

>  <Energy>  (73) 
171.76952821831236

>  <Genealogy>  (73) 
CN(C)C12CCN(c3ccc4cc(C([NH-])=O)n(C(=O)[O-])c4c3)CC1OC2 (protonated)
CN(C)[C@@]12CCN(c3ccc4cc(C([NH-])=O)n(C(=O)[O-])c4c3)C[C@@H]1OC2 (chirality)
CN(C)[C@@]12CCN(c3ccc4cc(C([NH-])=O)n(C(=O)[O-])c4c3)C[C@@H]1OC2 (3D coordinates assigned)
CN(C)[C@@]12CCN(c3ccc4cc(C([NH-])=O)n(C(=O)[O-])c4c3)C[C@@H]1OC2 (nonaromatic ring conformer: 171.76952821831236 kcal/mol)

>  <smiles>  (73) 
CN(C)C12CCN(c3ccc4cc(C(N)=O)n(C(=O)O)c4c3)CC1OC2

>  <score_type>  (73) 
oracle

>  <origin>  (73) 
adg

>  <m_score__min__energy>  (73) 
-7.6299999999999999

>  <m_primary>  (73) 
energy

$$$$
74:0
     RDKit          3D

 35 36  0  0  0  0  0  0  0  0999 V2000
  147.8250  154.0980  136.6240 C   0  0  0  0  0  0  0  0  0  0  0  0
  146.6320  153.5270  136.1360 O   0  0  0  0  0  0  0  0  0  0  0  0
  145.8020  154.5460  135.6210 C   0  0  0  0  0  0  0  0  0  0  0  0
  145.9340  154.5800  134.1290 C   0  0  0  0  0  0  0  0  0  0  0  0
  145.1520  153.8830  133.4280 O   0  0  0  0  0  0  0  0  0  0  0  0
  146.9080  155.4210  133.4890 N   0  0  0  0  0  0  0  0  0  0  0  0
  148.1490  155.0570  133.0590 C   0  0  0  0  0  0  0  0  0  0  0  0
  148.6880  153.6820  133.0400 C   0  0  0  0  0  0  0  0  0  0  0  0
  148.0220  152.6140  133.7150 N   0  0  0  0  0  0  0  0  0  0  0  0
  149.7310  153.4360  132.3780 O   0  0  0  0  0  0  0  0  0  0  0  0
  148.8590  156.1680  132.6100 C   0  0  0  0  0  0  0  0  0  0  0  0
  148.0040  157.2340  132.7750 C   0  0  0  0  0  0  0  0  0  0  0  0
  148.2040  158.5850  132.5150 C   0  0  0  0  0  0  0  0  0  0  0  0
  147.1670  159.4780  132.8290 C   0  0  0  0  0  0  0  0  0  0  0  0
  145.9500  159.0190  133.4120 C   0  0  0  0  0  0  0  0  0  0  0  0
  144.8890  159.9520  133.7470 N   0  0  0  0  0  0  0  0  0  0  0  0
  143.4760  159.5630  133.7100 C   0  0  0  0  0  0  0  0  0  0  0  0
  145.1860  161.2790  134.1130 C   0  0  0  0  0  0  0  0  0  0  0  0
  145.4280  162.3700  134.4150 N   0  0  0  0  0  0  0  0  0  0  0  0
  145.7990  157.6300  133.6650 C   0  0  0  0  0  0  0  0  0  0  0  0
  146.8380  156.7610  133.3130 C   0  0  0  0  0  0  0  0  0  0  0  0
  147.8115  154.0915  137.7239 H   0  0  0  0  0  0  0  0  0  0  0  0
  148.6850  153.5139  136.2644 H   0  0  0  0  0  0  0  0  0  0  0  0
  147.9094  155.1341  136.2644 H   0  0  0  0  0  0  0  0  0  0  0  0
  144.7560  154.3418  135.8935 H   0  0  0  0  0  0  0  0  0  0  0  0
  146.1034  155.5168  136.0415 H   0  0  0  0  0  0  0  0  0  0  0  0
  147.0640  152.7360  134.1090 H   0  0  0  0  0  0  0  0  0  0  0  0
  148.4490  151.6610  133.7340 H   0  0  0  0  0  0  0  0  0  0  0  0
  149.8833  156.1890  132.2095 H   0  0  0  0  0  0  0  0  0  0  0  0
  149.1468  158.9437  132.0763 H   0  0  0  0  0  0  0  0  0  0  0  0
  147.2960  160.5505  132.6215 H   0  0  0  0  0  0  0  0  0  0  0  0
  143.0974  159.4588  134.7375 H   0  0  0  0  0  0  0  0  0  0  0  0
  142.8968  160.3351  133.1824 H   0  0  0  0  0  0  0  0  0  0  0  0
  143.3736  158.6033  133.1824 H   0  0  0  0  0  0  0  0  0  0  0  0
  144.8803  157.2432  134.1301 H   0  0  0  0  0  0  0  0  0  0  0  0
  1  2  1  0
  2  3  1  0
  3  4  1  0
  4  5  2  0
  4  6  1  0
  6  7  1  0
  7  8  1  0
  8  9  1  0
  8 10  2  0
  7 11  2  0
 11 12  1  0
 12 13  2  0
 13 14  1  0
 14 15  2  0
 15 16  1  0
 16 17  1  0
 16 18  1  0
 18 19  3  0
 15 20  1  0
 20 21  2  0
 21  6  1  0
 21 12  1  0
  1 22  1  0
  1 23  1  0
  1 24  1  0
  3 25  1  0
  3 26  1  0
  9 27  1  0
  9 28  1  0
 11 29  1  0
 13 30  1  0
 14 31  1  0
 17 32  1  0
 17 33  1  0
 17 34  1  0
 20 35  1  0
M  END
>  <UniqueID>  (74) 
73

>  <SMILES>  (74) 
COCC(=O)n1c(C(N)=O)cc2ccc(N(C)C#N)cc21

>  <Energy>  (74) 
76.13232953806404

>  <Genealogy>  (74) 
COCC(=O)n1c(C(N)=O)cc2ccc(N(C)C#N)cc21 (3D coordinates assigned)
COCC(=O)n1c(C(N)=O)cc2ccc(N(C)C#N)cc21 (optimized conformer: 76.13232953806404 kcal/mol)

>  <smiles>  (74) 
COCC(=O)n1c(C(N)=O)cc2ccc(N(C)C#N)cc21

>  <score_type>  (74) 
oracle

>  <origin>  (74) 
adg

>  <m_score__min__energy>  (74) 
-6.4100000000000001

>  <m_primary>  (74) 
energy

$$$$
75:0
     RDKit          3D

 37 38  0  0  0  0  0  0  0  0999 V2000
  148.9960  154.1200  137.8880 C   0  0  0  0  0  0  0  0  0  0  0  0
  148.2150  154.7040  136.8530 O   0  0  0  0  0  0  0  0  0  0  0  0
  146.9970  154.1590  136.4310 C   0  0  0  0  0  0  0  0  0  0  0  0
  146.6550  152.9980  136.7840 O   0  0  0  0  0  0  0  0  0  0  0  0
  146.1200  154.9480  135.5130 C   0  0  0  0  0  0  0  0  0  0  0  0
  146.9570  155.6540  134.4850 C   0  0  0  0  0  0  0  0  0  0  0  0
  148.0240  154.9730  133.8460 C   0  0  0  0  0  0  0  0  0  0  0  0
  148.8400  155.6370  132.9130 C   0  0  0  0  0  0  0  0  0  0  0  0
  148.5710  156.9760  132.6480 C   0  0  0  0  0  0  0  0  0  0  0  0
  149.2080  157.8600  131.8060 C   0  0  0  0  0  0  0  0  0  0  0  0
  148.5200  159.0660  131.9450 C   0  0  0  0  0  0  0  0  0  0  0  0
  148.8010  160.2840  131.1520 C   0  0  0  0  0  0  0  0  0  0  0  0
  148.3480  161.5650  131.5910 N   0  0  0  0  0  0  0  0  0  0  0  0
  149.4640  160.2020  130.0830 O   0  0  0  0  0  0  0  0  0  0  0  0
  147.5030  158.9300  132.8430 N   0  0  0  0  0  0  0  0  0  0  0  0
  146.5840  159.9350  133.2990 C   0  0  0  0  0  0  0  0  0  0  0  0
  147.0270  161.0250  133.7520 O   0  0  0  0  0  0  0  0  0  0  0  0
  145.1310  159.7300  133.2070 C   0  0  0  0  0  0  0  0  0  0  0  0
  144.3410  160.5980  133.6710 O   0  0  0  0  0  0  0  0  0  0  0  0
  144.6370  158.5620  132.6200 O   0  0  0  0  0  0  0  0  0  0  0  0
  143.5610  157.8200  133.1790 C   0  0  0  0  0  0  0  0  0  0  0  0
  147.5430  157.6470  133.2580 C   0  0  0  0  0  0  0  0  0  0  0  0
  146.7200  157.0160  134.1950 C   0  0  0  0  0  0  0  0  0  0  0  0
  148.5929  154.4214  138.8661 H   0  0  0  0  0  0  0  0  0  0  0  0
  148.9618  153.0241  137.7993 H   0  0  0  0  0  0  0  0  0  0  0  0
  150.0375  154.4627  137.7993 H   0  0  0  0  0  0  0  0  0  0  0  0
  145.4175  154.2692  135.0073 H   0  0  0  0  0  0  0  0  0  0  0  0
  145.5618  155.6934  136.0985 H   0  0  0  0  0  0  0  0  0  0  0  0
  148.2151  153.9158  134.0823 H   0  0  0  0  0  0  0  0  0  0  0  0
  149.6655  155.1139  132.4082 H   0  0  0  0  0  0  0  0  0  0  0  0
  150.0755  157.6582  131.1605 H   0  0  0  0  0  0  0  0  0  0  0  0
  148.5840  162.4210  131.0400 H   0  0  0  0  0  0  0  0  0  0  0  0
  147.7420  161.6700  132.4340 H   0  0  0  0  0  0  0  0  0  0  0  0
  143.6192  157.8601  134.2767 H   0  0  0  0  0  0  0  0  0  0  0  0
  142.6057  158.2522  132.8464 H   0  0  0  0  0  0  0  0  0  0  0  0
  143.6255  156.7735  132.8464 H   0  0  0  0  0  0  0  0  0  0  0  0
  145.9084  157.5660  134.6939 H   0  0  0  0  0  0  0  0  0  0  0  0
  1  2  1  0
  2  3  1  0
  3  4  2  0
  3  5  1  0
  5  6  1  0
  6  7  2  0
  7  8  1  0
  8  9  2  0
  9 10  1  0
 10 11  2  0
 11 12  1  0
 12 13  1  0
 12 14  2  0
 11 15  1  0
 15 16  1  0
 16 17  2  0
 16 18  1  0
 18 19  2  0
 18 20  1  0
 20 21  1  0
 15 22  1  0
 22 23  2  0
 23  6  1  0
 22  9  1  0
  1 24  1  0
  1 25  1  0
  1 26  1  0
  5 27  1  0
  5 28  1  0
  7 29  1  0
  8 30  1  0
 10 31  1  0
 13 32  1  0
 13 33  1  0
 21 34  1  0
 21 35  1  0
 21 36  1  0
 23 37  1  0
M  END
>  <UniqueID>  (75) 
74

>  <SMILES>  (75) 
COC(=O)Cc1ccc2cc(C(N)=O)n(C(=O)C(=O)OC)c2c1

>  <Energy>  (75) 
69.55570331822875

>  <Genealogy>  (75) 
COC(=O)Cc1ccc2cc(C(N)=O)n(C(=O)C(=O)OC)c2c1 (3D coordinates assigned)
COC(=O)Cc1ccc2cc(C(N)=O)n(C(=O)C(=O)OC)c2c1 (optimized conformer: 69.55570331822875 kcal/mol)

>  <smiles>  (75) 
COC(=O)Cc1ccc2cc(C(N)=O)n(C(=O)C(=O)OC)c2c1

>  <score_type>  (75) 
oracle

>  <origin>  (75) 
adg

>  <m_score__min__energy>  (75) 
-6.2199999999999998

>  <m_primary>  (75) 
energy

$$$$
76:0
     RDKit          3D

 37 39  0  0  0  0  0  0  0  0999 V2000
  140.5610  153.5800  133.0250 C   0  0  0  0  0  0  0  0  0  0  0  0
  140.9830  154.9380  132.9890 O   0  0  0  0  0  0  0  0  0  0  0  0
  140.0930  156.0070  133.1280 C   0  0  0  0  0  0  0  0  0  0  0  0
  139.1070  156.1160  132.3480 O   0  0  0  0  0  0  0  0  0  0  0  0
  140.3010  156.9840  134.1620 N   0  0  0  0  0  0  0  0  0  0  0  0
  139.9490  158.3000  134.1410 C   0  0  0  0  0  0  0  0  0  0  0  0
  139.4190  159.0370  132.9770 C   0  0  0  0  0  0  0  0  0  0  0  0
  138.2050  158.6380  132.3390 N   0  0  0  0  0  0  0  0  0  0  0  0
  140.0780  160.0000  132.5020 O   0  0  0  0  0  0  0  0  0  0  0  0
  140.2020  158.8960  135.3730 C   0  0  0  0  0  0  0  0  0  0  0  0
  140.7390  157.8990  136.1550 C   0  0  0  0  0  0  0  0  0  0  0  0
  141.1600  157.9330  137.4800 C   0  0  0  0  0  0  0  0  0  0  0  0
  141.6380  156.7420  138.0510 C   0  0  0  0  0  0  0  0  0  0  0  0
  141.6770  155.5370  137.2950 C   0  0  0  0  0  0  0  0  0  0  0  0
  142.1730  154.2310  137.8910 C   0  0  0  0  0  0  0  0  0  0  0  0
  142.1140  153.0480  136.9700 C   0  0  0  0  0  0  0  0  0  0  0  0
  141.0980  152.3070  137.7400 N   0  0  0  0  0  0  0  0  0  0  0  0
  140.4010  151.0690  137.6410 C   0  0  0  0  0  0  0  0  0  0  0  0
  140.6190  150.2980  136.6710 O   0  0  0  0  0  0  0  0  0  0  0  0
  139.4790  150.7110  138.6160 O   0  0  0  0  0  0  0  0  0  0  0  0
  141.1500  153.4540  138.6640 C   0  0  0  0  0  0  0  0  0  0  0  0
  141.2360  155.5470  135.9530 C   0  0  0  0  0  0  0  0  0  0  0  0
  140.7860  156.7540  135.4020 C   0  0  0  0  0  0  0  0  0  0  0  0
  140.4600  153.2550  134.0710 H   0  0  0  0  0  0  0  0  0  0  0  0
  139.5906  153.4840  132.5159 H   0  0  0  0  0  0  0  0  0  0  0  0
  141.3060  152.9509  132.5159 H   0  0  0  0  0  0  0  0  0  0  0  0
  137.8250  159.1960  131.5420 H   0  0  0  0  0  0  0  0  0  0  0  0
  137.7270  157.7470  132.5970 H   0  0  0  0  0  0  0  0  0  0  0  0
  140.0131  159.9409  135.6603 H   0  0  0  0  0  0  0  0  0  0  0  0
  141.1199  158.8647  138.0634 H   0  0  0  0  0  0  0  0  0  0  0  0
  141.9862  156.7407  139.0944 H   0  0  0  0  0  0  0  0  0  0  0  0
  143.1024  154.6272  138.3260 H   0  0  0  0  0  0  0  0  0  0  0  0
  141.7717  153.3129  135.9587 H   0  0  0  0  0  0  0  0  0  0  0  0
  143.0603  152.5293  136.7566 H   0  0  0  0  0  0  0  0  0  0  0  0
  140.1872  153.9801  138.7430 H   0  0  0  0  0  0  0  0  0  0  0  0
  141.3749  153.2389  139.7191 H   0  0  0  0  0  0  0  0  0  0  0  0
  141.2457  154.6254  135.3525 H   0  0  0  0  0  0  0  0  0  0  0  0
  1  2  1  0
  2  3  1  0
  3  4  2  0
  3  5  1  0
  5  6  1  0
  6  7  1  0
  7  8  1  0
  7  9  2  0
  6 10  2  0
 10 11  1  0
 11 12  2  0
 12 13  1  0
 13 14  2  0
 14 15  1  0
 15 16  1  0
 16 17  1  0
 17 18  1  0
 18 19  2  0
 18 20  1  0
 17 21  1  0
 14 22  1  0
 22 23  2  0
 23  5  1  0
 23 11  1  0
 21 15  1  0
  1 24  1  0
  1 25  1  0
  1 26  1  0
  8 27  1  0
  8 28  1  0
 10 29  1  0
 12 30  1  0
 13 31  1  0
 15 32  1  0
 16 33  1  0
 16 34  1  0
 21 35  1  0
 21 36  1  0
 22 37  1  0
M  CHG  1  20  -1
M  END
>  <UniqueID>  (76) 
75

>  <SMILES>  (76) 
COC(=O)n1c(C(N)=O)cc2ccc(C3CN(C(=O)[O-])C3)cc21

>  <Energy>  (76) 
122.2880753674591

>  <Genealogy>  (76) 
COC(=O)n1c(C(N)=O)cc2ccc(C3CN(C(=O)[O-])C3)cc21 (protonated)
COC(=O)n1c(C(N)=O)cc2ccc(C3CN(C(=O)[O-])C3)cc21 (3D coordinates assigned)
COC(=O)n1c(C(N)=O)cc2ccc(C3CN(C(=O)[O-])C3)cc21 (nonaromatic ring conformer: 122.2880753674591 kcal/mol)

>  <smiles>  (76) 
COC(=O)n1c(C(N)=O)cc2ccc(C3CN(C(=O)O)C3)cc21

>  <score_type>  (76) 
oracle

>  <origin>  (76) 
adg

>  <m_score__min__energy>  (76) 
-7.3499999999999996

>  <m_primary>  (76) 
energy

$$$$
77:0
     RDKit          3D

 42 43  0  0  0  0  0  0  0  0999 V2000
  140.3290  154.9120  139.6960 C   0  0  0  0  0  0  0  0  0  0  0  0
  141.6800  154.2310  139.4080 C   0  0  2  0  0  0  0  0  0  0  0  0
  142.6650  155.1820  138.8430 N   0  0  0  0  0  0  0  0  0  0  0  0
  142.0760  156.2400  138.0540 C   0  0  0  0  0  0  0  0  0  0  0  0
  141.9520  157.5490  138.5930 C   0  0  0  0  0  0  0  0  0  0  0  0
  141.3490  158.5790  137.8530 C   0  0  0  0  0  0  0  0  0  0  0  0
  140.8740  158.2750  136.5820 C   0  0  0  0  0  0  0  0  0  0  0  0
  140.2490  159.0760  135.6540 C   0  0  0  0  0  0  0  0  0  0  0  0
  140.0130  158.2510  134.5550 C   0  0  0  0  0  0  0  0  0  0  0  0
  139.4110  158.7210  133.2900 C   0  0  0  0  0  0  0  0  0  0  0  0
  138.1470  158.2270  132.8540 N   0  0  0  0  0  0  0  0  0  0  0  0
  140.0310  159.5520  132.5730 O   0  0  0  0  0  0  0  0  0  0  0  0
  140.4600  156.9900  134.8030 N   0  0  0  0  0  0  0  0  0  0  0  0
  140.3640  155.8360  133.9560 C   0  0  0  0  0  0  0  0  0  0  0  0
  139.2990  155.6110  133.3200 O   0  0  0  0  0  0  0  0  0  0  0  0
  141.5090  154.9280  133.7920 C   0  0  0  0  0  0  0  0  0  0  0  0
  141.3320  153.7410  133.4140 O   0  0  0  0  0  0  0  0  0  0  0  0
  142.7970  155.3760  134.0590 O   0  0  0  0  0  0  0  0  0  0  0  0
  140.9930  157.0230  136.0410 C   0  0  0  0  0  0  0  0  0  0  0  0
  141.5850  155.9750  136.7520 C   0  0  0  0  0  0  0  0  0  0  0  0
  141.5060  152.9900  138.5420 C   0  0  0  0  0  0  0  0  0  0  0  0
  141.8560  153.0450  137.3290 O   0  0  0  0  0  0  0  0  0  0  0  0
  141.0010  151.7420  139.0710 N   0  0  0  0  0  0  0  0  0  0  0  0
  140.5750  151.6090  140.4700 C   0  0  0  0  0  0  0  0  0  0  0  0
  140.9280  150.5760  138.1800 C   0  0  0  0  0  0  0  0  0  0  0  0
  140.1805  154.9868  140.7834 H   0  0  0  0  0  0  0  0  0  0  0  0
  140.3250  155.9198  139.2552 H   0  0  0  0  0  0  0  0  0  0  0  0
  139.5165  154.3158  139.2552 H   0  0  0  0  0  0  0  0  0  0  0  0
  142.0915  153.8912  140.3699 H   0  0  0  0  0  0  0  0  0  0  0  0
  143.3520  154.6590  138.2530 H   0  0  0  0  0  0  0  0  0  0  0  0
  143.2240  155.6000  139.6250 H   0  0  0  0  0  0  0  0  0  0  0  0
  142.3334  157.7582  139.6033 H   0  0  0  0  0  0  0  0  0  0  0  0
  141.2554  159.5943  138.2658 H   0  0  0  0  0  0  0  0  0  0  0  0
  139.9906  160.1402  135.7572 H   0  0  0  0  0  0  0  0  0  0  0  0
  137.8960  157.2190  132.9700 H   0  0  0  0  0  0  0  0  0  0  0  0
  141.6674  154.9704  136.3117 H   0  0  0  0  0  0  0  0  0  0  0  0
  141.4118  151.8703  141.1345 H   0  0  0  0  0  0  0  0  0  0  0  0
  139.7294  152.2859  140.6617 H   0  0  0  0  0  0  0  0  0  0  0  0
  140.2647  150.5712  140.6617 H   0  0  0  0  0  0  0  0  0  0  0  0
  140.8705  149.6573  138.7823 H   0  0  0  0  0  0  0  0  0  0  0  0
  140.0330  150.6550  137.5453 H   0  0  0  0  0  0  0  0  0  0  0  0
  141.8258  150.5427  137.5453 H   0  0  0  0  0  0  0  0  0  0  0  0
  1  2  1  0
  2  3  1  0
  3  4  1  0
  4  5  2  0
  5  6  1  0
  6  7  2  0
  7  8  1  0
  8  9  2  0
  9 10  1  0
 10 11  1  0
 10 12  2  0
  9 13  1  0
 13 14  1  0
 14 15  2  0
 14 16  1  0
 16 17  2  0
 16 18  1  0
 13 19  1  0
 19 20  2  0
  2 21  1  0
 21 22  2  0
 21 23  1  0
 23 24  1  0
 23 25  1  0
 20  4  1  0
 19  7  1  0
  1 26  1  0
  1 27  1  0
  1 28  1  0
  2 29  1  1
  3 30  1  0
  3 31  1  0
  5 32  1  0
  6 33  1  0
  8 34  1  0
 11 35  1  0
 20 36  1  0
 24 37  1  0
 24 38  1  0
 24 39  1  0
 25 40  1  0
 25 41  1  0
 25 42  1  0
M  CHG  3   3   1  11  -1  18  -1
M  END
>  <UniqueID>  (77) 
76

>  <SMILES>  (77) 
C[C@H]([NH2+]c1ccc2cc(C([NH-])=O)n(C(=O)C(=O)[O-])c2c1)C(=O)N(C)C

>  <Energy>  (77) 
82.22461075826844

>  <Genealogy>  (77) 
CC([NH2+]c1ccc2cc(C([NH-])=O)n(C(=O)C(=O)[O-])c2c1)C(=O)N(C)C (protonated)
C[C@H]([NH2+]c1ccc2cc(C([NH-])=O)n(C(=O)C(=O)[O-])c2c1)C(=O)N(C)C (chirality)
C[C@H]([NH2+]c1ccc2cc(C([NH-])=O)n(C(=O)C(=O)[O-])c2c1)C(=O)N(C)C (3D coordinates assigned)
C[C@H]([NH2+]c1ccc2cc(C([NH-])=O)n(C(=O)C(=O)[O-])c2c1)C(=O)N(C)C (optimized conformer: 82.22461075826844 kcal/mol)

>  <smiles>  (77) 
CC(Nc1ccc2cc(C(N)=O)n(C(=O)C(=O)O)c2c1)C(=O)N(C)C

>  <score_type>  (77) 
oracle

>  <origin>  (77) 
adg

>  <m_score__min__energy>  (77) 
-6.7300000000000004

>  <m_primary>  (77) 
energy

$$$$
78:0
     RDKit          3D

 34 35  0  0  0  0  0  0  0  0999 V2000
  144.4430  154.0990  136.3350 C   0  0  0  0  0  0  0  0  0  0  0  0
  145.4090  154.8420  135.4530 C   0  0  0  0  0  0  0  0  0  0  0  0
  144.9150  155.5670  134.4300 C   0  0  0  0  0  0  0  0  0  0  0  0
  145.7020  156.4680  133.5610 C   0  0  0  0  0  0  0  0  0  0  0  0
  146.4180  155.9560  132.6590 O   0  0  0  0  0  0  0  0  0  0  0  0
  145.6180  157.9020  133.6700 N   0  0  0  0  0  0  0  0  0  0  0  0
  146.6370  158.8070  133.6850 C   0  0  0  0  0  0  0  0  0  0  0  0
  148.0790  158.4890  133.7270 C   0  0  0  0  0  0  0  0  0  0  0  0
  148.5560  157.1770  133.4280 N   0  0  0  0  0  0  0  0  0  0  0  0
  148.8980  159.3780  134.0810 O   0  0  0  0  0  0  0  0  0  0  0  0
  146.1420  160.1070  133.7070 C   0  0  0  0  0  0  0  0  0  0  0  0
  144.7720  159.9730  133.7350 C   0  0  0  0  0  0  0  0  0  0  0  0
  143.7780  160.9460  133.7440 C   0  0  0  0  0  0  0  0  0  0  0  0
  142.4390  160.5190  133.7330 C   0  0  0  0  0  0  0  0  0  0  0  0
  142.1170  159.1370  133.7210 C   0  0  0  0  0  0  0  0  0  0  0  0
  140.6790  158.6940  133.6440 C   0  0  0  0  0  0  0  0  0  0  0  0
  140.0760  158.7700  134.8870 F   0  0  0  0  0  0  0  0  0  0  0  0
  140.6280  157.3870  133.1980 F   0  0  0  0  0  0  0  0  0  0  0  0
  139.9670  159.4970  132.7690 F   0  0  0  0  0  0  0  0  0  0  0  0
  143.1580  158.1810  133.6870 C   0  0  0  0  0  0  0  0  0  0  0  0
  144.4820  158.6330  133.7180 C   0  0  0  0  0  0  0  0  0  0  0  0
  146.8600  154.6260  135.6530 C   0  0  0  0  0  0  0  0  0  0  0  0
  147.6880  155.4870  135.2550 O   0  0  0  0  0  0  0  0  0  0  0  0
  147.3240  153.5090  136.3370 O   0  0  0  0  0  0  0  0  0  0  0  0
  144.6895  154.2886  137.3901 H   0  0  0  0  0  0  0  0  0  0  0  0
  143.4190  154.4445  136.1299 H   0  0  0  0  0  0  0  0  0  0  0  0
  144.5141  153.0206  136.1299 H   0  0  0  0  0  0  0  0  0  0  0  0
  143.8377  155.4814  134.2246 H   0  0  0  0  0  0  0  0  0  0  0  0
  149.5810  156.9820  133.4160 H   0  0  0  0  0  0  0  0  0  0  0  0
  147.8960  156.3800  133.2930 H   0  0  0  0  0  0  0  0  0  0  0  0
  146.7213  161.0421  133.7029 H   0  0  0  0  0  0  0  0  0  0  0  0
  144.0320  162.0162  133.7593 H   0  0  0  0  0  0  0  0  0  0  0  0
  141.6308  161.2652  133.7337 H   0  0  0  0  0  0  0  0  0  0  0  0
  142.9322  157.1056  133.6373 H   0  0  0  0  0  0  0  0  0  0  0  0
  1  2  1  0
  2  3  2  3
  3  4  1  0
  4  5  2  0
  4  6  1  0
  6  7  1  0
  7  8  1  0
  8  9  1  0
  8 10  2  0
  7 11  2  0
 11 12  1  0
 12 13  2  0
 13 14  1  0
 14 15  2  0
 15 16  1  0
 16 17  1  0
 16 18  1  0
 16 19  1  0
 15 20  1  0
 20 21  2  0
  2 22  1  0
 22 23  2  0
 22 24  1  0
 21  6  1  0
 21 12  1  0
  1 25  1  0
  1 26  1  0
  1 27  1  0
  3 28  1  0
  9 29  1  0
  9 30  1  0
 11 31  1  0
 13 32  1  0
 14 33  1  0
 20 34  1  0
M  CHG  1  24  -1
M  END
>  <UniqueID>  (78) 
77

>  <SMILES>  (78) 
CC(=CC(=O)n1c(C(N)=O)cc2ccc(C(F)(F)F)cc21)C(=O)[O-]

>  <Energy>  (78) 
80.61094507656016

>  <Genealogy>  (78) 
CC(=CC(=O)n1c(C(N)=O)cc2ccc(C(F)(F)F)cc21)C(=O)[O-] (protonated)
CC(=CC(=O)n1c(C(N)=O)cc2ccc(C(F)(F)F)cc21)C(=O)[O-] (3D coordinates assigned)
CC(=CC(=O)n1c(C(N)=O)cc2ccc(C(F)(F)F)cc21)C(=O)[O-] (optimized conformer: 80.61094507656016 kcal/mol)

>  <smiles>  (78) 
CC(=CC(=O)n1c(C(N)=O)cc2ccc(C(F)(F)F)cc21)C(=O)O

>  <score_type>  (78) 
oracle

>  <origin>  (78) 
adg

>  <m_score__min__energy>  (78) 
-7.3300000000000001

>  <m_primary>  (78) 
energy

$$$$
79:0
     RDKit          3D

 37 38  0  0  0  0  0  0  0  0999 V2000
  148.1260  153.7610  137.2130 C   0  0  0  0  0  0  0  0  0  0  0  0
  146.9730  153.4050  136.4000 N   0  0  0  0  0  0  0  0  0  0  0  0
  145.6270  153.6220  136.8320 C   0  0  0  0  0  0  0  0  0  0  0  0
  145.2380  153.1900  137.9510 O   0  0  0  0  0  0  0  0  0  0  0  0
  144.6830  154.3970  135.9670 C   0  0  0  0  0  0  0  0  0  0  0  0
  145.3950  155.3620  135.1980 O   0  0  0  0  0  0  0  0  0  0  0  0
  145.9490  155.0890  133.9410 C   0  0  0  0  0  0  0  0  0  0  0  0
  145.4230  154.2220  133.1900 O   0  0  0  0  0  0  0  0  0  0  0  0
  147.1190  155.8010  133.5080 N   0  0  0  0  0  0  0  0  0  0  0  0
  148.2940  155.2670  133.0730 C   0  0  0  0  0  0  0  0  0  0  0  0
  148.6660  153.8380  133.1210 C   0  0  0  0  0  0  0  0  0  0  0  0
  147.8160  152.8720  133.7400 N   0  0  0  0  0  0  0  0  0  0  0  0
  149.7790  153.4730  132.6560 O   0  0  0  0  0  0  0  0  0  0  0  0
  149.1460  156.2640  132.6080 C   0  0  0  0  0  0  0  0  0  0  0  0
  148.4560  157.4420  132.7840 C   0  0  0  0  0  0  0  0  0  0  0  0
  148.8250  158.7470  132.4750 C   0  0  0  0  0  0  0  0  0  0  0  0
  147.8970  159.7710  132.7260 C   0  0  0  0  0  0  0  0  0  0  0  0
  146.6170  159.4750  133.2680 C   0  0  0  0  0  0  0  0  0  0  0  0
  145.6470  160.5090  133.5180 N   0  0  0  0  0  0  0  0  0  0  0  0
  144.3310  160.2580  134.0960 C   0  0  0  0  0  0  0  0  0  0  0  0
  146.2820  158.1340  133.5650 C   0  0  0  0  0  0  0  0  0  0  0  0
  147.2340  157.1360  133.3260 C   0  0  0  0  0  0  0  0  0  0  0  0
  147.8629  153.6798  138.2780 H   0  0  0  0  0  0  0  0  0  0  0  0
  148.9584  153.0780  136.9878 H   0  0  0  0  0  0  0  0  0  0  0  0
  148.4284  154.7944  136.9878 H   0  0  0  0  0  0  0  0  0  0  0  0
  144.1617  153.7055  135.2887 H   0  0  0  0  0  0  0  0  0  0  0  0
  143.9555  154.9167  136.6079 H   0  0  0  0  0  0  0  0  0  0  0  0
  146.9720  153.1630  134.2790 H   0  0  0  0  0  0  0  0  0  0  0  0
  148.0760  151.8620  133.7290 H   0  0  0  0  0  0  0  0  0  0  0  0
  150.1553  156.1378  132.1892 H   0  0  0  0  0  0  0  0  0  0  0  0
  149.8135  158.9703  132.0471 H   0  0  0  0  0  0  0  0  0  0  0  0
  148.1640  160.8140  132.5005 H   0  0  0  0  0  0  0  0  0  0  0  0
  145.8880  161.4970  133.2750 H   0  0  0  0  0  0  0  0  0  0  0  0
  144.4038  160.2719  135.1935 H   0  0  0  0  0  0  0  0  0  0  0  0
  143.6302  161.0387  133.7651 H   0  0  0  0  0  0  0  0  0  0  0  0
  143.9668  159.2742  133.7651 H   0  0  0  0  0  0  0  0  0  0  0  0
  145.2935  157.8801  133.9755 H   0  0  0  0  0  0  0  0  0  0  0  0
  1  2  1  0
  2  3  1  0
  3  4  2  0
  3  5  1  0
  5  6  1  0
  6  7  1  0
  7  8  2  0
  7  9  1  0
  9 10  1  0
 10 11  1  0
 11 12  1  0
 11 13  2  0
 10 14  2  0
 14 15  1  0
 15 16  2  0
 16 17  1  0
 17 18  2  0
 18 19  1  0
 19 20  1  0
 18 21  1  0
 21 22  2  0
 22  9  1  0
 22 15  1  0
  1 23  1  0
  1 24  1  0
  1 25  1  0
  5 26  1  0
  5 27  1  0
 12 28  1  0
 12 29  1  0
 14 30  1  0
 16 31  1  0
 17 32  1  0
 19 33  1  0
 20 34  1  0
 20 35  1  0
 20 36  1  0
 21 37  1  0
M  CHG  1   2  -1
M  END
>  <UniqueID>  (79) 
78

>  <SMILES>  (79) 
C[N-]C(=O)COC(=O)n1c(C(N)=O)cc2ccc(NC)cc21

>  <Energy>  (79) 
69.71459389718439

>  <Genealogy>  (79) 
C[N-]C(=O)COC(=O)n1c(C(N)=O)cc2ccc(NC)cc21 (protonated)
C[N-]C(=O)COC(=O)n1c(C(N)=O)cc2ccc(NC)cc21 (3D coordinates assigned)
C[N-]C(=O)COC(=O)n1c(C(N)=O)cc2ccc(NC)cc21 (optimized conformer: 69.71459389718439 kcal/mol)

>  <smiles>  (79) 
CNC(=O)COC(=O)n1c(C(N)=O)cc2ccc(NC)cc21

>  <score_type>  (79) 
oracle

>  <origin>  (79) 
adg

>  <m_score__min__energy>  (79) 
-6.5099999999999998

>  <m_primary>  (79) 
energy

$$$$
80:0
     RDKit          3D

 30 31  0  0  0  0  0  0  0  0999 V2000
  149.6300  160.9490  130.7750 C   0  0  0  0  0  0  0  0  0  0  0  0
  148.9210  160.1760  131.3680 C   0  0  0  0  0  0  0  0  0  0  0  0
  148.0730  159.2500  132.0730 C   0  0  0  0  0  0  0  0  0  0  0  0
  146.8910  159.7130  132.6970 C   0  0  0  0  0  0  0  0  0  0  0  0
  146.0620  158.8230  133.3990 C   0  0  0  0  0  0  0  0  0  0  0  0
  146.4400  157.4840  133.4530 C   0  0  0  0  0  0  0  0  0  0  0  0
  145.8360  156.4180  134.0810 C   0  0  0  0  0  0  0  0  0  0  0  0
  146.6500  155.3190  133.8100 C   0  0  0  0  0  0  0  0  0  0  0  0
  146.3270  153.9340  134.2180 C   0  0  0  0  0  0  0  0  0  0  0  0
  146.3910  152.8610  133.2760 N   0  0  0  0  0  0  0  0  0  0  0  0
  146.0220  153.6810  135.4140 O   0  0  0  0  0  0  0  0  0  0  0  0
  147.7170  155.6930  133.0480 N   0  0  0  0  0  0  0  0  0  0  0  0
  148.8100  154.8700  132.6060 C   0  0  0  0  0  0  0  0  0  0  0  0
  149.9820  155.3350  132.5930 O   0  0  0  0  0  0  0  0  0  0  0  0
  148.5650  153.5610  132.1750 O   0  0  0  0  0  0  0  0  0  0  0  0
  149.5330  152.5180  132.2480 C   0  0  0  0  0  0  0  0  0  0  0  0
  148.8580  151.1850  132.3260 C   0  0  0  0  0  0  0  0  0  0  0  0
  149.5000  150.1670  132.6920 O   0  0  0  0  0  0  0  0  0  0  0  0
  147.5080  151.0740  132.0170 O   0  0  0  0  0  0  0  0  0  0  0  0
  147.5750  157.0200  132.8370 C   0  0  0  0  0  0  0  0  0  0  0  0
  148.4280  157.8880  132.1460 C   0  0  0  0  0  0  0  0  0  0  0  0
  150.2773  161.6547  130.2336 H   0  0  0  0  0  0  0  0  0  0  0  0
  146.6195  160.7770  132.6320 H   0  0  0  0  0  0  0  0  0  0  0  0
  145.1425  159.1729  133.8910 H   0  0  0  0  0  0  0  0  0  0  0  0
  144.9079  156.4307  134.6714 H   0  0  0  0  0  0  0  0  0  0  0  0
  146.5840  153.0380  132.2660 H   0  0  0  0  0  0  0  0  0  0  0  0
  146.2000  151.8820  133.5840 H   0  0  0  0  0  0  0  0  0  0  0  0
  150.1691  152.5503  131.3511 H   0  0  0  0  0  0  0  0  0  0  0  0
  150.1451  152.6616  133.1506 H   0  0  0  0  0  0  0  0  0  0  0  0
  149.3496  157.5177  131.6732 H   0  0  0  0  0  0  0  0  0  0  0  0
  1  2  3  0
  2  3  1  0
  3  4  2  0
  4  5  1  0
  5  6  2  0
  6  7  1  0
  7  8  2  0
  8  9  1  0
  9 10  1  0
  9 11  2  0
  8 12  1  0
 12 13  1  0
 13 14  2  0
 13 15  1  0
 15 16  1  0
 16 17  1  0
 17 18  2  0
 17 19  1  0
 12 20  1  0
 20 21  2  0
 21  3  1  0
 20  6  1  0
  1 22  1  0
  4 23  1  0
  5 24  1  0
  7 25  1  0
 10 26  1  0
 10 27  1  0
 16 28  1  0
 16 29  1  0
 21 30  1  0
M  CHG  1  19  -1
M  END
>  <UniqueID>  (80) 
79

>  <SMILES>  (80) 
C#Cc1ccc2cc(C(N)=O)n(C(=O)OCC(=O)[O-])c2c1

>  <Energy>  (80) 
65.05393561081829

>  <Genealogy>  (80) 
C#Cc1ccc2cc(C(N)=O)n(C(=O)OCC(=O)[O-])c2c1 (protonated)
C#Cc1ccc2cc(C(N)=O)n(C(=O)OCC(=O)[O-])c2c1 (3D coordinates assigned)
C#Cc1ccc2cc(C(N)=O)n(C(=O)OCC(=O)[O-])c2c1 (optimized conformer: 65.05393561081829 kcal/mol)

>  <smiles>  (80) 
C#Cc1ccc2cc(C(N)=O)n(C(=O)OCC(=O)O)c2c1

>  <score_type>  (80) 
oracle

>  <origin>  (80) 
adg

>  <m_score__min__energy>  (80) 
-6.6200000000000001

>  <m_primary>  (80) 
energy

$$$$
81:0
     RDKit          3D

 30 31  0  0  0  0  0  0  0  0999 V2000
  146.4490  160.8520  133.3920 N   0  0  0  0  0  0  0  0  0  0  0  0
  145.5470  159.7520  133.4750 C   0  0  0  0  0  0  0  0  0  0  0  0
  144.3390  159.9650  133.7590 O   0  0  0  0  0  0  0  0  0  0  0  0
  146.0210  158.3640  133.2890 C   0  0  0  0  0  0  0  0  0  0  0  0
  145.1880  157.2510  133.3760 C   0  0  0  0  0  0  0  0  0  0  0  0
  146.0160  156.1620  133.2390 C   0  0  0  0  0  0  0  0  0  0  0  0
  145.7140  154.8040  133.2260 C   0  0  0  0  0  0  0  0  0  0  0  0
  146.7680  153.8970  133.0280 C   0  0  0  0  0  0  0  0  0  0  0  0
  148.1000  154.3570  132.8570 C   0  0  0  0  0  0  0  0  0  0  0  0
  149.2120  153.3750  132.5830 C   0  0  0  0  0  0  0  0  0  0  0  0
  149.4750  152.6100  133.7060 F   0  0  0  0  0  0  0  0  0  0  0  0
  150.3550  154.0690  132.2330 F   0  0  0  0  0  0  0  0  0  0  0  0
  148.8670  152.5230  131.5490 F   0  0  0  0  0  0  0  0  0  0  0  0
  148.3610  155.7470  132.8510 C   0  0  0  0  0  0  0  0  0  0  0  0
  147.2950  156.6260  133.0700 C   0  0  0  0  0  0  0  0  0  0  0  0
  147.3140  157.9770  133.0930 N   0  0  0  0  0  0  0  0  0  0  0  0
  148.4600  158.8130  132.8720 C   0  0  0  0  0  0  0  0  0  0  0  0
  148.7500  159.7170  133.7020 O   0  0  0  0  0  0  0  0  0  0  0  0
  149.2390  158.6350  131.7220 O   0  0  0  0  0  0  0  0  0  0  0  0
  149.7650  159.7170  130.9580 C   0  0  0  0  0  0  0  0  0  0  0  0
  148.7400  160.7990  130.7970 C   0  0  0  0  0  0  0  0  0  0  0  0
  147.5800  160.5100  130.5490 O   0  0  0  0  0  0  0  0  0  0  0  0
  147.1870  160.8880  132.6540 H   0  0  0  0  0  0  0  0  0  0  0  0
  144.0979  157.2447  133.5232 H   0  0  0  0  0  0  0  0  0  0  0  0
  144.6815  154.4515  133.3665 H   0  0  0  0  0  0  0  0  0  0  0  0
  146.5588  152.8173  133.0052 H   0  0  0  0  0  0  0  0  0  0  0  0
  149.3783  156.1280  132.6782 H   0  0  0  0  0  0  0  0  0  0  0  0
  150.6461  160.1278  131.4727 H   0  0  0  0  0  0  0  0  0  0  0  0
  150.0448  159.3436  129.9618 H   0  0  0  0  0  0  0  0  0  0  0  0
  149.0332  161.8540  130.9024 H   0  0  0  0  0  0  0  0  0  0  0  0
  1  2  1  0
  2  3  2  0
  2  4  1  0
  4  5  2  0
  5  6  1  0
  6  7  2  0
  7  8  1  0
  8  9  2  0
  9 10  1  0
 10 11  1  0
 10 12  1  0
 10 13  1  0
  9 14  1  0
 14 15  2  0
 15 16  1  0
 16 17  1  0
 17 18  2  0
 17 19  1  0
 19 20  1  0
 20 21  1  0
 21 22  2  0
 16  4  1  0
 15  6  1  0
  1 23  1  0
  5 24  1  0
  7 25  1  0
  8 26  1  0
 14 27  1  0
 20 28  1  0
 20 29  1  0
 21 30  1  0
M  CHG  1   1  -1
M  END
>  <UniqueID>  (81) 
80

>  <SMILES>  (81) 
[NH-]C(=O)c1cc2ccc(C(F)(F)F)cc2n1C(=O)OCC=O

>  <Energy>  (81) 
67.4819158243865

>  <Genealogy>  (81) 
[NH-]C(=O)c1cc2ccc(C(F)(F)F)cc2n1C(=O)OCC=O (protonated)
[NH-]C(=O)c1cc2ccc(C(F)(F)F)cc2n1C(=O)OCC=O (3D coordinates assigned)
[NH-]C(=O)c1cc2ccc(C(F)(F)F)cc2n1C(=O)OCC=O (optimized conformer: 67.4819158243865 kcal/mol)

>  <smiles>  (81) 
NC(=O)c1cc2ccc(C(F)(F)F)cc2n1C(=O)OCC=O

>  <score_type>  (81) 
oracle

>  <origin>  (81) 
adg

>  <m_score__min__energy>  (81) 
-5.2800000000000002

>  <m_primary>  (81) 
energy

$$$$
82:0
     RDKit          3D

 34 35  0  0  0  0  0  0  0  0999 V2000
  140.3570  159.3920  132.4270 C   0  0  0  0  0  0  0  0  0  0  0  0
  139.9700  159.1320  133.7700 O   0  0  0  0  0  0  0  0  0  0  0  0
  140.8850  159.1070  134.8250 C   0  0  0  0  0  0  0  0  0  0  0  0
  141.0080  160.1000  135.5940 O   0  0  0  0  0  0  0  0  0  0  0  0
  141.7480  157.9010  135.0240 C   0  0  0  0  0  0  0  0  0  0  0  0
  143.1240  158.2460  134.8870 O   0  0  0  0  0  0  0  0  0  0  0  0
  143.7820  158.3060  133.6530 C   0  0  0  0  0  0  0  0  0  0  0  0
  143.2370  157.8370  132.6160 O   0  0  0  0  0  0  0  0  0  0  0  0
  145.0700  158.9320  133.5630 N   0  0  0  0  0  0  0  0  0  0  0  0
  145.3520  160.2650  133.5590 C   0  0  0  0  0  0  0  0  0  0  0  0
  144.3900  161.3560  133.8240 C   0  0  0  0  0  0  0  0  0  0  0  0
  142.9860  161.1290  133.7500 N   0  0  0  0  0  0  0  0  0  0  0  0
  144.8140  162.4920  134.1670 O   0  0  0  0  0  0  0  0  0  0  0  0
  146.7120  160.4770  133.3420 C   0  0  0  0  0  0  0  0  0  0  0  0
  147.2620  159.2200  133.2190 C   0  0  0  0  0  0  0  0  0  0  0  0
  148.5780  158.8400  132.9750 C   0  0  0  0  0  0  0  0  0  0  0  0
  148.8550  157.4670  132.8600 C   0  0  0  0  0  0  0  0  0  0  0  0
  147.8190  156.5070  132.9810 C   0  0  0  0  0  0  0  0  0  0  0  0
  148.1150  155.0430  132.8370 C   0  0  0  0  0  0  0  0  0  0  0  0
  147.7940  154.3850  134.0100 F   0  0  0  0  0  0  0  0  0  0  0  0
  149.4600  154.8620  132.5660 F   0  0  0  0  0  0  0  0  0  0  0  0
  146.4940  156.9330  133.2260 C   0  0  0  0  0  0  0  0  0  0  0  0
  146.2510  158.3060  133.3550 C   0  0  0  0  0  0  0  0  0  0  0  0
  141.2701  160.0054  132.4207 H   0  0  0  0  0  0  0  0  0  0  0  0
  140.5511  158.4404  131.9106 H   0  0  0  0  0  0  0  0  0  0  0  0
  139.5493  159.9314  131.9106 H   0  0  0  0  0  0  0  0  0  0  0  0
  141.5751  157.4939  136.0312 H   0  0  0  0  0  0  0  0  0  0  0  0
  141.4914  157.1494  134.2630 H   0  0  0  0  0  0  0  0  0  0  0  0
  142.5700  160.2280  134.0740 H   0  0  0  0  0  0  0  0  0  0  0  0
  147.2352  161.4427  133.2817 H   0  0  0  0  0  0  0  0  0  0  0  0
  149.3762  159.5903  132.8753 H   0  0  0  0  0  0  0  0  0  0  0  0
  149.8867  157.1337  132.6741 H   0  0  0  0  0  0  0  0  0  0  0  0
  147.5155  154.6352  132.0098 H   0  0  0  0  0  0  0  0  0  0  0  0
  145.6744  156.2046  133.3131 H   0  0  0  0  0  0  0  0  0  0  0  0
  1  2  1  0
  2  3  1  0
  3  4  2  0
  3  5  1  0
  5  6  1  0
  6  7  1  0
  7  8  2  0
  7  9  1  0
  9 10  1  0
 10 11  1  0
 11 12  1  0
 11 13  2  0
 10 14  2  0
 14 15  1  0
 15 16  2  0
 16 17  1  0
 17 18  2  0
 18 19  1  0
 19 20  1  0
 19 21  1  0
 18 22  1  0
 22 23  2  0
 23  9  1  0
 23 15  1  0
  1 24  1  0
  1 25  1  0
  1 26  1  0
  5 27  1  0
  5 28  1  0
 12 29  1  0
 14 30  1  0
 16 31  1  0
 17 32  1  0
 19 33  1  0
 22 34  1  0
M  CHG  1  12  -1
M  END
>  <UniqueID>  (82) 
81

>  <SMILES>  (82) 
COC(=O)COC(=O)n1c(C([NH-])=O)cc2ccc(C(F)F)cc21

>  <Energy>  (82) 
68.28703568489364

>  <Genealogy>  (82) 
COC(=O)COC(=O)n1c(C([NH-])=O)cc2ccc(C(F)F)cc21 (protonated)
COC(=O)COC(=O)n1c(C([NH-])=O)cc2ccc(C(F)F)cc21 (3D coordinates assigned)
COC(=O)COC(=O)n1c(C([NH-])=O)cc2ccc(C(F)F)cc21 (optimized conformer: 68.28703568489364 kcal/mol)

>  <smiles>  (82) 
COC(=O)COC(=O)n1c(C(N)=O)cc2ccc(C(F)F)cc21

>  <score_type>  (82) 
oracle

>  <origin>  (82) 
adg

>  <m_score__min__energy>  (82) 
-5.1299999999999999

>  <m_primary>  (82) 
energy

$$$$
83:0
     RDKit          3D

 35 36  0  0  0  0  0  0  0  0999 V2000
  139.8690  157.6190  136.7480 C   0  0  0  0  0  0  0  0  0  0  0  0
  139.6790  158.2110  135.4680 O   0  0  0  0  0  0  0  0  0  0  0  0
  140.6400  159.0240  134.8640 C   0  0  0  0  0  0  0  0  0  0  0  0
  141.3360  159.8170  135.5580 O   0  0  0  0  0  0  0  0  0  0  0  0
  140.8170  158.9500  133.4800 O   0  0  0  0  0  0  0  0  0  0  0  0
  141.5220  157.8890  132.8460 C   0  0  0  0  0  0  0  0  0  0  0  0
  142.8950  158.2400  132.7060 O   0  0  0  0  0  0  0  0  0  0  0  0
  143.7910  158.2320  133.7790 C   0  0  0  0  0  0  0  0  0  0  0  0
  143.4790  157.6680  134.8630 O   0  0  0  0  0  0  0  0  0  0  0  0
  145.0810  158.8480  133.6360 N   0  0  0  0  0  0  0  0  0  0  0  0
  145.3660  160.1810  133.5990 C   0  0  0  0  0  0  0  0  0  0  0  0
  144.4130  161.2800  133.8590 C   0  0  0  0  0  0  0  0  0  0  0  0
  143.0110  161.0460  133.7330 N   0  0  0  0  0  0  0  0  0  0  0  0
  144.8210  162.4330  134.1540 O   0  0  0  0  0  0  0  0  0  0  0  0
  146.7240  160.3840  133.3620 C   0  0  0  0  0  0  0  0  0  0  0  0
  147.2680  159.1250  133.2580 C   0  0  0  0  0  0  0  0  0  0  0  0
  148.5830  158.7350  133.0250 C   0  0  0  0  0  0  0  0  0  0  0  0
  148.8590  157.3600  132.9450 C   0  0  0  0  0  0  0  0  0  0  0  0
  147.8190  156.4030  133.0740 C   0  0  0  0  0  0  0  0  0  0  0  0
  148.1350  154.9290  133.0240 C   0  0  0  0  0  0  0  0  0  0  0  0
  147.0880  154.2600  132.4190 F   0  0  0  0  0  0  0  0  0  0  0  0
  149.2930  154.7020  132.3030 F   0  0  0  0  0  0  0  0  0  0  0  0
  148.3140  154.4230  134.3000 F   0  0  0  0  0  0  0  0  0  0  0  0
  146.4990  156.8390  133.3340 C   0  0  0  0  0  0  0  0  0  0  0  0
  146.2570  158.2150  133.4270 C   0  0  0  0  0  0  0  0  0  0  0  0
  139.6329  158.3547  137.5309 H   0  0  0  0  0  0  0  0  0  0  0  0
  139.2053  156.7479  136.8513 H   0  0  0  0  0  0  0  0  0  0  0  0
  140.9157  157.2968  136.8513 H   0  0  0  0  0  0  0  0  0  0  0  0
  141.4381  156.9781  133.4569 H   0  0  0  0  0  0  0  0  0  0  0  0
  141.0894  157.7082  131.8509 H   0  0  0  0  0  0  0  0  0  0  0  0
  142.6170  160.0850  133.8310 H   0  0  0  0  0  0  0  0  0  0  0  0
  147.2494  161.3466  133.2763 H   0  0  0  0  0  0  0  0  0  0  0  0
  149.3826  159.4811  132.9069 H   0  0  0  0  0  0  0  0  0  0  0  0
  149.8926  157.0213  132.7806 H   0  0  0  0  0  0  0  0  0  0  0  0
  145.6814  156.1140  133.4602 H   0  0  0  0  0  0  0  0  0  0  0  0
  1  2  1  0
  2  3  1  0
  3  4  2  0
  3  5  1  0
  5  6  1  0
  6  7  1  0
  7  8  1  0
  8  9  2  0
  8 10  1  0
 10 11  1  0
 11 12  1  0
 12 13  1  0
 12 14  2  0
 11 15  2  0
 15 16  1  0
 16 17  2  0
 17 18  1  0
 18 19  2  0
 19 20  1  0
 20 21  1  0
 20 22  1  0
 20 23  1  0
 19 24  1  0
 24 25  2  0
 25 10  1  0
 25 16  1  0
  1 26  1  0
  1 27  1  0
  1 28  1  0
  6 29  1  0
  6 30  1  0
 13 31  1  0
 15 32  1  0
 17 33  1  0
 18 34  1  0
 24 35  1  0
M  CHG  1  13  -1
M  END
>  <UniqueID>  (83) 
82

>  <SMILES>  (83) 
COC(=O)OCOC(=O)n1c(C([NH-])=O)cc2ccc(C(F)(F)F)cc21

>  <Energy>  (83) 
69.0390232034587

>  <Genealogy>  (83) 
COC(=O)OCOC(=O)n1c(C([NH-])=O)cc2ccc(C(F)(F)F)cc21 (protonated)
COC(=O)OCOC(=O)n1c(C([NH-])=O)cc2ccc(C(F)(F)F)cc21 (3D coordinates assigned)
COC(=O)OCOC(=O)n1c(C([NH-])=O)cc2ccc(C(F)(F)F)cc21 (optimized conformer: 69.0390232034587 kcal/mol)

>  <smiles>  (83) 
COC(=O)OCOC(=O)n1c(C(N)=O)cc2ccc(C(F)(F)F)cc21

>  <score_type>  (83) 
oracle

>  <origin>  (83) 
adg

>  <m_score__min__energy>  (83) 
-4.8300000000000001

>  <m_primary>  (83) 
energy

$$$$
84:0
     RDKit          3D

 37 38  0  0  0  0  0  0  0  0999 V2000
  148.9330  151.1620  131.8490 C   0  0  0  0  0  0  0  0  0  0  0  0
  149.6630  152.1370  132.5840 O   0  0  0  0  0  0  0  0  0  0  0  0
  149.2190  153.4550  132.7350 C   0  0  0  0  0  0  0  0  0  0  0  0
  149.8740  154.4140  132.2400 O   0  0  0  0  0  0  0  0  0  0  0  0
  147.9880  153.7250  133.4800 C   0  0  0  0  0  0  0  0  0  0  0  0
  147.0060  152.9430  133.3640 O   0  0  0  0  0  0  0  0  0  0  0  0
  147.9130  154.8480  134.3130 O   0  0  0  0  0  0  0  0  0  0  0  0
  146.7020  155.5580  134.5570 C   0  0  0  0  0  0  0  0  0  0  0  0
  146.3130  156.3380  133.3380 C   0  0  0  0  0  0  0  0  0  0  0  0
  146.0470  155.7240  132.2700 O   0  0  0  0  0  0  0  0  0  0  0  0
  146.3420  157.7730  133.3450 N   0  0  0  0  0  0  0  0  0  0  0  0
  147.3420  158.5940  132.9210 C   0  0  0  0  0  0  0  0  0  0  0  0
  148.6960  158.1700  132.5080 C   0  0  0  0  0  0  0  0  0  0  0  0
  148.9960  156.8000  132.2350 N   0  0  0  0  0  0  0  0  0  0  0  0
  149.6160  159.0270  132.4350 O   0  0  0  0  0  0  0  0  0  0  0  0
  146.9250  159.9240  132.9470 C   0  0  0  0  0  0  0  0  0  0  0  0
  145.6290  159.8900  133.4100 C   0  0  0  0  0  0  0  0  0  0  0  0
  144.7220  160.9250  133.6150 C   0  0  0  0  0  0  0  0  0  0  0  0
  143.4310  160.5900  134.0570 C   0  0  0  0  0  0  0  0  0  0  0  0
  143.0600  159.2350  134.2600 C   0  0  0  0  0  0  0  0  0  0  0  0
  141.6810  158.8880  134.7600 C   0  0  0  0  0  0  0  0  0  0  0  0
  140.7620  159.1230  133.7550 F   0  0  0  0  0  0  0  0  0  0  0  0
  141.6130  157.5560  135.1300 F   0  0  0  0  0  0  0  0  0  0  0  0
  141.3530  159.6600  135.8610 F   0  0  0  0  0  0  0  0  0  0  0  0
  144.0200  158.2160  134.0640 C   0  0  0  0  0  0  0  0  0  0  0  0
  145.3020  158.5800  133.6410 C   0  0  0  0  0  0  0  0  0  0  0  0
  148.4237  150.4818  132.5475 H   0  0  0  0  0  0  0  0  0  0  0  0
  148.1865  151.6635  131.2156 H   0  0  0  0  0  0  0  0  0  0  0  0
  149.6244  150.5869  131.2156 H   0  0  0  0  0  0  0  0  0  0  0  0
  145.9031  154.8428  134.8026 H   0  0  0  0  0  0  0  0  0  0  0  0
  146.8520  156.2513  135.3977 H   0  0  0  0  0  0  0  0  0  0  0  0
  149.9430  156.5320  131.8870 H   0  0  0  0  0  0  0  0  0  0  0  0
  148.3190  156.0400  132.4640 H   0  0  0  0  0  0  0  0  0  0  0  0
  147.5075  160.8115  132.6589 H   0  0  0  0  0  0  0  0  0  0  0  0
  145.0066  161.9725  133.4367 H   0  0  0  0  0  0  0  0  0  0  0  0
  142.6984  161.3880  134.2482 H   0  0  0  0  0  0  0  0  0  0  0  0
  143.7643  157.1608  134.2402 H   0  0  0  0  0  0  0  0  0  0  0  0
  1  2  1  0
  2  3  1  0
  3  4  2  0
  3  5  1  0
  5  6  2  0
  5  7  1  0
  7  8  1  0
  8  9  1  0
  9 10  2  0
  9 11  1  0
 11 12  1  0
 12 13  1  0
 13 14  1  0
 13 15  2  0
 12 16  2  0
 16 17  1  0
 17 18  2  0
 18 19  1  0
 19 20  2  0
 20 21  1  0
 21 22  1  0
 21 23  1  0
 21 24  1  0
 20 25  1  0
 25 26  2  0
 26 11  1  0
 26 17  1  0
  1 27  1  0
  1 28  1  0
  1 29  1  0
  8 30  1  0
  8 31  1  0
 14 32  1  0
 14 33  1  0
 16 34  1  0
 18 35  1  0
 19 36  1  0
 25 37  1  0
M  END
>  <UniqueID>  (84) 
83

>  <SMILES>  (84) 
COC(=O)C(=O)OCC(=O)n1c(C(N)=O)cc2ccc(C(F)(F)F)cc21

>  <Energy>  (84) 
71.36911096275303

>  <Genealogy>  (84) 
COC(=O)C(=O)OCC(=O)n1c(C(N)=O)cc2ccc(C(F)(F)F)cc21 (3D coordinates assigned)
COC(=O)C(=O)OCC(=O)n1c(C(N)=O)cc2ccc(C(F)(F)F)cc21 (optimized conformer: 71.36911096275303 kcal/mol)

>  <smiles>  (84) 
COC(=O)C(=O)OCC(=O)n1c(C(N)=O)cc2ccc(C(F)(F)F)cc21

>  <score_type>  (84) 
oracle

>  <origin>  (84) 
adg

>  <m_score__min__energy>  (84) 
-5.3799999999999999

>  <m_primary>  (84) 
energy

$$$$
85:0
     RDKit          3D

 45 47  0  0  0  0  0  0  0  0999 V2000
  143.3340  153.3460  135.9980 N   0  0  0  0  0  0  0  0  0  0  0  0
  142.1260  153.9670  136.4340 C   0  0  0  0  0  0  0  0  0  0  0  0
  141.5410  153.5290  137.4590 O   0  0  0  0  0  0  0  0  0  0  0  0
  141.5870  155.1260  135.6940 C   0  0  0  0  0  0  0  0  0  0  0  0
  141.3750  156.3830  136.2580 C   0  0  0  0  0  0  0  0  0  0  0  0
  140.8150  157.1440  135.2560 C   0  0  0  0  0  0  0  0  0  0  0  0
  140.4150  158.4760  135.2550 C   0  0  0  0  0  0  0  0  0  0  0  0
  139.8850  159.0040  134.0640 C   0  0  0  0  0  0  0  0  0  0  0  0
  139.7490  158.1940  132.9070 C   0  0  0  0  0  0  0  0  0  0  0  0
  139.2320  158.7870  131.6210 C   0  0  0  0  0  0  0  0  0  0  0  0
  138.6650  157.8060  130.8240 F   0  0  0  0  0  0  0  0  0  0  0  0
  138.2680  159.7450  131.8780 F   0  0  0  0  0  0  0  0  0  0  0  0
  140.2800  159.3730  130.9370 F   0  0  0  0  0  0  0  0  0  0  0  0
  140.1870  156.8500  132.9440 C   0  0  0  0  0  0  0  0  0  0  0  0
  140.7040  156.3530  134.1440 C   0  0  0  0  0  0  0  0  0  0  0  0
  141.1790  155.1170  134.3940 N   0  0  0  0  0  0  0  0  0  0  0  0
  141.2510  154.0390  133.4520 C   0  0  0  0  0  0  0  0  0  0  0  0
  140.1920  153.6280  132.9080 O   0  0  0  0  0  0  0  0  0  0  0  0
  142.5580  153.4360  133.1070 C   0  0  0  0  0  0  0  0  0  0  0  0
  142.6780  152.1830  133.1610 O   0  0  0  0  0  0  0  0  0  0  0  0
  143.6940  154.2420  132.7300 N   0  0  0  0  0  0  0  0  0  0  0  0
  143.9170  155.5630  133.3420 C   0  0  0  0  0  0  0  0  0  0  0  0
  145.4130  155.9190  133.3800 C   0  0  0  0  0  0  0  0  0  0  0  0
  146.2630  154.6740  133.6950 C   0  0  0  0  0  0  0  0  0  0  0  0
  145.9140  154.1500  135.0220 N   0  0  0  0  0  0  0  0  0  0  0  0
  146.9020  153.7620  135.9820 C   0  0  0  0  0  0  0  0  0  0  0  0
  148.1300  153.8150  135.6990 O   0  0  0  0  0  0  0  0  0  0  0  0
  146.5080  153.3190  137.2370 O   0  0  0  0  0  0  0  0  0  0  0  0
  146.0800  153.5830  132.6070 C   0  0  0  0  0  0  0  0  0  0  0  0
  144.7370  153.6820  131.8590 C   0  0  0  0  0  0  0  0  0  0  0  0
  143.3490  152.7370  135.1510 H   0  0  0  0  0  0  0  0  0  0  0  0
  141.6060  156.7000  137.2857 H   0  0  0  0  0  0  0  0  0  0  0  0
  140.5102  159.0973  136.1577 H   0  0  0  0  0  0  0  0  0  0  0  0
  139.5720  160.0580  134.0291 H   0  0  0  0  0  0  0  0  0  0  0  0
  140.1225  156.2114  132.0507 H   0  0  0  0  0  0  0  0  0  0  0  0
  143.3828  156.3243  132.7546 H   0  0  0  0  0  0  0  0  0  0  0  0
  143.5420  155.5332  134.3757 H   0  0  0  0  0  0  0  0  0  0  0  0
  145.7128  156.3223  132.4015 H   0  0  0  0  0  0  0  0  0  0  0  0
  145.5776  156.6675  134.1691 H   0  0  0  0  0  0  0  0  0  0  0  0
  147.3230  154.9678  133.6977 H   0  0  0  0  0  0  0  0  0  0  0  0
  144.9090  154.0730  135.3020 H   0  0  0  0  0  0  0  0  0  0  0  0
  146.8948  153.6813  131.8746 H   0  0  0  0  0  0  0  0  0  0  0  0
  146.0950  152.6093  133.1186 H   0  0  0  0  0  0  0  0  0  0  0  0
  144.8607  154.3324  130.9805 H   0  0  0  0  0  0  0  0  0  0  0  0
  144.4316  152.6721  131.5480 H   0  0  0  0  0  0  0  0  0  0  0  0
  1  2  1  0
  2  3  2  0
  2  4  1  0
  4  5  2  0
  5  6  1  0
  6  7  2  0
  7  8  1  0
  8  9  2  0
  9 10  1  0
 10 11  1  0
 10 12  1  0
 10 13  1  0
  9 14  1  0
 14 15  2  0
 15 16  1  0
 16 17  1  0
 17 18  2  0
 17 19  1  0
 19 20  2  0
 19 21  1  0
 21 22  1  0
 22 23  1  0
 23 24  1  0
 24 25  1  0
 25 26  1  0
 26 27  2  0
 26 28  1  0
 24 29  1  0
 29 30  1  0
 16  4  1  0
 30 21  1  0
 15  6  1  0
  1 31  1  0
  5 32  1  0
  7 33  1  0
  8 34  1  0
 14 35  1  0
 22 36  1  0
 22 37  1  0
 23 38  1  0
 23 39  1  0
 24 40  1  0
 25 41  1  0
 29 42  1  0
 29 43  1  0
 30 44  1  0
 30 45  1  0
M  CHG  2   1  -1  28  -1
M  END
>  <UniqueID>  (85) 
84

>  <SMILES>  (85) 
[NH-]C(=O)c1cc2ccc(C(F)(F)F)cc2n1C(=O)C(=O)N1CCC(NC(=O)[O-])CC1

>  <Energy>  (85) 
90.40302148546363

>  <Genealogy>  (85) 
[NH-]C(=O)c1cc2ccc(C(F)(F)F)cc2n1C(=O)C(=O)N1CCC(NC(=O)[O-])CC1 (protonated)
[NH-]C(=O)c1cc2ccc(C(F)(F)F)cc2n1C(=O)C(=O)N1CCC(NC(=O)[O-])CC1 (3D coordinates assigned)
[NH-]C(=O)c1cc2ccc(C(F)(F)F)cc2n1C(=O)C(=O)N1CCC(NC(=O)[O-])CC1 (nonaromatic ring conformer: 90.40302148546363 kcal/mol)

>  <smiles>  (85) 
NC(=O)c1cc2ccc(C(F)(F)F)cc2n1C(=O)C(=O)N1CCC(NC(=O)O)CC1

>  <score_type>  (85) 
oracle

>  <origin>  (85) 
adg

>  <m_score__min__energy>  (85) 
-7.8799999999999999

>  <m_primary>  (85) 
energy

$$$$
86:0
     RDKit          3D

 32 34  0  0  0  0  0  0  0  0999 V2000
  149.6110  151.9090  132.2030 C   0  0  0  0  0  0  0  0  0  0  0  0
  148.7270  152.9660  132.6790 N   0  0  0  0  0  0  0  0  0  0  0  0
  148.9460  154.2890  132.5700 C   0  0  0  0  0  0  0  0  0  0  0  0
  147.8320  154.9580  133.0600 C   0  0  0  0  0  0  0  0  0  0  0  0
  147.6200  156.4250  133.1390 C   0  0  0  0  0  0  0  0  0  0  0  0
  148.7150  157.3190  133.0000 C   0  0  0  0  0  0  0  0  0  0  0  0
  148.5280  158.7080  133.0850 C   0  0  0  0  0  0  0  0  0  0  0  0
  147.2390  159.1820  133.3000 C   0  0  0  0  0  0  0  0  0  0  0  0
  146.7850  160.4720  133.4490 C   0  0  0  0  0  0  0  0  0  0  0  0
  145.4120  160.3580  133.6510 C   0  0  0  0  0  0  0  0  0  0  0  0
  144.5110  161.5240  133.7730 C   0  0  0  0  0  0  0  0  0  0  0  0
  145.0180  162.8130  134.1080 N   0  0  0  0  0  0  0  0  0  0  0  0
  143.2680  161.3680  133.6270 O   0  0  0  0  0  0  0  0  0  0  0  0
  145.0330  159.0480  133.6380 N   0  0  0  0  0  0  0  0  0  0  0  0
  143.7270  158.5050  133.8930 C   0  0  0  0  0  0  0  0  0  0  0  0
  143.1980  158.6290  135.0280 O   0  0  0  0  0  0  0  0  0  0  0  0
  143.0470  157.8170  132.8960 O   0  0  0  0  0  0  0  0  0  0  0  0
  146.1640  158.3410  133.4200 C   0  0  0  0  0  0  0  0  0  0  0  0
  146.3230  156.9520  133.3590 C   0  0  0  0  0  0  0  0  0  0  0  0
  146.9540  153.9500  133.4440 C   0  0  0  0  0  0  0  0  0  0  0  0
  147.5260  152.7600  133.1920 N   0  0  0  0  0  0  0  0  0  0  0  0
  150.0506  151.3834  133.0635 H   0  0  0  0  0  0  0  0  0  0  0  0
  149.0357  151.1968  131.5932 H   0  0  0  0  0  0  0  0  0  0  0  0
  150.4137  152.3492  131.5932 H   0  0  0  0  0  0  0  0  0  0  0  0
  149.8525  154.7603  132.1624 H   0  0  0  0  0  0  0  0  0  0  0  0
  149.7237  156.9175  132.8233 H   0  0  0  0  0  0  0  0  0  0  0  0
  149.3765  159.4007  132.9844 H   0  0  0  0  0  0  0  0  0  0  0  0
  147.3799  161.3966  133.4157 H   0  0  0  0  0  0  0  0  0  0  0  0
  145.9280  163.1480  133.7230 H   0  0  0  0  0  0  0  0  0  0  0  0
  145.4585  156.2826  133.4794 H   0  0  0  0  0  0  0  0  0  0  0  0
  145.9563  154.1016  133.8817 H   0  0  0  0  0  0  0  0  0  0  0  0
  147.0970  151.8210  133.3600 H   0  0  0  0  0  0  0  0  0  0  0  0
  1  2  1  0
  2  3  1  0
  3  4  2  0
  4  5  1  0
  5  6  2  0
  6  7  1  0
  7  8  2  0
  8  9  1  0
  9 10  2  0
 10 11  1  0
 11 12  1  0
 11 13  2  0
 10 14  1  0
 14 15  1  0
 15 16  2  0
 15 17  1  0
 14 18  1  0
 18 19  2  0
  4 20  1  0
 20 21  2  0
 21  2  1  0
 19  5  1  0
 18  8  1  0
  1 22  1  0
  1 23  1  0
  1 24  1  0
  3 25  1  0
  6 26  1  0
  7 27  1  0
  9 28  1  0
 12 29  1  0
 19 30  1  0
 20 31  1  0
 21 32  1  0
M  CHG  3  12  -1  17  -1  21   1
M  END
>  <UniqueID>  (86) 
85

>  <SMILES>  (86) 
Cn1cc(-c2ccc3cc(C([NH-])=O)n(C(=O)[O-])c3c2)c[nH+]1

>  <Energy>  (86) 
106.09045813106657

>  <Genealogy>  (86) 
Cn1cc(-c2ccc3cc(C([NH-])=O)n(C(=O)[O-])c3c2)c[nH+]1 (protonated)
Cn1cc(-c2ccc3cc(C([NH-])=O)n(C(=O)[O-])c3c2)c[nH+]1 (3D coordinates assigned)
Cn1cc(-c2ccc3cc(C([NH-])=O)n(C(=O)[O-])c3c2)c[nH+]1 (optimized conformer: 106.09045813106657 kcal/mol)

>  <smiles>  (86) 
Cn1cc(-c2ccc3cc(C(N)=O)n(C(=O)O)c3c2)cn1

>  <score_type>  (86) 
oracle

>  <origin>  (86) 
adg

>  <m_score__min__energy>  (86) 
-6.9000000000000004

>  <m_primary>  (86) 
energy

$$$$
87:0
     RDKit          3D

 33 34  0  0  0  0  0  0  0  0999 V2000
  141.8450  154.7320  133.4530 C   0  0  0  0  0  0  0  0  0  0  0  0
  141.5060  156.2140  133.5820 C   0  0  1  0  0  0  0  0  0  0  0  0
  142.5140  156.9840  132.9250 O   0  0  0  0  0  0  0  0  0  0  0  0
  143.8320  157.0830  133.3870 C   0  0  0  0  0  0  0  0  0  0  0  0
  144.4510  156.0510  133.7630 O   0  0  0  0  0  0  0  0  0  0  0  0
  144.4850  158.3630  133.4120 N   0  0  0  0  0  0  0  0  0  0  0  0
  143.8990  159.5890  133.5290 C   0  0  0  0  0  0  0  0  0  0  0  0
  142.4710  159.8350  133.8240 C   0  0  0  0  0  0  0  0  0  0  0  0
  141.4540  159.3910  132.9240 N   0  0  0  0  0  0  0  0  0  0  0  0
  142.1400  160.4700  134.8590 O   0  0  0  0  0  0  0  0  0  0  0  0
  144.8540  160.5990  133.4250 C   0  0  0  0  0  0  0  0  0  0  0  0
  146.0520  159.9510  133.2400 C   0  0  0  0  0  0  0  0  0  0  0  0
  147.3320  160.4710  133.0660 C   0  0  0  0  0  0  0  0  0  0  0  0
  148.3890  159.5660  132.8670 C   0  0  0  0  0  0  0  0  0  0  0  0
  148.1470  158.1730  132.8380 C   0  0  0  0  0  0  0  0  0  0  0  0
  149.2290  157.2630  132.6210 N   0  0  0  0  0  0  0  0  0  0  0  0
  146.8370  157.6800  133.0190 C   0  0  0  0  0  0  0  0  0  0  0  0
  145.8050  158.6020  133.2350 C   0  0  0  0  0  0  0  0  0  0  0  0
  140.1570  156.4890  132.9830 C   0  0  0  0  0  0  0  0  0  0  0  0
  139.9170  157.5960  132.4320 O   0  0  0  0  0  0  0  0  0  0  0  0
  139.1750  155.5060  133.0030 O   0  0  0  0  0  0  0  0  0  0  0  0
  141.9460  154.2904  134.4554 H   0  0  0  0  0  0  0  0  0  0  0  0
  141.0412  154.2183  132.9053 H   0  0  0  0  0  0  0  0  0  0  0  0
  142.7922  154.6189  132.9053 H   0  0  0  0  0  0  0  0  0  0  0  0
  141.4729  156.4948  134.6451 H   0  0  0  0  0  0  0  0  0  0  0  0
  141.6870  158.8190  132.0820 H   0  0  0  0  0  0  0  0  0  0  0  0
  140.4510  159.6020  133.1210 H   0  0  0  0  0  0  0  0  0  0  0  0
  144.6848  161.6845  133.4794 H   0  0  0  0  0  0  0  0  0  0  0  0
  147.5104  161.5563  133.0837 H   0  0  0  0  0  0  0  0  0  0  0  0
  149.4131  159.9445  132.7327 H   0  0  0  0  0  0  0  0  0  0  0  0
  149.2890  156.7060  131.7400 H   0  0  0  0  0  0  0  0  0  0  0  0
  149.9780  157.1420  133.3390 H   0  0  0  0  0  0  0  0  0  0  0  0
  146.6318  156.5997  132.9912 H   0  0  0  0  0  0  0  0  0  0  0  0
  1  2  1  0
  2  3  1  0
  3  4  1  0
  4  5  2  0
  4  6  1  0
  6  7  1  0
  7  8  1  0
  8  9  1  0
  8 10  2  0
  7 11  2  0
 11 12  1  0
 12 13  2  0
 13 14  1  0
 14 15  2  0
 15 16  1  0
 15 17  1  0
 17 18  2  0
  2 19  1  0
 19 20  2  0
 19 21  1  0
 18  6  1  0
 18 12  1  0
  1 22  1  0
  1 23  1  0
  1 24  1  0
  2 25  1  1
  9 26  1  0
  9 27  1  0
 11 28  1  0
 13 29  1  0
 14 30  1  0
 16 31  1  0
 16 32  1  0
 17 33  1  0
M  CHG  1  21  -1
M  END
>  <UniqueID>  (87) 
86

>  <SMILES>  (87) 
C[C@@H](OC(=O)n1c(C(N)=O)cc2ccc(N)cc21)C(=O)[O-]

>  <Energy>  (87) 
66.49016871694751

>  <Genealogy>  (87) 
CC(OC(=O)n1c(C(N)=O)cc2ccc(N)cc21)C(=O)[O-] (protonated)
C[C@@H](OC(=O)n1c(C(N)=O)cc2ccc(N)cc21)C(=O)[O-] (chirality)
C[C@@H](OC(=O)n1c(C(N)=O)cc2ccc(N)cc21)C(=O)[O-] (3D coordinates assigned)
C[C@@H](OC(=O)n1c(C(N)=O)cc2ccc(N)cc21)C(=O)[O-] (optimized conformer: 66.49016871694751 kcal/mol)

>  <smiles>  (87) 
CC(OC(=O)n1c(C(N)=O)cc2ccc(N)cc21)C(=O)O

>  <score_type>  (87) 
oracle

>  <origin>  (87) 
adg

>  <m_score__min__energy>  (87) 
-6.04

>  <m_primary>  (87) 
energy

$$$$
88:0
     RDKit          3D

 27 29  0  0  0  0  0  0  0  0999 V2000
  138.7350  155.7340  132.9990 N   0  0  0  0  0  0  0  0  0  0  0  0
  140.1030  155.3420  133.1200 C   0  0  0  0  0  0  0  0  0  0  0  0
  140.3960  154.1180  133.0810 O   0  0  0  0  0  0  0  0  0  0  0  0
  141.1640  156.3530  133.3300 C   0  0  0  0  0  0  0  0  0  0  0  0
  142.5240  156.0530  133.3720 C   0  0  0  0  0  0  0  0  0  0  0  0
  143.1620  157.2660  133.4810 C   0  0  0  0  0  0  0  0  0  0  0  0
  144.5200  157.5570  133.5710 C   0  0  0  0  0  0  0  0  0  0  0  0
  144.8990  158.9020  133.7010 C   0  0  0  0  0  0  0  0  0  0  0  0
  143.9220  159.9300  133.7460 C   0  0  0  0  0  0  0  0  0  0  0  0
  144.3340  161.3430  133.8960 C   0  0  0  0  0  0  0  0  0  0  0  0
  145.4800  161.7330  134.4900 N   0  0  0  0  0  0  0  0  0  0  0  0
  145.4090  163.0740  134.3850 C   0  0  0  0  0  0  0  0  0  0  0  0
  144.2870  163.4780  133.7630 N   0  0  0  0  0  0  0  0  0  0  0  0
  143.6080  162.3870  133.4550 N   0  0  0  0  0  0  0  0  0  0  0  0
  142.5520  159.5930  133.6510 C   0  0  0  0  0  0  0  0  0  0  0  0
  142.2040  158.2450  133.5030 C   0  0  0  0  0  0  0  0  0  0  0  0
  140.9690  157.7000  133.4120 N   0  0  0  0  0  0  0  0  0  0  0  0
  139.7140  158.3990  133.4690 C   0  0  0  0  0  0  0  0  0  0  0  0
  139.3940  159.2110  132.5620 O   0  0  0  0  0  0  0  0  0  0  0  0
  138.8480  158.1990  134.5380 O   0  0  0  0  0  0  0  0  0  0  0  0
  137.9910  155.0100  132.8910 H   0  0  0  0  0  0  0  0  0  0  0  0
  138.4590  156.7410  132.9740 H   0  0  0  0  0  0  0  0  0  0  0  0
  142.9887  155.0570  133.3274 H   0  0  0  0  0  0  0  0  0  0  0  0
  145.2739  156.7565  133.5411 H   0  0  0  0  0  0  0  0  0  0  0  0
  145.9656  159.1622  133.7688 H   0  0  0  0  0  0  0  0  0  0  0  0
  146.1804  163.7602  134.7645 H   0  0  0  0  0  0  0  0  0  0  0  0
  141.7770  160.3725  133.6924 H   0  0  0  0  0  0  0  0  0  0  0  0
  1  2  1  0
  2  3  2  0
  2  4  1  0
  4  5  2  0
  5  6  1  0
  6  7  2  0
  7  8  1  0
  8  9  2  0
  9 10  1  0
 10 11  2  0
 11 12  1  0
 12 13  2  0
 13 14  1  0
  9 15  1  0
 15 16  2  0
 16 17  1  0
 17 18  1  0
 18 19  2  0
 18 20  1  0
 17  4  1  0
 16  6  1  0
 14 10  1  0
  1 21  1  0
  1 22  1  0
  5 23  1  0
  7 24  1  0
  8 25  1  0
 12 26  1  0
 15 27  1  0
M  CHG  2  14  -1  20  -1
M  END
>  <UniqueID>  (88) 
87

>  <SMILES>  (88) 
NC(=O)c1cc2ccc(-c3ncn[n-]3)cc2n1C(=O)[O-]

>  <Energy>  (88) 
101.21928105253774

>  <Genealogy>  (88) 
NC(=O)c1cc2ccc(-c3ncn[n-]3)cc2n1C(=O)[O-] (protonated)
NC(=O)c1cc2ccc(-c3ncn[n-]3)cc2n1C(=O)[O-] (3D coordinates assigned)
NC(=O)c1cc2ccc(-c3ncn[n-]3)cc2n1C(=O)[O-] (optimized conformer: 101.21928105253774 kcal/mol)

>  <smiles>  (88) 
NC(=O)c1cc2ccc(-c3ncn[nH]3)cc2n1C(=O)O

>  <score_type>  (88) 
oracle

>  <origin>  (88) 
adg

>  <m_score__min__energy>  (88) 
-6.6100000000000003

>  <m_primary>  (88) 
energy

$$$$
89:0
     RDKit          3D

 41 42  0  0  0  0  0  0  0  0999 V2000
  139.4730  156.2010  132.6560 C   0  0  0  0  0  0  0  0  0  0  0  0
  139.6150  157.7380  132.6950 C   0  0  0  0  0  0  0  0  0  0  0  0
  139.0290  158.3000  131.3810 C   0  0  0  0  0  0  0  0  0  0  0  0
  138.8320  158.2570  133.9270 C   0  0  0  0  0  0  0  0  0  0  0  0
  139.5140  157.9850  135.1230 O   0  0  0  0  0  0  0  0  0  0  0  0
  141.0490  158.0740  132.8110 N   0  0  0  0  0  0  0  0  0  0  0  0
  142.0130  157.3610  133.6060 C   0  0  0  0  0  0  0  0  0  0  0  0
  141.6460  156.6410  134.5720 O   0  0  0  0  0  0  0  0  0  0  0  0
  143.4510  157.4600  133.2970 C   0  0  0  0  0  0  0  0  0  0  0  0
  144.0820  156.4460  132.8980 O   0  0  0  0  0  0  0  0  0  0  0  0
  144.1500  158.6990  133.4880 N   0  0  0  0  0  0  0  0  0  0  0  0
  143.6290  159.8920  133.8860 C   0  0  0  0  0  0  0  0  0  0  0  0
  142.2010  160.1540  134.1830 C   0  0  0  0  0  0  0  0  0  0  0  0
  141.6310  159.6780  135.4000 N   0  0  0  0  0  0  0  0  0  0  0  0
  141.4860  160.8160  133.3840 O   0  0  0  0  0  0  0  0  0  0  0  0
  144.6230  160.8700  133.9120 C   0  0  0  0  0  0  0  0  0  0  0  0
  145.7770  160.2310  133.5130 C   0  0  0  0  0  0  0  0  0  0  0  0
  147.0700  160.7240  133.3540 C   0  0  0  0  0  0  0  0  0  0  0  0
  148.0690  159.8260  132.9430 C   0  0  0  0  0  0  0  0  0  0  0  0
  147.7630  158.4620  132.7050 C   0  0  0  0  0  0  0  0  0  0  0  0
  148.8480  157.5190  132.2740 C   0  0  0  0  0  0  0  0  0  0  0  0
  150.0540  158.1930  132.2080 F   0  0  0  0  0  0  0  0  0  0  0  0
  148.9510  156.4840  133.1840 F   0  0  0  0  0  0  0  0  0  0  0  0
  146.4370  158.0010  132.8680 C   0  0  0  0  0  0  0  0  0  0  0  0
  145.4640  158.9210  133.2680 C   0  0  0  0  0  0  0  0  0  0  0  0
  139.4369  155.8099  133.6835 H   0  0  0  0  0  0  0  0  0  0  0  0
  138.5462  155.9317  132.1284 H   0  0  0  0  0  0  0  0  0  0  0  0
  140.3348  155.7664  132.1284 H   0  0  0  0  0  0  0  0  0  0  0  0
  138.2532  159.0441  131.6142 H   0  0  0  0  0  0  0  0  0  0  0  0
  139.8299  158.7763  130.7965 H   0  0  0  0  0  0  0  0  0  0  0  0
  138.5866  157.4799  130.7965 H   0  0  0  0  0  0  0  0  0  0  0  0
  138.6968  159.3445  133.8322 H   0  0  0  0  0  0  0  0  0  0  0  0
  137.8603  157.7425  133.9596 H   0  0  0  0  0  0  0  0  0  0  0  0
  140.4190  158.3810  135.0230 H   0  0  0  0  0  0  0  0  0  0  0  0
  141.4160  158.8590  132.2280 H   0  0  0  0  0  0  0  0  0  0  0  0
  141.5220  158.6550  135.5790 H   0  0  0  0  0  0  0  0  0  0  0  0
  144.5098  161.9278  134.1918 H   0  0  0  0  0  0  0  0  0  0  0  0
  147.3014  161.7824  133.5442 H   0  0  0  0  0  0  0  0  0  0  0  0
  149.0996  160.1847  132.8043 H   0  0  0  0  0  0  0  0  0  0  0  0
  148.6010  157.1137  131.2817 H   0  0  0  0  0  0  0  0  0  0  0  0
  146.1780  156.9477  132.6852 H   0  0  0  0  0  0  0  0  0  0  0  0
  1  2  1  0
  2  3  1  0
  2  4  1  0
  4  5  1  0
  2  6  1  0
  6  7  1  0
  7  8  2  0
  7  9  1  0
  9 10  2  0
  9 11  1  0
 11 12  1  0
 12 13  1  0
 13 14  1  0
 13 15  2  0
 12 16  2  0
 16 17  1  0
 17 18  2  0
 18 19  1  0
 19 20  2  0
 20 21  1  0
 21 22  1  0
 21 23  1  0
 20 24  1  0
 24 25  2  0
 25 11  1  0
 25 17  1  0
  1 26  1  0
  1 27  1  0
  1 28  1  0
  3 29  1  0
  3 30  1  0
  3 31  1  0
  4 32  1  0
  4 33  1  0
  5 34  1  0
  6 35  1  0
 14 36  1  0
 16 37  1  0
 18 38  1  0
 19 39  1  0
 21 40  1  0
 24 41  1  0
M  CHG  1  14  -1
M  END
>  <UniqueID>  (89) 
88

>  <SMILES>  (89) 
CC(C)(CO)NC(=O)C(=O)n1c(C([NH-])=O)cc2ccc(C(F)F)cc21

>  <Energy>  (89) 
78.2453987266702

>  <Genealogy>  (89) 
CC(C)(CO)NC(=O)C(=O)n1c(C([NH-])=O)cc2ccc(C(F)F)cc21 (protonated)
CC(C)(CO)NC(=O)C(=O)n1c(C([NH-])=O)cc2ccc(C(F)F)cc21 (3D coordinates assigned)
CC(C)(CO)NC(=O)C(=O)n1c(C([NH-])=O)cc2ccc(C(F)F)cc21 (optimized conformer: 78.2453987266702 kcal/mol)

>  <smiles>  (89) 
CC(C)(CO)NC(=O)C(=O)n1c(C(N)=O)cc2ccc(C(F)F)cc21

>  <score_type>  (89) 
oracle

>  <origin>  (89) 
adg

>  <m_score__min__energy>  (89) 
-7

>  <m_primary>  (89) 
energy

$$$$
90:0
     RDKit          3D

 45 46  0  0  0  0  0  0  0  0999 V2000
  138.7610  148.8580  129.2820 C   0  0  0  0  0  0  0  0  0  0  0  0
  138.9890  148.1430  130.3860 C   0  0  0  0  0  0  0  0  0  0  0  0
  139.9870  148.5810  131.4250 C   0  0  0  0  0  0  0  0  0  0  0  0
  139.4900  149.7850  132.2400 C   0  0  0  0  0  0  0  0  0  0  0  0
  140.6060  150.7510  132.5430 C   0  0  0  0  0  0  0  0  0  0  0  0
  141.9310  150.2770  132.7040 C   0  0  0  0  0  0  0  0  0  0  0  0
  142.9840  151.1680  132.9660 C   0  0  0  0  0  0  0  0  0  0  0  0
  142.6850  152.5260  133.0430 C   0  0  0  0  0  0  0  0  0  0  0  0
  143.5050  153.5960  133.3130 C   0  0  0  0  0  0  0  0  0  0  0  0
  142.6760  154.7130  133.2710 C   0  0  0  0  0  0  0  0  0  0  0  0
  143.1650  156.0950  133.4500 C   0  0  0  0  0  0  0  0  0  0  0  0
  142.8070  157.1290  132.5330 N   0  0  0  0  0  0  0  0  0  0  0  0
  143.9540  156.3550  134.3970 O   0  0  0  0  0  0  0  0  0  0  0  0
  141.3910  154.3510  133.0000 N   0  0  0  0  0  0  0  0  0  0  0  0
  140.2320  155.2010  132.9940 C   0  0  0  0  0  0  0  0  0  0  0  0
  139.0980  154.7170  133.2520 O   0  0  0  0  0  0  0  0  0  0  0  0
  140.3810  156.5660  132.7020 O   0  0  0  0  0  0  0  0  0  0  0  0
  139.9000  157.6640  133.4900 C   0  0  0  0  0  0  0  0  0  0  0  0
  140.2700  157.4720  134.9740 C   0  0  0  0  0  0  0  0  0  0  0  0
  138.3700  157.6790  133.3580 C   0  0  0  0  0  0  0  0  0  0  0  0
  140.4590  158.9980  132.9590 C   0  0  0  0  0  0  0  0  0  0  0  0
  141.4130  153.0060  132.8610 C   0  0  0  0  0  0  0  0  0  0  0  0
  140.3410  152.1360  132.6230 C   0  0  0  0  0  0  0  0  0  0  0  0
  138.0247  148.5090  128.5430 H   0  0  0  0  0  0  0  0  0  0  0  0
  139.3094  149.7962  129.1113 H   0  0  0  0  0  0  0  0  0  0  0  0
  138.4320  147.2072  130.5411 H   0  0  0  0  0  0  0  0  0  0  0  0
  140.1742  147.7421  132.1115 H   0  0  0  0  0  0  0  0  0  0  0  0
  140.9058  148.8848  130.9020 H   0  0  0  0  0  0  0  0  0  0  0  0
  138.7118  150.3082  131.6649 H   0  0  0  0  0  0  0  0  0  0  0  0
  139.0905  149.4119  133.1946 H   0  0  0  0  0  0  0  0  0  0  0  0
  142.1372  149.1995  132.6229 H   0  0  0  0  0  0  0  0  0  0  0  0
  144.0128  150.8048  133.1061 H   0  0  0  0  0  0  0  0  0  0  0  0
  144.5854  153.5739  133.5183 H   0  0  0  0  0  0  0  0  0  0  0  0
  143.1190  158.1110  132.7010 H   0  0  0  0  0  0  0  0  0  0  0  0
  142.2970  156.9110  131.6480 H   0  0  0  0  0  0  0  0  0  0  0  0
  139.4718  157.8862  135.6075 H   0  0  0  0  0  0  0  0  0  0  0  0
  140.3875  156.3992  135.1868 H   0  0  0  0  0  0  0  0  0  0  0  0
  141.2148  157.9936  135.1868 H   0  0  0  0  0  0  0  0  0  0  0  0
  137.9156  157.6835  134.3597 H   0  0  0  0  0  0  0  0  0  0  0  0
  138.0581  158.5802  132.8099 H   0  0  0  0  0  0  0  0  0  0  0  0
  138.0405  156.7840  132.8099 H   0  0  0  0  0  0  0  0  0  0  0  0
  140.7302  159.6451  133.8062 H   0  0  0  0  0  0  0  0  0  0  0  0
  141.3513  158.8035  132.3459 H   0  0  0  0  0  0  0  0  0  0  0  0
  139.6946  159.4978  132.3459 H   0  0  0  0  0  0  0  0  0  0  0  0
  139.3182  152.5220  132.5014 H   0  0  0  0  0  0  0  0  0  0  0  0
  1  2  2  0
  2  3  1  0
  3  4  1  0
  4  5  1  0
  5  6  2  0
  6  7  1  0
  7  8  2  0
  8  9  1  0
  9 10  2  0
 10 11  1  0
 11 12  1  0
 11 13  2  0
 10 14  1  0
 14 15  1  0
 15 16  2  0
 15 17  1  0
 17 18  1  0
 18 19  1  0
 18 20  1  0
 18 21  1  0
 14 22  1  0
 22 23  2  0
 23  5  1  0
 22  8  1  0
  1 24  1  0
  1 25  1  0
  2 26  1  0
  3 27  1  0
  3 28  1  0
  4 29  1  0
  4 30  1  0
  6 31  1  0
  7 32  1  0
  9 33  1  0
 12 34  1  0
 12 35  1  0
 19 36  1  0
 19 37  1  0
 19 38  1  0
 20 39  1  0
 20 40  1  0
 20 41  1  0
 21 42  1  0
 21 43  1  0
 21 44  1  0
 23 45  1  0
M  END
>  <UniqueID>  (90) 
89

>  <SMILES>  (90) 
C=CCCc1ccc2cc(C(N)=O)n(C(=O)OC(C)(C)C)c2c1

>  <Energy>  (90) 
72.9308040068337

>  <Genealogy>  (90) 
C=CCCc1ccc2cc(C(N)=O)n(C(=O)OC(C)(C)C)c2c1 (3D coordinates assigned)
C=CCCc1ccc2cc(C(N)=O)n(C(=O)OC(C)(C)C)c2c1 (optimized conformer: 72.9308040068337 kcal/mol)

>  <smiles>  (90) 
C=CCCc1ccc2cc(C(N)=O)n(C(=O)OC(C)(C)C)c2c1

>  <score_type>  (90) 
oracle

>  <origin>  (90) 
adg

>  <m_score__min__energy>  (90) 
-8.1500000000000004

>  <m_primary>  (90) 
energy

$$$$
91:0
     RDKit          3D

 49 50  0  0  0  0  0  0  0  0999 V2000
  138.7300  160.4870  130.3730 C   0  0  0  0  0  0  0  0  0  0  0  0
  137.7910  159.5020  131.0610 C   0  0  0  0  0  0  0  0  0  0  0  0
  138.5020  158.3420  131.4900 O   0  0  0  0  0  0  0  0  0  0  0  0
  138.9470  158.1530  132.8030 C   0  0  0  0  0  0  0  0  0  0  0  0
  138.1920  157.6270  133.6660 O   0  0  0  0  0  0  0  0  0  0  0  0
  140.3120  158.5610  133.1680 C   0  0  0  0  0  0  0  0  0  0  0  0
  140.5880  159.7910  133.2240 O   0  0  0  0  0  0  0  0  0  0  0  0
  141.3900  157.5240  133.3980 C   0  0  2  0  0  0  0  0  0  0  0  0
  140.9060  156.2840  134.1780 C   0  0  0  0  0  0  0  0  0  0  0  0
  140.5020  155.1770  133.2510 C   0  0  0  0  0  0  0  0  0  0  0  0
  139.3650  155.1990  132.7050 O   0  0  0  0  0  0  0  0  0  0  0  0
  141.3980  154.1340  132.9940 O   0  0  0  0  0  0  0  0  0  0  0  0
  141.0100  152.7660  133.0330 C   0  0  0  0  0  0  0  0  0  0  0  0
  142.5350  158.1380  134.0710 N   0  0  0  0  0  0  0  0  0  0  0  0
  143.8190  157.5280  134.2620 C   0  0  0  0  0  0  0  0  0  0  0  0
  143.9110  156.4390  134.8870 O   0  0  0  0  0  0  0  0  0  0  0  0
  144.9970  158.1570  133.7250 N   0  0  0  0  0  0  0  0  0  0  0  0
  145.2220  159.4910  133.5620 C   0  0  0  0  0  0  0  0  0  0  0  0
  144.2470  160.5650  133.8080 C   0  0  0  0  0  0  0  0  0  0  0  0
  142.9290  160.4950  133.2630 N   0  0  0  0  0  0  0  0  0  0  0  0
  144.6020  161.5920  134.4470 O   0  0  0  0  0  0  0  0  0  0  0  0
  146.5410  159.7290  133.1910 C   0  0  0  0  0  0  0  0  0  0  0  0
  147.1210  158.4850  133.0990 C   0  0  0  0  0  0  0  0  0  0  0  0
  148.4200  158.1290  132.7540 C   0  0  0  0  0  0  0  0  0  0  0  0
  148.7450  156.7610  132.7320 C   0  0  0  0  0  0  0  0  0  0  0  0
  147.7650  155.7780  133.0270 C   0  0  0  0  0  0  0  0  0  0  0  0
  148.1170  154.3120  133.0370 C   0  0  0  0  0  0  0  0  0  0  0  0
  148.4240  153.8790  134.3150 F   0  0  0  0  0  0  0  0  0  0  0  0
  147.0430  153.5830  132.5610 F   0  0  0  0  0  0  0  0  0  0  0  0
  149.2140  154.0810  132.2250 F   0  0  0  0  0  0  0  0  0  0  0  0
  146.4600  156.1830  133.3900 C   0  0  0  0  0  0  0  0  0  0  0  0
  146.1690  157.5540  133.4240 C   0  0  0  0  0  0  0  0  0  0  0  0
  139.2786  161.0625  131.1331 H   0  0  0  0  0  0  0  0  0  0  0  0
  139.4444  159.9348  129.7448 H   0  0  0  0  0  0  0  0  0  0  0  0
  138.1443  161.1742  129.7448 H   0  0  0  0  0  0  0  0  0  0  0  0
  137.3342  159.9892  131.9351 H   0  0  0  0  0  0  0  0  0  0  0  0
  137.0142  159.1955  130.3450 H   0  0  0  0  0  0  0  0  0  0  0  0
  141.6873  157.1564  132.4048 H   0  0  0  0  0  0  0  0  0  0  0  0
  141.7207  155.9285  134.8260 H   0  0  0  0  0  0  0  0  0  0  0  0
  140.0287  156.5721  134.7757 H   0  0  0  0  0  0  0  0  0  0  0  0
  140.9177  152.4407  134.0798 H   0  0  0  0  0  0  0  0  0  0  0  0
  140.0420  152.6448  132.5247 H   0  0  0  0  0  0  0  0  0  0  0  0
  141.7702  152.1546  132.5247 H   0  0  0  0  0  0  0  0  0  0  0  0
  142.2400  161.2560  133.4540 H   0  0  0  0  0  0  0  0  0  0  0  0
  142.6650  159.7300  132.6040 H   0  0  0  0  0  0  0  0  0  0  0  0
  147.0183  160.7034  133.0099 H   0  0  0  0  0  0  0  0  0  0  0  0
  149.1705  158.8940  132.5059 H   0  0  0  0  0  0  0  0  0  0  0  0
  149.7702  156.4495  132.4834 H   0  0  0  0  0  0  0  0  0  0  0  0
  145.6898  155.4386  133.6403 H   0  0  0  0  0  0  0  0  0  0  0  0
  1  2  1  0
  2  3  1  0
  3  4  1  0
  4  5  2  0
  4  6  1  0
  6  7  2  0
  6  8  1  0
  8  9  1  0
  9 10  1  0
 10 11  2  0
 10 12  1  0
 12 13  1  0
  8 14  1  0
 14 15  1  0
 15 16  2  0
 15 17  1  0
 17 18  1  0
 18 19  1  0
 19 20  1  0
 19 21  2  0
 18 22  2  0
 22 23  1  0
 23 24  2  0
 24 25  1  0
 25 26  2  0
 26 27  1  0
 27 28  1  0
 27 29  1  0
 27 30  1  0
 26 31  1  0
 31 32  2  0
 32 17  1  0
 32 23  1  0
  1 33  1  0
  1 34  1  0
  1 35  1  0
  2 36  1  0
  2 37  1  0
  8 38  1  6
  9 39  1  0
  9 40  1  0
 13 41  1  0
 13 42  1  0
 13 43  1  0
 20 44  1  0
 20 45  1  0
 22 46  1  0
 24 47  1  0
 25 48  1  0
 31 49  1  0
M  CHG  1  14  -1
M  END
>  <UniqueID>  (91) 
90

>  <SMILES>  (91) 
CCOC(=O)C(=O)[C@H](CC(=O)OC)[N-]C(=O)n1c(C(N)=O)cc2ccc(C(F)(F)F)cc21

>  <Energy>  (91) 
81.44371019042005

>  <Genealogy>  (91) 
CCOC(=O)C(=O)C(CC(=O)OC)[N-]C(=O)n1c(C(N)=O)cc2ccc(C(F)(F)F)cc21 (protonated)
CCOC(=O)C(=O)[C@H](CC(=O)OC)[N-]C(=O)n1c(C(N)=O)cc2ccc(C(F)(F)F)cc21 (chirality)
CCOC(=O)C(=O)[C@H](CC(=O)OC)[N-]C(=O)n1c(C(N)=O)cc2ccc(C(F)(F)F)cc21 (3D coordinates assigned)
CCOC(=O)C(=O)[C@H](CC(=O)OC)[N-]C(=O)n1c(C(N)=O)cc2ccc(C(F)(F)F)cc21 (optimized conformer: 81.44371019042005 kcal/mol)

>  <smiles>  (91) 
CCOC(=O)C(=O)C(CC(=O)OC)NC(=O)n1c(C(N)=O)cc2ccc(C(F)(F)F)cc21

>  <score_type>  (91) 
oracle

>  <origin>  (91) 
adg

>  <m_score__min__energy>  (91) 
-6.9199999999999999

>  <m_primary>  (91) 
energy

$$$$
92:0
     RDKit          3D

 45 48  0  0  0  0  0  0  0  0999 V2000
  138.1820  157.3890  133.7130 N   0  0  0  0  0  0  0  0  0  0  0  0
  139.3740  157.6430  134.4510 C   0  0  0  0  0  0  0  0  0  0  0  0
  139.3620  158.4670  135.4000 O   0  0  0  0  0  0  0  0  0  0  0  0
  140.5920  156.8730  134.1570 C   0  0  0  0  0  0  0  0  0  0  0  0
  140.6140  155.4880  134.1370 C   0  0  0  0  0  0  0  0  0  0  0  0
  141.8460  155.1570  133.6370 C   0  0  0  0  0  0  0  0  0  0  0  0
  142.3650  153.9020  133.3430 C   0  0  0  0  0  0  0  0  0  0  0  0
  143.6430  153.8300  132.7720 C   0  0  0  0  0  0  0  0  0  0  0  0
  144.3720  155.0150  132.4870 C   0  0  0  0  0  0  0  0  0  0  0  0
  145.6730  154.9330  131.8670 N   0  0  0  0  0  0  0  0  0  0  0  0
  146.7350  155.1440  132.8660 C   0  0  0  0  0  0  0  0  0  0  0  0
  146.4060  154.5410  134.2240 C   0  0  0  0  0  0  0  0  0  0  0  0
  147.4770  153.5440  134.1290 N   0  0  0  0  0  0  0  0  0  0  0  0
  147.8320  154.0910  132.8190 C   0  0  0  0  0  0  0  0  0  0  0  0
  143.8160  156.2750  132.8130 C   0  0  0  0  0  0  0  0  0  0  0  0
  142.5350  156.3220  133.3880 C   0  0  0  0  0  0  0  0  0  0  0  0
  141.7780  157.4000  133.7310 N   0  0  0  0  0  0  0  0  0  0  0  0
  142.1500  158.8010  133.8040 C   0  0  0  0  0  0  0  0  0  0  0  0
  143.3140  159.1320  134.1490 O   0  0  0  0  0  0  0  0  0  0  0  0
  141.2380  159.8820  133.4380 C   0  0  0  0  0  0  0  0  0  0  0  0
  141.3750  161.0230  133.9480 O   0  0  0  0  0  0  0  0  0  0  0  0
  140.2210  159.6540  132.4660 N   0  0  0  0  0  0  0  0  0  0  0  0
  139.8230  158.5730  131.5490 C   0  0  0  0  0  0  0  0  0  0  0  0
  138.7210  159.3380  130.8780 C   0  0  0  0  0  0  0  0  0  0  0  0
  137.4290  158.8310  131.1070 O   0  0  0  0  0  0  0  0  0  0  0  0
  139.1340  160.4220  131.8290 C   0  0  0  0  0  0  0  0  0  0  0  0
  138.1620  157.4520  132.6680 H   0  0  0  0  0  0  0  0  0  0  0  0
  139.8148  154.8020  134.4541 H   0  0  0  0  0  0  0  0  0  0  0  0
  141.7882  152.9892  133.5528 H   0  0  0  0  0  0  0  0  0  0  0  0
  144.0844  152.8488  132.5430 H   0  0  0  0  0  0  0  0  0  0  0  0
  145.7870  153.9800  131.4480 H   0  0  0  0  0  0  0  0  0  0  0  0
  145.7500  155.6290  131.0840 H   0  0  0  0  0  0  0  0  0  0  0  0
  146.9230  156.2160  132.7064 H   0  0  0  0  0  0  0  0  0  0  0  0
  146.5378  155.2456  135.0584 H   0  0  0  0  0  0  0  0  0  0  0  0
  145.3788  154.1973  134.4153 H   0  0  0  0  0  0  0  0  0  0  0  0
  147.0380  152.6000  133.9800 H   0  0  0  0  0  0  0  0  0  0  0  0
  148.8452  154.5178  132.7844 H   0  0  0  0  0  0  0  0  0  0  0  0
  147.8730  153.4099  131.9562 H   0  0  0  0  0  0  0  0  0  0  0  0
  144.3770  157.2012  132.6196 H   0  0  0  0  0  0  0  0  0  0  0  0
  140.6265  158.2871  130.8543 H   0  0  0  0  0  0  0  0  0  0  0  0
  139.5610  157.6037  131.9981 H   0  0  0  0  0  0  0  0  0  0  0  0
  138.6408  159.4674  129.7886 H   0  0  0  0  0  0  0  0  0  0  0  0
  137.4640  158.1690  131.8420 H   0  0  0  0  0  0  0  0  0  0  0  0
  139.4951  161.3249  131.3148 H   0  0  0  0  0  0  0  0  0  0  0  0
  138.3572  160.8375  132.4878 H   0  0  0  0  0  0  0  0  0  0  0  0
  1  2  1  0
  2  3  2  0
  2  4  1  0
  4  5  2  0
  5  6  1  0
  6  7  2  0
  7  8  1  0
  8  9  2  0
  9 10  1  0
 10 11  1  0
 11 12  1  0
 12 13  1  0
 13 14  1  0
  9 15  1  0
 15 16  2  0
 16 17  1  0
 17 18  1  0
 18 19  2  0
 18 20  1  0
 20 21  2  0
 20 22  1  0
 22 23  1  0
 23 24  1  0
 24 25  1  0
 24 26  1  0
 17  4  1  0
 26 22  1  0
 16  6  1  0
 14 11  1  0
  1 27  1  0
  5 28  1  0
  7 29  1  0
  8 30  1  0
 10 31  1  0
 10 32  1  0
 11 33  1  0
 12 34  1  0
 12 35  1  0
 13 36  1  0
 14 37  1  0
 14 38  1  0
 15 39  1  0
 23 40  1  0
 23 41  1  0
 24 42  1  0
 25 43  1  0
 26 44  1  0
 26 45  1  0
M  CHG  2   1  -1  10   1
M  END
>  <UniqueID>  (92) 
91

>  <SMILES>  (92) 
[NH-]C(=O)c1cc2ccc([NH2+]C3CNC3)cc2n1C(=O)C(=O)N1CC(O)C1

>  <Energy>  (92) 
212.08984093252204

>  <Genealogy>  (92) 
[NH-]C(=O)c1cc2ccc([NH2+]C3CNC3)cc2n1C(=O)C(=O)N1CC(O)C1 (protonated)
[NH-]C(=O)c1cc2ccc([NH2+]C3CNC3)cc2n1C(=O)C(=O)N1CC(O)C1 (3D coordinates assigned)
[NH-]C(=O)c1cc2ccc([NH2+]C3CNC3)cc2n1C(=O)C(=O)N1CC(O)C1 (nonaromatic ring conformer: 212.08984093252204 kcal/mol)

>  <smiles>  (92) 
NC(=O)c1cc2ccc(NC3CNC3)cc2n1C(=O)C(=O)N1CC(O)C1

>  <score_type>  (92) 
oracle

>  <origin>  (92) 
adg

>  <m_score__min__energy>  (92) 
-8.4000000000000004

>  <m_primary>  (92) 
energy

$$$$
