0:0
     RDKit          3D

 62 66  0  0  0  0  0  0  0  0999 V2000
  141.0020  152.6560  133.6060 C   0  0  0  0  0  0  0  0  0  0  0  0
  141.9820  153.5760  134.1660 N   0  0  0  0  0  0  0  0  0  0  0  0
  143.3870  153.3060  134.1080 C   0  0  0  0  0  0  0  0  0  0  0  0
  143.8030  152.2350  133.5890 O   0  0  0  0  0  0  0  0  0  0  0  0
  144.3670  154.2700  134.7120 C   0  0  0  0  0  0  0  0  0  0  0  0
  145.6170  154.4210  133.8360 C   0  0  0  0  0  0  0  0  0  0  0  0
  146.4150  155.6710  134.2270 C   0  0  0  0  0  0  0  0  0  0  0  0
  146.7100  156.5380  133.0330 C   0  0  0  0  0  0  0  0  0  0  0  0
  147.1790  156.0180  131.9880 O   0  0  0  0  0  0  0  0  0  0  0  0
  146.3910  157.9400  133.0500 N   0  0  0  0  0  0  0  0  0  0  0  0
  147.2520  158.9880  132.9150 C   0  0  0  0  0  0  0  0  0  0  0  0
  148.6810  158.8630  132.6000 C   0  0  0  0  0  0  0  0  0  0  0  0
  149.0890  158.2330  131.3850 N   0  0  0  0  0  0  0  0  0  0  0  0
  149.5410  159.3520  133.3750 O   0  0  0  0  0  0  0  0  0  0  0  0
  146.6040  160.1950  133.1330 C   0  0  0  0  0  0  0  0  0  0  0  0
  145.2940  159.8550  133.3940 C   0  0  0  0  0  0  0  0  0  0  0  0
  144.2110  160.6600  133.7130 C   0  0  0  0  0  0  0  0  0  0  0  0
  142.9880  160.0380  134.0110 C   0  0  0  0  0  0  0  0  0  0  0  0
  142.8690  158.6150  134.0250 C   0  0  0  0  0  0  0  0  0  0  0  0
  141.5320  157.9330  134.3450 C   0  0  1  0  0  0  0  0  0  0  0  0
  141.5120  157.3230  135.7350 C   0  0  0  0  0  0  0  0  0  0  0  0
  141.1850  156.0270  135.9970 N   0  0  0  0  0  0  0  0  0  0  0  0
  141.2620  155.9830  137.3370 C   0  0  0  0  0  0  0  0  0  0  0  0
  141.0040  154.8990  138.1750 C   0  0  0  0  0  0  0  0  0  0  0  0
  141.1310  155.1030  139.5610 C   0  0  0  0  0  0  0  0  0  0  0  0
  141.4920  156.3710  140.0670 C   0  0  0  0  0  0  0  0  0  0  0  0
  141.7360  157.4440  139.1900 C   0  0  0  0  0  0  0  0  0  0  0  0
  141.6060  157.2020  137.8280 C   0  0  0  0  0  0  0  0  0  0  0  0
  141.7580  158.0250  136.8290 O   0  0  0  0  0  0  0  0  0  0  0  0
  140.3380  158.8950  134.1050 C   0  0  0  0  0  0  0  0  0  0  0  0
  139.2420  158.0330  133.4400 C   0  0  1  0  0  0  0  0  0  0  0  0
  138.4580  158.7850  132.3660 C   0  0  0  0  0  0  0  0  0  0  0  0
  139.9300  156.9320  132.8750 O   0  0  0  0  0  0  0  0  0  0  0  0
  141.2070  156.8410  133.3780 C   0  0  0  0  0  0  0  0  0  0  0  0
  141.9940  155.9080  133.0630 O   0  0  0  0  0  0  0  0  0  0  0  0
  143.9970  157.8360  133.6580 C   0  0  0  0  0  0  0  0  0  0  0  0
  145.1950  158.4900  133.3470 C   0  0  0  0  0  0  0  0  0  0  0  0
  140.4645  152.1514  134.4223 H   0  0  0  0  0  0  0  0  0  0  0  0
  140.2859  153.2156  132.9863 H   0  0  0  0  0  0  0  0  0  0  0  0
  141.5153  151.9060  132.9863 H   0  0  0  0  0  0  0  0  0  0  0  0
  141.6440  154.4520  134.6210 H   0  0  0  0  0  0  0  0  0  0  0  0
  143.8835  155.2524  134.8179 H   0  0  0  0  0  0  0  0  0  0  0  0
  144.6769  153.8793  135.6925 H   0  0  0  0  0  0  0  0  0  0  0  0
  146.2542  153.5334  133.9626 H   0  0  0  0  0  0  0  0  0  0  0  0
  145.2999  154.5217  132.7875 H   0  0  0  0  0  0  0  0  0  0  0  0
  145.8314  156.2534  134.9552 H   0  0  0  0  0  0  0  0  0  0  0  0
  147.3724  155.3456  134.6599 H   0  0  0  0  0  0  0  0  0  0  0  0
  148.6890  157.3130  131.1020 H   0  0  0  0  0  0  0  0  0  0  0  0
  147.0407  161.2042  133.1039 H   0  0  0  0  0  0  0  0  0  0  0  0
  144.3073  161.7556  133.7321 H   0  0  0  0  0  0  0  0  0  0  0  0
  142.1072  160.6569  134.2374 H   0  0  0  0  0  0  0  0  0  0  0  0
  140.7118  153.9200  137.7672 H   0  0  0  0  0  0  0  0  0  0  0  0
  140.9479  154.2695  140.2551 H   0  0  0  0  0  0  0  0  0  0  0  0
  141.5830  156.5208  141.1530 H   0  0  0  0  0  0  0  0  0  0  0  0
  142.0191  158.4373  139.5686 H   0  0  0  0  0  0  0  0  0  0  0  0
  139.9776  159.3062  135.0594 H   0  0  0  0  0  0  0  0  0  0  0  0
  140.6230  159.7506  133.4751 H   0  0  0  0  0  0  0  0  0  0  0  0
  138.4881  157.7317  134.1822 H   0  0  0  0  0  0  0  0  0  0  0  0
  137.7436  159.4702  132.8457 H   0  0  0  0  0  0  0  0  0  0  0  0
  139.1546  159.3613  131.7395 H   0  0  0  0  0  0  0  0  0  0  0  0
  137.9112  158.0650  131.7395 H   0  0  0  0  0  0  0  0  0  0  0  0
  143.9312  156.7387  133.6187 H   0  0  0  0  0  0  0  0  0  0  0  0
  1  2  1  0
  2  3  1  0
  3  4  2  0
  3  5  1  0
  5  6  1  0
  6  7  1  0
  7  8  1  0
  8  9  2  0
  8 10  1  0
 10 11  1  0
 11 12  1  0
 12 13  1  0
 12 14  2  0
 11 15  2  0
 15 16  1  0
 16 17  2  0
 17 18  1  0
 18 19  2  0
 20 19  1  6
 20 21  1  0
 21 22  2  0
 22 23  1  0
 23 24  2  0
 24 25  1  0
 25 26  2  0
 26 27  1  0
 27 28  2  0
 28 29  1  0
 20 30  1  0
 30 31  1  0
 31 32  1  0
 31 33  1  0
 33 34  1  0
 34 35  2  0
 19 36  1  0
 36 37  2  0
 37 10  1  0
 37 16  1  0
 34 20  1  0
 29 21  1  0
 28 23  1  0
  1 38  1  0
  1 39  1  0
  1 40  1  0
  2 41  1  0
  5 42  1  0
  5 43  1  0
  6 44  1  0
  6 45  1  0
  7 46  1  0
  7 47  1  0
 13 48  1  0
 15 49  1  0
 17 50  1  0
 18 51  1  0
 24 52  1  0
 25 53  1  0
 26 54  1  0
 27 55  1  0
 30 56  1  0
 30 57  1  0
 31 58  1  1
 32 59  1  0
 32 60  1  0
 32 61  1  0
 36 62  1  0
M  CHG  1  13  -1
M  END
>  <UniqueID>  (1) 
1

>  <SMILES>  (1) 
CNC(=O)CCCC(=O)n1c(C([NH-])=O)cc2ccc([C@@]3(c4nc5ccccc5o4)C[C@@H](C)OC3=O)cc21

>  <Energy>  (1) 
151.74175594067952

>  <Genealogy>  (1) 
CNC(=O)CCCC(=O)n1c(C([NH-])=O)cc2ccc(C3(c4nc5ccccc5o4)CC(C)OC3=O)cc21 (protonated)
CNC(=O)CCCC(=O)n1c(C([NH-])=O)cc2ccc([C@@]3(c4nc5ccccc5o4)C[C@@H](C)OC3=O)cc21 (chirality)
CNC(=O)CCCC(=O)n1c(C([NH-])=O)cc2ccc([C@@]3(c4nc5ccccc5o4)C[C@@H](C)OC3=O)cc21 (3D coordinates assigned)
CNC(=O)CCCC(=O)n1c(C([NH-])=O)cc2ccc([C@@]3(c4nc5ccccc5o4)C[C@@H](C)OC3=O)cc21 (nonaromatic ring conformer: 151.74175594067952 kcal/mol)

>  <smiles>  (1) 
CNC(=O)CCCC(=O)n1c(C(N)=O)cc2ccc(C3(c4nc5ccccc5o4)CC(C)OC3=O)cc21

>  <score_type>  (1) 
oracle

>  <origin>  (1) 
adg

>  <m_score__min__energy>  (1) 
-10.99

>  <m_primary>  (1) 
energy

$$$$
1:0
     RDKit          3D

 37 38  0  0  0  0  0  0  0  0999 V2000
  150.3440  150.7400  129.9100 C   0  0  0  0  0  0  0  0  0  0  0  0
  150.0320  150.0250  131.2150 C   0  0  0  0  0  0  0  0  0  0  0  0
  149.1430  150.8220  131.9910 O   0  0  0  0  0  0  0  0  0  0  0  0
  149.5900  151.8000  132.8860 C   0  0  0  0  0  0  0  0  0  0  0  0
  149.7120  151.5420  134.1150 O   0  0  0  0  0  0  0  0  0  0  0  0
  149.8890  153.1740  132.3780 C   0  0  0  0  0  0  0  0  0  0  0  0
  148.7350  154.0910  132.6780 C   0  0  0  0  0  0  0  0  0  0  0  0
  147.4570  153.5570  132.9730 C   0  0  0  0  0  0  0  0  0  0  0  0
  146.3680  154.4070  133.2320 C   0  0  0  0  0  0  0  0  0  0  0  0
  146.5840  155.7810  133.1660 C   0  0  0  0  0  0  0  0  0  0  0  0
  145.7130  156.8230  133.3870 C   0  0  0  0  0  0  0  0  0  0  0  0
  146.4630  157.9780  133.1790 C   0  0  0  0  0  0  0  0  0  0  0  0
  145.8930  159.3380  133.2480 C   0  0  0  0  0  0  0  0  0  0  0  0
  146.6870  160.4870  132.9530 N   0  0  0  0  0  0  0  0  0  0  0  0
  144.6710  159.4840  133.5190 O   0  0  0  0  0  0  0  0  0  0  0  0
  147.7490  157.6670  132.8540 N   0  0  0  0  0  0  0  0  0  0  0  0
  148.8480  158.5740  132.6610 C   0  0  0  0  0  0  0  0  0  0  0  0
  149.2260  159.3180  133.6070 O   0  0  0  0  0  0  0  0  0  0  0  0
  149.4950  158.6320  131.4280 O   0  0  0  0  0  0  0  0  0  0  0  0
  149.0540  159.7990  130.2100 S   0  0  0  0  0  0  0  0  0  0  0  0
  149.2560  161.1090  131.3010 O   0  0  0  0  0  0  0  0  0  0  0  0
  147.8080  156.3160  132.8490 C   0  0  0  0  0  0  0  0  0  0  0  0
  148.9150  155.4910  132.6160 C   0  0  0  0  0  0  0  0  0  0  0  0
  150.7752  151.7283  130.1274 H   0  0  0  0  0  0  0  0  0  0  0  0
  151.0644  150.1453  129.3292 H   0  0  0  0  0  0  0  0  0  0  0  0
  149.4180  150.8637  129.3292 H   0  0  0  0  0  0  0  0  0  0  0  0
  149.5608  149.0550  130.9983 H   0  0  0  0  0  0  0  0  0  0  0  0
  150.9639  149.8621  131.7763 H   0  0  0  0  0  0  0  0  0  0  0  0
  150.7960  153.5557  132.8697 H   0  0  0  0  0  0  0  0  0  0  0  0
  150.0464  153.1325  131.2901 H   0  0  0  0  0  0  0  0  0  0  0  0
  147.3152  152.4665  132.9997 H   0  0  0  0  0  0  0  0  0  0  0  0
  145.3765  153.9997  133.4790 H   0  0  0  0  0  0  0  0  0  0  0  0
  144.6515  156.7578  133.6678 H   0  0  0  0  0  0  0  0  0  0  0  0
  147.6470  160.3910  132.5550 H   0  0  0  0  0  0  0  0  0  0  0  0
  146.2830  161.4450  133.0570 H   0  0  0  0  0  0  0  0  0  0  0  0
  149.7600  160.7240  132.0620 H   0  0  0  0  0  0  0  0  0  0  0  0
  149.9013  155.9225  132.3901 H   0  0  0  0  0  0  0  0  0  0  0  0
  1  2  1  0
  2  3  1  0
  3  4  1  0
  4  5  2  0
  4  6  1  0
  6  7  1  0
  7  8  2  0
  8  9  1  0
  9 10  2  0
 10 11  1  0
 11 12  2  0
 12 13  1  0
 13 14  1  0
 13 15  2  0
 12 16  1  0
 16 17  1  0
 17 18  2  0
 17 19  1  0
 19 20  1  0
 20 21  1  0
 16 22  1  0
 22 23  2  0
 23  7  1  0
 22 10  1  0
  1 24  1  0
  1 25  1  0
  1 26  1  0
  2 27  1  0
  2 28  1  0
  6 29  1  0
  6 30  1  0
  8 31  1  0
  9 32  1  0
 11 33  1  0
 14 34  1  0
 14 35  1  0
 21 36  1  0
 23 37  1  0
M  END
>  <UniqueID>  (2) 
2

>  <SMILES>  (2) 
CCOC(=O)Cc1ccc2cc(C(N)=O)n(C(=O)OSO)c2c1

>  <Energy>  (2) 
66.68553662308138

>  <Genealogy>  (2) 
CCOC(=O)Cc1ccc2cc(C(N)=O)n(C(=O)OSO)c2c1 (3D coordinates assigned)
CCOC(=O)Cc1ccc2cc(C(N)=O)n(C(=O)OSO)c2c1 (optimized conformer: 66.68553662308138 kcal/mol)

>  <smiles>  (2) 
CCOC(=O)Cc1ccc2cc(C(N)=O)n(C(=O)OSO)c2c1

>  <score_type>  (2) 
oracle

>  <origin>  (2) 
adg

>  <m_score__min__energy>  (2) 
-6.8399999999999999

>  <m_primary>  (2) 
energy

$$$$
2:0
     RDKit          3D

 44 46  0  0  0  0  0  0  0  0999 V2000
  142.8830  159.9890  133.1400 N   0  0  0  0  0  0  0  0  0  0  0  0
  144.1810  160.2240  133.6860 C   0  0  0  0  0  0  0  0  0  0  0  0
  144.3530  161.1870  134.4800 O   0  0  0  0  0  0  0  0  0  0  0  0
  145.3120  159.3210  133.3870 C   0  0  0  0  0  0  0  0  0  0  0  0
  146.5770  159.7730  133.0230 C   0  0  0  0  0  0  0  0  0  0  0  0
  147.3460  158.6390  132.9000 C   0  0  0  0  0  0  0  0  0  0  0  0
  148.6850  158.5000  132.5440 C   0  0  0  0  0  0  0  0  0  0  0  0
  149.2120  157.2000  132.4590 C   0  0  0  0  0  0  0  0  0  0  0  0
  148.3940  156.0770  132.7210 C   0  0  0  0  0  0  0  0  0  0  0  0
  148.9420  154.7510  132.6180 C   0  0  0  0  0  0  0  0  0  0  0  0
  149.3980  153.6390  132.5330 C   0  0  0  0  0  0  0  0  0  0  0  0
  149.9510  152.2780  132.4280 C   0  0  0  0  0  0  0  0  0  0  0  0
  149.1360  151.3730  131.5090 C   0  0  0  0  0  0  0  0  0  0  0  0
  148.7780  150.4900  132.6990 C   0  0  0  0  0  0  0  0  0  0  0  0
  149.5880  151.3950  133.6190 C   0  0  0  0  0  0  0  0  0  0  0  0
  147.0420  156.2510  133.0770 C   0  0  0  0  0  0  0  0  0  0  0  0
  146.5460  157.5570  133.1760 C   0  0  0  0  0  0  0  0  0  0  0  0
  145.2910  157.9610  133.4740 N   0  0  0  0  0  0  0  0  0  0  0  0
  144.1540  157.1170  133.7140 C   0  0  0  0  0  0  0  0  0  0  0  0
  143.2390  157.0350  132.8490 O   0  0  0  0  0  0  0  0  0  0  0  0
  144.0640  156.3900  134.9060 O   0  0  0  0  0  0  0  0  0  0  0  0
  144.2150  154.9770  134.9620 C   0  0  0  0  0  0  0  0  0  0  0  0
  145.5980  154.6410  134.9190 O   0  0  0  0  0  0  0  0  0  0  0  0
  146.2840  154.1260  136.0220 C   0  0  0  0  0  0  0  0  0  0  0  0
  145.6990  153.3730  136.8480 O   0  0  0  0  0  0  0  0  0  0  0  0
  147.7390  154.4240  136.1910 C   0  0  0  0  0  0  0  0  0  0  0  0
  148.4940  153.5340  135.4510 F   0  0  0  0  0  0  0  0  0  0  0  0
  148.0780  154.3080  137.5260 F   0  0  0  0  0  0  0  0  0  0  0  0
  148.0100  155.7110  135.7610 F   0  0  0  0  0  0  0  0  0  0  0  0
  142.6650  159.1100  132.6220 H   0  0  0  0  0  0  0  0  0  0  0  0
  142.1060  160.6630  133.3290 H   0  0  0  0  0  0  0  0  0  0  0  0
  146.8942  160.8146  132.8670 H   0  0  0  0  0  0  0  0  0  0  0  0
  149.3108  159.3804  132.3358 H   0  0  0  0  0  0  0  0  0  0  0  0
  150.2679  157.0552  132.1868 H   0  0  0  0  0  0  0  0  0  0  0  0
  151.0028  152.5049  132.1995 H   0  0  0  0  0  0  0  0  0  0  0  0
  148.2724  151.8683  131.0411 H   0  0  0  0  0  0  0  0  0  0  0  0
  149.5927  150.9365  130.6085 H   0  0  0  0  0  0  0  0  0  0  0  0
  147.7028  150.4626  132.9298 H   0  0  0  0  0  0  0  0  0  0  0  0
  148.9767  149.4085  132.6679 H   0  0  0  0  0  0  0  0  0  0  0  0
  148.9899  151.9035  134.3895 H   0  0  0  0  0  0  0  0  0  0  0  0
  150.3756  150.9749  134.2618 H   0  0  0  0  0  0  0  0  0  0  0  0
  146.3933  155.3843  133.2720 H   0  0  0  0  0  0  0  0  0  0  0  0
  143.7756  154.5989  135.8969 H   0  0  0  0  0  0  0  0  0  0  0  0
  143.7020  154.5211  134.1024 H   0  0  0  0  0  0  0  0  0  0  0  0
  1  2  1  0
  2  3  2  0
  2  4  1  0
  4  5  2  0
  5  6  1  0
  6  7  2  0
  7  8  1  0
  8  9  2  0
  9 10  1  0
 10 11  3  0
 11 12  1  0
 12 13  1  0
 13 14  1  0
 14 15  1  0
  9 16  1  0
 16 17  2  0
 17 18  1  0
 18 19  1  0
 19 20  2  0
 19 21  1  0
 21 22  1  0
 22 23  1  0
 23 24  1  0
 24 25  2  0
 24 26  1  0
 26 27  1  0
 26 28  1  0
 26 29  1  0
 18  4  1  0
 17  6  1  0
 15 12  1  0
  1 30  1  0
  1 31  1  0
  5 32  1  0
  7 33  1  0
  8 34  1  0
 12 35  1  0
 13 36  1  0
 13 37  1  0
 14 38  1  0
 14 39  1  0
 15 40  1  0
 15 41  1  0
 16 42  1  0
 22 43  1  0
 22 44  1  0
M  END
>  <UniqueID>  (3) 
3

>  <SMILES>  (3) 
NC(=O)c1cc2ccc(C#CC3CCC3)cc2n1C(=O)OCOC(=O)C(F)(F)F

>  <Energy>  (3) 
135.06030862283302

>  <Genealogy>  (3) 
NC(=O)c1cc2ccc(C#CC3CCC3)cc2n1C(=O)OCOC(=O)C(F)(F)F (3D coordinates assigned)
NC(=O)c1cc2ccc(C#CC3CCC3)cc2n1C(=O)OCOC(=O)C(F)(F)F (nonaromatic ring conformer: 135.06030862283302 kcal/mol)

>  <smiles>  (3) 
NC(=O)c1cc2ccc(C#CC3CCC3)cc2n1C(=O)OCOC(=O)C(F)(F)F

>  <score_type>  (3) 
oracle

>  <origin>  (3) 
adg

>  <m_score__min__energy>  (3) 
-7.6200000000000001

>  <m_primary>  (3) 
energy

$$$$
3:0
     RDKit          3D

 29 31  0  0  0  0  0  0  0  0999 V2000
  144.9070  159.3100  133.3570 C   0  0  0  0  0  0  0  0  0  0  0  0
  146.3530  159.6940  133.3200 C   0  0  0  0  0  0  0  0  0  0  0  0
  146.7000  160.8290  133.7410 O   0  0  0  0  0  0  0  0  0  0  0  0
  147.3320  158.8180  132.7390 N   0  0  0  0  0  0  0  0  0  0  0  0
  148.2470  159.1010  131.7710 C   0  0  0  0  0  0  0  0  0  0  0  0
  148.3240  160.3550  130.9920 C   0  0  0  0  0  0  0  0  0  0  0  0
  148.4920  161.6120  131.6400 N   0  0  0  0  0  0  0  0  0  0  0  0
  148.2000  160.3180  129.7380 O   0  0  0  0  0  0  0  0  0  0  0  0
  149.0740  158.0010  131.5460 C   0  0  0  0  0  0  0  0  0  0  0  0
  148.6240  157.0260  132.4070 C   0  0  0  0  0  0  0  0  0  0  0  0
  149.0840  155.7280  132.6100 C   0  0  0  0  0  0  0  0  0  0  0  0
  148.4380  154.9460  133.5820 C   0  0  0  0  0  0  0  0  0  0  0  0
  147.3540  155.4690  134.3330 C   0  0  0  0  0  0  0  0  0  0  0  0
  146.6870  154.6390  135.3590 C   0  0  0  0  0  0  0  0  0  0  0  0
  145.3620  154.6740  135.6100 N   0  0  0  0  0  0  0  0  0  0  0  0
  145.2390  153.7680  136.5990 C   0  0  0  0  0  0  0  0  0  0  0  0
  146.4170  153.2140  136.9320 N   0  0  0  0  0  0  0  0  0  0  0  0
  147.3310  153.7620  136.1510 N   0  0  0  0  0  0  0  0  0  0  0  0
  146.9170  156.7940  134.0960 C   0  0  0  0  0  0  0  0  0  0  0  0
  147.5720  157.5430  133.1130 C   0  0  0  0  0  0  0  0  0  0  0  0
  144.5775  159.2225  134.4028 H   0  0  0  0  0  0  0  0  0  0  0  0
  144.3098  160.0807  132.8477 H   0  0  0  0  0  0  0  0  0  0  0  0
  144.7709  158.3446  132.8477 H   0  0  0  0  0  0  0  0  0  0  0  0
  147.7460  162.0020  132.2580 H   0  0  0  0  0  0  0  0  0  0  0  0
  149.9081  157.9281  130.8326 H   0  0  0  0  0  0  0  0  0  0  0  0
  149.9268  155.3272  132.0277 H   0  0  0  0  0  0  0  0  0  0  0  0
  148.7769  153.9153  133.7630 H   0  0  0  0  0  0  0  0  0  0  0  0
  144.2833  153.5110  137.0793 H   0  0  0  0  0  0  0  0  0  0  0  0
  146.0832  157.2240  134.6704 H   0  0  0  0  0  0  0  0  0  0  0  0
  1  2  1  0
  2  3  2  0
  2  4  1  0
  4  5  1  0
  5  6  1  0
  6  7  1  0
  6  8  2  0
  5  9  2  0
  9 10  1  0
 10 11  2  0
 11 12  1  0
 12 13  2  0
 13 14  1  0
 14 15  2  0
 15 16  1  0
 16 17  2  0
 17 18  1  0
 13 19  1  0
 19 20  2  0
 20  4  1  0
 20 10  1  0
 18 14  1  0
  1 21  1  0
  1 22  1  0
  1 23  1  0
  7 24  1  0
  9 25  1  0
 11 26  1  0
 12 27  1  0
 16 28  1  0
 19 29  1  0
M  CHG  2   7  -1  18  -1
M  END
>  <UniqueID>  (4) 
4

>  <SMILES>  (4) 
CC(=O)n1c(C([NH-])=O)cc2ccc(-c3ncn[n-]3)cc21

>  <Energy>  (4) 
102.97723027446497

>  <Genealogy>  (4) 
CC(=O)n1c(C([NH-])=O)cc2ccc(-c3ncn[n-]3)cc21 (protonated)
CC(=O)n1c(C([NH-])=O)cc2ccc(-c3ncn[n-]3)cc21 (3D coordinates assigned)
CC(=O)n1c(C([NH-])=O)cc2ccc(-c3ncn[n-]3)cc21 (optimized conformer: 102.97723027446497 kcal/mol)

>  <smiles>  (4) 
CC(=O)n1c(C(N)=O)cc2ccc(-c3ncn[nH]3)cc21

>  <score_type>  (4) 
oracle

>  <origin>  (4) 
adg

>  <m_score__min__energy>  (4) 
-6.5899999999999999

>  <m_primary>  (4) 
energy

$$$$
4:0
     RDKit          3D

 24 25  0  0  0  0  0  0  0  0999 V2000
  141.2010  160.4700  134.0310 N   0  0  0  0  0  0  0  0  0  0  0  0
  142.1880  159.7300  134.7460 C   0  0  0  0  0  0  0  0  0  0  0  0
  141.9520  159.3750  135.9330 O   0  0  0  0  0  0  0  0  0  0  0  0
  143.5000  159.4260  134.1390 C   0  0  0  0  0  0  0  0  0  0  0  0
  143.9450  158.1280  133.8920 C   0  0  0  0  0  0  0  0  0  0  0  0
  145.2280  158.2670  133.4160 C   0  0  0  0  0  0  0  0  0  0  0  0
  146.1410  157.2980  133.0120 C   0  0  0  0  0  0  0  0  0  0  0  0
  147.3920  157.7290  132.5400 C   0  0  0  0  0  0  0  0  0  0  0  0
  147.7000  159.1110  132.4540 C   0  0  0  0  0  0  0  0  0  0  0  0
  149.0600  159.5590  131.9810 C   0  0  0  0  0  0  0  0  0  0  0  0
  149.4470  158.8450  130.8600 F   0  0  0  0  0  0  0  0  0  0  0  0
  149.0450  160.9040  131.6530 F   0  0  0  0  0  0  0  0  0  0  0  0
  149.9820  159.3520  132.9890 F   0  0  0  0  0  0  0  0  0  0  0  0
  146.7510  160.0650  132.8970 C   0  0  0  0  0  0  0  0  0  0  0  0
  145.5200  159.6060  133.3800 C   0  0  0  0  0  0  0  0  0  0  0  0
  144.4680  160.3320  133.8200 N   0  0  0  0  0  0  0  0  0  0  0  0
  144.3770  161.7650  133.8490 C   0  0  0  0  0  0  0  0  0  0  0  0
  143.3730  162.3490  133.3630 O   0  0  0  0  0  0  0  0  0  0  0  0
  145.4080  162.5230  134.3920 O   0  0  0  0  0  0  0  0  0  0  0  0
  141.4350  161.3840  133.5840 H   0  0  0  0  0  0  0  0  0  0  0  0
  143.3884  157.1917  134.0452 H   0  0  0  0  0  0  0  0  0  0  0  0
  145.8911  156.2279  133.0606 H   0  0  0  0  0  0  0  0  0  0  0  0
  148.1422  156.9854  132.2332 H   0  0  0  0  0  0  0  0  0  0  0  0
  146.9762  161.1411  132.8622 H   0  0  0  0  0  0  0  0  0  0  0  0
  1  2  1  0
  2  3  2  0
  2  4  1  0
  4  5  2  0
  5  6  1  0
  6  7  2  0
  7  8  1  0
  8  9  2  0
  9 10  1  0
 10 11  1  0
 10 12  1  0
 10 13  1  0
  9 14  1  0
 14 15  2  0
 15 16  1  0
 16 17  1  0
 17 18  2  0
 17 19  1  0
 16  4  1  0
 15  6  1  0
  1 20  1  0
  5 21  1  0
  7 22  1  0
  8 23  1  0
 14 24  1  0
M  CHG  2   1  -1  19  -1
M  END
>  <UniqueID>  (5) 
5

>  <SMILES>  (5) 
[NH-]C(=O)c1cc2ccc(C(F)(F)F)cc2n1C(=O)[O-]

>  <Energy>  (5) 
65.27127789722313

>  <Genealogy>  (5) 
[NH-]C(=O)c1cc2ccc(C(F)(F)F)cc2n1C(=O)[O-] (protonated)
[NH-]C(=O)c1cc2ccc(C(F)(F)F)cc2n1C(=O)[O-] (3D coordinates assigned)
[NH-]C(=O)c1cc2ccc(C(F)(F)F)cc2n1C(=O)[O-] (optimized conformer: 65.27127789722313 kcal/mol)

>  <smiles>  (5) 
NC(=O)c1cc2ccc(C(F)(F)F)cc2n1C(=O)O

>  <score_type>  (5) 
oracle

>  <origin>  (5) 
adg

>  <m_score__min__energy>  (5) 
-5.0599999999999996

>  <m_primary>  (5) 
energy

$$$$
5:0
     RDKit          3D

 30 31  0  0  0  0  0  0  0  0999 V2000
  149.5870  152.5990  132.2310 C   0  0  0  0  0  0  0  0  0  0  0  0
  149.3560  153.9460  132.6230 O   0  0  0  0  0  0  0  0  0  0  0  0
  148.2060  154.3420  133.3110 C   0  0  0  0  0  0  0  0  0  0  0  0
  148.0920  154.1340  134.5500 O   0  0  0  0  0  0  0  0  0  0  0  0
  147.1230  155.0660  132.5770 C   0  0  0  0  0  0  0  0  0  0  0  0
  147.2180  156.5410  132.8470 C   0  0  0  0  0  0  0  0  0  0  0  0
  148.4610  157.2080  132.7190 C   0  0  0  0  0  0  0  0  0  0  0  0
  148.5580  158.5910  132.9460 C   0  0  0  0  0  0  0  0  0  0  0  0
  147.3970  159.2800  133.2820 C   0  0  0  0  0  0  0  0  0  0  0  0
  147.2110  160.6110  133.5720 C   0  0  0  0  0  0  0  0  0  0  0  0
  145.8500  160.7460  133.8390 C   0  0  0  0  0  0  0  0  0  0  0  0
  145.1990  162.0440  134.1120 C   0  0  0  0  0  0  0  0  0  0  0  0
  145.9140  163.0630  134.8070 N   0  0  0  0  0  0  0  0  0  0  0  0
  144.0310  162.2780  133.7050 O   0  0  0  0  0  0  0  0  0  0  0  0
  145.2190  159.5420  133.7260 N   0  0  0  0  0  0  0  0  0  0  0  0
  143.8370  159.2450  133.9890 C   0  0  0  0  0  0  0  0  0  0  0  0
  143.1770  158.5300  133.1900 O   0  0  0  0  0  0  0  0  0  0  0  0
  143.2240  159.7210  135.1420 O   0  0  0  0  0  0  0  0  0  0  0  0
  146.1800  158.6550  133.3830 C   0  0  0  0  0  0  0  0  0  0  0  0
  146.0580  157.2750  133.1800 C   0  0  0  0  0  0  0  0  0  0  0  0
  149.6949  151.9698  133.1268 H   0  0  0  0  0  0  0  0  0  0  0  0
  148.7372  152.2407  131.6315 H   0  0  0  0  0  0  0  0  0  0  0  0
  150.5076  152.5443  131.6315 H   0  0  0  0  0  0  0  0  0  0  0  0
  147.2309  154.8854  131.4973 H   0  0  0  0  0  0  0  0  0  0  0  0
  146.1450  154.6979  132.9204 H   0  0  0  0  0  0  0  0  0  0  0  0
  149.3590  156.6376  132.4392 H   0  0  0  0  0  0  0  0  0  0  0  0
  149.5224  159.1131  132.8607 H   0  0  0  0  0  0  0  0  0  0  0  0
  147.9751  161.4021  133.5896 H   0  0  0  0  0  0  0  0  0  0  0  0
  146.9590  163.0890  134.7960 H   0  0  0  0  0  0  0  0  0  0  0  0
  145.0831  156.7749  133.2774 H   0  0  0  0  0  0  0  0  0  0  0  0
  1  2  1  0
  2  3  1  0
  3  4  2  0
  3  5  1  0
  5  6  1  0
  6  7  2  0
  7  8  1  0
  8  9  2  0
  9 10  1  0
 10 11  2  0
 11 12  1  0
 12 13  1  0
 12 14  2  0
 11 15  1  0
 15 16  1  0
 16 17  2  0
 16 18  1  0
 15 19  1  0
 19 20  2  0
 20  6  1  0
 19  9  1  0
  1 21  1  0
  1 22  1  0
  1 23  1  0
  5 24  1  0
  5 25  1  0
  7 26  1  0
  8 27  1  0
 10 28  1  0
 13 29  1  0
 20 30  1  0
M  CHG  2  13  -1  18  -1
M  END
>  <UniqueID>  (6) 
6

>  <SMILES>  (6) 
COC(=O)Cc1ccc2cc(C([NH-])=O)n(C(=O)[O-])c2c1

>  <Energy>  (6) 
65.5443596487056

>  <Genealogy>  (6) 
COC(=O)Cc1ccc2cc(C([NH-])=O)n(C(=O)[O-])c2c1 (protonated)
COC(=O)Cc1ccc2cc(C([NH-])=O)n(C(=O)[O-])c2c1 (3D coordinates assigned)
COC(=O)Cc1ccc2cc(C([NH-])=O)n(C(=O)[O-])c2c1 (optimized conformer: 65.5443596487056 kcal/mol)

>  <smiles>  (6) 
COC(=O)Cc1ccc2cc(C(N)=O)n(C(=O)O)c2c1

>  <score_type>  (6) 
oracle

>  <origin>  (6) 
adg

>  <m_score__min__energy>  (6) 
-6.1200000000000001

>  <m_primary>  (6) 
energy

$$$$
6:0
     RDKit          3D

 25 26  0  0  0  0  0  0  0  0999 V2000
  141.7210  160.7880  133.9170 N   0  0  0  0  0  0  0  0  0  0  0  0
  142.4810  159.7230  134.4910 C   0  0  0  0  0  0  0  0  0  0  0  0
  141.9420  158.9730  135.3480 O   0  0  0  0  0  0  0  0  0  0  0  0
  143.8620  159.4460  134.0490 C   0  0  0  0  0  0  0  0  0  0  0  0
  144.3450  158.1610  133.8120 C   0  0  0  0  0  0  0  0  0  0  0  0
  145.6310  158.3350  133.3590 C   0  0  0  0  0  0  0  0  0  0  0  0
  146.5840  157.3900  132.9910 C   0  0  0  0  0  0  0  0  0  0  0  0
  147.8530  157.8510  132.6010 C   0  0  0  0  0  0  0  0  0  0  0  0
  148.1440  159.2370  132.5850 C   0  0  0  0  0  0  0  0  0  0  0  0
  149.5180  159.7110  132.2150 C   0  0  0  0  0  0  0  0  0  0  0  0
  149.5620  160.1310  130.4840 Cl  0  0  0  0  0  0  0  0  0  0  0  0
  147.1560  160.1670  132.9800 C   0  0  0  0  0  0  0  0  0  0  0  0
  145.8940  159.6830  133.3430 C   0  0  0  0  0  0  0  0  0  0  0  0
  144.8150  160.3790  133.7700 N   0  0  0  0  0  0  0  0  0  0  0  0
  144.7390  161.7960  134.0050 C   0  0  0  0  0  0  0  0  0  0  0  0
  143.8620  162.4930  133.4320 O   0  0  0  0  0  0  0  0  0  0  0  0
  145.6400  162.4140  134.8640 O   0  0  0  0  0  0  0  0  0  0  0  0
  140.7590  160.9930  134.2660 H   0  0  0  0  0  0  0  0  0  0  0  0
  142.0780  161.3210  133.0920 H   0  0  0  0  0  0  0  0  0  0  0  0
  143.8112  157.2101  133.9565 H   0  0  0  0  0  0  0  0  0  0  0  0
  146.3511  156.3150  133.0050 H   0  0  0  0  0  0  0  0  0  0  0  0
  148.6278  157.1283  132.3053 H   0  0  0  0  0  0  0  0  0  0  0  0
  149.7722  160.5984  132.8132 H   0  0  0  0  0  0  0  0  0  0  0  0
  150.2457  158.9105  132.4144 H   0  0  0  0  0  0  0  0  0  0  0  0
  147.3736  161.2451  133.0016 H   0  0  0  0  0  0  0  0  0  0  0  0
  1  2  1  0
  2  3  2  0
  2  4  1  0
  4  5  2  0
  5  6  1  0
  6  7  2  0
  7  8  1  0
  8  9  2  0
  9 10  1  0
 10 11  1  0
  9 12  1  0
 12 13  2  0
 13 14  1  0
 14 15  1  0
 15 16  2  0
 15 17  1  0
 14  4  1  0
 13  6  1  0
  1 18  1  0
  1 19  1  0
  5 20  1  0
  7 21  1  0
  8 22  1  0
 10 23  1  0
 10 24  1  0
 12 25  1  0
M  CHG  1  17  -1
M  END
>  <UniqueID>  (7) 
7

>  <SMILES>  (7) 
NC(=O)c1cc2ccc(CCl)cc2n1C(=O)[O-]

>  <Energy>  (7) 
64.53701025727712

>  <Genealogy>  (7) 
NC(=O)c1cc2ccc(CCl)cc2n1C(=O)[O-] (protonated)
NC(=O)c1cc2ccc(CCl)cc2n1C(=O)[O-] (3D coordinates assigned)
NC(=O)c1cc2ccc(CCl)cc2n1C(=O)[O-] (optimized conformer: 64.53701025727712 kcal/mol)

>  <smiles>  (7) 
NC(=O)c1cc2ccc(CCl)cc2n1C(=O)O

>  <score_type>  (7) 
oracle

>  <origin>  (7) 
adg

>  <m_score__min__energy>  (7) 
-6.0700000000000003

>  <m_primary>  (7) 
energy

$$$$
7:0
     RDKit          3D

 38 39  0  0  0  0  0  0  0  0999 V2000
  149.6680  159.6150  131.7670 C   0  0  0  0  0  0  0  0  0  0  0  0
  148.5250  158.9860  132.5920 C   0  0  0  0  0  0  0  0  0  0  0  0
  148.4040  157.4930  132.2460 C   0  0  0  0  0  0  0  0  0  0  0  0
  148.8650  159.0660  133.9570 O   0  0  0  0  0  0  0  0  0  0  0  0
  147.1690  159.7320  132.3830 C   0  0  0  0  0  0  0  0  0  0  0  0
  146.2100  159.8210  133.5920 C   0  0  0  0  0  0  0  0  0  0  0  0
  145.0960  158.8050  133.5630 C   0  0  0  0  0  0  0  0  0  0  0  0
  145.3840  157.4290  133.7480 C   0  0  0  0  0  0  0  0  0  0  0  0
  144.3580  156.4720  133.7060 C   0  0  0  0  0  0  0  0  0  0  0  0
  143.0560  156.9180  133.4980 C   0  0  0  0  0  0  0  0  0  0  0  0
  141.8880  156.2040  133.3780 C   0  0  0  0  0  0  0  0  0  0  0  0
  140.8950  157.1580  133.1680 C   0  0  0  0  0  0  0  0  0  0  0  0
  139.4630  156.8220  133.0430 C   0  0  0  0  0  0  0  0  0  0  0  0
  138.4570  157.8340  133.1150 N   0  0  0  0  0  0  0  0  0  0  0  0
  139.1170  155.6160  132.9270 O   0  0  0  0  0  0  0  0  0  0  0  0
  141.4270  158.4120  133.1470 N   0  0  0  0  0  0  0  0  0  0  0  0
  140.7500  159.6440  132.8400 C   0  0  0  0  0  0  0  0  0  0  0  0
  140.9640  160.6750  133.5300 O   0  0  0  0  0  0  0  0  0  0  0  0
  139.8500  159.7090  131.7830 O   0  0  0  0  0  0  0  0  0  0  0  0
  142.7540  158.2490  133.3540 C   0  0  0  0  0  0  0  0  0  0  0  0
  143.7590  159.2230  133.3720 C   0  0  0  0  0  0  0  0  0  0  0  0
  150.4251  160.0317  132.4476 H   0  0  0  0  0  0  0  0  0  0  0  0
  150.1297  158.8439  131.1328 H   0  0  0  0  0  0  0  0  0  0  0  0
  149.2637  160.4177  131.1328 H   0  0  0  0  0  0  0  0  0  0  0  0
  148.3563  156.9043  133.1740 H   0  0  0  0  0  0  0  0  0  0  0  0
  147.4894  157.3258  131.6582 H   0  0  0  0  0  0  0  0  0  0  0  0
  149.2798  157.1807  131.6582 H   0  0  0  0  0  0  0  0  0  0  0  0
  149.3370  158.2270  134.2060 H   0  0  0  0  0  0  0  0  0  0  0  0
  147.4034  160.7607  132.0719 H   0  0  0  0  0  0  0  0  0  0  0  0
  146.6281  159.1275  131.6400 H   0  0  0  0  0  0  0  0  0  0  0  0
  146.7953  159.6674  134.5106 H   0  0  0  0  0  0  0  0  0  0  0  0
  145.7383  160.8140  133.5535 H   0  0  0  0  0  0  0  0  0  0  0  0
  146.4211  157.1085  133.9261 H   0  0  0  0  0  0  0  0  0  0  0  0
  144.5764  155.4015  133.8336 H   0  0  0  0  0  0  0  0  0  0  0  0
  141.7638  155.1125  133.4355 H   0  0  0  0  0  0  0  0  0  0  0  0
  137.4510  157.5830  132.9850 H   0  0  0  0  0  0  0  0  0  0  0  0
  138.6970  158.8150  133.3800 H   0  0  0  0  0  0  0  0  0  0  0  0
  143.5146  160.2875  133.2408 H   0  0  0  0  0  0  0  0  0  0  0  0
  1  2  1  0
  2  3  1  0
  2  4  1  0
  2  5  1  0
  5  6  1  0
  6  7  1  0
  7  8  2  0
  8  9  1  0
  9 10  2  0
 10 11  1  0
 11 12  2  0
 12 13  1  0
 13 14  1  0
 13 15  2  0
 12 16  1  0
 16 17  1  0
 17 18  2  0
 17 19  1  0
 16 20  1  0
 20 21  2  0
 21  7  1  0
 20 10  1  0
  1 22  1  0
  1 23  1  0
  1 24  1  0
  3 25  1  0
  3 26  1  0
  3 27  1  0
  4 28  1  0
  5 29  1  0
  5 30  1  0
  6 31  1  0
  6 32  1  0
  8 33  1  0
  9 34  1  0
 11 35  1  0
 14 36  1  0
 14 37  1  0
 21 38  1  0
M  CHG  1  19  -1
M  END
>  <UniqueID>  (8) 
8

>  <SMILES>  (8) 
CC(C)(O)CCc1ccc2cc(C(N)=O)n(C(=O)[O-])c2c1

>  <Energy>  (8) 
75.84228555891755

>  <Genealogy>  (8) 
CC(C)(O)CCc1ccc2cc(C(N)=O)n(C(=O)[O-])c2c1 (protonated)
CC(C)(O)CCc1ccc2cc(C(N)=O)n(C(=O)[O-])c2c1 (3D coordinates assigned)
CC(C)(O)CCc1ccc2cc(C(N)=O)n(C(=O)[O-])c2c1 (optimized conformer: 75.84228555891755 kcal/mol)

>  <smiles>  (8) 
CC(C)(O)CCc1ccc2cc(C(N)=O)n(C(=O)O)c2c1

>  <score_type>  (8) 
oracle

>  <origin>  (8) 
adg

>  <m_score__min__energy>  (8) 
-7.3200000000000003

>  <m_primary>  (8) 
energy

$$$$
8:0
     RDKit          3D

 44 45  0  0  0  0  0  0  0  0999 V2000
  148.2460  155.2530  132.9610 C   0  0  0  0  0  0  0  0  0  0  0  0
  147.4490  155.1260  134.2530 C   0  0  0  0  0  0  0  0  0  0  0  0
  146.6570  156.2910  134.4740 O   0  0  0  0  0  0  0  0  0  0  0  0
  145.7310  156.7790  133.5460 C   0  0  0  0  0  0  0  0  0  0  0  0
  145.1850  155.9990  132.7190 O   0  0  0  0  0  0  0  0  0  0  0  0
  145.3960  158.1760  133.5390 N   0  0  0  0  0  0  0  0  0  0  0  0
  146.2530  159.2360  133.5250 C   0  0  0  0  0  0  0  0  0  0  0  0
  147.7210  159.1510  133.3590 C   0  0  0  0  0  0  0  0  0  0  0  0
  148.5030  158.2940  134.1940 N   0  0  0  0  0  0  0  0  0  0  0  0
  148.3020  159.8630  132.4980 O   0  0  0  0  0  0  0  0  0  0  0  0
  145.5440  160.4340  133.5900 C   0  0  0  0  0  0  0  0  0  0  0  0
  144.2170  160.0720  133.6410 C   0  0  0  0  0  0  0  0  0  0  0  0
  143.0780  160.8610  133.7320 C   0  0  0  0  0  0  0  0  0  0  0  0
  141.8300  160.2190  133.7990 C   0  0  0  0  0  0  0  0  0  0  0  0
  141.7310  158.7960  133.7640 C   0  0  0  0  0  0  0  0  0  0  0  0
  140.3870  158.0590  133.8800 C   0  0  0  0  0  0  0  0  0  0  0  0
  139.3510  158.7910  132.9990 C   0  0  0  0  0  0  0  0  0  0  0  0
  140.4550  156.5850  133.4140 C   0  0  0  0  0  0  0  0  0  0  0  0
  139.9460  158.0540  135.3350 C   0  0  0  0  0  0  0  0  0  0  0  0
  138.7270  158.2230  135.6160 O   0  0  0  0  0  0  0  0  0  0  0  0
  140.8750  157.8260  136.3580 O   0  0  0  0  0  0  0  0  0  0  0  0
  141.3130  158.8520  137.2390 C   0  0  0  0  0  0  0  0  0  0  0  0
  142.9290  158.0360  133.6940 C   0  0  0  0  0  0  0  0  0  0  0  0
  144.1540  158.7060  133.6100 C   0  0  0  0  0  0  0  0  0  0  0  0
  149.3065  155.4220  133.1995 H   0  0  0  0  0  0  0  0  0  0  0  0
  148.1449  154.3274  132.3753 H   0  0  0  0  0  0  0  0  0  0  0  0
  147.8622  156.1013  132.3753 H   0  0  0  0  0  0  0  0  0  0  0  0
  146.7892  154.2485  134.1853 H   0  0  0  0  0  0  0  0  0  0  0  0
  148.1515  155.0120  135.0918 H   0  0  0  0  0  0  0  0  0  0  0  0
  148.0550  157.6420  134.8740 H   0  0  0  0  0  0  0  0  0  0  0  0
  149.5430  158.2750  134.0960 H   0  0  0  0  0  0  0  0  0  0  0  0
  145.9574  161.4533  133.5987 H   0  0  0  0  0  0  0  0  0  0  0  0
  143.1508  161.9584  133.7511 H   0  0  0  0  0  0  0  0  0  0  0  0
  140.9144  160.8232  133.8797 H   0  0  0  0  0  0  0  0  0  0  0  0
  138.6219  159.3062  133.6416 H   0  0  0  0  0  0  0  0  0  0  0  0
  139.8649  159.5276  132.3639 H   0  0  0  0  0  0  0  0  0  0  0  0
  138.8283  158.0606  132.3639 H   0  0  0  0  0  0  0  0  0  0  0  0
  140.4855  155.9237  134.2925 H   0  0  0  0  0  0  0  0  0  0  0  0
  139.5667  156.3503  132.8091 H   0  0  0  0  0  0  0  0  0  0  0  0
  141.3611  156.4331  132.8091 H   0  0  0  0  0  0  0  0  0  0  0  0
  141.1736  158.5255  138.2801 H   0  0  0  0  0  0  0  0  0  0  0  0
  142.3782  159.0596  137.0593 H   0  0  0  0  0  0  0  0  0  0  0  0
  140.7261  159.7649  137.0593 H   0  0  0  0  0  0  0  0  0  0  0  0
  142.8939  156.9366  133.7057 H   0  0  0  0  0  0  0  0  0  0  0  0
  1  2  1  0
  2  3  1  0
  3  4  1  0
  4  5  2  0
  4  6  1  0
  6  7  1  0
  7  8  1  0
  8  9  1  0
  8 10  2  0
  7 11  2  0
 11 12  1  0
 12 13  2  0
 13 14  1  0
 14 15  2  0
 15 16  1  0
 16 17  1  0
 16 18  1  0
 16 19  1  0
 19 20  2  0
 19 21  1  0
 21 22  1  0
 15 23  1  0
 23 24  2  0
 24  6  1  0
 24 12  1  0
  1 25  1  0
  1 26  1  0
  1 27  1  0
  2 28  1  0
  2 29  1  0
  9 30  1  0
  9 31  1  0
 11 32  1  0
 13 33  1  0
 14 34  1  0
 17 35  1  0
 17 36  1  0
 17 37  1  0
 18 38  1  0
 18 39  1  0
 18 40  1  0
 22 41  1  0
 22 42  1  0
 22 43  1  0
 23 44  1  0
M  END
>  <UniqueID>  (9) 
9

>  <SMILES>  (9) 
CCOC(=O)n1c(C(N)=O)cc2ccc(C(C)(C)C(=O)OC)cc21

>  <Energy>  (9) 
78.77242273833212

>  <Genealogy>  (9) 
CCOC(=O)n1c(C(N)=O)cc2ccc(C(C)(C)C(=O)OC)cc21 (3D coordinates assigned)
CCOC(=O)n1c(C(N)=O)cc2ccc(C(C)(C)C(=O)OC)cc21 (optimized conformer: 78.77242273833212 kcal/mol)

>  <smiles>  (9) 
CCOC(=O)n1c(C(N)=O)cc2ccc(C(C)(C)C(=O)OC)cc21

>  <score_type>  (9) 
oracle

>  <origin>  (9) 
adg

>  <m_score__min__energy>  (9) 
-6.7599999999999998

>  <m_primary>  (9) 
energy

$$$$
9:0
     RDKit          3D

 37 38  0  0  0  0  0  0  0  0999 V2000
  149.6070  160.8570  129.0280 C   0  0  0  0  0  0  0  0  0  0  0  0
  150.0650  160.1960  130.2000 O   0  0  0  0  0  0  0  0  0  0  0  0
  149.2180  159.8880  131.2690 C   0  0  0  0  0  0  0  0  0  0  0  0
  148.4120  160.7480  131.7200 O   0  0  0  0  0  0  0  0  0  0  0  0
  149.2430  158.5100  131.8570 C   0  0  0  0  0  0  0  0  0  0  0  0
  148.7620  158.5080  133.3150 C   0  0  0  0  0  0  0  0  0  0  0  0
  147.2790  158.2590  133.4130 C   0  0  0  0  0  0  0  0  0  0  0  0
  146.7790  156.9330  133.4300 C   0  0  0  0  0  0  0  0  0  0  0  0
  145.4020  156.6900  133.5740 C   0  0  0  0  0  0  0  0  0  0  0  0
  144.5560  157.7880  133.7040 C   0  0  0  0  0  0  0  0  0  0  0  0
  143.1950  157.8360  133.9000 C   0  0  0  0  0  0  0  0  0  0  0  0
  142.8830  159.1910  133.9960 C   0  0  0  0  0  0  0  0  0  0  0  0
  141.5030  159.7010  134.1330 C   0  0  0  0  0  0  0  0  0  0  0  0
  140.9370  160.5040  133.0990 N   0  0  0  0  0  0  0  0  0  0  0  0
  140.8290  159.4670  135.1700 O   0  0  0  0  0  0  0  0  0  0  0  0
  144.0100  159.9510  133.8710 N   0  0  0  0  0  0  0  0  0  0  0  0
  144.1340  161.3760  134.0060 C   0  0  0  0  0  0  0  0  0  0  0  0
  143.3350  162.1400  133.3980 O   0  0  0  0  0  0  0  0  0  0  0  0
  145.1220  161.9120  134.8380 O   0  0  0  0  0  0  0  0  0  0  0  0
  145.8820  163.0610  134.4850 C   0  0  0  0  0  0  0  0  0  0  0  0
  145.0230  159.0760  133.6860 C   0  0  0  0  0  0  0  0  0  0  0  0
  146.3890  159.3460  133.5520 C   0  0  0  0  0  0  0  0  0  0  0  0
  149.0018  161.7304  129.3124 H   0  0  0  0  0  0  0  0  0  0  0  0
  150.4706  161.1876  128.4323 H   0  0  0  0  0  0  0  0  0  0  0  0
  148.9941  160.1645  128.4323 H   0  0  0  0  0  0  0  0  0  0  0  0
  148.5862  157.8569  131.2637 H   0  0  0  0  0  0  0  0  0  0  0  0
  150.2810  158.1465  131.8370 H   0  0  0  0  0  0  0  0  0  0  0  0
  149.2932  157.7169  133.8644 H   0  0  0  0  0  0  0  0  0  0  0  0
  148.9725  159.4976  133.7466 H   0  0  0  0  0  0  0  0  0  0  0  0
  147.4745  156.0867  133.3296 H   0  0  0  0  0  0  0  0  0  0  0  0
  145.0052  155.6641  133.5837 H   0  0  0  0  0  0  0  0  0  0  0  0
  142.5006  156.9855  133.9667 H   0  0  0  0  0  0  0  0  0  0  0  0
  141.4780  161.2880  132.6730 H   0  0  0  0  0  0  0  0  0  0  0  0
  146.2200  163.5720  135.3986 H   0  0  0  0  0  0  0  0  0  0  0  0
  146.7560  162.7544  133.8917 H   0  0  0  0  0  0  0  0  0  0  0  0
  145.2579  163.7454  133.8917 H   0  0  0  0  0  0  0  0  0  0  0  0
  146.7610  160.3812  133.5549 H   0  0  0  0  0  0  0  0  0  0  0  0
  1  2  1  0
  2  3  1  0
  3  4  2  0
  3  5  1  0
  5  6  1  0
  6  7  1  0
  7  8  2  0
  8  9  1  0
  9 10  2  0
 10 11  1  0
 11 12  2  0
 12 13  1  0
 13 14  1  0
 13 15  2  0
 12 16  1  0
 16 17  1  0
 17 18  2  0
 17 19  1  0
 19 20  1  0
 16 21  1  0
 21 22  2  0
 22  7  1  0
 21 10  1  0
  1 23  1  0
  1 24  1  0
  1 25  1  0
  5 26  1  0
  5 27  1  0
  6 28  1  0
  6 29  1  0
  8 30  1  0
  9 31  1  0
 11 32  1  0
 14 33  1  0
 20 34  1  0
 20 35  1  0
 20 36  1  0
 22 37  1  0
M  CHG  1  14  -1
M  END
>  <UniqueID>  (10) 
10

>  <SMILES>  (10) 
COC(=O)CCc1ccc2cc(C([NH-])=O)n(C(=O)OC)c2c1

>  <Energy>  (10) 
67.06427317022025

>  <Genealogy>  (10) 
COC(=O)CCc1ccc2cc(C([NH-])=O)n(C(=O)OC)c2c1 (protonated)
COC(=O)CCc1ccc2cc(C([NH-])=O)n(C(=O)OC)c2c1 (3D coordinates assigned)
COC(=O)CCc1ccc2cc(C([NH-])=O)n(C(=O)OC)c2c1 (optimized conformer: 67.06427317022025 kcal/mol)

>  <smiles>  (10) 
COC(=O)CCc1ccc2cc(C(N)=O)n(C(=O)OC)c2c1

>  <score_type>  (10) 
oracle

>  <origin>  (10) 
adg

>  <m_score__min__energy>  (10) 
-6.1500000000000004

>  <m_primary>  (10) 
energy

$$$$
10:0
     RDKit          3D

 38 40  0  0  0  0  0  0  0  0999 V2000
  138.7200  160.6600  130.6100 C   0  0  0  0  0  0  0  0  0  0  0  0
  139.0390  159.5730  131.5990 C   0  0  0  0  0  0  0  0  0  0  0  0
  139.8010  159.8430  132.6780 C   0  0  0  0  0  0  0  0  0  0  0  0
  140.3210  161.1220  132.8590 O   0  0  0  0  0  0  0  0  0  0  0  0
  140.1490  158.7830  133.6980 C   0  0  2  0  0  0  0  0  0  0  0  0
  141.6170  158.4040  133.5950 C   0  0  0  0  0  0  0  0  0  0  0  0
  142.0100  157.0560  133.3780 C   0  0  0  0  0  0  0  0  0  0  0  0
  143.3670  156.7100  133.2840 C   0  0  0  0  0  0  0  0  0  0  0  0
  144.3100  157.7220  133.4200 C   0  0  0  0  0  0  0  0  0  0  0  0
  145.6810  157.6680  133.3270 C   0  0  0  0  0  0  0  0  0  0  0  0
  146.1150  158.9760  133.5260 C   0  0  0  0  0  0  0  0  0  0  0  0
  147.5380  159.3630  133.5550 C   0  0  0  0  0  0  0  0  0  0  0  0
  148.0070  160.5100  132.8440 N   0  0  0  0  0  0  0  0  0  0  0  0
  148.3460  158.7020  134.2600 O   0  0  0  0  0  0  0  0  0  0  0  0
  145.0540  159.8100  133.7220 N   0  0  0  0  0  0  0  0  0  0  0  0
  145.0830  161.2430  133.8410 C   0  0  0  0  0  0  0  0  0  0  0  0
  144.0290  161.9140  133.6880 O   0  0  0  0  0  0  0  0  0  0  0  0
  146.2720  161.9030  134.1290 O   0  0  0  0  0  0  0  0  0  0  0  0
  143.9550  159.0250  133.6560 C   0  0  0  0  0  0  0  0  0  0  0  0
  142.6090  159.4030  133.7370 C   0  0  0  0  0  0  0  0  0  0  0  0
  139.2460  157.5440  133.5690 C   0  0  0  0  0  0  0  0  0  0  0  0
  139.1080  157.1650  132.1600 N   0  0  0  0  0  0  0  0  0  0  0  0
  138.3950  158.2150  131.4210 C   0  0  0  0  0  0  0  0  0  0  0  0
  138.4502  161.5795  131.1501 H   0  0  0  0  0  0  0  0  0  0  0  0
  139.6001  160.8507  129.9782 H   0  0  0  0  0  0  0  0  0  0  0  0
  137.8765  160.3449  129.9782 H   0  0  0  0  0  0  0  0  0  0  0  0
  139.9692  159.2098  134.6958 H   0  0  0  0  0  0  0  0  0  0  0  0
  141.2418  156.2744  133.2826 H   0  0  0  0  0  0  0  0  0  0  0  0
  143.6751  155.6688  133.1079 H   0  0  0  0  0  0  0  0  0  0  0  0
  146.3024  156.7806  133.1361 H   0  0  0  0  0  0  0  0  0  0  0  0
  147.3400  161.1760  132.3960 H   0  0  0  0  0  0  0  0  0  0  0  0
  149.0270  160.7360  132.8250 H   0  0  0  0  0  0  0  0  0  0  0  0
  142.3291  160.4531  133.9072 H   0  0  0  0  0  0  0  0  0  0  0  0
  139.6926  156.7087  134.1283 H   0  0  0  0  0  0  0  0  0  0  0  0
  138.2520  157.7792  133.9772 H   0  0  0  0  0  0  0  0  0  0  0  0
  138.5290  156.2940  132.1160 H   0  0  0  0  0  0  0  0  0  0  0  0
  138.3963  157.9592  130.3512 H   0  0  0  0  0  0  0  0  0  0  0  0
  137.3700  158.2714  131.8163 H   0  0  0  0  0  0  0  0  0  0  0  0
  1  2  1  0
  2  3  2  0
  3  4  1  0
  3  5  1  0
  5  6  1  0
  6  7  2  0
  7  8  1  0
  8  9  2  0
  9 10  1  0
 10 11  2  0
 11 12  1  0
 12 13  1  0
 12 14  2  0
 11 15  1  0
 15 16  1  0
 16 17  2  0
 16 18  1  0
 15 19  1  0
 19 20  2  0
  5 21  1  0
 21 22  1  0
 22 23  1  0
 23  2  1  0
 20  6  1  0
 19  9  1  0
  1 24  1  0
  1 25  1  0
  1 26  1  0
  5 27  1  1
  7 28  1  0
  8 29  1  0
 10 30  1  0
 13 31  1  0
 13 32  1  0
 20 33  1  0
 21 34  1  0
 21 35  1  0
 22 36  1  0
 23 37  1  0
 23 38  1  0
M  CHG  2   4  -1  18  -1
M  END
>  <UniqueID>  (11) 
11

>  <SMILES>  (11) 
CC1=C([O-])[C@H](c2ccc3cc(C(N)=O)n(C(=O)[O-])c3c2)CNC1

>  <Energy>  (11) 
80.3088620228347

>  <Genealogy>  (11) 
CC1=C([O-])[C@H](c2ccc3cc(C(N)=O)n(C(=O)[O-])c3c2)CNC1 (protonated)
CC1=C([O-])[C@H](c2ccc3cc(C(N)=O)n(C(=O)[O-])c3c2)CNC1 (3D coordinates assigned)
CC1=C([O-])[C@H](c2ccc3cc(C(N)=O)n(C(=O)[O-])c3c2)CNC1 (nonaromatic ring conformer: 80.3088620228347 kcal/mol)

>  <smiles>  (11) 
CC1=C(O)[C@H](c2ccc3cc(C(N)=O)n(C(=O)O)c3c2)CNC1

>  <score_type>  (11) 
oracle

>  <origin>  (11) 
adg

>  <m_score__min__energy>  (11) 
-8.2400000000000002

>  <m_primary>  (11) 
energy

$$$$
11:0
     RDKit          3D

 45 46  0  0  0  0  0  0  0  0999 V2000
  147.8890  153.8000  134.5480 C   0  0  0  0  0  0  0  0  0  0  0  0
  147.6140  154.8840  133.5920 N   0  0  0  0  0  0  0  0  0  0  0  0
  148.7470  155.0100  132.6580 C   0  0  0  0  0  0  0  0  0  0  0  0
  147.3760  156.1540  134.3150 C   0  0  0  0  0  0  0  0  0  0  0  0
  147.9280  157.3400  133.5220 C   0  0  0  0  0  0  0  0  0  0  0  0
  147.4410  158.5830  134.1060 N   0  0  0  0  0  0  0  0  0  0  0  0
  146.7020  159.5550  133.3650 C   0  0  0  0  0  0  0  0  0  0  0  0
  147.2880  160.2810  132.5170 O   0  0  0  0  0  0  0  0  0  0  0  0
  145.2880  159.7010  133.5800 N   0  0  0  0  0  0  0  0  0  0  0  0
  144.6220  160.8250  133.9690 C   0  0  0  0  0  0  0  0  0  0  0  0
  145.2070  162.1740  134.1090 C   0  0  0  0  0  0  0  0  0  0  0  0
  146.6060  162.3540  134.3320 N   0  0  0  0  0  0  0  0  0  0  0  0
  144.4680  163.1840  133.9750 O   0  0  0  0  0  0  0  0  0  0  0  0
  143.2730  160.5490  134.1780 C   0  0  0  0  0  0  0  0  0  0  0  0
  143.1270  159.2110  133.8910 C   0  0  0  0  0  0  0  0  0  0  0  0
  141.9930  158.4060  133.9360 C   0  0  0  0  0  0  0  0  0  0  0  0
  142.1380  157.0460  133.6180 C   0  0  0  0  0  0  0  0  0  0  0  0
  143.4070  156.5140  133.2820 C   0  0  0  0  0  0  0  0  0  0  0  0
  143.5460  155.0560  132.9290 C   0  0  0  0  0  0  0  0  0  0  0  0
  144.6190  154.8310  131.8590 C   0  0  0  0  0  0  0  0  0  0  0  0
  145.5740  153.8110  132.2860 N   0  0  0  0  0  0  0  0  0  0  0  0
  144.5360  157.3630  133.2420 C   0  0  0  0  0  0  0  0  0  0  0  0
  144.3590  158.7200  133.5370 C   0  0  0  0  0  0  0  0  0  0  0  0
  147.7918  154.1830  135.5746 H   0  0  0  0  0  0  0  0  0  0  0  0
  147.1698  152.9824  134.3921 H   0  0  0  0  0  0  0  0  0  0  0  0
  148.9110  153.4241  134.3921 H   0  0  0  0  0  0  0  0  0  0  0  0
  149.6821  155.1140  133.2279 H   0  0  0  0  0  0  0  0  0  0  0  0
  148.8015  154.1124  132.0245 H   0  0  0  0  0  0  0  0  0  0  0  0
  148.6030  155.8977  132.0245 H   0  0  0  0  0  0  0  0  0  0  0  0
  146.2941  156.2893  134.4605 H   0  0  0  0  0  0  0  0  0  0  0  0
  147.8894  156.1090  135.2868 H   0  0  0  0  0  0  0  0  0  0  0  0
  149.0273  157.3245  133.5566 H   0  0  0  0  0  0  0  0  0  0  0  0
  147.5933  157.2700  132.4765 H   0  0  0  0  0  0  0  0  0  0  0  0
  147.2710  161.5520  134.2720 H   0  0  0  0  0  0  0  0  0  0  0  0
  146.9940  163.3130  134.4730 H   0  0  0  0  0  0  0  0  0  0  0  0
  142.4909  161.2509  134.5032 H   0  0  0  0  0  0  0  0  0  0  0  0
  141.0130  158.8222  134.2122 H   0  0  0  0  0  0  0  0  0  0  0  0
  141.2572  156.3871  133.6299 H   0  0  0  0  0  0  0  0  0  0  0  0
  143.8221  154.4950  133.8340 H   0  0  0  0  0  0  0  0  0  0  0  0
  142.5831  154.7076  132.5271 H   0  0  0  0  0  0  0  0  0  0  0  0
  144.1352  154.5039  130.9268 H   0  0  0  0  0  0  0  0  0  0  0  0
  145.1604  155.7752  131.6996 H   0  0  0  0  0  0  0  0  0  0  0  0
  146.5030  154.0520  131.8700 H   0  0  0  0  0  0  0  0  0  0  0  0
  145.6930  153.8840  133.3220 H   0  0  0  0  0  0  0  0  0  0  0  0
  145.5297  156.9672  132.9853 H   0  0  0  0  0  0  0  0  0  0  0  0
  1  2  1  0
  2  3  1  0
  2  4  1  0
  4  5  1  0
  5  6  1  0
  6  7  1  0
  7  8  2  0
  7  9  1  0
  9 10  1  0
 10 11  1  0
 11 12  1  0
 11 13  2  0
 10 14  2  0
 14 15  1  0
 15 16  2  0
 16 17  1  0
 17 18  2  0
 18 19  1  0
 19 20  1  0
 20 21  1  0
 18 22  1  0
 22 23  2  0
 23  9  1  0
 23 15  1  0
  1 24  1  0
  1 25  1  0
  1 26  1  0
  3 27  1  0
  3 28  1  0
  3 29  1  0
  4 30  1  0
  4 31  1  0
  5 32  1  0
  5 33  1  0
 12 34  1  0
 12 35  1  0
 14 36  1  0
 16 37  1  0
 17 38  1  0
 19 39  1  0
 19 40  1  0
 20 41  1  0
 20 42  1  0
 21 43  1  0
 21 44  1  0
 22 45  1  0
M  CHG  1   6  -1
M  END
>  <UniqueID>  (12) 
12

>  <SMILES>  (12) 
CN(C)CC[N-]C(=O)n1c(C(N)=O)cc2ccc(CCN)cc21

>  <Energy>  (12) 
76.62733703493345

>  <Genealogy>  (12) 
CN(C)CC[N-]C(=O)n1c(C(N)=O)cc2ccc(CCN)cc21 (protonated)
CN(C)CC[N-]C(=O)n1c(C(N)=O)cc2ccc(CCN)cc21 (3D coordinates assigned)
CN(C)CC[N-]C(=O)n1c(C(N)=O)cc2ccc(CCN)cc21 (optimized conformer: 76.62733703493345 kcal/mol)

>  <smiles>  (12) 
CN(C)CCNC(=O)n1c(C(N)=O)cc2ccc(CCN)cc21

>  <score_type>  (12) 
oracle

>  <origin>  (12) 
adg

>  <m_score__min__energy>  (12) 
-7.1900000000000004

>  <m_primary>  (12) 
energy

$$$$
12:0
     RDKit          3D

 35 36  0  0  0  0  0  0  0  0999 V2000
  149.2150  160.8290  130.0680 C   0  0  0  0  0  0  0  0  0  0  0  0
  149.2800  160.7330  131.4860 O   0  0  0  0  0  0  0  0  0  0  0  0
  149.3860  159.5080  132.1530 C   0  0  0  0  0  0  0  0  0  0  0  0
  149.9840  158.5350  131.6190 O   0  0  0  0  0  0  0  0  0  0  0  0
  148.7410  159.3430  133.4910 C   0  0  0  0  0  0  0  0  0  0  0  0
  147.6770  158.2850  133.4190 C   0  0  0  0  0  0  0  0  0  0  0  0
  146.3080  158.6500  133.4680 C   0  0  0  0  0  0  0  0  0  0  0  0
  145.3030  157.6760  133.3530 C   0  0  0  0  0  0  0  0  0  0  0  0
  145.6950  156.3500  133.1920 C   0  0  0  0  0  0  0  0  0  0  0  0
  144.9310  155.2190  133.0180 C   0  0  0  0  0  0  0  0  0  0  0  0
  145.8440  154.1760  132.8840 C   0  0  0  0  0  0  0  0  0  0  0  0
  145.4460  152.7620  132.7360 C   0  0  0  0  0  0  0  0  0  0  0  0
  146.1580  151.8790  131.8680 N   0  0  0  0  0  0  0  0  0  0  0  0
  144.4970  152.3110  133.4310 O   0  0  0  0  0  0  0  0  0  0  0  0
  147.1230  154.6420  132.9580 N   0  0  0  0  0  0  0  0  0  0  0  0
  148.3330  153.8970  132.7420 C   0  0  0  0  0  0  0  0  0  0  0  0
  149.3460  154.4650  132.2500 O   0  0  0  0  0  0  0  0  0  0  0  0
  148.3810  152.5390  133.0760 O   0  0  0  0  0  0  0  0  0  0  0  0
  149.4770  151.7020  132.7280 C   0  0  0  0  0  0  0  0  0  0  0  0
  147.0140  155.9770  133.1500 C   0  0  0  0  0  0  0  0  0  0  0  0
  148.0370  156.9300  133.2410 C   0  0  0  0  0  0  0  0  0  0  0  0
  148.6187  161.7096  129.7871 H   0  0  0  0  0  0  0  0  0  0  0  0
  150.2317  160.9294  129.6603 H   0  0  0  0  0  0  0  0  0  0  0  0
  148.7443  159.9222  129.6603 H   0  0  0  0  0  0  0  0  0  0  0  0
  149.5014  159.0459  134.2283 H   0  0  0  0  0  0  0  0  0  0  0  0
  148.2833  160.2968  133.7924 H   0  0  0  0  0  0  0  0  0  0  0  0
  146.0303  159.7065  133.5974 H   0  0  0  0  0  0  0  0  0  0  0  0
  144.2389  157.9523  133.3890 H   0  0  0  0  0  0  0  0  0  0  0  0
  143.8333  155.1528  132.9906 H   0  0  0  0  0  0  0  0  0  0  0  0
  145.8390  150.8940  131.7460 H   0  0  0  0  0  0  0  0  0  0  0  0
  147.0470  152.1770  131.4080 H   0  0  0  0  0  0  0  0  0  0  0  0
  149.9612  151.3322  133.6438 H   0  0  0  0  0  0  0  0  0  0  0  0
  149.1136  150.8494  132.1355 H   0  0  0  0  0  0  0  0  0  0  0  0
  150.2038  152.2770  132.1355 H   0  0  0  0  0  0  0  0  0  0  0  0
  149.0936  156.6311  133.1756 H   0  0  0  0  0  0  0  0  0  0  0  0
  1  2  1  0
  2  3  1  0
  3  4  2  0
  3  5  1  0
  5  6  1  0
  6  7  2  0
  7  8  1  0
  8  9  2  0
  9 10  1  0
 10 11  2  0
 11 12  1  0
 12 13  1  0
 12 14  2  0
 11 15  1  0
 15 16  1  0
 16 17  2  0
 16 18  1  0
 18 19  1  0
 15 20  1  0
 20 21  2  0
 21  6  1  0
 20  9  1  0
  1 22  1  0
  1 23  1  0
  1 24  1  0
  5 25  1  0
  5 26  1  0
  7 27  1  0
  8 28  1  0
 10 29  1  0
 13 30  1  0
 13 31  1  0
 19 32  1  0
 19 33  1  0
 19 34  1  0
 21 35  1  0
M  END
>  <UniqueID>  (13) 
13

>  <SMILES>  (13) 
COC(=O)Cc1ccc2cc(C(N)=O)n(C(=O)OC)c2c1

>  <Energy>  (13) 
68.13672640655525

>  <Genealogy>  (13) 
COC(=O)Cc1ccc2cc(C(N)=O)n(C(=O)OC)c2c1 (3D coordinates assigned)
COC(=O)Cc1ccc2cc(C(N)=O)n(C(=O)OC)c2c1 (optimized conformer: 68.13672640655525 kcal/mol)

>  <smiles>  (13) 
COC(=O)Cc1ccc2cc(C(N)=O)n(C(=O)OC)c2c1

>  <score_type>  (13) 
oracle

>  <origin>  (13) 
adg

>  <m_score__min__energy>  (13) 
-6.0499999999999998

>  <m_primary>  (13) 
energy

$$$$
13:0
     RDKit          3D

 35 36  0  0  0  0  0  0  0  0999 V2000
  143.2260  153.9780  139.3260 N   0  0  0  0  0  0  0  0  0  0  0  0
  141.9790  154.6670  139.2300 C   0  0  0  0  0  0  0  0  0  0  0  0
  141.0200  154.3130  139.9660 O   0  0  0  0  0  0  0  0  0  0  0  0
  141.7730  155.7380  138.2350 C   0  0  0  0  0  0  0  0  0  0  0  0
  141.3610  157.0230  138.5710 C   0  0  0  0  0  0  0  0  0  0  0  0
  141.2140  157.6820  137.3730 C   0  0  0  0  0  0  0  0  0  0  0  0
  140.8300  158.9950  137.1160 C   0  0  0  0  0  0  0  0  0  0  0  0
  140.7940  159.4230  135.7800 C   0  0  0  0  0  0  0  0  0  0  0  0
  141.1460  158.5390  134.7280 C   0  0  0  0  0  0  0  0  0  0  0  0
  141.1040  159.0030  133.2960 C   0  0  0  0  0  0  0  0  0  0  0  0
  139.6820  159.0920  132.8070 C   0  0  0  0  0  0  0  0  0  0  0  0
  138.8940  158.1420  133.0580 O   0  0  0  0  0  0  0  0  0  0  0  0
  139.1700  160.2460  132.1290 N   0  0  0  0  0  0  0  0  0  0  0  0
  138.7130  160.2950  130.7440 C   0  0  0  0  0  0  0  0  0  0  0  0
  137.2020  160.0710  130.6600 C   0  0  0  0  0  0  0  0  0  0  0  0
  136.8210  158.9830  131.4580 O   0  0  0  0  0  0  0  0  0  0  0  0
  141.5380  157.2140  135.0280 C   0  0  0  0  0  0  0  0  0  0  0  0
  141.5450  156.8070  136.3670 C   0  0  0  0  0  0  0  0  0  0  0  0
  141.8940  155.6060  136.8840 N   0  0  0  0  0  0  0  0  0  0  0  0
  142.4020  154.4700  136.1610 C   0  0  0  0  0  0  0  0  0  0  0  0
  141.7490  153.9750  135.2060 O   0  0  0  0  0  0  0  0  0  0  0  0
  143.6260  153.9090  136.5090 O   0  0  0  0  0  0  0  0  0  0  0  0
  143.3660  153.2450  140.0560 H   0  0  0  0  0  0  0  0  0  0  0  0
  143.9850  154.1380  138.6270 H   0  0  0  0  0  0  0  0  0  0  0  0
  141.1893  157.4263  139.5799 H   0  0  0  0  0  0  0  0  0  0  0  0
  140.5625  159.6773  137.9363 H   0  0  0  0  0  0  0  0  0  0  0  0
  140.4899  160.4540  135.5463 H   0  0  0  0  0  0  0  0  0  0  0  0
  141.5735  159.9952  133.2239 H   0  0  0  0  0  0  0  0  0  0  0  0
  141.6477  158.2776  132.6729 H   0  0  0  0  0  0  0  0  0  0  0  0
  138.9552  161.2804  130.3194 H   0  0  0  0  0  0  0  0  0  0  0  0
  139.2186  159.4984  130.1785 H   0  0  0  0  0  0  0  0  0  0  0  0
  136.6822  160.9754  131.0091 H   0  0  0  0  0  0  0  0  0  0  0  0
  136.9319  159.8573  129.6153 H   0  0  0  0  0  0  0  0  0  0  0  0
  137.6120  158.7380  132.0050 H   0  0  0  0  0  0  0  0  0  0  0  0
  141.8308  156.5190  134.2272 H   0  0  0  0  0  0  0  0  0  0  0  0
  1  2  1  0
  2  3  2  0
  2  4  1  0
  4  5  2  0
  5  6  1  0
  6  7  2  0
  7  8  1  0
  8  9  2  0
  9 10  1  0
 10 11  1  0
 11 12  2  0
 11 13  1  0
 13 14  1  0
 14 15  1  0
 15 16  1  0
  9 17  1  0
 17 18  2  0
 18 19  1  0
 19 20  1  0
 20 21  2  0
 20 22  1  0
 19  4  1  0
 18  6  1  0
  1 23  1  0
  1 24  1  0
  5 25  1  0
  7 26  1  0
  8 27  1  0
 10 28  1  0
 10 29  1  0
 14 30  1  0
 14 31  1  0
 15 32  1  0
 15 33  1  0
 16 34  1  0
 17 35  1  0
M  CHG  2  13  -1  22  -1
M  END
>  <UniqueID>  (14) 
14

>  <SMILES>  (14) 
NC(=O)c1cc2ccc(CC(=O)[N-]CCO)cc2n1C(=O)[O-]

>  <Energy>  (14) 
70.94024029658658

>  <Genealogy>  (14) 
NC(=O)c1cc2ccc(CC(=O)[N-]CCO)cc2n1C(=O)[O-] (protonated)
NC(=O)c1cc2ccc(CC(=O)[N-]CCO)cc2n1C(=O)[O-] (3D coordinates assigned)
NC(=O)c1cc2ccc(CC(=O)[N-]CCO)cc2n1C(=O)[O-] (optimized conformer: 70.94024029658658 kcal/mol)

>  <smiles>  (14) 
NC(=O)c1cc2ccc(CC(=O)NCCO)cc2n1C(=O)O

>  <score_type>  (14) 
oracle

>  <origin>  (14) 
adg

>  <m_score__min__energy>  (14) 
-6.0700000000000003

>  <m_primary>  (14) 
energy

$$$$
14:0
     RDKit          3D

 42 44  0  0  0  0  0  0  0  0999 V2000
  141.7100  156.7440  137.9790 C   0  0  0  0  0  0  0  0  0  0  0  0
  141.4890  155.6840  136.9060 C   0  0  0  0  0  0  0  0  0  0  0  0
  142.7330  155.2750  136.3390 O   0  0  0  0  0  0  0  0  0  0  0  0
  143.1240  155.5900  135.0330 C   0  0  0  0  0  0  0  0  0  0  0  0
  144.2290  155.1840  134.5780 O   0  0  0  0  0  0  0  0  0  0  0  0
  142.2380  156.4040  134.1900 C   0  0  0  0  0  0  0  0  0  0  0  0
  141.4560  155.8370  133.3810 O   0  0  0  0  0  0  0  0  0  0  0  0
  142.2500  157.8380  134.2790 N   0  0  0  0  0  0  0  0  0  0  0  0
  141.2100  158.6620  134.5850 C   0  0  0  0  0  0  0  0  0  0  0  0
  139.8610  158.2330  135.0120 C   0  0  0  0  0  0  0  0  0  0  0  0
  139.4900  158.2340  136.3880 N   0  0  0  0  0  0  0  0  0  0  0  0
  139.0130  157.8880  134.1460 O   0  0  0  0  0  0  0  0  0  0  0  0
  141.6040  159.9960  134.4910 C   0  0  0  0  0  0  0  0  0  0  0  0
  142.9260  159.9610  134.1120 C   0  0  0  0  0  0  0  0  0  0  0  0
  143.8140  161.0010  133.8540 C   0  0  0  0  0  0  0  0  0  0  0  0
  145.1170  160.6700  133.4480 C   0  0  0  0  0  0  0  0  0  0  0  0
  145.5100  159.3140  133.2960 C   0  0  0  0  0  0  0  0  0  0  0  0
  146.8880  158.9740  132.8580 C   0  0  0  0  0  0  0  0  0  0  0  0
  147.5410  157.8410  133.3760 C   0  0  0  0  0  0  0  0  0  0  0  0
  148.8360  157.5210  132.9650 C   0  0  0  0  0  0  0  0  0  0  0  0
  149.4950  158.3250  132.0320 C   0  0  0  0  0  0  0  0  0  0  0  0
  148.8660  159.4560  131.5030 C   0  0  0  0  0  0  0  0  0  0  0  0
  149.5730  160.2550  130.5450 N   0  0  0  0  0  0  0  0  0  0  0  0
  149.4030  161.4720  130.4470 N   0  0  0  0  0  0  0  0  0  0  0  0
  149.2330  162.6860  130.3480 N   0  0  0  0  0  0  0  0  0  0  0  0
  147.5590  159.7780  131.9190 C   0  0  0  0  0  0  0  0  0  0  0  0
  144.5740  158.2870  133.5650 C   0  0  0  0  0  0  0  0  0  0  0  0
  143.2910  158.6470  133.9890 C   0  0  0  0  0  0  0  0  0  0  0  0
  141.6142  156.2843  138.9738 H   0  0  0  0  0  0  0  0  0  0  0  0
  142.7169  157.1730  137.8688 H   0  0  0  0  0  0  0  0  0  0  0  0
  140.9584  157.5396  137.8688 H   0  0  0  0  0  0  0  0  0  0  0  0
  140.9931  154.8116  137.3566 H   0  0  0  0  0  0  0  0  0  0  0  0
  140.8605  156.1109  136.1106 H   0  0  0  0  0  0  0  0  0  0  0  0
  139.4800  159.1200  136.9410 H   0  0  0  0  0  0  0  0  0  0  0  0
  140.9882  160.8877  134.6799 H   0  0  0  0  0  0  0  0  0  0  0  0
  143.5046  162.0508  133.9648 H   0  0  0  0  0  0  0  0  0  0  0  0
  145.8425  161.4715  133.2451 H   0  0  0  0  0  0  0  0  0  0  0  0
  147.0276  157.2027  134.1101 H   0  0  0  0  0  0  0  0  0  0  0  0
  149.3388  156.6335  133.3768 H   0  0  0  0  0  0  0  0  0  0  0  0
  150.5151  158.0667  131.7115 H   0  0  0  0  0  0  0  0  0  0  0  0
  147.0588  160.6662  131.5057 H   0  0  0  0  0  0  0  0  0  0  0  0
  144.8497  157.2291  133.4432 H   0  0  0  0  0  0  0  0  0  0  0  0
  1  2  1  0
  2  3  1  0
  3  4  1  0
  4  5  2  0
  4  6  1  0
  6  7  2  0
  6  8  1  0
  8  9  1  0
  9 10  1  0
 10 11  1  0
 10 12  2  0
  9 13  2  0
 13 14  1  0
 14 15  2  0
 15 16  1  0
 16 17  2  0
 17 18  1  0
 18 19  2  0
 19 20  1  0
 20 21  2  0
 21 22  1  0
 22 23  1  0
 23 24  2  0
 24 25  2  0
 22 26  2  0
 17 27  1  0
 27 28  2  0
 28  8  1  0
 28 14  1  0
 26 18  1  0
  1 29  1  0
  1 30  1  0
  1 31  1  0
  2 32  1  0
  2 33  1  0
 11 34  1  0
 13 35  1  0
 15 36  1  0
 16 37  1  0
 19 38  1  0
 20 39  1  0
 21 40  1  0
 26 41  1  0
 27 42  1  0
M  CHG  3  11  -1  24   1  25  -1
M  END
>  <UniqueID>  (15) 
15

>  <SMILES>  (15) 
CCOC(=O)C(=O)n1c(C([NH-])=O)cc2ccc(-c3cccc(N=[N+]=[N-])c3)cc21

>  <Energy>  (15) 
85.03720526035787

>  <Genealogy>  (15) 
CCOC(=O)C(=O)n1c(C([NH-])=O)cc2ccc(-c3cccc(N=[N+]=[N-])c3)cc21 (protonated)
CCOC(=O)C(=O)n1c(C([NH-])=O)cc2ccc(-c3cccc(N=[N+]=[N-])c3)cc21 (3D coordinates assigned)
CCOC(=O)C(=O)n1c(C([NH-])=O)cc2ccc(-c3cccc(N=[N+]=[N-])c3)cc21 (optimized conformer: 85.03720526035787 kcal/mol)

>  <smiles>  (15) 
CCOC(=O)C(=O)n1c(C(N)=O)cc2ccc(-c3cccc(N=[N+]=[N-])c3)cc21

>  <score_type>  (15) 
oracle

>  <origin>  (15) 
adg

>  <m_score__min__energy>  (15) 
-9.0800000000000001

>  <m_primary>  (15) 
energy

$$$$
15:0
     RDKit          3D

 36 38  0  0  0  0  0  0  0  0999 V2000
  149.3950  158.8810  131.7920 C   0  0  0  0  0  0  0  0  0  0  0  0
  148.3660  157.8410  131.9560 N   0  0  1  0  0  0  0  0  0  0  0  0
  148.8280  156.7450  132.8300 C   0  0  0  0  0  0  0  0  0  0  0  0
  147.6830  156.3800  133.7840 C   0  0  0  0  0  0  0  0  0  0  0  0
  146.7600  157.5950  133.8070 C   0  0  2  0  0  0  0  0  0  0  0  0
  145.2940  157.2120  133.7430 C   0  0  0  0  0  0  0  0  0  0  0  0
  144.9280  155.9250  133.2730 C   0  0  0  0  0  0  0  0  0  0  0  0
  143.5770  155.5540  133.1750 C   0  0  0  0  0  0  0  0  0  0  0  0
  142.6150  156.4870  133.5510 C   0  0  0  0  0  0  0  0  0  0  0  0
  141.2410  156.4000  133.5270 C   0  0  0  0  0  0  0  0  0  0  0  0
  140.7850  157.6290  133.9960 C   0  0  0  0  0  0  0  0  0  0  0  0
  139.3560  157.9340  134.2160 C   0  0  0  0  0  0  0  0  0  0  0  0
  138.8630  158.2390  135.5180 N   0  0  0  0  0  0  0  0  0  0  0  0
  138.5500  157.8740  133.2500 O   0  0  0  0  0  0  0  0  0  0  0  0
  141.8340  158.4490  134.2900 N   0  0  0  0  0  0  0  0  0  0  0  0
  141.7850  159.8240  134.7070 C   0  0  0  0  0  0  0  0  0  0  0  0
  141.0360  160.1750  135.6550 O   0  0  0  0  0  0  0  0  0  0  0  0
  142.5860  160.7740  134.0850 O   0  0  0  0  0  0  0  0  0  0  0  0
  142.9470  157.7330  134.0150 C   0  0  0  0  0  0  0  0  0  0  0  0
  144.2840  158.1360  134.1060 C   0  0  0  0  0  0  0  0  0  0  0  0
  147.2050  158.3610  132.6150 C   0  0  0  0  0  0  0  0  0  0  0  0
  146.6110  159.3500  132.2080 O   0  0  0  0  0  0  0  0  0  0  0  0
  149.7325  159.2221  132.7818 H   0  0  0  0  0  0  0  0  0  0  0  0
  150.2491  158.4673  131.2358 H   0  0  0  0  0  0  0  0  0  0  0  0
  148.9722  159.7307  131.2358 H   0  0  0  0  0  0  0  0  0  0  0  0
  148.0880  157.4670  131.0190 H   0  0  0  0  0  0  0  0  0  0  0  0
  149.0980  155.8704  132.2199 H   0  0  0  0  0  0  0  0  0  0  0  0
  149.7134  157.0610  133.4012 H   0  0  0  0  0  0  0  0  0  0  0  0
  147.1433  155.4956  133.4145 H   0  0  0  0  0  0  0  0  0  0  0  0
  148.0555  156.1346  134.7895 H   0  0  0  0  0  0  0  0  0  0  0  0
  146.8275  158.1734  134.7402 H   0  0  0  0  0  0  0  0  0  0  0  0
  145.7110  155.2093  132.9819 H   0  0  0  0  0  0  0  0  0  0  0  0
  143.2880  154.5566  132.8122 H   0  0  0  0  0  0  0  0  0  0  0  0
  140.6328  155.5417  133.2055 H   0  0  0  0  0  0  0  0  0  0  0  0
  139.1430  159.1190  136.0060 H   0  0  0  0  0  0  0  0  0  0  0  0
  144.5445  159.1473  134.4516 H   0  0  0  0  0  0  0  0  0  0  0  0
  1  2  1  0
  2  3  1  0
  3  4  1  0
  4  5  1  0
  5  6  1  0
  6  7  2  0
  7  8  1  0
  8  9  2  0
  9 10  1  0
 10 11  2  0
 11 12  1  0
 12 13  1  0
 12 14  2  0
 11 15  1  0
 15 16  1  0
 16 17  2  0
 16 18  1  0
 15 19  1  0
 19 20  2  0
  5 21  1  0
 21 22  2  0
 21  2  1  0
 20  6  1  0
 19  9  1  0
  1 23  1  0
  1 24  1  0
  1 25  1  0
  2 26  1  6
  3 27  1  0
  3 28  1  0
  4 29  1  0
  4 30  1  0
  5 31  1  1
  7 32  1  0
  8 33  1  0
 10 34  1  0
 13 35  1  0
 20 36  1  0
M  CHG  3   2   1  13  -1  18  -1
M  END
>  <UniqueID>  (16) 
16

>  <SMILES>  (16) 
C[N@H+]1CC[C@H](c2ccc3cc(C([NH-])=O)n(C(=O)[O-])c3c2)C1=O

>  <Energy>  (16) 
81.64888932909211

>  <Genealogy>  (16) 
C[NH+]1CCC(c2ccc3cc(C([NH-])=O)n(C(=O)[O-])c3c2)C1=O (protonated)
C[N@H+]1CC[C@H](c2ccc3cc(C([NH-])=O)n(C(=O)[O-])c3c2)C1=O (chirality)
C[N@H+]1CC[C@H](c2ccc3cc(C([NH-])=O)n(C(=O)[O-])c3c2)C1=O (3D coordinates assigned)
C[N@H+]1CC[C@H](c2ccc3cc(C([NH-])=O)n(C(=O)[O-])c3c2)C1=O (nonaromatic ring conformer: 81.64888932909211 kcal/mol)

>  <smiles>  (16) 
CN1CCC(c2ccc3cc(C(N)=O)n(C(=O)O)c3c2)C1=O

>  <score_type>  (16) 
oracle

>  <origin>  (16) 
adg

>  <m_score__min__energy>  (16) 
-6.7599999999999998

>  <m_primary>  (16) 
energy

$$$$
16:0
     RDKit          3D

 45 48  0  0  0  0  0  0  0  0999 V2000
  147.4900  155.5930  132.5980 C   0  0  0  0  0  0  0  0  0  0  0  0
  146.8880  154.9390  133.7980 C   0  0  0  0  0  0  0  0  0  0  0  0
  147.5730  154.4420  134.8000 O   0  0  0  0  0  0  0  0  0  0  0  0
  146.6850  153.9470  135.6310 C   0  0  0  0  0  0  0  0  0  0  0  0
  146.9820  153.3860  136.7180 O   0  0  0  0  0  0  0  0  0  0  0  0
  145.4510  154.1000  135.2060 O   0  0  0  0  0  0  0  0  0  0  0  0
  145.5460  154.7150  134.0500 C   0  0  0  0  0  0  0  0  0  0  0  0
  144.3840  155.1290  133.2090 C   0  0  0  0  0  0  0  0  0  0  0  0
  143.3210  155.5400  134.0610 O   0  0  0  0  0  0  0  0  0  0  0  0
  142.1840  156.2050  133.5950 C   0  0  0  0  0  0  0  0  0  0  0  0
  141.2770  155.5650  132.9960 O   0  0  0  0  0  0  0  0  0  0  0  0
  142.0580  157.6260  133.7840 N   0  0  0  0  0  0  0  0  0  0  0  0
  140.9120  158.3400  133.9670 C   0  0  0  0  0  0  0  0  0  0  0  0
  139.5640  157.7750  134.1780 C   0  0  0  0  0  0  0  0  0  0  0  0
  138.9520  156.9380  133.1960 N   0  0  0  0  0  0  0  0  0  0  0  0
  138.9680  157.9870  135.2670 O   0  0  0  0  0  0  0  0  0  0  0  0
  141.1800  159.7050  133.9860 C   0  0  0  0  0  0  0  0  0  0  0  0
  142.5430  159.8090  133.8260 C   0  0  0  0  0  0  0  0  0  0  0  0
  143.3480  160.9410  133.7600 C   0  0  0  0  0  0  0  0  0  0  0  0
  144.7260  160.7580  133.5550 C   0  0  0  0  0  0  0  0  0  0  0  0
  145.2750  159.4570  133.4120 C   0  0  0  0  0  0  0  0  0  0  0  0
  146.7300  159.2730  133.1900 C   0  0  0  0  0  0  0  0  0  0  0  0
  147.6280  158.5690  133.9810 C   0  0  0  0  0  0  0  0  0  0  0  0
  148.8550  158.6310  133.4300 N   0  0  0  0  0  0  0  0  0  0  0  0
  148.7630  159.3590  132.3290 N   0  0  0  0  0  0  0  0  0  0  0  0
  149.8740  159.5950  131.4170 C   0  0  0  0  0  0  0  0  0  0  0  0
  147.4920  159.7570  132.1410 C   0  0  0  0  0  0  0  0  0  0  0  0
  144.4170  158.3330  133.4790 C   0  0  0  0  0  0  0  0  0  0  0  0
  143.0510  158.5430  133.7050 C   0  0  0  0  0  0  0  0  0  0  0  0
  148.2022  156.3667  132.9207 H   0  0  0  0  0  0  0  0  0  0  0  0
  148.0164  154.8387  131.9947 H   0  0  0  0  0  0  0  0  0  0  0  0
  146.6948  156.0553  131.9947 H   0  0  0  0  0  0  0  0  0  0  0  0
  144.6790  155.9647  132.5574 H   0  0  0  0  0  0  0  0  0  0  0  0
  144.0561  154.2845  132.5851 H   0  0  0  0  0  0  0  0  0  0  0  0
  137.9840  156.5780  133.3450 H   0  0  0  0  0  0  0  0  0  0  0  0
  139.4840  156.6100  132.3600 H   0  0  0  0  0  0  0  0  0  0  0  0
  140.4571  160.5257  134.1037 H   0  0  0  0  0  0  0  0  0  0  0  0
  142.9193  161.9485  133.8650 H   0  0  0  0  0  0  0  0  0  0  0  0
  145.3882  161.6349  133.5046 H   0  0  0  0  0  0  0  0  0  0  0  0
  147.3761  158.0423  134.9133 H   0  0  0  0  0  0  0  0  0  0  0  0
  150.7888  159.7893  131.9961 H   0  0  0  0  0  0  0  0  0  0  0  0
  150.0227  158.7084  130.7831 H   0  0  0  0  0  0  0  0  0  0  0  0
  149.6495  160.4655  130.7831 H   0  0  0  0  0  0  0  0  0  0  0  0
  147.1225  160.3619  131.2999 H   0  0  0  0  0  0  0  0  0  0  0  0
  144.8153  157.3150  133.3560 H   0  0  0  0  0  0  0  0  0  0  0  0
  1  2  1  0
  2  3  1  0
  3  4  1  0
  4  5  2  0
  4  6  1  0
  6  7  1  0
  7  8  1  0
  8  9  1  0
  9 10  1  0
 10 11  2  0
 10 12  1  0
 12 13  1  0
 13 14  1  0
 14 15  1  0
 14 16  2  0
 13 17  2  0
 17 18  1  0
 18 19  2  0
 19 20  1  0
 20 21  2  0
 21 22  1  0
 22 23  1  0
 23 24  2  0
 24 25  1  0
 25 26  1  0
 25 27  1  0
 21 28  1  0
 28 29  2  0
  7  2  2  0
 29 12  1  0
 29 18  1  0
 27 22  2  0
  1 30  1  0
  1 31  1  0
  1 32  1  0
  8 33  1  0
  8 34  1  0
 15 35  1  0
 15 36  1  0
 17 37  1  0
 19 38  1  0
 20 39  1  0
 23 40  1  0
 26 41  1  0
 26 42  1  0
 26 43  1  0
 27 44  1  0
 28 45  1  0
M  END
>  <UniqueID>  (17) 
17

>  <SMILES>  (17) 
Cc1oc(=O)oc1COC(=O)n1c(C(N)=O)cc2ccc(-c3cnn(C)c3)cc21

>  <Energy>  (17) 
146.9658618359846

>  <Genealogy>  (17) 
Cc1oc(=O)oc1COC(=O)n1c(C(N)=O)cc2ccc(-c3cnn(C)c3)cc21 (3D coordinates assigned)
Cc1oc(=O)oc1COC(=O)n1c(C(N)=O)cc2ccc(-c3cnn(C)c3)cc21 (optimized conformer: 146.9658618359846 kcal/mol)

>  <smiles>  (17) 
Cc1oc(=O)oc1COC(=O)n1c(C(N)=O)cc2ccc(-c3cnn(C)c3)cc21

>  <score_type>  (17) 
oracle

>  <origin>  (17) 
adg

>  <m_score__min__energy>  (17) 
-8.3000000000000007

>  <m_primary>  (17) 
energy

$$$$
17:0
     RDKit          3D

 49 51  0  0  0  0  0  0  0  0999 V2000
  143.1650  161.0170  134.0710 N   0  0  0  0  0  0  0  0  0  0  0  0
  144.5770  161.1400  133.9270 C   0  0  0  0  0  0  0  0  0  0  0  0
  145.1210  162.2620  134.1180 O   0  0  0  0  0  0  0  0  0  0  0  0
  145.4150  159.9650  133.6060 C   0  0  0  0  0  0  0  0  0  0  0  0
  146.7820  160.0480  133.3290 C   0  0  0  0  0  0  0  0  0  0  0  0
  147.2040  158.7460  133.1680 C   0  0  0  0  0  0  0  0  0  0  0  0
  148.4670  158.2400  132.8710 C   0  0  0  0  0  0  0  0  0  0  0  0
  148.6020  156.8470  132.7340 C   0  0  0  0  0  0  0  0  0  0  0  0
  147.4780  155.9900  132.8860 C   0  0  0  0  0  0  0  0  0  0  0  0
  147.6310  154.5210  132.7510 C   0  0  0  0  0  0  0  0  0  0  0  0
  146.4970  153.6930  132.7750 C   0  0  0  0  0  0  0  0  0  0  0  0
  146.6200  152.3100  132.6100 C   0  0  0  0  0  0  0  0  0  0  0  0
  145.5080  151.5380  132.6350 F   0  0  0  0  0  0  0  0  0  0  0  0
  147.8840  151.7300  132.4120 C   0  0  0  0  0  0  0  0  0  0  0  0
  148.0200  150.2360  132.2600 C   0  0  0  0  0  0  0  0  0  0  0  0
  148.6450  149.6970  133.3860 O   0  0  0  0  0  0  0  0  0  0  0  0
  149.0220  152.5500  132.4200 C   0  0  0  0  0  0  0  0  0  0  0  0
  150.2580  152.0070  132.2690 F   0  0  0  0  0  0  0  0  0  0  0  0
  148.8980  153.9350  132.5800 C   0  0  0  0  0  0  0  0  0  0  0  0
  150.0230  154.6950  132.6010 F   0  0  0  0  0  0  0  0  0  0  0  0
  146.2140  156.5480  133.1830 C   0  0  0  0  0  0  0  0  0  0  0  0
  146.1130  157.9320  133.3370 C   0  0  0  0  0  0  0  0  0  0  0  0
  145.0100  158.6620  133.6050 N   0  0  0  0  0  0  0  0  0  0  0  0
  143.6860  158.1390  133.7870 C   0  0  0  0  0  0  0  0  0  0  0  0
  143.2190  157.9910  134.9480 O   0  0  0  0  0  0  0  0  0  0  0  0
  142.9100  157.8370  132.6640 O   0  0  0  0  0  0  0  0  0  0  0  0
  141.5280  157.5010  132.7430 C   0  0  0  0  0  0  0  0  0  0  0  0
  140.7540  158.6460  133.3980 C   0  0  0  0  0  0  0  0  0  0  0  0
  140.4670  159.7730  132.4070 C   0  0  0  0  0  0  0  0  0  0  0  0
  139.1040  160.1210  132.4860 O   0  0  0  0  0  0  0  0  0  0  0  0
  138.4030  159.8720  130.9620 S   0  0  0  0  0  0  0  0  0  0  0  0
  138.9670  160.8350  129.9590 O   0  0  0  0  0  0  0  0  0  0  0  0
  136.9110  160.0380  131.0350 O   0  0  0  0  0  0  0  0  0  0  0  0
  138.7440  158.3030  130.4560 O   0  0  0  0  0  0  0  0  0  0  0  0
  142.7290  160.0890  134.2720 H   0  0  0  0  0  0  0  0  0  0  0  0
  147.3925  160.9601  133.2550 H   0  0  0  0  0  0  0  0  0  0  0  0
  149.3316  158.9088  132.7475 H   0  0  0  0  0  0  0  0  0  0  0  0
  149.5881  156.4158  132.5067 H   0  0  0  0  0  0  0  0  0  0  0  0
  145.5018  154.1370  132.9251 H   0  0  0  0  0  0  0  0  0  0  0  0
  147.0213  149.7887  132.1484 H   0  0  0  0  0  0  0  0  0  0  0  0
  148.6280  150.0172  131.3698 H   0  0  0  0  0  0  0  0  0  0  0  0
  148.1240  149.9990  134.1700 H   0  0  0  0  0  0  0  0  0  0  0  0
  145.3279  155.9051  133.2906 H   0  0  0  0  0  0  0  0  0  0  0  0
  141.1358  157.3273  131.7301 H   0  0  0  0  0  0  0  0  0  0  0  0
  141.4094  156.5895  133.3473 H   0  0  0  0  0  0  0  0  0  0  0  0
  139.7994  158.2572  133.7821 H   0  0  0  0  0  0  0  0  0  0  0  0
  141.3696  159.0543  134.2131 H   0  0  0  0  0  0  0  0  0  0  0  0
  141.0855  160.6481  132.6553 H   0  0  0  0  0  0  0  0  0  0  0  0
  140.7053  159.4385  131.3865 H   0  0  0  0  0  0  0  0  0  0  0  0
  1  2  1  0
  2  3  2  0
  2  4  1  0
  4  5  2  0
  5  6  1  0
  6  7  2  0
  7  8  1  0
  8  9  2  0
  9 10  1  0
 10 11  2  0
 11 12  1  0
 12 13  1  0
 12 14  2  0
 14 15  1  0
 15 16  1  0
 14 17  1  0
 17 18  1  0
 17 19  2  0
 19 20  1  0
  9 21  1  0
 21 22  2  0
 22 23  1  0
 23 24  1  0
 24 25  2  0
 24 26  1  0
 26 27  1  0
 27 28  1  0
 28 29  1  0
 29 30  1  0
 30 31  1  0
 31 32  2  0
 31 33  2  0
 31 34  1  0
 23  4  1  0
 22  6  1  0
 19 10  1  0
  1 35  1  0
  5 36  1  0
  7 37  1  0
  8 38  1  0
 11 39  1  0
 15 40  1  0
 15 41  1  0
 16 42  1  0
 21 43  1  0
 27 44  1  0
 27 45  1  0
 28 46  1  0
 28 47  1  0
 29 48  1  0
 29 49  1  0
M  CHG  2   1  -1  34  -1
M  END
>  <UniqueID>  (18) 
18

>  <SMILES>  (18) 
[NH-]C(=O)c1cc2ccc(-c3cc(F)c(CO)c(F)c3F)cc2n1C(=O)OCCCOS(=O)(=O)[O-]

>  <Energy>  (18) 
88.34968194950052

>  <Genealogy>  (18) 
[NH-]C(=O)c1cc2ccc(-c3cc(F)c(CO)c(F)c3F)cc2n1C(=O)OCCCOS(=O)(=O)[O-] (protonated)
[NH-]C(=O)c1cc2ccc(-c3cc(F)c(CO)c(F)c3F)cc2n1C(=O)OCCCOS(=O)(=O)[O-] (3D coordinates assigned)
[NH-]C(=O)c1cc2ccc(-c3cc(F)c(CO)c(F)c3F)cc2n1C(=O)OCCCOS(=O)(=O)[O-] (optimized conformer: 88.34968194950052 kcal/mol)

>  <smiles>  (18) 
NC(=O)c1cc2ccc(-c3cc(F)c(CO)c(F)c3F)cc2n1C(=O)OCCCOS(=O)(=O)O

>  <score_type>  (18) 
oracle

>  <origin>  (18) 
adg

>  <m_score__min__energy>  (18) 
-8.6999999999999993

>  <m_primary>  (18) 
energy

$$$$
18:0
     RDKit          3D

 31 33  0  0  0  0  0  0  0  0999 V2000
  141.2870  160.4830  133.9040 N   0  0  0  0  0  0  0  0  0  0  0  0
  142.2810  159.7720  134.6360 C   0  0  0  0  0  0  0  0  0  0  0  0
  142.0160  159.3630  135.7980 O   0  0  0  0  0  0  0  0  0  0  0  0
  143.6310  159.5560  134.0760 C   0  0  0  0  0  0  0  0  0  0  0  0
  144.1570  158.2940  133.8090 C   0  0  0  0  0  0  0  0  0  0  0  0
  145.4480  158.5160  133.3910 C   0  0  0  0  0  0  0  0  0  0  0  0
  146.4240  157.6130  132.9870 C   0  0  0  0  0  0  0  0  0  0  0  0
  147.6650  158.1240  132.5740 C   0  0  0  0  0  0  0  0  0  0  0  0
  147.9080  159.5250  132.5650 C   0  0  0  0  0  0  0  0  0  0  0  0
  149.2380  160.1000  132.1090 C   0  0  0  0  0  0  0  0  0  0  0  0
  149.9890  159.2340  131.0980 C   0  0  0  0  0  0  0  0  0  0  0  0
  149.8690  160.3450  130.0620 C   0  0  0  0  0  0  0  0  0  0  0  0
  149.1230  161.2140  131.0670 C   0  0  0  0  0  0  0  0  0  0  0  0
  146.8870  160.4090  132.9820 C   0  0  0  0  0  0  0  0  0  0  0  0
  145.6670  159.8690  133.4070 C   0  0  0  0  0  0  0  0  0  0  0  0
  144.5600  160.5240  133.8210 N   0  0  0  0  0  0  0  0  0  0  0  0
  144.3890  161.9490  133.8880 C   0  0  0  0  0  0  0  0  0  0  0  0
  143.3800  162.4930  133.3660 O   0  0  0  0  0  0  0  0  0  0  0  0
  145.3480  162.7420  134.5040 O   0  0  0  0  0  0  0  0  0  0  0  0
  141.5190  161.3720  133.4070 H   0  0  0  0  0  0  0  0  0  0  0  0
  143.6472  157.3246  133.9110 H   0  0  0  0  0  0  0  0  0  0  0  0
  146.2302  156.5302  132.9906 H   0  0  0  0  0  0  0  0  0  0  0  0
  148.4583  157.4325  132.2538 H   0  0  0  0  0  0  0  0  0  0  0  0
  149.6738  160.3057  133.0978 H   0  0  0  0  0  0  0  0  0  0  0  0
  151.0239  158.9996  131.3879 H   0  0  0  0  0  0  0  0  0  0  0  0
  149.6406  158.2164  130.8676 H   0  0  0  0  0  0  0  0  0  0  0  0
  150.8342  160.7621  129.7390 H   0  0  0  0  0  0  0  0  0  0  0  0
  149.4289  160.1371  129.0756 H   0  0  0  0  0  0  0  0  0  0  0  0
  149.6501  162.1404  131.3390 H   0  0  0  0  0  0  0  0  0  0  0  0
  148.1421  161.6429  130.8143 H   0  0  0  0  0  0  0  0  0  0  0  0
  147.0473  161.4972  132.9728 H   0  0  0  0  0  0  0  0  0  0  0  0
  1  2  1  0
  2  3  2  0
  2  4  1  0
  4  5  2  0
  5  6  1  0
  6  7  2  0
  7  8  1  0
  8  9  2  0
  9 10  1  0
 10 11  1  0
 11 12  1  0
 12 13  1  0
  9 14  1  0
 14 15  2  0
 15 16  1  0
 16 17  1  0
 17 18  2  0
 17 19  1  0
 16  4  1  0
 15  6  1  0
 13 10  1  0
  1 20  1  0
  5 21  1  0
  7 22  1  0
  8 23  1  0
 10 24  1  0
 11 25  1  0
 11 26  1  0
 12 27  1  0
 12 28  1  0
 13 29  1  0
 13 30  1  0
 14 31  1  0
M  CHG  2   1  -1  19  -1
M  END
>  <UniqueID>  (19) 
19

>  <SMILES>  (19) 
[NH-]C(=O)c1cc2ccc(C3CCC3)cc2n1C(=O)[O-]

>  <Energy>  (19) 
133.562260645117

>  <Genealogy>  (19) 
[NH-]C(=O)c1cc2ccc(C3CCC3)cc2n1C(=O)[O-] (protonated)
[NH-]C(=O)c1cc2ccc(C3CCC3)cc2n1C(=O)[O-] (3D coordinates assigned)
[NH-]C(=O)c1cc2ccc(C3CCC3)cc2n1C(=O)[O-] (nonaromatic ring conformer: 133.562260645117 kcal/mol)

>  <smiles>  (19) 
NC(=O)c1cc2ccc(C3CCC3)cc2n1C(=O)O

>  <score_type>  (19) 
oracle

>  <origin>  (19) 
adg

>  <m_score__min__energy>  (19) 
-7.21

>  <m_primary>  (19) 
energy

$$$$
19:0
     RDKit          3D

 44 46  0  0  0  0  0  0  0  0999 V2000
  146.6560  154.8830  134.9120 C   0  0  0  0  0  0  0  0  0  0  0  0
  147.7690  155.7170  134.6120 O   0  0  0  0  0  0  0  0  0  0  0  0
  148.3080  155.8190  133.3260 C   0  0  0  0  0  0  0  0  0  0  0  0
  148.4940  154.7900  132.6230 O   0  0  0  0  0  0  0  0  0  0  0  0
  148.7140  157.1600  132.8050 C   0  0  0  0  0  0  0  0  0  0  0  0
  147.6300  158.1650  133.0750 C   0  0  0  0  0  0  0  0  0  0  0  0
  147.9470  159.5410  133.2000 C   0  0  0  0  0  0  0  0  0  0  0  0
  146.9330  160.4940  133.3940 C   0  0  0  0  0  0  0  0  0  0  0  0
  145.6180  160.0430  133.4540 C   0  0  0  0  0  0  0  0  0  0  0  0
  144.4420  160.7510  133.5740 C   0  0  0  0  0  0  0  0  0  0  0  0
  143.4280  159.7950  133.5250 C   0  0  0  0  0  0  0  0  0  0  0  0
  141.9920  160.1130  133.6620 C   0  0  0  0  0  0  0  0  0  0  0  0
  141.0850  159.7570  132.6210 N   0  0  0  0  0  0  0  0  0  0  0  0
  141.5590  160.7190  134.6770 O   0  0  0  0  0  0  0  0  0  0  0  0
  143.9580  158.5470  133.3860 N   0  0  0  0  0  0  0  0  0  0  0  0
  143.2560  157.3120  133.1930 C   0  0  0  0  0  0  0  0  0  0  0  0
  142.3480  157.2360  132.3220 O   0  0  0  0  0  0  0  0  0  0  0  0
  143.5530  156.2170  134.0100 O   0  0  0  0  0  0  0  0  0  0  0  0
  142.8910  155.9500  135.2450 C   0  0  0  0  0  0  0  0  0  0  0  0
  141.4070  156.3440  135.1860 C   0  0  0  0  0  0  0  0  0  0  0  0
  140.8660  157.1040  136.4180 C   0  0  0  0  0  0  0  0  0  0  0  0
  140.4040  156.3450  137.4780 F   0  0  0  0  0  0  0  0  0  0  0  0
  139.9290  158.2580  136.0830 C   0  0  0  0  0  0  0  0  0  0  0  0
  141.2620  158.5380  136.7570 C   0  0  0  0  0  0  0  0  0  0  0  0
  145.2960  158.7160  133.3420 C   0  0  0  0  0  0  0  0  0  0  0  0
  146.2820  157.7460  133.1340 C   0  0  0  0  0  0  0  0  0  0  0  0
  146.5442  154.7992  136.0031 H   0  0  0  0  0  0  0  0  0  0  0  0
  145.7431  155.3212  134.4824 H   0  0  0  0  0  0  0  0  0  0  0  0
  146.8203  153.8838  134.4824 H   0  0  0  0  0  0  0  0  0  0  0  0
  149.6403  157.4799  133.3047 H   0  0  0  0  0  0  0  0  0  0  0  0
  148.8807  157.0909  131.7199 H   0  0  0  0  0  0  0  0  0  0  0  0
  148.9966  159.8656  133.1446 H   0  0  0  0  0  0  0  0  0  0  0  0
  147.1712  161.5631  133.4953 H   0  0  0  0  0  0  0  0  0  0  0  0
  144.3274  161.8394  133.6849 H   0  0  0  0  0  0  0  0  0  0  0  0
  141.3770  159.1170  131.8500 H   0  0  0  0  0  0  0  0  0  0  0  0
  142.9668  154.8751  135.4659 H   0  0  0  0  0  0  0  0  0  0  0  0
  143.3752  156.5470  136.0319 H   0  0  0  0  0  0  0  0  0  0  0  0
  141.2622  156.9844  134.3034 H   0  0  0  0  0  0  0  0  0  0  0  0
  140.8469  155.3980  135.1475 H   0  0  0  0  0  0  0  0  0  0  0  0
  139.7711  158.5510  135.0346 H   0  0  0  0  0  0  0  0  0  0  0  0
  138.8792  158.4968  136.3086 H   0  0  0  0  0  0  0  0  0  0  0  0
  142.0685  159.0329  136.1962 H   0  0  0  0  0  0  0  0  0  0  0  0
  141.5759  159.0625  137.6716 H   0  0  0  0  0  0  0  0  0  0  0  0
  146.0150  156.6851  133.0194 H   0  0  0  0  0  0  0  0  0  0  0  0
  1  2  1  0
  2  3  1  0
  3  4  2  0
  3  5  1  0
  5  6  1  0
  6  7  2  0
  7  8  1  0
  8  9  2  0
  9 10  1  0
 10 11  2  0
 11 12  1  0
 12 13  1  0
 12 14  2  0
 11 15  1  0
 15 16  1  0
 16 17  2  0
 16 18  1  0
 18 19  1  0
 19 20  1  0
 20 21  1  0
 21 22  1  0
 21 23  1  0
 23 24  1  0
 15 25  1  0
 25 26  2  0
 26  6  1  0
 25  9  1  0
 24 21  1  0
  1 27  1  0
  1 28  1  0
  1 29  1  0
  5 30  1  0
  5 31  1  0
  7 32  1  0
  8 33  1  0
 10 34  1  0
 13 35  1  0
 19 36  1  0
 19 37  1  0
 20 38  1  0
 20 39  1  0
 23 40  1  0
 23 41  1  0
 24 42  1  0
 24 43  1  0
 26 44  1  0
M  CHG  1  13  -1
M  END
>  <UniqueID>  (20) 
20

>  <SMILES>  (20) 
COC(=O)Cc1ccc2cc(C([NH-])=O)n(C(=O)OCCC3(F)CC3)c2c1

>  <Energy>  (20) 
345.4649959384816

>  <Genealogy>  (20) 
COC(=O)Cc1ccc2cc(C([NH-])=O)n(C(=O)OCCC3(F)CC3)c2c1 (protonated)
COC(=O)Cc1ccc2cc(C([NH-])=O)n(C(=O)OCCC3(F)CC3)c2c1 (3D coordinates assigned)
COC(=O)Cc1ccc2cc(C([NH-])=O)n(C(=O)OCCC3(F)CC3)c2c1 (nonaromatic ring conformer: 345.4649959384816 kcal/mol)

>  <smiles>  (20) 
COC(=O)Cc1ccc2cc(C(N)=O)n(C(=O)OCCC3(F)CC3)c2c1

>  <score_type>  (20) 
oracle

>  <origin>  (20) 
adg

>  <m_score__min__energy>  (20) 
-6.8799999999999999

>  <m_primary>  (20) 
energy

$$$$
20:0
     RDKit          3D

 39 40  0  0  0  0  0  0  0  0999 V2000
  149.9420  151.1280  131.1060 C   0  0  0  0  0  0  0  0  0  0  0  0
  149.5600  152.3870  131.6150 O   0  0  0  0  0  0  0  0  0  0  0  0
  149.2530  152.2900  132.9940 C   0  0  0  0  0  0  0  0  0  0  0  0
  148.3930  153.4770  133.4430 C   0  0  0  0  0  0  0  0  0  0  0  0
  148.2390  154.4610  132.3670 N   0  0  0  0  0  0  0  0  0  0  0  0
  147.9450  155.8500  132.6060 C   0  0  0  0  0  0  0  0  0  0  0  0
  148.9690  156.8390  132.6110 C   0  0  0  0  0  0  0  0  0  0  0  0
  148.6610  158.1910  132.8470 C   0  0  0  0  0  0  0  0  0  0  0  0
  147.3310  158.5270  133.0760 C   0  0  0  0  0  0  0  0  0  0  0  0
  146.7540  159.7520  133.3290 C   0  0  0  0  0  0  0  0  0  0  0  0
  145.3900  159.4950  133.4690 C   0  0  0  0  0  0  0  0  0  0  0  0
  144.3690  160.5420  133.6810 C   0  0  0  0  0  0  0  0  0  0  0  0
  143.0010  160.2730  133.3840 N   0  0  0  0  0  0  0  0  0  0  0  0
  144.6910  161.6700  134.1390 O   0  0  0  0  0  0  0  0  0  0  0  0
  145.1420  158.1640  133.3210 N   0  0  0  0  0  0  0  0  0  0  0  0
  143.8810  157.4850  133.4110 C   0  0  0  0  0  0  0  0  0  0  0  0
  143.0340  157.6300  132.4890 O   0  0  0  0  0  0  0  0  0  0  0  0
  143.5990  156.5290  134.5390 C   0  0  0  0  0  0  0  0  0  0  0  0
  144.7810  156.1610  135.1590 F   0  0  0  0  0  0  0  0  0  0  0  0
  142.7920  157.1550  135.4750 F   0  0  0  0  0  0  0  0  0  0  0  0
  142.8960  155.2680  134.0270 C   0  0  0  0  0  0  0  0  0  0  0  0
  142.9680  154.2580  134.9710 F   0  0  0  0  0  0  0  0  0  0  0  0
  143.5090  154.8350  132.8650 F   0  0  0  0  0  0  0  0  0  0  0  0
  141.5670  155.5390  133.7530 F   0  0  0  0  0  0  0  0  0  0  0  0
  146.3340  157.5880  133.0710 C   0  0  0  0  0  0  0  0  0  0  0  0
  146.6070  156.2370  132.8400 C   0  0  0  0  0  0  0  0  0  0  0  0
  150.1499  150.4427  131.9409 H   0  0  0  0  0  0  0  0  0  0  0  0
  149.1275  150.7190  130.4901 H   0  0  0  0  0  0  0  0  0  0  0  0
  150.8464  151.2406  130.4901 H   0  0  0  0  0  0  0  0  0  0  0  0
  148.7020  151.3556  133.1763 H   0  0  0  0  0  0  0  0  0  0  0  0
  150.1922  152.2974  133.5666 H   0  0  0  0  0  0  0  0  0  0  0  0
  147.3990  153.1085  133.7364 H   0  0  0  0  0  0  0  0  0  0  0  0
  148.8930  153.9664  134.2918 H   0  0  0  0  0  0  0  0  0  0  0  0
  148.3440  154.1450  131.3760 H   0  0  0  0  0  0  0  0  0  0  0  0
  150.0124  156.5426  132.4283 H   0  0  0  0  0  0  0  0  0  0  0  0
  149.4482  158.9593  132.8503 H   0  0  0  0  0  0  0  0  0  0  0  0
  147.2608  160.7254  133.4045 H   0  0  0  0  0  0  0  0  0  0  0  0
  142.7320  159.7550  132.5180 H   0  0  0  0  0  0  0  0  0  0  0  0
  145.7979  155.4917  132.8404 H   0  0  0  0  0  0  0  0  0  0  0  0
  1  2  1  0
  2  3  1  0
  3  4  1  0
  4  5  1  0
  5  6  1  0
  6  7  2  0
  7  8  1  0
  8  9  2  0
  9 10  1  0
 10 11  2  0
 11 12  1  0
 12 13  1  0
 12 14  2  0
 11 15  1  0
 15 16  1  0
 16 17  2  0
 16 18  1  0
 18 19  1  0
 18 20  1  0
 18 21  1  0
 21 22  1  0
 21 23  1  0
 21 24  1  0
 15 25  1  0
 25 26  2  0
 26  6  1  0
 25  9  1  0
  1 27  1  0
  1 28  1  0
  1 29  1  0
  3 30  1  0
  3 31  1  0
  4 32  1  0
  4 33  1  0
  5 34  1  0
  7 35  1  0
  8 36  1  0
 10 37  1  0
 13 38  1  0
 26 39  1  0
M  CHG  1  13  -1
M  END
>  <UniqueID>  (21) 
21

>  <SMILES>  (21) 
COCCNc1ccc2cc(C([NH-])=O)n(C(=O)C(F)(F)C(F)(F)F)c2c1

>  <Energy>  (21) 
76.5837795044639

>  <Genealogy>  (21) 
COCCNc1ccc2cc(C([NH-])=O)n(C(=O)C(F)(F)C(F)(F)F)c2c1 (protonated)
COCCNc1ccc2cc(C([NH-])=O)n(C(=O)C(F)(F)C(F)(F)F)c2c1 (3D coordinates assigned)
COCCNc1ccc2cc(C([NH-])=O)n(C(=O)C(F)(F)C(F)(F)F)c2c1 (optimized conformer: 76.5837795044639 kcal/mol)

>  <smiles>  (21) 
COCCNc1ccc2cc(C(N)=O)n(C(=O)C(F)(F)C(F)(F)F)c2c1

>  <score_type>  (21) 
oracle

>  <origin>  (21) 
adg

>  <m_score__min__energy>  (21) 
-5.6200000000000001

>  <m_primary>  (21) 
energy

$$$$
21:0
     RDKit          3D

 26 27  0  0  0  0  0  0  0  0999 V2000
  141.8010  159.4720  135.7110 N   0  0  0  0  0  0  0  0  0  0  0  0
  142.3270  160.0960  134.5420 C   0  0  0  0  0  0  0  0  0  0  0  0
  141.6110  160.9110  133.9030 O   0  0  0  0  0  0  0  0  0  0  0  0
  143.6740  159.7550  134.0410 C   0  0  0  0  0  0  0  0  0  0  0  0
  144.0630  158.4560  133.7170 C   0  0  0  0  0  0  0  0  0  0  0  0
  145.3960  158.5470  133.3870 C   0  0  0  0  0  0  0  0  0  0  0  0
  146.2850  157.5560  132.9830 C   0  0  0  0  0  0  0  0  0  0  0  0
  147.6040  157.9380  132.6810 C   0  0  0  0  0  0  0  0  0  0  0  0
  148.0000  159.2970  132.7720 C   0  0  0  0  0  0  0  0  0  0  0  0
  149.4180  159.6890  132.4660 C   0  0  0  0  0  0  0  0  0  0  0  0
  149.5160  160.2030  131.0650 C   0  0  0  0  0  0  0  0  0  0  0  0
  149.5070  161.4430  130.8430 O   0  0  0  0  0  0  0  0  0  0  0  0
  149.5680  159.3150  130.0000 O   0  0  0  0  0  0  0  0  0  0  0  0
  147.0710  160.2720  133.1960 C   0  0  0  0  0  0  0  0  0  0  0  0
  145.7700  159.8610  133.5090 C   0  0  0  0  0  0  0  0  0  0  0  0
  144.7220  160.6170  133.9080 N   0  0  0  0  0  0  0  0  0  0  0  0
  144.7080  162.0460  134.0540 C   0  0  0  0  0  0  0  0  0  0  0  0
  145.5570  162.6200  134.7840 O   0  0  0  0  0  0  0  0  0  0  0  0
  143.7730  162.8120  133.3680 O   0  0  0  0  0  0  0  0  0  0  0  0
  140.7860  159.5450  135.9480 H   0  0  0  0  0  0  0  0  0  0  0  0
  143.4377  157.5511  133.7237 H   0  0  0  0  0  0  0  0  0  0  0  0
  145.9659  156.5064  132.9024 H   0  0  0  0  0  0  0  0  0  0  0  0
  148.3350  157.1765  132.3715 H   0  0  0  0  0  0  0  0  0  0  0  0
  149.7375  160.4754  133.1656 H   0  0  0  0  0  0  0  0  0  0  0  0
  150.0673  158.8076  132.5733 H   0  0  0  0  0  0  0  0  0  0  0  0
  147.3626  161.3294  133.2784 H   0  0  0  0  0  0  0  0  0  0  0  0
  1  2  1  0
  2  3  2  0
  2  4  1  0
  4  5  2  0
  5  6  1  0
  6  7  2  0
  7  8  1  0
  8  9  2  0
  9 10  1  0
 10 11  1  0
 11 12  2  0
 11 13  1  0
  9 14  1  0
 14 15  2  0
 15 16  1  0
 16 17  1  0
 17 18  2  0
 17 19  1  0
 16  4  1  0
 15  6  1  0
  1 20  1  0
  5 21  1  0
  7 22  1  0
  8 23  1  0
 10 24  1  0
 10 25  1  0
 14 26  1  0
M  CHG  3   1  -1  13  -1  19  -1
M  END
>  <UniqueID>  (22) 
22

>  <SMILES>  (22) 
[NH-]C(=O)c1cc2ccc(CC(=O)[O-])cc2n1C(=O)[O-]

>  <Energy>  (22) 
64.85566555687832

>  <Genealogy>  (22) 
[NH-]C(=O)c1cc2ccc(CC(=O)[O-])cc2n1C(=O)[O-] (protonated)
[NH-]C(=O)c1cc2ccc(CC(=O)[O-])cc2n1C(=O)[O-] (3D coordinates assigned)
[NH-]C(=O)c1cc2ccc(CC(=O)[O-])cc2n1C(=O)[O-] (optimized conformer: 64.85566555687832 kcal/mol)

>  <smiles>  (22) 
NC(=O)c1cc2ccc(CC(=O)O)cc2n1C(=O)O

>  <score_type>  (22) 
oracle

>  <origin>  (22) 
adg

>  <m_score__min__energy>  (22) 
-6.1699999999999999

>  <m_primary>  (22) 
energy

$$$$
22:0
     RDKit          3D

 29 31  0  0  0  0  0  0  0  0999 V2000
  149.9270  161.0600  131.1080 N   0  0  0  0  0  0  0  0  0  0  0  0
  148.6640  160.4030  131.0610 C   0  0  0  0  0  0  0  0  0  0  0  0
  147.7450  160.8820  130.3440 O   0  0  0  0  0  0  0  0  0  0  0  0
  148.4000  159.2040  131.8840 C   0  0  0  0  0  0  0  0  0  0  0  0
  149.1530  158.0360  131.7980 C   0  0  0  0  0  0  0  0  0  0  0  0
  148.5370  157.1410  132.6420 C   0  0  0  0  0  0  0  0  0  0  0  0
  148.8680  155.8230  132.9450 C   0  0  0  0  0  0  0  0  0  0  0  0
  148.0660  155.1400  133.8730 C   0  0  0  0  0  0  0  0  0  0  0  0
  146.9660  155.7870  134.4910 C   0  0  0  0  0  0  0  0  0  0  0  0
  146.1000  155.0360  135.4620 C   0  0  0  0  0  0  0  0  0  0  0  0
  146.9530  154.2270  136.3840 C   0  0  0  0  0  0  0  0  0  0  0  0
  146.6320  152.9970  136.8270 N   0  0  0  0  0  0  0  0  0  0  0  0
  147.6110  152.6300  137.6380 N   0  0  0  0  0  0  0  0  0  0  0  0
  148.4850  153.6530  137.6610 C   0  0  0  0  0  0  0  0  0  0  0  0
  149.9630  153.6630  138.5980 Cl  0  0  0  0  0  0  0  0  0  0  0  0
  148.0860  154.6390  136.8960 O   0  0  0  0  0  0  0  0  0  0  0  0
  146.6550  157.1210  134.1500 C   0  0  0  0  0  0  0  0  0  0  0  0
  147.4590  157.7730  133.2070 C   0  0  0  0  0  0  0  0  0  0  0  0
  147.3620  159.0430  132.7540 N   0  0  0  0  0  0  0  0  0  0  0  0
  146.4170  160.0330  133.1870 C   0  0  0  0  0  0  0  0  0  0  0  0
  146.8130  161.0970  133.7310 O   0  0  0  0  0  0  0  0  0  0  0  0
  145.0560  159.8410  132.9820 O   0  0  0  0  0  0  0  0  0  0  0  0
  150.8090  160.5460  130.8890 H   0  0  0  0  0  0  0  0  0  0  0  0
  150.0503  157.8650  131.1851 H   0  0  0  0  0  0  0  0  0  0  0  0
  149.7312  155.3320  132.4719 H   0  0  0  0  0  0  0  0  0  0  0  0
  148.2931  154.0931  134.1230 H   0  0  0  0  0  0  0  0  0  0  0  0
  145.5052  155.7513  136.0490 H   0  0  0  0  0  0  0  0  0  0  0  0
  145.4303  154.3640  134.9052 H   0  0  0  0  0  0  0  0  0  0  0  0
  145.8011  157.6362  134.6141 H   0  0  0  0  0  0  0  0  0  0  0  0
  1  2  1  0
  2  3  2  0
  2  4  1  0
  4  5  2  0
  5  6  1  0
  6  7  2  0
  7  8  1  0
  8  9  2  0
  9 10  1  0
 10 11  1  0
 11 12  2  0
 12 13  1  0
 13 14  2  0
 14 15  1  0
 14 16  1  0
  9 17  1  0
 17 18  2  0
 18 19  1  0
 19 20  1  0
 20 21  2  0
 20 22  1  0
 19  4  1  0
 18  6  1  0
 16 11  1  0
  1 23  1  0
  5 24  1  0
  7 25  1  0
  8 26  1  0
 10 27  1  0
 10 28  1  0
 17 29  1  0
M  CHG  2   1  -1  22  -1
M  END
>  <UniqueID>  (23) 
23

>  <SMILES>  (23) 
[NH-]C(=O)c1cc2ccc(Cc3nnc(Cl)o3)cc2n1C(=O)[O-]

>  <Energy>  (23) 
104.17903076749818

>  <Genealogy>  (23) 
[NH-]C(=O)c1cc2ccc(Cc3nnc(Cl)o3)cc2n1C(=O)[O-] (protonated)
[NH-]C(=O)c1cc2ccc(Cc3nnc(Cl)o3)cc2n1C(=O)[O-] (3D coordinates assigned)
[NH-]C(=O)c1cc2ccc(Cc3nnc(Cl)o3)cc2n1C(=O)[O-] (optimized conformer: 104.17903076749818 kcal/mol)

>  <smiles>  (23) 
NC(=O)c1cc2ccc(Cc3nnc(Cl)o3)cc2n1C(=O)O

>  <score_type>  (23) 
oracle

>  <origin>  (23) 
adg

>  <m_score__min__energy>  (23) 
-7.4299999999999997

>  <m_primary>  (23) 
energy

$$$$
23:0
     RDKit          3D

 60 61  0  0  0  0  0  0  0  0999 V2000
  140.0820  158.1980  136.1640 C   0  0  0  0  0  0  0  0  0  0  0  0
  141.0040  159.1490  135.4780 C   0  0  0  0  0  0  0  0  0  0  0  0
  142.1500  159.3630  135.9580 O   0  0  0  0  0  0  0  0  0  0  0  0
  140.6030  159.7530  134.2810 O   0  0  0  0  0  0  0  0  0  0  0  0
  140.7070  159.1160  133.0100 C   0  0  0  0  0  0  0  0  0  0  0  0
  141.5770  157.8610  133.1080 C   0  0  0  0  0  0  0  0  0  0  0  0
  142.9420  158.1780  132.8510 O   0  0  0  0  0  0  0  0  0  0  0  0
  143.9680  157.9830  133.7820 C   0  0  0  0  0  0  0  0  0  0  0  0
  143.7650  157.3000  134.8220 O   0  0  0  0  0  0  0  0  0  0  0  0
  145.2470  158.5950  133.5660 N   0  0  0  0  0  0  0  0  0  0  0  0
  145.5500  159.9250  133.5530 C   0  0  0  0  0  0  0  0  0  0  0  0
  144.6340  161.0300  133.9050 C   0  0  0  0  0  0  0  0  0  0  0  0
  143.2250  160.8990  133.7330 N   0  0  0  0  0  0  0  0  0  0  0  0
  145.0960  162.0880  134.4060 O   0  0  0  0  0  0  0  0  0  0  0  0
  146.8970  160.1140  133.2420 C   0  0  0  0  0  0  0  0  0  0  0  0
  147.4140  158.8500  133.0750 C   0  0  0  0  0  0  0  0  0  0  0  0
  148.7040  158.4450  132.7460 C   0  0  0  0  0  0  0  0  0  0  0  0
  148.9490  157.0680  132.6110 C   0  0  0  0  0  0  0  0  0  0  0  0
  147.9070  156.1270  132.8050 C   0  0  0  0  0  0  0  0  0  0  0  0
  148.1700  154.6580  132.6040 C   0  0  0  0  0  0  0  0  0  0  0  0
  147.1080  153.8130  133.3350 C   0  0  0  0  0  0  0  0  0  0  0  0
  146.0330  153.3310  132.4280 N   0  0  1  0  0  0  0  0  0  0  0  0
  146.1630  151.8700  132.2490 C   0  0  0  0  0  0  0  0  0  0  0  0
  144.6910  153.6800  132.9630 C   0  0  0  0  0  0  0  0  0  0  0  0
  143.7250  152.4780  132.9840 C   0  0  0  0  0  0  0  0  0  0  0  0
  142.4320  152.8720  133.5870 N   0  0  0  0  0  0  0  0  0  0  0  0
  141.3280  152.0910  133.0060 C   0  0  0  0  0  0  0  0  0  0  0  0
  142.1730  154.3090  133.3850 C   0  0  0  0  0  0  0  0  0  0  0  0
  146.6080  156.5760  133.1270 C   0  0  0  0  0  0  0  0  0  0  0  0
  146.3980  157.9510  133.2740 C   0  0  0  0  0  0  0  0  0  0  0  0
  140.1874  158.3067  137.2535 H   0  0  0  0  0  0  0  0  0  0  0  0
  139.0445  158.4182  135.8722 H   0  0  0  0  0  0  0  0  0  0  0  0
  140.3342  157.1678  135.8722 H   0  0  0  0  0  0  0  0  0  0  0  0
  139.7019  158.8334  132.6636 H   0  0  0  0  0  0  0  0  0  0  0  0
  141.1710  159.8154  132.2989 H   0  0  0  0  0  0  0  0  0  0  0  0
  141.4881  157.4371  134.1192 H   0  0  0  0  0  0  0  0  0  0  0  0
  141.2344  157.1316  132.3592 H   0  0  0  0  0  0  0  0  0  0  0  0
  142.7320  160.0140  133.9850 H   0  0  0  0  0  0  0  0  0  0  0  0
  147.4321  161.0707  133.1499 H   0  0  0  0  0  0  0  0  0  0  0  0
  149.5078  159.1808  132.5961 H   0  0  0  0  0  0  0  0  0  0  0  0
  149.9589  156.7170  132.3523 H   0  0  0  0  0  0  0  0  0  0  0  0
  148.1375  154.4285  131.5287 H   0  0  0  0  0  0  0  0  0  0  0  0
  149.1612  154.4152  133.0145 H   0  0  0  0  0  0  0  0  0  0  0  0
  147.6029  152.9414  133.7882 H   0  0  0  0  0  0  0  0  0  0  0  0
  146.6382  154.4552  134.0945 H   0  0  0  0  0  0  0  0  0  0  0  0
  146.1580  153.7780  131.4900 H   0  0  0  0  0  0  0  0  0  0  0  0
  146.2064  151.3823  133.2340 H   0  0  0  0  0  0  0  0  0  0  0  0
  145.2951  151.4904  131.6898 H   0  0  0  0  0  0  0  0  0  0  0  0
  147.0843  151.6496  131.6898 H   0  0  0  0  0  0  0  0  0  0  0  0
  144.8088  154.0543  133.9906 H   0  0  0  0  0  0  0  0  0  0  0  0
  144.2574  154.4418  132.2985 H   0  0  0  0  0  0  0  0  0  0  0  0
  143.5549  152.1305  131.9543 H   0  0  0  0  0  0  0  0  0  0  0  0
  144.1697  151.6705  133.5841 H   0  0  0  0  0  0  0  0  0  0  0  0
  140.7188  151.6600  133.8141 H   0  0  0  0  0  0  0  0  0  0  0  0
  140.7014  152.7479  132.3848 H   0  0  0  0  0  0  0  0  0  0  0  0
  141.7388  151.2814  132.3848 H   0  0  0  0  0  0  0  0  0  0  0  0
  142.0834  154.8063  134.3621 H   0  0  0  0  0  0  0  0  0  0  0  0
  143.0051  154.7558  132.8211 H   0  0  0  0  0  0  0  0  0  0  0  0
  141.2373  154.4372  132.8211 H   0  0  0  0  0  0  0  0  0  0  0  0
  145.7815  155.8623  133.2590 H   0  0  0  0  0  0  0  0  0  0  0  0
  1  2  1  0
  2  3  2  0
  2  4  1  0
  4  5  1  0
  5  6  1  0
  6  7  1  0
  7  8  1  0
  8  9  2  0
  8 10  1  0
 10 11  1  0
 11 12  1  0
 12 13  1  0
 12 14  2  0
 11 15  2  0
 15 16  1  0
 16 17  2  0
 17 18  1  0
 18 19  2  0
 19 20  1  0
 20 21  1  0
 21 22  1  0
 22 23  1  0
 22 24  1  0
 24 25  1  0
 25 26  1  0
 26 27  1  0
 26 28  1  0
 19 29  1  0
 29 30  2  0
 30 10  1  0
 30 16  1  0
  1 31  1  0
  1 32  1  0
  1 33  1  0
  5 34  1  0
  5 35  1  0
  6 36  1  0
  6 37  1  0
 13 38  1  0
 15 39  1  0
 17 40  1  0
 18 41  1  0
 20 42  1  0
 20 43  1  0
 21 44  1  0
 21 45  1  0
 22 46  1  6
 23 47  1  0
 23 48  1  0
 23 49  1  0
 24 50  1  0
 24 51  1  0
 25 52  1  0
 25 53  1  0
 27 54  1  0
 27 55  1  0
 27 56  1  0
 28 57  1  0
 28 58  1  0
 28 59  1  0
 29 60  1  0
M  CHG  2  13  -1  22   1
M  END
>  <UniqueID>  (24) 
24

>  <SMILES>  (24) 
CC(=O)OCCOC(=O)n1c(C([NH-])=O)cc2ccc(CC[N@@H+](C)CCN(C)C)cc21

>  <Energy>  (24) 
93.63090716750476

>  <Genealogy>  (24) 
CC(=O)OCCOC(=O)n1c(C([NH-])=O)cc2ccc(CC[NH+](C)CCN(C)C)cc21 (protonated)
CC(=O)OCCOC(=O)n1c(C([NH-])=O)cc2ccc(CC[N@@H+](C)CCN(C)C)cc21 (chirality)
CC(=O)OCCOC(=O)n1c(C([NH-])=O)cc2ccc(CC[N@@H+](C)CCN(C)C)cc21 (3D coordinates assigned)
CC(=O)OCCOC(=O)n1c(C([NH-])=O)cc2ccc(CC[N@@H+](C)CCN(C)C)cc21 (optimized conformer: 93.63090716750476 kcal/mol)

>  <smiles>  (24) 
CC(=O)OCCOC(=O)n1c(C(N)=O)cc2ccc(CCN(C)CCN(C)C)cc21

>  <score_type>  (24) 
oracle

>  <origin>  (24) 
adg

>  <m_score__min__energy>  (24) 
-6.4900000000000002

>  <m_primary>  (24) 
energy

$$$$
24:0
     RDKit          3D

 47 48  0  0  0  0  0  0  0  0999 V2000
  139.0790  157.0010  133.0770 N   0  0  0  0  0  0  0  0  0  0  0  0
  138.6450  158.2110  132.3840 C   0  0  0  0  0  0  0  0  0  0  0  0
  139.5940  159.3690  132.7010 C   0  0  0  0  0  0  0  0  0  0  0  0
  140.6370  158.9410  133.6340 N   0  0  0  0  0  0  0  0  0  0  0  0
  141.9860  159.4500  133.6490 C   0  0  0  0  0  0  0  0  0  0  0  0
  142.2620  160.8430  133.7000 C   0  0  0  0  0  0  0  0  0  0  0  0
  143.5860  161.3130  133.7300 C   0  0  0  0  0  0  0  0  0  0  0  0
  144.6120  160.3750  133.7050 C   0  0  0  0  0  0  0  0  0  0  0  0
  145.9750  160.5570  133.7500 C   0  0  0  0  0  0  0  0  0  0  0  0
  146.5200  159.2740  133.7090 C   0  0  0  0  0  0  0  0  0  0  0  0
  147.9720  158.9960  133.6470 C   0  0  0  0  0  0  0  0  0  0  0  0
  148.5580  157.9920  134.4780 N   0  0  0  0  0  0  0  0  0  0  0  0
  148.7130  159.6680  132.8820 O   0  0  0  0  0  0  0  0  0  0  0  0
  145.5310  158.3380  133.6440 N   0  0  0  0  0  0  0  0  0  0  0  0
  145.6830  156.9090  133.6600 C   0  0  0  0  0  0  0  0  0  0  0  0
  146.2900  156.3480  134.6130 O   0  0  0  0  0  0  0  0  0  0  0  0
  145.1650  156.1440  132.6100 O   0  0  0  0  0  0  0  0  0  0  0  0
  144.3870  154.9710  132.8210 C   0  0  0  0  0  0  0  0  0  0  0  0
  143.0800  155.3460  133.5040 C   0  0  0  0  0  0  0  0  0  0  0  0
  143.3590  155.8370  134.7930 O   0  0  0  0  0  0  0  0  0  0  0  0
  142.0320  155.4760  135.7990 P   0  0  2  0  0  0  0  0  0  0  0  0
  142.3280  156.0030  137.1840 O   0  0  0  0  0  0  0  0  0  0  0  0
  141.8330  153.7950  135.8770 O   0  0  0  0  0  0  0  0  0  0  0  0
  140.6380  156.2380  135.1840 O   0  0  0  0  0  0  0  0  0  0  0  0
  140.1920  157.4630  136.2780 P   0  0  0  0  0  0  0  0  0  0  0  0
  141.3050  158.4830  136.3400 O   0  0  0  0  0  0  0  0  0  0  0  0
  139.9470  156.8320  137.8300 O   0  0  0  0  0  0  0  0  0  0  0  0
  138.7820  158.2300  135.7480 O   0  0  0  0  0  0  0  0  0  0  0  0
  144.3690  159.0280  133.6410 C   0  0  0  0  0  0  0  0  0  0  0  0
  143.0610  158.5320  133.6300 C   0  0  0  0  0  0  0  0  0  0  0  0
  138.3310  156.2770  132.9690 H   0  0  0  0  0  0  0  0  0  0  0  0
  139.1340  157.2210  134.0970 H   0  0  0  0  0  0  0  0  0  0  0  0
  138.6440  158.0282  131.2993 H   0  0  0  0  0  0  0  0  0  0  0  0
  137.6314  158.4743  132.7207 H   0  0  0  0  0  0  0  0  0  0  0  0
  140.0635  159.7168  131.7690 H   0  0  0  0  0  0  0  0  0  0  0  0
  139.0170  160.1831  133.1640 H   0  0  0  0  0  0  0  0  0  0  0  0
  140.3710  158.2200  134.3430 H   0  0  0  0  0  0  0  0  0  0  0  0
  141.4295  161.5618  133.7162 H   0  0  0  0  0  0  0  0  0  0  0  0
  143.8041  162.3904  133.7720 H   0  0  0  0  0  0  0  0  0  0  0  0
  146.5191  161.5114  133.8063 H   0  0  0  0  0  0  0  0  0  0  0  0
  149.5890  157.8300  134.4550 H   0  0  0  0  0  0  0  0  0  0  0  0
  147.9710  157.3810  135.0870 H   0  0  0  0  0  0  0  0  0  0  0  0
  144.1716  154.4947  131.8531 H   0  0  0  0  0  0  0  0  0  0  0  0
  144.9459  154.2697  133.4581 H   0  0  0  0  0  0  0  0  0  0  0  0
  142.5670  156.1222  132.9171 H   0  0  0  0  0  0  0  0  0  0  0  0
  142.4322  154.4600  133.5769 H   0  0  0  0  0  0  0  0  0  0  0  0
  142.8725  157.4485  133.6070 H   0  0  0  0  0  0  0  0  0  0  0  0
  1  2  1  0
  2  3  1  0
  3  4  1  0
  4  5  1  0
  5  6  2  0
  6  7  1  0
  7  8  2  0
  8  9  1  0
  9 10  2  0
 10 11  1  0
 11 12  1  0
 11 13  2  0
 10 14  1  0
 14 15  1  0
 15 16  2  0
 15 17  1  0
 17 18  1  0
 18 19  1  0
 19 20  1  0
 20 21  1  0
 21 22  2  0
 21 23  1  1
 21 24  1  0
 24 25  1  0
 25 26  2  0
 25 27  1  0
 25 28  1  0
 14 29  1  0
 29 30  2  0
 30  5  1  0
 29  8  1  0
  1 31  1  0
  1 32  1  0
  2 33  1  0
  2 34  1  0
  3 35  1  0
  3 36  1  0
  4 37  1  0
  6 38  1  0
  7 39  1  0
  9 40  1  0
 12 41  1  0
 12 42  1  0
 18 43  1  0
 18 44  1  0
 19 45  1  0
 19 46  1  0
 30 47  1  0
M  CHG  3  23  -1  27  -1  28  -1
M  END
>  <UniqueID>  (25) 
25

>  <SMILES>  (25) 
NCCNc1ccc2cc(C(N)=O)n(C(=O)OCCO[P@](=O)([O-])OP(=O)([O-])[O-])c2c1

>  <Energy>  (25) 
73.80021446286611

>  <Genealogy>  (25) 
NCCNc1ccc2cc(C(N)=O)n(C(=O)OCCOP(=O)([O-])OP(=O)([O-])[O-])c2c1 (protonated)
NCCNc1ccc2cc(C(N)=O)n(C(=O)OCCO[P@](=O)([O-])OP(=O)([O-])[O-])c2c1 (chirality)
NCCNc1ccc2cc(C(N)=O)n(C(=O)OCCO[P@](=O)([O-])OP(=O)([O-])[O-])c2c1 (3D coordinates assigned)
NCCNc1ccc2cc(C(N)=O)n(C(=O)OCCO[P@](=O)([O-])OP(=O)([O-])[O-])c2c1 (optimized conformer: 73.80021446286611 kcal/mol)

>  <smiles>  (25) 
NCCNc1ccc2cc(C(N)=O)n(C(=O)OCCOP(=O)(O)OP(=O)(O)O)c2c1

>  <score_type>  (25) 
oracle

>  <origin>  (25) 
adg

>  <m_score__min__energy>  (25) 
-7.0899999999999999

>  <m_primary>  (25) 
energy

$$$$
25:0
     RDKit          3D

 36 37  0  0  0  0  0  0  0  0999 V2000
  149.5790  161.9500  130.3340 C   0  0  0  0  0  0  0  0  0  0  0  0
  148.7060  160.9750  130.9760 N   0  0  0  0  0  0  0  0  0  0  0  0
  149.1700  159.6670  131.3320 C   0  0  0  0  0  0  0  0  0  0  0  0
  150.3620  159.3310  131.0890 O   0  0  0  0  0  0  0  0  0  0  0  0
  148.2510  158.7150  132.0570 C   0  0  1  0  0  0  0  0  0  0  0  0
  148.9930  157.5530  132.5530 N   0  0  0  0  0  0  0  0  0  0  0  0
  147.5150  159.4300  133.2100 C   0  0  0  0  0  0  0  0  0  0  0  0
  146.1840  158.7970  133.5380 C   0  0  0  0  0  0  0  0  0  0  0  0
  146.1090  157.4130  133.8380 C   0  0  0  0  0  0  0  0  0  0  0  0
  144.8750  156.8110  134.1290 C   0  0  0  0  0  0  0  0  0  0  0  0
  143.7350  157.6110  134.1030 C   0  0  0  0  0  0  0  0  0  0  0  0
  142.4240  157.2890  134.3640 C   0  0  0  0  0  0  0  0  0  0  0  0
  141.7120  158.4750  134.1940 C   0  0  0  0  0  0  0  0  0  0  0  0
  140.2400  158.5600  134.2960 C   0  0  0  0  0  0  0  0  0  0  0  0
  139.6100  158.4610  135.5720 N   0  0  0  0  0  0  0  0  0  0  0  0
  139.5270  158.6830  133.2660 O   0  0  0  0  0  0  0  0  0  0  0  0
  142.5520  159.4920  133.8490 N   0  0  0  0  0  0  0  0  0  0  0  0
  142.2260  160.8760  133.6420 C   0  0  0  0  0  0  0  0  0  0  0  0
  141.0380  161.2230  133.4100 O   0  0  0  0  0  0  0  0  0  0  0  0
  143.2140  161.8500  133.7190 O   0  0  0  0  0  0  0  0  0  0  0  0
  143.7870  158.9450  133.7950 C   0  0  0  0  0  0  0  0  0  0  0  0
  145.0060  159.5760  133.5190 C   0  0  0  0  0  0  0  0  0  0  0  0
  150.1033  162.5355  131.1036 H   0  0  0  0  0  0  0  0  0  0  0  0
  150.3154  161.4260  129.7070 H   0  0  0  0  0  0  0  0  0  0  0  0
  148.9771  162.6242  129.7070 H   0  0  0  0  0  0  0  0  0  0  0  0
  147.7210  161.2480  131.1950 H   0  0  0  0  0  0  0  0  0  0  0  0
  147.4955  158.3587  131.3413 H   0  0  0  0  0  0  0  0  0  0  0  0
  149.0050  156.8250  131.8010 H   0  0  0  0  0  0  0  0  0  0  0  0
  149.9900  157.8370  132.6940 H   0  0  0  0  0  0  0  0  0  0  0  0
  148.1507  159.3959  134.1071 H   0  0  0  0  0  0  0  0  0  0  0  0
  147.3191  160.4630  132.8869 H   0  0  0  0  0  0  0  0  0  0  0  0
  147.0262  156.8058  133.8427 H   0  0  0  0  0  0  0  0  0  0  0  0
  144.8101  155.7398  134.3703 H   0  0  0  0  0  0  0  0  0  0  0  0
  142.0225  156.3047  134.6468 H   0  0  0  0  0  0  0  0  0  0  0  0
  139.4350  159.3110  136.1510 H   0  0  0  0  0  0  0  0  0  0  0  0
  145.0453  160.6518  133.2930 H   0  0  0  0  0  0  0  0  0  0  0  0
  1  2  1  0
  2  3  1  0
  3  4  2  0
  3  5  1  0
  5  6  1  0
  5  7  1  0
  7  8  1  0
  8  9  2  0
  9 10  1  0
 10 11  2  0
 11 12  1  0
 12 13  2  0
 13 14  1  0
 14 15  1  0
 14 16  2  0
 13 17  1  0
 17 18  1  0
 18 19  2  0
 18 20  1  0
 17 21  1  0
 21 22  2  0
 22  8  1  0
 21 11  1  0
  1 23  1  0
  1 24  1  0
  1 25  1  0
  2 26  1  0
  5 27  1  6
  6 28  1  0
  6 29  1  0
  7 30  1  0
  7 31  1  0
  9 32  1  0
 10 33  1  0
 12 34  1  0
 15 35  1  0
 22 36  1  0
M  CHG  2  15  -1  20  -1
M  END
>  <UniqueID>  (26) 
26

>  <SMILES>  (26) 
CNC(=O)[C@@H](N)Cc1ccc2cc(C([NH-])=O)n(C(=O)[O-])c2c1

>  <Energy>  (26) 
69.1386450433933

>  <Genealogy>  (26) 
CNC(=O)[C@@H](N)Cc1ccc2cc(C([NH-])=O)n(C(=O)[O-])c2c1 (protonated)
CNC(=O)[C@@H](N)Cc1ccc2cc(C([NH-])=O)n(C(=O)[O-])c2c1 (3D coordinates assigned)
CNC(=O)[C@@H](N)Cc1ccc2cc(C([NH-])=O)n(C(=O)[O-])c2c1 (optimized conformer: 69.1386450433933 kcal/mol)

>  <smiles>  (26) 
CNC(=O)[C@@H](N)Cc1ccc2cc(C(N)=O)n(C(=O)O)c2c1

>  <score_type>  (26) 
oracle

>  <origin>  (26) 
adg

>  <m_score__min__energy>  (26) 
-7.3899999999999997

>  <m_primary>  (26) 
energy

$$$$
26:0
     RDKit          3D

 37 38  0  0  0  0  0  0  0  0999 V2000
  149.3330  161.5440  130.4620 C   0  0  0  0  0  0  0  0  0  0  0  0
  149.3730  160.1820  129.7760 C   0  0  0  0  0  0  0  0  0  0  0  0
  149.2450  159.0460  130.7960 C   0  0  0  0  0  0  0  0  0  0  0  0
  149.5870  159.5320  132.2080 C   0  0  0  0  0  0  0  0  0  0  0  0
  148.4480  159.4280  133.0610 O   0  0  0  0  0  0  0  0  0  0  0  0
  147.1390  159.2990  132.5850 C   0  0  0  0  0  0  0  0  0  0  0  0
  146.6850  160.1130  131.7340 O   0  0  0  0  0  0  0  0  0  0  0  0
  146.2980  158.2520  133.0920 N   0  0  0  0  0  0  0  0  0  0  0  0
  145.0610  158.3690  133.6530 C   0  0  0  0  0  0  0  0  0  0  0  0
  144.2490  159.6030  133.7170 C   0  0  0  0  0  0  0  0  0  0  0  0
  144.8660  160.8840  133.7990 N   0  0  0  0  0  0  0  0  0  0  0  0
  142.9920  159.5270  133.6490 O   0  0  0  0  0  0  0  0  0  0  0  0
  144.6090  157.1300  134.1020 C   0  0  0  0  0  0  0  0  0  0  0  0
  145.6090  156.2400  133.7840 C   0  0  0  0  0  0  0  0  0  0  0  0
  145.6950  154.8700  134.0150 C   0  0  0  0  0  0  0  0  0  0  0  0
  146.8640  154.2060  133.6080 C   0  0  0  0  0  0  0  0  0  0  0  0
  147.9150  154.9160  132.9790 C   0  0  0  0  0  0  0  0  0  0  0  0
  149.1790  154.2050  132.5970 C   0  0  0  0  0  0  0  0  0  0  0  0
  147.8000  156.3090  132.7760 C   0  0  0  0  0  0  0  0  0  0  0  0
  146.6170  156.9420  133.1740 C   0  0  0  0  0  0  0  0  0  0  0  0
  149.3371  161.4052  131.5532 H   0  0  0  0  0  0  0  0  0  0  0  0
  150.2143  162.1308  130.1637 H   0  0  0  0  0  0  0  0  0  0  0  0
  148.4188  162.0781  130.1637 H   0  0  0  0  0  0  0  0  0  0  0  0
  148.5413  160.1164  129.0591 H   0  0  0  0  0  0  0  0  0  0  0  0
  150.3385  160.0798  129.2589 H   0  0  0  0  0  0  0  0  0  0  0  0
  148.2117  158.6690  130.7862 H   0  0  0  0  0  0  0  0  0  0  0  0
  149.9501  158.2479  130.5207 H   0  0  0  0  0  0  0  0  0  0  0  0
  150.4021  158.9159  132.6155 H   0  0  0  0  0  0  0  0  0  0  0  0
  149.8981  160.5858  132.1563 H   0  0  0  0  0  0  0  0  0  0  0  0
  145.3710  161.2910  132.9810 H   0  0  0  0  0  0  0  0  0  0  0  0
  143.6553  156.9100  134.6041 H   0  0  0  0  0  0  0  0  0  0  0  0
  144.8730  154.3242  134.5012 H   0  0  0  0  0  0  0  0  0  0  0  0
  146.9638  153.1241  133.7796 H   0  0  0  0  0  0  0  0  0  0  0  0
  149.7183  153.9017  133.5065 H   0  0  0  0  0  0  0  0  0  0  0  0
  148.9326  153.3131  132.0022 H   0  0  0  0  0  0  0  0  0  0  0  0
  149.8132  154.8787  132.0022 H   0  0  0  0  0  0  0  0  0  0  0  0
  148.6193  156.8817  132.3168 H   0  0  0  0  0  0  0  0  0  0  0  0
  1  2  1  0
  2  3  1  0
  3  4  1  0
  4  5  1  0
  5  6  1  0
  6  7  2  0
  6  8  1  0
  8  9  1  0
  9 10  1  0
 10 11  1  0
 10 12  2  0
  9 13  2  0
 13 14  1  0
 14 15  2  0
 15 16  1  0
 16 17  2  0
 17 18  1  0
 17 19  1  0
 19 20  2  0
 20  8  1  0
 20 14  1  0
  1 21  1  0
  1 22  1  0
  1 23  1  0
  2 24  1  0
  2 25  1  0
  3 26  1  0
  3 27  1  0
  4 28  1  0
  4 29  1  0
 11 30  1  0
 13 31  1  0
 15 32  1  0
 16 33  1  0
 18 34  1  0
 18 35  1  0
 18 36  1  0
 19 37  1  0
M  CHG  1  11  -1
M  END
>  <UniqueID>  (27) 
27

>  <SMILES>  (27) 
CCCCOC(=O)n1c(C([NH-])=O)cc2ccc(C)cc21

>  <Energy>  (27) 
67.08345282942416

>  <Genealogy>  (27) 
CCCCOC(=O)n1c(C([NH-])=O)cc2ccc(C)cc21 (protonated)
CCCCOC(=O)n1c(C([NH-])=O)cc2ccc(C)cc21 (3D coordinates assigned)
CCCCOC(=O)n1c(C([NH-])=O)cc2ccc(C)cc21 (optimized conformer: 67.08345282942416 kcal/mol)

>  <smiles>  (27) 
CCCCOC(=O)n1c(C(N)=O)cc2ccc(C)cc21

>  <score_type>  (27) 
oracle

>  <origin>  (27) 
adg

>  <m_score__min__energy>  (27) 
-6.4000000000000004

>  <m_primary>  (27) 
energy

$$$$
27:0
     RDKit          3D

 40 42  0  0  0  0  0  0  0  0999 V2000
  144.7880  156.7480  134.2720 C   0  0  0  0  0  0  0  0  0  0  0  0
  143.7870  157.5470  133.5000 C   0  0  0  0  0  0  0  0  0  0  0  0
  144.1760  158.5450  132.8350 O   0  0  0  0  0  0  0  0  0  0  0  0
  142.3860  157.2430  133.5750 N   0  0  0  0  0  0  0  0  0  0  0  0
  141.3490  158.0980  133.8030 C   0  0  0  0  0  0  0  0  0  0  0  0
  141.4670  159.5250  134.1690 C   0  0  0  0  0  0  0  0  0  0  0  0
  142.1540  160.4440  133.3270 N   0  0  0  0  0  0  0  0  0  0  0  0
  140.9870  159.9290  135.2620 O   0  0  0  0  0  0  0  0  0  0  0  0
  140.1340  157.4200  133.7270 C   0  0  0  0  0  0  0  0  0  0  0  0
  140.4630  156.1110  133.4550 C   0  0  0  0  0  0  0  0  0  0  0  0
  139.6480  154.9980  133.2740 C   0  0  0  0  0  0  0  0  0  0  0  0
  140.2660  153.7680  132.9930 C   0  0  0  0  0  0  0  0  0  0  0  0
  141.6770  153.6670  132.8930 C   0  0  0  0  0  0  0  0  0  0  0  0
  142.2680  152.3850  132.6090 N   0  0  0  0  0  0  0  0  0  0  0  0
  141.9720  151.1550  133.3470 C   0  0  0  0  0  0  0  0  0  0  0  0
  141.0350  150.2740  132.5630 C   0  0  0  0  0  0  0  0  0  0  0  0
  139.7830  150.7630  132.1540 C   0  0  0  0  0  0  0  0  0  0  0  0
  138.9100  149.9470  131.4280 C   0  0  0  0  0  0  0  0  0  0  0  0
  139.2800  148.6400  131.0970 C   0  0  0  0  0  0  0  0  0  0  0  0
  138.3990  147.8380  130.3750 O   0  0  0  0  0  0  0  0  0  0  0  0
  140.5320  148.1510  131.4910 C   0  0  0  0  0  0  0  0  0  0  0  0
  141.4080  148.9640  132.2160 C   0  0  0  0  0  0  0  0  0  0  0  0
  142.4700  154.8270  133.0720 C   0  0  0  0  0  0  0  0  0  0  0  0
  141.8280  156.0320  133.3690 C   0  0  0  0  0  0  0  0  0  0  0  0
  144.6150  156.8861  135.3495 H   0  0  0  0  0  0  0  0  0  0  0  0
  144.6823  155.6832  134.0172 H   0  0  0  0  0  0  0  0  0  0  0  0
  145.8029  157.0870  134.0172 H   0  0  0  0  0  0  0  0  0  0  0  0
  142.7170  160.1110  132.5130 H   0  0  0  0  0  0  0  0  0  0  0  0
  139.1261  157.8411  133.8568 H   0  0  0  0  0  0  0  0  0  0  0  0
  138.5535  155.0786  133.3486 H   0  0  0  0  0  0  0  0  0  0  0  0
  139.6466  152.8705  132.8485 H   0  0  0  0  0  0  0  0  0  0  0  0
  142.9230  152.3070  131.7960 H   0  0  0  0  0  0  0  0  0  0  0  0
  142.9098  150.6104  133.5314 H   0  0  0  0  0  0  0  0  0  0  0  0
  141.4911  151.4221  134.2996 H   0  0  0  0  0  0  0  0  0  0  0  0
  139.4882  151.7924  132.4061 H   0  0  0  0  0  0  0  0  0  0  0  0
  137.9289  150.3346  131.1162 H   0  0  0  0  0  0  0  0  0  0  0  0
  137.6070  147.3880  130.8210 H   0  0  0  0  0  0  0  0  0  0  0  0
  140.8268  147.1241  131.2291 H   0  0  0  0  0  0  0  0  0  0  0  0
  142.3930  148.5771  132.5161 H   0  0  0  0  0  0  0  0  0  0  0  0
  143.5651  154.7803  132.9794 H   0  0  0  0  0  0  0  0  0  0  0  0
  1  2  1  0
  2  3  2  0
  2  4  1  0
  4  5  1  0
  5  6  1  0
  6  7  1  0
  6  8  2  0
  5  9  2  0
  9 10  1  0
 10 11  2  0
 11 12  1  0
 12 13  2  0
 13 14  1  0
 14 15  1  0
 15 16  1  0
 16 17  2  0
 17 18  1  0
 18 19  2  0
 19 20  1  0
 19 21  1  0
 21 22  2  0
 13 23  1  0
 23 24  2  0
 24  4  1  0
 24 10  1  0
 22 16  1  0
  1 25  1  0
  1 26  1  0
  1 27  1  0
  7 28  1  0
  9 29  1  0
 11 30  1  0
 12 31  1  0
 14 32  1  0
 15 33  1  0
 15 34  1  0
 17 35  1  0
 18 36  1  0
 20 37  1  0
 21 38  1  0
 22 39  1  0
 23 40  1  0
M  CHG  1   7  -1
M  END
>  <UniqueID>  (28) 
28

>  <SMILES>  (28) 
CC(=O)n1c(C([NH-])=O)cc2ccc(NCc3ccc(O)cc3)cc21

>  <Energy>  (28) 
79.87362793675878

>  <Genealogy>  (28) 
CC(=O)n1c(C([NH-])=O)cc2ccc(NCc3ccc(O)cc3)cc21 (protonated)
CC(=O)n1c(C([NH-])=O)cc2ccc(NCc3ccc(O)cc3)cc21 (3D coordinates assigned)
CC(=O)n1c(C([NH-])=O)cc2ccc(NCc3ccc(O)cc3)cc21 (optimized conformer: 79.87362793675878 kcal/mol)

>  <smiles>  (28) 
CC(=O)n1c(C(N)=O)cc2ccc(NCc3ccc(O)cc3)cc21

>  <score_type>  (28) 
oracle

>  <origin>  (28) 
adg

>  <m_score__min__energy>  (28) 
-8.0800000000000001

>  <m_primary>  (28) 
energy

$$$$
28:0
     RDKit          3D

 37 38  0  0  0  0  0  0  0  0999 V2000
  148.0810  160.4730  130.7250 C   0  0  0  0  0  0  0  0  0  0  0  0
  148.6420  159.6480  131.6170 C   0  0  0  0  0  0  0  0  0  0  0  0
  149.9810  159.0340  131.3200 C   0  0  0  0  0  0  0  0  0  0  0  0
  148.0080  159.4110  132.9380 C   0  0  0  0  0  0  0  0  0  0  0  0
  148.3760  160.0870  133.9360 O   0  0  0  0  0  0  0  0  0  0  0  0
  146.9890  158.4120  133.1080 N   0  0  0  0  0  0  0  0  0  0  0  0
  145.6730  158.6020  133.4070 C   0  0  0  0  0  0  0  0  0  0  0  0
  144.9870  159.9080  133.5020 C   0  0  0  0  0  0  0  0  0  0  0  0
  145.7170  161.1050  133.7580 N   0  0  0  0  0  0  0  0  0  0  0  0
  143.7410  159.9720  133.3270 O   0  0  0  0  0  0  0  0  0  0  0  0
  145.0270  157.3760  133.5580 C   0  0  0  0  0  0  0  0  0  0  0  0
  145.9970  156.4220  133.3420 C   0  0  0  0  0  0  0  0  0  0  0  0
  145.9110  155.0330  133.3600 C   0  0  0  0  0  0  0  0  0  0  0  0
  147.0810  154.2970  133.1020 C   0  0  0  0  0  0  0  0  0  0  0  0
  148.3100  154.9600  132.8540 C   0  0  0  0  0  0  0  0  0  0  0  0
  149.5470  154.1690  132.5350 C   0  0  0  0  0  0  0  0  0  0  0  0
  149.2920  152.7140  132.7700 C   0  0  0  0  0  0  0  0  0  0  0  0
  149.2310  152.2710  133.9500 O   0  0  0  0  0  0  0  0  0  0  0  0
  149.0650  151.8720  131.6770 O   0  0  0  0  0  0  0  0  0  0  0  0
  149.9870  150.8650  131.2820 C   0  0  0  0  0  0  0  0  0  0  0  0
  148.3560  156.3710  132.8450 C   0  0  0  0  0  0  0  0  0  0  0  0
  147.1720  157.0740  133.0810 C   0  0  0  0  0  0  0  0  0  0  0  0
  147.1010  160.9263  130.9354 H   0  0  0  0  0  0  0  0  0  0  0  0
  148.5998  160.6979  129.7815 H   0  0  0  0  0  0  0  0  0  0  0  0
  150.4940  158.7987  132.2642 H   0  0  0  0  0  0  0  0  0  0  0  0
  149.8402  158.1105  130.7392 H   0  0  0  0  0  0  0  0  0  0  0  0
  150.5889  159.7433  130.7392 H   0  0  0  0  0  0  0  0  0  0  0  0
  146.6430  161.2760  133.3080 H   0  0  0  0  0  0  0  0  0  0  0  0
  143.9671  157.2063  133.7987 H   0  0  0  0  0  0  0  0  0  0  0  0
  144.9572  154.5266  133.5696 H   0  0  0  0  0  0  0  0  0  0  0  0
  147.0428  153.1977  133.0924 H   0  0  0  0  0  0  0  0  0  0  0  0
  149.8196  154.3265  131.4810 H   0  0  0  0  0  0  0  0  0  0  0  0
  150.3696  154.5033  133.1843 H   0  0  0  0  0  0  0  0  0  0  0  0
  150.4195  150.3927  132.1763 H   0  0  0  0  0  0  0  0  0  0  0  0
  149.4651  150.1050  130.6820 H   0  0  0  0  0  0  0  0  0  0  0  0
  150.7900  151.3180  130.6820 H   0  0  0  0  0  0  0  0  0  0  0  0
  149.3001  156.9033  132.6570 H   0  0  0  0  0  0  0  0  0  0  0  0
  1  2  2  0
  2  3  1  0
  2  4  1  0
  4  5  2  0
  4  6  1  0
  6  7  1  0
  7  8  1  0
  8  9  1  0
  8 10  2  0
  7 11  2  0
 11 12  1  0
 12 13  2  0
 13 14  1  0
 14 15  2  0
 15 16  1  0
 16 17  1  0
 17 18  2  0
 17 19  1  0
 19 20  1  0
 15 21  1  0
 21 22  2  0
 22  6  1  0
 22 12  1  0
  1 23  1  0
  1 24  1  0
  3 25  1  0
  3 26  1  0
  3 27  1  0
  9 28  1  0
 11 29  1  0
 13 30  1  0
 14 31  1  0
 16 32  1  0
 16 33  1  0
 20 34  1  0
 20 35  1  0
 20 36  1  0
 21 37  1  0
M  CHG  1   9  -1
M  END
>  <UniqueID>  (29) 
29

>  <SMILES>  (29) 
C=C(C)C(=O)n1c(C([NH-])=O)cc2ccc(CC(=O)OC)cc21

>  <Energy>  (29) 
71.02077521785986

>  <Genealogy>  (29) 
C=C(C)C(=O)n1c(C([NH-])=O)cc2ccc(CC(=O)OC)cc21 (protonated)
C=C(C)C(=O)n1c(C([NH-])=O)cc2ccc(CC(=O)OC)cc21 (3D coordinates assigned)
C=C(C)C(=O)n1c(C([NH-])=O)cc2ccc(CC(=O)OC)cc21 (optimized conformer: 71.02077521785986 kcal/mol)

>  <smiles>  (29) 
C=C(C)C(=O)n1c(C(N)=O)cc2ccc(CC(=O)OC)cc21

>  <score_type>  (29) 
oracle

>  <origin>  (29) 
adg

>  <m_score__min__energy>  (29) 
-6.5

>  <m_primary>  (29) 
energy

$$$$
29:0
     RDKit          3D

 36 37  0  0  0  0  0  0  0  0999 V2000
  149.7560  154.2870  132.2190 N   0  0  0  0  0  0  0  0  0  0  0  0
  148.8680  154.0350  132.9170 C   0  0  0  0  0  0  0  0  0  0  0  0
  147.7420  153.7150  133.8040 C   0  0  0  0  0  0  0  0  0  0  0  0
  147.3480  154.9280  134.6420 C   0  0  0  0  0  0  0  0  0  0  0  0
  146.3910  155.7130  133.9390 O   0  0  0  0  0  0  0  0  0  0  0  0
  146.7190  156.5080  132.8380 C   0  0  0  0  0  0  0  0  0  0  0  0
  147.0020  155.9740  131.7310 O   0  0  0  0  0  0  0  0  0  0  0  0
  146.7000  157.9380  132.9630 N   0  0  0  0  0  0  0  0  0  0  0  0
  147.6670  158.8290  132.5990 C   0  0  0  0  0  0  0  0  0  0  0  0
  149.0270  158.4910  132.1310 C   0  0  0  0  0  0  0  0  0  0  0  0
  149.5650  157.1850  132.3150 N   0  0  0  0  0  0  0  0  0  0  0  0
  149.7440  159.3850  131.6040 O   0  0  0  0  0  0  0  0  0  0  0  0
  147.2340  160.1350  132.8140 C   0  0  0  0  0  0  0  0  0  0  0  0
  145.9650  160.0180  133.3350 C   0  0  0  0  0  0  0  0  0  0  0  0
  145.0680  161.0040  133.7370 C   0  0  0  0  0  0  0  0  0  0  0  0
  143.8150  160.5960  134.2260 C   0  0  0  0  0  0  0  0  0  0  0  0
  143.4790  159.2200  134.2850 C   0  0  0  0  0  0  0  0  0  0  0  0
  142.1480  158.7890  134.8340 C   0  0  0  0  0  0  0  0  0  0  0  0
  140.8340  159.0990  133.6140 P   0  0  1  0  0  0  0  0  0  0  0  0
  139.4960  158.6870  134.1860 O   0  0  0  0  0  0  0  0  0  0  0  0
  140.7960  160.7450  133.2300 O   0  0  0  0  0  0  0  0  0  0  0  0
  141.1450  158.2050  132.2110 O   0  0  0  0  0  0  0  0  0  0  0  0
  144.4170  158.2490  133.8720 C   0  0  0  0  0  0  0  0  0  0  0  0
  145.6660  158.6830  133.4140 C   0  0  0  0  0  0  0  0  0  0  0  0
  146.8809  153.4029  133.1948 H   0  0  0  0  0  0  0  0  0  0  0  0
  148.0473  152.9037  134.4813 H   0  0  0  0  0  0  0  0  0  0  0  0
  146.9127  154.5881  135.5933 H   0  0  0  0  0  0  0  0  0  0  0  0
  148.2421  155.5378  134.8387 H   0  0  0  0  0  0  0  0  0  0  0  0
  149.1290  156.3540  131.8570 H   0  0  0  0  0  0  0  0  0  0  0  0
  147.7883  161.0631  132.6107 H   0  0  0  0  0  0  0  0  0  0  0  0
  145.3319  162.0700  133.6738 H   0  0  0  0  0  0  0  0  0  0  0  0
  143.0896  161.3501  134.5655 H   0  0  0  0  0  0  0  0  0  0  0  0
  142.1817  157.7144  135.0664 H   0  0  0  0  0  0  0  0  0  0  0  0
  141.9331  159.3644  135.7466 H   0  0  0  0  0  0  0  0  0  0  0  0
  141.9460  158.6300  131.8120 H   0  0  0  0  0  0  0  0  0  0  0  0
  144.1719  157.1773  133.9093 H   0  0  0  0  0  0  0  0  0  0  0  0
  1  2  3  0
  2  3  1  0
  3  4  1  0
  4  5  1  0
  5  6  1  0
  6  7  2  0
  6  8  1  0
  8  9  1  0
  9 10  1  0
 10 11  1  0
 10 12  2  0
  9 13  2  0
 13 14  1  0
 14 15  2  0
 15 16  1  0
 16 17  2  0
 17 18  1  0
 18 19  1  0
 19 20  2  0
 19 21  1  6
 19 22  1  0
 17 23  1  0
 23 24  2  0
 24  8  1  0
 24 14  1  0
  3 25  1  0
  3 26  1  0
  4 27  1  0
  4 28  1  0
 11 29  1  0
 13 30  1  0
 15 31  1  0
 16 32  1  0
 18 33  1  0
 18 34  1  0
 22 35  1  0
 23 36  1  0
M  CHG  2  11  -1  21  -1
M  END
>  <UniqueID>  (30) 
30

>  <SMILES>  (30) 
N#CCCOC(=O)n1c(C([NH-])=O)cc2ccc(C[P@@](=O)([O-])O)cc21

>  <Energy>  (30) 
62.875095592717535

>  <Genealogy>  (30) 
N#CCCOC(=O)n1c(C([NH-])=O)cc2ccc(CP(=O)([O-])O)cc21 (protonated)
N#CCCOC(=O)n1c(C([NH-])=O)cc2ccc(C[P@@](=O)([O-])O)cc21 (chirality)
N#CCCOC(=O)n1c(C([NH-])=O)cc2ccc(C[P@@](=O)([O-])O)cc21 (3D coordinates assigned)
N#CCCOC(=O)n1c(C([NH-])=O)cc2ccc(C[P@@](=O)([O-])O)cc21 (optimized conformer: 62.875095592717535 kcal/mol)

>  <smiles>  (30) 
N#CCCOC(=O)n1c(C(N)=O)cc2ccc(CP(=O)(O)O)cc21

>  <score_type>  (30) 
oracle

>  <origin>  (30) 
adg

>  <m_score__min__energy>  (30) 
-7.1200000000000001

>  <m_primary>  (30) 
energy

$$$$
30:0
     RDKit          3D

 30 32  0  0  0  0  0  0  0  0999 V2000
  145.1520  162.2480  134.5270 C   0  0  0  0  0  0  0  0  0  0  0  0
  144.2950  161.7220  133.5200 O   0  0  0  0  0  0  0  0  0  0  0  0
  143.4960  160.5940  133.7250 C   0  0  0  0  0  0  0  0  0  0  0  0
  142.2410  160.7080  133.7970 O   0  0  0  0  0  0  0  0  0  0  0  0
  144.1060  159.2970  133.8280 N   0  0  0  0  0  0  0  0  0  0  0  0
  143.5760  158.1630  134.3700 C   0  0  0  0  0  0  0  0  0  0  0  0
  142.2920  158.0630  135.0960 C   0  0  0  0  0  0  0  0  0  0  0  0
  141.9520  159.0460  136.0720 N   0  0  0  0  0  0  0  0  0  0  0  0
  141.4760  157.1400  134.8400 O   0  0  0  0  0  0  0  0  0  0  0  0
  144.4580  157.0930  134.2210 C   0  0  0  0  0  0  0  0  0  0  0  0
  145.5540  157.6130  133.5730 C   0  0  0  0  0  0  0  0  0  0  0  0
  146.7280  156.9910  133.1630 C   0  0  0  0  0  0  0  0  0  0  0  0
  147.6860  157.7660  132.4890 C   0  0  0  0  0  0  0  0  0  0  0  0
  147.4550  159.1420  132.2280 C   0  0  0  0  0  0  0  0  0  0  0  0
  148.4800  159.9320  131.5040 C   0  0  0  0  0  0  0  0  0  0  0  0
  149.5370  159.3960  130.8630 N   0  0  0  0  0  0  0  0  0  0  0  0
  150.1970  160.4290  130.3570 N   0  0  0  0  0  0  0  0  0  0  0  0
  149.5780  161.5570  130.6720 N   0  0  0  0  0  0  0  0  0  0  0  0
  148.5040  161.2720  131.3860 N   0  0  0  0  0  0  0  0  0  0  0  0
  146.2460  159.7370  132.6610 C   0  0  0  0  0  0  0  0  0  0  0  0
  145.3190  158.9440  133.3480 C   0  0  0  0  0  0  0  0  0  0  0  0
  144.7474  161.9996  135.5193 H   0  0  0  0  0  0  0  0  0  0  0  0
  146.1554  161.8100  134.4200 H   0  0  0  0  0  0  0  0  0  0  0  0
  145.2157  163.3409  134.4200 H   0  0  0  0  0  0  0  0  0  0  0  0
  141.9140  160.0590  135.8220 H   0  0  0  0  0  0  0  0  0  0  0  0
  144.3088  156.0544  134.5514 H   0  0  0  0  0  0  0  0  0  0  0  0
  146.9015  155.9229  133.3608 H   0  0  0  0  0  0  0  0  0  0  0  0
  148.6268  157.3010  132.1594 H   0  0  0  0  0  0  0  0  0  0  0  0
  147.8400  161.9810  131.7670 H   0  0  0  0  0  0  0  0  0  0  0  0
  146.0393  160.7989  132.4622 H   0  0  0  0  0  0  0  0  0  0  0  0
  1  2  1  0
  2  3  1  0
  3  4  2  0
  3  5  1  0
  5  6  1  0
  6  7  1  0
  7  8  1  0
  7  9  2  0
  6 10  2  0
 10 11  1  0
 11 12  2  0
 12 13  1  0
 13 14  2  0
 14 15  1  0
 15 16  2  0
 16 17  1  0
 17 18  1  0
 18 19  2  0
 14 20  1  0
 20 21  2  0
 21  5  1  0
 21 11  1  0
 19 15  1  0
  1 22  1  0
  1 23  1  0
  1 24  1  0
  8 25  1  0
 10 26  1  0
 12 27  1  0
 13 28  1  0
 19 29  1  0
 20 30  1  0
M  CHG  3   8  -1  17  -1  19   1
M  END
>  <UniqueID>  (31) 
31

>  <SMILES>  (31) 
COC(=O)n1c(C([NH-])=O)cc2ccc(-c3n[n-]n[nH+]3)cc21

>  <Energy>  (31) 
109.97724061127047

>  <Genealogy>  (31) 
COC(=O)n1c(C([NH-])=O)cc2ccc(-c3n[n-]n[nH+]3)cc21 (protonated)
COC(=O)n1c(C([NH-])=O)cc2ccc(-c3n[n-]n[nH+]3)cc21 (3D coordinates assigned)
COC(=O)n1c(C([NH-])=O)cc2ccc(-c3n[n-]n[nH+]3)cc21 (optimized conformer: 109.97724061127047 kcal/mol)

>  <smiles>  (31) 
COC(=O)n1c(C(N)=O)cc2ccc(-c3nn[nH]n3)cc21

>  <score_type>  (31) 
oracle

>  <origin>  (31) 
adg

>  <m_score__min__energy>  (31) 
-7.0800000000000001

>  <m_primary>  (31) 
energy

$$$$
31:0
     RDKit          3D

 31 32  0  0  0  0  0  0  0  0999 V2000
  148.6920  152.2470  132.8250 C   0  0  0  0  0  0  0  0  0  0  0  0
  147.9680  153.4700  132.8420 O   0  0  0  0  0  0  0  0  0  0  0  0
  148.5950  154.7170  132.9240 C   0  0  0  0  0  0  0  0  0  0  0  0
  149.8020  154.8450  132.5800 O   0  0  0  0  0  0  0  0  0  0  0  0
  147.8540  155.8610  133.3780 N   0  0  0  0  0  0  0  0  0  0  0  0
  146.7400  155.8730  134.1630 C   0  0  0  0  0  0  0  0  0  0  0  0
  146.1440  154.7040  134.8430 C   0  0  0  0  0  0  0  0  0  0  0  0
  146.9890  153.7340  135.4570 N   0  0  0  0  0  0  0  0  0  0  0  0
  144.8970  154.5310  134.8530 O   0  0  0  0  0  0  0  0  0  0  0  0
  146.2650  157.1740  134.3170 C   0  0  0  0  0  0  0  0  0  0  0  0
  147.1340  157.9670  133.6040 C   0  0  0  0  0  0  0  0  0  0  0  0
  147.1350  159.3460  133.4120 C   0  0  0  0  0  0  0  0  0  0  0  0
  148.1450  159.8980  132.6050 C   0  0  0  0  0  0  0  0  0  0  0  0
  149.1180  159.0650  131.9970 C   0  0  0  0  0  0  0  0  0  0  0  0
  150.2050  159.6700  131.1530 C   0  0  0  0  0  0  0  0  0  0  0  0
  149.6340  160.7200  130.2550 C   0  0  0  0  0  0  0  0  0  0  0  0
  149.5070  160.4710  128.8570 N   0  0  0  0  0  0  0  0  0  0  0  0
  149.2260  161.8100  130.7380 O   0  0  0  0  0  0  0  0  0  0  0  0
  149.0910  157.6710  132.2230 C   0  0  0  0  0  0  0  0  0  0  0  0
  148.0840  157.1520  133.0460 C   0  0  0  0  0  0  0  0  0  0  0  0
  148.8851  151.9208  133.8576 H   0  0  0  0  0  0  0  0  0  0  0  0
  148.1027  151.4793  132.3021 H   0  0  0  0  0  0  0  0  0  0  0  0
  149.6485  152.3944  132.3021 H   0  0  0  0  0  0  0  0  0  0  0  0
  147.4230  152.9680  134.8970 H   0  0  0  0  0  0  0  0  0  0  0  0
  145.3823  157.4981  134.8877 H   0  0  0  0  0  0  0  0  0  0  0  0
  146.3691  159.9838  133.8774 H   0  0  0  0  0  0  0  0  0  0  0  0
  148.1808  160.9855  132.4438 H   0  0  0  0  0  0  0  0  0  0  0  0
  150.9635  160.1242  131.8075 H   0  0  0  0  0  0  0  0  0  0  0  0
  150.6644  158.8818  130.5385 H   0  0  0  0  0  0  0  0  0  0  0  0
  149.2250  161.2320  128.2010 H   0  0  0  0  0  0  0  0  0  0  0  0
  149.8415  157.0103  131.7645 H   0  0  0  0  0  0  0  0  0  0  0  0
  1  2  1  0
  2  3  1  0
  3  4  2  0
  3  5  1  0
  5  6  1  0
  6  7  1  0
  7  8  1  0
  7  9  2  0
  6 10  2  0
 10 11  1  0
 11 12  2  0
 12 13  1  0
 13 14  2  0
 14 15  1  0
 15 16  1  0
 16 17  1  0
 16 18  2  0
 14 19  1  0
 19 20  2  0
 20  5  1  0
 20 11  1  0
  1 21  1  0
  1 22  1  0
  1 23  1  0
  8 24  1  0
 10 25  1  0
 12 26  1  0
 13 27  1  0
 15 28  1  0
 15 29  1  0
 17 30  1  0
 19 31  1  0
M  CHG  2   8  -1  17  -1
M  END
>  <UniqueID>  (32) 
32

>  <SMILES>  (32) 
COC(=O)n1c(C([NH-])=O)cc2ccc(CC([NH-])=O)cc21

>  <Energy>  (32) 
65.63045994115319

>  <Genealogy>  (32) 
COC(=O)n1c(C([NH-])=O)cc2ccc(CC([NH-])=O)cc21 (protonated)
COC(=O)n1c(C([NH-])=O)cc2ccc(CC([NH-])=O)cc21 (3D coordinates assigned)
COC(=O)n1c(C([NH-])=O)cc2ccc(CC([NH-])=O)cc21 (optimized conformer: 65.63045994115319 kcal/mol)

>  <smiles>  (32) 
COC(=O)n1c(C(N)=O)cc2ccc(CC(N)=O)cc21

>  <score_type>  (32) 
oracle

>  <origin>  (32) 
adg

>  <m_score__min__energy>  (32) 
-6.1699999999999999

>  <m_primary>  (32) 
energy

$$$$
32:0
     RDKit          3D

 43 45  0  0  0  0  0  0  0  0999 V2000
  149.5570  162.5180  129.9950 C   0  0  0  0  0  0  0  0  0  0  0  0
  149.0530  161.4760  130.8220 O   0  0  0  0  0  0  0  0  0  0  0  0
  149.6770  160.2270  130.9300 C   0  0  0  0  0  0  0  0  0  0  0  0
  150.3480  159.7670  129.9630 O   0  0  0  0  0  0  0  0  0  0  0  0
  149.5700  159.4720  132.1550 N   0  0  2  0  0  0  0  0  0  0  0  0
  149.4760  158.0120  131.8650 C   0  0  0  0  0  0  0  0  0  0  0  0
  148.0580  157.4540  132.0490 C   0  0  0  0  0  0  0  0  0  0  0  0
  147.5910  157.6620  133.5040 C   0  0  2  0  0  0  0  0  0  0  0  0
  146.0960  157.4250  133.6290 C   0  0  0  0  0  0  0  0  0  0  0  0
  145.5870  156.1000  133.6120 C   0  0  0  0  0  0  0  0  0  0  0  0
  144.2060  155.8580  133.7060 C   0  0  0  0  0  0  0  0  0  0  0  0
  143.3580  156.9540  133.8200 C   0  0  0  0  0  0  0  0  0  0  0  0
  141.9850  157.0050  133.9000 C   0  0  0  0  0  0  0  0  0  0  0  0
  141.6700  158.3600  133.9840 C   0  0  0  0  0  0  0  0  0  0  0  0
  140.2930  158.8630  134.1700 C   0  0  0  0  0  0  0  0  0  0  0  0
  139.5940  158.5860  135.3820 N   0  0  0  0  0  0  0  0  0  0  0  0
  139.7390  159.5680  133.2860 O   0  0  0  0  0  0  0  0  0  0  0  0
  142.8040  159.1180  133.9490 N   0  0  0  0  0  0  0  0  0  0  0  0
  142.9090  160.5510  133.9490 C   0  0  0  0  0  0  0  0  0  0  0  0
  141.8990  161.2630  133.7070 O   0  0  0  0  0  0  0  0  0  0  0  0
  144.1310  161.1650  134.1910 O   0  0  0  0  0  0  0  0  0  0  0  0
  143.8280  158.2410  133.8520 C   0  0  0  0  0  0  0  0  0  0  0  0
  145.1970  158.5130  133.7420 C   0  0  0  0  0  0  0  0  0  0  0  0
  148.0180  159.0420  134.0700 C   0  0  0  0  0  0  0  0  0  0  0  0
  148.4500  160.0150  132.9630 C   0  0  0  0  0  0  0  0  0  0  0  0
  149.9494  163.3293  130.6257 H   0  0  0  0  0  0  0  0  0  0  0  0
  150.3642  162.1241  129.3599 H   0  0  0  0  0  0  0  0  0  0  0  0
  148.7471  162.9063  129.3599 H   0  0  0  0  0  0  0  0  0  0  0  0
  150.4510  159.6240  132.7030 H   0  0  0  0  0  0  0  0  0  0  0  0
  149.7878  157.8406  130.8241 H   0  0  0  0  0  0  0  0  0  0  0  0
  150.1297  157.4917  132.5805 H   0  0  0  0  0  0  0  0  0  0  0  0
  147.3702  157.9766  131.3680 H   0  0  0  0  0  0  0  0  0  0  0  0
  148.0627  156.3775  131.8229 H   0  0  0  0  0  0  0  0  0  0  0  0
  148.1004  156.9115  134.1263 H   0  0  0  0  0  0  0  0  0  0  0  0
  146.2823  155.2521  133.5242 H   0  0  0  0  0  0  0  0  0  0  0  0
  143.8079  154.8327  133.6899 H   0  0  0  0  0  0  0  0  0  0  0  0
  141.2849  156.1565  133.8980 H   0  0  0  0  0  0  0  0  0  0  0  0
  139.2640  159.3600  136.0000 H   0  0  0  0  0  0  0  0  0  0  0  0
  145.5661  159.5492  133.7433 H   0  0  0  0  0  0  0  0  0  0  0  0
  147.1684  159.4797  134.6146 H   0  0  0  0  0  0  0  0  0  0  0  0
  148.8801  158.8823  134.7343 H   0  0  0  0  0  0  0  0  0  0  0  0
  147.5923  160.2034  132.3006 H   0  0  0  0  0  0  0  0  0  0  0  0
  148.7937  160.9442  133.4409 H   0  0  0  0  0  0  0  0  0  0  0  0
  1  2  1  0
  2  3  1  0
  3  4  2  0
  3  5  1  0
  5  6  1  0
  6  7  1  0
  7  8  1  0
  8  9  1  0
  9 10  2  0
 10 11  1  0
 11 12  2  0
 12 13  1  0
 13 14  2  0
 14 15  1  0
 15 16  1  0
 15 17  2  0
 14 18  1  0
 18 19  1  0
 19 20  2  0
 19 21  1  0
 18 22  1  0
 22 23  2  0
  8 24  1  0
 24 25  1  0
 25  5  1  0
 23  9  1  0
 22 12  1  0
  1 26  1  0
  1 27  1  0
  1 28  1  0
  5 29  1  1
  6 30  1  0
  6 31  1  0
  7 32  1  0
  7 33  1  0
  8 34  1  1
 10 35  1  0
 11 36  1  0
 13 37  1  0
 16 38  1  0
 23 39  1  0
 24 40  1  0
 24 41  1  0
 25 42  1  0
 25 43  1  0
M  CHG  3   5   1  16  -1  21  -1
M  END
>  <UniqueID>  (33) 
33

>  <SMILES>  (33) 
COC(=O)[NH+]1CCC(c2ccc3cc(C([NH-])=O)n(C(=O)[O-])c3c2)CC1

>  <Energy>  (33) 
91.33125272933053

>  <Genealogy>  (33) 
COC(=O)[NH+]1CCC(c2ccc3cc(C([NH-])=O)n(C(=O)[O-])c3c2)CC1 (protonated)
COC(=O)[NH+]1CCC(c2ccc3cc(C([NH-])=O)n(C(=O)[O-])c3c2)CC1 (3D coordinates assigned)
COC(=O)[NH+]1CCC(c2ccc3cc(C([NH-])=O)n(C(=O)[O-])c3c2)CC1 (nonaromatic ring conformer: 91.33125272933053 kcal/mol)

>  <smiles>  (33) 
COC(=O)N1CCC(c2ccc3cc(C(N)=O)n(C(=O)O)c3c2)CC1

>  <score_type>  (33) 
oracle

>  <origin>  (33) 
adg

>  <m_score__min__energy>  (33) 
-7.1100000000000003

>  <m_primary>  (33) 
energy

$$$$
33:0
     RDKit          3D

 44 45  0  0  0  0  0  0  0  0999 V2000
  149.5580  158.5980  131.4900 C   0  0  0  0  0  0  0  0  0  0  0  0
  148.6360  159.6080  130.7950 C   0  0  2  0  0  0  0  0  0  0  0  0
  149.3360  160.9650  130.6350 C   0  0  0  0  0  0  0  0  0  0  0  0
  148.5110  162.0110  131.0760 O   0  0  0  0  0  0  0  0  0  0  0  0
  147.4220  159.7960  131.5860 N   0  0  0  0  0  0  0  0  0  0  0  0
  147.3560  160.0940  132.9880 C   0  0  0  0  0  0  0  0  0  0  0  0
  148.4350  160.1660  133.6350 O   0  0  0  0  0  0  0  0  0  0  0  0
  146.0580  160.4180  133.6870 C   0  0  0  0  0  0  0  0  0  0  0  0
  145.0900  159.2680  133.5940 C   0  0  0  0  0  0  0  0  0  0  0  0
  145.5550  157.9370  133.7400 C   0  0  0  0  0  0  0  0  0  0  0  0
  144.6610  156.8550  133.6740 C   0  0  0  0  0  0  0  0  0  0  0  0
  143.3130  157.1350  133.4750 C   0  0  0  0  0  0  0  0  0  0  0  0
  142.2400  156.2810  133.3540 C   0  0  0  0  0  0  0  0  0  0  0  0
  141.1310  157.1030  133.1670 C   0  0  0  0  0  0  0  0  0  0  0  0
  139.7400  156.6050  133.0850 C   0  0  0  0  0  0  0  0  0  0  0  0
  138.6440  157.5160  132.9830 N   0  0  0  0  0  0  0  0  0  0  0  0
  139.5120  155.3660  133.0730 O   0  0  0  0  0  0  0  0  0  0  0  0
  141.5030  158.4150  133.1700 N   0  0  0  0  0  0  0  0  0  0  0  0
  140.6700  159.5630  132.9380 C   0  0  0  0  0  0  0  0  0  0  0  0
  140.6200  160.4890  133.7930 O   0  0  0  0  0  0  0  0  0  0  0  0
  139.9140  159.6660  131.7290 N   0  0  0  0  0  0  0  0  0  0  0  0
  138.8910  160.6800  131.5210 C   0  0  0  0  0  0  0  0  0  0  0  0
  137.6430  160.0280  131.0280 C   0  0  0  0  0  0  0  0  0  0  0  0
  137.0960  160.4270  129.9660 O   0  0  0  0  0  0  0  0  0  0  0  0
  137.1090  158.9440  131.7120 O   0  0  0  0  0  0  0  0  0  0  0  0
  142.8420  158.4180  133.3600 C   0  0  0  0  0  0  0  0  0  0  0  0
  143.7120  159.5140  133.4040 C   0  0  0  0  0  0  0  0  0  0  0  0
  149.4616  158.7036  132.5807 H   0  0  0  0  0  0  0  0  0  0  0  0
  149.2734  157.5776  131.1939 H   0  0  0  0  0  0  0  0  0  0  0  0
  150.6001  158.7886  131.1939 H   0  0  0  0  0  0  0  0  0  0  0  0
  148.3833  159.2123  129.8002 H   0  0  0  0  0  0  0  0  0  0  0  0
  150.2630  160.9637  131.2272 H   0  0  0  0  0  0  0  0  0  0  0  0
  149.5600  161.1205  129.5693 H   0  0  0  0  0  0  0  0  0  0  0  0
  148.0750  161.6950  131.9100 H   0  0  0  0  0  0  0  0  0  0  0  0
  146.2637  160.6295  134.7467 H   0  0  0  0  0  0  0  0  0  0  0  0
  145.6073  161.2943  133.1981 H   0  0  0  0  0  0  0  0  0  0  0  0
  146.6260  157.7493  133.9066 H   0  0  0  0  0  0  0  0  0  0  0  0
  145.0160  155.8189  133.7765 H   0  0  0  0  0  0  0  0  0  0  0  0
  142.2552  155.1819  133.3961 H   0  0  0  0  0  0  0  0  0  0  0  0
  137.6700  157.1530  132.8920 H   0  0  0  0  0  0  0  0  0  0  0  0
  138.7890  158.5470  133.0410 H   0  0  0  0  0  0  0  0  0  0  0  0
  138.6858  161.1951  132.4710 H   0  0  0  0  0  0  0  0  0  0  0  0
  139.2428  161.4111  130.7782 H   0  0  0  0  0  0  0  0  0  0  0  0
  143.3322  160.5404  133.2935 H   0  0  0  0  0  0  0  0  0  0  0  0
  1  2  1  0
  2  3  1  0
  3  4  1  0
  2  5  1  0
  5  6  1  0
  6  7  2  0
  6  8  1  0
  8  9  1  0
  9 10  2  0
 10 11  1  0
 11 12  2  0
 12 13  1  0
 13 14  2  0
 14 15  1  0
 15 16  1  0
 15 17  2  0
 14 18  1  0
 18 19  1  0
 19 20  2  0
 19 21  1  0
 21 22  1  0
 22 23  1  0
 23 24  2  0
 23 25  1  0
 18 26  1  0
 26 27  2  0
 27  9  1  0
 26 12  1  0
  1 28  1  0
  1 29  1  0
  1 30  1  0
  2 31  1  6
  3 32  1  0
  3 33  1  0
  4 34  1  0
  8 35  1  0
  8 36  1  0
 10 37  1  0
 11 38  1  0
 13 39  1  0
 16 40  1  0
 16 41  1  0
 22 42  1  0
 22 43  1  0
 27 44  1  0
M  CHG  3   5  -1  21  -1  25  -1
M  END
>  <UniqueID>  (34) 
34

>  <SMILES>  (34) 
C[C@H](CO)[N-]C(=O)Cc1ccc2cc(C(N)=O)n(C(=O)[N-]CC(=O)[O-])c2c1

>  <Energy>  (34) 
74.07733095752371

>  <Genealogy>  (34) 
CC(CO)[N-]C(=O)Cc1ccc2cc(C(N)=O)n(C(=O)[N-]CC(=O)[O-])c2c1 (protonated)
C[C@H](CO)[N-]C(=O)Cc1ccc2cc(C(N)=O)n(C(=O)[N-]CC(=O)[O-])c2c1 (chirality)
C[C@H](CO)[N-]C(=O)Cc1ccc2cc(C(N)=O)n(C(=O)[N-]CC(=O)[O-])c2c1 (3D coordinates assigned)
C[C@H](CO)[N-]C(=O)Cc1ccc2cc(C(N)=O)n(C(=O)[N-]CC(=O)[O-])c2c1 (optimized conformer: 74.07733095752371 kcal/mol)

>  <smiles>  (34) 
CC(CO)NC(=O)Cc1ccc2cc(C(N)=O)n(C(=O)NCC(=O)O)c2c1

>  <score_type>  (34) 
oracle

>  <origin>  (34) 
adg

>  <m_score__min__energy>  (34) 
-7.5700000000000003

>  <m_primary>  (34) 
energy

$$$$
34:0
     RDKit          3D

 25 26  0  0  0  0  0  0  0  0999 V2000
  143.5260  155.3960  132.9250 N   0  0  0  0  0  0  0  0  0  0  0  0
  143.7540  154.1500  133.5850 C   0  0  0  0  0  0  0  0  0  0  0  0
  144.6150  154.0900  134.5020 O   0  0  0  0  0  0  0  0  0  0  0  0
  142.9660  152.9490  133.2270 C   0  0  0  0  0  0  0  0  0  0  0  0
  143.5250  151.6890  133.0230 C   0  0  0  0  0  0  0  0  0  0  0  0
  142.4830  150.8890  132.6130 C   0  0  0  0  0  0  0  0  0  0  0  0
  142.4710  149.5400  132.2760 C   0  0  0  0  0  0  0  0  0  0  0  0
  141.2430  148.9640  131.9060 C   0  0  0  0  0  0  0  0  0  0  0  0
  140.0570  149.7380  131.9000 C   0  0  0  0  0  0  0  0  0  0  0  0
  138.7570  149.1170  131.4820 C   0  0  0  0  0  0  0  0  0  0  0  0
  138.7530  148.8340  129.5660 Br  0  0  0  0  0  0  0  0  0  0  0  0
  140.1100  151.1090  132.2360 C   0  0  0  0  0  0  0  0  0  0  0  0
  141.3490  151.6610  132.5820 C   0  0  0  0  0  0  0  0  0  0  0  0
  141.6310  152.9300  132.9560 N   0  0  0  0  0  0  0  0  0  0  0  0
  140.6920  154.0090  133.1110 C   0  0  0  0  0  0  0  0  0  0  0  0
  141.0980  155.1760  133.3540 O   0  0  0  0  0  0  0  0  0  0  0  0
  139.3290  153.7780  132.9760 O   0  0  0  0  0  0  0  0  0  0  0  0
  144.0600  156.2460  133.2130 H   0  0  0  0  0  0  0  0  0  0  0  0
  142.8590  155.4730  132.1260 H   0  0  0  0  0  0  0  0  0  0  0  0
  144.5763  151.3959  133.1605 H   0  0  0  0  0  0  0  0  0  0  0  0
  143.3939  148.9419  132.2982 H   0  0  0  0  0  0  0  0  0  0  0  0
  141.2030  147.9029  131.6187 H   0  0  0  0  0  0  0  0  0  0  0  0
  138.6318  148.1516  131.9942 H   0  0  0  0  0  0  0  0  0  0  0  0
  137.9293  149.7893  131.7521 H   0  0  0  0  0  0  0  0  0  0  0  0
  139.2004  151.7274  132.2260 H   0  0  0  0  0  0  0  0  0  0  0  0
  1  2  1  0
  2  3  2  0
  2  4  1  0
  4  5  2  0
  5  6  1  0
  6  7  2  0
  7  8  1  0
  8  9  2  0
  9 10  1  0
 10 11  1  0
  9 12  1  0
 12 13  2  0
 13 14  1  0
 14 15  1  0
 15 16  2  0
 15 17  1  0
 14  4  1  0
 13  6  1  0
  1 18  1  0
  1 19  1  0
  5 20  1  0
  7 21  1  0
  8 22  1  0
 10 23  1  0
 10 24  1  0
 12 25  1  0
M  CHG  1  17  -1
M  END
>  <UniqueID>  (35) 
35

>  <SMILES>  (35) 
NC(=O)c1cc2ccc(CBr)cc2n1C(=O)[O-]

>  <Energy>  (35) 
63.6106335425574

>  <Genealogy>  (35) 
NC(=O)c1cc2ccc(CBr)cc2n1C(=O)[O-] (protonated)
NC(=O)c1cc2ccc(CBr)cc2n1C(=O)[O-] (3D coordinates assigned)
NC(=O)c1cc2ccc(CBr)cc2n1C(=O)[O-] (optimized conformer: 63.6106335425574 kcal/mol)

>  <smiles>  (35) 
NC(=O)c1cc2ccc(CBr)cc2n1C(=O)O

>  <score_type>  (35) 
oracle

>  <origin>  (35) 
adg

>  <m_score__min__energy>  (35) 
-6.3799999999999999

>  <m_primary>  (35) 
energy

$$$$
35:0
     RDKit          3D

 33 34  0  0  0  0  0  0  0  0999 V2000
  149.6860  151.1900  133.3460 C   0  0  0  0  0  0  0  0  0  0  0  0
  149.1840  151.9340  132.3560 C   0  0  0  0  0  0  0  0  0  0  0  0
  148.1940  153.0390  132.6120 C   0  0  0  0  0  0  0  0  0  0  0  0
  148.8630  154.3630  132.8650 C   0  0  0  0  0  0  0  0  0  0  0  0
  150.0430  154.5650  132.4650 O   0  0  0  0  0  0  0  0  0  0  0  0
  148.1240  155.4420  133.4540 N   0  0  0  0  0  0  0  0  0  0  0  0
  147.1160  155.3560  134.3660 C   0  0  0  0  0  0  0  0  0  0  0  0
  146.6450  154.1180  135.0260 C   0  0  0  0  0  0  0  0  0  0  0  0
  147.2180  153.6740  136.2530 N   0  0  0  0  0  0  0  0  0  0  0  0
  145.7040  153.4570  134.5110 O   0  0  0  0  0  0  0  0  0  0  0  0
  146.6000  156.6210  134.6420 C   0  0  0  0  0  0  0  0  0  0  0  0
  147.3290  157.4910  133.8630 C   0  0  0  0  0  0  0  0  0  0  0  0
  147.2250  158.8720  133.7220 C   0  0  0  0  0  0  0  0  0  0  0  0
  148.0880  159.5080  132.8150 C   0  0  0  0  0  0  0  0  0  0  0  0
  149.0340  158.7590  132.0720 C   0  0  0  0  0  0  0  0  0  0  0  0
  149.9230  159.4450  131.0720 C   0  0  0  0  0  0  0  0  0  0  0  0
  149.1920  160.5710  130.4070 C   0  0  0  0  0  0  0  0  0  0  0  0
  149.6390  161.7060  130.4440 O   0  0  0  0  0  0  0  0  0  0  0  0
  149.1020  157.3570  132.2320 C   0  0  0  0  0  0  0  0  0  0  0  0
  148.2410  156.7530  133.1550 C   0  0  0  0  0  0  0  0  0  0  0  0
  150.4077  150.3907  133.1217 H   0  0  0  0  0  0  0  0  0  0  0  0
  149.3776  151.3769  134.3852 H   0  0  0  0  0  0  0  0  0  0  0  0
  149.5037  151.7331  131.3229 H   0  0  0  0  0  0  0  0  0  0  0  0
  147.5389  153.1366  131.7337 H   0  0  0  0  0  0  0  0  0  0  0  0
  147.6229  152.7746  133.5142 H   0  0  0  0  0  0  0  0  0  0  0  0
  146.7180  152.9910  136.8640 H   0  0  0  0  0  0  0  0  0  0  0  0
  145.7834  156.8712  135.3353 H   0  0  0  0  0  0  0  0  0  0  0  0
  146.4894  159.4474  134.3032 H   0  0  0  0  0  0  0  0  0  0  0  0
  148.0291  160.5981  132.6800 H   0  0  0  0  0  0  0  0  0  0  0  0
  150.8090  159.8432  131.5882 H   0  0  0  0  0  0  0  0  0  0  0  0
  150.2266  158.7160  130.3063 H   0  0  0  0  0  0  0  0  0  0  0  0
  148.2459  160.3734  129.8818 H   0  0  0  0  0  0  0  0  0  0  0  0
  149.8131  156.7559  131.6464 H   0  0  0  0  0  0  0  0  0  0  0  0
  1  2  2  0
  2  3  1  0
  3  4  1  0
  4  5  2  0
  4  6  1  0
  6  7  1  0
  7  8  1  0
  8  9  1  0
  8 10  2  0
  7 11  2  0
 11 12  1  0
 12 13  2  0
 13 14  1  0
 14 15  2  0
 15 16  1  0
 16 17  1  0
 17 18  2  0
 15 19  1  0
 19 20  2  0
 20  6  1  0
 20 12  1  0
  1 21  1  0
  1 22  1  0
  2 23  1  0
  3 24  1  0
  3 25  1  0
  9 26  1  0
 11 27  1  0
 13 28  1  0
 14 29  1  0
 16 30  1  0
 16 31  1  0
 17 32  1  0
 19 33  1  0
M  CHG  1   9  -1
M  END
>  <UniqueID>  (36) 
36

>  <SMILES>  (36) 
C=CCC(=O)n1c(C([NH-])=O)cc2ccc(CC=O)cc21

>  <Energy>  (36) 
68.57331157215073

>  <Genealogy>  (36) 
C=CCC(=O)n1c(C([NH-])=O)cc2ccc(CC=O)cc21 (protonated)
C=CCC(=O)n1c(C([NH-])=O)cc2ccc(CC=O)cc21 (3D coordinates assigned)
C=CCC(=O)n1c(C([NH-])=O)cc2ccc(CC=O)cc21 (optimized conformer: 68.57331157215073 kcal/mol)

>  <smiles>  (36) 
C=CCC(=O)n1c(C(N)=O)cc2ccc(CC=O)cc21

>  <score_type>  (36) 
oracle

>  <origin>  (36) 
adg

>  <m_score__min__energy>  (36) 
-6.9100000000000001

>  <m_primary>  (36) 
energy

$$$$
36:0
     RDKit          3D

 47 49  0  0  0  0  0  0  0  0999 V2000
  142.1180  151.2310  131.8520 H   0  0  0  0  0  0  0  0  0  0  0  0
  141.2830  151.4530  132.4370 N   0  0  0  0  0  0  0  0  0  0  0  0
  141.3980  152.2600  133.6060 C   0  0  0  0  0  0  0  0  0  0  0  0
  141.1780  151.7440  134.7340 O   0  0  0  0  0  0  0  0  0  0  0  0
  141.8020  153.6790  133.5170 C   0  0  0  0  0  0  0  0  0  0  0  0
  140.8990  154.7340  133.3920 C   0  0  0  0  0  0  0  0  0  0  0  0
  139.8038  154.6682  133.3133 H   0  0  0  0  0  0  0  0  0  0  0  0
  141.6690  155.8760  133.3880 C   0  0  0  0  0  0  0  0  0  0  0  0
  141.2950  157.2100  133.2760 C   0  0  0  0  0  0  0  0  0  0  0  0
  140.2364  157.4960  133.1884 H   0  0  0  0  0  0  0  0  0  0  0  0
  142.3090  158.1820  133.2780 C   0  0  0  0  0  0  0  0  0  0  0  0
  142.0417  159.2459  133.1965 H   0  0  0  0  0  0  0  0  0  0  0  0
  143.6760  157.8080  133.3840 C   0  0  0  0  0  0  0  0  0  0  0  0
  144.7410  158.8430  133.3810 C   0  0  0  0  0  0  0  0  0  0  0  0
  144.4530  160.1650  133.7620 C   0  0  0  0  0  0  0  0  0  0  0  0
  143.4323  160.4313  134.0737 H   0  0  0  0  0  0  0  0  0  0  0  0
  145.4530  161.1480  133.7490 C   0  0  0  0  0  0  0  0  0  0  0  0
  145.1250  162.5570  134.1580 C   0  0  0  0  0  0  0  0  0  0  0  0
  145.8566  163.2429  133.7060 H   0  0  0  0  0  0  0  0  0  0  0  0
  145.1780  162.6660  135.5360 F   0  0  0  0  0  0  0  0  0  0  0  0
  143.8550  162.8850  133.7230 F   0  0  0  0  0  0  0  0  0  0  0  0
  146.7550  160.8030  133.3570 C   0  0  0  0  0  0  0  0  0  0  0  0
  147.5432  161.5702  133.3426 H   0  0  0  0  0  0  0  0  0  0  0  0
  147.0570  159.4880  132.9840 C   0  0  0  0  0  0  0  0  0  0  0  0
  148.6880  159.0670  132.4690 S   0  0  0  0  0  0  0  0  0  0  0  0
  149.6090  159.0440  133.6560 O   0  0  0  0  0  0  0  0  0  0  0  0
  148.6850  157.7050  131.8340 O   0  0  0  0  0  0  0  0  0  0  0  0
  149.2620  160.2710  131.2930 C   0  0  0  0  0  0  0  0  0  0  0  0
  149.6755  161.1384  131.8284 H   0  0  0  0  0  0  0  0  0  0  0  0
  150.0435  159.8232  130.6616 H   0  0  0  0  0  0  0  0  0  0  0  0
  148.4220  160.5962  130.6616 H   0  0  0  0  0  0  0  0  0  0  0  0
  146.0510  158.5150  132.9900 C   0  0  0  0  0  0  0  0  0  0  0  0
  146.2874  157.4846  132.6861 H   0  0  0  0  0  0  0  0  0  0  0  0
  144.0130  156.4390  133.4930 C   0  0  0  0  0  0  0  0  0  0  0  0
  145.0639  156.1225  133.5674 H   0  0  0  0  0  0  0  0  0  0  0  0
  142.9790  155.4960  133.5040 C   0  0  0  0  0  0  0  0  0  0  0  0
  143.0770  154.1520  133.5920 N   0  0  0  0  0  0  0  0  0  0  0  0
  144.2950  153.3920  133.6390 C   0  0  0  0  0  0  0  0  0  0  0  0
  145.2100  153.7470  134.4300 O   0  0  0  0  0  0  0  0  0  0  0  0
  144.4880  152.1920  132.7880 C   0  0  0  0  0  0  0  0  0  0  0  0
  145.4730  152.2240  131.7460 N   0  0  0  0  0  0  0  0  0  0  0  0
  145.6270  151.4090  131.1130 H   0  0  0  0  0  0  0  0  0  0  0  0
  146.0720  153.0660  131.6010 H   0  0  0  0  0  0  0  0  0  0  0  0
  143.7600  151.1260  132.9730 N   0  0  0  0  0  0  0  0  0  0  0  0
  143.0200  151.1040  133.7100 H   0  0  0  0  0  0  0  0  0  0  0  0
  143.9320  150.0030  132.1950 O   0  0  0  0  0  0  0  0  0  0  0  0
  143.1640  149.6400  131.6430 H   0  0  0  0  0  0  0  0  0  0  0  0
  1  2  1  0
  2  3  1  0
  3  4  2  0
  3  5  1  0
  5  6  2  0
  6  7  1  0
  6  8  1  0
  8  9  2  0
  9 10  1  0
  9 11  1  0
 11 12  1  0
 11 13  2  0
 13 14  1  0
 14 15  2  0
 15 16  1  0
 15 17  1  0
 17 18  1  0
 18 19  1  0
 18 20  1  0
 18 21  1  0
 17 22  2  0
 22 23  1  0
 22 24  1  0
 24 25  1  0
 25 26  2  0
 25 27  2  0
 25 28  1  0
 28 29  1  0
 28 30  1  0
 28 31  1  0
 24 32  2  0
 32 33  1  0
 13 34  1  0
 34 35  1  0
 34 36  2  0
 36 37  1  0
 37 38  1  0
 38 39  2  0
 38 40  1  0
 40 41  1  0
 41 42  1  0
 41 43  1  0
 40 44  2  0
 44 45  1  0
 44 46  1  0
 46 47  1  0
 37  5  1  0
 36  8  1  0
 32 14  1  0
M  CHG  2   2  -1  44   1
M  END
>  <UniqueID>  (37) 
37

>  <SMILES>  (37) 
CS(=O)(=O)c1cc(-c2ccc3cc(C([NH-])=O)n(C(=O)/C(N)=[NH+]/O)c3c2)cc(C(F)F)c1

>  <Energy>  (37) 
89.56440681197724

>  <Genealogy>  (37) 
CS(=O)(=O)c1cc(-c2ccc3cc(C([NH-])=O)n(C(=O)/C(N)=[NH+]/O)c3c2)cc(C(F)F)c1 (protonated)
CS(=O)(=O)c1cc(-c2ccc3cc(C([NH-])=O)n(C(=O)/C(N)=[NH+]/O)c3c2)cc(C(F)F)c1 (cis-trans isomerization)
CS(=O)(=O)c1cc(-c2ccc3cc(C([NH-])=O)n(C(=O)/C(N)=[NH+]/O)c3c2)cc(C(F)F)c1 (3D coordinates assigned)
CS(=O)(=O)c1cc(-c2ccc3cc(C([NH-])=O)n(C(=O)/C(N)=[NH+]/O)c3c2)cc(C(F)F)c1 (optimized conformer: 89.56440681197724 kcal/mol)

>  <smiles>  (37) 
CS(=O)(=O)c1cc(-c2ccc3cc(C(N)=O)n(C(=O)/C(N)=N/O)c3c2)cc(C(F)F)c1

>  <score_type>  (37) 
oracle

>  <origin>  (37) 
adg

>  <m_score__min__energy>  (37) 
-9.1799999999999997

>  <m_primary>  (37) 
energy

$$$$
37:0
     RDKit          3D

 44 45  0  0  0  0  0  0  0  0999 V2000
  149.5240  154.0930  132.2950 C   0  0  0  0  0  0  0  0  0  0  0  0
  148.2570  154.4670  132.9240 N   0  0  0  0  0  0  0  0  0  0  0  0
  147.4660  153.4640  133.6430 C   0  0  0  0  0  0  0  0  0  0  0  0
  146.1610  153.1890  132.8890 C   0  0  0  0  0  0  0  0  0  0  0  0
  144.9440  153.7110  133.6810 C   0  0  0  0  0  0  0  0  0  0  0  0
  143.9180  154.3900  132.8490 N   0  0  0  0  0  0  0  0  0  0  0  0
  142.5970  153.7430  132.9440 C   0  0  0  0  0  0  0  0  0  0  0  0
  144.3300  154.5320  131.4430 C   0  0  0  0  0  0  0  0  0  0  0  0
  147.8790  155.8500  132.9830 C   0  0  0  0  0  0  0  0  0  0  0  0
  148.8510  156.8630  132.8030 C   0  0  0  0  0  0  0  0  0  0  0  0
  148.4880  158.2170  132.8610 C   0  0  0  0  0  0  0  0  0  0  0  0
  147.1520  158.5240  133.1080 C   0  0  0  0  0  0  0  0  0  0  0  0
  146.5270  159.7470  133.1930 C   0  0  0  0  0  0  0  0  0  0  0  0
  145.1860  159.4620  133.4390 C   0  0  0  0  0  0  0  0  0  0  0  0
  144.1670  160.5030  133.6930 C   0  0  0  0  0  0  0  0  0  0  0  0
  142.8160  160.2820  133.2970 N   0  0  0  0  0  0  0  0  0  0  0  0
  144.4820  161.6020  134.2180 O   0  0  0  0  0  0  0  0  0  0  0  0
  144.9880  158.1130  133.5000 N   0  0  0  0  0  0  0  0  0  0  0  0
  143.7500  157.4080  133.6870 C   0  0  0  0  0  0  0  0  0  0  0  0
  143.4860  156.8660  134.7930 O   0  0  0  0  0  0  0  0  0  0  0  0
  142.8210  157.3340  132.6560 O   0  0  0  0  0  0  0  0  0  0  0  0
  146.2010  157.5550  133.2980 C   0  0  0  0  0  0  0  0  0  0  0  0
  146.5320  156.1960  133.2220 C   0  0  0  0  0  0  0  0  0  0  0  0
  150.2691  153.8731  133.0737 H   0  0  0  0  0  0  0  0  0  0  0  0
  149.3734  153.2010  131.6692 H   0  0  0  0  0  0  0  0  0  0  0  0
  149.8820  154.9238  131.6692 H   0  0  0  0  0  0  0  0  0  0  0  0
  148.0446  152.5318  133.7223 H   0  0  0  0  0  0  0  0  0  0  0  0
  147.2299  153.8424  134.6485 H   0  0  0  0  0  0  0  0  0  0  0  0
  146.1972  153.6928  131.9118 H   0  0  0  0  0  0  0  0  0  0  0  0
  146.0541  152.1020  132.7586 H   0  0  0  0  0  0  0  0  0  0  0  0
  144.4686  152.8564  134.1846 H   0  0  0  0  0  0  0  0  0  0  0  0
  145.3266  154.4641  134.3856 H   0  0  0  0  0  0  0  0  0  0  0  0
  143.8110  155.3570  133.2370 H   0  0  0  0  0  0  0  0  0  0  0  0
  142.3284  153.6115  134.0026 H   0  0  0  0  0  0  0  0  0  0  0  0
  141.8433  154.3739  132.4502 H   0  0  0  0  0  0  0  0  0  0  0  0
  142.6334  152.7608  132.4502 H   0  0  0  0  0  0  0  0  0  0  0  0
  145.3692  154.8901  131.3998 H   0  0  0  0  0  0  0  0  0  0  0  0
  144.2570  153.5569  130.9392 H   0  0  0  0  0  0  0  0  0  0  0  0
  143.6717  155.2551  130.9392 H   0  0  0  0  0  0  0  0  0  0  0  0
  149.8992  156.5865  132.6162 H   0  0  0  0  0  0  0  0  0  0  0  0
  149.2351  159.0112  132.7159 H   0  0  0  0  0  0  0  0  0  0  0  0
  146.9888  160.7399  133.0887 H   0  0  0  0  0  0  0  0  0  0  0  0
  142.5730  159.5250  132.6220 H   0  0  0  0  0  0  0  0  0  0  0  0
  145.7627  155.4195  133.3453 H   0  0  0  0  0  0  0  0  0  0  0  0
  1  2  1  0
  2  3  1  0
  3  4  1  0
  4  5  1  0
  5  6  1  0
  6  7  1  0
  6  8  1  0
  2  9  1  0
  9 10  2  0
 10 11  1  0
 11 12  2  0
 12 13  1  0
 13 14  2  0
 14 15  1  0
 15 16  1  0
 15 17  2  0
 14 18  1  0
 18 19  1  0
 19 20  2  0
 19 21  1  0
 18 22  1  0
 22 23  2  0
 23  9  1  0
 22 12  1  0
  1 24  1  0
  1 25  1  0
  1 26  1  0
  3 27  1  0
  3 28  1  0
  4 29  1  0
  4 30  1  0
  5 31  1  0
  5 32  1  0
  6 33  1  0
  7 34  1  0
  7 35  1  0
  7 36  1  0
  8 37  1  0
  8 38  1  0
  8 39  1  0
 10 40  1  0
 11 41  1  0
 13 42  1  0
 16 43  1  0
 23 44  1  0
M  CHG  3   6   1  16  -1  21  -1
M  END
>  <UniqueID>  (38) 
38

>  <SMILES>  (38) 
CN(CCC[NH+](C)C)c1ccc2cc(C([NH-])=O)n(C(=O)[O-])c2c1

>  <Energy>  (38) 
85.62422040412909

>  <Genealogy>  (38) 
CN(CCC[NH+](C)C)c1ccc2cc(C([NH-])=O)n(C(=O)[O-])c2c1 (protonated)
CN(CCC[NH+](C)C)c1ccc2cc(C([NH-])=O)n(C(=O)[O-])c2c1 (3D coordinates assigned)
CN(CCC[NH+](C)C)c1ccc2cc(C([NH-])=O)n(C(=O)[O-])c2c1 (optimized conformer: 85.62422040412909 kcal/mol)

>  <smiles>  (38) 
CN(C)CCCN(C)c1ccc2cc(C(N)=O)n(C(=O)O)c2c1

>  <score_type>  (38) 
oracle

>  <origin>  (38) 
adg

>  <m_score__min__energy>  (38) 
-4.9699999999999998

>  <m_primary>  (38) 
energy

$$$$
38:0
     RDKit          3D

 37 38  0  0  0  0  0  0  0  0999 V2000
  141.3440  159.0110  136.1770 C   0  0  0  0  0  0  0  0  0  0  0  0
  141.4510  157.4930  136.2330 C   0  0  0  0  0  0  0  0  0  0  0  0
  142.5810  157.0380  135.4930 O   0  0  0  0  0  0  0  0  0  0  0  0
  142.8850  157.4820  134.1990 C   0  0  0  0  0  0  0  0  0  0  0  0
  142.0520  157.3410  133.2620 O   0  0  0  0  0  0  0  0  0  0  0  0
  144.1600  158.0910  133.9360 N   0  0  0  0  0  0  0  0  0  0  0  0
  144.4200  159.4030  133.6730 C   0  0  0  0  0  0  0  0  0  0  0  0
  143.4100  160.4610  133.4600 C   0  0  0  0  0  0  0  0  0  0  0  0
  142.1130  160.1170  132.9780 N   0  0  0  0  0  0  0  0  0  0  0  0
  143.6690  161.6620  133.7340 O   0  0  0  0  0  0  0  0  0  0  0  0
  145.7920  159.6120  133.5410 C   0  0  0  0  0  0  0  0  0  0  0  0
  146.3700  158.3760  133.7250 C   0  0  0  0  0  0  0  0  0  0  0  0
  147.7100  158.0020  133.7110 C   0  0  0  0  0  0  0  0  0  0  0  0
  148.0210  156.6550  133.9600 C   0  0  0  0  0  0  0  0  0  0  0  0
  146.9940  155.7120  134.2200 C   0  0  0  0  0  0  0  0  0  0  0  0
  147.3430  154.2830  134.5330 C   0  0  0  0  0  0  0  0  0  0  0  0
  147.5380  154.1040  136.0140 C   0  0  0  0  0  0  0  0  0  0  0  0
  148.2400  154.9420  136.6420 O   0  0  0  0  0  0  0  0  0  0  0  0
  146.9720  153.0030  136.7370 N   0  0  0  0  0  0  0  0  0  0  0  0
  147.5870  152.3530  137.8870 C   0  0  0  0  0  0  0  0  0  0  0  0
  145.6440  156.1310  134.2350 C   0  0  0  0  0  0  0  0  0  0  0  0
  145.3630  157.4750  133.9620 C   0  0  0  0  0  0  0  0  0  0  0  0
  141.3155  159.4146  137.1999 H   0  0  0  0  0  0  0  0  0  0  0  0
  142.2155  159.4207  135.6453 H   0  0  0  0  0  0  0  0  0  0  0  0
  140.4236  159.2943  135.6453 H   0  0  0  0  0  0  0  0  0  0  0  0
  141.5555  157.1772  137.2815 H   0  0  0  0  0  0  0  0  0  0  0  0
  140.5420  157.0588  135.7913 H   0  0  0  0  0  0  0  0  0  0  0  0
  141.9810  159.3220  132.3150 H   0  0  0  0  0  0  0  0  0  0  0  0
  146.3043  160.5631  133.3337 H   0  0  0  0  0  0  0  0  0  0  0  0
  148.5019  158.7388  133.5110 H   0  0  0  0  0  0  0  0  0  0  0  0
  149.0714  156.3283  133.9533 H   0  0  0  0  0  0  0  0  0  0  0  0
  146.5276  153.6277  134.1928 H   0  0  0  0  0  0  0  0  0  0  0  0
  148.2779  154.0221  134.0155 H   0  0  0  0  0  0  0  0  0  0  0  0
  147.1792  152.7840  138.8133 H   0  0  0  0  0  0  0  0  0  0  0  0
  147.3706  151.2749  137.8579 H   0  0  0  0  0  0  0  0  0  0  0  0
  148.6754  152.5094  137.8579 H   0  0  0  0  0  0  0  0  0  0  0  0
  144.8349  155.4191  134.4556 H   0  0  0  0  0  0  0  0  0  0  0  0
  1  2  1  0
  2  3  1  0
  3  4  1  0
  4  5  2  0
  4  6  1  0
  6  7  1  0
  7  8  1  0
  8  9  1  0
  8 10  2  0
  7 11  2  0
 11 12  1  0
 12 13  2  0
 13 14  1  0
 14 15  2  0
 15 16  1  0
 16 17  1  0
 17 18  2  0
 17 19  1  0
 19 20  1  0
 15 21  1  0
 21 22  2  0
 22  6  1  0
 22 12  1  0
  1 23  1  0
  1 24  1  0
  1 25  1  0
  2 26  1  0
  2 27  1  0
  9 28  1  0
 11 29  1  0
 13 30  1  0
 14 31  1  0
 16 32  1  0
 16 33  1  0
 20 34  1  0
 20 35  1  0
 20 36  1  0
 21 37  1  0
M  CHG  2   9  -1  19  -1
M  END
>  <UniqueID>  (39) 
39

>  <SMILES>  (39) 
CCOC(=O)n1c(C([NH-])=O)cc2ccc(CC(=O)[N-]C)cc21

>  <Energy>  (39) 
68.67332497191622

>  <Genealogy>  (39) 
CCOC(=O)n1c(C([NH-])=O)cc2ccc(CC(=O)[N-]C)cc21 (protonated)
CCOC(=O)n1c(C([NH-])=O)cc2ccc(CC(=O)[N-]C)cc21 (3D coordinates assigned)
CCOC(=O)n1c(C([NH-])=O)cc2ccc(CC(=O)[N-]C)cc21 (optimized conformer: 68.67332497191622 kcal/mol)

>  <smiles>  (39) 
CCOC(=O)n1c(C(N)=O)cc2ccc(CC(=O)NC)cc21

>  <score_type>  (39) 
oracle

>  <origin>  (39) 
adg

>  <m_score__min__energy>  (39) 
-6.2000000000000002

>  <m_primary>  (39) 
energy

$$$$
39:0
     RDKit          3D

 31 33  0  0  0  0  0  0  0  0999 V2000
  143.1660  160.7220  133.3560 N   0  0  0  0  0  0  0  0  0  0  0  0
  144.5420  160.8140  133.7180 C   0  0  0  0  0  0  0  0  0  0  0  0
  144.9490  161.8280  134.3460 O   0  0  0  0  0  0  0  0  0  0  0  0
  145.4820  159.7120  133.4180 C   0  0  0  0  0  0  0  0  0  0  0  0
  146.8300  159.9140  133.1330 C   0  0  0  0  0  0  0  0  0  0  0  0
  147.3690  158.6540  133.0080 C   0  0  0  0  0  0  0  0  0  0  0  0
  148.6710  158.2640  132.7150 C   0  0  0  0  0  0  0  0  0  0  0  0
  148.9410  156.8900  132.6170 C   0  0  0  0  0  0  0  0  0  0  0  0
  147.9100  155.9310  132.8040 C   0  0  0  0  0  0  0  0  0  0  0  0
  148.2000  154.4800  132.6890 C   0  0  0  0  0  0  0  0  0  0  0  0
  149.5250  154.0240  132.5880 C   0  0  0  0  0  0  0  0  0  0  0  0
  149.7780  152.6570  132.4720 C   0  0  0  0  0  0  0  0  0  0  0  0
  148.7160  151.7540  132.4570 C   0  0  0  0  0  0  0  0  0  0  0  0
  148.9500  150.4230  132.3460 F   0  0  0  0  0  0  0  0  0  0  0  0
  147.4100  152.2340  132.5590 C   0  0  0  0  0  0  0  0  0  0  0  0
  147.1770  153.5710  132.6710 N   0  0  0  0  0  0  0  0  0  0  0  0
  146.5980  156.3700  133.1010 C   0  0  0  0  0  0  0  0  0  0  0  0
  146.3630  157.7460  133.2110 C   0  0  0  0  0  0  0  0  0  0  0  0
  145.1940  158.3810  133.4600 N   0  0  0  0  0  0  0  0  0  0  0  0
  143.9080  157.7650  133.6310 C   0  0  0  0  0  0  0  0  0  0  0  0
  143.6560  157.0930  134.6650 O   0  0  0  0  0  0  0  0  0  0  0  0
  142.9390  157.8790  132.6410 O   0  0  0  0  0  0  0  0  0  0  0  0
  142.8500  160.0650  132.6090 H   0  0  0  0  0  0  0  0  0  0  0  0
  147.3529  160.8763  133.0297 H   0  0  0  0  0  0  0  0  0  0  0  0
  149.4656  159.0097  132.5645 H   0  0  0  0  0  0  0  0  0  0  0  0
  149.9634  156.5518  132.3927 H   0  0  0  0  0  0  0  0  0  0  0  0
  150.3588  154.7413  132.6003 H   0  0  0  0  0  0  0  0  0  0  0  0
  150.8128  152.2926  132.3926 H   0  0  0  0  0  0  0  0  0  0  0  0
  146.5651  151.5296  132.5489 H   0  0  0  0  0  0  0  0  0  0  0  0
  146.1870  153.8900  132.7670 H   0  0  0  0  0  0  0  0  0  0  0  0
  145.7813  155.6468  133.2422 H   0  0  0  0  0  0  0  0  0  0  0  0
  1  2  1  0
  2  3  2  0
  2  4  1  0
  4  5  2  0
  5  6  1  0
  6  7  2  0
  7  8  1  0
  8  9  2  0
  9 10  1  0
 10 11  2  0
 11 12  1  0
 12 13  2  0
 13 14  1  0
 13 15  1  0
 15 16  2  0
  9 17  1  0
 17 18  2  0
 18 19  1  0
 19 20  1  0
 20 21  2  0
 20 22  1  0
 19  4  1  0
 18  6  1  0
 16 10  1  0
  1 23  1  0
  5 24  1  0
  7 25  1  0
  8 26  1  0
 11 27  1  0
 12 28  1  0
 15 29  1  0
 16 30  1  0
 17 31  1  0
M  CHG  3   1  -1  16   1  22  -1
M  END
>  <UniqueID>  (40) 
40

>  <SMILES>  (40) 
[NH-]C(=O)c1cc2ccc(-c3ccc(F)c[nH+]3)cc2n1C(=O)[O-]

>  <Energy>  (40) 
78.97020871055976

>  <Genealogy>  (40) 
[NH-]C(=O)c1cc2ccc(-c3ccc(F)c[nH+]3)cc2n1C(=O)[O-] (protonated)
[NH-]C(=O)c1cc2ccc(-c3ccc(F)c[nH+]3)cc2n1C(=O)[O-] (3D coordinates assigned)
[NH-]C(=O)c1cc2ccc(-c3ccc(F)c[nH+]3)cc2n1C(=O)[O-] (optimized conformer: 78.97020871055976 kcal/mol)

>  <smiles>  (40) 
NC(=O)c1cc2ccc(-c3ccc(F)cn3)cc2n1C(=O)O

>  <score_type>  (40) 
oracle

>  <origin>  (40) 
adg

>  <m_score__min__energy>  (40) 
-6.6799999999999997

>  <m_primary>  (40) 
energy

$$$$
40:0
     RDKit          3D

 38 40  0  0  0  0  0  0  0  0999 V2000
  142.1710  157.1730  135.5180 C   0  0  0  0  0  0  0  0  0  0  0  0
  143.4060  156.9870  134.8370 O   0  0  0  0  0  0  0  0  0  0  0  0
  143.6970  157.6080  133.6200 C   0  0  0  0  0  0  0  0  0  0  0  0
  142.8690  157.5670  132.6700 O   0  0  0  0  0  0  0  0  0  0  0  0
  144.9370  158.3150  133.4590 N   0  0  0  0  0  0  0  0  0  0  0  0
  145.1500  159.6600  133.5280 C   0  0  0  0  0  0  0  0  0  0  0  0
  144.1070  160.7020  133.6260 C   0  0  0  0  0  0  0  0  0  0  0  0
  142.7400  160.4000  133.3600 N   0  0  0  0  0  0  0  0  0  0  0  0
  144.4330  161.8880  133.9010 O   0  0  0  0  0  0  0  0  0  0  0  0
  146.5080  159.9460  133.4070 C   0  0  0  0  0  0  0  0  0  0  0  0
  147.1250  158.7250  133.2540 C   0  0  0  0  0  0  0  0  0  0  0  0
  148.4720  158.4170  133.1020 C   0  0  0  0  0  0  0  0  0  0  0  0
  148.8320  157.0640  132.9930 C   0  0  0  0  0  0  0  0  0  0  0  0
  147.8480  156.0380  133.0460 C   0  0  0  0  0  0  0  0  0  0  0  0
  148.2310  154.6470  132.9440 N   0  0  0  0  0  0  0  0  0  0  0  0
  149.4390  154.1830  132.2780 C   0  0  0  0  0  0  0  0  0  0  0  0
  149.5270  152.6920  132.5710 C   0  0  0  0  0  0  0  0  0  0  0  0
  148.1200  152.2690  132.9990 C   0  0  2  0  0  0  0  0  0  0  0  0
  147.4110  151.7650  131.8970 O   0  0  0  0  0  0  0  0  0  0  0  0
  147.4540  153.5470  133.4970 C   0  0  0  0  0  0  0  0  0  0  0  0
  146.4870  156.4010  133.2030 C   0  0  0  0  0  0  0  0  0  0  0  0
  146.1560  157.7570  133.2880 C   0  0  0  0  0  0  0  0  0  0  0  0
  142.3436  157.1470  136.6041 H   0  0  0  0  0  0  0  0  0  0  0  0
  141.7410  158.1460  135.2383 H   0  0  0  0  0  0  0  0  0  0  0  0
  141.4734  156.3698  135.2383 H   0  0  0  0  0  0  0  0  0  0  0  0
  142.4760  159.6990  132.6320 H   0  0  0  0  0  0  0  0  0  0  0  0
  146.9856  160.9367  133.4290 H   0  0  0  0  0  0  0  0  0  0  0  0
  149.2337  159.2099  133.0681 H   0  0  0  0  0  0  0  0  0  0  0  0
  149.8905  156.7935  132.8647 H   0  0  0  0  0  0  0  0  0  0  0  0
  149.3698  154.3570  131.1941 H   0  0  0  0  0  0  0  0  0  0  0  0
  150.3302  154.7194  132.6358 H   0  0  0  0  0  0  0  0  0  0  0  0
  149.8351  152.1418  131.6697 H   0  0  0  0  0  0  0  0  0  0  0  0
  150.2707  152.4755  133.3521 H   0  0  0  0  0  0  0  0  0  0  0  0
  148.1433  151.4822  133.7674 H   0  0  0  0  0  0  0  0  0  0  0  0
  146.9290  152.5350  131.4950 H   0  0  0  0  0  0  0  0  0  0  0  0
  146.4136  153.5985  133.1434 H   0  0  0  0  0  0  0  0  0  0  0  0
  147.4276  153.5853  134.5960 H   0  0  0  0  0  0  0  0  0  0  0  0
  145.7047  155.6296  133.2571 H   0  0  0  0  0  0  0  0  0  0  0  0
  1  2  1  0
  2  3  1  0
  3  4  2  0
  3  5  1  0
  5  6  1  0
  6  7  1  0
  7  8  1  0
  7  9  2  0
  6 10  2  0
 10 11  1  0
 11 12  2  0
 12 13  1  0
 13 14  2  0
 14 15  1  0
 15 16  1  0
 16 17  1  0
 17 18  1  0
 18 19  1  0
 18 20  1  0
 14 21  1  0
 21 22  2  0
 22  5  1  0
 22 11  1  0
 20 15  1  0
  1 23  1  0
  1 24  1  0
  1 25  1  0
  8 26  1  0
 10 27  1  0
 12 28  1  0
 13 29  1  0
 16 30  1  0
 16 31  1  0
 17 32  1  0
 17 33  1  0
 18 34  1  1
 19 35  1  0
 20 36  1  0
 20 37  1  0
 21 38  1  0
M  CHG  1   8  -1
M  END
>  <UniqueID>  (41) 
41

>  <SMILES>  (41) 
COC(=O)n1c(C([NH-])=O)cc2ccc(N3CC[C@H](O)C3)cc21

>  <Energy>  (41) 
78.49283351151341

>  <Genealogy>  (41) 
COC(=O)n1c(C([NH-])=O)cc2ccc(N3CCC(O)C3)cc21 (protonated)
COC(=O)n1c(C([NH-])=O)cc2ccc(N3CC[C@H](O)C3)cc21 (chirality)
COC(=O)n1c(C([NH-])=O)cc2ccc(N3CC[C@H](O)C3)cc21 (3D coordinates assigned)
COC(=O)n1c(C([NH-])=O)cc2ccc(N3CC[C@H](O)C3)cc21 (nonaromatic ring conformer: 78.49283351151341 kcal/mol)

>  <smiles>  (41) 
COC(=O)n1c(C(N)=O)cc2ccc(N3CCC(O)C3)cc21

>  <score_type>  (41) 
oracle

>  <origin>  (41) 
adg

>  <m_score__min__energy>  (41) 
-6.5599999999999996

>  <m_primary>  (41) 
energy

$$$$
41:0
     RDKit          3D

 44 46  0  0  0  0  0  0  0  0999 V2000
  139.5140  146.2600  129.9580 C   0  0  0  0  0  0  0  0  0  0  0  0
  138.7310  147.8230  129.4530 S   0  0  0  0  0  0  0  0  0  0  0  0
  139.6990  148.8130  130.5920 C   0  0  0  0  0  0  0  0  0  0  0  0
  140.6280  148.2070  131.4400 C   0  0  0  0  0  0  0  0  0  0  0  0
  141.3870  148.9890  132.3110 C   0  0  0  0  0  0  0  0  0  0  0  0
  141.1990  150.3800  132.3310 C   0  0  0  0  0  0  0  0  0  0  0  0
  142.0690  151.2480  133.2030 C   0  0  0  0  0  0  0  0  0  0  0  0
  141.8670  152.7380  132.8960 C   0  0  0  0  0  0  0  0  0  0  0  0
  141.8440  153.5680  134.1540 C   0  0  0  0  0  0  0  0  0  0  0  0
  142.3370  153.0310  135.3710 C   0  0  0  0  0  0  0  0  0  0  0  0
  142.3690  153.8140  136.5360 C   0  0  0  0  0  0  0  0  0  0  0  0
  141.9210  155.1290  136.4520 C   0  0  0  0  0  0  0  0  0  0  0  0
  141.8270  156.0970  137.4250 C   0  0  0  0  0  0  0  0  0  0  0  0
  141.3090  157.2190  136.7820 C   0  0  0  0  0  0  0  0  0  0  0  0
  141.1000  158.5210  137.4530 C   0  0  0  0  0  0  0  0  0  0  0  0
  140.3520  159.5590  136.8260 N   0  0  0  0  0  0  0  0  0  0  0  0
  141.6180  158.7310  138.5820 O   0  0  0  0  0  0  0  0  0  0  0  0
  141.0890  156.9540  135.4630 N   0  0  0  0  0  0  0  0  0  0  0  0
  140.5110  157.8260  134.4790 C   0  0  0  0  0  0  0  0  0  0  0  0
  141.3350  158.3680  133.3560 C   0  0  0  0  0  0  0  0  0  0  0  0
  139.2910  158.1320  134.5530 O   0  0  0  0  0  0  0  0  0  0  0  0
  141.4650  155.6700  135.2780 C   0  0  0  0  0  0  0  0  0  0  0  0
  141.4000  154.9070  134.1060 C   0  0  0  0  0  0  0  0  0  0  0  0
  140.2840  150.9490  131.4930 N   0  0  0  0  0  0  0  0  0  0  0  0
  139.5350  150.1990  130.6390 C   0  0  0  0  0  0  0  0  0  0  0  0
  139.5429  146.2024  131.0561 H   0  0  0  0  0  0  0  0  0  0  0  0
  138.9332  145.4141  129.5616 H   0  0  0  0  0  0  0  0  0  0  0  0
  140.5393  146.2187  129.5616 H   0  0  0  0  0  0  0  0  0  0  0  0
  140.7612  147.1153  131.4214 H   0  0  0  0  0  0  0  0  0  0  0  0
  142.1265  148.5196  132.9765 H   0  0  0  0  0  0  0  0  0  0  0  0
  141.8155  151.0630  134.2573 H   0  0  0  0  0  0  0  0  0  0  0  0
  143.1203  150.9943  133.0019 H   0  0  0  0  0  0  0  0  0  0  0  0
  142.6909  153.0849  132.2550 H   0  0  0  0  0  0  0  0  0  0  0  0
  140.8976  152.8556  132.3897 H   0  0  0  0  0  0  0  0  0  0  0  0
  142.6973  151.9922  135.4022 H   0  0  0  0  0  0  0  0  0  0  0  0
  142.7371  153.4005  137.4865 H   0  0  0  0  0  0  0  0  0  0  0  0
  142.1025  156.0046  138.4859 H   0  0  0  0  0  0  0  0  0  0  0  0
  139.4490  159.3560  136.3450 H   0  0  0  0  0  0  0  0  0  0  0  0
  142.1882  158.9292  133.7649 H   0  0  0  0  0  0  0  0  0  0  0  0
  141.7052  157.5365  132.7383 H   0  0  0  0  0  0  0  0  0  0  0  0
  140.7181  159.0372  132.7383 H   0  0  0  0  0  0  0  0  0  0  0  0
  141.0129  155.3398  133.1718 H   0  0  0  0  0  0  0  0  0  0  0  0
  140.1540  151.9870  131.4900 H   0  0  0  0  0  0  0  0  0  0  0  0
  138.7981  150.6863  129.9837 H   0  0  0  0  0  0  0  0  0  0  0  0
  1  2  1  0
  2  3  1  0
  3  4  2  0
  4  5  1  0
  5  6  2  0
  6  7  1  0
  7  8  1  0
  8  9  1  0
  9 10  2  0
 10 11  1  0
 11 12  2  0
 12 13  1  0
 13 14  2  0
 14 15  1  0
 15 16  1  0
 15 17  2  0
 14 18  1  0
 18 19  1  0
 19 20  1  0
 19 21  2  0
 18 22  1  0
 22 23  2  0
  6 24  1  0
 24 25  2  0
 25  3  1  0
 23  9  1  0
 22 12  1  0
  1 26  1  0
  1 27  1  0
  1 28  1  0
  4 29  1  0
  5 30  1  0
  7 31  1  0
  7 32  1  0
  8 33  1  0
  8 34  1  0
 10 35  1  0
 11 36  1  0
 13 37  1  0
 16 38  1  0
 20 39  1  0
 20 40  1  0
 20 41  1  0
 23 42  1  0
 24 43  1  0
 25 44  1  0
M  CHG  2  16  -1  24   1
M  END
>  <UniqueID>  (42) 
42

>  <SMILES>  (42) 
CSc1ccc(CCc2ccc3cc(C([NH-])=O)n(C(C)=O)c3c2)[nH+]c1

>  <Energy>  (42) 
76.01374878225558

>  <Genealogy>  (42) 
CSc1ccc(CCc2ccc3cc(C([NH-])=O)n(C(C)=O)c3c2)[nH+]c1 (protonated)
CSc1ccc(CCc2ccc3cc(C([NH-])=O)n(C(C)=O)c3c2)[nH+]c1 (3D coordinates assigned)
CSc1ccc(CCc2ccc3cc(C([NH-])=O)n(C(C)=O)c3c2)[nH+]c1 (optimized conformer: 76.01374878225558 kcal/mol)

>  <smiles>  (42) 
CSc1ccc(CCc2ccc3cc(C(N)=O)n(C(C)=O)c3c2)nc1

>  <score_type>  (42) 
oracle

>  <origin>  (42) 
adg

>  <m_score__min__energy>  (42) 
-8.2899999999999991

>  <m_primary>  (42) 
energy

$$$$
42:0
     RDKit          3D

 43 44  0  0  0  0  0  0  0  0999 V2000
  148.1680  156.0870  132.6690 C   0  0  0  0  0  0  0  0  0  0  0  0
  147.7530  155.7010  134.0910 C   0  0  0  0  0  0  0  0  0  0  0  0
  147.3190  154.2370  134.1430 C   0  0  0  0  0  0  0  0  0  0  0  0
  146.6700  156.5190  134.5310 O   0  0  0  0  0  0  0  0  0  0  0  0
  145.6080  156.9080  133.7050 C   0  0  0  0  0  0  0  0  0  0  0  0
  145.0520  156.0700  132.9440 O   0  0  0  0  0  0  0  0  0  0  0  0
  145.1760  158.2780  133.6980 N   0  0  0  0  0  0  0  0  0  0  0  0
  145.9090  159.3790  133.3720 C   0  0  0  0  0  0  0  0  0  0  0  0
  147.3670  159.4110  133.1360 C   0  0  0  0  0  0  0  0  0  0  0  0
  148.2810  158.9740  134.1390 N   0  0  0  0  0  0  0  0  0  0  0  0
  147.8140  159.8750  132.0530 O   0  0  0  0  0  0  0  0  0  0  0  0
  145.1060  160.5170  133.3580 C   0  0  0  0  0  0  0  0  0  0  0  0
  143.8460  160.0780  133.6940 C   0  0  0  0  0  0  0  0  0  0  0  0
  142.6500  160.7830  133.7960 C   0  0  0  0  0  0  0  0  0  0  0  0
  141.4850  160.0630  134.1070 C   0  0  0  0  0  0  0  0  0  0  0  0
  141.5360  158.6610  134.3120 C   0  0  0  0  0  0  0  0  0  0  0  0
  140.2730  157.8900  134.5770 C   0  0  0  0  0  0  0  0  0  0  0  0
  139.4990  157.7400  133.3060 C   0  0  0  0  0  0  0  0  0  0  0  0
  139.5710  156.6660  132.6510 O   0  0  0  0  0  0  0  0  0  0  0  0
  138.6340  158.7940  132.8780 N   0  0  0  0  0  0  0  0  0  0  0  0
  139.0540  159.8790  131.5980 S   0  0  0  0  0  0  0  0  0  0  0  0
  137.6450  160.1250  130.5390 C   0  0  0  0  0  0  0  0  0  0  0  0
  139.4640  161.1990  132.1880 O   0  0  0  0  0  0  0  0  0  0  0  0
  140.2030  159.3160  130.8070 O   0  0  0  0  0  0  0  0  0  0  0  0
  142.7670  157.9780  134.1920 C   0  0  0  0  0  0  0  0  0  0  0  0
  143.9140  158.7230  133.8950 C   0  0  0  0  0  0  0  0  0  0  0  0
  148.9728  156.8356  132.7124 H   0  0  0  0  0  0  0  0  0  0  0  0
  148.5264  155.1938  132.1364 H   0  0  0  0  0  0  0  0  0  0  0  0
  147.3030  156.5090  132.1364 H   0  0  0  0  0  0  0  0  0  0  0  0
  148.6208  155.8502  134.7503 H   0  0  0  0  0  0  0  0  0  0  0  0
  147.2249  153.9195  135.1920 H   0  0  0  0  0  0  0  0  0  0  0  0
  146.3487  154.1240  133.6372 H   0  0  0  0  0  0  0  0  0  0  0  0
  148.0709  153.6135  133.6372 H   0  0  0  0  0  0  0  0  0  0  0  0
  148.2610  157.9920  134.4930 H   0  0  0  0  0  0  0  0  0  0  0  0
  145.4137  161.5476  133.1274 H   0  0  0  0  0  0  0  0  0  0  0  0
  142.6184  161.8711  133.6378 H   0  0  0  0  0  0  0  0  0  0  0  0
  140.5241  160.5916  134.1923 H   0  0  0  0  0  0  0  0  0  0  0  0
  140.5276  156.8946  134.9699 H   0  0  0  0  0  0  0  0  0  0  0  0
  139.6625  158.4324  135.3139 H   0  0  0  0  0  0  0  0  0  0  0  0
  136.7468  160.2818  131.1543 H   0  0  0  0  0  0  0  0  0  0  0  0
  137.8131  161.0074  129.9041 H   0  0  0  0  0  0  0  0  0  0  0  0
  137.5042  159.2379  129.9041 H   0  0  0  0  0  0  0  0  0  0  0  0
  142.8225  156.8879  134.3286 H   0  0  0  0  0  0  0  0  0  0  0  0
  1  2  1  0
  2  3  1  0
  2  4  1  0
  4  5  1  0
  5  6  2  0
  5  7  1  0
  7  8  1  0
  8  9  1  0
  9 10  1  0
  9 11  2  0
  8 12  2  0
 12 13  1  0
 13 14  2  0
 14 15  1  0
 15 16  2  0
 16 17  1  0
 17 18  1  0
 18 19  2  0
 18 20  1  0
 20 21  1  0
 21 22  1  0
 21 23  2  0
 21 24  2  0
 16 25  1  0
 25 26  2  0
 26  7  1  0
 26 13  1  0
  1 27  1  0
  1 28  1  0
  1 29  1  0
  2 30  1  0
  3 31  1  0
  3 32  1  0
  3 33  1  0
 10 34  1  0
 12 35  1  0
 14 36  1  0
 15 37  1  0
 17 38  1  0
 17 39  1  0
 22 40  1  0
 22 41  1  0
 22 42  1  0
 25 43  1  0
M  CHG  2  10  -1  20  -1
M  END
>  <UniqueID>  (43) 
43

>  <SMILES>  (43) 
CC(C)OC(=O)n1c(C([NH-])=O)cc2ccc(CC(=O)[N-]S(C)(=O)=O)cc21

>  <Energy>  (43) 
70.56500055860528

>  <Genealogy>  (43) 
CC(C)OC(=O)n1c(C([NH-])=O)cc2ccc(CC(=O)[N-]S(C)(=O)=O)cc21 (protonated)
CC(C)OC(=O)n1c(C([NH-])=O)cc2ccc(CC(=O)[N-]S(C)(=O)=O)cc21 (3D coordinates assigned)
CC(C)OC(=O)n1c(C([NH-])=O)cc2ccc(CC(=O)[N-]S(C)(=O)=O)cc21 (optimized conformer: 70.56500055860528 kcal/mol)

>  <smiles>  (43) 
CC(C)OC(=O)n1c(C(N)=O)cc2ccc(CC(=O)NS(C)(=O)=O)cc21

>  <score_type>  (43) 
oracle

>  <origin>  (43) 
adg

>  <m_score__min__energy>  (43) 
-7.8399999999999999

>  <m_primary>  (43) 
energy

$$$$
43:0
     RDKit          3D

 41 43  0  0  0  0  0  0  0  0999 V2000
  142.3030  150.7820  138.9800 C   0  0  0  0  0  0  0  0  0  0  0  0
  140.9230  151.4250  139.2750 C   0  0  0  0  0  0  0  0  0  0  0  0
  140.5300  151.0380  140.7210 C   0  0  0  0  0  0  0  0  0  0  0  0
  139.8860  150.8580  138.2680 C   0  0  0  0  0  0  0  0  0  0  0  0
  140.5100  150.2270  137.1790 O   0  0  0  0  0  0  0  0  0  0  0  0
  140.9450  152.9640  139.1490 C   0  0  0  0  0  0  0  0  0  0  0  0
  140.7520  153.8310  140.2680 C   0  0  0  0  0  0  0  0  0  0  0  0
  140.7770  155.2280  140.1200 C   0  0  0  0  0  0  0  0  0  0  0  0
  141.0070  155.7490  138.8550 C   0  0  0  0  0  0  0  0  0  0  0  0
  141.0580  157.0580  138.4320 C   0  0  0  0  0  0  0  0  0  0  0  0
  141.3150  156.9930  137.0650 C   0  0  0  0  0  0  0  0  0  0  0  0
  141.5360  158.1850  136.2210 C   0  0  0  0  0  0  0  0  0  0  0  0
  142.4780  158.1620  135.1510 N   0  0  0  0  0  0  0  0  0  0  0  0
  140.9200  159.2540  136.4770 O   0  0  0  0  0  0  0  0  0  0  0  0
  141.4090  155.6960  136.6580 N   0  0  0  0  0  0  0  0  0  0  0  0
  141.5700  155.2020  135.3190 C   0  0  0  0  0  0  0  0  0  0  0  0
  141.0040  155.7980  134.3630 O   0  0  0  0  0  0  0  0  0  0  0  0
  142.3830  154.0460  135.0820 N   0  0  0  0  0  0  0  0  0  0  0  0
  141.9510  152.7750  134.5780 C   0  0  0  0  0  0  0  0  0  0  0  0
  142.0800  152.2940  133.2900 C   0  0  0  0  0  0  0  0  0  0  0  0
  141.5270  151.0340  133.3630 C   0  0  0  0  0  0  0  0  0  0  0  0
  141.1230  150.8230  134.5950 O   0  0  0  0  0  0  0  0  0  0  0  0
  141.3640  151.8490  135.3570 N   0  0  0  0  0  0  0  0  0  0  0  0
  141.2200  154.9480  137.7680 C   0  0  0  0  0  0  0  0  0  0  0  0
  141.1840  153.5540  137.8780 C   0  0  0  0  0  0  0  0  0  0  0  0
  142.8081  150.5466  139.9284 H   0  0  0  0  0  0  0  0  0  0  0  0
  142.1605  149.8575  138.4012 H   0  0  0  0  0  0  0  0  0  0  0  0
  142.9192  151.4857  138.4012 H   0  0  0  0  0  0  0  0  0  0  0  0
  141.1273  151.6262  141.4332 H   0  0  0  0  0  0  0  0  0  0  0  0
  139.4615  151.2463  140.8788 H   0  0  0  0  0  0  0  0  0  0  0  0
  140.7219  149.9664  140.8788 H   0  0  0  0  0  0  0  0  0  0  0  0
  139.2488  150.1265  138.7865 H   0  0  0  0  0  0  0  0  0  0  0  0
  139.2890  151.6973  137.8817 H   0  0  0  0  0  0  0  0  0  0  0  0
  140.2580  150.7370  136.3660 H   0  0  0  0  0  0  0  0  0  0  0  0
  140.5806  153.3967  141.2640 H   0  0  0  0  0  0  0  0  0  0  0  0
  140.6185  155.8906  140.9836 H   0  0  0  0  0  0  0  0  0  0  0  0
  140.9242  157.9625  139.0435 H   0  0  0  0  0  0  0  0  0  0  0  0
  142.4510  157.4100  134.4280 H   0  0  0  0  0  0  0  0  0  0  0  0
  142.5190  152.7963  132.4154 H   0  0  0  0  0  0  0  0  0  0  0  0
  141.4385  150.3230  132.5283 H   0  0  0  0  0  0  0  0  0  0  0  0
  141.3388  152.9217  136.9913 H   0  0  0  0  0  0  0  0  0  0  0  0
  1  2  1  0
  2  3  1  0
  2  4  1  0
  4  5  1  0
  2  6  1  0
  6  7  2  0
  7  8  1  0
  8  9  2  0
  9 10  1  0
 10 11  2  0
 11 12  1  0
 12 13  1  0
 12 14  2  0
 11 15  1  0
 15 16  1  0
 16 17  2  0
 16 18  1  0
 18 19  1  0
 19 20  1  0
 20 21  2  0
 21 22  1  0
 22 23  1  0
 15 24  1  0
 24 25  2  0
 25  6  1  0
 24  9  1  0
 23 19  2  0
  1 26  1  0
  1 27  1  0
  1 28  1  0
  3 29  1  0
  3 30  1  0
  3 31  1  0
  4 32  1  0
  4 33  1  0
  5 34  1  0
  7 35  1  0
  8 36  1  0
 10 37  1  0
 13 38  1  0
 20 39  1  0
 21 40  1  0
 25 41  1  0
M  CHG  2  13  -1  18  -1
M  END
>  <UniqueID>  (44) 
44

>  <SMILES>  (44) 
CC(C)(CO)c1ccc2cc(C([NH-])=O)n(C(=O)[N-]c3ccon3)c2c1

>  <Energy>  (44) 
118.04958346297316

>  <Genealogy>  (44) 
CC(C)(CO)c1ccc2cc(C([NH-])=O)n(C(=O)[N-]c3ccon3)c2c1 (protonated)
CC(C)(CO)c1ccc2cc(C([NH-])=O)n(C(=O)[N-]c3ccon3)c2c1 (3D coordinates assigned)
CC(C)(CO)c1ccc2cc(C([NH-])=O)n(C(=O)[N-]c3ccon3)c2c1 (optimized conformer: 118.04958346297316 kcal/mol)

>  <smiles>  (44) 
CC(C)(CO)c1ccc2cc(C(N)=O)n(C(=O)Nc3ccon3)c2c1

>  <score_type>  (44) 
oracle

>  <origin>  (44) 
adg

>  <m_score__min__energy>  (44) 
-6.79

>  <m_primary>  (44) 
energy

$$$$
44:0
     RDKit          3D

 61 62  0  0  0  0  0  0  0  0999 V2000
  138.5210  159.6400  131.1040 C   0  0  0  0  0  0  0  0  0  0  0  0
  139.7250  159.0360  131.8240 C   0  0  0  0  0  0  0  0  0  0  0  0
  139.3270  158.0390  132.9350 C   0  0  0  0  0  0  0  0  0  0  0  0
  140.4190  156.9970  133.2610 C   0  0  0  0  0  0  0  0  0  0  0  0
  140.7700  156.8340  134.7790 C   0  0  1  0  0  0  0  0  0  0  0  0
  142.2830  156.4590  134.9320 C   0  0  0  0  0  0  0  0  0  0  0  0
  143.2180  157.4740  134.3130 C   0  0  0  0  0  0  0  0  0  0  0  0
  142.7490  158.7690  133.9690 C   0  0  0  0  0  0  0  0  0  0  0  0
  143.6180  159.7240  133.4140 C   0  0  0  0  0  0  0  0  0  0  0  0
  144.9470  159.3600  133.2160 C   0  0  0  0  0  0  0  0  0  0  0  0
  146.0000  160.0900  132.7180 C   0  0  0  0  0  0  0  0  0  0  0  0
  147.1030  159.2370  132.7710 C   0  0  0  0  0  0  0  0  0  0  0  0
  148.4830  159.6470  132.4230 C   0  0  0  0  0  0  0  0  0  0  0  0
  149.6100  158.9980  133.0140 N   0  0  0  0  0  0  0  0  0  0  0  0
  148.6780  160.5590  131.5770 O   0  0  0  0  0  0  0  0  0  0  0  0
  146.7380  158.0240  133.2780 N   0  0  0  0  0  0  0  0  0  0  0  0
  147.5650  156.8740  133.5160 C   0  0  0  0  0  0  0  0  0  0  0  0
  148.4910  156.9310  134.3680 O   0  0  0  0  0  0  0  0  0  0  0  0
  147.3380  155.7060  132.7740 O   0  0  0  0  0  0  0  0  0  0  0  0
  147.1250  154.3870  133.2950 C   0  0  0  0  0  0  0  0  0  0  0  0
  148.2830  153.4520  132.8950 C   0  0  0  0  0  0  0  0  0  0  0  0
  145.8240  153.8600  132.6690 C   0  0  0  0  0  0  0  0  0  0  0  0
  146.9650  154.4330  134.8250 C   0  0  0  0  0  0  0  0  0  0  0  0
  145.4160  158.1150  133.5410 C   0  0  0  0  0  0  0  0  0  0  0  0
  144.5630  157.1330  134.0560 C   0  0  0  0  0  0  0  0  0  0  0  0
  140.4920  158.0770  135.5720 N   0  0  0  0  0  0  0  0  0  0  0  0
  141.3200  158.1140  136.7980 C   0  0  0  0  0  0  0  0  0  0  0  0
  139.0790  158.2220  135.9800 C   0  0  0  0  0  0  0  0  0  0  0  0
  137.7950  160.0042  131.8458 H   0  0  0  0  0  0  0  0  0  0  0  0
  138.8532  160.4782  130.4738 H   0  0  0  0  0  0  0  0  0  0  0  0
  138.0477  158.8726  130.4738 H   0  0  0  0  0  0  0  0  0  0  0  0
  140.3463  158.5081  131.0856 H   0  0  0  0  0  0  0  0  0  0  0  0
  140.2698  159.8625  132.3037 H   0  0  0  0  0  0  0  0  0  0  0  0
  139.1081  158.6092  133.8499 H   0  0  0  0  0  0  0  0  0  0  0  0
  138.4536  157.4814  132.5658 H   0  0  0  0  0  0  0  0  0  0  0  0
  140.0775  156.0208  132.8863 H   0  0  0  0  0  0  0  0  0  0  0  0
  141.3371  157.3634  132.7784 H   0  0  0  0  0  0  0  0  0  0  0  0
  140.1273  156.0338  135.1748 H   0  0  0  0  0  0  0  0  0  0  0  0
  142.5158  156.3785  136.0041 H   0  0  0  0  0  0  0  0  0  0  0  0
  142.4376  155.5082  134.4010 H   0  0  0  0  0  0  0  0  0  0  0  0
  141.6935  159.0279  134.1387 H   0  0  0  0  0  0  0  0  0  0  0  0
  143.2590  160.7282  133.1444 H   0  0  0  0  0  0  0  0  0  0  0  0
  145.9778  161.1279  132.3543 H   0  0  0  0  0  0  0  0  0  0  0  0
  150.5770  159.2740  132.7340 H   0  0  0  0  0  0  0  0  0  0  0  0
  149.4930  158.2270  133.7050 H   0  0  0  0  0  0  0  0  0  0  0  0
  148.7679  153.0605  133.8014 H   0  0  0  0  0  0  0  0  0  0  0  0
  147.8896  152.6153  132.2991 H   0  0  0  0  0  0  0  0  0  0  0  0
  149.0180  154.0129  132.2991 H   0  0  0  0  0  0  0  0  0  0  0  0
  145.1221  153.5757  133.4668 H   0  0  0  0  0  0  0  0  0  0  0  0
  145.3722  154.6460  132.0461 H   0  0  0  0  0  0  0  0  0  0  0  0
  146.0466  152.9811  132.0461 H   0  0  0  0  0  0  0  0  0  0  0  0
  147.9177  154.1591  135.3017 H   0  0  0  0  0  0  0  0  0  0  0  0
  146.6796  155.4496  135.1334 H   0  0  0  0  0  0  0  0  0  0  0  0
  146.1833  153.7232  135.1334 H   0  0  0  0  0  0  0  0  0  0  0  0
  144.9329  156.1166  134.2563 H   0  0  0  0  0  0  0  0  0  0  0  0
  140.6668  158.0848  137.6826 H   0  0  0  0  0  0  0  0  0  0  0  0
  141.9944  157.2451  136.8113 H   0  0  0  0  0  0  0  0  0  0  0  0
  141.9142  159.0396  136.8113 H   0  0  0  0  0  0  0  0  0  0  0  0
  139.0132  158.2287  137.0780 H   0  0  0  0  0  0  0  0  0  0  0  0
  138.6777  159.1660  135.5828 H   0  0  0  0  0  0  0  0  0  0  0  0
  138.4943  157.3791  135.5828 H   0  0  0  0  0  0  0  0  0  0  0  0
  1  2  1  0
  2  3  1  0
  3  4  1  0
  4  5  1  0
  5  6  1  0
  6  7  1  0
  7  8  2  0
  8  9  1  0
  9 10  2  0
 10 11  1  0
 11 12  2  0
 12 13  1  0
 13 14  1  0
 13 15  2  0
 12 16  1  0
 16 17  1  0
 17 18  2  0
 17 19  1  0
 19 20  1  0
 20 21  1  0
 20 22  1  0
 20 23  1  0
 16 24  1  0
 24 25  2  0
  5 26  1  0
 26 27  1  0
 26 28  1  0
 25  7  1  0
 24 10  1  0
  1 29  1  0
  1 30  1  0
  1 31  1  0
  2 32  1  0
  2 33  1  0
  3 34  1  0
  3 35  1  0
  4 36  1  0
  4 37  1  0
  5 38  1  1
  6 39  1  0
  6 40  1  0
  8 41  1  0
  9 42  1  0
 11 43  1  0
 14 44  1  0
 14 45  1  0
 21 46  1  0
 21 47  1  0
 21 48  1  0
 22 49  1  0
 22 50  1  0
 22 51  1  0
 23 52  1  0
 23 53  1  0
 23 54  1  0
 25 55  1  0
 27 56  1  0
 27 57  1  0
 27 58  1  0
 28 59  1  0
 28 60  1  0
 28 61  1  0
M  END
>  <UniqueID>  (45) 
45

>  <SMILES>  (45) 
CCCC[C@@H](Cc1ccc2cc(C(N)=O)n(C(=O)OC(C)(C)C)c2c1)N(C)C

>  <Energy>  (45) 
97.85862333545876

>  <Genealogy>  (45) 
CCCC[C@@H](Cc1ccc2cc(C(N)=O)n(C(=O)OC(C)(C)C)c2c1)N(C)C (chirality)
CCCC[C@@H](Cc1ccc2cc(C(N)=O)n(C(=O)OC(C)(C)C)c2c1)N(C)C (3D coordinates assigned)
CCCC[C@@H](Cc1ccc2cc(C(N)=O)n(C(=O)OC(C)(C)C)c2c1)N(C)C (optimized conformer: 97.85862333545876 kcal/mol)

>  <smiles>  (45) 
CCCCC(Cc1ccc2cc(C(N)=O)n(C(=O)OC(C)(C)C)c2c1)N(C)C

>  <score_type>  (45) 
oracle

>  <origin>  (45) 
adg

>  <m_score__min__energy>  (45) 
-8.4199999999999999

>  <m_primary>  (45) 
energy

$$$$
45:0
     RDKit          3D

 33 34  0  0  0  0  0  0  0  0999 V2000
  149.2510  159.4340  129.7120 C   0  0  0  0  0  0  0  0  0  0  0  0
  149.4920  160.5830  130.7030 C   0  0  1  0  0  0  0  0  0  0  0  0
  148.4710  161.6230  130.5260 N   0  0  0  0  0  0  0  0  0  0  0  0
  149.4900  160.0800  132.1640 C   0  0  0  0  0  0  0  0  0  0  0  0
  148.1330  159.5780  132.5900 C   0  0  0  0  0  0  0  0  0  0  0  0
  147.8400  158.1940  132.5270 C   0  0  0  0  0  0  0  0  0  0  0  0
  146.5750  157.7130  132.9070 C   0  0  0  0  0  0  0  0  0  0  0  0
  145.6260  158.6370  133.3320 C   0  0  0  0  0  0  0  0  0  0  0  0
  144.3370  158.4420  133.7720 C   0  0  0  0  0  0  0  0  0  0  0  0
  143.8520  159.7140  134.0700 C   0  0  0  0  0  0  0  0  0  0  0  0
  142.4620  159.9730  134.4960 C   0  0  0  0  0  0  0  0  0  0  0  0
  141.6330  160.8410  133.7270 N   0  0  0  0  0  0  0  0  0  0  0  0
  142.0060  159.4660  135.5560 O   0  0  0  0  0  0  0  0  0  0  0  0
  144.8060  160.6580  133.8320 N   0  0  0  0  0  0  0  0  0  0  0  0
  144.7250  162.0710  134.0770 C   0  0  0  0  0  0  0  0  0  0  0  0
  143.9060  162.7820  133.4360 O   0  0  0  0  0  0  0  0  0  0  0  0
  145.5680  162.6730  135.0030 O   0  0  0  0  0  0  0  0  0  0  0  0
  145.8870  159.9820  133.3780 C   0  0  0  0  0  0  0  0  0  0  0  0
  147.1430  160.4880  133.0230 C   0  0  0  0  0  0  0  0  0  0  0  0
  149.0562  158.5051  130.2680 H   0  0  0  0  0  0  0  0  0  0  0  0
  148.3831  159.6715  129.0792 H   0  0  0  0  0  0  0  0  0  0  0  0
  150.1412  159.3028  129.0792 H   0  0  0  0  0  0  0  0  0  0  0  0
  150.4849  161.0076  130.4937 H   0  0  0  0  0  0  0  0  0  0  0  0
  147.6610  161.2380  129.9870 H   0  0  0  0  0  0  0  0  0  0  0  0
  148.8680  162.4240  129.9840 H   0  0  0  0  0  0  0  0  0  0  0  0
  148.1340  161.9680  131.4540 H   0  0  0  0  0  0  0  0  0  0  0  0
  150.2169  159.2598  132.2576 H   0  0  0  0  0  0  0  0  0  0  0  0
  149.7571  160.9265  132.8138 H   0  0  0  0  0  0  0  0  0  0  0  0
  148.6089  157.4892  132.1777 H   0  0  0  0  0  0  0  0  0  0  0  0
  146.3426  156.6385  132.8694 H   0  0  0  0  0  0  0  0  0  0  0  0
  143.8028  157.4853  133.8681 H   0  0  0  0  0  0  0  0  0  0  0  0
  142.0150  161.7170  133.3060 H   0  0  0  0  0  0  0  0  0  0  0  0
  147.3536  161.5662  133.0797 H   0  0  0  0  0  0  0  0  0  0  0  0
  1  2  1  0
  2  3  1  0
  2  4  1  0
  4  5  1  0
  5  6  2  0
  6  7  1  0
  7  8  2  0
  8  9  1  0
  9 10  2  0
 10 11  1  0
 11 12  1  0
 11 13  2  0
 10 14  1  0
 14 15  1  0
 15 16  2  0
 15 17  1  0
 14 18  1  0
 18 19  2  0
 19  5  1  0
 18  8  1  0
  1 20  1  0
  1 21  1  0
  1 22  1  0
  2 23  1  6
  3 24  1  0
  3 25  1  0
  3 26  1  0
  4 27  1  0
  4 28  1  0
  6 29  1  0
  7 30  1  0
  9 31  1  0
 12 32  1  0
 19 33  1  0
M  CHG  3   3   1  12  -1  17  -1
M  END
>  <UniqueID>  (46) 
46

>  <SMILES>  (46) 
C[C@@H]([NH3+])Cc1ccc2cc(C([NH-])=O)n(C(=O)[O-])c2c1

>  <Energy>  (46) 
68.01253908580797

>  <Genealogy>  (46) 
C[C@@H]([NH3+])Cc1ccc2cc(C([NH-])=O)n(C(=O)[O-])c2c1 (protonated)
C[C@@H]([NH3+])Cc1ccc2cc(C([NH-])=O)n(C(=O)[O-])c2c1 (3D coordinates assigned)
C[C@@H]([NH3+])Cc1ccc2cc(C([NH-])=O)n(C(=O)[O-])c2c1 (optimized conformer: 68.01253908580797 kcal/mol)

>  <smiles>  (46) 
C[C@@H](N)Cc1ccc2cc(C(N)=O)n(C(=O)O)c2c1

>  <score_type>  (46) 
oracle

>  <origin>  (46) 
adg

>  <m_score__min__energy>  (46) 
-7

>  <m_primary>  (46) 
energy

$$$$
46:0
     RDKit          3D

 33 34  0  0  0  0  0  0  0  0999 V2000
  146.4340  153.5080  133.4640 C   0  0  0  0  0  0  0  0  0  0  0  0
  147.8720  154.0290  133.3330 C   0  0  1  0  0  0  0  0  0  0  0  0
  148.8400  152.8850  132.9800 C   0  0  0  0  0  0  0  0  0  0  0  0
  149.4210  153.0890  131.7180 O   0  0  0  0  0  0  0  0  0  0  0  0
  147.9400  155.0930  132.3220 N   0  0  0  0  0  0  0  0  0  0  0  0
  147.8300  156.5040  132.6060 C   0  0  0  0  0  0  0  0  0  0  0  0
  148.9890  157.3130  132.5040 C   0  0  0  0  0  0  0  0  0  0  0  0
  148.9330  158.6930  132.7560 C   0  0  0  0  0  0  0  0  0  0  0  0
  147.7060  159.2400  133.1140 C   0  0  0  0  0  0  0  0  0  0  0  0
  147.3670  160.5440  133.3880 C   0  0  0  0  0  0  0  0  0  0  0  0
  146.0040  160.5190  133.6740 C   0  0  0  0  0  0  0  0  0  0  0  0
  145.2430  161.7080  134.1100 C   0  0  0  0  0  0  0  0  0  0  0  0
  145.9040  162.7520  134.8200 N   0  0  0  0  0  0  0  0  0  0  0  0
  144.0050  161.7950  133.8960 O   0  0  0  0  0  0  0  0  0  0  0  0
  145.5170  159.2490  133.5720 N   0  0  0  0  0  0  0  0  0  0  0  0
  144.1550  158.8160  133.7200 C   0  0  0  0  0  0  0  0  0  0  0  0
  143.5230  159.0570  134.7810 O   0  0  0  0  0  0  0  0  0  0  0  0
  143.5310  158.1040  132.7040 O   0  0  0  0  0  0  0  0  0  0  0  0
  146.5740  158.4780  133.2310 C   0  0  0  0  0  0  0  0  0  0  0  0
  146.5960  157.1020  132.9650 C   0  0  0  0  0  0  0  0  0  0  0  0
  146.1737  153.4137  134.5286 H   0  0  0  0  0  0  0  0  0  0  0  0
  145.7430  154.2129  132.9786 H   0  0  0  0  0  0  0  0  0  0  0  0
  146.3549  152.5240  132.9786 H   0  0  0  0  0  0  0  0  0  0  0  0
  148.1773  154.4470  134.3036 H   0  0  0  0  0  0  0  0  0  0  0  0
  149.6350  152.8393  133.7389 H   0  0  0  0  0  0  0  0  0  0  0  0
  148.2745  151.9418  132.9572 H   0  0  0  0  0  0  0  0  0  0  0  0
  150.4030  153.0140  131.8360 H   0  0  0  0  0  0  0  0  0  0  0  0
  148.0990  154.8150  131.3260 H   0  0  0  0  0  0  0  0  0  0  0  0
  149.9476  156.8525  132.2230 H   0  0  0  0  0  0  0  0  0  0  0  0
  149.8318  159.3217  132.6728 H   0  0  0  0  0  0  0  0  0  0  0  0
  148.0312  161.4209  133.3825 H   0  0  0  0  0  0  0  0  0  0  0  0
  146.9460  162.8070  134.8470 H   0  0  0  0  0  0  0  0  0  0  0  0
  145.6775  156.5005  133.0332 H   0  0  0  0  0  0  0  0  0  0  0  0
  1  2  1  0
  2  3  1  0
  3  4  1  0
  2  5  1  0
  5  6  1  0
  6  7  2  0
  7  8  1  0
  8  9  2  0
  9 10  1  0
 10 11  2  0
 11 12  1  0
 12 13  1  0
 12 14  2  0
 11 15  1  0
 15 16  1  0
 16 17  2  0
 16 18  1  0
 15 19  1  0
 19 20  2  0
 20  6  1  0
 19  9  1  0
  1 21  1  0
  1 22  1  0
  1 23  1  0
  2 24  1  1
  3 25  1  0
  3 26  1  0
  4 27  1  0
  5 28  1  0
  7 29  1  0
  8 30  1  0
 10 31  1  0
 13 32  1  0
 20 33  1  0
M  CHG  2  13  -1  18  -1
M  END
>  <UniqueID>  (47) 
47

>  <SMILES>  (47) 
C[C@@H](CO)Nc1ccc2cc(C([NH-])=O)n(C(=O)[O-])c2c1

>  <Energy>  (47) 
69.79497701034428

>  <Genealogy>  (47) 
C[C@@H](CO)Nc1ccc2cc(C([NH-])=O)n(C(=O)[O-])c2c1 (protonated)
C[C@@H](CO)Nc1ccc2cc(C([NH-])=O)n(C(=O)[O-])c2c1 (3D coordinates assigned)
C[C@@H](CO)Nc1ccc2cc(C([NH-])=O)n(C(=O)[O-])c2c1 (optimized conformer: 69.79497701034428 kcal/mol)

>  <smiles>  (47) 
C[C@@H](CO)Nc1ccc2cc(C(N)=O)n(C(=O)O)c2c1

>  <score_type>  (47) 
oracle

>  <origin>  (47) 
adg

>  <m_score__min__energy>  (47) 
-7.0099999999999998

>  <m_primary>  (47) 
energy

$$$$
47:0
     RDKit          3D

 30 31  0  0  0  0  0  0  0  0999 V2000
  141.5980  160.8620  133.7860 N   0  0  0  0  0  0  0  0  0  0  0  0
  142.3780  159.8820  134.4710 C   0  0  0  0  0  0  0  0  0  0  0  0
  141.9170  159.3450  135.5140 O   0  0  0  0  0  0  0  0  0  0  0  0
  143.7400  159.5370  134.0200 C   0  0  0  0  0  0  0  0  0  0  0  0
  144.1300  158.2440  133.6840 C   0  0  0  0  0  0  0  0  0  0  0  0
  145.4710  158.3340  133.3900 C   0  0  0  0  0  0  0  0  0  0  0  0
  146.3640  157.3460  132.9860 C   0  0  0  0  0  0  0  0  0  0  0  0
  147.6890  157.7260  132.7190 C   0  0  0  0  0  0  0  0  0  0  0  0
  148.0910  159.0800  132.8430 C   0  0  0  0  0  0  0  0  0  0  0  0
  149.5200  159.4740  132.5720 C   0  0  0  0  0  0  0  0  0  0  0  0
  149.8070  159.5780  131.0700 C   0  0  0  0  0  0  0  0  0  0  0  0
  149.0200  160.6800  130.4310 C   0  0  0  0  0  0  0  0  0  0  0  0
  147.8090  160.5050  130.1360 O   0  0  0  0  0  0  0  0  0  0  0  0
  149.6350  161.8870  130.1230 O   0  0  0  0  0  0  0  0  0  0  0  0
  147.1580  160.0540  133.2600 C   0  0  0  0  0  0  0  0  0  0  0  0
  145.8480  159.6440  133.5410 C   0  0  0  0  0  0  0  0  0  0  0  0
  144.7920  160.3980  133.9260 N   0  0  0  0  0  0  0  0  0  0  0  0
  144.7620  161.8290  134.0760 C   0  0  0  0  0  0  0  0  0  0  0  0
  145.6130  162.4140  134.7950 O   0  0  0  0  0  0  0  0  0  0  0  0
  143.7960  162.5810  133.4200 O   0  0  0  0  0  0  0  0  0  0  0  0
  140.6230  161.0680  134.0980 H   0  0  0  0  0  0  0  0  0  0  0  0
  142.0100  161.4420  133.0220 H   0  0  0  0  0  0  0  0  0  0  0  0
  143.5004  157.3424  133.6589 H   0  0  0  0  0  0  0  0  0  0  0  0
  146.0417  156.2997  132.8792 H   0  0  0  0  0  0  0  0  0  0  0  0
  148.4221  156.9661  132.4107 H   0  0  0  0  0  0  0  0  0  0  0  0
  149.7151  160.4501  133.0401 H   0  0  0  0  0  0  0  0  0  0  0  0
  150.1746  158.6961  132.9920 H   0  0  0  0  0  0  0  0  0  0  0  0
  150.8794  159.7752  130.9248 H   0  0  0  0  0  0  0  0  0  0  0  0
  149.5134  158.6287  130.5982 H   0  0  0  0  0  0  0  0  0  0  0  0
  147.4523  161.1090  133.3618 H   0  0  0  0  0  0  0  0  0  0  0  0
  1  2  1  0
  2  3  2  0
  2  4  1  0
  4  5  2  0
  5  6  1  0
  6  7  2  0
  7  8  1  0
  8  9  2  0
  9 10  1  0
 10 11  1  0
 11 12  1  0
 12 13  2  0
 12 14  1  0
  9 15  1  0
 15 16  2  0
 16 17  1  0
 17 18  1  0
 18 19  2  0
 18 20  1  0
 17  4  1  0
 16  6  1  0
  1 21  1  0
  1 22  1  0
  5 23  1  0
  7 24  1  0
  8 25  1  0
 10 26  1  0
 10 27  1  0
 11 28  1  0
 11 29  1  0
 15 30  1  0
M  CHG  2  14  -1  20  -1
M  END
>  <UniqueID>  (48) 
48

>  <SMILES>  (48) 
NC(=O)c1cc2ccc(CCC(=O)[O-])cc2n1C(=O)[O-]

>  <Energy>  (48) 
66.9746919398107

>  <Genealogy>  (48) 
NC(=O)c1cc2ccc(CCC(=O)[O-])cc2n1C(=O)[O-] (protonated)
NC(=O)c1cc2ccc(CCC(=O)[O-])cc2n1C(=O)[O-] (3D coordinates assigned)
NC(=O)c1cc2ccc(CCC(=O)[O-])cc2n1C(=O)[O-] (optimized conformer: 66.9746919398107 kcal/mol)

>  <smiles>  (48) 
NC(=O)c1cc2ccc(CCC(=O)O)cc2n1C(=O)O

>  <score_type>  (48) 
oracle

>  <origin>  (48) 
adg

>  <m_score__min__energy>  (48) 
-6.54

>  <m_primary>  (48) 
energy

$$$$
48:0
     RDKit          3D

 38 39  0  0  0  0  0  0  0  0999 V2000
  140.9770  159.5360  135.8100 C   0  0  0  0  0  0  0  0  0  0  0  0
  141.4160  158.9190  134.4760 C   0  0  1  0  0  0  0  0  0  0  0  0
  140.4350  159.2820  133.3770 C   0  0  0  0  0  0  0  0  0  0  0  0
  140.4170  160.4710  132.9540 O   0  0  0  0  0  0  0  0  0  0  0  0
  139.4840  158.3310  132.8420 N   0  0  0  0  0  0  0  0  0  0  0  0
  139.3960  156.9590  133.3580 C   0  0  0  0  0  0  0  0  0  0  0  0
  138.5810  158.7630  131.7700 C   0  0  0  0  0  0  0  0  0  0  0  0
  142.8330  159.3210  134.0970 C   0  0  0  0  0  0  0  0  0  0  0  0
  143.1750  160.6970  134.0370 C   0  0  0  0  0  0  0  0  0  0  0  0
  144.4830  161.1040  133.7280 C   0  0  0  0  0  0  0  0  0  0  0  0
  145.4320  160.1170  133.4830 C   0  0  0  0  0  0  0  0  0  0  0  0
  146.7740  160.2350  133.2050 C   0  0  0  0  0  0  0  0  0  0  0  0
  147.2370  158.9290  133.0790 C   0  0  0  0  0  0  0  0  0  0  0  0
  148.6300  158.5930  132.7200 C   0  0  0  0  0  0  0  0  0  0  0  0
  148.9280  157.4940  131.8590 N   0  0  0  0  0  0  0  0  0  0  0  0
  149.5690  159.3240  133.1340 O   0  0  0  0  0  0  0  0  0  0  0  0
  146.2280  158.0360  133.2850 N   0  0  0  0  0  0  0  0  0  0  0  0
  146.3290  156.6030  133.3530 C   0  0  0  0  0  0  0  0  0  0  0  0
  146.0630  155.9960  134.4240 O   0  0  0  0  0  0  0  0  0  0  0  0
  146.7210  155.8710  132.2390 O   0  0  0  0  0  0  0  0  0  0  0  0
  145.1260  158.7820  133.5280 C   0  0  0  0  0  0  0  0  0  0  0  0
  143.8360  158.3480  133.8570 C   0  0  0  0  0  0  0  0  0  0  0  0
  141.3949  158.9486  136.6408 H   0  0  0  0  0  0  0  0  0  0  0  0
  141.3424  160.5716  135.8729 H   0  0  0  0  0  0  0  0  0  0  0  0
  139.8788  159.5302  135.8729 H   0  0  0  0  0  0  0  0  0  0  0  0
  141.4173  157.8262  134.6013 H   0  0  0  0  0  0  0  0  0  0  0  0
  139.3973  156.9801  134.4578 H   0  0  0  0  0  0  0  0  0  0  0  0
  138.4661  156.4921  133.0014 H   0  0  0  0  0  0  0  0  0  0  0  0
  140.2587  156.3771  133.0014 H   0  0  0  0  0  0  0  0  0  0  0  0
  137.6715  159.1981  132.2098 H   0  0  0  0  0  0  0  0  0  0  0  0
  139.0847  159.5176  131.1481 H   0  0  0  0  0  0  0  0  0  0  0  0
  138.3095  157.8972  131.1481 H   0  0  0  0  0  0  0  0  0  0  0  0
  142.4040  161.4561  134.2355 H   0  0  0  0  0  0  0  0  0  0  0  0
  144.7489  162.1704  133.6811 H   0  0  0  0  0  0  0  0  0  0  0  0
  147.3562  161.1628  133.1040 H   0  0  0  0  0  0  0  0  0  0  0  0
  149.9200  157.2490  131.6460 H   0  0  0  0  0  0  0  0  0  0  0  0
  148.1690  156.9760  131.3650 H   0  0  0  0  0  0  0  0  0  0  0  0
  143.6056  157.2747  133.9278 H   0  0  0  0  0  0  0  0  0  0  0  0
  1  2  1  0
  2  3  1  0
  3  4  2  0
  3  5  1  0
  5  6  1  0
  5  7  1  0
  2  8  1  0
  8  9  2  0
  9 10  1  0
 10 11  2  0
 11 12  1  0
 12 13  2  0
 13 14  1  0
 14 15  1  0
 14 16  2  0
 13 17  1  0
 17 18  1  0
 18 19  2  0
 18 20  1  0
 17 21  1  0
 21 22  2  0
 22  8  1  0
 21 11  1  0
  1 23  1  0
  1 24  1  0
  1 25  1  0
  2 26  1  1
  6 27  1  0
  6 28  1  0
  6 29  1  0
  7 30  1  0
  7 31  1  0
  7 32  1  0
  9 33  1  0
 10 34  1  0
 12 35  1  0
 15 36  1  0
 15 37  1  0
 22 38  1  0
M  CHG  1  20  -1
M  END
>  <UniqueID>  (49) 
49

>  <SMILES>  (49) 
C[C@@H](C(=O)N(C)C)c1ccc2cc(C(N)=O)n(C(=O)[O-])c2c1

>  <Energy>  (49) 
75.87556549823329

>  <Genealogy>  (49) 
CC(C(=O)N(C)C)c1ccc2cc(C(N)=O)n(C(=O)[O-])c2c1 (protonated)
C[C@@H](C(=O)N(C)C)c1ccc2cc(C(N)=O)n(C(=O)[O-])c2c1 (chirality)
C[C@@H](C(=O)N(C)C)c1ccc2cc(C(N)=O)n(C(=O)[O-])c2c1 (3D coordinates assigned)
C[C@@H](C(=O)N(C)C)c1ccc2cc(C(N)=O)n(C(=O)[O-])c2c1 (optimized conformer: 75.87556549823329 kcal/mol)

>  <smiles>  (49) 
CC(C(=O)N(C)C)c1ccc2cc(C(N)=O)n(C(=O)O)c2c1

>  <score_type>  (49) 
oracle

>  <origin>  (49) 
adg

>  <m_score__min__energy>  (49) 
-7.1399999999999997

>  <m_primary>  (49) 
energy

$$$$
49:0
     RDKit          3D

 39 41  0  0  0  0  0  0  0  0999 V2000
  149.2710  151.3450  132.3190 C   0  0  0  0  0  0  0  0  0  0  0  0
  149.3220  152.3160  133.3380 O   0  0  0  0  0  0  0  0  0  0  0  0
  148.2200  153.1930  133.2040 C   0  0  0  0  0  0  0  0  0  0  0  0
  148.5980  154.3590  132.2910 C   0  0  2  0  0  0  0  0  0  0  0  0
  149.9940  154.4980  132.2680 O   0  0  0  0  0  0  0  0  0  0  0  0
  147.9700  155.6350  132.7770 C   0  0  0  0  0  0  0  0  0  0  0  0
  148.6660  156.6950  133.2320 N   0  0  0  0  0  0  0  0  0  0  0  0
  147.7340  157.6030  133.5670 C   0  0  0  0  0  0  0  0  0  0  0  0
  146.4910  157.0530  133.3020 C   0  0  0  0  0  0  0  0  0  0  0  0
  145.1640  157.6770  133.5030 C   0  0  0  0  0  0  0  0  0  0  0  0
  145.0600  159.0890  133.5710 C   0  0  0  0  0  0  0  0  0  0  0  0
  143.8150  159.7120  133.7550 C   0  0  0  0  0  0  0  0  0  0  0  0
  142.6910  158.9020  133.8740 C   0  0  0  0  0  0  0  0  0  0  0  0
  141.3680  159.2440  134.0300 C   0  0  0  0  0  0  0  0  0  0  0  0
  140.6780  158.0350  134.0780 C   0  0  0  0  0  0  0  0  0  0  0  0
  139.2240  157.9420  134.3250 C   0  0  0  0  0  0  0  0  0  0  0  0
  138.3340  157.4730  133.3110 N   0  0  0  0  0  0  0  0  0  0  0  0
  138.7670  158.2290  135.4640 O   0  0  0  0  0  0  0  0  0  0  0  0
  141.5400  156.9870  133.9470 N   0  0  0  0  0  0  0  0  0  0  0  0
  141.2220  155.5880  133.8620 C   0  0  0  0  0  0  0  0  0  0  0  0
  140.1720  155.2080  133.2760 O   0  0  0  0  0  0  0  0  0  0  0  0
  142.0780  154.6400  134.4080 O   0  0  0  0  0  0  0  0  0  0  0  0
  142.7690  157.5350  133.8270 C   0  0  0  0  0  0  0  0  0  0  0  0
  143.9950  156.8870  133.6250 C   0  0  0  0  0  0  0  0  0  0  0  0
  146.6740  155.8440  132.8190 O   0  0  0  0  0  0  0  0  0  0  0  0
  149.2184  150.3429  132.7697 H   0  0  0  0  0  0  0  0  0  0  0  0
  148.3805  151.5140  131.6957 H   0  0  0  0  0  0  0  0  0  0  0  0
  150.1743  151.4197  131.6957 H   0  0  0  0  0  0  0  0  0  0  0  0
  147.3698  152.6479  132.7681 H   0  0  0  0  0  0  0  0  0  0  0  0
  147.9409  153.5814  134.1945 H   0  0  0  0  0  0  0  0  0  0  0  0
  148.2280  154.1512  131.2762 H   0  0  0  0  0  0  0  0  0  0  0  0
  150.3640  153.6330  131.9590 H   0  0  0  0  0  0  0  0  0  0  0  0
  149.7030  156.7950  133.3090 H   0  0  0  0  0  0  0  0  0  0  0  0
  147.9245  158.6051  133.9786 H   0  0  0  0  0  0  0  0  0  0  0  0
  145.9666  159.7050  133.4784 H   0  0  0  0  0  0  0  0  0  0  0  0
  143.7314  160.8078  133.8036 H   0  0  0  0  0  0  0  0  0  0  0  0
  140.9448  160.2568  134.1016 H   0  0  0  0  0  0  0  0  0  0  0  0
  138.3690  156.4830  132.9830 H   0  0  0  0  0  0  0  0  0  0  0  0
  144.0481  155.7900  133.5626 H   0  0  0  0  0  0  0  0  0  0  0  0
  1  2  1  0
  2  3  1  0
  3  4  1  0
  4  5  1  0
  4  6  1  0
  6  7  2  0
  7  8  1  0
  8  9  2  0
  9 10  1  0
 10 11  2  0
 11 12  1  0
 12 13  2  0
 13 14  1  0
 14 15  2  0
 15 16  1  0
 16 17  1  0
 16 18  2  0
 15 19  1  0
 19 20  1  0
 20 21  2  0
 20 22  1  0
 19 23  1  0
 23 24  2  0
  9 25  1  0
 25  6  1  0
 24 10  1  0
 23 13  1  0
  1 26  1  0
  1 27  1  0
  1 28  1  0
  3 29  1  0
  3 30  1  0
  4 31  1  6
  5 32  1  0
  7 33  1  0
  8 34  1  0
 11 35  1  0
 12 36  1  0
 14 37  1  0
 17 38  1  0
 24 39  1  0
M  CHG  3   7   1  17  -1  22  -1
M  END
>  <UniqueID>  (50) 
50

>  <SMILES>  (50) 
COC[C@H](O)c1[nH+]cc(-c2ccc3cc(C([NH-])=O)n(C(=O)[O-])c3c2)o1

>  <Energy>  (50) 
110.75855998245206

>  <Genealogy>  (50) 
COCC(O)c1[nH+]cc(-c2ccc3cc(C([NH-])=O)n(C(=O)[O-])c3c2)o1 (protonated)
COC[C@H](O)c1[nH+]cc(-c2ccc3cc(C([NH-])=O)n(C(=O)[O-])c3c2)o1 (chirality)
COC[C@H](O)c1[nH+]cc(-c2ccc3cc(C([NH-])=O)n(C(=O)[O-])c3c2)o1 (3D coordinates assigned)
COC[C@H](O)c1[nH+]cc(-c2ccc3cc(C([NH-])=O)n(C(=O)[O-])c3c2)o1 (optimized conformer: 110.75855998245206 kcal/mol)

>  <smiles>  (50) 
COCC(O)c1ncc(-c2ccc3cc(C(N)=O)n(C(=O)O)c3c2)o1

>  <score_type>  (50) 
oracle

>  <origin>  (50) 
adg

>  <m_score__min__energy>  (50) 
-7

>  <m_primary>  (50) 
energy

$$$$
50:0
     RDKit          3D

 38 39  0  0  0  0  0  0  0  0999 V2000
  149.1450  161.8570  130.6740 C   0  0  0  0  0  0  0  0  0  0  0  0
  149.7350  160.4420  130.6490 C   0  0  0  0  0  0  0  0  0  0  0  0
  150.3280  160.1270  129.2700 C   0  0  0  0  0  0  0  0  0  0  0  0
  148.7030  159.3760  131.0680 C   0  0  0  0  0  0  0  0  0  0  0  0
  147.9910  159.7660  132.2430 O   0  0  0  0  0  0  0  0  0  0  0  0
  147.8040  158.9360  133.3540 C   0  0  0  0  0  0  0  0  0  0  0  0
  148.6030  158.9850  134.3300 O   0  0  0  0  0  0  0  0  0  0  0  0
  146.6940  158.0240  133.3800 N   0  0  0  0  0  0  0  0  0  0  0  0
  145.3880  158.3230  133.6260 C   0  0  0  0  0  0  0  0  0  0  0  0
  144.8190  159.6800  133.7410 C   0  0  0  0  0  0  0  0  0  0  0  0
  145.5100  160.8200  133.2300 N   0  0  0  0  0  0  0  0  0  0  0  0
  143.6770  159.8300  134.2540 O   0  0  0  0  0  0  0  0  0  0  0  0
  144.6260  157.1610  133.7150 C   0  0  0  0  0  0  0  0  0  0  0  0
  145.5120  156.1290  133.5060 C   0  0  0  0  0  0  0  0  0  0  0  0
  145.2960  154.7550  133.4950 C   0  0  0  0  0  0  0  0  0  0  0  0
  146.4040  153.9160  133.2920 C   0  0  0  0  0  0  0  0  0  0  0  0
  147.7060  154.4570  133.1330 C   0  0  0  0  0  0  0  0  0  0  0  0
  148.8810  153.5470  132.8830 C   0  0  0  0  0  0  0  0  0  0  0  0
  149.1840  152.8180  134.0210 F   0  0  0  0  0  0  0  0  0  0  0  0
  149.9790  154.3100  132.5310 F   0  0  0  0  0  0  0  0  0  0  0  0
  148.6040  152.6570  131.8600 F   0  0  0  0  0  0  0  0  0  0  0  0
  147.8800  155.8610  133.1280 C   0  0  0  0  0  0  0  0  0  0  0  0
  146.7550  156.6740  133.3100 C   0  0  0  0  0  0  0  0  0  0  0  0
  149.0104  162.1798  131.7169 H   0  0  0  0  0  0  0  0  0  0  0  0
  149.8296  162.5488  130.1615 H   0  0  0  0  0  0  0  0  0  0  0  0
  148.1717  161.8575  130.1615 H   0  0  0  0  0  0  0  0  0  0  0  0
  150.5461  160.4103  131.3914 H   0  0  0  0  0  0  0  0  0  0  0  0
  151.2932  159.6143  129.3944 H   0  0  0  0  0  0  0  0  0  0  0  0
  149.6367  159.4772  128.7133 H   0  0  0  0  0  0  0  0  0  0  0  0
  150.4794  161.0636  128.7133 H   0  0  0  0  0  0  0  0  0  0  0  0
  147.9852  159.2321  130.2470 H   0  0  0  0  0  0  0  0  0  0  0  0
  149.2424  158.4426  131.2867 H   0  0  0  0  0  0  0  0  0  0  0  0
  146.3730  160.7130  132.6540 H   0  0  0  0  0  0  0  0  0  0  0  0
  145.1120  161.7760  133.3600 H   0  0  0  0  0  0  0  0  0  0  0  0
  143.5463  157.0843  133.9106 H   0  0  0  0  0  0  0  0  0  0  0  0
  144.2885  154.3383  133.6408 H   0  0  0  0  0  0  0  0  0  0  0  0
  146.2606  152.8260  133.2559 H   0  0  0  0  0  0  0  0  0  0  0  0
  148.8767  156.3037  132.9844 H   0  0  0  0  0  0  0  0  0  0  0  0
  1  2  1  0
  2  3  1  0
  2  4  1  0
  4  5  1  0
  5  6  1  0
  6  7  2  0
  6  8  1  0
  8  9  1  0
  9 10  1  0
 10 11  1  0
 10 12  2  0
  9 13  2  0
 13 14  1  0
 14 15  2  0
 15 16  1  0
 16 17  2  0
 17 18  1  0
 18 19  1  0
 18 20  1  0
 18 21  1  0
 17 22  1  0
 22 23  2  0
 23  8  1  0
 23 14  1  0
  1 24  1  0
  1 25  1  0
  1 26  1  0
  2 27  1  0
  3 28  1  0
  3 29  1  0
  3 30  1  0
  4 31  1  0
  4 32  1  0
 11 33  1  0
 11 34  1  0
 13 35  1  0
 15 36  1  0
 16 37  1  0
 22 38  1  0
M  END
>  <UniqueID>  (51) 
51

>  <SMILES>  (51) 
CC(C)COC(=O)n1c(C(N)=O)cc2ccc(C(F)(F)F)cc21

>  <Energy>  (51) 
71.65726346926294

>  <Genealogy>  (51) 
CC(C)COC(=O)n1c(C(N)=O)cc2ccc(C(F)(F)F)cc21 (3D coordinates assigned)
CC(C)COC(=O)n1c(C(N)=O)cc2ccc(C(F)(F)F)cc21 (optimized conformer: 71.65726346926294 kcal/mol)

>  <smiles>  (51) 
CC(C)COC(=O)n1c(C(N)=O)cc2ccc(C(F)(F)F)cc21

>  <score_type>  (51) 
oracle

>  <origin>  (51) 
adg

>  <m_score__min__energy>  (51) 
-6.9900000000000002

>  <m_primary>  (51) 
energy

$$$$
51:0
     RDKit          3D

 41 42  0  0  0  0  0  0  0  0999 V2000
  149.5920  153.4540  132.2110 C   0  0  0  0  0  0  0  0  0  0  0  0
  149.0350  154.4090  133.0840 O   0  0  0  0  0  0  0  0  0  0  0  0
  148.3680  153.7480  134.1410 C   0  0  0  0  0  0  0  0  0  0  0  0
  146.8600  153.7430  133.8760 C   0  0  0  0  0  0  0  0  0  0  0  0
  146.0700  154.4920  134.9520 C   0  0  0  0  0  0  0  0  0  0  0  0
  146.1770  155.8970  134.7480 O   0  0  0  0  0  0  0  0  0  0  0  0
  145.7480  156.5350  133.5820 C   0  0  0  0  0  0  0  0  0  0  0  0
  145.3320  155.8550  132.6050 O   0  0  0  0  0  0  0  0  0  0  0  0
  145.7850  157.9710  133.5040 N   0  0  0  0  0  0  0  0  0  0  0  0
  146.8950  158.7630  133.4650 C   0  0  0  0  0  0  0  0  0  0  0  0
  148.2870  158.2950  133.3150 C   0  0  0  0  0  0  0  0  0  0  0  0
  148.6120  156.9060  133.3840 N   0  0  0  0  0  0  0  0  0  0  0  0
  149.1970  159.1310  133.0650 O   0  0  0  0  0  0  0  0  0  0  0  0
  146.5450  160.1080  133.5430 C   0  0  0  0  0  0  0  0  0  0  0  0
  145.1730  160.1220  133.6200 C   0  0  0  0  0  0  0  0  0  0  0  0
  144.2970  161.1990  133.7280 C   0  0  0  0  0  0  0  0  0  0  0  0
  142.9250  160.9230  133.8300 C   0  0  0  0  0  0  0  0  0  0  0  0
  142.4560  159.5860  133.8400 C   0  0  0  0  0  0  0  0  0  0  0  0
  140.9820  159.3050  133.9330 C   0  0  0  0  0  0  0  0  0  0  0  0
  140.6150  158.9370  135.3350 C   0  0  0  0  0  0  0  0  0  0  0  0
  139.5810  158.2530  135.5590 O   0  0  0  0  0  0  0  0  0  0  0  0
  141.3860  159.3890  136.3970 O   0  0  0  0  0  0  0  0  0  0  0  0
  143.3730  158.5180  133.7170 C   0  0  0  0  0  0  0  0  0  0  0  0
  144.7360  158.8210  133.5970 C   0  0  0  0  0  0  0  0  0  0  0  0
  150.0608  152.6502  132.7977 H   0  0  0  0  0  0  0  0  0  0  0  0
  148.7992  153.0305  131.5768 H   0  0  0  0  0  0  0  0  0  0  0  0
  150.3509  153.9355  131.5768 H   0  0  0  0  0  0  0  0  0  0  0  0
  148.7305  152.7118  134.2110 H   0  0  0  0  0  0  0  0  0  0  0  0
  148.5703  154.2745  135.0854 H   0  0  0  0  0  0  0  0  0  0  0  0
  146.6717  154.2216  132.9037 H   0  0  0  0  0  0  0  0  0  0  0  0
  146.5240  152.6956  133.8849 H   0  0  0  0  0  0  0  0  0  0  0  0
  145.0119  154.1961  134.8988 H   0  0  0  0  0  0  0  0  0  0  0  0
  146.4798  154.2394  135.9411 H   0  0  0  0  0  0  0  0  0  0  0  0
  147.8640  156.1800  133.4320 H   0  0  0  0  0  0  0  0  0  0  0  0
  149.6070  156.5970  133.3200 H   0  0  0  0  0  0  0  0  0  0  0  0
  147.2222  160.9748  133.5430 H   0  0  0  0  0  0  0  0  0  0  0  0
  144.6690  162.2342  133.7332 H   0  0  0  0  0  0  0  0  0  0  0  0
  142.2065  161.7527  133.9029 H   0  0  0  0  0  0  0  0  0  0  0  0
  140.4212  160.2029  133.6341 H   0  0  0  0  0  0  0  0  0  0  0  0
  140.7329  158.4675  133.2647 H   0  0  0  0  0  0  0  0  0  0  0  0
  143.0255  157.4743  133.7155 H   0  0  0  0  0  0  0  0  0  0  0  0
  1  2  1  0
  2  3  1  0
  3  4  1  0
  4  5  1  0
  5  6  1  0
  6  7  1  0
  7  8  2  0
  7  9  1  0
  9 10  1  0
 10 11  1  0
 11 12  1  0
 11 13  2  0
 10 14  2  0
 14 15  1  0
 15 16  2  0
 16 17  1  0
 17 18  2  0
 18 19  1  0
 19 20  1  0
 20 21  2  0
 20 22  1  0
 18 23  1  0
 23 24  2  0
 24  9  1  0
 24 15  1  0
  1 25  1  0
  1 26  1  0
  1 27  1  0
  3 28  1  0
  3 29  1  0
  4 30  1  0
  4 31  1  0
  5 32  1  0
  5 33  1  0
 12 34  1  0
 12 35  1  0
 14 36  1  0
 16 37  1  0
 17 38  1  0
 19 39  1  0
 19 40  1  0
 23 41  1  0
M  CHG  1  22  -1
M  END
>  <UniqueID>  (52) 
52

>  <SMILES>  (52) 
COCCCOC(=O)n1c(C(N)=O)cc2ccc(CC(=O)[O-])cc21

>  <Energy>  (52) 
72.4410448641912

>  <Genealogy>  (52) 
COCCCOC(=O)n1c(C(N)=O)cc2ccc(CC(=O)[O-])cc21 (protonated)
COCCCOC(=O)n1c(C(N)=O)cc2ccc(CC(=O)[O-])cc21 (3D coordinates assigned)
COCCCOC(=O)n1c(C(N)=O)cc2ccc(CC(=O)[O-])cc21 (optimized conformer: 72.4410448641912 kcal/mol)

>  <smiles>  (52) 
COCCCOC(=O)n1c(C(N)=O)cc2ccc(CC(=O)O)cc21

>  <score_type>  (52) 
oracle

>  <origin>  (52) 
adg

>  <m_score__min__energy>  (52) 
-6.4199999999999999

>  <m_primary>  (52) 
energy

$$$$
52:0
     RDKit          3D

 48 51  0  0  0  0  0  0  0  0999 V2000
  138.4050  160.5130  129.9940 C   0  0  0  0  0  0  0  0  0  0  0  0
  138.3210  159.8030  130.9660 C   0  0  0  0  0  0  0  0  0  0  0  0
  138.2140  158.9440  132.1500 C   0  0  0  0  0  0  0  0  0  0  0  0
  139.1070  157.7080  132.0340 C   0  0  0  0  0  0  0  0  0  0  0  0
  140.0860  157.6860  133.0730 O   0  0  0  0  0  0  0  0  0  0  0  0
  139.7930  157.4390  134.4200 C   0  0  0  0  0  0  0  0  0  0  0  0
  138.7700  157.9470  134.9540 O   0  0  0  0  0  0  0  0  0  0  0  0
  140.6910  156.6390  135.2070 N   0  0  0  0  0  0  0  0  0  0  0  0
  141.3200  156.9770  136.3690 C   0  0  0  0  0  0  0  0  0  0  0  0
  141.1000  158.2130  137.1490 C   0  0  0  0  0  0  0  0  0  0  0  0
  140.5230  159.3550  136.5190 N   0  0  0  0  0  0  0  0  0  0  0  0
  141.4500  158.2870  138.3560 O   0  0  0  0  0  0  0  0  0  0  0  0
  142.1600  155.9470  136.7870 C   0  0  0  0  0  0  0  0  0  0  0  0
  142.0200  154.9560  135.8420 C   0  0  0  0  0  0  0  0  0  0  0  0
  142.6280  153.7090  135.7560 C   0  0  0  0  0  0  0  0  0  0  0  0
  142.3120  152.8970  134.6540 C   0  0  0  0  0  0  0  0  0  0  0  0
  141.4080  153.3390  133.6570 C   0  0  0  0  0  0  0  0  0  0  0  0
  141.1180  152.4650  132.5450 N   0  0  0  0  0  0  0  0  0  0  0  0
  141.3400  151.0120  132.5200 C   0  0  1  0  0  0  0  0  0  0  0  0
  142.8040  150.5490  132.3470 C   0  0  0  0  0  0  0  0  0  0  0  0
  142.8600  148.9820  132.2290 C   0  0  0  0  0  0  0  0  0  0  0  0
  141.5940  148.2760  132.6170 N   0  0  0  0  0  0  0  0  0  0  0  0
  140.4160  149.1690  132.7410 C   0  0  1  0  0  0  0  0  0  0  0  0
  140.7700  150.2720  133.7290 C   0  0  0  0  0  0  0  0  0  0  0  0
  140.4220  150.1970  131.6090 C   0  0  0  0  0  0  0  0  0  0  0  0
  140.8130  154.6180  133.7830 C   0  0  0  0  0  0  0  0  0  0  0  0
  141.1280  155.3980  134.9000 C   0  0  0  0  0  0  0  0  0  0  0  0
  138.4816  161.1603  129.1079 H   0  0  0  0  0  0  0  0  0  0  0  0
  138.5161  159.5202  133.0370 H   0  0  0  0  0  0  0  0  0  0  0  0
  137.1706  158.6066  132.2359 H   0  0  0  0  0  0  0  0  0  0  0  0
  138.4832  156.8050  132.1081 H   0  0  0  0  0  0  0  0  0  0  0  0
  139.6252  157.7392  131.0642 H   0  0  0  0  0  0  0  0  0  0  0  0
  139.4920  159.4220  136.3700 H   0  0  0  0  0  0  0  0  0  0  0  0
  142.7992  155.9295  137.6820 H   0  0  0  0  0  0  0  0  0  0  0  0
  143.3348  153.3685  136.5270 H   0  0  0  0  0  0  0  0  0  0  0  0
  142.7737  151.9026  134.5640 H   0  0  0  0  0  0  0  0  0  0  0  0
  140.7080  152.8970  131.6860 H   0  0  0  0  0  0  0  0  0  0  0  0
  143.2232  150.9986  131.4348 H   0  0  0  0  0  0  0  0  0  0  0  0
  143.3900  150.8672  133.2218 H   0  0  0  0  0  0  0  0  0  0  0  0
  143.0884  148.7255  131.1840 H   0  0  0  0  0  0  0  0  0  0  0  0
  143.6316  148.6456  132.9371 H   0  0  0  0  0  0  0  0  0  0  0  0
  141.3760  147.5510  131.8930 H   0  0  0  0  0  0  0  0  0  0  0  0
  139.5527  148.5032  132.8876 H   0  0  0  0  0  0  0  0  0  0  0  0
  139.9097  150.7598  134.2105 H   0  0  0  0  0  0  0  0  0  0  0  0
  141.3545  150.0868  134.6423 H   0  0  0  0  0  0  0  0  0  0  0  0
  140.8809  149.8544  130.6698 H   0  0  0  0  0  0  0  0  0  0  0  0
  139.5002  150.6067  131.1703 H   0  0  0  0  0  0  0  0  0  0  0  0
  140.1167  154.9905  133.0172 H   0  0  0  0  0  0  0  0  0  0  0  0
  1  2  3  0
  2  3  1  0
  3  4  1  0
  4  5  1  0
  5  6  1  0
  6  7  2  0
  6  8  1  0
  8  9  1  0
  9 10  1  0
 10 11  1  0
 10 12  2  0
  9 13  2  0
 13 14  1  0
 14 15  2  0
 15 16  1  0
 16 17  2  0
 17 18  1  0
 19 18  1  1
 19 20  1  0
 20 21  1  0
 21 22  1  0
 22 23  1  0
 23 24  1  0
 23 25  1  0
 17 26  1  0
 26 27  2  0
 27  8  1  0
 27 14  1  0
 24 19  1  0
 25 19  1  0
  1 28  1  0
  3 29  1  0
  3 30  1  0
  4 31  1  0
  4 32  1  0
 11 33  1  0
 13 34  1  0
 15 35  1  0
 16 36  1  0
 18 37  1  0
 20 38  1  0
 20 39  1  0
 21 40  1  0
 21 41  1  0
 22 42  1  0
 23 43  1  1
 24 44  1  0
 24 45  1  0
 25 46  1  0
 25 47  1  0
 26 48  1  0
M  CHG  1  11  -1
M  END
>  <UniqueID>  (53) 
53

>  <SMILES>  (53) 
C#CCCOC(=O)n1c(C([NH-])=O)cc2ccc(NC34CCNC(C3)C4)cc21

>  <Energy>  (53) 
177.47588141502115

>  <Genealogy>  (53) 
C#CCCOC(=O)n1c(C([NH-])=O)cc2ccc(NC34CCNC(C3)C4)cc21 (protonated)
C#CCCOC(=O)n1c(C([NH-])=O)cc2ccc(NC34CCNC(C3)C4)cc21 (3D coordinates assigned)
C#CCCOC(=O)n1c(C([NH-])=O)cc2ccc(NC34CCNC(C3)C4)cc21 (nonaromatic ring conformer: 177.47588141502115 kcal/mol)

>  <smiles>  (53) 
C#CCCOC(=O)n1c(C(N)=O)cc2ccc(NC34CCNC(C3)C4)cc21

>  <score_type>  (53) 
oracle

>  <origin>  (53) 
adg

>  <m_score__min__energy>  (53) 
-8.8200000000000003

>  <m_primary>  (53) 
energy

$$$$
53:0
     RDKit          3D

 28 29  0  0  0  0  0  0  0  0999 V2000
  145.9650  162.6340  134.8160 N   0  0  0  0  0  0  0  0  0  0  0  0
  144.9640  161.9270  134.0850 C   0  0  0  0  0  0  0  0  0  0  0  0
  143.9560  162.5480  133.6550 O   0  0  0  0  0  0  0  0  0  0  0  0
  145.0910  160.5120  133.8660 N   0  0  0  0  0  0  0  0  0  0  0  0
  144.1440  159.5510  134.0620 C   0  0  0  0  0  0  0  0  0  0  0  0
  142.8290  159.7600  134.7050 C   0  0  0  0  0  0  0  0  0  0  0  0
  141.9070  160.7220  134.1860 N   0  0  0  0  0  0  0  0  0  0  0  0
  142.4940  159.0670  135.7020 O   0  0  0  0  0  0  0  0  0  0  0  0
  144.6230  158.3050  133.6610 C   0  0  0  0  0  0  0  0  0  0  0  0
  145.9040  158.5330  133.2140 C   0  0  0  0  0  0  0  0  0  0  0  0
  146.8390  157.6460  132.6890 C   0  0  0  0  0  0  0  0  0  0  0  0
  148.0790  158.1630  132.2790 C   0  0  0  0  0  0  0  0  0  0  0  0
  148.3620  159.5450  132.4030 C   0  0  0  0  0  0  0  0  0  0  0  0
  149.6750  160.0920  131.9190 C   0  0  0  0  0  0  0  0  0  0  0  0
  149.5460  160.5610  130.5050 C   0  0  0  0  0  0  0  0  0  0  0  0
  149.3350  159.7350  129.5800 O   0  0  0  0  0  0  0  0  0  0  0  0
  149.6090  161.9180  130.2140 O   0  0  0  0  0  0  0  0  0  0  0  0
  147.3850  160.4170  132.9320 C   0  0  0  0  0  0  0  0  0  0  0  0
  146.1640  159.8720  133.3480 C   0  0  0  0  0  0  0  0  0  0  0  0
  146.9730  162.5560  134.5570 H   0  0  0  0  0  0  0  0  0  0  0  0
  140.9660  160.8340  134.6240 H   0  0  0  0  0  0  0  0  0  0  0  0
  142.1680  161.3520  133.3960 H   0  0  0  0  0  0  0  0  0  0  0  0
  144.0899  157.3434  133.6948 H   0  0  0  0  0  0  0  0  0  0  0  0
  146.6139  156.5731  132.5979 H   0  0  0  0  0  0  0  0  0  0  0  0
  148.8379  157.4875  131.8574 H   0  0  0  0  0  0  0  0  0  0  0  0
  149.9745  160.9368  132.5567 H   0  0  0  0  0  0  0  0  0  0  0  0
  150.4355  159.2987  131.9674 H   0  0  0  0  0  0  0  0  0  0  0  0
  147.5783  161.4967  133.0151 H   0  0  0  0  0  0  0  0  0  0  0  0
  1  2  1  0
  2  3  2  0
  2  4  1  0
  4  5  1  0
  5  6  1  0
  6  7  1  0
  6  8  2  0
  5  9  2  0
  9 10  1  0
 10 11  2  0
 11 12  1  0
 12 13  2  0
 13 14  1  0
 14 15  1  0
 15 16  2  0
 15 17  1  0
 13 18  1  0
 18 19  2  0
 19  4  1  0
 19 10  1  0
  1 20  1  0
  7 21  1  0
  7 22  1  0
  9 23  1  0
 11 24  1  0
 12 25  1  0
 14 26  1  0
 14 27  1  0
 18 28  1  0
M  CHG  2   1  -1  17  -1
M  END
>  <UniqueID>  (54) 
54

>  <SMILES>  (54) 
[NH-]C(=O)n1c(C(N)=O)cc2ccc(CC(=O)[O-])cc21

>  <Energy>  (54) 
65.53601733113334

>  <Genealogy>  (54) 
[NH-]C(=O)n1c(C(N)=O)cc2ccc(CC(=O)[O-])cc21 (protonated)
[NH-]C(=O)n1c(C(N)=O)cc2ccc(CC(=O)[O-])cc21 (3D coordinates assigned)
[NH-]C(=O)n1c(C(N)=O)cc2ccc(CC(=O)[O-])cc21 (optimized conformer: 65.53601733113334 kcal/mol)

>  <smiles>  (54) 
NC(=O)c1cc2ccc(CC(=O)O)cc2n1C(N)=O

>  <score_type>  (54) 
oracle

>  <origin>  (54) 
adg

>  <m_score__min__energy>  (54) 
-6.5899999999999999

>  <m_primary>  (54) 
energy

$$$$
54:0
     RDKit          3D

 37 39  0  0  0  0  0  0  0  0999 V2000
  149.3810  158.9890  133.3150 N   0  0  0  0  0  0  0  0  0  0  0  0
  148.2870  159.7340  132.7790 C   0  0  0  0  0  0  0  0  0  0  0  0
  148.5060  160.6000  131.8900 O   0  0  0  0  0  0  0  0  0  0  0  0
  146.8980  159.4630  133.1990 C   0  0  0  0  0  0  0  0  0  0  0  0
  145.9400  160.4590  133.3590 C   0  0  0  0  0  0  0  0  0  0  0  0
  144.7790  159.7960  133.6850 C   0  0  0  0  0  0  0  0  0  0  0  0
  143.5130  160.2980  133.9600 C   0  0  0  0  0  0  0  0  0  0  0  0
  142.5010  159.3850  134.2990 C   0  0  0  0  0  0  0  0  0  0  0  0
  142.7700  157.9940  134.3800 C   0  0  0  0  0  0  0  0  0  0  0  0
  141.6290  157.0400  134.7170 C   0  0  0  0  0  0  0  0  0  0  0  0
  141.6380  156.6770  136.2150 C   0  0  0  0  0  0  0  0  0  0  0  0
  141.0700  157.8010  137.1100 C   0  0  0  0  0  0  0  0  0  0  0  0
  140.0690  158.6490  136.4370 N   0  0  0  0  0  0  0  0  0  0  0  0
  139.3130  157.9220  135.4140 C   0  0  0  0  0  0  0  0  0  0  0  0
  140.2340  157.5360  134.2460 C   0  0  0  0  0  0  0  0  0  0  0  0
  144.0740  157.5250  134.0800 C   0  0  0  0  0  0  0  0  0  0  0  0
  145.0560  158.4540  133.7230 C   0  0  0  0  0  0  0  0  0  0  0  0
  146.3590  158.2330  133.4280 N   0  0  0  0  0  0  0  0  0  0  0  0
  147.0530  156.9740  133.4750 C   0  0  0  0  0  0  0  0  0  0  0  0
  146.9530  156.1540  132.5250 O   0  0  0  0  0  0  0  0  0  0  0  0
  147.8390  156.6470  134.5740 O   0  0  0  0  0  0  0  0  0  0  0  0
  149.2190  158.1570  133.9240 H   0  0  0  0  0  0  0  0  0  0  0  0
  150.3590  159.2200  133.0330 H   0  0  0  0  0  0  0  0  0  0  0  0
  146.0805  161.5444  133.2485 H   0  0  0  0  0  0  0  0  0  0  0  0
  143.3094  161.3780  133.9136 H   0  0  0  0  0  0  0  0  0  0  0  0
  141.4852  159.7535  134.5047 H   0  0  0  0  0  0  0  0  0  0  0  0
  141.8149  156.1232  134.1383 H   0  0  0  0  0  0  0  0  0  0  0  0
  141.0302  155.7718  136.3603 H   0  0  0  0  0  0  0  0  0  0  0  0
  142.6859  156.5185  136.5097 H   0  0  0  0  0  0  0  0  0  0  0  0
  140.5980  157.3388  137.9895 H   0  0  0  0  0  0  0  0  0  0  0  0
  141.9137  158.4535  137.3791 H   0  0  0  0  0  0  0  0  0  0  0  0
  139.3940  158.9990  137.1570 H   0  0  0  0  0  0  0  0  0  0  0  0
  138.8868  157.0099  135.8571 H   0  0  0  0  0  0  0  0  0  0  0  0
  138.5072  158.5687  135.0365 H   0  0  0  0  0  0  0  0  0  0  0  0
  139.7520  156.7330  133.6690 H   0  0  0  0  0  0  0  0  0  0  0  0
  140.3919  158.4383  133.6369 H   0  0  0  0  0  0  0  0  0  0  0  0
  144.3085  156.4513  134.1272 H   0  0  0  0  0  0  0  0  0  0  0  0
  1  2  1  0
  2  3  2  0
  2  4  1  0
  4  5  2  0
  5  6  1  0
  6  7  2  0
  7  8  1  0
  8  9  2  0
  9 10  1  0
 10 11  1  0
 11 12  1  0
 12 13  1  0
 13 14  1  0
 14 15  1  0
  9 16  1  0
 16 17  2  0
 17 18  1  0
 18 19  1  0
 19 20  2  0
 19 21  1  0
 18  4  1  0
 17  6  1  0
 15 10  1  0
  1 22  1  0
  1 23  1  0
  5 24  1  0
  7 25  1  0
  8 26  1  0
 10 27  1  0
 11 28  1  0
 11 29  1  0
 12 30  1  0
 12 31  1  0
 13 32  1  0
 14 33  1  0
 14 34  1  0
 15 35  1  0
 15 36  1  0
 16 37  1  0
M  CHG  1  21  -1
M  END
>  <UniqueID>  (55) 
55

>  <SMILES>  (55) 
NC(=O)c1cc2ccc(C3CCNCC3)cc2n1C(=O)[O-]

>  <Energy>  (55) 
85.68697568785778

>  <Genealogy>  (55) 
NC(=O)c1cc2ccc(C3CCNCC3)cc2n1C(=O)[O-] (protonated)
NC(=O)c1cc2ccc(C3CCNCC3)cc2n1C(=O)[O-] (3D coordinates assigned)
NC(=O)c1cc2ccc(C3CCNCC3)cc2n1C(=O)[O-] (nonaromatic ring conformer: 85.68697568785778 kcal/mol)

>  <smiles>  (55) 
NC(=O)c1cc2ccc(C3CCNCC3)cc2n1C(=O)O

>  <score_type>  (55) 
oracle

>  <origin>  (55) 
adg

>  <m_score__min__energy>  (55) 
-7.8200000000000003

>  <m_primary>  (55) 
energy

$$$$
55:0
     RDKit          3D

 51 53  0  0  0  0  0  0  0  0999 V2000
  138.0270  160.3820  130.0020 C   0  0  0  0  0  0  0  0  0  0  0  0
  137.6050  159.4970  131.1750 C   0  0  0  0  0  0  0  0  0  0  0  0
  138.7840  158.7290  131.7970 C   0  0  0  0  0  0  0  0  0  0  0  0
  140.1650  159.3190  131.4770 C   0  0  0  0  0  0  0  0  0  0  0  0
  140.7100  160.0000  132.6080 O   0  0  0  0  0  0  0  0  0  0  0  0
  141.1280  159.3530  133.7770 C   0  0  0  0  0  0  0  0  0  0  0  0
  140.8040  159.8030  134.9090 O   0  0  0  0  0  0  0  0  0  0  0  0
  141.9590  158.1890  133.6880 N   0  0  0  0  0  0  0  0  0  0  0  0
  141.5780  156.8820  133.6820 C   0  0  0  0  0  0  0  0  0  0  0  0
  140.1980  156.3830  133.8560 C   0  0  0  0  0  0  0  0  0  0  0  0
  139.2560  157.1470  134.6060 N   0  0  0  0  0  0  0  0  0  0  0  0
  139.8330  155.3000  133.3270 O   0  0  0  0  0  0  0  0  0  0  0  0
  142.6930  156.0520  133.5630 C   0  0  0  0  0  0  0  0  0  0  0  0
  143.7750  156.9000  133.4950 C   0  0  0  0  0  0  0  0  0  0  0  0
  145.1340  156.6190  133.3720 C   0  0  0  0  0  0  0  0  0  0  0  0
  146.0270  157.7020  133.3100 C   0  0  0  0  0  0  0  0  0  0  0  0
  145.5490  159.0360  133.3440 C   0  0  0  0  0  0  0  0  0  0  0  0
  146.5140  160.1920  133.2990 C   0  0  0  0  0  0  0  0  0  0  0  0
  147.9690  159.7100  133.3350 C   0  0  0  0  0  0  0  0  0  0  0  0
  148.6520  159.9950  132.0720 N   0  0  0  0  0  0  0  0  0  0  0  0
  148.5010  161.2250  131.3160 C   0  0  0  0  0  0  0  0  0  0  0  0
  149.3340  161.0400  130.0330 C   0  0  0  0  0  0  0  0  0  0  0  0
  150.1040  159.7170  130.1710 C   0  0  0  0  0  0  0  0  0  0  0  0
  149.5910  159.1520  131.4330 C   0  0  0  0  0  0  0  0  0  0  0  0
  149.9550  158.0420  131.9040 O   0  0  0  0  0  0  0  0  0  0  0  0
  144.1640  159.2810  133.4740 C   0  0  0  0  0  0  0  0  0  0  0  0
  143.3030  158.1840  133.5660 C   0  0  0  0  0  0  0  0  0  0  0  0
  138.4707  161.3125  130.3858 H   0  0  0  0  0  0  0  0  0  0  0  0
  138.7677  159.8486  129.3881 H   0  0  0  0  0  0  0  0  0  0  0  0
  137.1463  160.6217  129.3881 H   0  0  0  0  0  0  0  0  0  0  0  0
  137.1519  160.1329  131.9498 H   0  0  0  0  0  0  0  0  0  0  0  0
  136.8922  158.7534  130.7890 H   0  0  0  0  0  0  0  0  0  0  0  0
  138.6554  158.7273  132.8895 H   0  0  0  0  0  0  0  0  0  0  0  0
  138.7655  157.7191  131.3613 H   0  0  0  0  0  0  0  0  0  0  0  0
  140.8448  158.5044  131.1867 H   0  0  0  0  0  0  0  0  0  0  0  0
  140.0532  160.0419  130.6555 H   0  0  0  0  0  0  0  0  0  0  0  0
  139.3780  158.1760  134.7300 H   0  0  0  0  0  0  0  0  0  0  0  0
  142.7049  154.9525  133.5304 H   0  0  0  0  0  0  0  0  0  0  0  0
  145.4966  155.5816  133.3249 H   0  0  0  0  0  0  0  0  0  0  0  0
  147.1079  157.5127  133.2343 H   0  0  0  0  0  0  0  0  0  0  0  0
  146.3484  160.7602  132.3718 H   0  0  0  0  0  0  0  0  0  0  0  0
  146.3375  160.8240  134.1819 H   0  0  0  0  0  0  0  0  0  0  0  0
  148.4969  160.2232  134.1523 H   0  0  0  0  0  0  0  0  0  0  0  0
  147.9718  158.6217  133.4949 H   0  0  0  0  0  0  0  0  0  0  0  0
  147.4432  161.3915  131.0642 H   0  0  0  0  0  0  0  0  0  0  0  0
  148.8399  162.0974  131.8941 H   0  0  0  0  0  0  0  0  0  0  0  0
  148.6704  160.9990  129.1567 H   0  0  0  0  0  0  0  0  0  0  0  0
  150.0293  161.8814  129.8970 H   0  0  0  0  0  0  0  0  0  0  0  0
  149.8907  159.0475  129.3247 H   0  0  0  0  0  0  0  0  0  0  0  0
  151.1954  159.8541  130.1746 H   0  0  0  0  0  0  0  0  0  0  0  0
  143.7731  160.3088  133.5021 H   0  0  0  0  0  0  0  0  0  0  0  0
  1  2  1  0
  2  3  1  0
  3  4  1  0
  4  5  1  0
  5  6  1  0
  6  7  2  0
  6  8  1  0
  8  9  1  0
  9 10  1  0
 10 11  1  0
 10 12  2  0
  9 13  2  0
 13 14  1  0
 14 15  2  0
 15 16  1  0
 16 17  2  0
 17 18  1  0
 18 19  1  0
 19 20  1  0
 20 21  1  0
 21 22  1  0
 22 23  1  0
 23 24  1  0
 24 25  2  0
 17 26  1  0
 26 27  2  0
 27  8  1  0
 27 14  1  0
 24 20  1  0
  1 28  1  0
  1 29  1  0
  1 30  1  0
  2 31  1  0
  2 32  1  0
  3 33  1  0
  3 34  1  0
  4 35  1  0
  4 36  1  0
 11 37  1  0
 13 38  1  0
 15 39  1  0
 16 40  1  0
 18 41  1  0
 18 42  1  0
 19 43  1  0
 19 44  1  0
 21 45  1  0
 21 46  1  0
 22 47  1  0
 22 48  1  0
 23 49  1  0
 23 50  1  0
 26 51  1  0
M  CHG  1  11  -1
M  END
>  <UniqueID>  (56) 
56

>  <SMILES>  (56) 
CCCCOC(=O)n1c(C([NH-])=O)cc2ccc(CCN3CCCC3=O)cc21

>  <Energy>  (56) 
83.11809355039536

>  <Genealogy>  (56) 
CCCCOC(=O)n1c(C([NH-])=O)cc2ccc(CCN3CCCC3=O)cc21 (protonated)
CCCCOC(=O)n1c(C([NH-])=O)cc2ccc(CCN3CCCC3=O)cc21 (3D coordinates assigned)
CCCCOC(=O)n1c(C([NH-])=O)cc2ccc(CCN3CCCC3=O)cc21 (nonaromatic ring conformer: 83.11809355039536 kcal/mol)

>  <smiles>  (56) 
CCCCOC(=O)n1c(C(N)=O)cc2ccc(CCN3CCCC3=O)cc21

>  <score_type>  (56) 
oracle

>  <origin>  (56) 
adg

>  <m_score__min__energy>  (56) 
-8.0500000000000007

>  <m_primary>  (56) 
energy

$$$$
56:0
     RDKit          3D

 44 45  0  0  0  0  0  0  0  0999 V2000
  138.4910  160.4540  130.7970 C   0  0  0  0  0  0  0  0  0  0  0  0
  138.5370  159.0030  131.2670 C   0  0  0  0  0  0  0  0  0  0  0  0
  139.5110  158.8480  132.2970 O   0  0  0  0  0  0  0  0  0  0  0  0
  139.6820  157.6590  133.0180 C   0  0  0  0  0  0  0  0  0  0  0  0
  139.1530  156.5870  132.6130 O   0  0  0  0  0  0  0  0  0  0  0  0
  140.5180  157.6820  134.2770 C   0  0  2  0  0  0  0  0  0  0  0  0
  139.7570  158.2580  135.4770 C   0  0  0  0  0  0  0  0  0  0  0  0
  141.7970  158.4640  134.0550 C   0  0  0  0  0  0  0  0  0  0  0  0
  141.7660  159.8810  134.0290 C   0  0  0  0  0  0  0  0  0  0  0  0
  142.9430  160.6230  133.8310 C   0  0  0  0  0  0  0  0  0  0  0  0
  144.1330  159.9230  133.6520 C   0  0  0  0  0  0  0  0  0  0  0  0
  145.4180  160.3880  133.4850 C   0  0  0  0  0  0  0  0  0  0  0  0
  146.2150  159.2470  133.3920 C   0  0  0  0  0  0  0  0  0  0  0  0
  147.6730  159.2700  133.1310 C   0  0  0  0  0  0  0  0  0  0  0  0
  148.5780  158.5450  133.9670 N   0  0  0  0  0  0  0  0  0  0  0  0
  148.1360  159.9570  132.1820 O   0  0  0  0  0  0  0  0  0  0  0  0
  145.4490  158.1230  133.4900 N   0  0  0  0  0  0  0  0  0  0  0  0
  145.8970  156.7610  133.5450 C   0  0  0  0  0  0  0  0  0  0  0  0
  145.3970  155.9020  132.7680 O   0  0  0  0  0  0  0  0  0  0  0  0
  146.8700  156.3900  134.4800 O   0  0  0  0  0  0  0  0  0  0  0  0
  147.7050  155.2430  134.3300 C   0  0  0  0  0  0  0  0  0  0  0  0
  148.4250  155.2720  132.9870 C   0  0  0  0  0  0  0  0  0  0  0  0
  144.1790  158.5540  133.6450 C   0  0  0  0  0  0  0  0  0  0  0  0
  143.0250  157.7900  133.8420 C   0  0  0  0  0  0  0  0  0  0  0  0
  138.4698  161.1219  131.6707 H   0  0  0  0  0  0  0  0  0  0  0  0
  139.3827  160.6715  130.1907 H   0  0  0  0  0  0  0  0  0  0  0  0
  137.5873  160.6146  130.1907 H   0  0  0  0  0  0  0  0  0  0  0  0
  137.5488  158.7157  131.6556 H   0  0  0  0  0  0  0  0  0  0  0  0
  138.8088  158.3596  130.4172 H   0  0  0  0  0  0  0  0  0  0  0  0
  140.7633  156.6358  134.5119 H   0  0  0  0  0  0  0  0  0  0  0  0
  140.2222  157.9059  136.4095 H   0  0  0  0  0  0  0  0  0  0  0  0
  139.7935  159.3568  135.4412 H   0  0  0  0  0  0  0  0  0  0  0  0
  138.7094  157.9245  135.4412 H   0  0  0  0  0  0  0  0  0  0  0  0
  140.8091  160.4061  134.1655 H   0  0  0  0  0  0  0  0  0  0  0  0
  142.9245  161.7228  133.8178 H   0  0  0  0  0  0  0  0  0  0  0  0
  145.7465  161.4366  133.4354 H   0  0  0  0  0  0  0  0  0  0  0  0
  149.6060  158.6090  133.8000 H   0  0  0  0  0  0  0  0  0  0  0  0
  148.2340  157.9020  134.7140 H   0  0  0  0  0  0  0  0  0  0  0  0
  148.4503  155.2308  135.1390 H   0  0  0  0  0  0  0  0  0  0  0  0
  147.0775  154.3407  134.3752 H   0  0  0  0  0  0  0  0  0  0  0  0
  149.5113  155.3158  133.1542 H   0  0  0  0  0  0  0  0  0  0  0  0
  148.1778  154.3632  132.4187 H   0  0  0  0  0  0  0  0  0  0  0  0
  148.1055  156.1580  132.4187 H   0  0  0  0  0  0  0  0  0  0  0  0
  143.0693  156.6909  133.8319 H   0  0  0  0  0  0  0  0  0  0  0  0
  1  2  1  0
  2  3  1  0
  3  4  1  0
  4  5  2  0
  4  6  1  0
  6  7  1  0
  6  8  1  0
  8  9  2  0
  9 10  1  0
 10 11  2  0
 11 12  1  0
 12 13  2  0
 13 14  1  0
 14 15  1  0
 14 16  2  0
 13 17  1  0
 17 18  1  0
 18 19  2  0
 18 20  1  0
 20 21  1  0
 21 22  1  0
 17 23  1  0
 23 24  2  0
 24  8  1  0
 23 11  1  0
  1 25  1  0
  1 26  1  0
  1 27  1  0
  2 28  1  0
  2 29  1  0
  6 30  1  1
  7 31  1  0
  7 32  1  0
  7 33  1  0
  9 34  1  0
 10 35  1  0
 12 36  1  0
 15 37  1  0
 15 38  1  0
 21 39  1  0
 21 40  1  0
 22 41  1  0
 22 42  1  0
 22 43  1  0
 24 44  1  0
M  END
>  <UniqueID>  (57) 
57

>  <SMILES>  (57) 
CCOC(=O)[C@H](C)c1ccc2cc(C(N)=O)n(C(=O)OCC)c2c1

>  <Energy>  (57) 
71.80488456200283

>  <Genealogy>  (57) 
CCOC(=O)[C@H](C)c1ccc2cc(C(N)=O)n(C(=O)OCC)c2c1 (chirality)
CCOC(=O)[C@H](C)c1ccc2cc(C(N)=O)n(C(=O)OCC)c2c1 (3D coordinates assigned)
CCOC(=O)[C@H](C)c1ccc2cc(C(N)=O)n(C(=O)OCC)c2c1 (optimized conformer: 71.80488456200283 kcal/mol)

>  <smiles>  (57) 
CCOC(=O)C(C)c1ccc2cc(C(N)=O)n(C(=O)OCC)c2c1

>  <score_type>  (57) 
oracle

>  <origin>  (57) 
adg

>  <m_score__min__energy>  (57) 
-6.8600000000000003

>  <m_primary>  (57) 
energy

$$$$
57:0
     RDKit          3D

 42 44  0  0  0  0  0  0  0  0999 V2000
  139.0590  159.7750  130.4180 C   0  0  0  0  0  0  0  0  0  0  0  0
  139.4650  159.5640  131.8170 N   0  0  0  0  0  0  0  0  0  0  0  0
  138.3670  158.9900  132.6150 C   0  0  0  0  0  0  0  0  0  0  0  0
  138.9480  157.8650  133.4550 C   0  0  0  0  0  0  0  0  0  0  0  0
  140.1290  157.3870  132.6360 C   0  0  2  0  0  0  0  0  0  0  0  0
  141.2090  156.6720  133.4680 C   0  0  0  0  0  0  0  0  0  0  0  0
  142.5270  156.9880  133.0170 O   0  0  0  0  0  0  0  0  0  0  0  0
  143.6060  157.2530  133.8690 C   0  0  0  0  0  0  0  0  0  0  0  0
  143.9660  156.4050  134.7290 O   0  0  0  0  0  0  0  0  0  0  0  0
  144.2930  158.5110  133.7720 N   0  0  0  0  0  0  0  0  0  0  0  0
  143.7730  159.7650  133.9110 C   0  0  0  0  0  0  0  0  0  0  0  0
  142.3930  160.0920  134.3250 C   0  0  0  0  0  0  0  0  0  0  0  0
  141.6390  161.0510  133.5860 N   0  0  0  0  0  0  0  0  0  0  0  0
  141.8830  159.5630  135.3480 O   0  0  0  0  0  0  0  0  0  0  0  0
  144.7550  160.7280  133.6890 C   0  0  0  0  0  0  0  0  0  0  0  0
  145.9050  160.0220  133.4170 C   0  0  0  0  0  0  0  0  0  0  0  0
  147.1850  160.4790  133.1160 C   0  0  0  0  0  0  0  0  0  0  0  0
  148.1800  159.5210  132.8550 C   0  0  0  0  0  0  0  0  0  0  0  0
  147.8770  158.1400  132.8930 C   0  0  0  0  0  0  0  0  0  0  0  0
  148.8960  157.1760  132.6130 N   0  0  0  0  0  0  0  0  0  0  0  0
  146.5670  157.7130  133.2010 C   0  0  0  0  0  0  0  0  0  0  0  0
  145.6000  158.6870  133.4750 C   0  0  0  0  0  0  0  0  0  0  0  0
  140.6110  158.6430  131.9170 C   0  0  0  0  0  0  0  0  0  0  0  0
  138.0832  160.2821  130.3919 H   0  0  0  0  0  0  0  0  0  0  0  0
  139.8094  160.3972  129.9083 H   0  0  0  0  0  0  0  0  0  0  0  0
  138.9810  158.8033  129.9083 H   0  0  0  0  0  0  0  0  0  0  0  0
  137.9355  159.7620  133.2691 H   0  0  0  0  0  0  0  0  0  0  0  0
  137.5705  158.6098  131.9585 H   0  0  0  0  0  0  0  0  0  0  0  0
  139.2751  158.2363  134.4374 H   0  0  0  0  0  0  0  0  0  0  0  0
  138.2206  157.0669  133.6649 H   0  0  0  0  0  0  0  0  0  0  0  0
  139.8507  156.5976  131.9223 H   0  0  0  0  0  0  0  0  0  0  0  0
  141.1097  156.9803  134.5192 H   0  0  0  0  0  0  0  0  0  0  0  0
  141.0621  155.5876  133.3563 H   0  0  0  0  0  0  0  0  0  0  0  0
  140.8200  160.7580  133.0080 H   0  0  0  0  0  0  0  0  0  0  0  0
  144.6365  161.8210  133.7237 H   0  0  0  0  0  0  0  0  0  0  0  0
  147.4105  161.5551  133.0834 H   0  0  0  0  0  0  0  0  0  0  0  0
  149.2033  159.8483  132.6191 H   0  0  0  0  0  0  0  0  0  0  0  0
  148.9250  156.6810  131.6930 H   0  0  0  0  0  0  0  0  0  0  0  0
  149.6270  156.9500  133.3220 H   0  0  0  0  0  0  0  0  0  0  0  0
  146.3130  156.6430  133.2250 H   0  0  0  0  0  0  0  0  0  0  0  0
  141.4232  159.1150  132.4894 H   0  0  0  0  0  0  0  0  0  0  0  0
  140.9956  158.3933  130.9171 H   0  0  0  0  0  0  0  0  0  0  0  0
  1  2  1  0
  2  3  1  0
  3  4  1  0
  4  5  1  0
  5  6  1  0
  6  7  1  0
  7  8  1  0
  8  9  2  0
  8 10  1  0
 10 11  1  0
 11 12  1  0
 12 13  1  0
 12 14  2  0
 11 15  2  0
 15 16  1  0
 16 17  2  0
 17 18  1  0
 18 19  2  0
 19 20  1  0
 19 21  1  0
 21 22  2  0
  5 23  1  0
 23  2  1  0
 22 10  1  0
 22 16  1  0
  1 24  1  0
  1 25  1  0
  1 26  1  0
  3 27  1  0
  3 28  1  0
  4 29  1  0
  4 30  1  0
  5 31  1  6
  6 32  1  0
  6 33  1  0
 13 34  1  0
 15 35  1  0
 17 36  1  0
 18 37  1  0
 20 38  1  0
 20 39  1  0
 21 40  1  0
 23 41  1  0
 23 42  1  0
M  CHG  1  13  -1
M  END
>  <UniqueID>  (58) 
58

>  <SMILES>  (58) 
CN1CC[C@H](COC(=O)n2c(C([NH-])=O)cc3ccc(N)cc32)C1

>  <Energy>  (58) 
83.26291113627903

>  <Genealogy>  (58) 
CN1CCC(COC(=O)n2c(C([NH-])=O)cc3ccc(N)cc32)C1 (protonated)
CN1CC[C@H](COC(=O)n2c(C([NH-])=O)cc3ccc(N)cc32)C1 (chirality)
CN1CC[C@H](COC(=O)n2c(C([NH-])=O)cc3ccc(N)cc32)C1 (3D coordinates assigned)
CN1CC[C@H](COC(=O)n2c(C([NH-])=O)cc3ccc(N)cc32)C1 (nonaromatic ring conformer: 83.26291113627903 kcal/mol)

>  <smiles>  (58) 
CN1CCC(COC(=O)n2c(C(N)=O)cc3ccc(N)cc32)C1

>  <score_type>  (58) 
oracle

>  <origin>  (58) 
adg

>  <m_score__min__energy>  (58) 
-7.4800000000000004

>  <m_primary>  (58) 
energy

$$$$
58:0
     RDKit          3D

 36 38  0  0  0  0  0  0  0  0999 V2000
  138.8300  157.1030  133.3550 N   0  0  0  0  0  0  0  0  0  0  0  0
  139.4200  157.9010  134.3770 C   0  0  0  0  0  0  0  0  0  0  0  0
  138.7300  158.2300  135.3780 O   0  0  0  0  0  0  0  0  0  0  0  0
  140.8070  158.3960  134.2510 C   0  0  0  0  0  0  0  0  0  0  0  0
  141.1280  159.7430  134.1060 C   0  0  0  0  0  0  0  0  0  0  0  0
  142.4920  159.7770  133.9320 C   0  0  0  0  0  0  0  0  0  0  0  0
  143.3430  160.8630  133.7510 C   0  0  0  0  0  0  0  0  0  0  0  0
  144.7180  160.6070  133.6250 C   0  0  0  0  0  0  0  0  0  0  0  0
  145.2200  159.2810  133.6950 C   0  0  0  0  0  0  0  0  0  0  0  0
  146.6340  159.0320  133.5670 N   0  0  0  0  0  0  0  0  0  0  0  0
  147.5200  160.1560  133.2020 C   0  0  0  0  0  0  0  0  0  0  0  0
  148.9660  159.7270  132.9200 C   0  0  0  0  0  0  0  0  0  0  0  0
  148.9940  158.3260  131.8190 S   0  0  0  0  0  0  0  0  0  0  0  0
  148.7080  158.7760  130.4130 O   0  0  0  0  0  0  0  0  0  0  0  0
  150.3440  157.6670  131.8710 O   0  0  0  0  0  0  0  0  0  0  0  0
  147.7340  157.1850  132.3570 C   0  0  0  0  0  0  0  0  0  0  0  0
  147.1470  157.6560  133.6870 C   0  0  0  0  0  0  0  0  0  0  0  0
  144.3200  158.2060  133.8790 C   0  0  0  0  0  0  0  0  0  0  0  0
  142.9530  158.4880  133.9820 C   0  0  0  0  0  0  0  0  0  0  0  0
  141.9300  157.6260  134.1790 N   0  0  0  0  0  0  0  0  0  0  0  0
  142.0410  156.2050  134.3650 C   0  0  0  0  0  0  0  0  0  0  0  0
  142.9590  155.7280  135.0830 O   0  0  0  0  0  0  0  0  0  0  0  0
  141.1530  155.3440  133.7330 O   0  0  0  0  0  0  0  0  0  0  0  0
  139.2350  156.1760  133.0960 H   0  0  0  0  0  0  0  0  0  0  0  0
  140.4371  160.5987  134.1263 H   0  0  0  0  0  0  0  0  0  0  0  0
  142.9509  161.8899  133.7080 H   0  0  0  0  0  0  0  0  0  0  0  0
  145.4146  161.4442  133.4702 H   0  0  0  0  0  0  0  0  0  0  0  0
  147.1172  160.6382  132.2991 H   0  0  0  0  0  0  0  0  0  0  0  0
  147.5469  160.8404  134.0628 H   0  0  0  0  0  0  0  0  0  0  0  0
  149.5085  160.5638  132.4558 H   0  0  0  0  0  0  0  0  0  0  0  0
  149.4464  159.4454  133.8686 H   0  0  0  0  0  0  0  0  0  0  0  0
  146.9361  157.1383  131.6012 H   0  0  0  0  0  0  0  0  0  0  0  0
  148.1778  156.1870  132.4876 H   0  0  0  0  0  0  0  0  0  0  0  0
  146.3234  156.9867  133.9763 H   0  0  0  0  0  0  0  0  0  0  0  0
  147.9379  157.6369  134.4512 H   0  0  0  0  0  0  0  0  0  0  0  0
  144.6863  157.1706  133.9399 H   0  0  0  0  0  0  0  0  0  0  0  0
  1  2  1  0
  2  3  2  0
  2  4  1  0
  4  5  2  0
  5  6  1  0
  6  7  2  0
  7  8  1  0
  8  9  2  0
  9 10  1  0
 10 11  1  0
 11 12  1  0
 12 13  1  0
 13 14  2  0
 13 15  2  0
 13 16  1  0
 16 17  1  0
  9 18  1  0
 18 19  2  0
 19 20  1  0
 20 21  1  0
 21 22  2  0
 21 23  1  0
 20  4  1  0
 19  6  1  0
 17 10  1  0
  1 24  1  0
  5 25  1  0
  7 26  1  0
  8 27  1  0
 11 28  1  0
 11 29  1  0
 12 30  1  0
 12 31  1  0
 16 32  1  0
 16 33  1  0
 17 34  1  0
 17 35  1  0
 18 36  1  0
M  CHG  2   1  -1  23  -1
M  END
>  <UniqueID>  (59) 
59

>  <SMILES>  (59) 
[NH-]C(=O)c1cc2ccc(N3CCS(=O)(=O)CC3)cc2n1C(=O)[O-]

>  <Energy>  (59) 
76.9549082408693

>  <Genealogy>  (59) 
[NH-]C(=O)c1cc2ccc(N3CCS(=O)(=O)CC3)cc2n1C(=O)[O-] (protonated)
[NH-]C(=O)c1cc2ccc(N3CCS(=O)(=O)CC3)cc2n1C(=O)[O-] (3D coordinates assigned)
[NH-]C(=O)c1cc2ccc(N3CCS(=O)(=O)CC3)cc2n1C(=O)[O-] (nonaromatic ring conformer: 76.9549082408693 kcal/mol)

>  <smiles>  (59) 
NC(=O)c1cc2ccc(N3CCS(=O)(=O)CC3)cc2n1C(=O)O

>  <score_type>  (59) 
oracle

>  <origin>  (59) 
adg

>  <m_score__min__energy>  (59) 
-7.71

>  <m_primary>  (59) 
energy

$$$$
59:0
     RDKit          3D

 60 61  0  0  0  0  0  0  0  0999 V2000
  143.4740  152.2700  133.3050 C   0  0  0  0  0  0  0  0  0  0  0  0
  141.9760  152.2340  133.6630 C   0  0  0  0  0  0  0  0  0  0  0  0
  141.1960  153.0380  132.6110 C   0  0  0  0  0  0  0  0  0  0  0  0
  141.4540  150.7840  133.6720 C   0  0  0  0  0  0  0  0  0  0  0  0
  141.7440  152.8630  134.9350 O   0  0  0  0  0  0  0  0  0  0  0  0
  141.7160  152.2200  136.1800 C   0  0  0  0  0  0  0  0  0  0  0  0
  140.9780  151.2160  136.3780 O   0  0  0  0  0  0  0  0  0  0  0  0
  142.5350  152.7250  137.2360 N   0  0  0  0  0  0  0  0  0  0  0  0
  143.6180  153.6820  137.0290 C   0  0  0  0  0  0  0  0  0  0  0  0
  143.0630  155.0550  136.6480 C   0  0  0  0  0  0  0  0  0  0  0  0
  141.7160  155.1590  137.0570 O   0  0  0  0  0  0  0  0  0  0  0  0
  141.1190  156.3190  136.5170 C   0  0  0  0  0  0  0  0  0  0  0  0
  140.5990  157.2180  137.6400 C   0  0  0  0  0  0  0  0  0  0  0  0
  140.3870  158.5740  137.1460 N   0  0  0  0  0  0  0  0  0  0  0  0
  140.6210  158.9710  135.7920 C   0  0  0  0  0  0  0  0  0  0  0  0
  141.5830  159.7370  135.5120 O   0  0  0  0  0  0  0  0  0  0  0  0
  139.7670  158.5000  134.7880 O   0  0  0  0  0  0  0  0  0  0  0  0
  140.1940  158.2120  133.4550 C   0  0  0  0  0  0  0  0  0  0  0  0
  140.8210  156.8150  133.3630 C   0  0  0  0  0  0  0  0  0  0  0  0
  142.3240  156.8680  133.4140 C   0  0  0  0  0  0  0  0  0  0  0  0
  143.0770  155.6730  133.3030 C   0  0  0  0  0  0  0  0  0  0  0  0
  144.4800  155.7130  133.2760 C   0  0  0  0  0  0  0  0  0  0  0  0
  145.1000  156.9570  133.3520 C   0  0  0  0  0  0  0  0  0  0  0  0
  146.4360  157.2770  133.3250 C   0  0  0  0  0  0  0  0  0  0  0  0
  146.4830  158.6660  133.3980 C   0  0  0  0  0  0  0  0  0  0  0  0
  147.7320  159.4370  133.2520 C   0  0  0  0  0  0  0  0  0  0  0  0
  148.8500  159.1760  134.0960 N   0  0  0  0  0  0  0  0  0  0  0  0
  147.7920  160.3810  132.4210 O   0  0  0  0  0  0  0  0  0  0  0  0
  145.2280  159.1880  133.4970 N   0  0  0  0  0  0  0  0  0  0  0  0
  144.8710  160.5630  133.7200 C   0  0  0  0  0  0  0  0  0  0  0  0
  145.7210  161.3850  134.1510 O   0  0  0  0  0  0  0  0  0  0  0  0
  143.5860  161.0080  133.4340 O   0  0  0  0  0  0  0  0  0  0  0  0
  144.3890  158.1260  133.4570 C   0  0  0  0  0  0  0  0  0  0  0  0
  142.9890  158.1130  133.5040 C   0  0  0  0  0  0  0  0  0  0  0  0
  144.0714  152.2844  134.2285 H   0  0  0  0  0  0  0  0  0  0  0  0
  143.7316  151.3778  132.7154 H   0  0  0  0  0  0  0  0  0  0  0  0
  143.6885  153.1736  132.7154 H   0  0  0  0  0  0  0  0  0  0  0  0
  140.5155  153.7394  133.1160 H   0  0  0  0  0  0  0  0  0  0  0  0
  141.9017  153.6004  131.9820 H   0  0  0  0  0  0  0  0  0  0  0  0
  140.6124  152.3497  131.9820 H   0  0  0  0  0  0  0  0  0  0  0  0
  141.3319  150.4447  134.7112 H   0  0  0  0  0  0  0  0  0  0  0  0
  140.4837  150.7404  133.1556 H   0  0  0  0  0  0  0  0  0  0  0  0
  142.1738  150.1319  133.1556 H   0  0  0  0  0  0  0  0  0  0  0  0
  144.2009  153.7735  137.9573 H   0  0  0  0  0  0  0  0  0  0  0  0
  144.2570  153.3201  136.2101 H   0  0  0  0  0  0  0  0  0  0  0  0
  143.6560  155.8382  137.1429 H   0  0  0  0  0  0  0  0  0  0  0  0
  143.1207  155.1788  135.5565 H   0  0  0  0  0  0  0  0  0  0  0  0
  141.8655  156.8704  135.9265 H   0  0  0  0  0  0  0  0  0  0  0  0
  140.2761  156.0230  135.8752 H   0  0  0  0  0  0  0  0  0  0  0  0
  139.6466  156.8155  138.0154 H   0  0  0  0  0  0  0  0  0  0  0  0
  141.3425  157.2446  138.4503 H   0  0  0  0  0  0  0  0  0  0  0  0
  139.3255  158.2606  132.7816 H   0  0  0  0  0  0  0  0  0  0  0  0
  140.9522  158.9540  133.1642 H   0  0  0  0  0  0  0  0  0  0  0  0
  140.4582  156.2066  134.2046 H   0  0  0  0  0  0  0  0  0  0  0  0
  140.5288  156.3739  132.3986 H   0  0  0  0  0  0  0  0  0  0  0  0
  142.5578  154.7055  133.2374 H   0  0  0  0  0  0  0  0  0  0  0  0
  145.0717  154.7890  133.1972 H   0  0  0  0  0  0  0  0  0  0  0  0
  147.2871  156.5831  133.2596 H   0  0  0  0  0  0  0  0  0  0  0  0
  149.2810  158.2260  134.1380 H   0  0  0  0  0  0  0  0  0  0  0  0
  142.4204  159.0488  133.6084 H   0  0  0  0  0  0  0  0  0  0  0  0
  1  2  1  0
  2  3  1  0
  2  4  1  0
  2  5  1  0
  5  6  1  0
  6  7  2  0
  6  8  1  0
  8  9  1  0
  9 10  1  0
 10 11  1  0
 11 12  1  0
 12 13  1  0
 13 14  1  0
 14 15  1  0
 15 16  2  0
 15 17  1  0
 17 18  1  0
 18 19  1  0
 19 20  1  0
 20 21  2  0
 21 22  1  0
 22 23  2  0
 23 24  1  0
 24 25  2  0
 25 26  1  0
 26 27  1  0
 26 28  2  0
 25 29  1  0
 29 30  1  0
 30 31  2  0
 30 32  1  0
 29 33  1  0
 33 34  2  0
 34 20  1  0
 33 23  1  0
  1 35  1  0
  1 36  1  0
  1 37  1  0
  3 38  1  0
  3 39  1  0
  3 40  1  0
  4 41  1  0
  4 42  1  0
  4 43  1  0
  9 44  1  0
  9 45  1  0
 10 46  1  0
 10 47  1  0
 12 48  1  0
 12 49  1  0
 13 50  1  0
 13 51  1  0
 18 52  1  0
 18 53  1  0
 19 54  1  0
 19 55  1  0
 21 56  1  0
 22 57  1  0
 24 58  1  0
 27 59  1  0
 34 60  1  0
M  CHG  4   8  -1  14  -1  27  -1  32  -1
M  END
>  <UniqueID>  (60) 
60

>  <SMILES>  (60) 
CC(C)(C)OC(=O)[N-]CCOCC[N-]C(=O)OCCc1ccc2cc(C([NH-])=O)n(C(=O)[O-])c2c1

>  <Energy>  (60) 
79.71525172128314

>  <Genealogy>  (60) 
CC(C)(C)OC(=O)[N-]CCOCC[N-]C(=O)OCCc1ccc2cc(C([NH-])=O)n(C(=O)[O-])c2c1 (protonated)
CC(C)(C)OC(=O)[N-]CCOCC[N-]C(=O)OCCc1ccc2cc(C([NH-])=O)n(C(=O)[O-])c2c1 (3D coordinates assigned)
CC(C)(C)OC(=O)[N-]CCOCC[N-]C(=O)OCCc1ccc2cc(C([NH-])=O)n(C(=O)[O-])c2c1 (optimized conformer: 79.71525172128314 kcal/mol)

>  <smiles>  (60) 
CC(C)(C)OC(=O)NCCOCCNC(=O)OCCc1ccc2cc(C(N)=O)n(C(=O)O)c2c1

>  <score_type>  (60) 
oracle

>  <origin>  (60) 
adg

>  <m_score__min__energy>  (60) 
-7.3200000000000003

>  <m_primary>  (60) 
energy

$$$$
60:0
     RDKit          3D

 48 50  0  0  0  0  0  0  0  0999 V2000
  149.5770  162.3250  130.3050 C   0  0  0  0  0  0  0  0  0  0  0  0
  149.4740  160.8920  130.6180 N   0  0  0  0  0  0  0  0  0  0  0  0
  150.0260  160.0640  129.5350 C   0  0  0  0  0  0  0  0  0  0  0  0
  148.1140  160.4850  131.0400 C   0  0  0  0  0  0  0  0  0  0  0  0
  148.0530  159.7230  132.3880 C   0  0  0  0  0  0  0  0  0  0  0  0
  147.2270  160.2560  133.4710 N   0  0  0  0  0  0  0  0  0  0  0  0
  145.7950  160.1220  133.5350 C   0  0  0  0  0  0  0  0  0  0  0  0
  145.0040  161.2810  133.7350 C   0  0  0  0  0  0  0  0  0  0  0  0
  143.6040  161.1950  133.8130 C   0  0  0  0  0  0  0  0  0  0  0  0
  143.0200  159.9400  133.6790 C   0  0  0  0  0  0  0  0  0  0  0  0
  141.6980  159.5660  133.7460 C   0  0  0  0  0  0  0  0  0  0  0  0
  141.6940  158.1840  133.5650 C   0  0  0  0  0  0  0  0  0  0  0  0
  140.4600  157.3770  133.4870 C   0  0  0  0  0  0  0  0  0  0  0  0
  140.4850  156.0440  132.9820 N   0  0  0  0  0  0  0  0  0  0  0  0
  139.3580  157.8850  133.8270 O   0  0  0  0  0  0  0  0  0  0  0  0
  142.9650  157.7220  133.4000 N   0  0  0  0  0  0  0  0  0  0  0  0
  143.3960  156.3580  133.2800 C   0  0  0  0  0  0  0  0  0  0  0  0
  142.9680  155.4910  134.0910 O   0  0  0  0  0  0  0  0  0  0  0  0
  144.2740  155.9950  132.2530 O   0  0  0  0  0  0  0  0  0  0  0  0
  145.0100  154.7750  132.2370 C   0  0  0  0  0  0  0  0  0  0  0  0
  146.1950  154.8400  133.1970 C   0  0  0  0  0  0  0  0  0  0  0  0
  145.9880  153.9800  134.2610 F   0  0  0  0  0  0  0  0  0  0  0  0
  146.3640  156.1270  133.6740 F   0  0  0  0  0  0  0  0  0  0  0  0
  143.7650  158.8090  133.4710 C   0  0  0  0  0  0  0  0  0  0  0  0
  145.1610  158.8620  133.4120 C   0  0  0  0  0  0  0  0  0  0  0  0
  148.0640  158.2010  132.3160 C   0  0  0  0  0  0  0  0  0  0  0  0
  149.2840  158.9470  132.8400 C   0  0  0  0  0  0  0  0  0  0  0  0
  149.6185  162.9025  131.2403 H   0  0  0  0  0  0  0  0  0  0  0  0
  150.4906  162.5079  129.7203 H   0  0  0  0  0  0  0  0  0  0  0  0
  148.6989  162.6366  129.7203 H   0  0  0  0  0  0  0  0  0  0  0  0
  150.5872  159.2222  129.9667 H   0  0  0  0  0  0  0  0  0  0  0  0
  149.2045  159.6771  128.9142 H   0  0  0  0  0  0  0  0  0  0  0  0
  150.6991  160.6735  128.9142 H   0  0  0  0  0  0  0  0  0  0  0  0
  147.4982  161.3919  131.1313 H   0  0  0  0  0  0  0  0  0  0  0  0
  147.7474  159.7871  130.2728 H   0  0  0  0  0  0  0  0  0  0  0  0
  147.7040  160.8510  134.1880 H   0  0  0  0  0  0  0  0  0  0  0  0
  145.4932  162.2616  133.8305 H   0  0  0  0  0  0  0  0  0  0  0  0
  142.9888  162.0924  133.9750 H   0  0  0  0  0  0  0  0  0  0  0  0
  140.8280  160.2193  133.9081 H   0  0  0  0  0  0  0  0  0  0  0  0
  141.3670  155.6270  132.6080 H   0  0  0  0  0  0  0  0  0  0  0  0
  144.3471  153.9507  132.5387 H   0  0  0  0  0  0  0  0  0  0  0  0
  145.3917  154.6086  131.2189 H   0  0  0  0  0  0  0  0  0  0  0  0
  147.1010  154.5396  132.6503 H   0  0  0  0  0  0  0  0  0  0  0  0
  145.7533  157.9455  133.2732 H   0  0  0  0  0  0  0  0  0  0  0  0
  147.4405  157.6133  133.0058 H   0  0  0  0  0  0  0  0  0  0  0  0
  147.8874  157.4586  131.5238 H   0  0  0  0  0  0  0  0  0  0  0  0
  149.5416  158.8980  133.9083 H   0  0  0  0  0  0  0  0  0  0  0  0
  150.3534  158.9665  132.5829 H   0  0  0  0  0  0  0  0  0  0  0  0
  1  2  1  0
  2  3  1  0
  2  4  1  0
  4  5  1  0
  5  6  1  0
  6  7  1  0
  7  8  2  0
  8  9  1  0
  9 10  2  0
 10 11  1  0
 11 12  2  0
 12 13  1  0
 13 14  1  0
 13 15  2  0
 12 16  1  0
 16 17  1  0
 17 18  2  0
 17 19  1  0
 19 20  1  0
 20 21  1  0
 21 22  1  0
 21 23  1  0
 16 24  1  0
 24 25  2  0
  5 26  1  0
 26 27  1  0
 27  5  1  0
 25  7  1  0
 24 10  1  0
  1 28  1  0
  1 29  1  0
  1 30  1  0
  3 31  1  0
  3 32  1  0
  3 33  1  0
  4 34  1  0
  4 35  1  0
  6 36  1  0
  8 37  1  0
  9 38  1  0
 11 39  1  0
 14 40  1  0
 20 41  1  0
 20 42  1  0
 21 43  1  0
 25 44  1  0
 26 45  1  0
 26 46  1  0
 27 47  1  0
 27 48  1  0
M  CHG  1  14  -1
M  END
>  <UniqueID>  (61) 
61

>  <SMILES>  (61) 
CN(C)CC1(Nc2ccc3cc(C([NH-])=O)n(C(=O)OCC(F)F)c3c2)CC1

>  <Energy>  (61) 
353.684124774067

>  <Genealogy>  (61) 
CN(C)CC1(Nc2ccc3cc(C([NH-])=O)n(C(=O)OCC(F)F)c3c2)CC1 (protonated)
CN(C)CC1(Nc2ccc3cc(C([NH-])=O)n(C(=O)OCC(F)F)c3c2)CC1 (3D coordinates assigned)
CN(C)CC1(Nc2ccc3cc(C([NH-])=O)n(C(=O)OCC(F)F)c3c2)CC1 (nonaromatic ring conformer: 353.684124774067 kcal/mol)

>  <smiles>  (61) 
CN(C)CC1(Nc2ccc3cc(C(N)=O)n(C(=O)OCC(F)F)c3c2)CC1

>  <score_type>  (61) 
oracle

>  <origin>  (61) 
adg

>  <m_score__min__energy>  (61) 
-6.7599999999999998

>  <m_primary>  (61) 
energy

$$$$
61:0
     RDKit          3D

 43 44  0  0  0  0  0  0  0  0999 V2000
  148.7640  157.5070  131.0350 H   0  0  0  0  0  0  0  0  0  0  0  0
  149.0130  158.4850  131.2980 N   0  0  0  0  0  0  0  0  0  0  0  0
  148.6850  159.0040  132.5860 C   0  0  0  0  0  0  0  0  0  0  0  0
  149.6130  159.3480  133.3650 O   0  0  0  0  0  0  0  0  0  0  0  0
  147.2720  159.1000  133.0040 C   0  0  0  0  0  0  0  0  0  0  0  0
  146.6340  160.3050  133.2960 C   0  0  0  0  0  0  0  0  0  0  0  0
  147.0819  161.3094  133.3167 H   0  0  0  0  0  0  0  0  0  0  0  0
  145.3230  159.9690  133.5530 C   0  0  0  0  0  0  0  0  0  0  0  0
  144.2450  160.7730  133.9010 C   0  0  0  0  0  0  0  0  0  0  0  0
  144.3592  161.8627  133.9982 H   0  0  0  0  0  0  0  0  0  0  0  0
  143.0050  160.1530  134.1250 C   0  0  0  0  0  0  0  0  0  0  0  0
  142.1353  160.7683  134.3988 H   0  0  0  0  0  0  0  0  0  0  0  0
  142.8530  158.7410  134.0040 C   0  0  0  0  0  0  0  0  0  0  0  0
  141.5690  158.1090  134.2470 N   0  0  0  0  0  0  0  0  0  0  0  0
  140.6980  158.5790  135.3310 C   0  0  0  0  0  0  0  0  0  0  0  0
  141.1544  158.3327  136.3010 H   0  0  0  0  0  0  0  0  0  0  0  0
  140.5699  159.6687  135.2521 H   0  0  0  0  0  0  0  0  0  0  0  0
  139.7169  158.0878  135.2521 H   0  0  0  0  0  0  0  0  0  0  0  0
  141.1200  156.9880  133.4110 C   0  0  0  0  0  0  0  0  0  0  0  0
  140.7884  156.1602  134.0550 H   0  0  0  0  0  0  0  0  0  0  0  0
  140.2839  157.3161  132.7759 H   0  0  0  0  0  0  0  0  0  0  0  0
  141.9514  156.6482  132.7759 H   0  0  0  0  0  0  0  0  0  0  0  0
  143.9860  157.9640  133.6450 C   0  0  0  0  0  0  0  0  0  0  0  0
  143.9075  156.8711  133.5480 H   0  0  0  0  0  0  0  0  0  0  0  0
  145.2030  158.6130  133.4170 C   0  0  0  0  0  0  0  0  0  0  0  0
  146.3910  158.0640  133.0860 N   0  0  0  0  0  0  0  0  0  0  0  0
  146.6560  156.6630  132.9180 C   0  0  0  0  0  0  0  0  0  0  0  0
  147.1950  156.2550  131.8530 O   0  0  0  0  0  0  0  0  0  0  0  0
  146.2500  155.7050  133.9650 C   0  0  0  0  0  0  0  0  0  0  0  0
  146.6331  155.8431  134.9868 H   0  0  0  0  0  0  0  0  0  0  0  0
  145.4340  154.6760  133.7170 C   0  0  0  0  0  0  0  0  0  0  0  0
  145.0426  154.5338  132.6989 H   0  0  0  0  0  0  0  0  0  0  0  0
  145.0390  153.7090  134.7970 C   0  0  0  0  0  0  0  0  0  0  0  0
  143.9516  153.5496  134.7496 H   0  0  0  0  0  0  0  0  0  0  0  0
  145.5884  152.7711  134.6285 H   0  0  0  0  0  0  0  0  0  0  0  0
  145.4050  154.2270  136.2050 C   0  0  2  0  0  0  0  0  0  0  0  0
  145.3400  155.3248  136.1812 H   0  0  0  0  0  0  0  0  0  0  0  0
  146.8000  153.8010  136.5600 C   0  0  0  0  0  0  0  0  0  0  0  0
  146.9990  152.6970  137.1330 O   0  0  0  0  0  0  0  0  0  0  0  0
  147.8790  154.6330  136.2840 O   0  0  0  0  0  0  0  0  0  0  0  0
  144.4730  153.7380  137.2250 N   0  0  0  0  0  0  0  0  0  0  0  0
  144.9840  153.0970  137.8730 H   0  0  0  0  0  0  0  0  0  0  0  0
  144.1170  154.5410  137.7930 H   0  0  0  0  0  0  0  0  0  0  0  0
  1  2  1  0
  2  3  1  0
  3  4  2  0
  3  5  1  0
  5  6  2  0
  6  7  1  0
  6  8  1  0
  8  9  2  0
  9 10  1  0
  9 11  1  0
 11 12  1  0
 11 13  2  0
 13 14  1  0
 14 15  1  0
 15 16  1  0
 15 17  1  0
 15 18  1  0
 14 19  1  0
 19 20  1  0
 19 21  1  0
 19 22  1  0
 13 23  1  0
 23 24  1  0
 23 25  2  0
 25 26  1  0
 26 27  1  0
 27 28  2  0
 27 29  1  0
 29 30  1  0
 29 31  2  0
 31 32  1  0
 31 33  1  0
 33 34  1  0
 33 35  1  0
 33 36  1  0
 36 37  1  6
 36 38  1  0
 38 39  2  0
 38 40  1  0
 36 41  1  0
 41 42  1  0
 41 43  1  0
 26  5  1  0
 25  8  1  0
M  CHG  2   2  -1  40  -1
M  END
>  <UniqueID>  (62) 
62

>  <SMILES>  (62) 
CN(C)c1ccc2cc(C([NH-])=O)n(C(=O)/C=C/C[C@@H](N)C(=O)[O-])c2c1

>  <Energy>  (62) 
78.71784626396581

>  <Genealogy>  (62) 
CN(C)c1ccc2cc(C([NH-])=O)n(C(=O)C=CCC(N)C(=O)[O-])c2c1 (protonated)
CN(C)c1ccc2cc(C([NH-])=O)n(C(=O)C=CC[C@@H](N)C(=O)[O-])c2c1 (chirality)
CN(C)c1ccc2cc(C([NH-])=O)n(C(=O)/C=C/C[C@@H](N)C(=O)[O-])c2c1 (cis-trans isomerization)
CN(C)c1ccc2cc(C([NH-])=O)n(C(=O)/C=C/C[C@@H](N)C(=O)[O-])c2c1 (3D coordinates assigned)
CN(C)c1ccc2cc(C([NH-])=O)n(C(=O)/C=C/C[C@@H](N)C(=O)[O-])c2c1 (optimized conformer: 78.71784626396581 kcal/mol)

>  <smiles>  (62) 
CN(C)c1ccc2cc(C(N)=O)n(C(=O)C=CCC(N)C(=O)O)c2c1

>  <score_type>  (62) 
oracle

>  <origin>  (62) 
adg

>  <m_score__min__energy>  (62) 
-7.0899999999999999

>  <m_primary>  (62) 
energy

$$$$
62:0
     RDKit          3D

 42 43  0  0  0  0  0  0  0  0999 V2000
  140.9720  157.0370  137.7640 C   0  0  0  0  0  0  0  0  0  0  0  0
  141.4150  158.4790  137.5420 C   0  0  0  0  0  0  0  0  0  0  0  0
  140.6620  159.0810  136.4910 O   0  0  0  0  0  0  0  0  0  0  0  0
  140.0310  158.3470  135.4790 C   0  0  0  0  0  0  0  0  0  0  0  0
  138.7740  158.2270  135.4640 O   0  0  0  0  0  0  0  0  0  0  0  0
  140.8710  157.6890  134.4200 C   0  0  0  0  0  0  0  0  0  0  0  0
  140.0760  157.4240  133.1690 C   0  0  0  0  0  0  0  0  0  0  0  0
  139.5500  156.2900  132.9980 O   0  0  0  0  0  0  0  0  0  0  0  0
  139.9650  158.4090  132.1810 O   0  0  0  0  0  0  0  0  0  0  0  0
  138.7500  158.6740  131.4910 C   0  0  0  0  0  0  0  0  0  0  0  0
  138.6970  160.1430  131.1030 C   0  0  0  0  0  0  0  0  0  0  0  0
  142.1110  158.5090  134.1250 C   0  0  0  0  0  0  0  0  0  0  0  0
  142.0380  159.9210  133.9790 C   0  0  0  0  0  0  0  0  0  0  0  0
  143.1930  160.6780  133.7210 C   0  0  0  0  0  0  0  0  0  0  0  0
  144.4070  160.0060  133.6310 C   0  0  0  0  0  0  0  0  0  0  0  0
  145.6680  160.4900  133.3690 C   0  0  0  0  0  0  0  0  0  0  0  0
  146.5040  159.3750  133.3950 C   0  0  0  0  0  0  0  0  0  0  0  0
  147.9720  159.4600  133.2450 C   0  0  0  0  0  0  0  0  0  0  0  0
  148.8430  159.0070  134.2770 N   0  0  0  0  0  0  0  0  0  0  0  0
  148.4630  159.9830  132.2090 O   0  0  0  0  0  0  0  0  0  0  0  0
  145.7860  158.2450  133.6550 N   0  0  0  0  0  0  0  0  0  0  0  0
  146.2580  156.8880  133.6830 C   0  0  0  0  0  0  0  0  0  0  0  0
  145.5600  155.9610  133.1930 O   0  0  0  0  0  0  0  0  0  0  0  0
  147.4780  156.5820  134.2730 O   0  0  0  0  0  0  0  0  0  0  0  0
  144.5040  158.6490  133.7990 C   0  0  0  0  0  0  0  0  0  0  0  0
  143.3690  157.8670  134.0370 C   0  0  0  0  0  0  0  0  0  0  0  0
  140.9098  156.8346  138.8434 H   0  0  0  0  0  0  0  0  0  0  0  0
  139.9848  156.8818  137.3044 H   0  0  0  0  0  0  0  0  0  0  0  0
  141.7018  156.3543  137.3044 H   0  0  0  0  0  0  0  0  0  0  0  0
  141.2619  159.0507  138.4692 H   0  0  0  0  0  0  0  0  0  0  0  0
  142.4789  158.4833  137.2625 H   0  0  0  0  0  0  0  0  0  0  0  0
  141.1973  156.7136  134.8101 H   0  0  0  0  0  0  0  0  0  0  0  0
  138.7005  158.0533  130.5842 H   0  0  0  0  0  0  0  0  0  0  0  0
  137.8979  158.4367  132.1450 H   0  0  0  0  0  0  0  0  0  0  0  0
  138.6747  160.7618  132.0122 H   0  0  0  0  0  0  0  0  0  0  0  0
  139.5866  160.3974  130.5080 H   0  0  0  0  0  0  0  0  0  0  0  0
  137.7914  160.3327  130.5080 H   0  0  0  0  0  0  0  0  0  0  0  0
  141.0655  160.4271  134.0691 H   0  0  0  0  0  0  0  0  0  0  0  0
  143.1386  161.7693  133.5940 H   0  0  0  0  0  0  0  0  0  0  0  0
  145.9553  161.5347  133.1794 H   0  0  0  0  0  0  0  0  0  0  0  0
  149.1610  158.0130  134.3130 H   0  0  0  0  0  0  0  0  0  0  0  0
  143.4525  156.7764  134.1533 H   0  0  0  0  0  0  0  0  0  0  0  0
  1  2  1  0
  2  3  1  0
  3  4  1  0
  4  5  2  0
  4  6  1  0
  6  7  1  0
  7  8  2  0
  7  9  1  0
  9 10  1  0
 10 11  1  0
  6 12  1  0
 12 13  2  0
 13 14  1  0
 14 15  2  0
 15 16  1  0
 16 17  2  0
 17 18  1  0
 18 19  1  0
 18 20  2  0
 17 21  1  0
 21 22  1  0
 22 23  2  0
 22 24  1  0
 21 25  1  0
 25 26  2  0
 26 12  1  0
 25 15  1  0
  1 27  1  0
  1 28  1  0
  1 29  1  0
  2 30  1  0
  2 31  1  0
  6 32  1  0
 10 33  1  0
 10 34  1  0
 11 35  1  0
 11 36  1  0
 11 37  1  0
 13 38  1  0
 14 39  1  0
 16 40  1  0
 19 41  1  0
 26 42  1  0
M  CHG  2  19  -1  24  -1
M  END
>  <UniqueID>  (63) 
63

>  <SMILES>  (63) 
CCOC(=O)C(C(=O)OCC)c1ccc2cc(C([NH-])=O)n(C(=O)[O-])c2c1

>  <Energy>  (63) 
72.77936705474895

>  <Genealogy>  (63) 
CCOC(=O)C(C(=O)OCC)c1ccc2cc(C([NH-])=O)n(C(=O)[O-])c2c1 (protonated)
CCOC(=O)C(C(=O)OCC)c1ccc2cc(C([NH-])=O)n(C(=O)[O-])c2c1 (3D coordinates assigned)
CCOC(=O)C(C(=O)OCC)c1ccc2cc(C([NH-])=O)n(C(=O)[O-])c2c1 (optimized conformer: 72.77936705474895 kcal/mol)

>  <smiles>  (63) 
CCOC(=O)C(C(=O)OCC)c1ccc2cc(C(N)=O)n(C(=O)O)c2c1

>  <score_type>  (63) 
oracle

>  <origin>  (63) 
adg

>  <m_score__min__energy>  (63) 
-6.7599999999999998

>  <m_primary>  (63) 
energy

$$$$
63:0
     RDKit          3D

 46 48  0  0  0  0  0  0  0  0999 V2000
  149.1150  159.2530  133.9150 N   0  0  0  0  0  0  0  0  0  0  0  0
  147.9300  159.7450  133.2960 C   0  0  0  0  0  0  0  0  0  0  0  0
  147.9570  160.8620  132.7130 O   0  0  0  0  0  0  0  0  0  0  0  0
  146.6650  158.9860  133.3680 C   0  0  0  0  0  0  0  0  0  0  0  0
  145.4070  159.5650  133.2070 C   0  0  0  0  0  0  0  0  0  0  0  0
  144.5070  158.5450  133.4220 C   0  0  0  0  0  0  0  0  0  0  0  0
  143.1170  158.5520  133.3850 C   0  0  0  0  0  0  0  0  0  0  0  0
  142.4440  157.3420  133.6310 C   0  0  0  0  0  0  0  0  0  0  0  0
  143.1670  156.1490  133.9030 C   0  0  0  0  0  0  0  0  0  0  0  0
  142.4440  154.8410  134.1660 C   0  0  0  0  0  0  0  0  0  0  0  0
  141.1340  154.7600  133.3600 C   0  0  0  0  0  0  0  0  0  0  0  0
  140.6320  153.3150  133.3270 C   0  0  0  0  0  0  0  0  0  0  0  0
  141.5670  152.4340  132.5950 N   0  0  0  0  0  0  0  0  0  0  0  0
  141.2930  150.7500  132.9810 S   0  0  0  0  0  0  0  0  0  0  0  0
  141.0270  150.6310  134.4570 O   0  0  0  0  0  0  0  0  0  0  0  0
  142.5320  149.9610  132.6590 O   0  0  0  0  0  0  0  0  0  0  0  0
  139.9140  150.0270  132.0990 C   0  0  0  0  0  0  0  0  0  0  0  0
  139.6430  148.7800  132.6280 F   0  0  0  0  0  0  0  0  0  0  0  0
  140.2190  149.8890  130.7590 F   0  0  0  0  0  0  0  0  0  0  0  0
  138.7920  150.8220  132.2360 F   0  0  0  0  0  0  0  0  0  0  0  0
  142.9980  152.8130  132.6710 C   0  0  0  0  0  0  0  0  0  0  0  0
  143.3570  153.6050  133.9430 C   0  0  0  0  0  0  0  0  0  0  0  0
  144.5820  156.1880  133.9350 C   0  0  0  0  0  0  0  0  0  0  0  0
  145.2200  157.4090  133.6970 C   0  0  0  0  0  0  0  0  0  0  0  0
  146.5450  157.6610  133.6620 N   0  0  0  0  0  0  0  0  0  0  0  0
  147.5870  156.6860  133.8210 C   0  0  0  0  0  0  0  0  0  0  0  0
  147.8500  156.2420  134.9700 O   0  0  0  0  0  0  0  0  0  0  0  0
  148.3440  156.1530  132.6360 C   0  0  0  0  0  0  0  0  0  0  0  0
  149.5050  156.9010  132.3950 O   0  0  0  0  0  0  0  0  0  0  0  0
  149.2430  158.2330  134.0960 H   0  0  0  0  0  0  0  0  0  0  0  0
  145.1814  160.6131  132.9608 H   0  0  0  0  0  0  0  0  0  0  0  0
  142.5606  159.4762  133.1698 H   0  0  0  0  0  0  0  0  0  0  0  0
  141.3444  157.3186  133.6127 H   0  0  0  0  0  0  0  0  0  0  0  0
  142.1726  154.8241  135.2319 H   0  0  0  0  0  0  0  0  0  0  0  0
  140.3743  155.3994  133.8333 H   0  0  0  0  0  0  0  0  0  0  0  0
  141.3196  155.1027  132.3314 H   0  0  0  0  0  0  0  0  0  0  0  0
  140.5292  152.9485  134.3590 H   0  0  0  0  0  0  0  0  0  0  0  0
  139.6626  153.2978  132.8074 H   0  0  0  0  0  0  0  0  0  0  0  0
  143.6031  151.8946  132.6503 H   0  0  0  0  0  0  0  0  0  0  0  0
  143.2053  153.4685  131.8123 H   0  0  0  0  0  0  0  0  0  0  0  0
  143.2602  152.9365  134.8112 H   0  0  0  0  0  0  0  0  0  0  0  0
  144.3862  153.9738  133.8215 H   0  0  0  0  0  0  0  0  0  0  0  0
  145.1656  155.2789  134.1423 H   0  0  0  0  0  0  0  0  0  0  0  0
  148.6253  155.1076  132.8311 H   0  0  0  0  0  0  0  0  0  0  0  0
  147.6959  156.2226  131.7500 H   0  0  0  0  0  0  0  0  0  0  0  0
  149.6680  157.4440  133.2110 H   0  0  0  0  0  0  0  0  0  0  0  0
  1  2  1  0
  2  3  2  0
  2  4  1  0
  4  5  2  0
  5  6  1  0
  6  7  2  0
  7  8  1  0
  8  9  2  0
  9 10  1  0
 10 11  1  0
 11 12  1  0
 12 13  1  0
 13 14  1  0
 14 15  2  0
 14 16  2  0
 14 17  1  0
 17 18  1  0
 17 19  1  0
 17 20  1  0
 13 21  1  0
 21 22  1  0
  9 23  1  0
 23 24  2  0
 24 25  1  0
 25 26  1  0
 26 27  2  0
 26 28  1  0
 28 29  1  0
 25  4  1  0
 24  6  1  0
 22 10  1  0
  1 30  1  0
  5 31  1  0
  7 32  1  0
  8 33  1  0
 10 34  1  0
 11 35  1  0
 11 36  1  0
 12 37  1  0
 12 38  1  0
 21 39  1  0
 21 40  1  0
 22 41  1  0
 22 42  1  0
 23 43  1  0
 28 44  1  0
 28 45  1  0
 29 46  1  0
M  CHG  1   1  -1
M  END
>  <UniqueID>  (64) 
64

>  <SMILES>  (64) 
[NH-]C(=O)c1cc2ccc(C3CCN(S(=O)(=O)C(F)(F)F)CC3)cc2n1C(=O)CO

>  <Energy>  (64) 
92.25064783146392

>  <Genealogy>  (64) 
[NH-]C(=O)c1cc2ccc(C3CCN(S(=O)(=O)C(F)(F)F)CC3)cc2n1C(=O)CO (protonated)
[NH-]C(=O)c1cc2ccc(C3CCN(S(=O)(=O)C(F)(F)F)CC3)cc2n1C(=O)CO (3D coordinates assigned)
[NH-]C(=O)c1cc2ccc(C3CCN(S(=O)(=O)C(F)(F)F)CC3)cc2n1C(=O)CO (nonaromatic ring conformer: 92.25064783146392 kcal/mol)

>  <smiles>  (64) 
NC(=O)c1cc2ccc(C3CCN(S(=O)(=O)C(F)(F)F)CC3)cc2n1C(=O)CO

>  <score_type>  (64) 
oracle

>  <origin>  (64) 
adg

>  <m_score__min__energy>  (64) 
-7.6799999999999997

>  <m_primary>  (64) 
energy

$$$$
64:0
     RDKit          3D

 65 69  0  0  0  0  0  0  0  0999 V2000
  141.0910  159.2320  136.6220 N   0  0  0  0  0  0  0  0  0  0  0  0
  141.5620  158.0670  137.2940 C   0  0  0  0  0  0  0  0  0  0  0  0
  141.8260  158.1270  138.5260 O   0  0  0  0  0  0  0  0  0  0  0  0
  141.7200  156.7870  136.5730 C   0  0  0  0  0  0  0  0  0  0  0  0
  141.6600  155.5400  137.1950 C   0  0  0  0  0  0  0  0  0  0  0  0
  141.7740  154.6200  136.1760 C   0  0  0  0  0  0  0  0  0  0  0  0
  141.7760  153.2310  136.2190 C   0  0  0  0  0  0  0  0  0  0  0  0
  141.9280  152.5330  135.0100 C   0  0  0  0  0  0  0  0  0  0  0  0
  142.0750  153.2320  133.7790 C   0  0  0  0  0  0  0  0  0  0  0  0
  142.2590  152.5370  132.5290 N   0  0  0  0  0  0  0  0  0  0  0  0
  141.4820  151.3600  132.1150 C   0  0  0  0  0  0  0  0  0  0  0  0
  140.0210  151.4800  132.5740 C   0  0  0  0  0  0  0  0  0  0  0  0
  139.2200  150.2060  132.2110 C   0  0  0  0  0  0  0  0  0  0  0  0
  140.0460  149.1240  131.8020 O   0  0  0  0  0  0  0  0  0  0  0  0
  141.0810  148.9210  132.7420 C   0  0  0  0  0  0  0  0  0  0  0  0
  142.1040  150.0730  132.6920 C   0  0  0  0  0  0  0  0  0  0  0  0
  142.0680  154.6450  133.7810 C   0  0  0  0  0  0  0  0  0  0  0  0
  141.9020  155.3100  135.0000 C   0  0  0  0  0  0  0  0  0  0  0  0
  141.8780  156.6400  135.2280 N   0  0  0  0  0  0  0  0  0  0  0  0
  142.0280  157.6700  134.2390 C   0  0  0  0  0  0  0  0  0  0  0  0
  141.0050  158.1160  133.6510 O   0  0  0  0  0  0  0  0  0  0  0  0
  143.3290  158.1890  133.9080 N   0  0  0  0  0  0  0  0  0  0  0  0
  143.4510  159.5440  133.3560 C   0  0  0  0  0  0  0  0  0  0  0  0
  144.8630  160.0910  133.5880 C   0  0  0  0  0  0  0  0  0  0  0  0
  145.9420  159.1940  132.9190 C   0  0  0  0  0  0  0  0  0  0  0  0
  147.3320  159.4640  133.4040 N   0  0  0  0  0  0  0  0  0  0  0  0
  148.1410  158.2180  133.4940 C   0  0  0  0  0  0  0  0  0  0  0  0
  148.9970  157.9700  132.2320 C   0  0  0  0  0  0  0  0  0  0  0  0
  148.4160  158.5920  131.1080 O   0  0  0  0  0  0  0  0  0  0  0  0
  148.4850  160.0010  131.2430 C   0  0  0  0  0  0  0  0  0  0  0  0
  148.0950  160.4900  132.6560 C   0  0  0  0  0  0  0  0  0  0  0  0
  145.6050  157.6780  133.1030 C   0  0  0  0  0  0  0  0  0  0  0  0
  144.5380  157.3970  134.1700 C   0  0  0  0  0  0  0  0  0  0  0  0
  140.9000  159.2210  135.5970 H   0  0  0  0  0  0  0  0  0  0  0  0
  141.5460  155.3350  138.2697 H   0  0  0  0  0  0  0  0  0  0  0  0
  141.6619  152.6940  137.1722 H   0  0  0  0  0  0  0  0  0  0  0  0
  141.9335  151.4330  135.0144 H   0  0  0  0  0  0  0  0  0  0  0  0
  142.9560  152.9300  131.8570 H   0  0  0  0  0  0  0  0  0  0  0  0
  141.5038  151.3094  131.0164 H   0  0  0  0  0  0  0  0  0  0  0  0
  139.9969  151.6217  133.6646 H   0  0  0  0  0  0  0  0  0  0  0  0
  139.5625  152.3399  132.0639 H   0  0  0  0  0  0  0  0  0  0  0  0
  138.6436  149.8918  133.0937 H   0  0  0  0  0  0  0  0  0  0  0  0
  138.5686  150.4598  131.3617 H   0  0  0  0  0  0  0  0  0  0  0  0
  140.6459  148.8694  133.7510 H   0  0  0  0  0  0  0  0  0  0  0  0
  141.5980  147.9813  132.4977 H   0  0  0  0  0  0  0  0  0  0  0  0
  142.4629  150.2761  133.7118 H   0  0  0  0  0  0  0  0  0  0  0  0
  142.9334  149.7682  132.0369 H   0  0  0  0  0  0  0  0  0  0  0  0
  142.1904  155.2093  132.8447 H   0  0  0  0  0  0  0  0  0  0  0  0
  143.2468  159.5148  132.2755 H   0  0  0  0  0  0  0  0  0  0  0  0
  142.7270  160.2009  133.8603 H   0  0  0  0  0  0  0  0  0  0  0  0
  144.9276  161.1037  133.1635 H   0  0  0  0  0  0  0  0  0  0  0  0
  145.0521  160.1061  134.6715 H   0  0  0  0  0  0  0  0  0  0  0  0
  145.9186  159.4537  131.8504 H   0  0  0  0  0  0  0  0  0  0  0  0
  148.8103  158.2951  134.3635 H   0  0  0  0  0  0  0  0  0  0  0  0
  147.4418  157.3745  133.5921 H   0  0  0  0  0  0  0  0  0  0  0  0
  150.0046  158.3812  132.3921 H   0  0  0  0  0  0  0  0  0  0  0  0
  149.0526  156.8868  132.0486 H   0  0  0  0  0  0  0  0  0  0  0  0
  149.5152  160.3237  131.0319 H   0  0  0  0  0  0  0  0  0  0  0  0
  147.7660  160.4360  130.5332 H   0  0  0  0  0  0  0  0  0  0  0  0
  149.0115  160.7296  133.2151 H   0  0  0  0  0  0  0  0  0  0  0  0
  147.4549  161.3777  132.5452 H   0  0  0  0  0  0  0  0  0  0  0  0
  145.2431  157.2856  132.1412 H   0  0  0  0  0  0  0  0  0  0  0  0
  146.5291  157.1871  133.4422 H   0  0  0  0  0  0  0  0  0  0  0  0
  144.2812  156.3275  134.1526 H   0  0  0  0  0  0  0  0  0  0  0  0
  144.9387  157.6742  135.1562 H   0  0  0  0  0  0  0  0  0  0  0  0
  1  2  1  0
  2  3  2  0
  2  4  1  0
  4  5  2  0
  5  6  1  0
  6  7  2  0
  7  8  1  0
  8  9  2  0
  9 10  1  0
 10 11  1  0
 11 12  1  0
 12 13  1  0
 13 14  1  0
 14 15  1  0
 15 16  1  0
  9 17  1  0
 17 18  2  0
 18 19  1  0
 19 20  1  0
 20 21  2  0
 20 22  1  0
 22 23  1  0
 23 24  1  0
 24 25  1  0
 25 26  1  0
 26 27  1  0
 27 28  1  0
 28 29  1  0
 29 30  1  0
 30 31  1  0
 25 32  1  0
 32 33  1  0
 19  4  1  0
 33 22  1  0
 18  6  1  0
 31 26  1  0
 16 11  1  0
  1 34  1  0
  5 35  1  0
  7 36  1  0
  8 37  1  0
 10 38  1  0
 11 39  1  0
 12 40  1  0
 12 41  1  0
 13 42  1  0
 13 43  1  0
 15 44  1  0
 15 45  1  0
 16 46  1  0
 16 47  1  0
 17 48  1  0
 23 49  1  0
 23 50  1  0
 24 51  1  0
 24 52  1  0
 25 53  1  0
 27 54  1  0
 27 55  1  0
 28 56  1  0
 28 57  1  0
 30 58  1  0
 30 59  1  0
 31 60  1  0
 31 61  1  0
 32 62  1  0
 32 63  1  0
 33 64  1  0
 33 65  1  0
M  CHG  1   1  -1
M  END
>  <UniqueID>  (65) 
65

>  <SMILES>  (65) 
[NH-]C(=O)c1cc2ccc(NC3CCOCC3)cc2n1C(=O)N1CCC(N2CCOCC2)CC1

>  <Energy>  (65) 
134.9671446872726

>  <Genealogy>  (65) 
[NH-]C(=O)c1cc2ccc(NC3CCOCC3)cc2n1C(=O)N1CCC(N2CCOCC2)CC1 (protonated)
[NH-]C(=O)c1cc2ccc(NC3CCOCC3)cc2n1C(=O)N1CCC(N2CCOCC2)CC1 (3D coordinates assigned)
[NH-]C(=O)c1cc2ccc(NC3CCOCC3)cc2n1C(=O)N1CCC(N2CCOCC2)CC1 (nonaromatic ring conformer: 134.9671446872726 kcal/mol)

>  <smiles>  (65) 
NC(=O)c1cc2ccc(NC3CCOCC3)cc2n1C(=O)N1CCC(N2CCOCC2)CC1

>  <score_type>  (65) 
oracle

>  <origin>  (65) 
adg

>  <m_score__min__energy>  (65) 
-10.460000000000001

>  <m_primary>  (65) 
energy

$$$$
65:0
     RDKit          3D

 42 44  0  0  0  0  0  0  0  0999 V2000
  143.3470  161.9010  133.7200 N   0  0  0  0  0  0  0  0  0  0  0  0
  144.7560  161.8330  133.9180 C   0  0  0  0  0  0  0  0  0  0  0  0
  145.3680  162.8450  134.3530 O   0  0  0  0  0  0  0  0  0  0  0  0
  145.4980  160.5780  133.6770 C   0  0  0  0  0  0  0  0  0  0  0  0
  146.8670  160.5340  133.4270 C   0  0  0  0  0  0  0  0  0  0  0  0
  147.1810  159.1960  133.3450 C   0  0  0  0  0  0  0  0  0  0  0  0
  148.4010  158.5780  133.0950 C   0  0  0  0  0  0  0  0  0  0  0  0
  148.4280  157.1760  133.0320 C   0  0  0  0  0  0  0  0  0  0  0  0
  147.2420  156.4160  133.2090 C   0  0  0  0  0  0  0  0  0  0  0  0
  147.2810  154.9330  133.1270 C   0  0  0  0  0  0  0  0  0  0  0  0
  146.0920  154.1870  133.0670 C   0  0  0  0  0  0  0  0  0  0  0  0
  146.1500  152.7940  132.9920 C   0  0  0  0  0  0  0  0  0  0  0  0
  147.3530  152.1590  132.9760 N   0  0  0  0  0  0  0  0  0  0  0  0
  148.5210  152.8540  133.0340 C   0  0  0  0  0  0  0  0  0  0  0  0
  148.5070  154.2480  133.1110 C   0  0  0  0  0  0  0  0  0  0  0  0
  146.0200  157.0860  133.4600 C   0  0  0  0  0  0  0  0  0  0  0  0
  146.0270  158.4830  133.5370 C   0  0  0  0  0  0  0  0  0  0  0  0
  144.9830  159.3180  133.7410 N   0  0  0  0  0  0  0  0  0  0  0  0
  143.6040  158.9420  133.8810 C   0  0  0  0  0  0  0  0  0  0  0  0
  142.9850  159.1990  134.9500 O   0  0  0  0  0  0  0  0  0  0  0  0
  142.9580  158.2740  132.8380 O   0  0  0  0  0  0  0  0  0  0  0  0
  141.8980  157.3480  133.0520 C   0  0  0  0  0  0  0  0  0  0  0  0
  140.5540  158.0030  132.7280 C   0  0  0  0  0  0  0  0  0  0  0  0
  140.3180  159.2930  133.5210 C   0  0  0  0  0  0  0  0  0  0  0  0
  141.0620  160.3530  132.9790 O   0  0  0  0  0  0  0  0  0  0  0  0
  142.7270  161.1040  133.9860 H   0  0  0  0  0  0  0  0  0  0  0  0
  147.5525  161.3874  133.3181 H   0  0  0  0  0  0  0  0  0  0  0  0
  149.3171  159.1696  132.9510 H   0  0  0  0  0  0  0  0  0  0  0  0
  149.3806  156.6594  132.8430 H   0  0  0  0  0  0  0  0  0  0  0  0
  145.1184  154.6988  133.0791 H   0  0  0  0  0  0  0  0  0  0  0  0
  145.2201  152.2082  132.9457 H   0  0  0  0  0  0  0  0  0  0  0  0
  147.3810  151.1160  132.9210 H   0  0  0  0  0  0  0  0  0  0  0  0
  149.4802  152.3156  133.0202 H   0  0  0  0  0  0  0  0  0  0  0  0
  149.4527  154.8077  133.1589 H   0  0  0  0  0  0  0  0  0  0  0  0
  145.0857  156.5205  133.5916 H   0  0  0  0  0  0  0  0  0  0  0  0
  142.0425  156.4729  132.4013 H   0  0  0  0  0  0  0  0  0  0  0  0
  141.9009  157.0350  134.1065 H   0  0  0  0  0  0  0  0  0  0  0  0
  140.5280  158.2403  131.6542 H   0  0  0  0  0  0  0  0  0  0  0  0
  139.7623  157.2921  133.0069 H   0  0  0  0  0  0  0  0  0  0  0  0
  139.2485  159.5477  133.4858 H   0  0  0  0  0  0  0  0  0  0  0  0
  140.6385  159.1320  134.5609 H   0  0  0  0  0  0  0  0  0  0  0  0
  142.0050  160.2140  133.2560 H   0  0  0  0  0  0  0  0  0  0  0  0
  1  2  1  0
  2  3  2  0
  2  4  1  0
  4  5  2  0
  5  6  1  0
  6  7  2  0
  7  8  1  0
  8  9  2  0
  9 10  1  0
 10 11  2  0
 11 12  1  0
 12 13  2  0
 13 14  1  0
 14 15  2  0
  9 16  1  0
 16 17  2  0
 17 18  1  0
 18 19  1  0
 19 20  2  0
 19 21  1  0
 21 22  1  0
 22 23  1  0
 23 24  1  0
 24 25  1  0
 18  4  1  0
 17  6  1  0
 15 10  1  0
  1 26  1  0
  5 27  1  0
  7 28  1  0
  8 29  1  0
 11 30  1  0
 12 31  1  0
 13 32  1  0
 14 33  1  0
 15 34  1  0
 16 35  1  0
 22 36  1  0
 22 37  1  0
 23 38  1  0
 23 39  1  0
 24 40  1  0
 24 41  1  0
 25 42  1  0
M  CHG  2   1  -1  13   1
M  END
>  <UniqueID>  (66) 
66

>  <SMILES>  (66) 
[NH-]C(=O)c1cc2ccc(-c3cc[nH+]cc3)cc2n1C(=O)OCCCO

>  <Energy>  (66) 
82.62771489599955

>  <Genealogy>  (66) 
[NH-]C(=O)c1cc2ccc(-c3cc[nH+]cc3)cc2n1C(=O)OCCCO (protonated)
[NH-]C(=O)c1cc2ccc(-c3cc[nH+]cc3)cc2n1C(=O)OCCCO (3D coordinates assigned)
[NH-]C(=O)c1cc2ccc(-c3cc[nH+]cc3)cc2n1C(=O)OCCCO (optimized conformer: 82.62771489599955 kcal/mol)

>  <smiles>  (66) 
NC(=O)c1cc2ccc(-c3ccncc3)cc2n1C(=O)OCCCO

>  <score_type>  (66) 
oracle

>  <origin>  (66) 
adg

>  <m_score__min__energy>  (66) 
-6.1200000000000001

>  <m_primary>  (66) 
energy

$$$$
66:0
     RDKit          3D

 48 49  0  0  0  0  0  0  0  0999 V2000
  149.6030  161.2000  130.3170 C   0  0  0  0  0  0  0  0  0  0  0  0
  148.2470  160.6960  130.7970 C   0  0  0  0  0  0  0  0  0  0  0  0
  148.4030  159.9050  131.9730 O   0  0  0  0  0  0  0  0  0  0  0  0
  149.0500  158.6650  131.9840 C   0  0  0  0  0  0  0  0  0  0  0  0
  150.3010  158.5880  131.8260 O   0  0  0  0  0  0  0  0  0  0  0  0
  148.2520  157.4210  132.2530 C   0  0  0  0  0  0  0  0  0  0  0  0
  146.9500  157.7470  132.8580 N   0  0  0  0  0  0  0  0  0  0  0  0
  146.7460  157.0280  134.1290 C   0  0  0  0  0  0  0  0  0  0  0  0
  146.1900  155.6120  133.9010 C   0  0  0  0  0  0  0  0  0  0  0  0
  144.6810  155.5920  133.9000 C   0  0  0  0  0  0  0  0  0  0  0  0
  143.9800  154.5120  133.3060 C   0  0  0  0  0  0  0  0  0  0  0  0
  142.5750  154.5180  133.2460 C   0  0  0  0  0  0  0  0  0  0  0  0
  141.9030  155.6090  133.7860 C   0  0  0  0  0  0  0  0  0  0  0  0
  140.5620  155.9110  133.7790 C   0  0  0  0  0  0  0  0  0  0  0  0
  140.4610  157.1620  134.3820 C   0  0  0  0  0  0  0  0  0  0  0  0
  139.1790  157.8640  134.5890 C   0  0  0  0  0  0  0  0  0  0  0  0
  138.7490  158.2360  135.8970 N   0  0  0  0  0  0  0  0  0  0  0  0
  138.4330  158.1020  133.6020 O   0  0  0  0  0  0  0  0  0  0  0  0
  141.6910  157.6150  134.7530 N   0  0  0  0  0  0  0  0  0  0  0  0
  142.0310  158.9220  135.2440 C   0  0  0  0  0  0  0  0  0  0  0  0
  141.1650  159.6100  135.8510 O   0  0  0  0  0  0  0  0  0  0  0  0
  143.3370  159.4020  135.0920 O   0  0  0  0  0  0  0  0  0  0  0  0
  143.7100  160.3520  134.0980 C   0  0  0  0  0  0  0  0  0  0  0  0
  144.9320  159.8800  133.3730 C   0  0  0  0  0  0  0  0  0  0  0  0
  146.0620  160.3550  133.6640 O   0  0  0  0  0  0  0  0  0  0  0  0
  144.8170  158.9610  132.3360 O   0  0  0  0  0  0  0  0  0  0  0  0
  142.5620  156.6510  134.3830 C   0  0  0  0  0  0  0  0  0  0  0  0
  143.9610  156.6760  134.4500 C   0  0  0  0  0  0  0  0  0  0  0  0
  150.2353  161.4350  131.1859 H   0  0  0  0  0  0  0  0  0  0  0  0
  150.0890  160.4225  129.7094 H   0  0  0  0  0  0  0  0  0  0  0  0
  149.4632  162.1062  129.7094 H   0  0  0  0  0  0  0  0  0  0  0  0
  147.5984  161.5558  131.0210 H   0  0  0  0  0  0  0  0  0  0  0  0
  147.7937  160.0789  130.0072 H   0  0  0  0  0  0  0  0  0  0  0  0
  148.0845  156.8895  131.3046 H   0  0  0  0  0  0  0  0  0  0  0  0
  148.8155  156.7896  132.9557 H   0  0  0  0  0  0  0  0  0  0  0  0
  146.8830  158.7830  132.9970 H   0  0  0  0  0  0  0  0  0  0  0  0
  146.1950  157.4620  132.1910 H   0  0  0  0  0  0  0  0  0  0  0  0
  147.7098  156.9519  134.6538 H   0  0  0  0  0  0  0  0  0  0  0  0
  146.0139  157.5908  134.7267 H   0  0  0  0  0  0  0  0  0  0  0  0
  146.5510  155.2404  132.9306 H   0  0  0  0  0  0  0  0  0  0  0  0
  146.5383  154.9727  134.7256 H   0  0  0  0  0  0  0  0  0  0  0  0
  144.5400  153.6622  132.8886 H   0  0  0  0  0  0  0  0  0  0  0  0
  142.0241  153.6846  132.7857 H   0  0  0  0  0  0  0  0  0  0  0  0
  139.7422  155.2948  133.3812 H   0  0  0  0  0  0  0  0  0  0  0  0
  139.1450  159.0770  136.3720 H   0  0  0  0  0  0  0  0  0  0  0  0
  142.8846  160.4724  133.3810 H   0  0  0  0  0  0  0  0  0  0  0  0
  143.9265  161.3157  134.5822 H   0  0  0  0  0  0  0  0  0  0  0  0
  144.4868  157.5201  134.9200 H   0  0  0  0  0  0  0  0  0  0  0  0
  1  2  1  0
  2  3  1  0
  3  4  1  0
  4  5  2  0
  4  6  1  0
  6  7  1  0
  7  8  1  0
  8  9  1  0
  9 10  1  0
 10 11  2  0
 11 12  1  0
 12 13  2  0
 13 14  1  0
 14 15  2  0
 15 16  1  0
 16 17  1  0
 16 18  2  0
 15 19  1  0
 19 20  1  0
 20 21  2  0
 20 22  1  0
 22 23  1  0
 23 24  1  0
 24 25  2  0
 24 26  1  0
 19 27  1  0
 27 28  2  0
 28 10  1  0
 27 13  1  0
  1 29  1  0
  1 30  1  0
  1 31  1  0
  2 32  1  0
  2 33  1  0
  6 34  1  0
  6 35  1  0
  7 36  1  0
  7 37  1  0
  8 38  1  0
  8 39  1  0
  9 40  1  0
  9 41  1  0
 11 42  1  0
 12 43  1  0
 14 44  1  0
 17 45  1  0
 23 46  1  0
 23 47  1  0
 28 48  1  0
M  CHG  3   7   1  17  -1  26  -1
M  END
>  <UniqueID>  (67) 
67

>  <SMILES>  (67) 
CCOC(=O)C[NH2+]CCc1ccc2cc(C([NH-])=O)n(C(=O)OCC(=O)[O-])c2c1

>  <Energy>  (67) 
73.63662949307637

>  <Genealogy>  (67) 
CCOC(=O)C[NH2+]CCc1ccc2cc(C([NH-])=O)n(C(=O)OCC(=O)[O-])c2c1 (protonated)
CCOC(=O)C[NH2+]CCc1ccc2cc(C([NH-])=O)n(C(=O)OCC(=O)[O-])c2c1 (3D coordinates assigned)
CCOC(=O)C[NH2+]CCc1ccc2cc(C([NH-])=O)n(C(=O)OCC(=O)[O-])c2c1 (optimized conformer: 73.63662949307637 kcal/mol)

>  <smiles>  (67) 
CCOC(=O)CNCCc1ccc2cc(C(N)=O)n(C(=O)OCC(=O)O)c2c1

>  <score_type>  (67) 
oracle

>  <origin>  (67) 
adg

>  <m_score__min__energy>  (67) 
-5.46

>  <m_primary>  (67) 
energy

$$$$
67:0
     RDKit          3D

 34 36  0  0  0  0  0  0  0  0999 V2000
  149.1200  157.5020  132.2330 N   0  0  0  0  0  0  0  0  0  0  0  0
  148.6570  158.6080  133.0100 C   0  0  0  0  0  0  0  0  0  0  0  0
  149.4940  159.3260  133.6210 O   0  0  0  0  0  0  0  0  0  0  0  0
  147.2160  158.8830  133.1650 C   0  0  0  0  0  0  0  0  0  0  0  0
  146.6930  160.1650  133.3030 C   0  0  0  0  0  0  0  0  0  0  0  0
  145.3420  159.9890  133.4900 C   0  0  0  0  0  0  0  0  0  0  0  0
  144.3330  160.9330  133.6640 C   0  0  0  0  0  0  0  0  0  0  0  0
  143.0150  160.4690  133.7970 C   0  0  0  0  0  0  0  0  0  0  0  0
  142.7280  159.0820  133.7510 C   0  0  0  0  0  0  0  0  0  0  0  0
  141.3290  158.6110  133.8620 C   0  0  0  0  0  0  0  0  0  0  0  0
  140.7240  158.0600  132.7190 C   0  0  0  0  0  0  0  0  0  0  0  0
  139.4390  157.5220  132.7820 C   0  0  0  0  0  0  0  0  0  0  0  0
  138.7400  157.5240  133.9860 C   0  0  0  0  0  0  0  0  0  0  0  0
  139.3140  158.0770  135.1330 C   0  0  0  0  0  0  0  0  0  0  0  0
  138.5850  158.0950  136.2780 F   0  0  0  0  0  0  0  0  0  0  0  0
  140.6080  158.6390  135.0880 C   0  0  0  0  0  0  0  0  0  0  0  0
  141.1600  159.2880  136.3040 C   0  0  0  0  0  0  0  0  0  0  0  0
  142.1180  158.7600  136.9290 O   0  0  0  0  0  0  0  0  0  0  0  0
  140.6100  160.4690  136.7890 O   0  0  0  0  0  0  0  0  0  0  0  0
  143.7760  158.1540  133.5580 C   0  0  0  0  0  0  0  0  0  0  0  0
  145.0840  158.6410  133.4510 C   0  0  0  0  0  0  0  0  0  0  0  0
  146.2290  157.9470  133.2490 N   0  0  0  0  0  0  0  0  0  0  0  0
  146.3510  156.5300  133.0380 C   0  0  0  0  0  0  0  0  0  0  0  0
  146.9170  156.0840  132.0050 O   0  0  0  0  0  0  0  0  0  0  0  0
  145.8520  155.6360  133.9770 O   0  0  0  0  0  0  0  0  0  0  0  0
  148.4530  156.7940  131.8520 H   0  0  0  0  0  0  0  0  0  0  0  0
  150.1440  157.3430  132.1050 H   0  0  0  0  0  0  0  0  0  0  0  0
  147.2432  161.1169  133.2696 H   0  0  0  0  0  0  0  0  0  0  0  0
  144.5617  162.0085  133.6962 H   0  0  0  0  0  0  0  0  0  0  0  0
  142.1961  161.1897  133.9384 H   0  0  0  0  0  0  0  0  0  0  0  0
  141.2703  158.0531  131.7643 H   0  0  0  0  0  0  0  0  0  0  0  0
  138.9771  157.0955  131.8793 H   0  0  0  0  0  0  0  0  0  0  0  0
  137.7312  157.0881  134.0342 H   0  0  0  0  0  0  0  0  0  0  0  0
  143.5691  157.0756  133.4934 H   0  0  0  0  0  0  0  0  0  0  0  0
  1  2  1  0
  2  3  2  0
  2  4  1  0
  4  5  2  0
  5  6  1  0
  6  7  2  0
  7  8  1  0
  8  9  2  0
  9 10  1  0
 10 11  2  0
 11 12  1  0
 12 13  2  0
 13 14  1  0
 14 15  1  0
 14 16  2  0
 16 17  1  0
 17 18  2  0
 17 19  1  0
  9 20  1  0
 20 21  2  0
 21 22  1  0
 22 23  1  0
 23 24  2  0
 23 25  1  0
 22  4  1  0
 21  6  1  0
 16 10  1  0
  1 26  1  0
  1 27  1  0
  5 28  1  0
  7 29  1  0
  8 30  1  0
 11 31  1  0
 12 32  1  0
 13 33  1  0
 20 34  1  0
M  CHG  2  19  -1  25  -1
M  END
>  <UniqueID>  (68) 
68

>  <SMILES>  (68) 
NC(=O)c1cc2ccc(-c3cccc(F)c3C(=O)[O-])cc2n1C(=O)[O-]

>  <Energy>  (68) 
88.94304730152352

>  <Genealogy>  (68) 
NC(=O)c1cc2ccc(-c3cccc(F)c3C(=O)[O-])cc2n1C(=O)[O-] (protonated)
NC(=O)c1cc2ccc(-c3cccc(F)c3C(=O)[O-])cc2n1C(=O)[O-] (3D coordinates assigned)
NC(=O)c1cc2ccc(-c3cccc(F)c3C(=O)[O-])cc2n1C(=O)[O-] (optimized conformer: 88.94304730152352 kcal/mol)

>  <smiles>  (68) 
NC(=O)c1cc2ccc(-c3cccc(F)c3C(=O)O)cc2n1C(=O)O

>  <score_type>  (68) 
oracle

>  <origin>  (68) 
adg

>  <m_score__min__energy>  (68) 
-7.6399999999999997

>  <m_primary>  (68) 
energy

$$$$
68:0
     RDKit          3D

 36 37  0  0  0  0  0  0  0  0999 V2000
  149.3460  161.1530  130.4190 C   0  0  0  0  0  0  0  0  0  0  0  0
  149.4820  159.8020  131.1130 C   0  0  0  0  0  0  0  0  0  0  0  0
  148.2360  159.4010  131.6780 O   0  0  0  0  0  0  0  0  0  0  0  0
  148.1150  158.8190  132.9470 C   0  0  0  0  0  0  0  0  0  0  0  0
  148.8790  159.1750  133.8860 O   0  0  0  0  0  0  0  0  0  0  0  0
  147.1130  157.8150  133.1760 N   0  0  0  0  0  0  0  0  0  0  0  0
  145.7760  158.0100  133.3540 C   0  0  0  0  0  0  0  0  0  0  0  0
  145.1070  159.3160  133.5220 C   0  0  0  0  0  0  0  0  0  0  0  0
  145.6010  160.4880  132.8750 N   0  0  0  0  0  0  0  0  0  0  0  0
  144.1150  159.4070  134.2940 O   0  0  0  0  0  0  0  0  0  0  0  0
  145.1020  156.7920  133.4050 C   0  0  0  0  0  0  0  0  0  0  0  0
  146.0790  155.8320  133.2660 C   0  0  0  0  0  0  0  0  0  0  0  0
  145.9670  154.4460  133.2220 C   0  0  0  0  0  0  0  0  0  0  0  0
  147.1380  153.6970  133.0210 C   0  0  0  0  0  0  0  0  0  0  0  0
  148.3890  154.3420  132.8650 C   0  0  0  0  0  0  0  0  0  0  0  0
  149.6290  153.5280  132.6010 C   0  0  0  0  0  0  0  0  0  0  0  0
  149.2990  152.0420  132.4420 C   0  0  0  0  0  0  0  0  0  0  0  0
  150.4690  151.2900  132.2630 O   0  0  0  0  0  0  0  0  0  0  0  0
  148.4630  155.7520  132.9040 C   0  0  0  0  0  0  0  0  0  0  0  0
  147.2830  156.4740  133.1270 C   0  0  0  0  0  0  0  0  0  0  0  0
  149.2660  161.9475  131.1756 H   0  0  0  0  0  0  0  0  0  0  0  0
  150.2306  161.3330  129.7904 H   0  0  0  0  0  0  0  0  0  0  0  0
  148.4433  161.1531  129.7904 H   0  0  0  0  0  0  0  0  0  0  0  0
  149.8051  159.0493  130.3789 H   0  0  0  0  0  0  0  0  0  0  0  0
  150.2251  159.8904  131.9192 H   0  0  0  0  0  0  0  0  0  0  0  0
  145.0910  161.3950  132.9720 H   0  0  0  0  0  0  0  0  0  0  0  0
  146.5110  160.4810  132.3650 H   0  0  0  0  0  0  0  0  0  0  0  0
  144.0209  156.6316  133.5296 H   0  0  0  0  0  0  0  0  0  0  0  0
  144.9914  153.9520  133.3410 H   0  0  0  0  0  0  0  0  0  0  0  0
  147.0828  152.5990  132.9844 H   0  0  0  0  0  0  0  0  0  0  0  0
  150.1045  153.8897  131.6774 H   0  0  0  0  0  0  0  0  0  0  0  0
  150.3068  153.6418  133.4598 H   0  0  0  0  0  0  0  0  0  0  0  0
  148.7779  151.6895  133.3443 H   0  0  0  0  0  0  0  0  0  0  0  0
  148.6586  151.9151  131.5567 H   0  0  0  0  0  0  0  0  0  0  0  0
  151.1920  151.9330  132.0390 H   0  0  0  0  0  0  0  0  0  0  0  0
  149.4229  156.2703  132.7629 H   0  0  0  0  0  0  0  0  0  0  0  0
  1  2  1  0
  2  3  1  0
  3  4  1  0
  4  5  2  0
  4  6  1  0
  6  7  1  0
  7  8  1  0
  8  9  1  0
  8 10  2  0
  7 11  2  0
 11 12  1  0
 12 13  2  0
 13 14  1  0
 14 15  2  0
 15 16  1  0
 16 17  1  0
 17 18  1  0
 15 19  1  0
 19 20  2  0
 20  6  1  0
 20 12  1  0
  1 21  1  0
  1 22  1  0
  1 23  1  0
  2 24  1  0
  2 25  1  0
  9 26  1  0
  9 27  1  0
 11 28  1  0
 13 29  1  0
 14 30  1  0
 16 31  1  0
 16 32  1  0
 17 33  1  0
 17 34  1  0
 18 35  1  0
 19 36  1  0
M  END
>  <UniqueID>  (69) 
69

>  <SMILES>  (69) 
CCOC(=O)n1c(C(N)=O)cc2ccc(CCO)cc21

>  <Energy>  (69) 
68.522439276536

>  <Genealogy>  (69) 
CCOC(=O)n1c(C(N)=O)cc2ccc(CCO)cc21 (3D coordinates assigned)
CCOC(=O)n1c(C(N)=O)cc2ccc(CCO)cc21 (optimized conformer: 68.522439276536 kcal/mol)

>  <smiles>  (69) 
CCOC(=O)n1c(C(N)=O)cc2ccc(CCO)cc21

>  <score_type>  (69) 
oracle

>  <origin>  (69) 
adg

>  <m_score__min__energy>  (69) 
-6.7800000000000002

>  <m_primary>  (69) 
energy

$$$$
69:0
     RDKit          3D

 41 43  0  0  0  0  0  0  0  0999 V2000
  138.6520  147.5900  130.0150 C   0  0  0  0  0  0  0  0  0  0  0  0
  138.6200  148.6630  130.9510 O   0  0  0  0  0  0  0  0  0  0  0  0
  139.7590  149.2760  131.4920 C   0  0  0  0  0  0  0  0  0  0  0  0
  140.9730  148.5850  131.6770 C   0  0  0  0  0  0  0  0  0  0  0  0
  142.0810  149.2420  132.2220 C   0  0  0  0  0  0  0  0  0  0  0  0
  141.9920  150.5900  132.5980 C   0  0  0  0  0  0  0  0  0  0  0  0
  143.1950  151.3060  133.1510 C   0  0  0  0  0  0  0  0  0  0  0  0
  143.0100  152.8220  133.0560 C   0  0  0  0  0  0  0  0  0  0  0  0
  142.6670  153.3990  134.4030 C   0  0  0  0  0  0  0  0  0  0  0  0
  143.0630  154.7180  134.7330 C   0  0  0  0  0  0  0  0  0  0  0  0
  142.7890  155.2500  136.0040 C   0  0  0  0  0  0  0  0  0  0  0  0
  142.1250  154.4410  136.9210 C   0  0  0  0  0  0  0  0  0  0  0  0
  141.7650  154.6930  138.2240 C   0  0  0  0  0  0  0  0  0  0  0  0
  141.1460  153.5280  138.6700 C   0  0  0  0  0  0  0  0  0  0  0  0
  140.5280  153.3960  140.0060 C   0  0  0  0  0  0  0  0  0  0  0  0
  141.0670  152.4720  140.9490 N   0  0  0  0  0  0  0  0  0  0  0  0
  139.5510  154.1170  140.3400 O   0  0  0  0  0  0  0  0  0  0  0  0
  141.1310  152.5860  137.6820 N   0  0  0  0  0  0  0  0  0  0  0  0
  140.6450  151.2360  137.7550 C   0  0  0  0  0  0  0  0  0  0  0  0
  140.2680  150.7540  138.8560 O   0  0  0  0  0  0  0  0  0  0  0  0
  140.6080  150.4410  136.6170 O   0  0  0  0  0  0  0  0  0  0  0  0
  141.7310  153.1630  136.6170 C   0  0  0  0  0  0  0  0  0  0  0  0
  142.0060  152.6020  135.3640 C   0  0  0  0  0  0  0  0  0  0  0  0
  140.7870  151.2820  132.4010 C   0  0  0  0  0  0  0  0  0  0  0  0
  139.6790  150.6250  131.8570 C   0  0  0  0  0  0  0  0  0  0  0  0
  138.6805  146.6325  130.5557 H   0  0  0  0  0  0  0  0  0  0  0  0
  137.7523  147.6276  129.3832 H   0  0  0  0  0  0  0  0  0  0  0  0
  139.5478  147.6812  129.3832 H   0  0  0  0  0  0  0  0  0  0  0  0
  141.0496  147.5254  131.3919 H   0  0  0  0  0  0  0  0  0  0  0  0
  143.0276  148.6982  132.3564 H   0  0  0  0  0  0  0  0  0  0  0  0
  143.3307  151.0237  134.2055 H   0  0  0  0  0  0  0  0  0  0  0  0
  144.0796  151.0191  132.5635 H   0  0  0  0  0  0  0  0  0  0  0  0
  143.9433  153.2782  132.6943 H   0  0  0  0  0  0  0  0  0  0  0  0
  142.1868  153.0359  132.3584 H   0  0  0  0  0  0  0  0  0  0  0  0
  143.5899  155.3315  133.9874 H   0  0  0  0  0  0  0  0  0  0  0  0
  143.0902  156.2749  136.2663 H   0  0  0  0  0  0  0  0  0  0  0  0
  141.9309  155.6192  138.7937 H   0  0  0  0  0  0  0  0  0  0  0  0
  141.0930  151.4490  140.7430 H   0  0  0  0  0  0  0  0  0  0  0  0
  141.7146  151.5666  135.1336 H   0  0  0  0  0  0  0  0  0  0  0  0
  140.7139  152.3447  132.6754 H   0  0  0  0  0  0  0  0  0  0  0  0
  138.7360  151.1732  131.7146 H   0  0  0  0  0  0  0  0  0  0  0  0
  1  2  1  0
  2  3  1  0
  3  4  2  0
  4  5  1  0
  5  6  2  0
  6  7  1  0
  7  8  1  0
  8  9  1  0
  9 10  2  0
 10 11  1  0
 11 12  2  0
 12 13  1  0
 13 14  2  0
 14 15  1  0
 15 16  1  0
 15 17  2  0
 14 18  1  0
 18 19  1  0
 19 20  2  0
 19 21  1  0
 18 22  1  0
 22 23  2  0
  6 24  1  0
 24 25  2  0
 25  3  1  0
 23  9  1  0
 22 12  1  0
  1 26  1  0
  1 27  1  0
  1 28  1  0
  4 29  1  0
  5 30  1  0
  7 31  1  0
  7 32  1  0
  8 33  1  0
  8 34  1  0
 10 35  1  0
 11 36  1  0
 13 37  1  0
 16 38  1  0
 23 39  1  0
 24 40  1  0
 25 41  1  0
M  CHG  2  16  -1  21  -1
M  END
>  <UniqueID>  (70) 
70

>  <SMILES>  (70) 
COc1ccc(CCc2ccc3cc(C([NH-])=O)n(C(=O)[O-])c3c2)cc1

>  <Energy>  (70) 
78.80409256902895

>  <Genealogy>  (70) 
COc1ccc(CCc2ccc3cc(C([NH-])=O)n(C(=O)[O-])c3c2)cc1 (protonated)
COc1ccc(CCc2ccc3cc(C([NH-])=O)n(C(=O)[O-])c3c2)cc1 (3D coordinates assigned)
COc1ccc(CCc2ccc3cc(C([NH-])=O)n(C(=O)[O-])c3c2)cc1 (optimized conformer: 78.80409256902895 kcal/mol)

>  <smiles>  (70) 
COc1ccc(CCc2ccc3cc(C(N)=O)n(C(=O)O)c3c2)cc1

>  <score_type>  (70) 
oracle

>  <origin>  (70) 
adg

>  <m_score__min__energy>  (70) 
-7.7699999999999996

>  <m_primary>  (70) 
energy

$$$$
70:0
     RDKit          3D

 37 39  0  0  0  0  0  0  0  0999 V2000
  140.6280  160.2810  132.9850 N   0  0  0  0  0  0  0  0  0  0  0  0
  141.1750  159.4370  133.9960 C   0  0  0  0  0  0  0  0  0  0  0  0
  140.5660  159.3150  135.0930 O   0  0  0  0  0  0  0  0  0  0  0  0
  142.4700  158.7550  133.7980 C   0  0  0  0  0  0  0  0  0  0  0  0
  142.5970  157.3710  133.6910 C   0  0  0  0  0  0  0  0  0  0  0  0
  143.9500  157.1340  133.6130 C   0  0  0  0  0  0  0  0  0  0  0  0
  144.6410  155.9330  133.4870 C   0  0  0  0  0  0  0  0  0  0  0  0
  146.0420  155.9860  133.4030 C   0  0  0  0  0  0  0  0  0  0  0  0
  146.7210  157.2300  133.4340 C   0  0  0  0  0  0  0  0  0  0  0  0
  148.2260  157.2750  133.3600 C   0  0  0  0  0  0  0  0  0  0  0  0
  148.7190  157.8510  132.0250 C   0  0  0  0  0  0  0  0  0  0  0  0
  149.0200  159.3590  132.1100 C   0  0  0  0  0  0  0  0  0  0  0  0
  148.4440  160.0280  133.3520 C   0  0  0  0  0  0  0  0  0  0  0  0
  147.5280  160.8580  132.5670 N   0  0  0  0  0  0  0  0  0  0  0  0
  148.0450  160.2450  131.3430 C   0  0  0  0  0  0  0  0  0  0  0  0
  145.9850  158.4290  133.5650 C   0  0  0  0  0  0  0  0  0  0  0  0
  144.5910  158.3450  133.6660 C   0  0  0  0  0  0  0  0  0  0  0  0
  143.6950  159.3510  133.7770 N   0  0  0  0  0  0  0  0  0  0  0  0
  143.9870  160.7580  133.7700 C   0  0  0  0  0  0  0  0  0  0  0  0
  145.1800  161.1610  133.7730 O   0  0  0  0  0  0  0  0  0  0  0  0
  142.9550  161.6880  133.7310 O   0  0  0  0  0  0  0  0  0  0  0  0
  141.1000  161.1720  132.7170 H   0  0  0  0  0  0  0  0  0  0  0  0
  141.7874  156.6265  133.6728 H   0  0  0  0  0  0  0  0  0  0  0  0
  144.1068  154.9720  133.4542 H   0  0  0  0  0  0  0  0  0  0  0  0
  146.6179  155.0532  133.3123 H   0  0  0  0  0  0  0  0  0  0  0  0
  148.6032  157.9045  134.1794 H   0  0  0  0  0  0  0  0  0  0  0  0
  148.6014  156.2445  133.4449 H   0  0  0  0  0  0  0  0  0  0  0  0
  149.6384  157.3235  131.7310 H   0  0  0  0  0  0  0  0  0  0  0  0
  147.9184  157.7107  131.2838 H   0  0  0  0  0  0  0  0  0  0  0  0
  150.0956  159.3226  131.8823 H   0  0  0  0  0  0  0  0  0  0  0  0
  147.9309  159.3285  134.0283 H   0  0  0  0  0  0  0  0  0  0  0  0
  149.1302  160.5163  134.0596 H   0  0  0  0  0  0  0  0  0  0  0  0
  146.5250  160.6160  132.7400 H   0  0  0  0  0  0  0  0  0  0  0  0
  147.7620  161.8770  132.6320 H   0  0  0  0  0  0  0  0  0  0  0  0
  147.2865  159.6788  130.7825 H   0  0  0  0  0  0  0  0  0  0  0  0
  148.4326  160.8956  130.5452 H   0  0  0  0  0  0  0  0  0  0  0  0
  146.4943  159.4038  133.5871 H   0  0  0  0  0  0  0  0  0  0  0  0
  1  2  1  0
  2  3  2  0
  2  4  1  0
  4  5  2  0
  5  6  1  0
  6  7  2  0
  7  8  1  0
  8  9  2  0
  9 10  1  0
 10 11  1  0
 11 12  1  0
 12 13  1  0
 13 14  1  0
 14 15  1  0
  9 16  1  0
 16 17  2  0
 17 18  1  0
 18 19  1  0
 19 20  2  0
 19 21  1  0
 18  4  1  0
 17  6  1  0
 15 12  1  0
  1 22  1  0
  5 23  1  0
  7 24  1  0
  8 25  1  0
 10 26  1  0
 10 27  1  0
 11 28  1  0
 11 29  1  0
 12 30  1  0
 13 31  1  0
 13 32  1  0
 14 33  1  0
 14 34  1  0
 15 35  1  0
 15 36  1  0
 16 37  1  0
M  CHG  3   1  -1  14   1  21  -1
M  END
>  <UniqueID>  (71) 
71

>  <SMILES>  (71) 
[NH-]C(=O)c1cc2ccc(CCC3C[NH2+]C3)cc2n1C(=O)[O-]

>  <Energy>  (71) 
143.39778529352827

>  <Genealogy>  (71) 
[NH-]C(=O)c1cc2ccc(CCC3C[NH2+]C3)cc2n1C(=O)[O-] (protonated)
[NH-]C(=O)c1cc2ccc(CCC3C[NH2+]C3)cc2n1C(=O)[O-] (3D coordinates assigned)
[NH-]C(=O)c1cc2ccc(CCC3C[NH2+]C3)cc2n1C(=O)[O-] (nonaromatic ring conformer: 143.39778529352827 kcal/mol)

>  <smiles>  (71) 
NC(=O)c1cc2ccc(CCC3CNC3)cc2n1C(=O)O

>  <score_type>  (71) 
oracle

>  <origin>  (71) 
adg

>  <m_score__min__energy>  (71) 
-7.1299999999999999

>  <m_primary>  (71) 
energy

$$$$
71:0
     RDKit          3D

 39 40  0  0  0  0  0  0  0  0999 V2000
  148.9460  152.5000  132.8210 C   0  0  0  0  0  0  0  0  0  0  0  0
  147.8110  153.4270  132.7950 N   0  0  0  0  0  0  0  0  0  0  0  0
  146.4380  152.9380  132.9500 C   0  0  0  0  0  0  0  0  0  0  0  0
  148.0410  154.8360  132.6180 C   0  0  0  0  0  0  0  0  0  0  0  0
  149.2190  155.2710  132.5010 O   0  0  0  0  0  0  0  0  0  0  0  0
  146.9480  155.7130  132.5790 O   0  0  0  0  0  0  0  0  0  0  0  0
  146.4830  156.4770  133.6580 C   0  0  0  0  0  0  0  0  0  0  0  0
  146.3320  155.9580  134.7970 O   0  0  0  0  0  0  0  0  0  0  0  0
  146.1660  157.8650  133.4580 N   0  0  0  0  0  0  0  0  0  0  0  0
  147.0170  158.8680  133.1000 C   0  0  0  0  0  0  0  0  0  0  0  0
  148.4230  158.7020  132.6830 C   0  0  0  0  0  0  0  0  0  0  0  0
  148.8340  157.5880  131.8890 N   0  0  0  0  0  0  0  0  0  0  0  0
  149.2660  159.5880  132.9850 O   0  0  0  0  0  0  0  0  0  0  0  0
  146.3670  160.0980  133.1260 C   0  0  0  0  0  0  0  0  0  0  0  0
  145.0730  159.8180  133.5000 C   0  0  0  0  0  0  0  0  0  0  0  0
  143.9950  160.6750  133.7030 C   0  0  0  0  0  0  0  0  0  0  0  0
  142.7800  160.1160  134.1290 C   0  0  0  0  0  0  0  0  0  0  0  0
  142.6640  158.7200  134.3450 C   0  0  0  0  0  0  0  0  0  0  0  0
  141.3720  158.1390  134.8480 C   0  0  0  0  0  0  0  0  0  0  0  0
  141.1820  158.4870  136.2900 C   0  0  0  0  0  0  0  0  0  0  0  0
  139.9330  158.2290  136.9270 N   0  0  0  0  0  0  0  0  0  0  0  0
  142.1100  159.0470  136.9320 O   0  0  0  0  0  0  0  0  0  0  0  0
  143.7830  157.8830  134.1430 C   0  0  0  0  0  0  0  0  0  0  0  0
  144.9770  158.4630  133.6960 C   0  0  0  0  0  0  0  0  0  0  0  0
  149.2157  152.2797  133.8644 H   0  0  0  0  0  0  0  0  0  0  0  0
  148.6689  151.5667  132.3090 H   0  0  0  0  0  0  0  0  0  0  0  0
  149.8052  152.9579  132.3090 H   0  0  0  0  0  0  0  0  0  0  0  0
  146.1978  152.8525  134.0200 H   0  0  0  0  0  0  0  0  0  0  0  0
  145.7415  153.6434  132.4731 H   0  0  0  0  0  0  0  0  0  0  0  0
  146.3442  151.9512  132.4731 H   0  0  0  0  0  0  0  0  0  0  0  0
  149.8390  157.4680  131.6340 H   0  0  0  0  0  0  0  0  0  0  0  0
  148.1340  156.9280  131.4830 H   0  0  0  0  0  0  0  0  0  0  0  0
  146.7964  161.0844  132.8964 H   0  0  0  0  0  0  0  0  0  0  0  0
  144.0924  161.7577  133.5346 H   0  0  0  0  0  0  0  0  0  0  0  0
  141.9097  160.7674  134.2968 H   0  0  0  0  0  0  0  0  0  0  0  0
  140.5360  158.5477  134.2614 H   0  0  0  0  0  0  0  0  0  0  0  0
  141.4025  157.0446  134.7416 H   0  0  0  0  0  0  0  0  0  0  0  0
  139.2190  158.9840  137.0290 H   0  0  0  0  0  0  0  0  0  0  0  0
  143.7186  156.8013  134.3322 H   0  0  0  0  0  0  0  0  0  0  0  0
  1  2  1  0
  2  3  1  0
  2  4  1  0
  4  5  2  0
  4  6  1  0
  6  7  1  0
  7  8  2  0
  7  9  1  0
  9 10  1  0
 10 11  1  0
 11 12  1  0
 11 13  2  0
 10 14  2  0
 14 15  1  0
 15 16  2  0
 16 17  1  0
 17 18  2  0
 18 19  1  0
 19 20  1  0
 20 21  1  0
 20 22  2  0
 18 23  1  0
 23 24  2  0
 24  9  1  0
 24 15  1  0
  1 25  1  0
  1 26  1  0
  1 27  1  0
  3 28  1  0
  3 29  1  0
  3 30  1  0
 12 31  1  0
 12 32  1  0
 14 33  1  0
 16 34  1  0
 17 35  1  0
 19 36  1  0
 19 37  1  0
 21 38  1  0
 23 39  1  0
M  CHG  1  21  -1
M  END
>  <UniqueID>  (72) 
72

>  <SMILES>  (72) 
CN(C)C(=O)OC(=O)n1c(C(N)=O)cc2ccc(CC([NH-])=O)cc21

>  <Energy>  (72) 
72.85326632108641

>  <Genealogy>  (72) 
CN(C)C(=O)OC(=O)n1c(C(N)=O)cc2ccc(CC([NH-])=O)cc21 (protonated)
CN(C)C(=O)OC(=O)n1c(C(N)=O)cc2ccc(CC([NH-])=O)cc21 (3D coordinates assigned)
CN(C)C(=O)OC(=O)n1c(C(N)=O)cc2ccc(CC([NH-])=O)cc21 (optimized conformer: 72.85326632108641 kcal/mol)

>  <smiles>  (72) 
CN(C)C(=O)OC(=O)n1c(C(N)=O)cc2ccc(CC(N)=O)cc21

>  <score_type>  (72) 
oracle

>  <origin>  (72) 
adg

>  <m_score__min__energy>  (72) 
-6.9800000000000004

>  <m_primary>  (72) 
energy

$$$$
72:0
     RDKit          3D

 40 42  0  0  0  0  0  0  0  0999 V2000
  138.8030  157.7860  133.2770 C   0  0  0  0  0  0  0  0  0  0  0  0
  139.8480  157.1290  134.1340 C   0  0  0  0  0  0  0  0  0  0  0  0
  140.2630  157.7310  135.3330 C   0  0  0  0  0  0  0  0  0  0  0  0
  139.7600  158.9340  135.7140 F   0  0  0  0  0  0  0  0  0  0  0  0
  141.1980  157.0950  136.1520 C   0  0  0  0  0  0  0  0  0  0  0  0
  141.6070  157.6900  137.3000 F   0  0  0  0  0  0  0  0  0  0  0  0
  141.7220  155.8490  135.7920 C   0  0  0  0  0  0  0  0  0  0  0  0
  142.6660  155.2770  136.5830 F   0  0  0  0  0  0  0  0  0  0  0  0
  141.3020  155.2230  134.6040 C   0  0  0  0  0  0  0  0  0  0  0  0
  141.8440  153.9050  134.2090 C   0  0  0  0  0  0  0  0  0  0  0  0
  141.7500  152.9330  135.0070 O   0  0  0  0  0  0  0  0  0  0  0  0
  142.5720  153.7110  132.9090 C   0  0  0  0  0  0  0  0  0  0  0  0
  143.8620  154.4830  132.9240 C   0  0  0  0  0  0  0  0  0  0  0  0
  145.1000  153.8040  132.8170 C   0  0  0  0  0  0  0  0  0  0  0  0
  146.3120  154.5120  132.8820 C   0  0  0  0  0  0  0  0  0  0  0  0
  146.2530  155.8920  133.0530 C   0  0  0  0  0  0  0  0  0  0  0  0
  147.2700  156.8090  133.1870 C   0  0  0  0  0  0  0  0  0  0  0  0
  146.6380  158.0370  133.3560 C   0  0  0  0  0  0  0  0  0  0  0  0
  147.3670  159.3160  133.4710 C   0  0  0  0  0  0  0  0  0  0  0  0
  146.8680  160.5090  132.8680 N   0  0  0  0  0  0  0  0  0  0  0  0
  148.4810  159.3420  134.0610 O   0  0  0  0  0  0  0  0  0  0  0  0
  145.2820  157.8880  133.3440 N   0  0  0  0  0  0  0  0  0  0  0  0
  144.2890  158.8950  133.6000 C   0  0  0  0  0  0  0  0  0  0  0  0
  144.3180  159.9910  132.9790 O   0  0  0  0  0  0  0  0  0  0  0  0
  143.2840  158.6700  134.5320 O   0  0  0  0  0  0  0  0  0  0  0  0
  145.0620  156.5670  133.1520 C   0  0  0  0  0  0  0  0  0  0  0  0
  143.8410  155.8830  133.1120 C   0  0  0  0  0  0  0  0  0  0  0  0
  140.3630  155.8680  133.7780 C   0  0  0  0  0  0  0  0  0  0  0  0
  139.9310  155.2570  132.6450 F   0  0  0  0  0  0  0  0  0  0  0  0
  138.0473  158.2611  133.9198 H   0  0  0  0  0  0  0  0  0  0  0  0
  139.2764  158.5493  132.6419 H   0  0  0  0  0  0  0  0  0  0  0  0
  138.3203  157.0285  132.6419 H   0  0  0  0  0  0  0  0  0  0  0  0
  142.7886  152.6417  132.7685 H   0  0  0  0  0  0  0  0  0  0  0  0
  141.9422  154.0748  132.0838 H   0  0  0  0  0  0  0  0  0  0  0  0
  145.1130  152.7124  132.6818 H   0  0  0  0  0  0  0  0  0  0  0  0
  147.2777  153.9916  132.8003 H   0  0  0  0  0  0  0  0  0  0  0  0
  148.3522  156.6130  133.1652 H   0  0  0  0  0  0  0  0  0  0  0  0
  147.3840  161.4090  132.9830 H   0  0  0  0  0  0  0  0  0  0  0  0
  146.0400  160.4860  132.2330 H   0  0  0  0  0  0  0  0  0  0  0  0
  142.8889  156.4224  133.2242 H   0  0  0  0  0  0  0  0  0  0  0  0
  1  2  1  0
  2  3  2  0
  3  4  1  0
  3  5  1  0
  5  6  1  0
  5  7  2  0
  7  8  1  0
  7  9  1  0
  9 10  1  0
 10 11  2  0
 10 12  1  0
 12 13  1  0
 13 14  2  0
 14 15  1  0
 15 16  2  0
 16 17  1  0
 17 18  2  0
 18 19  1  0
 19 20  1  0
 19 21  2  0
 18 22  1  0
 22 23  1  0
 23 24  2  0
 23 25  1  0
 22 26  1  0
 26 27  2  0
  9 28  2  0
 28 29  1  0
 28  2  1  0
 27 13  1  0
 26 16  1  0
  1 30  1  0
  1 31  1  0
  1 32  1  0
 12 33  1  0
 12 34  1  0
 14 35  1  0
 15 36  1  0
 17 37  1  0
 20 38  1  0
 20 39  1  0
 27 40  1  0
M  CHG  1  25  -1
M  END
>  <UniqueID>  (73) 
73

>  <SMILES>  (73) 
Cc1c(F)c(F)c(F)c(C(=O)Cc2ccc3cc(C(N)=O)n(C(=O)[O-])c3c2)c1F

>  <Energy>  (73) 
87.32508631233031

>  <Genealogy>  (73) 
Cc1c(F)c(F)c(F)c(C(=O)Cc2ccc3cc(C(N)=O)n(C(=O)[O-])c3c2)c1F (protonated)
Cc1c(F)c(F)c(F)c(C(=O)Cc2ccc3cc(C(N)=O)n(C(=O)[O-])c3c2)c1F (3D coordinates assigned)
Cc1c(F)c(F)c(F)c(C(=O)Cc2ccc3cc(C(N)=O)n(C(=O)[O-])c3c2)c1F (optimized conformer: 87.32508631233031 kcal/mol)

>  <smiles>  (73) 
Cc1c(F)c(F)c(F)c(C(=O)Cc2ccc3cc(C(N)=O)n(C(=O)O)c3c2)c1F

>  <score_type>  (73) 
oracle

>  <origin>  (73) 
adg

>  <m_score__min__energy>  (73) 
-8.0999999999999996

>  <m_primary>  (73) 
energy

$$$$
73:0
     RDKit          3D

 59 61  0  0  0  0  0  0  0  0999 V2000
  142.4480  159.0650  135.2320 C   0  0  0  0  0  0  0  0  0  0  0  0
  141.5910  158.6530  134.0230 C   0  0  0  0  0  0  0  0  0  0  0  0
  142.4690  157.9060  133.0040 C   0  0  0  0  0  0  0  0  0  0  0  0
  140.9990  159.9120  133.3670 C   0  0  0  0  0  0  0  0  0  0  0  0
  140.1710  157.5360  134.6200 Si  0  0  0  0  0  4  0  0  0  0  0  0
  138.7960  157.5050  133.3450 C   0  0  0  0  0  0  0  0  0  0  0  0
  139.4760  158.1980  136.2340 C   0  0  0  0  0  0  0  0  0  0  0  0
  140.8390  155.9480  134.8710 O   0  0  0  0  0  0  0  0  0  0  0  0
  140.9910  155.2410  133.6580 C   0  0  0  0  0  0  0  0  0  0  0  0
  142.3050  154.4900  133.6230 C   0  0  0  0  0  0  0  0  0  0  0  0
  142.4770  153.4300  132.7240 C   0  0  0  0  0  0  0  0  0  0  0  0
  143.6860  152.7440  132.6740 C   0  0  0  0  0  0  0  0  0  0  0  0
  144.7280  153.1310  133.5140 C   0  0  0  0  0  0  0  0  0  0  0  0
  144.5790  154.1770  134.3830 N   0  0  0  0  0  0  0  0  0  0  0  0
  145.7290  154.5780  135.2120 C   0  0  0  0  0  0  0  0  0  0  0  0
  146.7290  155.3380  134.3820 C   0  0  0  0  0  0  0  0  0  0  0  0
  147.8220  154.6540  133.7930 C   0  0  0  0  0  0  0  0  0  0  0  0
  148.7350  155.3350  132.9730 C   0  0  0  0  0  0  0  0  0  0  0  0
  148.5300  156.6950  132.7600 C   0  0  0  0  0  0  0  0  0  0  0  0
  149.2430  157.5850  131.9900 C   0  0  0  0  0  0  0  0  0  0  0  0
  148.5860  158.8050  132.1330 C   0  0  0  0  0  0  0  0  0  0  0  0
  149.0760  160.0660  131.5380 C   0  0  0  0  0  0  0  0  0  0  0  0
  148.1450  161.0620  131.1190 N   0  0  0  0  0  0  0  0  0  0  0  0
  150.3070  160.2590  131.3580 O   0  0  0  0  0  0  0  0  0  0  0  0
  147.5050  158.6750  132.9540 N   0  0  0  0  0  0  0  0  0  0  0  0
  146.5360  159.6770  133.2980 C   0  0  0  0  0  0  0  0  0  0  0  0
  146.9080  160.8020  133.7250 O   0  0  0  0  0  0  0  0  0  0  0  0
  145.1770  159.4060  133.1980 O   0  0  0  0  0  0  0  0  0  0  0  0
  147.4870  157.3760  133.3320 C   0  0  0  0  0  0  0  0  0  0  0  0
  146.5520  156.7180  134.1380 C   0  0  0  0  0  0  0  0  0  0  0  0
  143.3920  154.8690  134.4400 C   0  0  0  0  0  0  0  0  0  0  0  0
  143.2680  155.8490  135.2260 O   0  0  0  0  0  0  0  0  0  0  0  0
  141.9176  158.8100  136.1613 H   0  0  0  0  0  0  0  0  0  0  0  0
  143.4088  158.5304  135.1996 H   0  0  0  0  0  0  0  0  0  0  0  0
  142.6305  160.1493  135.1996 H   0  0  0  0  0  0  0  0  0  0  0  0
  143.2014  157.2829  133.5382 H   0  0  0  0  0  0  0  0  0  0  0  0
  141.8347  157.2665  132.3726 H   0  0  0  0  0  0  0  0  0  0  0  0
  142.9987  158.6346  132.3726 H   0  0  0  0  0  0  0  0  0  0  0  0
  140.6697  160.6124  134.1487 H   0  0  0  0  0  0  0  0  0  0  0  0
  141.7647  160.3942  132.7416 H   0  0  0  0  0  0  0  0  0  0  0  0
  140.1392  159.6298  132.7416 H   0  0  0  0  0  0  0  0  0  0  0  0
  137.8223  157.4831  133.8563 H   0  0  0  0  0  0  0  0  0  0  0  0
  138.8594  158.4048  132.7154 H   0  0  0  0  0  0  0  0  0  0  0  0
  138.8999  156.6090  132.7154 H   0  0  0  0  0  0  0  0  0  0  0  0
  139.9857  157.7125  137.0792 H   0  0  0  0  0  0  0  0  0  0  0  0
  139.6370  159.2850  136.2841 H   0  0  0  0  0  0  0  0  0  0  0  0
  138.3981  157.9843  136.2841 H   0  0  0  0  0  0  0  0  0  0  0  0
  140.1643  154.5226  133.5554 H   0  0  0  0  0  0  0  0  0  0  0  0
  140.9812  155.9646  132.8295 H   0  0  0  0  0  0  0  0  0  0  0  0
  141.6534  153.1390  132.0554 H   0  0  0  0  0  0  0  0  0  0  0  0
  143.8183  151.9032  131.9772 H   0  0  0  0  0  0  0  0  0  0  0  0
  145.6839  152.5879  133.4780 H   0  0  0  0  0  0  0  0  0  0  0  0
  145.3781  155.2185  136.0346 H   0  0  0  0  0  0  0  0  0  0  0  0
  146.2109  153.6761  135.6173 H   0  0  0  0  0  0  0  0  0  0  0  0
  147.9560  153.5784  133.9806 H   0  0  0  0  0  0  0  0  0  0  0  0
  149.5856  154.8105  132.5133 H   0  0  0  0  0  0  0  0  0  0  0  0
  150.1408  157.3773  131.3893 H   0  0  0  0  0  0  0  0  0  0  0  0
  147.5730  161.5890  131.8160 H   0  0  0  0  0  0  0  0  0  0  0  0
  145.6997  157.2620  134.5712 H   0  0  0  0  0  0  0  0  0  0  0  0
  1  2  1  0
  2  3  1  0
  2  4  1  0
  2  5  1  0
  5  6  1  0
  5  7  1  0
  5  8  1  0
  8  9  1  0
  9 10  1  0
 10 11  2  0
 11 12  1  0
 12 13  2  0
 13 14  1  0
 14 15  1  0
 15 16  1  0
 16 17  2  0
 17 18  1  0
 18 19  2  0
 19 20  1  0
 20 21  2  0
 21 22  1  0
 22 23  1  0
 22 24  2  0
 21 25  1  0
 25 26  1  0
 26 27  2  0
 26 28  1  0
 25 29  1  0
 29 30  2  0
 14 31  1  0
 31 32  2  0
 31 10  1  0
 30 16  1  0
 29 19  1  0
  1 33  1  0
  1 34  1  0
  1 35  1  0
  3 36  1  0
  3 37  1  0
  3 38  1  0
  4 39  1  0
  4 40  1  0
  4 41  1  0
  6 42  1  0
  6 43  1  0
  6 44  1  0
  7 45  1  0
  7 46  1  0
  7 47  1  0
  9 48  1  0
  9 49  1  0
 11 50  1  0
 12 51  1  0
 13 52  1  0
 15 53  1  0
 15 54  1  0
 17 55  1  0
 18 56  1  0
 20 57  1  0
 23 58  1  0
 30 59  1  0
M  CHG  2  23  -1  28  -1
M  END
>  <UniqueID>  (74) 
74

>  <SMILES>  (74) 
CC(C)(C)[Si](C)(C)OCc1cccn(Cc2ccc3cc(C([NH-])=O)n(C(=O)[O-])c3c2)c1=O

>  <Energy>  (74) 
86.12396152057084

>  <Genealogy>  (74) 
CC(C)(C)[Si](C)(C)OCc1cccn(Cc2ccc3cc(C([NH-])=O)n(C(=O)[O-])c3c2)c1=O (protonated)
CC(C)(C)[Si](C)(C)OCc1cccn(Cc2ccc3cc(C([NH-])=O)n(C(=O)[O-])c3c2)c1=O (3D coordinates assigned)
CC(C)(C)[Si](C)(C)OCc1cccn(Cc2ccc3cc(C([NH-])=O)n(C(=O)[O-])c3c2)c1=O (optimized conformer: 86.12396152057084 kcal/mol)

>  <smiles>  (74) 
CC(C)(C)[Si](C)(C)OCc1cccn(Cc2ccc3cc(C(N)=O)n(C(=O)O)c3c2)c1=O

>  <score_type>  (74) 
oracle

>  <origin>  (74) 
adg

>  <m_score__min__energy>  (74) 
-8.7200000000000006

>  <m_primary>  (74) 
energy

$$$$
74:0
     RDKit          3D

 54 58  0  0  0  0  0  0  0  0999 V2000
  144.3670  162.9020  133.7380 C   0  0  0  0  0  0  0  0  0  0  0  0
  144.0490  161.5660  134.1140 O   0  0  0  0  0  0  0  0  0  0  0  0
  144.7840  160.4370  133.7220 C   0  0  0  0  0  0  0  0  0  0  0  0
  144.1690  159.1840  133.4760 C   0  0  0  0  0  0  0  0  0  0  0  0
  144.9330  158.0700  133.0920 C   0  0  0  0  0  0  0  0  0  0  0  0
  146.3250  158.2050  132.9670 C   0  0  0  0  0  0  0  0  0  0  0  0
  146.9150  159.4420  133.2040 C   0  0  0  0  0  0  0  0  0  0  0  0
  148.5790  159.3270  132.9990 S   0  0  0  0  0  0  0  0  0  0  0  0
  148.4840  157.6870  132.6180 C   0  0  0  0  0  0  0  0  0  0  0  0
  149.4900  156.9730  132.3580 O   0  0  0  0  0  0  0  0  0  0  0  0
  147.2090  157.2120  132.6330 N   0  0  0  0  0  0  0  0  0  0  0  0
  146.8810  155.7970  132.4060 C   0  0  0  0  0  0  0  0  0  0  0  0
  146.2250  155.2090  133.6290 C   0  0  0  0  0  0  0  0  0  0  0  0
  146.9610  155.0400  134.8290 C   0  0  0  0  0  0  0  0  0  0  0  0
  146.3480  154.5110  135.9780 C   0  0  0  0  0  0  0  0  0  0  0  0
  145.0030  154.1630  135.8980 C   0  0  0  0  0  0  0  0  0  0  0  0
  144.1560  153.6630  136.8620 C   0  0  0  0  0  0  0  0  0  0  0  0
  142.9200  153.5240  136.2320 C   0  0  0  0  0  0  0  0  0  0  0  0
  141.7350  152.9340  136.8880 C   0  0  0  0  0  0  0  0  0  0  0  0
  141.0760  153.6100  137.9560 N   0  0  0  0  0  0  0  0  0  0  0  0
  141.2690  151.8400  136.4680 O   0  0  0  0  0  0  0  0  0  0  0  0
  142.9960  153.9330  134.9340 N   0  0  0  0  0  0  0  0  0  0  0  0
  141.9270  154.0600  133.9830 C   0  0  0  0  0  0  0  0  0  0  0  0
  141.2500  153.0470  133.6570 O   0  0  0  0  0  0  0  0  0  0  0  0
  141.6170  155.3170  133.4500 O   0  0  0  0  0  0  0  0  0  0  0  0
  140.5480  156.1300  133.9270 C   0  0  0  0  0  0  0  0  0  0  0  0
  140.9160  156.7440  135.2430 C   0  0  0  0  0  0  0  0  0  0  0  0
  141.1240  156.0630  136.3460 O   0  0  0  0  0  0  0  0  0  0  0  0
  141.4260  156.9520  137.2660 C   0  0  0  0  0  0  0  0  0  0  0  0
  141.6940  156.6570  138.4600 O   0  0  0  0  0  0  0  0  0  0  0  0
  141.4200  158.1810  136.8030 O   0  0  0  0  0  0  0  0  0  0  0  0
  141.1020  158.0850  135.5330 C   0  0  0  0  0  0  0  0  0  0  0  0
  140.9740  159.2450  134.6010 C   0  0  0  0  0  0  0  0  0  0  0  0
  144.2790  154.3110  134.7440 C   0  0  0  0  0  0  0  0  0  0  0  0
  144.8620  154.8440  133.5900 C   0  0  0  0  0  0  0  0  0  0  0  0
  146.1750  160.5620  133.5770 C   0  0  0  0  0  0  0  0  0  0  0  0
  146.7900  161.7490  133.8070 F   0  0  0  0  0  0  0  0  0  0  0  0
  144.5123  163.5124  134.6415 H   0  0  0  0  0  0  0  0  0  0  0  0
  145.2909  162.9049  133.1410 H   0  0  0  0  0  0  0  0  0  0  0  0
  143.5435  163.3208  133.1410 H   0  0  0  0  0  0  0  0  0  0  0  0
  143.0793  159.0828  133.5873 H   0  0  0  0  0  0  0  0  0  0  0  0
  144.4470  157.1037  132.8916 H   0  0  0  0  0  0  0  0  0  0  0  0
  146.1932  155.7166  131.5513 H   0  0  0  0  0  0  0  0  0  0  0  0
  147.8086  155.2439  132.1969 H   0  0  0  0  0  0  0  0  0  0  0  0
  148.0227  155.3258  134.8612 H   0  0  0  0  0  0  0  0  0  0  0  0
  146.9140  154.3763  136.9116 H   0  0  0  0  0  0  0  0  0  0  0  0
  144.4023  153.4240  137.9071 H   0  0  0  0  0  0  0  0  0  0  0  0
  141.0370  154.6520  137.9880 H   0  0  0  0  0  0  0  0  0  0  0  0
  140.3442  156.9278  133.1976 H   0  0  0  0  0  0  0  0  0  0  0  0
  139.6520  155.5057  134.0589 H   0  0  0  0  0  0  0  0  0  0  0  0
  140.8716  160.1731  135.1826 H   0  0  0  0  0  0  0  0  0  0  0  0
  141.8708  159.3067  133.9670 H   0  0  0  0  0  0  0  0  0  0  0  0
  140.0853  159.1096  133.9670 H   0  0  0  0  0  0  0  0  0  0  0  0
  144.2711  154.9760  132.6716 H   0  0  0  0  0  0  0  0  0  0  0  0
  1  2  1  0
  2  3  1  0
  3  4  2  0
  4  5  1  0
  5  6  2  0
  6  7  1  0
  7  8  1  0
  8  9  1  0
  9 10  2  0
  9 11  1  0
 11 12  1  0
 12 13  1  0
 13 14  2  0
 14 15  1  0
 15 16  2  0
 16 17  1  0
 17 18  2  0
 18 19  1  0
 19 20  1  0
 19 21  2  0
 18 22  1  0
 22 23  1  0
 23 24  2  0
 23 25  1  0
 25 26  1  0
 26 27  1  0
 27 28  1  0
 28 29  1  0
 29 30  2  0
 29 31  1  0
 31 32  1  0
 32 33  1  0
 22 34  1  0
 34 35  2  0
  7 36  2  0
 36 37  1  0
 36  3  1  0
 11  6  1  0
 35 13  1  0
 34 16  1  0
 32 27  2  0
  1 38  1  0
  1 39  1  0
  1 40  1  0
  4 41  1  0
  5 42  1  0
 12 43  1  0
 12 44  1  0
 14 45  1  0
 15 46  1  0
 17 47  1  0
 20 48  1  0
 26 49  1  0
 26 50  1  0
 33 51  1  0
 33 52  1  0
 33 53  1  0
 35 54  1  0
M  CHG  1  20  -1
M  END
>  <UniqueID>  (75) 
75

>  <SMILES>  (75) 
COc1ccc2c(sc(=O)n2Cc2ccc3cc(C([NH-])=O)n(C(=O)OCc4oc(=O)oc4C)c3c2)c1F

>  <Energy>  (75) 
164.1380689044402

>  <Genealogy>  (75) 
COc1ccc2c(sc(=O)n2Cc2ccc3cc(C([NH-])=O)n(C(=O)OCc4oc(=O)oc4C)c3c2)c1F (protonated)
COc1ccc2c(sc(=O)n2Cc2ccc3cc(C([NH-])=O)n(C(=O)OCc4oc(=O)oc4C)c3c2)c1F (3D coordinates assigned)
COc1ccc2c(sc(=O)n2Cc2ccc3cc(C([NH-])=O)n(C(=O)OCc4oc(=O)oc4C)c3c2)c1F (optimized conformer: 164.1380689044402 kcal/mol)

>  <smiles>  (75) 
COc1ccc2c(sc(=O)n2Cc2ccc3cc(C(N)=O)n(C(=O)OCc4oc(=O)oc4C)c3c2)c1F

>  <score_type>  (75) 
oracle

>  <origin>  (75) 
adg

>  <m_score__min__energy>  (75) 
-8.5899999999999999

>  <m_primary>  (75) 
energy

$$$$
75:0
     RDKit          3D

 33 34  0  0  0  0  0  0  0  0999 V2000
  145.1020  163.1110  134.1970 C   0  0  0  0  0  0  0  0  0  0  0  0
  145.1070  161.8040  134.4540 C   0  0  0  0  0  0  0  0  0  0  0  0
  144.1000  160.8810  133.8950 C   0  0  0  0  0  0  0  0  0  0  0  0
  142.9710  161.3120  133.5330 O   0  0  0  0  0  0  0  0  0  0  0  0
  144.4040  159.4850  133.7550 N   0  0  0  0  0  0  0  0  0  0  0  0
  143.6010  158.4250  134.0560 C   0  0  0  0  0  0  0  0  0  0  0  0
  142.1930  158.5060  134.5010 C   0  0  0  0  0  0  0  0  0  0  0  0
  141.8030  159.4930  135.4520 N   0  0  0  0  0  0  0  0  0  0  0  0
  141.3320  157.6970  134.0650 O   0  0  0  0  0  0  0  0  0  0  0  0
  144.2720  157.2260  133.8290 C   0  0  0  0  0  0  0  0  0  0  0  0
  145.5210  157.5860  133.3770 C   0  0  0  0  0  0  0  0  0  0  0  0
  146.6040  156.7930  133.0070 C   0  0  0  0  0  0  0  0  0  0  0  0
  147.7850  157.4390  132.6010 C   0  0  0  0  0  0  0  0  0  0  0  0
  147.8670  158.8530  132.5920 C   0  0  0  0  0  0  0  0  0  0  0  0
  149.1290  159.5340  132.1330 C   0  0  0  0  0  0  0  0  0  0  0  0
  148.8050  160.8810  131.4820 C   0  0  0  0  0  0  0  0  0  0  0  0
  149.5280  161.0220  130.1810 C   0  0  0  0  0  0  0  0  0  0  0  0
  149.6050  162.1440  129.6160 O   0  0  0  0  0  0  0  0  0  0  0  0
  150.0760  159.9030  129.5650 O   0  0  0  0  0  0  0  0  0  0  0  0
  146.7450  159.6250  132.9650 C   0  0  0  0  0  0  0  0  0  0  0  0
  145.5760  158.9550  133.3440 C   0  0  0  0  0  0  0  0  0  0  0  0
  145.8733  163.7608  134.6362 H   0  0  0  0  0  0  0  0  0  0  0  0
  144.3266  163.5405  133.5456 H   0  0  0  0  0  0  0  0  0  0  0  0
  145.8920  161.3968  135.1082 H   0  0  0  0  0  0  0  0  0  0  0  0
  141.9180  160.5100  135.2500 H   0  0  0  0  0  0  0  0  0  0  0  0
  143.8856  156.2071  133.9792 H   0  0  0  0  0  0  0  0  0  0  0  0
  146.5377  155.6953  133.0316 H   0  0  0  0  0  0  0  0  0  0  0  0
  148.6532  156.8408  132.2875 H   0  0  0  0  0  0  0  0  0  0  0  0
  149.7866  159.6994  132.9991 H   0  0  0  0  0  0  0  0  0  0  0  0
  149.6304  158.8927  131.3931 H   0  0  0  0  0  0  0  0  0  0  0  0
  147.7216  160.9450  131.3027 H   0  0  0  0  0  0  0  0  0  0  0  0
  149.1264  161.6883  132.1566 H   0  0  0  0  0  0  0  0  0  0  0  0
  146.7885  160.7241  132.9579 H   0  0  0  0  0  0  0  0  0  0  0  0
  1  2  2  0
  2  3  1  0
  3  4  2  0
  3  5  1  0
  5  6  1  0
  6  7  1  0
  7  8  1  0
  7  9  2  0
  6 10  2  0
 10 11  1  0
 11 12  2  0
 12 13  1  0
 13 14  2  0
 14 15  1  0
 15 16  1  0
 16 17  1  0
 17 18  2  0
 17 19  1  0
 14 20  1  0
 20 21  2  0
 21  5  1  0
 21 11  1  0
  1 22  1  0
  1 23  1  0
  2 24  1  0
  8 25  1  0
 10 26  1  0
 12 27  1  0
 13 28  1  0
 15 29  1  0
 15 30  1  0
 16 31  1  0
 16 32  1  0
 20 33  1  0
M  CHG  2   8  -1  19  -1
M  END
>  <UniqueID>  (76) 
76

>  <SMILES>  (76) 
C=CC(=O)n1c(C([NH-])=O)cc2ccc(CCC(=O)[O-])cc21

>  <Energy>  (76) 
67.26495258819227

>  <Genealogy>  (76) 
C=CC(=O)n1c(C([NH-])=O)cc2ccc(CCC(=O)[O-])cc21 (protonated)
C=CC(=O)n1c(C([NH-])=O)cc2ccc(CCC(=O)[O-])cc21 (3D coordinates assigned)
C=CC(=O)n1c(C([NH-])=O)cc2ccc(CCC(=O)[O-])cc21 (optimized conformer: 67.26495258819227 kcal/mol)

>  <smiles>  (76) 
C=CC(=O)n1c(C(N)=O)cc2ccc(CCC(=O)O)cc21

>  <score_type>  (76) 
oracle

>  <origin>  (76) 
adg

>  <m_score__min__energy>  (76) 
-6.8899999999999997

>  <m_primary>  (76) 
energy

$$$$
76:0
     RDKit          3D

 40 42  0  0  0  0  0  0  0  0999 V2000
  146.2040  151.9880  132.4770 C   0  0  0  0  0  0  0  0  0  0  0  0
  147.3140  152.9530  132.7360 C   0  0  0  0  0  0  0  0  0  0  0  0
  148.4530  152.9710  132.0840 O   0  0  0  0  0  0  0  0  0  0  0  0
  149.1500  153.9550  132.6060 C   0  0  0  0  0  0  0  0  0  0  0  0
  150.3060  154.2700  132.2240 O   0  0  0  0  0  0  0  0  0  0  0  0
  148.5080  154.5730  133.5700 O   0  0  0  0  0  0  0  0  0  0  0  0
  147.3480  153.9680  133.6770 C   0  0  0  0  0  0  0  0  0  0  0  0
  146.2820  154.3480  134.6580 C   0  0  0  0  0  0  0  0  0  0  0  0
  145.9390  155.7240  134.5070 O   0  0  0  0  0  0  0  0  0  0  0  0
  145.9900  156.3990  133.2820 C   0  0  0  0  0  0  0  0  0  0  0  0
  145.9400  155.7560  132.1980 O   0  0  0  0  0  0  0  0  0  0  0  0
  146.0790  157.8330  133.2610 N   0  0  0  0  0  0  0  0  0  0  0  0
  147.1950  158.5900  133.0550 C   0  0  0  0  0  0  0  0  0  0  0  0
  148.5190  158.0730  132.6450 C   0  0  0  0  0  0  0  0  0  0  0  0
  148.6760  156.7150  132.2330 N   0  0  0  0  0  0  0  0  0  0  0  0
  149.5310  158.8220  132.6900 O   0  0  0  0  0  0  0  0  0  0  0  0
  146.8970  159.9450  133.1900 C   0  0  0  0  0  0  0  0  0  0  0  0
  145.5540  159.9960  133.4850 C   0  0  0  0  0  0  0  0  0  0  0  0
  144.7360  161.0930  133.7390 C   0  0  0  0  0  0  0  0  0  0  0  0
  143.3870  160.8510  134.0510 C   0  0  0  0  0  0  0  0  0  0  0  0
  142.8850  159.5260  134.1000 C   0  0  0  0  0  0  0  0  0  0  0  0
  141.4520  159.2780  134.4810 C   0  0  0  0  0  0  0  0  0  0  0  0
  141.3680  158.8460  135.9100 C   0  0  0  0  0  0  0  0  0  0  0  0
  141.6400  157.6580  136.2290 O   0  0  0  0  0  0  0  0  0  0  0  0
  141.0410  159.7660  136.8970 O   0  0  0  0  0  0  0  0  0  0  0  0
  143.7480  158.4370  133.8490 C   0  0  0  0  0  0  0  0  0  0  0  0
  145.0830  158.7090  133.5230 C   0  0  0  0  0  0  0  0  0  0  0  0
  145.7957  151.6331  133.4348 H   0  0  0  0  0  0  0  0  0  0  0  0
  145.4101  152.4879  131.9027 H   0  0  0  0  0  0  0  0  0  0  0  0
  146.5886  151.1323  131.9027 H   0  0  0  0  0  0  0  0  0  0  0  0
  145.3893  153.7299  134.4816 H   0  0  0  0  0  0  0  0  0  0  0  0
  146.6588  154.1828  135.6782 H   0  0  0  0  0  0  0  0  0  0  0  0
  147.8540  156.0800  132.1340 H   0  0  0  0  0  0  0  0  0  0  0  0
  149.6220  156.3490  131.9830 H   0  0  0  0  0  0  0  0  0  0  0  0
  147.5888  160.7936  133.0833 H   0  0  0  0  0  0  0  0  0  0  0  0
  145.1330  162.1180  133.6969 H   0  0  0  0  0  0  0  0  0  0  0  0
  142.7151  161.6968  134.2589 H   0  0  0  0  0  0  0  0  0  0  0  0
  140.8741  160.2042  134.3463 H   0  0  0  0  0  0  0  0  0  0  0  0
  141.0411  158.4841  133.8400 H   0  0  0  0  0  0  0  0  0  0  0  0
  143.3814  157.4015  133.9079 H   0  0  0  0  0  0  0  0  0  0  0  0
  1  2  1  0
  2  3  1  0
  3  4  1  0
  4  5  2  0
  4  6  1  0
  6  7  1  0
  7  8  1  0
  8  9  1  0
  9 10  1  0
 10 11  2  0
 10 12  1  0
 12 13  1  0
 13 14  1  0
 14 15  1  0
 14 16  2  0
 13 17  2  0
 17 18  1  0
 18 19  2  0
 19 20  1  0
 20 21  2  0
 21 22  1  0
 22 23  1  0
 23 24  2  0
 23 25  1  0
 21 26  1  0
 26 27  2  0
  7  2  2  0
 27 12  1  0
 27 18  1  0
  1 28  1  0
  1 29  1  0
  1 30  1  0
  8 31  1  0
  8 32  1  0
 15 33  1  0
 15 34  1  0
 17 35  1  0
 19 36  1  0
 20 37  1  0
 22 38  1  0
 22 39  1  0
 26 40  1  0
M  CHG  1  25  -1
M  END
>  <UniqueID>  (77) 
77

>  <SMILES>  (77) 
Cc1oc(=O)oc1COC(=O)n1c(C(N)=O)cc2ccc(CC(=O)[O-])cc21

>  <Energy>  (77) 
108.51118631424445

>  <Genealogy>  (77) 
Cc1oc(=O)oc1COC(=O)n1c(C(N)=O)cc2ccc(CC(=O)[O-])cc21 (protonated)
Cc1oc(=O)oc1COC(=O)n1c(C(N)=O)cc2ccc(CC(=O)[O-])cc21 (3D coordinates assigned)
Cc1oc(=O)oc1COC(=O)n1c(C(N)=O)cc2ccc(CC(=O)[O-])cc21 (optimized conformer: 108.51118631424445 kcal/mol)

>  <smiles>  (77) 
Cc1oc(=O)oc1COC(=O)n1c(C(N)=O)cc2ccc(CC(=O)O)cc21

>  <score_type>  (77) 
oracle

>  <origin>  (77) 
adg

>  <m_score__min__energy>  (77) 
-7.4299999999999997

>  <m_primary>  (77) 
energy

$$$$
77:0
     RDKit          3D

 51 52  0  0  0  0  0  0  0  0999 V2000
  143.6780  156.2550  134.7820 C   0  0  0  0  0  0  0  0  0  0  0  0
  143.7110  155.0080  135.5780 N   0  0  0  0  0  0  0  0  0  0  0  0
  144.9940  154.3250  135.3040 C   0  0  0  0  0  0  0  0  0  0  0  0
  142.4820  154.1340  135.4530 C   0  0  0  0  0  0  0  0  0  0  0  0
  142.8100  152.7740  134.7630 C   0  0  0  0  0  0  0  0  0  0  0  0
  141.3550  154.7970  134.6140 C   0  0  0  0  0  0  0  0  0  0  0  0
  141.9610  153.7400  136.8730 C   0  0  0  0  0  0  0  0  0  0  0  0
  141.5620  154.8690  137.7790 C   0  0  0  0  0  0  0  0  0  0  0  0
  140.4370  154.8430  138.3510 O   0  0  0  0  0  0  0  0  0  0  0  0
  142.4730  155.9530  138.0240 N   0  0  0  0  0  0  0  0  0  0  0  0
  142.3220  156.8650  139.1580 C   0  0  0  0  0  0  0  0  0  0  0  0
  141.9080  158.2620  138.6810 C   0  0  0  0  0  0  0  0  0  0  0  0
  141.1300  158.1950  137.3910 C   0  0  0  0  0  0  0  0  0  0  0  0
  139.8780  157.5350  137.3510 C   0  0  0  0  0  0  0  0  0  0  0  0
  139.1100  157.5280  136.1740 C   0  0  0  0  0  0  0  0  0  0  0  0
  139.6100  158.2060  135.0660 C   0  0  0  0  0  0  0  0  0  0  0  0
  139.0720  158.3640  133.8090 C   0  0  0  0  0  0  0  0  0  0  0  0
  139.9900  159.1460  133.1100 C   0  0  0  0  0  0  0  0  0  0  0  0
  139.7580  159.6380  131.7360 C   0  0  0  0  0  0  0  0  0  0  0  0
  138.6490  160.4930  131.4690 N   0  0  0  0  0  0  0  0  0  0  0  0
  140.5510  159.3440  130.8040 O   0  0  0  0  0  0  0  0  0  0  0  0
  141.0580  159.4530  133.9010 N   0  0  0  0  0  0  0  0  0  0  0  0
  142.2400  160.1850  133.5360 C   0  0  0  0  0  0  0  0  0  0  0  0
  143.3260  159.5820  133.3330 O   0  0  0  0  0  0  0  0  0  0  0  0
  142.1880  161.5640  133.3730 O   0  0  0  0  0  0  0  0  0  0  0  0
  140.8100  158.8690  135.0940 C   0  0  0  0  0  0  0  0  0  0  0  0
  141.6080  158.8650  136.2430 C   0  0  0  0  0  0  0  0  0  0  0  0
  143.6551  157.1217  135.4590 H   0  0  0  0  0  0  0  0  0  0  0  0
  144.5750  156.3089  134.1476 H   0  0  0  0  0  0  0  0  0  0  0  0
  142.7794  156.2614  134.1476 H   0  0  0  0  0  0  0  0  0  0  0  0
  145.4817  154.0654  136.2552 H   0  0  0  0  0  0  0  0  0  0  0  0
  144.8052  153.4080  134.7265 H   0  0  0  0  0  0  0  0  0  0  0  0
  145.6493  154.9936  134.7265 H   0  0  0  0  0  0  0  0  0  0  0  0
  142.9947  152.0084  135.5309 H   0  0  0  0  0  0  0  0  0  0  0  0
  141.9602  152.4667  134.1358 H   0  0  0  0  0  0  0  0  0  0  0  0
  143.7064  152.8879  134.1358 H   0  0  0  0  0  0  0  0  0  0  0  0
  140.6063  155.2375  135.2888 H   0  0  0  0  0  0  0  0  0  0  0  0
  141.7858  155.5856  133.9796 H   0  0  0  0  0  0  0  0  0  0  0  0
  140.8750  154.0374  133.9796 H   0  0  0  0  0  0  0  0  0  0  0  0
  141.0815  153.0932  136.7384 H   0  0  0  0  0  0  0  0  0  0  0  0
  142.8137  153.2554  137.3711 H   0  0  0  0  0  0  0  0  0  0  0  0
  143.3650  155.9950  137.4820 H   0  0  0  0  0  0  0  0  0  0  0  0
  141.5505  156.4722  139.8366 H   0  0  0  0  0  0  0  0  0  0  0  0
  143.2873  156.9420  139.6798 H   0  0  0  0  0  0  0  0  0  0  0  0
  141.2813  158.7325  139.4529 H   0  0  0  0  0  0  0  0  0  0  0  0
  142.8196  158.8519  138.5051 H   0  0  0  0  0  0  0  0  0  0  0  0
  139.5030  157.0230  138.2494 H   0  0  0  0  0  0  0  0  0  0  0  0
  138.1442  157.0033  136.1298 H   0  0  0  0  0  0  0  0  0  0  0  0
  138.1199  157.9592  133.4354 H   0  0  0  0  0  0  0  0  0  0  0  0
  138.3810  161.2490  132.1390 H   0  0  0  0  0  0  0  0  0  0  0  0
  142.5844  159.3715  136.2523 H   0  0  0  0  0  0  0  0  0  0  0  0
  1  2  1  0
  2  3  1  0
  2  4  1  0
  4  5  1  0
  4  6  1  0
  4  7  1  0
  7  8  1  0
  8  9  2  0
  8 10  1  0
 10 11  1  0
 11 12  1  0
 12 13  1  0
 13 14  2  0
 14 15  1  0
 15 16  2  0
 16 17  1  0
 17 18  2  0
 18 19  1  0
 19 20  1  0
 19 21  2  0
 18 22  1  0
 22 23  1  0
 23 24  2  0
 23 25  1  0
 22 26  1  0
 26 27  2  0
 27 13  1  0
 26 16  1  0
  1 28  1  0
  1 29  1  0
  1 30  1  0
  3 31  1  0
  3 32  1  0
  3 33  1  0
  5 34  1  0
  5 35  1  0
  5 36  1  0
  6 37  1  0
  6 38  1  0
  6 39  1  0
  7 40  1  0
  7 41  1  0
 10 42  1  0
 11 43  1  0
 11 44  1  0
 12 45  1  0
 12 46  1  0
 14 47  1  0
 15 48  1  0
 17 49  1  0
 20 50  1  0
 27 51  1  0
M  CHG  2  20  -1  25  -1
M  END
>  <UniqueID>  (78) 
78

>  <SMILES>  (78) 
CN(C)C(C)(C)CC(=O)NCCc1ccc2cc(C([NH-])=O)n(C(=O)[O-])c2c1

>  <Energy>  (78) 
95.76844822886123

>  <Genealogy>  (78) 
CN(C)C(C)(C)CC(=O)NCCc1ccc2cc(C([NH-])=O)n(C(=O)[O-])c2c1 (protonated)
CN(C)C(C)(C)CC(=O)NCCc1ccc2cc(C([NH-])=O)n(C(=O)[O-])c2c1 (3D coordinates assigned)
CN(C)C(C)(C)CC(=O)NCCc1ccc2cc(C([NH-])=O)n(C(=O)[O-])c2c1 (optimized conformer: 95.76844822886123 kcal/mol)

>  <smiles>  (78) 
CN(C)C(C)(C)CC(=O)NCCc1ccc2cc(C(N)=O)n(C(=O)O)c2c1

>  <score_type>  (78) 
oracle

>  <origin>  (78) 
adg

>  <m_score__min__energy>  (78) 
-8.0999999999999996

>  <m_primary>  (78) 
energy

$$$$
78:0
     RDKit          3D

 33 34  0  0  0  0  0  0  0  0999 V2000
  146.6450  155.9140  132.4270 C   0  0  0  0  0  0  0  0  0  0  0  0
  146.9440  156.9510  133.4630 C   0  0  0  0  0  0  0  0  0  0  0  0
  147.7720  156.6840  134.3750 O   0  0  0  0  0  0  0  0  0  0  0  0
  146.3270  158.2480  133.4150 N   0  0  0  0  0  0  0  0  0  0  0  0
  146.9150  159.4500  133.1570 C   0  0  0  0  0  0  0  0  0  0  0  0
  148.3020  159.6520  132.6930 C   0  0  0  0  0  0  0  0  0  0  0  0
  149.3950  158.9700  133.3110 N   0  0  0  0  0  0  0  0  0  0  0  0
  148.5210  160.3960  131.7000 O   0  0  0  0  0  0  0  0  0  0  0  0
  146.0070  160.4900  133.3310 C   0  0  0  0  0  0  0  0  0  0  0  0
  144.8250  159.8830  133.6900 C   0  0  0  0  0  0  0  0  0  0  0  0
  143.5850  160.4410  133.9900 C   0  0  0  0  0  0  0  0  0  0  0  0
  142.5430  159.5720  134.3560 C   0  0  0  0  0  0  0  0  0  0  0  0
  142.7620  158.1740  134.4300 C   0  0  0  0  0  0  0  0  0  0  0  0
  141.6310  157.2480  134.8040 C   0  0  0  0  0  0  0  0  0  0  0  0
  140.4280  158.0190  135.3610 C   0  0  0  0  0  0  0  0  0  0  0  0
  140.6030  158.3600  136.8130 C   0  0  0  0  0  0  0  0  0  0  0  0
  140.8890  159.4970  137.1510 O   0  0  0  0  0  0  0  0  0  0  0  0
  144.0310  157.6430  134.1130 C   0  0  0  0  0  0  0  0  0  0  0  0
  145.0450  158.5300  133.7340 C   0  0  0  0  0  0  0  0  0  0  0  0
  146.3728  154.9698  132.9213 H   0  0  0  0  0  0  0  0  0  0  0  0
  145.8082  156.2537  131.7990 H   0  0  0  0  0  0  0  0  0  0  0  0
  147.5342  155.7561  131.7990 H   0  0  0  0  0  0  0  0  0  0  0  0
  149.2320  158.2210  134.0180 H   0  0  0  0  0  0  0  0  0  0  0  0
  150.3730  159.1570  132.9970 H   0  0  0  0  0  0  0  0  0  0  0  0
  146.1939  161.5670  133.2079 H   0  0  0  0  0  0  0  0  0  0  0  0
  143.4260  161.5284  133.9420 H   0  0  0  0  0  0  0  0  0  0  0  0
  141.5483  159.9808  134.5872 H   0  0  0  0  0  0  0  0  0  0  0  0
  141.3148  156.6918  133.9092 H   0  0  0  0  0  0  0  0  0  0  0  0
  141.9920  156.5638  135.5860 H   0  0  0  0  0  0  0  0  0  0  0  0
  140.3075  158.9509  134.7891 H   0  0  0  0  0  0  0  0  0  0  0  0
  139.5395  157.3774  135.2669 H   0  0  0  0  0  0  0  0  0  0  0  0
  140.4725  157.5795  137.5770 H   0  0  0  0  0  0  0  0  0  0  0  0
  144.2180  156.5602  134.1626 H   0  0  0  0  0  0  0  0  0  0  0  0
  1  2  1  0
  2  3  2  0
  2  4  1  0
  4  5  1  0
  5  6  1  0
  6  7  1  0
  6  8  2  0
  5  9  2  0
  9 10  1  0
 10 11  2  0
 11 12  1  0
 12 13  2  0
 13 14  1  0
 14 15  1  0
 15 16  1  0
 16 17  2  0
 13 18  1  0
 18 19  2  0
 19  4  1  0
 19 10  1  0
  1 20  1  0
  1 21  1  0
  1 22  1  0
  7 23  1  0
  7 24  1  0
  9 25  1  0
 11 26  1  0
 12 27  1  0
 14 28  1  0
 14 29  1  0
 15 30  1  0
 15 31  1  0
 16 32  1  0
 18 33  1  0
M  END
>  <UniqueID>  (79) 
79

>  <SMILES>  (79) 
CC(=O)n1c(C(N)=O)cc2ccc(CCC=O)cc21

>  <Energy>  (79) 
68.27050059617301

>  <Genealogy>  (79) 
CC(=O)n1c(C(N)=O)cc2ccc(CCC=O)cc21 (3D coordinates assigned)
CC(=O)n1c(C(N)=O)cc2ccc(CCC=O)cc21 (optimized conformer: 68.27050059617301 kcal/mol)

>  <smiles>  (79) 
CC(=O)n1c(C(N)=O)cc2ccc(CCC=O)cc21

>  <score_type>  (79) 
oracle

>  <origin>  (79) 
adg

>  <m_score__min__energy>  (79) 
-6.4100000000000001

>  <m_primary>  (79) 
energy

$$$$
79:0
     RDKit          3D

 35 36  0  0  0  0  0  0  0  0999 V2000
  139.4800  156.9590  133.3200 C   0  0  0  0  0  0  0  0  0  0  0  0
  139.5190  158.3240  132.7840 N   0  0  0  0  0  0  0  0  0  0  0  0
  138.6020  158.7150  131.7090 C   0  0  0  0  0  0  0  0  0  0  0  0
  140.4530  159.3020  133.2960 C   0  0  0  0  0  0  0  0  0  0  0  0
  140.4700  160.4630  132.8040 O   0  0  0  0  0  0  0  0  0  0  0  0
  141.3970  158.9980  134.4310 C   0  0  0  0  0  0  0  0  0  0  0  0
  142.8080  159.4020  134.0890 C   0  0  0  0  0  0  0  0  0  0  0  0
  143.1660  160.7730  134.0340 C   0  0  0  0  0  0  0  0  0  0  0  0
  144.4830  161.1570  133.7360 C   0  0  0  0  0  0  0  0  0  0  0  0
  145.4190  160.1560  133.4980 C   0  0  0  0  0  0  0  0  0  0  0  0
  146.7630  160.2490  133.2240 C   0  0  0  0  0  0  0  0  0  0  0  0
  147.2040  158.9370  133.0960 C   0  0  0  0  0  0  0  0  0  0  0  0
  148.5910  158.5800  132.7350 C   0  0  0  0  0  0  0  0  0  0  0  0
  148.8680  157.4800  131.8670 N   0  0  0  0  0  0  0  0  0  0  0  0
  149.5430  159.2910  133.1520 O   0  0  0  0  0  0  0  0  0  0  0  0
  146.1800  158.0600  133.2980 N   0  0  0  0  0  0  0  0  0  0  0  0
  146.2630  156.6260  133.3680 C   0  0  0  0  0  0  0  0  0  0  0  0
  146.6210  155.9570  132.3630 O   0  0  0  0  0  0  0  0  0  0  0  0
  145.9420  155.9620  134.5460 O   0  0  0  0  0  0  0  0  0  0  0  0
  145.0900  158.8240  133.5390 C   0  0  0  0  0  0  0  0  0  0  0  0
  143.7890  158.4120  133.8540 C   0  0  0  0  0  0  0  0  0  0  0  0
  139.4811  156.9966  134.4194 H   0  0  0  0  0  0  0  0  0  0  0  0
  138.5671  156.4541  132.9713 H   0  0  0  0  0  0  0  0  0  0  0  0
  140.3626  156.4028  132.9713 H   0  0  0  0  0  0  0  0  0  0  0  0
  137.6732  159.1110  132.1453 H   0  0  0  0  0  0  0  0  0  0  0  0
  139.0747  159.4898  131.0875 H   0  0  0  0  0  0  0  0  0  0  0  0
  138.3702  157.8375  131.0875 H   0  0  0  0  0  0  0  0  0  0  0  0
  141.0724  159.5501  135.3254 H   0  0  0  0  0  0  0  0  0  0  0  0
  141.3804  157.9140  134.6172 H   0  0  0  0  0  0  0  0  0  0  0  0
  142.4044  161.5430  134.2267 H   0  0  0  0  0  0  0  0  0  0  0  0
  144.7666  162.2189  133.6920 H   0  0  0  0  0  0  0  0  0  0  0  0
  147.3620  161.1665  133.1267 H   0  0  0  0  0  0  0  0  0  0  0  0
  149.8560  157.2190  131.6500 H   0  0  0  0  0  0  0  0  0  0  0  0
  148.0990  156.9740  131.3740 H   0  0  0  0  0  0  0  0  0  0  0  0
  143.5366  157.3432  133.9170 H   0  0  0  0  0  0  0  0  0  0  0  0
  1  2  1  0
  2  3  1  0
  2  4  1  0
  4  5  2  0
  4  6  1  0
  6  7  1  0
  7  8  2  0
  8  9  1  0
  9 10  2  0
 10 11  1  0
 11 12  2  0
 12 13  1  0
 13 14  1  0
 13 15  2  0
 12 16  1  0
 16 17  1  0
 17 18  2  0
 17 19  1  0
 16 20  1  0
 20 21  2  0
 21  7  1  0
 20 10  1  0
  1 22  1  0
  1 23  1  0
  1 24  1  0
  3 25  1  0
  3 26  1  0
  3 27  1  0
  6 28  1  0
  6 29  1  0
  8 30  1  0
  9 31  1  0
 11 32  1  0
 14 33  1  0
 14 34  1  0
 21 35  1  0
M  CHG  1  19  -1
M  END
>  <UniqueID>  (80) 
80

>  <SMILES>  (80) 
CN(C)C(=O)Cc1ccc2cc(C(N)=O)n(C(=O)[O-])c2c1

>  <Energy>  (80) 
71.58635614501394

>  <Genealogy>  (80) 
CN(C)C(=O)Cc1ccc2cc(C(N)=O)n(C(=O)[O-])c2c1 (protonated)
CN(C)C(=O)Cc1ccc2cc(C(N)=O)n(C(=O)[O-])c2c1 (3D coordinates assigned)
CN(C)C(=O)Cc1ccc2cc(C(N)=O)n(C(=O)[O-])c2c1 (optimized conformer: 71.58635614501394 kcal/mol)

>  <smiles>  (80) 
CN(C)C(=O)Cc1ccc2cc(C(N)=O)n(C(=O)O)c2c1

>  <score_type>  (80) 
oracle

>  <origin>  (80) 
adg

>  <m_score__min__energy>  (80) 
-6.6100000000000003

>  <m_primary>  (80) 
energy

$$$$
80:0
     RDKit          3D

 36 37  0  0  0  0  0  0  0  0999 V2000
  149.6130  151.0660  133.5560 C   0  0  0  0  0  0  0  0  0  0  0  0
  149.2990  151.9230  132.3300 C   0  0  0  0  0  0  0  0  0  0  0  0
  148.2340  152.9860  132.6260 C   0  0  0  0  0  0  0  0  0  0  0  0
  148.8390  154.3510  132.8220 C   0  0  0  0  0  0  0  0  0  0  0  0
  150.0400  154.5460  132.4960 O   0  0  0  0  0  0  0  0  0  0  0  0
  148.0670  155.4270  133.3830 N   0  0  0  0  0  0  0  0  0  0  0  0
  147.0970  155.3480  134.3390 C   0  0  0  0  0  0  0  0  0  0  0  0
  146.5890  154.1090  134.9660 C   0  0  0  0  0  0  0  0  0  0  0  0
  145.6350  153.3030  134.2770 N   0  0  0  0  0  0  0  0  0  0  0  0
  146.9940  153.7440  136.1020 O   0  0  0  0  0  0  0  0  0  0  0  0
  146.5980  156.6160  134.6330 C   0  0  0  0  0  0  0  0  0  0  0  0
  147.3040  157.4820  133.8310 C   0  0  0  0  0  0  0  0  0  0  0  0
  147.2290  158.8670  133.7270 C   0  0  0  0  0  0  0  0  0  0  0  0
  148.1070  159.5100  132.8390 C   0  0  0  0  0  0  0  0  0  0  0  0
  149.0500  158.7630  132.0900 C   0  0  0  0  0  0  0  0  0  0  0  0
  149.9780  159.4640  131.1370 C   0  0  0  0  0  0  0  0  0  0  0  0
  149.2250  160.4780  130.3360 C   0  0  0  0  0  0  0  0  0  0  0  0
  149.6310  161.8430  130.3540 N   0  0  0  0  0  0  0  0  0  0  0  0
  148.2120  160.1320  129.6710 O   0  0  0  0  0  0  0  0  0  0  0  0
  149.0940  157.3580  132.2190 C   0  0  0  0  0  0  0  0  0  0  0  0
  148.1900  156.7410  133.0920 C   0  0  0  0  0  0  0  0  0  0  0  0
  149.4021  151.6415  134.4694 H   0  0  0  0  0  0  0  0  0  0  0  0
  148.9881  150.1609  133.5405 H   0  0  0  0  0  0  0  0  0  0  0  0
  150.6748  150.7788  133.5405 H   0  0  0  0  0  0  0  0  0  0  0  0
  150.2211  152.4262  132.0035 H   0  0  0  0  0  0  0  0  0  0  0  0
  148.9064  151.2599  131.5450 H   0  0  0  0  0  0  0  0  0  0  0  0
  147.5295  153.0276  131.7822 H   0  0  0  0  0  0  0  0  0  0  0  0
  147.7222  152.7040  133.5580 H   0  0  0  0  0  0  0  0  0  0  0  0
  145.9220  152.4170  133.8040 H   0  0  0  0  0  0  0  0  0  0  0  0
  145.8070  156.8702  135.3539 H   0  0  0  0  0  0  0  0  0  0  0  0
  146.5040  159.4414  134.3223 H   0  0  0  0  0  0  0  0  0  0  0  0
  148.0622  160.6030  132.7239 H   0  0  0  0  0  0  0  0  0  0  0  0
  150.7720  159.9681  131.7075 H   0  0  0  0  0  0  0  0  0  0  0  0
  150.4193  158.7227  130.4545 H   0  0  0  0  0  0  0  0  0  0  0  0
  150.5490  162.1240  130.7650 H   0  0  0  0  0  0  0  0  0  0  0  0
  149.8210  156.7623  131.6474 H   0  0  0  0  0  0  0  0  0  0  0  0
  1  2  1  0
  2  3  1  0
  3  4  1  0
  4  5  2  0
  4  6  1  0
  6  7  1  0
  7  8  1  0
  8  9  1  0
  8 10  2  0
  7 11  2  0
 11 12  1  0
 12 13  2  0
 13 14  1  0
 14 15  2  0
 15 16  1  0
 16 17  1  0
 17 18  1  0
 17 19  2  0
 15 20  1  0
 20 21  2  0
 21  6  1  0
 21 12  1  0
  1 22  1  0
  1 23  1  0
  1 24  1  0
  2 25  1  0
  2 26  1  0
  3 27  1  0
  3 28  1  0
  9 29  1  0
 11 30  1  0
 13 31  1  0
 14 32  1  0
 16 33  1  0
 16 34  1  0
 18 35  1  0
 20 36  1  0
M  CHG  2   9  -1  18  -1
M  END
>  <UniqueID>  (81) 
81

>  <SMILES>  (81) 
CCCC(=O)n1c(C([NH-])=O)cc2ccc(CC([NH-])=O)cc21

>  <Energy>  (81) 
67.81129958024557

>  <Genealogy>  (81) 
CCCC(=O)n1c(C([NH-])=O)cc2ccc(CC([NH-])=O)cc21 (protonated)
CCCC(=O)n1c(C([NH-])=O)cc2ccc(CC([NH-])=O)cc21 (3D coordinates assigned)
CCCC(=O)n1c(C([NH-])=O)cc2ccc(CC([NH-])=O)cc21 (optimized conformer: 67.81129958024557 kcal/mol)

>  <smiles>  (81) 
CCCC(=O)n1c(C(N)=O)cc2ccc(CC(N)=O)cc21

>  <score_type>  (81) 
oracle

>  <origin>  (81) 
adg

>  <m_score__min__energy>  (81) 
-7.1699999999999999

>  <m_primary>  (81) 
energy

$$$$
81:0
     RDKit          3D

 34 35  0  0  0  0  0  0  0  0999 V2000
  141.0000  159.3310  133.8250 C   0  0  0  0  0  0  0  0  0  0  0  0
  141.7350  158.5560  134.9150 C   0  0  0  0  0  0  0  0  0  0  0  0
  141.2140  158.9530  136.3000 C   0  0  0  0  0  0  0  0  0  0  0  0
  143.1340  158.8310  134.8130 O   0  0  0  0  0  0  0  0  0  0  0  0
  143.8870  158.6000  133.6560 C   0  0  0  0  0  0  0  0  0  0  0  0
  143.3850  157.9730  132.6830 O   0  0  0  0  0  0  0  0  0  0  0  0
  145.2270  159.1090  133.5660 N   0  0  0  0  0  0  0  0  0  0  0  0
  145.6270  160.4110  133.6130 C   0  0  0  0  0  0  0  0  0  0  0  0
  144.7750  161.5680  133.9550 C   0  0  0  0  0  0  0  0  0  0  0  0
  143.3690  161.5350  133.7270 N   0  0  0  0  0  0  0  0  0  0  0  0
  145.2870  162.5810  134.5020 O   0  0  0  0  0  0  0  0  0  0  0  0
  146.9950  160.5130  133.3740 C   0  0  0  0  0  0  0  0  0  0  0  0
  147.4290  159.2200  133.1840 C   0  0  0  0  0  0  0  0  0  0  0  0
  148.7020  158.7370  132.8970 C   0  0  0  0  0  0  0  0  0  0  0  0
  148.8560  157.3530  132.7180 C   0  0  0  0  0  0  0  0  0  0  0  0
  147.7420  156.4830  132.8210 C   0  0  0  0  0  0  0  0  0  0  0  0
  147.9080  155.0050  132.6110 C   0  0  0  0  0  0  0  0  0  0  0  0
  147.5140  154.3260  133.7490 F   0  0  0  0  0  0  0  0  0  0  0  0
  149.2350  154.7180  132.3440 F   0  0  0  0  0  0  0  0  0  0  0  0
  146.4640  157.0100  133.1110 C   0  0  0  0  0  0  0  0  0  0  0  0
  146.3430  158.3920  133.3040 C   0  0  0  0  0  0  0  0  0  0  0  0
  140.3137  160.0547  134.2890 H   0  0  0  0  0  0  0  0  0  0  0  0
  141.7299  159.8665  133.2002 H   0  0  0  0  0  0  0  0  0  0  0  0
  140.4266  158.6304  133.2002 H   0  0  0  0  0  0  0  0  0  0  0  0
  141.5586  157.4784  134.7820 H   0  0  0  0  0  0  0  0  0  0  0  0
  141.8350  158.4798  137.0749 H   0  0  0  0  0  0  0  0  0  0  0  0
  141.2608  160.0465  136.4098 H   0  0  0  0  0  0  0  0  0  0  0  0
  140.1721  158.6178  136.4098 H   0  0  0  0  0  0  0  0  0  0  0  0
  142.8630  160.6270  133.6240 H   0  0  0  0  0  0  0  0  0  0  0  0
  147.6002  161.4310  133.3434 H   0  0  0  0  0  0  0  0  0  0  0  0
  149.5613  159.4186  132.8129 H   0  0  0  0  0  0  0  0  0  0  0  0
  149.8510  156.9399  132.4957 H   0  0  0  0  0  0  0  0  0  0  0  0
  147.2856  154.6898  131.7606 H   0  0  0  0  0  0  0  0  0  0  0  0
  145.5858  156.3516  133.1834 H   0  0  0  0  0  0  0  0  0  0  0  0
  1  2  1  0
  2  3  1  0
  2  4  1  0
  4  5  1  0
  5  6  2  0
  5  7  1  0
  7  8  1  0
  8  9  1  0
  9 10  1  0
  9 11  2  0
  8 12  2  0
 12 13  1  0
 13 14  2  0
 14 15  1  0
 15 16  2  0
 16 17  1  0
 17 18  1  0
 17 19  1  0
 16 20  1  0
 20 21  2  0
 21  7  1  0
 21 13  1  0
  1 22  1  0
  1 23  1  0
  1 24  1  0
  2 25  1  0
  3 26  1  0
  3 27  1  0
  3 28  1  0
 10 29  1  0
 12 30  1  0
 14 31  1  0
 15 32  1  0
 17 33  1  0
 20 34  1  0
M  CHG  1  10  -1
M  END
>  <UniqueID>  (82) 
82

>  <SMILES>  (82) 
CC(C)OC(=O)n1c(C([NH-])=O)cc2ccc(C(F)F)cc21

>  <Energy>  (82) 
66.66589442433042

>  <Genealogy>  (82) 
CC(C)OC(=O)n1c(C([NH-])=O)cc2ccc(C(F)F)cc21 (protonated)
CC(C)OC(=O)n1c(C([NH-])=O)cc2ccc(C(F)F)cc21 (3D coordinates assigned)
CC(C)OC(=O)n1c(C([NH-])=O)cc2ccc(C(F)F)cc21 (optimized conformer: 66.66589442433042 kcal/mol)

>  <smiles>  (82) 
CC(C)OC(=O)n1c(C(N)=O)cc2ccc(C(F)F)cc21

>  <score_type>  (82) 
oracle

>  <origin>  (82) 
adg

>  <m_score__min__energy>  (82) 
-6.0099999999999998

>  <m_primary>  (82) 
energy

$$$$
82:0
     RDKit          3D

 35 37  0  0  0  0  0  0  0  0999 V2000
  145.6950  153.3940  133.5240 C   0  0  0  0  0  0  0  0  0  0  0  0
  147.1020  153.3100  133.1390 N   0  0  0  0  0  0  0  0  0  0  0  0
  147.7350  152.1650  132.9300 N   0  0  0  0  0  0  0  0  0  0  0  0
  149.0050  152.4230  132.5630 C   0  0  0  0  0  0  0  0  0  0  0  0
  149.1790  153.7910  132.5450 C   0  0  0  0  0  0  0  0  0  0  0  0
  150.3230  154.4580  132.2530 F   0  0  0  0  0  0  0  0  0  0  0  0
  147.9650  154.3320  132.9280 C   0  0  0  0  0  0  0  0  0  0  0  0
  147.6660  155.7740  133.0650 C   0  0  0  0  0  0  0  0  0  0  0  0
  148.7100  156.7340  133.0450 C   0  0  0  0  0  0  0  0  0  0  0  0
  148.4270  158.1060  133.1570 C   0  0  0  0  0  0  0  0  0  0  0  0
  147.0950  158.4890  133.2810 C   0  0  0  0  0  0  0  0  0  0  0  0
  146.5360  159.7430  133.3920 C   0  0  0  0  0  0  0  0  0  0  0  0
  145.1600  159.5270  133.4750 C   0  0  0  0  0  0  0  0  0  0  0  0
  144.1680  160.6080  133.6600 C   0  0  0  0  0  0  0  0  0  0  0  0
  142.7930  160.4030  133.3490 N   0  0  0  0  0  0  0  0  0  0  0  0
  144.5360  161.7210  134.1210 O   0  0  0  0  0  0  0  0  0  0  0  0
  144.8850  158.1950  133.4090 N   0  0  0  0  0  0  0  0  0  0  0  0
  143.6030  157.5530  133.4140 C   0  0  0  0  0  0  0  0  0  0  0  0
  142.8810  157.6040  132.3820 O   0  0  0  0  0  0  0  0  0  0  0  0
  143.0630  156.9200  134.6600 C   0  0  0  0  0  0  0  0  0  0  0  0
  144.0320  156.1040  135.2130 F   0  0  0  0  0  0  0  0  0  0  0  0
  141.9430  156.1590  134.3760 F   0  0  0  0  0  0  0  0  0  0  0  0
  142.7220  157.9020  135.5720 F   0  0  0  0  0  0  0  0  0  0  0  0
  146.0760  157.5740  133.2960 C   0  0  0  0  0  0  0  0  0  0  0  0
  146.3250  156.2040  133.1800 C   0  0  0  0  0  0  0  0  0  0  0  0
  145.6147  153.3988  134.6211 H   0  0  0  0  0  0  0  0  0  0  0  0
  145.2591  154.3198  133.1204 H   0  0  0  0  0  0  0  0  0  0  0  0
  145.1520  152.5267  133.1204 H   0  0  0  0  0  0  0  0  0  0  0  0
  147.3070  151.2180  133.0280 H   0  0  0  0  0  0  0  0  0  0  0  0
  149.7712  151.6722  132.3196 H   0  0  0  0  0  0  0  0  0  0  0  0
  149.7531  156.4008  132.9406 H   0  0  0  0  0  0  0  0  0  0  0  0
  149.2335  158.8540  133.1469 H   0  0  0  0  0  0  0  0  0  0  0  0
  147.0622  160.7088  133.4111 H   0  0  0  0  0  0  0  0  0  0  0  0
  142.5050  159.7270  132.6080 H   0  0  0  0  0  0  0  0  0  0  0  0
  145.4980  155.4786  133.1782 H   0  0  0  0  0  0  0  0  0  0  0  0
  1  2  1  0
  2  3  1  0
  3  4  2  0
  4  5  1  0
  5  6  1  0
  5  7  2  0
  7  8  1  0
  8  9  2  0
  9 10  1  0
 10 11  2  0
 11 12  1  0
 12 13  2  0
 13 14  1  0
 14 15  1  0
 14 16  2  0
 13 17  1  0
 17 18  1  0
 18 19  2  0
 18 20  1  0
 20 21  1  0
 20 22  1  0
 20 23  1  0
 17 24  1  0
 24 25  2  0
  7  2  1  0
 25  8  1  0
 24 11  1  0
  1 26  1  0
  1 27  1  0
  1 28  1  0
  3 29  1  0
  4 30  1  0
  9 31  1  0
 10 32  1  0
 12 33  1  0
 15 34  1  0
 25 35  1  0
M  CHG  2   3   1  15  -1
M  END
>  <UniqueID>  (83) 
83

>  <SMILES>  (83) 
Cn1[nH+]cc(F)c1-c1ccc2cc(C([NH-])=O)n(C(=O)C(F)(F)F)c2c1

>  <Energy>  (83) 
113.75930146528084

>  <Genealogy>  (83) 
Cn1[nH+]cc(F)c1-c1ccc2cc(C([NH-])=O)n(C(=O)C(F)(F)F)c2c1 (protonated)
Cn1[nH+]cc(F)c1-c1ccc2cc(C([NH-])=O)n(C(=O)C(F)(F)F)c2c1 (3D coordinates assigned)
Cn1[nH+]cc(F)c1-c1ccc2cc(C([NH-])=O)n(C(=O)C(F)(F)F)c2c1 (optimized conformer: 113.75930146528084 kcal/mol)

>  <smiles>  (83) 
Cn1ncc(F)c1-c1ccc2cc(C(N)=O)n(C(=O)C(F)(F)F)c2c1

>  <score_type>  (83) 
oracle

>  <origin>  (83) 
adg

>  <m_score__min__energy>  (83) 
-6.5

>  <m_primary>  (83) 
energy

$$$$
83:0
     RDKit          3D

 57 59  0  0  0  0  0  0  0  0999 V2000
  141.7370  154.9590  135.8700 C   0  0  0  0  0  0  0  0  0  0  0  0
  140.9540  155.1060  134.6930 O   0  0  0  0  0  0  0  0  0  0  0  0
  141.0180  154.2060  133.6260 C   0  0  0  0  0  0  0  0  0  0  0  0
  139.9930  153.9720  132.9300 O   0  0  0  0  0  0  0  0  0  0  0  0
  142.2500  153.5250  133.3400 N   0  0  0  0  0  0  0  0  0  0  0  0
  142.4520  152.1850  133.1810 C   0  0  0  0  0  0  0  0  0  0  0  0
  141.3990  151.1480  133.1340 C   0  0  0  0  0  0  0  0  0  0  0  0
  140.4070  151.1910  132.1100 N   0  0  0  0  0  0  0  0  0  0  0  0
  141.3430  150.2440  134.0080 O   0  0  0  0  0  0  0  0  0  0  0  0
  143.8040  151.9150  132.9820 C   0  0  0  0  0  0  0  0  0  0  0  0
  144.4300  153.1400  133.0190 C   0  0  0  0  0  0  0  0  0  0  0  0
  145.7770  153.4600  132.8900 C   0  0  0  0  0  0  0  0  0  0  0  0
  146.1470  154.8100  132.9980 C   0  0  0  0  0  0  0  0  0  0  0  0
  145.1730  155.8140  133.2400 C   0  0  0  0  0  0  0  0  0  0  0  0
  145.5770  157.2380  133.3660 C   0  0  0  0  0  0  0  0  0  0  0  0
  146.9310  157.6040  133.2830 C   0  0  0  0  0  0  0  0  0  0  0  0
  147.3170  158.9500  133.3800 C   0  0  0  0  0  0  0  0  0  0  0  0
  148.7660  159.3330  133.2960 C   0  0  0  0  0  0  0  0  0  0  0  0
  146.3410  159.9360  133.5910 C   0  0  0  0  0  0  0  0  0  0  0  0
  146.7030  161.2390  133.7050 F   0  0  0  0  0  0  0  0  0  0  0  0
  144.9890  159.5870  133.7000 C   0  0  0  0  0  0  0  0  0  0  0  0
  144.0500  160.6100  133.9010 O   0  0  0  0  0  0  0  0  0  0  0  0
  142.6640  160.4300  134.0080 C   0  0  0  0  0  0  0  0  0  0  0  0
  141.8660  161.1890  133.3930 O   0  0  0  0  0  0  0  0  0  0  0  0
  142.1660  159.3310  134.7810 N   0  0  0  0  0  0  0  0  0  0  0  0
  140.7370  159.0700  134.9870 C   0  0  2  0  0  0  0  0  0  0  0  0
  140.5730  158.2720  136.2500 C   0  0  0  0  0  0  0  0  0  0  0  0
  139.4250  157.9440  136.6550 O   0  0  0  0  0  0  0  0  0  0  0  0
  141.6930  157.8830  136.9760 O   0  0  0  0  0  0  0  0  0  0  0  0
  140.1390  158.3330  133.7570 C   0  0  0  0  0  0  0  0  0  0  0  0
  139.4240  159.3080  132.8080 C   0  0  0  0  0  0  0  0  0  0  0  0
  141.2330  157.5790  132.9840 C   0  0  0  0  0  0  0  0  0  0  0  0
  144.6100  158.2400  133.5670 C   0  0  0  0  0  0  0  0  0  0  0  0
  143.8130  155.4450  133.3660 C   0  0  0  0  0  0  0  0  0  0  0  0
  143.4710  154.0950  133.2360 C   0  0  0  0  0  0  0  0  0  0  0  0
  141.0949  155.0795  136.7550 H   0  0  0  0  0  0  0  0  0  0  0  0
  142.1953  153.9591  135.8830 H   0  0  0  0  0  0  0  0  0  0  0  0
  142.5268  155.7246  135.8830 H   0  0  0  0  0  0  0  0  0  0  0  0
  139.9320  152.0860  131.8600 H   0  0  0  0  0  0  0  0  0  0  0  0
  144.2719  150.9315  132.8280 H   0  0  0  0  0  0  0  0  0  0  0  0
  146.5300  152.6789  132.7088 H   0  0  0  0  0  0  0  0  0  0  0  0
  147.2048  155.0933  132.8938 H   0  0  0  0  0  0  0  0  0  0  0  0
  147.6968  156.8273  133.1405 H   0  0  0  0  0  0  0  0  0  0  0  0
  149.1760  159.4414  134.3110 H   0  0  0  0  0  0  0  0  0  0  0  0
  149.3214  158.5508  132.7578 H   0  0  0  0  0  0  0  0  0  0  0  0
  148.8624  160.2875  132.7578 H   0  0  0  0  0  0  0  0  0  0  0  0
  142.8610  158.7150  135.2600 H   0  0  0  0  0  0  0  0  0  0  0  0
  140.1876  160.0172  135.0920 H   0  0  0  0  0  0  0  0  0  0  0  0
  139.4023  157.6117  134.1404 H   0  0  0  0  0  0  0  0  0  0  0  0
  138.8748  160.0569  133.3974 H   0  0  0  0  0  0  0  0  0  0  0  0
  140.1670  159.8135  132.1737 H   0  0  0  0  0  0  0  0  0  0  0  0
  138.7185  158.7513  132.1737 H   0  0  0  0  0  0  0  0  0  0  0  0
  141.9234  157.1032  133.6960 H   0  0  0  0  0  0  0  0  0  0  0  0
  140.7696  156.8076  132.3514 H   0  0  0  0  0  0  0  0  0  0  0  0
  141.7889  158.2866  132.3514 H   0  0  0  0  0  0  0  0  0  0  0  0
  143.5459  157.9663  133.6207 H   0  0  0  0  0  0  0  0  0  0  0  0
  143.0410  156.2037  133.5620 H   0  0  0  0  0  0  0  0  0  0  0  0
  1  2  1  0
  2  3  1  0
  3  4  2  0
  3  5  1  0
  5  6  1  0
  6  7  1  0
  7  8  1  0
  7  9  2  0
  6 10  2  0
 10 11  1  0
 11 12  2  0
 12 13  1  0
 13 14  2  0
 14 15  1  0
 15 16  2  0
 16 17  1  0
 17 18  1  0
 17 19  2  0
 19 20  1  0
 19 21  1  0
 21 22  1  0
 22 23  1  0
 23 24  2  0
 23 25  1  0
 25 26  1  0
 26 27  1  0
 27 28  2  0
 27 29  1  0
 26 30  1  0
 30 31  1  0
 30 32  1  0
 21 33  2  0
 14 34  1  0
 34 35  2  0
 35  5  1  0
 35 11  1  0
 33 15  1  0
  1 36  1  0
  1 37  1  0
  1 38  1  0
  8 39  1  0
 10 40  1  0
 12 41  1  0
 13 42  1  0
 16 43  1  0
 18 44  1  0
 18 45  1  0
 18 46  1  0
 25 47  1  0
 26 48  1  1
 30 49  1  0
 31 50  1  0
 31 51  1  0
 31 52  1  0
 32 53  1  0
 32 54  1  0
 32 55  1  0
 33 56  1  0
 34 57  1  0
M  CHG  2   8  -1  29  -1
M  END
>  <UniqueID>  (84) 
84

>  <SMILES>  (84) 
COC(=O)n1c(C([NH-])=O)cc2ccc(-c3cc(C)c(F)c(OC(=O)N[C@H](C(=O)[O-])C(C)C)c3)cc21

>  <Energy>  (84) 
99.39317189995764

>  <Genealogy>  (84) 
COC(=O)n1c(C([NH-])=O)cc2ccc(-c3cc(C)c(F)c(OC(=O)N[C@H](C(=O)[O-])C(C)C)c3)cc21 (protonated)
COC(=O)n1c(C([NH-])=O)cc2ccc(-c3cc(C)c(F)c(OC(=O)N[C@H](C(=O)[O-])C(C)C)c3)cc21 (3D coordinates assigned)
COC(=O)n1c(C([NH-])=O)cc2ccc(-c3cc(C)c(F)c(OC(=O)N[C@H](C(=O)[O-])C(C)C)c3)cc21 (optimized conformer: 99.39317189995764 kcal/mol)

>  <smiles>  (84) 
COC(=O)n1c(C(N)=O)cc2ccc(-c3cc(C)c(F)c(OC(=O)N[C@H](C(=O)O)C(C)C)c3)cc21

>  <score_type>  (84) 
oracle

>  <origin>  (84) 
adg

>  <m_score__min__energy>  (84) 
-9.8900000000000006

>  <m_primary>  (84) 
energy

$$$$
84:0
     RDKit          3D

 38 39  0  0  0  0  0  0  0  0999 V2000
  145.0380  152.6350  132.8750 C   0  0  0  0  0  0  0  0  0  0  0  0
  145.3430  153.8460  133.6650 N   0  0  2  0  0  0  0  0  0  0  0  0
  144.4000  154.0280  134.8070 C   0  0  0  0  0  0  0  0  0  0  0  0
  145.0300  154.1010  136.2180 C   0  0  0  0  0  0  0  0  0  0  0  0
  146.5170  153.9710  136.2120 C   0  0  0  0  0  0  0  0  0  0  0  0
  147.0690  152.9910  136.7750 O   0  0  0  0  0  0  0  0  0  0  0  0
  147.2970  154.9640  135.6340 O   0  0  0  0  0  0  0  0  0  0  0  0
  145.5110  155.0160  132.8090 C   0  0  0  0  0  0  0  0  0  0  0  0
  144.6700  155.2380  131.8920 O   0  0  0  0  0  0  0  0  0  0  0  0
  146.6970  155.8370  132.8500 N   0  0  0  0  0  0  0  0  0  0  0  0
  147.9980  155.4150  132.8760 C   0  0  0  0  0  0  0  0  0  0  0  0
  148.4770  154.0130  132.8150 C   0  0  0  0  0  0  0  0  0  0  0  0
  147.8300  152.9680  133.5340 N   0  0  0  0  0  0  0  0  0  0  0  0
  149.4870  153.7340  132.1130 O   0  0  0  0  0  0  0  0  0  0  0  0
  148.8630  156.5010  132.9830 C   0  0  0  0  0  0  0  0  0  0  0  0
  148.0550  157.6080  133.0670 C   0  0  0  0  0  0  0  0  0  0  0  0
  148.3970  158.9460  133.2420 C   0  0  0  0  0  0  0  0  0  0  0  0
  147.3560  159.8780  133.3680 C   0  0  0  0  0  0  0  0  0  0  0  0
  146.0040  159.4590  133.3360 C   0  0  0  0  0  0  0  0  0  0  0  0
  144.9060  160.4700  133.5070 C   0  0  0  0  0  0  0  0  0  0  0  0
  143.7920  159.8560  134.0500 F   0  0  0  0  0  0  0  0  0  0  0  0
  145.3270  161.4810  134.3520 F   0  0  0  0  0  0  0  0  0  0  0  0
  145.6970  158.0910  133.1670 C   0  0  0  0  0  0  0  0  0  0  0  0
  146.7540  157.1830  133.0070 C   0  0  0  0  0  0  0  0  0  0  0  0
  144.8269  151.7969  133.5554 H   0  0  0  0  0  0  0  0  0  0  0  0
  144.1591  152.8227  132.2408 H   0  0  0  0  0  0  0  0  0  0  0  0
  145.9010  152.3840  132.2408 H   0  0  0  0  0  0  0  0  0  0  0  0
  146.2820  153.6610  134.0840 H   0  0  0  0  0  0  0  0  0  0  0  0
  143.8482  154.9645  134.6386 H   0  0  0  0  0  0  0  0  0  0  0  0
  143.7740  153.1235  134.8144 H   0  0  0  0  0  0  0  0  0  0  0  0
  144.7667  155.0699  136.6675 H   0  0  0  0  0  0  0  0  0  0  0  0
  144.6327  153.2527  136.7947 H   0  0  0  0  0  0  0  0  0  0  0  0
  147.5370  153.1010  134.5270 H   0  0  0  0  0  0  0  0  0  0  0  0
  149.9627  156.4771  132.9972 H   0  0  0  0  0  0  0  0  0  0  0  0
  149.4498  159.2624  133.2803 H   0  0  0  0  0  0  0  0  0  0  0  0
  147.5926  160.9450  133.4929 H   0  0  0  0  0  0  0  0  0  0  0  0
  144.6524  160.8961  132.5251 H   0  0  0  0  0  0  0  0  0  0  0  0
  144.6527  157.7454  133.1610 H   0  0  0  0  0  0  0  0  0  0  0  0
  1  2  1  0
  2  3  1  0
  3  4  1  0
  4  5  1  0
  5  6  2  0
  5  7  1  0
  2  8  1  0
  8  9  2  0
  8 10  1  0
 10 11  1  0
 11 12  1  0
 12 13  1  0
 12 14  2  0
 11 15  2  0
 15 16  1  0
 16 17  2  0
 17 18  1  0
 18 19  2  0
 19 20  1  0
 20 21  1  0
 20 22  1  0
 19 23  1  0
 23 24  2  0
 24 10  1  0
 24 16  1  0
  1 25  1  0
  1 26  1  0
  1 27  1  0
  2 28  1  1
  3 29  1  0
  3 30  1  0
  4 31  1  0
  4 32  1  0
 13 33  1  0
 15 34  1  0
 17 35  1  0
 18 36  1  0
 20 37  1  0
 23 38  1  0
M  CHG  3   2   1   7  -1  13  -1
M  END
>  <UniqueID>  (85) 
85

>  <SMILES>  (85) 
C[N@H+](CCC(=O)[O-])C(=O)n1c(C([NH-])=O)cc2ccc(C(F)F)cc21

>  <Energy>  (85) 
87.35872148246732

>  <Genealogy>  (85) 
C[NH+](CCC(=O)[O-])C(=O)n1c(C([NH-])=O)cc2ccc(C(F)F)cc21 (protonated)
C[N@H+](CCC(=O)[O-])C(=O)n1c(C([NH-])=O)cc2ccc(C(F)F)cc21 (chirality)
C[N@H+](CCC(=O)[O-])C(=O)n1c(C([NH-])=O)cc2ccc(C(F)F)cc21 (3D coordinates assigned)
C[N@H+](CCC(=O)[O-])C(=O)n1c(C([NH-])=O)cc2ccc(C(F)F)cc21 (optimized conformer: 87.35872148246732 kcal/mol)

>  <smiles>  (85) 
CN(CCC(=O)O)C(=O)n1c(C(N)=O)cc2ccc(C(F)F)cc21

>  <score_type>  (85) 
oracle

>  <origin>  (85) 
adg

>  <m_score__min__energy>  (85) 
-5.1299999999999999

>  <m_primary>  (85) 
energy

$$$$
85:0
     RDKit          3D

 39 40  0  0  0  0  0  0  0  0999 V2000
  148.8500  159.3070  129.6580 C   0  0  0  0  0  0  0  0  0  0  0  0
  148.7500  160.0140  131.0180 C   0  0  0  0  0  0  0  0  0  0  0  0
  149.0440  161.5140  130.8230 C   0  0  0  0  0  0  0  0  0  0  0  0
  149.7680  159.3800  131.9860 C   0  0  0  0  0  0  0  0  0  0  0  0
  147.4110  159.8220  131.4970 O   0  0  0  0  0  0  0  0  0  0  0  0
  147.0190  159.6610  132.8340 C   0  0  0  0  0  0  0  0  0  0  0  0
  147.4480  160.4330  133.7330 O   0  0  0  0  0  0  0  0  0  0  0  0
  146.0950  158.6170  133.1750 N   0  0  0  0  0  0  0  0  0  0  0  0
  144.7750  158.7350  133.4950 C   0  0  0  0  0  0  0  0  0  0  0  0
  144.0450  160.0010  133.7160 C   0  0  0  0  0  0  0  0  0  0  0  0
  144.6430  161.2580  133.4100 N   0  0  0  0  0  0  0  0  0  0  0  0
  142.8940  159.9760  134.2290 O   0  0  0  0  0  0  0  0  0  0  0  0
  144.2010  157.4780  133.6720 C   0  0  0  0  0  0  0  0  0  0  0  0
  145.2210  156.5790  133.4590 C   0  0  0  0  0  0  0  0  0  0  0  0
  145.2080  155.1870  133.4910 C   0  0  0  0  0  0  0  0  0  0  0  0
  146.4040  154.5110  133.1960 C   0  0  0  0  0  0  0  0  0  0  0  0
  147.5820  155.2320  132.8810 C   0  0  0  0  0  0  0  0  0  0  0  0
  148.8440  154.4990  132.5230 C   0  0  0  0  0  0  0  0  0  0  0  0
  148.8860  153.1770  133.2200 C   0  0  0  0  0  0  0  0  0  0  0  0
  149.2390  152.1420  132.5970 O   0  0  0  0  0  0  0  0  0  0  0  0
  148.4870  153.0780  134.5470 O   0  0  0  0  0  0  0  0  0  0  0  0
  147.5540  156.6440  132.8470 C   0  0  0  0  0  0  0  0  0  0  0  0
  146.3530  157.2920  133.1620 C   0  0  0  0  0  0  0  0  0  0  0  0
  149.0025  158.2291  129.8155 H   0  0  0  0  0  0  0  0  0  0  0  0
  147.9203  159.4670  129.0923 H   0  0  0  0  0  0  0  0  0  0  0  0
  149.6989  159.7186  129.0923 H   0  0  0  0  0  0  0  0  0  0  0  0
  149.1392  161.9997  131.8053 H   0  0  0  0  0  0  0  0  0  0  0  0
  149.9827  161.6338  130.2622 H   0  0  0  0  0  0  0  0  0  0  0  0
  148.2200  161.9793  130.2622 H   0  0  0  0  0  0  0  0  0  0  0  0
  149.4573  159.5735  133.0233 H   0  0  0  0  0  0  0  0  0  0  0  0
  149.8119  158.2946  131.8128 H   0  0  0  0  0  0  0  0  0  0  0  0
  150.7615  159.8194  131.8128 H   0  0  0  0  0  0  0  0  0  0  0  0
  145.6080  161.3120  133.0170 H   0  0  0  0  0  0  0  0  0  0  0  0
  143.1552  157.2522  133.9276 H   0  0  0  0  0  0  0  0  0  0  0  0
  144.2902  154.6339  133.7394 H   0  0  0  0  0  0  0  0  0  0  0  0
  146.4258  153.4113  133.2098 H   0  0  0  0  0  0  0  0  0  0  0  0
  148.8750  154.3379  131.4353 H   0  0  0  0  0  0  0  0  0  0  0  0
  149.7104  155.0993  132.8375 H   0  0  0  0  0  0  0  0  0  0  0  0
  148.4524  157.2198  132.5800 H   0  0  0  0  0  0  0  0  0  0  0  0
  1  2  1  0
  2  3  1  0
  2  4  1  0
  2  5  1  0
  5  6  1  0
  6  7  2  0
  6  8  1  0
  8  9  1  0
  9 10  1  0
 10 11  1  0
 10 12  2  0
  9 13  2  0
 13 14  1  0
 14 15  2  0
 15 16  1  0
 16 17  2  0
 17 18  1  0
 18 19  1  0
 19 20  2  0
 19 21  1  0
 17 22  1  0
 22 23  2  0
 23  8  1  0
 23 14  1  0
  1 24  1  0
  1 25  1  0
  1 26  1  0
  3 27  1  0
  3 28  1  0
  3 29  1  0
  4 30  1  0
  4 31  1  0
  4 32  1  0
 11 33  1  0
 13 34  1  0
 15 35  1  0
 16 36  1  0
 18 37  1  0
 18 38  1  0
 22 39  1  0
M  CHG  2  11  -1  21  -1
M  END
>  <UniqueID>  (86) 
86

>  <SMILES>  (86) 
CC(C)(C)OC(=O)n1c(C([NH-])=O)cc2ccc(CC(=O)[O-])cc21

>  <Energy>  (86) 
71.43050704185363

>  <Genealogy>  (86) 
CC(C)(C)OC(=O)n1c(C([NH-])=O)cc2ccc(CC(=O)[O-])cc21 (protonated)
CC(C)(C)OC(=O)n1c(C([NH-])=O)cc2ccc(CC(=O)[O-])cc21 (3D coordinates assigned)
CC(C)(C)OC(=O)n1c(C([NH-])=O)cc2ccc(CC(=O)[O-])cc21 (optimized conformer: 71.43050704185363 kcal/mol)

>  <smiles>  (86) 
CC(C)(C)OC(=O)n1c(C(N)=O)cc2ccc(CC(=O)O)cc21

>  <score_type>  (86) 
oracle

>  <origin>  (86) 
adg

>  <m_score__min__energy>  (86) 
-7.0499999999999998

>  <m_primary>  (86) 
energy

$$$$
86:0
     RDKit          3D

 56 59  0  0  0  0  0  0  0  0999 V2000
  141.0410  160.7000  133.2090 N   0  0  0  0  0  0  0  0  0  0  0  0
  141.8760  160.1340  134.2160 C   0  0  0  0  0  0  0  0  0  0  0  0
  141.3660  159.7780  135.3110 O   0  0  0  0  0  0  0  0  0  0  0  0
  143.3150  159.9330  133.9490 C   0  0  0  0  0  0  0  0  0  0  0  0
  144.2800  160.9150  134.1640 C   0  0  0  0  0  0  0  0  0  0  0  0
  145.4630  160.3660  133.7270 C   0  0  0  0  0  0  0  0  0  0  0  0
  146.7510  160.8970  133.7300 C   0  0  0  0  0  0  0  0  0  0  0  0
  147.7980  160.0850  133.2640 C   0  0  0  0  0  0  0  0  0  0  0  0
  147.5420  158.7690  132.8060 C   0  0  0  0  0  0  0  0  0  0  0  0
  148.6850  157.8860  132.3850 C   0  0  0  0  0  0  0  0  0  0  0  0
  148.5600  156.5410  133.0280 C   0  0  0  0  0  0  0  0  0  0  0  0
  149.2630  155.5820  132.6100 O   0  0  0  0  0  0  0  0  0  0  0  0
  147.6040  156.3470  134.0340 O   0  0  0  0  0  0  0  0  0  0  0  0
  146.5010  155.4850  133.9450 C   0  0  0  0  0  0  0  0  0  0  0  0
  145.8860  155.0600  135.1230 C   0  0  0  0  0  0  0  0  0  0  0  0
  144.7970  154.1880  135.0660 C   0  0  0  0  0  0  0  0  0  0  0  0
  144.3250  153.7340  133.8630 N   0  0  0  0  0  0  0  0  0  0  0  0
  143.1970  152.8330  133.8140 C   0  0  0  0  0  0  0  0  0  0  0  0
  143.3060  151.7110  133.2460 O   0  0  0  0  0  0  0  0  0  0  0  0
  141.9970  153.1820  134.4520 O   0  0  0  0  0  0  0  0  0  0  0  0
  141.3250  154.4060  134.3160 C   0  0  0  0  0  0  0  0  0  0  0  0
  140.4540  154.5700  133.2320 C   0  0  0  0  0  0  0  0  0  0  0  0
  139.7500  155.7650  133.0610 C   0  0  0  0  0  0  0  0  0  0  0  0
  139.8910  156.8070  133.9890 C   0  0  0  0  0  0  0  0  0  0  0  0
  139.1620  158.1040  133.7850 C   0  0  0  0  0  0  0  0  0  0  0  0
  138.7430  158.1980  132.4290 O   0  0  0  0  0  0  0  0  0  0  0  0
  139.1030  159.2660  131.6320 N   0  0  0  0  0  0  0  0  0  0  0  0
  140.0570  159.1440  130.8380 O   0  0  0  0  0  0  0  0  0  0  0  0
  138.4230  160.4590  131.6960 O   0  0  0  0  0  0  0  0  0  0  0  0
  140.7610  156.6460  135.0780 C   0  0  0  0  0  0  0  0  0  0  0  0
  141.4660  155.4520  135.2480 C   0  0  0  0  0  0  0  0  0  0  0  0
  144.9300  154.1280  132.6990 C   0  0  0  0  0  0  0  0  0  0  0  0
  146.0230  154.9990  132.7190 C   0  0  0  0  0  0  0  0  0  0  0  0
  146.2230  158.2630  132.8220 C   0  0  0  0  0  0  0  0  0  0  0  0
  145.1960  159.0990  133.2750 C   0  0  0  0  0  0  0  0  0  0  0  0
  143.8800  158.8160  133.4050 N   0  0  0  0  0  0  0  0  0  0  0  0
  143.2450  157.5650  133.0950 C   0  0  0  0  0  0  0  0  0  0  0  0
  142.3350  157.5100  132.2260 O   0  0  0  0  0  0  0  0  0  0  0  0
  143.6100  156.4070  133.7700 O   0  0  0  0  0  0  0  0  0  0  0  0
  140.2920  160.1350  132.7520 H   0  0  0  0  0  0  0  0  0  0  0  0
  144.1279  161.9167  134.5923 H   0  0  0  0  0  0  0  0  0  0  0  0
  146.9420  161.9201  134.0861 H   0  0  0  0  0  0  0  0  0  0  0  0
  148.8267  160.4746  133.2546 H   0  0  0  0  0  0  0  0  0  0  0  0
  148.6706  157.7691  131.2913 H   0  0  0  0  0  0  0  0  0  0  0  0
  149.6320  158.3487  132.6997 H   0  0  0  0  0  0  0  0  0  0  0  0
  146.2589  155.4117  136.0963 H   0  0  0  0  0  0  0  0  0  0  0  0
  144.3125  153.8618  135.9981 H   0  0  0  0  0  0  0  0  0  0  0  0
  140.3228  153.7514  132.5090 H   0  0  0  0  0  0  0  0  0  0  0  0
  139.0828  155.8888  132.1953 H   0  0  0  0  0  0  0  0  0  0  0  0
  138.2826  158.1393  134.4449 H   0  0  0  0  0  0  0  0  0  0  0  0
  139.8302  158.9445  134.0239 H   0  0  0  0  0  0  0  0  0  0  0  0
  140.8886  157.4644  135.8018 H   0  0  0  0  0  0  0  0  0  0  0  0
  142.1339  155.3285  136.1133 H   0  0  0  0  0  0  0  0  0  0  0  0
  144.5509  153.7543  131.7364 H   0  0  0  0  0  0  0  0  0  0  0  0
  146.5059  155.3018  131.7782 H   0  0  0  0  0  0  0  0  0  0  0  0
  146.0086  157.2375  132.4868 H   0  0  0  0  0  0  0  0  0  0  0  0
  1  2  1  0
  2  3  2  0
  2  4  1  0
  4  5  2  0
  5  6  1  0
  6  7  2  0
  7  8  1  0
  8  9  2  0
  9 10  1  0
 10 11  1  0
 11 12  2  0
 11 13  1  0
 13 14  1  0
 14 15  2  0
 15 16  1  0
 16 17  2  0
 17 18  1  0
 18 19  2  0
 18 20  1  0
 20 21  1  0
 21 22  2  0
 22 23  1  0
 23 24  2  0
 24 25  1  0
 25 26  1  0
 26 27  1  0
 27 28  2  0
 27 29  1  0
 24 30  1  0
 30 31  2  0
 17 32  1  0
 32 33  2  0
  9 34  1  0
 34 35  2  0
 35 36  1  0
 36 37  1  0
 37 38  2  0
 37 39  1  0
 36  4  1  0
 35  6  1  0
 33 14  1  0
 31 21  1  0
  1 40  1  0
  5 41  1  0
  7 42  1  0
  8 43  1  0
 10 44  1  0
 10 45  1  0
 15 46  1  0
 16 47  1  0
 22 48  1  0
 23 49  1  0
 25 50  1  0
 25 51  1  0
 30 52  1  0
 31 53  1  0
 32 54  1  0
 33 55  1  0
 34 56  1  0
M  CHG  5   1  -1  17   1  27   1  29  -1  39  -1
M  END
>  <UniqueID>  (87) 
87

>  <SMILES>  (87) 
[NH-]C(=O)c1cc2ccc(CC(=O)Oc3cc[n+](C(=O)Oc4ccc(CO[N+](=O)[O-])cc4)cc3)cc2n1C(=O)[O-]

>  <Energy>  (87) 
106.81820229432137

>  <Genealogy>  (87) 
[NH-]C(=O)c1cc2ccc(CC(=O)Oc3cc[n+](C(=O)Oc4ccc(CO[N+](=O)[O-])cc4)cc3)cc2n1C(=O)[O-] (protonated)
[NH-]C(=O)c1cc2ccc(CC(=O)Oc3cc[n+](C(=O)Oc4ccc(CO[N+](=O)[O-])cc4)cc3)cc2n1C(=O)[O-] (3D coordinates assigned)
[NH-]C(=O)c1cc2ccc(CC(=O)Oc3cc[n+](C(=O)Oc4ccc(CO[N+](=O)[O-])cc4)cc3)cc2n1C(=O)[O-] (optimized conformer: 106.81820229432137 kcal/mol)

>  <smiles>  (87) 
NC(=O)c1cc2ccc(CC(=O)Oc3cc[n+](C(=O)Oc4ccc(CO[N+](=O)[O-])cc4)cc3)cc2n1C(=O)O

>  <score_type>  (87) 
oracle

>  <origin>  (87) 
adg

>  <m_score__min__energy>  (87) 
-10.359999999999999

>  <m_primary>  (87) 
energy

$$$$
87:0
     RDKit          3D

 39 40  0  0  0  0  0  0  0  0999 V2000
  145.0310  154.1960  131.8720 C   0  0  0  0  0  0  0  0  0  0  0  0
  145.7630  155.2730  132.5610 N   0  0  0  0  0  0  0  0  0  0  0  0
  145.4890  155.2600  134.0100 C   0  0  0  0  0  0  0  0  0  0  0  0
  147.2160  155.3140  132.2390 C   0  0  0  0  0  0  0  0  0  0  0  0
  148.1280  156.1120  133.2040 C   0  0  0  0  0  0  0  0  0  0  0  0
  148.5700  157.4800  132.6680 C   0  0  0  0  0  0  0  0  0  0  0  0
  147.5210  158.5230  132.9510 C   0  0  0  0  0  0  0  0  0  0  0  0
  147.8960  159.8760  133.1400 C   0  0  0  0  0  0  0  0  0  0  0  0
  146.9290  160.8540  133.4260 C   0  0  0  0  0  0  0  0  0  0  0  0
  145.6030  160.4460  133.5350 C   0  0  0  0  0  0  0  0  0  0  0  0
  144.4680  161.1840  133.7830 C   0  0  0  0  0  0  0  0  0  0  0  0
  143.4200  160.2650  133.7790 C   0  0  0  0  0  0  0  0  0  0  0  0
  142.0240  160.6260  134.0960 C   0  0  0  0  0  0  0  0  0  0  0  0
  141.3690  160.0860  135.2410 N   0  0  0  0  0  0  0  0  0  0  0  0
  141.4160  161.4630  133.3750 O   0  0  0  0  0  0  0  0  0  0  0  0
  143.8870  159.0090  133.5300 N   0  0  0  0  0  0  0  0  0  0  0  0
  143.1210  157.8070  133.3500 C   0  0  0  0  0  0  0  0  0  0  0  0
  142.2150  157.5010  134.1690 O   0  0  0  0  0  0  0  0  0  0  0  0
  143.3920  156.9560  132.2850 O   0  0  0  0  0  0  0  0  0  0  0  0
  145.2270  159.1360  133.3840 C   0  0  0  0  0  0  0  0  0  0  0  0
  146.1660  158.1440  133.0800 C   0  0  0  0  0  0  0  0  0  0  0  0
  144.5762  153.5268  132.6172 H   0  0  0  0  0  0  0  0  0  0  0  0
  144.2423  154.6334  131.2422 H   0  0  0  0  0  0  0  0  0  0  0  0
  145.7280  153.6237  131.2422 H   0  0  0  0  0  0  0  0  0  0  0  0
  145.3630  156.1740  132.2040 H   0  0  0  0  0  0  0  0  0  0  0  0
  146.4387  155.3051  134.5632 H   0  0  0  0  0  0  0  0  0  0  0  0
  144.8694  156.1298  134.2738 H   0  0  0  0  0  0  0  0  0  0  0  0
  144.9545  154.3355  134.2738 H   0  0  0  0  0  0  0  0  0  0  0  0
  147.5809  154.2765  132.2194 H   0  0  0  0  0  0  0  0  0  0  0  0
  147.2808  155.8466  131.2787 H   0  0  0  0  0  0  0  0  0  0  0  0
  147.5794  156.2711  134.1440 H   0  0  0  0  0  0  0  0  0  0  0  0
  149.0426  155.5158  133.3386 H   0  0  0  0  0  0  0  0  0  0  0  0
  149.5117  157.7725  133.1555 H   0  0  0  0  0  0  0  0  0  0  0  0
  148.7126  157.4059  131.5798 H   0  0  0  0  0  0  0  0  0  0  0  0
  148.9549  160.1636  133.0620 H   0  0  0  0  0  0  0  0  0  0  0  0
  147.2110  161.9088  133.5595 H   0  0  0  0  0  0  0  0  0  0  0  0
  144.4019  162.2694  133.9492 H   0  0  0  0  0  0  0  0  0  0  0  0
  141.2940  159.0540  135.3800 H   0  0  0  0  0  0  0  0  0  0  0  0
  145.8574  157.0968  132.9450 H   0  0  0  0  0  0  0  0  0  0  0  0
  1  2  1  0
  2  3  1  0
  2  4  1  0
  4  5  1  0
  5  6  1  0
  6  7  1  0
  7  8  2  0
  8  9  1  0
  9 10  2  0
 10 11  1  0
 11 12  2  0
 12 13  1  0
 13 14  1  0
 13 15  2  0
 12 16  1  0
 16 17  1  0
 17 18  2  0
 17 19  1  0
 16 20  1  0
 20 21  2  0
 21  7  1  0
 20 10  1  0
  1 22  1  0
  1 23  1  0
  1 24  1  0
  2 25  1  0
  3 26  1  0
  3 27  1  0
  3 28  1  0
  4 29  1  0
  4 30  1  0
  5 31  1  0
  5 32  1  0
  6 33  1  0
  6 34  1  0
  8 35  1  0
  9 36  1  0
 11 37  1  0
 14 38  1  0
 21 39  1  0
M  CHG  3   2   1  14  -1  19  -1
M  END
>  <UniqueID>  (88) 
88

>  <SMILES>  (88) 
C[NH+](C)CCCc1ccc2cc(C([NH-])=O)n(C(=O)[O-])c2c1

>  <Energy>  (88) 
82.12670940797734

>  <Genealogy>  (88) 
C[NH+](C)CCCc1ccc2cc(C([NH-])=O)n(C(=O)[O-])c2c1 (protonated)
C[NH+](C)CCCc1ccc2cc(C([NH-])=O)n(C(=O)[O-])c2c1 (3D coordinates assigned)
C[NH+](C)CCCc1ccc2cc(C([NH-])=O)n(C(=O)[O-])c2c1 (optimized conformer: 82.12670940797734 kcal/mol)

>  <smiles>  (88) 
CN(C)CCCc1ccc2cc(C(N)=O)n(C(=O)O)c2c1

>  <score_type>  (88) 
oracle

>  <origin>  (88) 
adg

>  <m_score__min__energy>  (88) 
-5.9199999999999999

>  <m_primary>  (88) 
energy

$$$$
88:0
     RDKit          3D

 58 62  0  0  0  0  0  0  0  0999 V2000
  147.2870  156.3440  132.1910 N   0  0  0  0  0  0  0  0  0  0  0  0
  146.6400  155.1460  132.6390 C   0  0  0  0  0  0  0  0  0  0  0  0
  147.3470  154.1290  132.8660 O   0  0  0  0  0  0  0  0  0  0  0  0
  145.1660  155.0900  132.8250 C   0  0  0  0  0  0  0  0  0  0  0  0
  144.4120  153.9140  132.8040 C   0  0  0  0  0  0  0  0  0  0  0  0
  143.1160  154.3010  133.0600 C   0  0  0  0  0  0  0  0  0  0  0  0
  141.9510  153.5420  133.1270 C   0  0  0  0  0  0  0  0  0  0  0  0
  140.7410  154.2140  133.3680 C   0  0  0  0  0  0  0  0  0  0  0  0
  140.7170  155.6200  133.5400 C   0  0  0  0  0  0  0  0  0  0  0  0
  139.4040  156.3310  133.7370 C   0  0  0  0  0  0  0  0  0  0  0  0
  139.5990  157.8220  133.8680 C   0  0  0  0  0  0  0  0  0  0  0  0
  139.9360  158.2980  134.9880 O   0  0  0  0  0  0  0  0  0  0  0  0
  139.3520  158.7180  132.7620 N   0  0  0  0  0  0  0  0  0  0  0  0
  140.0930  159.9840  132.6850 C   0  0  0  0  0  0  0  0  0  0  0  0
  139.3010  161.0180  131.8800 C   0  0  0  0  0  0  0  0  0  0  0  0
  138.9010  160.4850  130.6330 O   0  0  0  0  0  0  0  0  0  0  0  0
  137.9790  159.4350  130.8430 C   0  0  0  0  0  0  0  0  0  0  0  0
  138.6450  158.2550  131.5580 C   0  0  0  0  0  0  0  0  0  0  0  0
  141.9200  156.3570  133.4590 C   0  0  0  0  0  0  0  0  0  0  0  0
  143.1110  155.6590  133.2280 C   0  0  0  0  0  0  0  0  0  0  0  0
  144.3560  156.1590  133.0840 N   0  0  0  0  0  0  0  0  0  0  0  0
  144.7150  157.5440  133.1810 C   0  0  0  0  0  0  0  0  0  0  0  0
  144.0030  158.4150  132.6140 O   0  0  0  0  0  0  0  0  0  0  0  0
  145.8740  157.9160  133.8670 O   0  0  0  0  0  0  0  0  0  0  0  0
  146.4810  159.1970  133.7170 C   0  0  0  0  0  0  0  0  0  0  0  0
  146.4070  159.6820  132.2660 C   0  0  0  0  0  0  0  0  0  0  0  0
  147.9250  159.5850  132.1960 C   0  0  0  0  0  0  0  0  0  0  0  0
  148.0110  159.1130  133.6410 C   0  0  0  0  0  0  0  0  0  0  0  0
  148.7240  160.8100  131.7710 C   0  0  0  0  0  0  0  0  0  0  0  0
  149.3650  159.9550  130.6740 C   0  0  0  0  0  0  0  0  0  0  0  0
  150.7290  159.7900  130.8490 F   0  0  0  0  0  0  0  0  0  0  0  0
  149.0430  160.3910  129.3980 F   0  0  0  0  0  0  0  0  0  0  0  0
  148.5580  158.7290  131.1050 C   0  0  0  0  0  0  0  0  0  0  0  0
  146.7510  157.1870  131.8910 H   0  0  0  0  0  0  0  0  0  0  0  0
  148.3290  156.3810  132.1360 H   0  0  0  0  0  0  0  0  0  0  0  0
  144.7775  152.8927  132.6212 H   0  0  0  0  0  0  0  0  0  0  0  0
  141.9770  152.4502  132.9954 H   0  0  0  0  0  0  0  0  0  0  0  0
  139.8027  153.6426  133.4237 H   0  0  0  0  0  0  0  0  0  0  0  0
  138.7547  156.1296  132.8722 H   0  0  0  0  0  0  0  0  0  0  0  0
  138.9449  155.9592  134.6649 H   0  0  0  0  0  0  0  0  0  0  0  0
  140.2612  160.3679  133.7020 H   0  0  0  0  0  0  0  0  0  0  0  0
  141.0560  159.8039  132.1848 H   0  0  0  0  0  0  0  0  0  0  0  0
  138.4072  161.3112  132.4502 H   0  0  0  0  0  0  0  0  0  0  0  0
  139.9441  161.8920  131.6997 H   0  0  0  0  0  0  0  0  0  0  0  0
  137.1462  159.8053  131.4589 H   0  0  0  0  0  0  0  0  0  0  0  0
  137.6114  159.0903  129.8652 H   0  0  0  0  0  0  0  0  0  0  0  0
  137.8746  157.5254  131.8481 H   0  0  0  0  0  0  0  0  0  0  0  0
  139.3704  157.7877  130.8758 H   0  0  0  0  0  0  0  0  0  0  0  0
  141.9204  157.4509  133.5745 H   0  0  0  0  0  0  0  0  0  0  0  0
  146.0071  159.7739  134.5248 H   0  0  0  0  0  0  0  0  0  0  0  0
  145.8760  159.0003  131.5853 H   0  0  0  0  0  0  0  0  0  0  0  0
  145.8834  160.6129  132.0030 H   0  0  0  0  0  0  0  0  0  0  0  0
  148.4176  158.0984  133.7648 H   0  0  0  0  0  0  0  0  0  0  0  0
  148.6474  159.6317  134.3731 H   0  0  0  0  0  0  0  0  0  0  0  0
  148.1133  161.6458  131.3989 H   0  0  0  0  0  0  0  0  0  0  0  0
  149.3383  161.3700  132.4915 H   0  0  0  0  0  0  0  0  0  0  0  0
  147.8507  158.3598  130.3477 H   0  0  0  0  0  0  0  0  0  0  0  0
  149.0510  157.7745  131.3414 H   0  0  0  0  0  0  0  0  0  0  0  0
  1  2  1  0
  2  3  2  0
  2  4  1  0
  4  5  2  0
  5  6  1  0
  6  7  2  0
  7  8  1  0
  8  9  2  0
  9 10  1  0
 10 11  1  0
 11 12  2  0
 11 13  1  0
 13 14  1  0
 14 15  1  0
 15 16  1  0
 16 17  1  0
 17 18  1  0
  9 19  1  0
 19 20  2  0
 20 21  1  0
 21 22  1  0
 22 23  2  0
 22 24  1  0
 24 25  1  0
 25 26  1  0
 26 27  1  0
 27 28  1  0
 27 29  1  0
 29 30  1  0
 30 31  1  0
 30 32  1  0
 30 33  1  0
 21  4  1  0
 28 25  1  0
 20  6  1  0
 33 27  1  0
 18 13  1  0
  1 34  1  0
  1 35  1  0
  5 36  1  0
  7 37  1  0
  8 38  1  0
 10 39  1  0
 10 40  1  0
 14 41  1  0
 14 42  1  0
 15 43  1  0
 15 44  1  0
 17 45  1  0
 17 46  1  0
 18 47  1  0
 18 48  1  0
 19 49  1  0
 25 50  1  0
 26 51  1  0
 26 52  1  0
 28 53  1  0
 28 54  1  0
 29 55  1  0
 29 56  1  0
 33 57  1  0
 33 58  1  0
M  END
>  <UniqueID>  (89) 
89

>  <SMILES>  (89) 
NC(=O)c1cc2ccc(CC(=O)N3CCOCC3)cc2n1C(=O)OC1CC2(C1)CC(F)(F)C2

>  <Energy>  (89) 
230.543154860801

>  <Genealogy>  (89) 
NC(=O)c1cc2ccc(CC(=O)N3CCOCC3)cc2n1C(=O)OC1CC2(C1)CC(F)(F)C2 (3D coordinates assigned)
NC(=O)c1cc2ccc(CC(=O)N3CCOCC3)cc2n1C(=O)OC1CC2(C1)CC(F)(F)C2 (nonaromatic ring conformer: 230.543154860801 kcal/mol)

>  <smiles>  (89) 
NC(=O)c1cc2ccc(CC(=O)N3CCOCC3)cc2n1C(=O)OC1CC2(C1)CC(F)(F)C2

>  <score_type>  (89) 
oracle

>  <origin>  (89) 
adg

>  <m_score__min__energy>  (89) 
-10.84

>  <m_primary>  (89) 
energy

$$$$
89:0
     RDKit          3D

 29 30  0  0  0  0  0  0  0  0999 V2000
  149.2490  159.1740  131.2080 C   0  0  0  0  0  0  0  0  0  0  0  0
  148.7560  158.1180  132.0210 O   0  0  0  0  0  0  0  0  0  0  0  0
  148.0820  158.3440  133.2250 C   0  0  0  0  0  0  0  0  0  0  0  0
  148.7310  158.6040  134.2760 O   0  0  0  0  0  0  0  0  0  0  0  0
  146.6460  158.2820  133.2670 N   0  0  0  0  0  0  0  0  0  0  0  0
  145.8620  157.1730  133.1680 C   0  0  0  0  0  0  0  0  0  0  0  0
  146.3260  155.8100  132.8350 C   0  0  0  0  0  0  0  0  0  0  0  0
  147.3550  155.5950  131.8680 N   0  0  0  0  0  0  0  0  0  0  0  0
  145.7650  154.8180  133.3710 O   0  0  0  0  0  0  0  0  0  0  0  0
  144.5240  157.4950  133.3770 C   0  0  0  0  0  0  0  0  0  0  0  0
  144.5090  158.8530  133.5950 C   0  0  0  0  0  0  0  0  0  0  0  0
  143.4400  159.7040  133.8590 C   0  0  0  0  0  0  0  0  0  0  0  0
  143.7170  161.0630  134.0760 C   0  0  0  0  0  0  0  0  0  0  0  0
  145.0510  161.5450  134.0540 C   0  0  0  0  0  0  0  0  0  0  0  0
  145.3320  163.0120  134.2550 C   0  0  0  0  0  0  0  0  0  0  0  0
  144.3700  163.7530  133.5950 F   0  0  0  0  0  0  0  0  0  0  0  0
  145.3070  163.3360  135.6000 F   0  0  0  0  0  0  0  0  0  0  0  0
  146.5790  163.3440  133.7540 F   0  0  0  0  0  0  0  0  0  0  0  0
  146.1080  160.6520  133.7610 C   0  0  0  0  0  0  0  0  0  0  0  0
  145.8020  159.3050  133.5260 C   0  0  0  0  0  0  0  0  0  0  0  0
  149.6272  159.9841  131.8488 H   0  0  0  0  0  0  0  0  0  0  0  0
  150.0645  158.7977  130.5729 H   0  0  0  0  0  0  0  0  0  0  0  0
  148.4369  159.5576  130.5729 H   0  0  0  0  0  0  0  0  0  0  0  0
  147.7180  156.3790  131.2830 H   0  0  0  0  0  0  0  0  0  0  0  0
  147.6980  154.6280  131.6750 H   0  0  0  0  0  0  0  0  0  0  0  0
  143.6632  156.8102  133.3694 H   0  0  0  0  0  0  0  0  0  0  0  0
  142.4087  159.3231  133.8965 H   0  0  0  0  0  0  0  0  0  0  0  0
  142.8896  161.7626  134.2654 H   0  0  0  0  0  0  0  0  0  0  0  0
  147.1481  161.0074  133.7185 H   0  0  0  0  0  0  0  0  0  0  0  0
  1  2  1  0
  2  3  1  0
  3  4  2  0
  3  5  1  0
  5  6  1  0
  6  7  1  0
  7  8  1  0
  7  9  2  0
  6 10  2  0
 10 11  1  0
 11 12  2  0
 12 13  1  0
 13 14  2  0
 14 15  1  0
 15 16  1  0
 15 17  1  0
 15 18  1  0
 14 19  1  0
 19 20  2  0
 20  5  1  0
 20 11  1  0
  1 21  1  0
  1 22  1  0
  1 23  1  0
  8 24  1  0
  8 25  1  0
 10 26  1  0
 12 27  1  0
 13 28  1  0
 19 29  1  0
M  END
>  <UniqueID>  (90) 
90

>  <SMILES>  (90) 
COC(=O)n1c(C(N)=O)cc2ccc(C(F)(F)F)cc21

>  <Energy>  (90) 
67.48599088136544

>  <Genealogy>  (90) 
COC(=O)n1c(C(N)=O)cc2ccc(C(F)(F)F)cc21 (3D coordinates assigned)
COC(=O)n1c(C(N)=O)cc2ccc(C(F)(F)F)cc21 (optimized conformer: 67.48599088136544 kcal/mol)

>  <smiles>  (90) 
COC(=O)n1c(C(N)=O)cc2ccc(C(F)(F)F)cc21

>  <score_type>  (90) 
oracle

>  <origin>  (90) 
adg

>  <m_score__min__energy>  (90) 
-5.6100000000000003

>  <m_primary>  (90) 
energy

$$$$
90:0
     RDKit          3D

 53 54  0  0  0  0  0  0  0  0999 V2000
  138.4760  160.0640  130.8660 C   0  0  0  0  0  0  0  0  0  0  0  0
  139.3430  159.1920  131.2430 N   0  0  0  0  0  0  0  0  0  0  0  0
  138.9660  157.8970  131.7680 C   0  0  0  0  0  0  0  0  0  0  0  0
  139.3140  157.7990  133.2650 C   0  0  0  0  0  0  0  0  0  0  0  0
  140.4800  156.8260  133.6090 C   0  0  0  0  0  0  0  0  0  0  0  0
  140.7820  156.7960  135.1220 C   0  0  0  0  0  0  0  0  0  0  0  0
  140.1490  155.3980  133.1390 C   0  0  0  0  0  0  0  0  0  0  0  0
  141.6540  157.2210  132.8840 O   0  0  0  0  0  0  0  0  0  0  0  0
  142.9840  156.9240  133.2180 C   0  0  0  0  0  0  0  0  0  0  0  0
  143.3670  155.7310  133.3580 O   0  0  0  0  0  0  0  0  0  0  0  0
  143.9190  157.9960  133.4020 N   0  0  0  0  0  0  0  0  0  0  0  0
  143.6490  159.3230  133.5500 C   0  0  0  0  0  0  0  0  0  0  0  0
  142.3080  159.9220  133.7080 C   0  0  0  0  0  0  0  0  0  0  0  0
  141.3170  159.8030  132.6850 N   0  0  0  0  0  0  0  0  0  0  0  0
  142.0140  160.5020  134.7870 O   0  0  0  0  0  0  0  0  0  0  0  0
  144.8290  160.0620  133.5930 C   0  0  0  0  0  0  0  0  0  0  0  0
  145.8420  159.1370  133.4770 C   0  0  0  0  0  0  0  0  0  0  0  0
  147.2220  159.3170  133.4550 C   0  0  0  0  0  0  0  0  0  0  0  0
  148.0320  158.1810  133.2950 C   0  0  0  0  0  0  0  0  0  0  0  0
  147.4530  156.8970  133.1380 C   0  0  0  0  0  0  0  0  0  0  0  0
  148.3310  155.6830  132.9870 C   0  0  0  0  0  0  0  0  0  0  0  0
  147.7340  154.4790  133.7120 C   0  0  0  0  0  0  0  0  0  0  0  0
  147.5580  154.7770  135.0940 O   0  0  0  0  0  0  0  0  0  0  0  0
  146.6180  154.1240  135.8940 C   0  0  0  0  0  0  0  0  0  0  0  0
  145.1690  154.4290  135.7130 C   0  0  0  0  0  0  0  0  0  0  0  0
  146.9800  153.2760  136.7540 O   0  0  0  0  0  0  0  0  0  0  0  0
  146.0480  156.7520  133.1720 C   0  0  0  0  0  0  0  0  0  0  0  0
  145.2660  157.8980  133.3590 C   0  0  0  0  0  0  0  0  0  0  0  0
  138.8086  161.0360  130.4730 H   0  0  0  0  0  0  0  0  0  0  0  0
  137.4018  159.8377  130.9366 H   0  0  0  0  0  0  0  0  0  0  0  0
  137.8829  157.7553  131.6382 H   0  0  0  0  0  0  0  0  0  0  0  0
  139.5188  157.1178  131.2228 H   0  0  0  0  0  0  0  0  0  0  0  0
  139.5930  158.8032  133.6166 H   0  0  0  0  0  0  0  0  0  0  0  0
  138.4200  157.3941  133.7618 H   0  0  0  0  0  0  0  0  0  0  0  0
  139.8419  156.8894  135.6855 H   0  0  0  0  0  0  0  0  0  0  0  0
  141.2709  155.8449  135.3795 H   0  0  0  0  0  0  0  0  0  0  0  0
  141.4485  157.6324  135.3795 H   0  0  0  0  0  0  0  0  0  0  0  0
  139.9987  154.7494  134.0146 H   0  0  0  0  0  0  0  0  0  0  0  0
  139.2310  155.4149  132.5333 H   0  0  0  0  0  0  0  0  0  0  0  0
  140.9809  155.0093  132.5333 H   0  0  0  0  0  0  0  0  0  0  0  0
  141.4650  159.1840  131.8590 H   0  0  0  0  0  0  0  0  0  0  0  0
  140.3890  160.2670  132.8010 H   0  0  0  0  0  0  0  0  0  0  0  0
  144.9299  161.1524  133.6974 H   0  0  0  0  0  0  0  0  0  0  0  0
  147.6647  160.3185  133.5597 H   0  0  0  0  0  0  0  0  0  0  0  0
  149.1267  158.2889  133.2915 H   0  0  0  0  0  0  0  0  0  0  0  0
  148.4332  155.4443  131.9181 H   0  0  0  0  0  0  0  0  0  0  0  0
  149.3134  155.9052  133.4292 H   0  0  0  0  0  0  0  0  0  0  0  0
  146.7591  154.2325  133.2660 H   0  0  0  0  0  0  0  0  0  0  0  0
  148.4183  153.6235  133.6127 H   0  0  0  0  0  0  0  0  0  0  0  0
  144.6897  154.5299  136.6979 H   0  0  0  0  0  0  0  0  0  0  0  0
  145.0594  155.3699  135.1538 H   0  0  0  0  0  0  0  0  0  0  0  0
  144.6894  153.6121  135.1538 H   0  0  0  0  0  0  0  0  0  0  0  0
  145.5803  155.7634  133.0545 H   0  0  0  0  0  0  0  0  0  0  0  0
  1  2  2  0
  2  3  1  0
  3  4  1  0
  4  5  1  0
  5  6  1  0
  5  7  1  0
  5  8  1  0
  8  9  1  0
  9 10  2  0
  9 11  1  0
 11 12  1  0
 12 13  1  0
 13 14  1  0
 13 15  2  0
 12 16  2  0
 16 17  1  0
 17 18  2  0
 18 19  1  0
 19 20  2  0
 20 21  1  0
 21 22  1  0
 22 23  1  0
 23 24  1  0
 24 25  1  0
 24 26  2  0
 20 27  1  0
 27 28  2  0
 28 11  1  0
 28 17  1  0
  1 29  1  0
  1 30  1  0
  3 31  1  0
  3 32  1  0
  4 33  1  0
  4 34  1  0
  6 35  1  0
  6 36  1  0
  6 37  1  0
  7 38  1  0
  7 39  1  0
  7 40  1  0
 14 41  1  0
 14 42  1  0
 16 43  1  0
 18 44  1  0
 19 45  1  0
 21 46  1  0
 21 47  1  0
 22 48  1  0
 22 49  1  0
 25 50  1  0
 25 51  1  0
 25 52  1  0
 27 53  1  0
M  END
>  <UniqueID>  (91) 
91

>  <SMILES>  (91) 
C=NCCC(C)(C)OC(=O)n1c(C(N)=O)cc2ccc(CCOC(C)=O)cc21

>  <Energy>  (91) 
78.77902473240728

>  <Genealogy>  (91) 
C=NCCC(C)(C)OC(=O)n1c(C(N)=O)cc2ccc(CCOC(C)=O)cc21 (3D coordinates assigned)
C=NCCC(C)(C)OC(=O)n1c(C(N)=O)cc2ccc(CCOC(C)=O)cc21 (optimized conformer: 78.77902473240728 kcal/mol)

>  <smiles>  (91) 
C=NCCC(C)(C)OC(=O)n1c(C(N)=O)cc2ccc(CCOC(C)=O)cc21

>  <score_type>  (91) 
oracle

>  <origin>  (91) 
adg

>  <m_score__min__energy>  (91) 
-7.5499999999999998

>  <m_primary>  (91) 
energy

$$$$
91:0
     RDKit          3D

 49 50  0  0  0  0  0  0  0  0999 V2000
  149.5940  162.3690  130.0120 C   0  0  0  0  0  0  0  0  0  0  0  0
  149.1510  161.4830  131.0340 O   0  0  0  0  0  0  0  0  0  0  0  0
  149.5350  160.1390  131.0840 C   0  0  0  0  0  0  0  0  0  0  0  0
  149.7040  159.4770  130.0230 O   0  0  0  0  0  0  0  0  0  0  0  0
  149.6970  159.4700  132.4100 C   0  0  0  0  0  0  0  0  0  0  0  0
  148.5620  158.5130  132.6460 C   0  0  0  0  0  0  0  0  0  0  0  0
  148.7820  157.1160  132.5710 C   0  0  0  0  0  0  0  0  0  0  0  0
  147.7180  156.2150  132.7480 C   0  0  0  0  0  0  0  0  0  0  0  0
  146.4530  156.7380  132.9960 C   0  0  0  0  0  0  0  0  0  0  0  0
  145.2480  156.0960  133.1700 C   0  0  0  0  0  0  0  0  0  0  0  0
  144.3150  157.1100  133.3640 C   0  0  0  0  0  0  0  0  0  0  0  0
  142.8910  156.8580  133.6610 C   0  0  0  0  0  0  0  0  0  0  0  0
  141.8570  157.3890  132.8310 N   0  0  0  0  0  0  0  0  0  0  0  0
  142.5810  156.2130  134.6980 O   0  0  0  0  0  0  0  0  0  0  0  0
  144.9110  158.3340  133.2950 N   0  0  0  0  0  0  0  0  0  0  0  0
  144.2740  159.6210  133.3290 C   0  0  0  0  0  0  0  0  0  0  0  0
  144.9720  160.6690  133.4020 O   0  0  0  0  0  0  0  0  0  0  0  0
  142.8800  159.7060  133.2820 O   0  0  0  0  0  0  0  0  0  0  0  0
  142.0860  160.0230  134.4210 C   0  0  0  0  0  0  0  0  0  0  0  0
  140.6120  159.7380  134.1260 C   0  0  0  0  0  0  0  0  0  0  0  0
  140.2440  159.9990  132.6550 C   0  0  0  0  0  0  0  0  0  0  0  0
  139.7320  158.7750  131.9990 N   0  0  0  0  0  0  0  0  0  0  0  0
  139.1170  159.0880  130.6960 C   0  0  0  0  0  0  0  0  0  0  0  0
  138.7440  158.1090  132.8620 C   0  0  0  0  0  0  0  0  0  0  0  0
  146.2230  158.0890  133.0770 C   0  0  0  0  0  0  0  0  0  0  0  0
  147.2610  159.0100  132.8850 C   0  0  0  0  0  0  0  0  0  0  0  0
  150.0412  163.2633  130.4705 H   0  0  0  0  0  0  0  0  0  0  0  0
  150.3449  161.8626  129.3878 H   0  0  0  0  0  0  0  0  0  0  0  0
  148.7383  162.6659  129.3878 H   0  0  0  0  0  0  0  0  0  0  0  0
  150.6482  158.9177  132.4254 H   0  0  0  0  0  0  0  0  0  0  0  0
  149.6956  160.2335  133.2018 H   0  0  0  0  0  0  0  0  0  0  0  0
  149.7939  156.7330  132.3726 H   0  0  0  0  0  0  0  0  0  0  0  0
  147.8807  155.1285  132.6921 H   0  0  0  0  0  0  0  0  0  0  0  0
  145.0621  155.0119  133.1582 H   0  0  0  0  0  0  0  0  0  0  0  0
  142.0740  158.0670  132.0660 H   0  0  0  0  0  0  0  0  0  0  0  0
  140.8570  157.1660  133.0320 H   0  0  0  0  0  0  0  0  0  0  0  0
  142.4119  159.4103  135.2744 H   0  0  0  0  0  0  0  0  0  0  0  0
  142.2070  161.0898  134.6604 H   0  0  0  0  0  0  0  0  0  0  0  0
  140.4029  158.6838  134.3602 H   0  0  0  0  0  0  0  0  0  0  0  0
  140.0096  160.4176  134.7467 H   0  0  0  0  0  0  0  0  0  0  0  0
  139.4686  160.7781  132.6133 H   0  0  0  0  0  0  0  0  0  0  0  0
  141.1517  160.3215  132.1239 H   0  0  0  0  0  0  0  0  0  0  0  0
  138.1473  159.5815  130.8573 H   0  0  0  0  0  0  0  0  0  0  0  0
  139.7799  159.7584  130.1293 H   0  0  0  0  0  0  0  0  0  0  0  0
  138.9651  158.1575  130.1293 H   0  0  0  0  0  0  0  0  0  0  0  0
  139.0022  158.2831  133.9170 H   0  0  0  0  0  0  0  0  0  0  0  0
  137.7435  158.5177  132.6571 H   0  0  0  0  0  0  0  0  0  0  0  0
  138.7476  157.0282  132.6571 H   0  0  0  0  0  0  0  0  0  0  0  0
  147.0682  160.0924  132.9194 H   0  0  0  0  0  0  0  0  0  0  0  0
  1  2  1  0
  2  3  1  0
  3  4  2  0
  3  5  1  0
  5  6  1  0
  6  7  2  0
  7  8  1  0
  8  9  2  0
  9 10  1  0
 10 11  2  0
 11 12  1  0
 12 13  1  0
 12 14  2  0
 11 15  1  0
 15 16  1  0
 16 17  2  0
 16 18  1  0
 18 19  1  0
 19 20  1  0
 20 21  1  0
 21 22  1  0
 22 23  1  0
 22 24  1  0
 15 25  1  0
 25 26  2  0
 26  6  1  0
 25  9  1  0
  1 27  1  0
  1 28  1  0
  1 29  1  0
  5 30  1  0
  5 31  1  0
  7 32  1  0
  8 33  1  0
 10 34  1  0
 13 35  1  0
 13 36  1  0
 19 37  1  0
 19 38  1  0
 20 39  1  0
 20 40  1  0
 21 41  1  0
 21 42  1  0
 23 43  1  0
 23 44  1  0
 23 45  1  0
 24 46  1  0
 24 47  1  0
 24 48  1  0
 26 49  1  0
M  END
>  <UniqueID>  (92) 
92

>  <SMILES>  (92) 
COC(=O)Cc1ccc2cc(C(N)=O)n(C(=O)OCCCN(C)C)c2c1

>  <Energy>  (92) 
77.97204916197262

>  <Genealogy>  (92) 
COC(=O)Cc1ccc2cc(C(N)=O)n(C(=O)OCCCN(C)C)c2c1 (3D coordinates assigned)
COC(=O)Cc1ccc2cc(C(N)=O)n(C(=O)OCCCN(C)C)c2c1 (optimized conformer: 77.97204916197262 kcal/mol)

>  <smiles>  (92) 
COC(=O)Cc1ccc2cc(C(N)=O)n(C(=O)OCCCN(C)C)c2c1

>  <score_type>  (92) 
oracle

>  <origin>  (92) 
adg

>  <m_score__min__energy>  (92) 
-7.0999999999999996

>  <m_primary>  (92) 
energy

$$$$
92:0
     RDKit          3D

 40 41  0  0  0  0  0  0  0  0999 V2000
  142.6110  157.1240  132.6930 N   0  0  0  0  0  0  0  0  0  0  0  0
  143.2680  156.0920  133.4230 C   0  0  0  0  0  0  0  0  0  0  0  0
  144.2600  156.3830  134.1440 O   0  0  0  0  0  0  0  0  0  0  0  0
  142.8390  154.6830  133.3020 C   0  0  0  0  0  0  0  0  0  0  0  0
  143.7310  153.6190  133.1860 C   0  0  0  0  0  0  0  0  0  0  0  0
  142.9460  152.5030  133.0050 C   0  0  0  0  0  0  0  0  0  0  0  0
  143.3100  151.1680  132.8510 C   0  0  0  0  0  0  0  0  0  0  0  0
  142.2840  150.2170  132.7190 C   0  0  0  0  0  0  0  0  0  0  0  0
  140.9230  150.6160  132.7410 C   0  0  0  0  0  0  0  0  0  0  0  0
  139.8330  149.5820  132.6480 C   0  0  0  0  0  0  0  0  0  0  0  0
  138.9320  149.8530  131.4460 C   0  0  0  0  0  0  0  0  0  0  0  0
  138.2670  148.6660  131.0930 O   0  0  0  0  0  0  0  0  0  0  0  0
  139.1340  147.9200  129.8440 S   0  0  0  0  0  0  0  0  0  0  0  0
  138.7520  148.5210  128.5190 O   0  0  0  0  0  0  0  0  0  0  0  0
  140.6020  148.1400  130.0730 O   0  0  0  0  0  0  0  0  0  0  0  0
  138.8300  146.2670  129.8230 O   0  0  0  0  0  0  0  0  0  0  0  0
  140.5930  151.9780  132.9110 C   0  0  0  0  0  0  0  0  0  0  0  0
  141.6360  152.9060  133.0220 C   0  0  0  0  0  0  0  0  0  0  0  0
  141.5520  154.2410  133.2090 N   0  0  0  0  0  0  0  0  0  0  0  0
  140.3450  155.0030  133.3610 C   0  0  0  0  0  0  0  0  0  0  0  0
  139.2390  154.5080  133.0090 O   0  0  0  0  0  0  0  0  0  0  0  0
  140.4050  156.3030  133.8750 O   0  0  0  0  0  0  0  0  0  0  0  0
  139.3800  157.2670  133.6630 C   0  0  0  0  0  0  0  0  0  0  0  0
  139.2890  158.1030  134.7930 O   0  0  0  0  0  0  0  0  0  0  0  0
  140.7550  158.9590  134.9470 P   0  0  1  0  0  0  0  0  0  0  0  0
  141.0680  159.6830  133.6570 O   0  0  0  0  0  0  0  0  0  0  0  0
  140.5950  160.0950  136.1910 O   0  0  0  0  0  0  0  0  0  0  0  0
  142.0190  157.8990  135.3270 O   0  0  0  0  0  0  0  0  0  0  0  0
  141.8860  157.7240  133.1450 H   0  0  0  0  0  0  0  0  0  0  0  0
  144.8293  153.6618  133.2298 H   0  0  0  0  0  0  0  0  0  0  0  0
  144.3679  150.8671  132.8332 H   0  0  0  0  0  0  0  0  0  0  0  0
  142.5385  149.1538  132.5975 H   0  0  0  0  0  0  0  0  0  0  0  0
  140.2882  148.5864  132.5406 H   0  0  0  0  0  0  0  0  0  0  0  0
  139.2242  149.6272  133.5631 H   0  0  0  0  0  0  0  0  0  0  0  0
  138.1935  150.6257  131.7060 H   0  0  0  0  0  0  0  0  0  0  0  0
  139.5398  150.2034  130.5987 H   0  0  0  0  0  0  0  0  0  0  0  0
  139.5428  152.3023  132.9552 H   0  0  0  0  0  0  0  0  0  0  0  0
  139.6215  157.8718  132.7765 H   0  0  0  0  0  0  0  0  0  0  0  0
  138.4192  156.7556  133.5035 H   0  0  0  0  0  0  0  0  0  0  0  0
  142.1920  157.4010  134.4880 H   0  0  0  0  0  0  0  0  0  0  0  0
  1  2  1  0
  2  3  2  0
  2  4  1  0
  4  5  2  0
  5  6  1  0
  6  7  2  0
  7  8  1  0
  8  9  2  0
  9 10  1  0
 10 11  1  0
 11 12  1  0
 12 13  1  0
 13 14  2  0
 13 15  2  0
 13 16  1  0
  9 17  1  0
 17 18  2  0
 18 19  1  0
 19 20  1  0
 20 21  2  0
 20 22  1  0
 22 23  1  0
 23 24  1  0
 24 25  1  0
 25 26  2  0
 25 27  1  1
 25 28  1  0
 19  4  1  0
 18  6  1  0
  1 29  1  0
  5 30  1  0
  7 31  1  0
  8 32  1  0
 10 33  1  0
 10 34  1  0
 11 35  1  0
 11 36  1  0
 17 37  1  0
 23 38  1  0
 23 39  1  0
 28 40  1  0
M  CHG  3   1  -1  16  -1  27  -1
M  END
>  <UniqueID>  (93) 
93

>  <SMILES>  (93) 
[NH-]C(=O)c1cc2ccc(CCOS(=O)(=O)[O-])cc2n1C(=O)OCO[P@@](=O)([O-])O

>  <Energy>  (93) 
72.95213966956005

>  <Genealogy>  (93) 
[NH-]C(=O)c1cc2ccc(CCOS(=O)(=O)[O-])cc2n1C(=O)OCOP(=O)([O-])O (protonated)
[NH-]C(=O)c1cc2ccc(CCOS(=O)(=O)[O-])cc2n1C(=O)OCO[P@@](=O)([O-])O (chirality)
[NH-]C(=O)c1cc2ccc(CCOS(=O)(=O)[O-])cc2n1C(=O)OCO[P@@](=O)([O-])O (3D coordinates assigned)
[NH-]C(=O)c1cc2ccc(CCOS(=O)(=O)[O-])cc2n1C(=O)OCO[P@@](=O)([O-])O (optimized conformer: 72.95213966956005 kcal/mol)

>  <smiles>  (93) 
NC(=O)c1cc2ccc(CCOS(=O)(=O)O)cc2n1C(=O)OCOP(=O)(O)O

>  <score_type>  (93) 
oracle

>  <origin>  (93) 
adg

>  <m_score__min__energy>  (93) 
-6.9500000000000002

>  <m_primary>  (93) 
energy

$$$$
93:0
     RDKit          3D

 38 40  0  0  0  0  0  0  0  0999 V2000
  138.0250  159.4100  131.4680 C   0  0  0  0  0  0  0  0  0  0  0  0
  139.2680  159.4260  132.2940 C   0  0  0  0  0  0  0  0  0  0  0  0
  140.1910  160.3570  132.2420 O   0  0  0  0  0  0  0  0  0  0  0  0
  141.0980  160.0140  133.1270 C   0  0  0  0  0  0  0  0  0  0  0  0
  142.1410  160.6810  133.3540 O   0  0  0  0  0  0  0  0  0  0  0  0
  140.7970  158.8980  133.7530 O   0  0  0  0  0  0  0  0  0  0  0  0
  139.6510  158.5030  133.2510 C   0  0  0  0  0  0  0  0  0  0  0  0
  138.9140  157.2740  133.6710 C   0  0  0  0  0  0  0  0  0  0  0  0
  139.8500  156.2870  134.0860 O   0  0  0  0  0  0  0  0  0  0  0  0
  140.0690  155.1030  133.3770 C   0  0  0  0  0  0  0  0  0  0  0  0
  139.1010  154.4970  132.8410 O   0  0  0  0  0  0  0  0  0  0  0  0
  141.4020  154.5780  133.2570 N   0  0  0  0  0  0  0  0  0  0  0  0
  142.5760  155.2540  133.4070 C   0  0  0  0  0  0  0  0  0  0  0  0
  142.7200  156.7140  133.5660 C   0  0  0  0  0  0  0  0  0  0  0  0
  142.5860  157.5970  132.4520 N   0  0  0  0  0  0  0  0  0  0  0  0
  143.0210  157.1860  134.6950 O   0  0  0  0  0  0  0  0  0  0  0  0
  143.6590  154.3830  133.3310 C   0  0  0  0  0  0  0  0  0  0  0  0
  143.1090  153.1410  133.1110 C   0  0  0  0  0  0  0  0  0  0  0  0
  143.7300  151.9050  132.9500 C   0  0  0  0  0  0  0  0  0  0  0  0
  142.9150  150.7780  132.7600 C   0  0  0  0  0  0  0  0  0  0  0  0
  141.5000  150.8960  132.7600 C   0  0  0  0  0  0  0  0  0  0  0  0
  140.6370  149.6840  132.5170 C   0  0  0  0  0  0  0  0  0  0  0  0
  141.3170  148.7400  131.7680 F   0  0  0  0  0  0  0  0  0  0  0  0
  139.4980  150.0670  131.8330 F   0  0  0  0  0  0  0  0  0  0  0  0
  140.2670  149.1010  133.7170 F   0  0  0  0  0  0  0  0  0  0  0  0
  140.9090  152.1720  132.9060 C   0  0  0  0  0  0  0  0  0  0  0  0
  141.7460  153.2830  133.0720 C   0  0  0  0  0  0  0  0  0  0  0  0
  137.1457  159.3987  132.1289 H   0  0  0  0  0  0  0  0  0  0  0  0
  137.9950  160.3078  130.8332 H   0  0  0  0  0  0  0  0  0  0  0  0
  138.0181  158.5117  130.8332 H   0  0  0  0  0  0  0  0  0  0  0  0
  138.2401  157.5163  134.5060 H   0  0  0  0  0  0  0  0  0  0  0  0
  138.3225  156.8908  132.8265 H   0  0  0  0  0  0  0  0  0  0  0  0
  142.5060  157.2270  131.4780 H   0  0  0  0  0  0  0  0  0  0  0  0
  142.6530  158.6290  132.5900 H   0  0  0  0  0  0  0  0  0  0  0  0
  144.7258  154.6337  133.4263 H   0  0  0  0  0  0  0  0  0  0  0  0
  144.8261  151.8146  132.9711 H   0  0  0  0  0  0  0  0  0  0  0  0
  143.3781  149.7917  132.6093 H   0  0  0  0  0  0  0  0  0  0  0  0
  139.8155  152.2899  132.8896 H   0  0  0  0  0  0  0  0  0  0  0  0
  1  2  1  0
  2  3  1  0
  3  4  1  0
  4  5  2  0
  4  6  1  0
  6  7  1  0
  7  8  1  0
  8  9  1  0
  9 10  1  0
 10 11  2  0
 10 12  1  0
 12 13  1  0
 13 14  1  0
 14 15  1  0
 14 16  2  0
 13 17  2  0
 17 18  1  0
 18 19  2  0
 19 20  1  0
 20 21  2  0
 21 22  1  0
 22 23  1  0
 22 24  1  0
 22 25  1  0
 21 26  1  0
 26 27  2  0
  7  2  2  0
 27 12  1  0
 27 18  1  0
  1 28  1  0
  1 29  1  0
  1 30  1  0
  8 31  1  0
  8 32  1  0
 15 33  1  0
 15 34  1  0
 17 35  1  0
 19 36  1  0
 20 37  1  0
 26 38  1  0
M  END
>  <UniqueID>  (94) 
94

>  <SMILES>  (94) 
Cc1oc(=O)oc1COC(=O)n1c(C(N)=O)cc2ccc(C(F)(F)F)cc21

>  <Energy>  (94) 
108.80158115266826

>  <Genealogy>  (94) 
Cc1oc(=O)oc1COC(=O)n1c(C(N)=O)cc2ccc(C(F)(F)F)cc21 (3D coordinates assigned)
Cc1oc(=O)oc1COC(=O)n1c(C(N)=O)cc2ccc(C(F)(F)F)cc21 (optimized conformer: 108.80158115266826 kcal/mol)

>  <smiles>  (94) 
Cc1oc(=O)oc1COC(=O)n1c(C(N)=O)cc2ccc(C(F)(F)F)cc21

>  <score_type>  (94) 
oracle

>  <origin>  (94) 
adg

>  <m_score__min__energy>  (94) 
-6.75

>  <m_primary>  (94) 
energy

$$$$
94:0
     RDKit          3D

 38 39  0  0  0  0  0  0  0  0999 V2000
  144.3940  154.5720  131.6590 C   0  0  0  0  0  0  0  0  0  0  0  0
  145.5370  154.8300  132.6280 C   0  0  0  0  0  0  0  0  0  0  0  0
  146.3940  155.8340  132.0940 O   0  0  0  0  0  0  0  0  0  0  0  0
  147.2190  156.6270  132.8950 C   0  0  0  0  0  0  0  0  0  0  0  0
  148.1350  156.1000  133.5840 O   0  0  0  0  0  0  0  0  0  0  0  0
  147.0040  158.0460  132.9550 N   0  0  0  0  0  0  0  0  0  0  0  0
  147.9060  159.0420  132.7190 C   0  0  0  0  0  0  0  0  0  0  0  0
  149.2750  158.8690  132.1920 C   0  0  0  0  0  0  0  0  0  0  0  0
  149.8350  157.5700  132.0140 N   0  0  0  0  0  0  0  0  0  0  0  0
  149.9420  159.8790  131.8460 O   0  0  0  0  0  0  0  0  0  0  0  0
  147.3330  160.2870  132.9660 C   0  0  0  0  0  0  0  0  0  0  0  0
  146.0390  160.0240  133.3530 C   0  0  0  0  0  0  0  0  0  0  0  0
  145.0200  160.8960  133.7200 C   0  0  0  0  0  0  0  0  0  0  0  0
  143.7840  160.3450  134.0970 C   0  0  0  0  0  0  0  0  0  0  0  0
  143.5900  158.9370  134.1190 C   0  0  0  0  0  0  0  0  0  0  0  0
  142.2550  158.3300  134.5150 C   0  0  1  0  0  0  0  0  0  0  0  0
  141.3090  159.3660  135.1390 C   0  0  0  0  0  0  0  0  0  0  0  0
  141.6000  157.5930  133.3340 C   0  0  0  0  0  0  0  0  0  0  0  0
  141.0140  158.4980  132.4390 O   0  0  0  0  0  0  0  0  0  0  0  0
  144.6530  158.0870  133.7300 C   0  0  0  0  0  0  0  0  0  0  0  0
  145.8660  158.6650  133.3390 C   0  0  0  0  0  0  0  0  0  0  0  0
  143.4737  154.3643  132.2245 H   0  0  0  0  0  0  0  0  0  0  0  0
  144.2430  155.4587  131.0257 H   0  0  0  0  0  0  0  0  0  0  0  0
  144.6385  153.7064  131.0257 H   0  0  0  0  0  0  0  0  0  0  0  0
  145.1308  155.1695  133.5923 H   0  0  0  0  0  0  0  0  0  0  0  0
  146.1080  153.9017  132.7773 H   0  0  0  0  0  0  0  0  0  0  0  0
  149.2240  156.7420  131.8340 H   0  0  0  0  0  0  0  0  0  0  0  0
  147.8132  161.2721  132.8717 H   0  0  0  0  0  0  0  0  0  0  0  0
  145.1770  161.9847  133.7153 H   0  0  0  0  0  0  0  0  0  0  0  0
  142.9557  161.0117  134.3788 H   0  0  0  0  0  0  0  0  0  0  0  0
  142.4596  157.5827  135.2958 H   0  0  0  0  0  0  0  0  0  0  0  0
  141.3673  159.3022  136.2356 H   0  0  0  0  0  0  0  0  0  0  0  0
  141.6042  160.3746  134.8142 H   0  0  0  0  0  0  0  0  0  0  0  0
  140.2778  159.1634  134.8142 H   0  0  0  0  0  0  0  0  0  0  0  0
  142.3673  157.0093  132.8043 H   0  0  0  0  0  0  0  0  0  0  0  0
  140.8144  156.9309  133.7269 H   0  0  0  0  0  0  0  0  0  0  0  0
  141.7160  158.7250  131.7770 H   0  0  0  0  0  0  0  0  0  0  0  0
  144.5281  156.9941  133.7349 H   0  0  0  0  0  0  0  0  0  0  0  0
  1  2  1  0
  2  3  1  0
  3  4  1  0
  4  5  2  0
  4  6  1  0
  6  7  1  0
  7  8  1  0
  8  9  1  0
  8 10  2  0
  7 11  2  0
 11 12  1  0
 12 13  2  0
 13 14  1  0
 14 15  2  0
 15 16  1  0
 16 17  1  0
 16 18  1  0
 18 19  1  0
 15 20  1  0
 20 21  2  0
 21  6  1  0
 21 12  1  0
  1 22  1  0
  1 23  1  0
  1 24  1  0
  2 25  1  0
  2 26  1  0
  9 27  1  0
 11 28  1  0
 13 29  1  0
 14 30  1  0
 16 31  1  1
 17 32  1  0
 17 33  1  0
 17 34  1  0
 18 35  1  0
 18 36  1  0
 19 37  1  0
 20 38  1  0
M  CHG  1   9  -1
M  END
>  <UniqueID>  (95) 
95

>  <SMILES>  (95) 
CCOC(=O)n1c(C([NH-])=O)cc2ccc([C@@H](C)CO)cc21

>  <Energy>  (95) 
69.77089894251674

>  <Genealogy>  (95) 
CCOC(=O)n1c(C([NH-])=O)cc2ccc([C@@H](C)CO)cc21 (protonated)
CCOC(=O)n1c(C([NH-])=O)cc2ccc([C@@H](C)CO)cc21 (3D coordinates assigned)
CCOC(=O)n1c(C([NH-])=O)cc2ccc([C@@H](C)CO)cc21 (optimized conformer: 69.77089894251674 kcal/mol)

>  <smiles>  (95) 
CCOC(=O)n1c(C(N)=O)cc2ccc([C@@H](C)CO)cc21

>  <score_type>  (95) 
oracle

>  <origin>  (95) 
adg

>  <m_score__min__energy>  (95) 
-5.9100000000000001

>  <m_primary>  (95) 
energy

$$$$
95:0
     RDKit          3D

 41 42  0  0  0  0  0  0  0  0999 V2000
  142.2740  156.9180  135.3740 C   0  0  0  0  0  0  0  0  0  0  0  0
  143.5730  157.1090  134.8260 O   0  0  0  0  0  0  0  0  0  0  0  0
  143.7920  157.7850  133.6210 C   0  0  0  0  0  0  0  0  0  0  0  0
  142.9700  157.6730  132.6690 O   0  0  0  0  0  0  0  0  0  0  0  0
  144.9380  158.6390  133.4810 N   0  0  0  0  0  0  0  0  0  0  0  0
  144.9900  159.9980  133.5890 C   0  0  0  0  0  0  0  0  0  0  0  0
  143.8280  160.9070  133.6980 C   0  0  0  0  0  0  0  0  0  0  0  0
  142.5170  160.4680  133.3520 N   0  0  0  0  0  0  0  0  0  0  0  0
  144.0030  162.1080  134.0480 O   0  0  0  0  0  0  0  0  0  0  0  0
  146.3050  160.4460  133.4730 C   0  0  0  0  0  0  0  0  0  0  0  0
  147.0620  159.3120  133.2790 C   0  0  0  0  0  0  0  0  0  0  0  0
  148.4350  159.1740  133.1030 C   0  0  0  0  0  0  0  0  0  0  0  0
  148.9470  157.8770  132.9330 C   0  0  0  0  0  0  0  0  0  0  0  0
  148.0830  156.7580  132.9490 C   0  0  0  0  0  0  0  0  0  0  0  0
  148.6140  155.4360  132.7500 C   0  0  0  0  0  0  0  0  0  0  0  0
  149.0530  154.3280  132.5690 C   0  0  0  0  0  0  0  0  0  0  0  0
  149.5990  152.9810  132.3620 C   0  0  0  0  0  0  0  0  0  0  0  0
  148.9830  152.0210  133.3450 C   0  0  0  0  0  0  0  0  0  0  0  0
  149.2120  152.1620  134.5370 O   0  0  0  0  0  0  0  0  0  0  0  0
  148.1260  150.9380  132.8930 N   0  0  0  0  0  0  0  0  0  0  0  0
  148.9020  149.9900  132.0780 C   0  0  0  0  0  0  0  0  0  0  0  0
  146.9830  151.4730  132.1290 C   0  0  0  0  0  0  0  0  0  0  0  0
  146.6970  156.9320  133.1370 C   0  0  0  0  0  0  0  0  0  0  0  0
  146.2120  158.2360  133.2870 C   0  0  0  0  0  0  0  0  0  0  0  0
  142.3344  156.9269  136.4723 H   0  0  0  0  0  0  0  0  0  0  0  0
  141.6110  157.7283  135.0367 H   0  0  0  0  0  0  0  0  0  0  0  0
  141.8723  155.9511  135.0367 H   0  0  0  0  0  0  0  0  0  0  0  0
  142.3690  159.7630  132.5970 H   0  0  0  0  0  0  0  0  0  0  0  0
  146.6623  161.4850  133.5253 H   0  0  0  0  0  0  0  0  0  0  0  0
  149.0980  160.0517  133.0971 H   0  0  0  0  0  0  0  0  0  0  0  0
  150.0274  157.7310  132.7864 H   0  0  0  0  0  0  0  0  0  0  0  0
  149.3729  152.6493  131.3379 H   0  0  0  0  0  0  0  0  0  0  0  0
  150.6883  153.0048  132.5135 H   0  0  0  0  0  0  0  0  0  0  0  0
  147.7430  150.4120  133.7150 H   0  0  0  0  0  0  0  0  0  0  0  0
  149.4592  149.3093  132.7384 H   0  0  0  0  0  0  0  0  0  0  0  0
  148.2184  149.4071  131.4432 H   0  0  0  0  0  0  0  0  0  0  0  0
  149.6084  150.5449  131.4432 H   0  0  0  0  0  0  0  0  0  0  0  0
  146.2125  151.8337  132.8263 H   0  0  0  0  0  0  0  0  0  0  0  0
  147.3229  152.3056  131.4955 H   0  0  0  0  0  0  0  0  0  0  0  0
  146.5614  150.6787  131.4955 H   0  0  0  0  0  0  0  0  0  0  0  0
  146.0166  156.0682  133.1650 H   0  0  0  0  0  0  0  0  0  0  0  0
  1  2  1  0
  2  3  1  0
  3  4  2  0
  3  5  1  0
  5  6  1  0
  6  7  1  0
  7  8  1  0
  7  9  2  0
  6 10  2  0
 10 11  1  0
 11 12  2  0
 12 13  1  0
 13 14  2  0
 14 15  1  0
 15 16  3  0
 16 17  1  0
 17 18  1  0
 18 19  2  0
 18 20  1  0
 20 21  1  0
 20 22  1  0
 14 23  1  0
 23 24  2  0
 24  5  1  0
 24 11  1  0
  1 25  1  0
  1 26  1  0
  1 27  1  0
  8 28  1  0
 10 29  1  0
 12 30  1  0
 13 31  1  0
 17 32  1  0
 17 33  1  0
 20 34  1  0
 21 35  1  0
 21 36  1  0
 21 37  1  0
 22 38  1  0
 22 39  1  0
 22 40  1  0
 23 41  1  0
M  CHG  2   8  -1  20   1
M  END
>  <UniqueID>  (96) 
96

>  <SMILES>  (96) 
COC(=O)n1c(C([NH-])=O)cc2ccc(C#CCC(=O)[NH+](C)C)cc21

>  <Energy>  (96) 
71.80395990549125

>  <Genealogy>  (96) 
COC(=O)n1c(C([NH-])=O)cc2ccc(C#CCC(=O)[NH+](C)C)cc21 (protonated)
COC(=O)n1c(C([NH-])=O)cc2ccc(C#CCC(=O)[NH+](C)C)cc21 (3D coordinates assigned)
COC(=O)n1c(C([NH-])=O)cc2ccc(C#CCC(=O)[NH+](C)C)cc21 (optimized conformer: 71.80395990549125 kcal/mol)

>  <smiles>  (96) 
COC(=O)n1c(C(N)=O)cc2ccc(C#CCC(=O)N(C)C)cc21

>  <score_type>  (96) 
oracle

>  <origin>  (96) 
adg

>  <m_score__min__energy>  (96) 
-6.8300000000000001

>  <m_primary>  (96) 
energy

$$$$
96:0
     RDKit          3D

 36 37  0  0  0  0  0  0  0  0999 V2000
  139.4800  157.1180  134.2830 C   0  0  0  0  0  0  0  0  0  0  0  0
  140.5240  156.2840  133.5360 C   0  0  0  0  0  0  0  0  0  0  0  0
  141.6200  157.1840  132.9690 C   0  0  0  0  0  0  0  0  0  0  0  0
  141.1210  155.3360  134.4220 O   0  0  0  0  0  0  0  0  0  0  0  0
  142.0410  155.6800  135.4180 C   0  0  0  0  0  0  0  0  0  0  0  0
  143.2730  155.7490  135.1540 O   0  0  0  0  0  0  0  0  0  0  0  0
  141.5790  155.9330  136.7550 N   0  0  0  0  0  0  0  0  0  0  0  0
  141.3600  157.1370  137.3560 C   0  0  0  0  0  0  0  0  0  0  0  0
  141.4220  158.4600  136.6990 C   0  0  0  0  0  0  0  0  0  0  0  0
  142.3430  158.6800  135.6320 N   0  0  0  0  0  0  0  0  0  0  0  0
  140.6960  159.4100  137.0920 O   0  0  0  0  0  0  0  0  0  0  0  0
  140.9830  156.9570  138.6850 C   0  0  0  0  0  0  0  0  0  0  0  0
  140.9690  155.5960  138.8800 C   0  0  0  0  0  0  0  0  0  0  0  0
  140.6810  154.8580  140.0250 C   0  0  0  0  0  0  0  0  0  0  0  0
  140.7790  153.4580  139.9480 C   0  0  0  0  0  0  0  0  0  0  0  0
  141.1580  152.8260  138.7380 C   0  0  0  0  0  0  0  0  0  0  0  0
  141.3040  151.3320  138.6810 C   0  0  0  0  0  0  0  0  0  0  0  0
  140.3180  150.7550  137.7170 C   0  0  0  0  0  0  0  0  0  0  0  0
  139.2460  150.2470  138.1370 O   0  0  0  0  0  0  0  0  0  0  0  0
  140.6050  150.7340  136.3580 O   0  0  0  0  0  0  0  0  0  0  0  0
  141.4550  153.6090  137.6000 C   0  0  0  0  0  0  0  0  0  0  0  0
  141.3320  155.0000  137.7000 C   0  0  0  0  0  0  0  0  0  0  0  0
  139.6253  157.0019  135.3672 H   0  0  0  0  0  0  0  0  0  0  0  0
  139.5928  158.1774  134.0093 H   0  0  0  0  0  0  0  0  0  0  0  0
  138.4717  156.7740  134.0093 H   0  0  0  0  0  0  0  0  0  0  0  0
  140.0174  155.7587  132.7129 H   0  0  0  0  0  0  0  0  0  0  0  0
  142.1807  157.6444  133.7959 H   0  0  0  0  0  0  0  0  0  0  0  0
  142.3043  156.5838  132.3514 H   0  0  0  0  0  0  0  0  0  0  0  0
  141.1644  157.9720  132.3514 H   0  0  0  0  0  0  0  0  0  0  0  0
  142.8360  157.8820  135.1760 H   0  0  0  0  0  0  0  0  0  0  0  0
  140.7466  157.7383  139.4223 H   0  0  0  0  0  0  0  0  0  0  0  0
  140.3859  155.3552  140.9608 H   0  0  0  0  0  0  0  0  0  0  0  0
  140.5593  152.8470  140.8359 H   0  0  0  0  0  0  0  0  0  0  0  0
  142.3232  151.0784  138.3541 H   0  0  0  0  0  0  0  0  0  0  0  0
  141.1162  150.9139  139.6810 H   0  0  0  0  0  0  0  0  0  0  0  0
  141.7748  153.1375  136.6591 H   0  0  0  0  0  0  0  0  0  0  0  0
  1  2  1  0
  2  3  1  0
  2  4  1  0
  4  5  1  0
  5  6  2  0
  5  7  1  0
  7  8  1  0
  8  9  1  0
  9 10  1  0
  9 11  2  0
  8 12  2  0
 12 13  1  0
 13 14  2  0
 14 15  1  0
 15 16  2  0
 16 17  1  0
 17 18  1  0
 18 19  2  0
 18 20  1  0
 16 21  1  0
 21 22  2  0
 22  7  1  0
 22 13  1  0
  1 23  1  0
  1 24  1  0
  1 25  1  0
  2 26  1  0
  3 27  1  0
  3 28  1  0
  3 29  1  0
 10 30  1  0
 12 31  1  0
 14 32  1  0
 15 33  1  0
 17 34  1  0
 17 35  1  0
 21 36  1  0
M  CHG  2  10  -1  20  -1
M  END
>  <UniqueID>  (97) 
97

>  <SMILES>  (97) 
CC(C)OC(=O)n1c(C([NH-])=O)cc2ccc(CC(=O)[O-])cc21

>  <Energy>  (97) 
66.739832155957

>  <Genealogy>  (97) 
CC(C)OC(=O)n1c(C([NH-])=O)cc2ccc(CC(=O)[O-])cc21 (protonated)
CC(C)OC(=O)n1c(C([NH-])=O)cc2ccc(CC(=O)[O-])cc21 (3D coordinates assigned)
CC(C)OC(=O)n1c(C([NH-])=O)cc2ccc(CC(=O)[O-])cc21 (optimized conformer: 66.739832155957 kcal/mol)

>  <smiles>  (97) 
CC(C)OC(=O)n1c(C(N)=O)cc2ccc(CC(=O)O)cc21

>  <score_type>  (97) 
oracle

>  <origin>  (97) 
adg

>  <m_score__min__energy>  (97) 
-6.7699999999999996

>  <m_primary>  (97) 
energy

$$$$
97:0
     RDKit          3D

 43 45  0  0  0  0  0  0  0  0999 V2000
  139.0970  157.8340  133.4800 C   0  0  0  0  0  0  0  0  0  0  0  0
  139.6600  158.2080  132.1670 N   0  0  0  0  0  0  0  0  0  0  0  0
  138.5860  158.2720  131.1590 C   0  0  0  0  0  0  0  0  0  0  0  0
  138.1310  159.7290  131.0350 C   0  0  0  0  0  0  0  0  0  0  0  0
  139.1200  160.5400  131.8540 C   0  0  0  0  0  0  0  0  0  0  0  0
  140.2520  159.5620  132.1370 C   0  0  1  0  0  0  0  0  0  0  0  0
  141.1580  159.9240  133.3380 C   0  0  0  0  0  0  0  0  0  0  0  0
  142.5480  159.7970  133.0360 O   0  0  0  0  0  0  0  0  0  0  0  0
  143.5020  159.2890  133.9250 C   0  0  0  0  0  0  0  0  0  0  0  0
  143.1510  158.5500  134.8860 O   0  0  0  0  0  0  0  0  0  0  0  0
  144.8870  159.6230  133.7460 N   0  0  0  0  0  0  0  0  0  0  0  0
  145.4610  160.8610  133.7640 C   0  0  0  0  0  0  0  0  0  0  0  0
  144.7830  162.1300  134.1040 C   0  0  0  0  0  0  0  0  0  0  0  0
  143.5950  162.5060  133.4120 N   0  0  0  0  0  0  0  0  0  0  0  0
  145.2610  162.9060  134.9720 O   0  0  0  0  0  0  0  0  0  0  0  0
  146.8260  160.7710  133.5020 C   0  0  0  0  0  0  0  0  0  0  0  0
  147.0770  159.4290  133.3330 C   0  0  0  0  0  0  0  0  0  0  0  0
  148.2720  158.7710  133.0630 C   0  0  0  0  0  0  0  0  0  0  0  0
  148.2390  157.3730  132.9280 C   0  0  0  0  0  0  0  0  0  0  0  0
  147.0160  156.6620  133.0400 C   0  0  0  0  0  0  0  0  0  0  0  0
  146.9990  155.1580  132.9350 C   0  0  0  0  0  0  0  0  0  0  0  0
  145.8740  154.7650  132.2350 F   0  0  0  0  0  0  0  0  0  0  0  0
  148.1250  154.7020  132.2700 F   0  0  0  0  0  0  0  0  0  0  0  0
  146.9750  154.5790  134.1920 F   0  0  0  0  0  0  0  0  0  0  0  0
  145.8260  157.3660  133.3390 C   0  0  0  0  0  0  0  0  0  0  0  0
  145.8920  158.7580  133.4850 C   0  0  0  0  0  0  0  0  0  0  0  0
  139.7253  158.2514  134.2807 H   0  0  0  0  0  0  0  0  0  0  0  0
  138.0762  158.2342  133.5687 H   0  0  0  0  0  0  0  0  0  0  0  0
  139.0701  156.7379  133.5687 H   0  0  0  0  0  0  0  0  0  0  0  0
  138.9641  157.9163  130.1892 H   0  0  0  0  0  0  0  0  0  0  0  0
  137.7420  157.6353  131.4627 H   0  0  0  0  0  0  0  0  0  0  0  0
  138.1513  160.0488  129.9827 H   0  0  0  0  0  0  0  0  0  0  0  0
  137.1000  159.8641  131.3938 H   0  0  0  0  0  0  0  0  0  0  0  0
  139.4849  161.4056  131.2816 H   0  0  0  0  0  0  0  0  0  0  0  0
  138.6743  160.9494  132.7725 H   0  0  0  0  0  0  0  0  0  0  0  0
  140.9936  159.6148  131.3263 H   0  0  0  0  0  0  0  0  0  0  0  0
  140.9550  160.9646  133.6313 H   0  0  0  0  0  0  0  0  0  0  0  0
  140.9286  159.2206  134.1520 H   0  0  0  0  0  0  0  0  0  0  0  0
  142.7430  161.9020  133.4400 H   0  0  0  0  0  0  0  0  0  0  0  0
  147.5496  161.5974  133.4428 H   0  0  0  0  0  0  0  0  0  0  0  0
  149.2146  159.3283  132.9583 H   0  0  0  0  0  0  0  0  0  0  0  0
  149.1717  156.8233  132.7333 H   0  0  0  0  0  0  0  0  0  0  0  0
  144.8708  156.8329  133.4543 H   0  0  0  0  0  0  0  0  0  0  0  0
  1  2  1  0
  2  3  1  0
  3  4  1  0
  4  5  1  0
  5  6  1  0
  6  7  1  0
  7  8  1  0
  8  9  1  0
  9 10  2  0
  9 11  1  0
 11 12  1  0
 12 13  1  0
 13 14  1  0
 13 15  2  0
 12 16  2  0
 16 17  1  0
 17 18  2  0
 18 19  1  0
 19 20  2  0
 20 21  1  0
 21 22  1  0
 21 23  1  0
 21 24  1  0
 20 25  1  0
 25 26  2  0
  6  2  1  0
 26 11  1  0
 26 17  1  0
  1 27  1  0
  1 28  1  0
  1 29  1  0
  3 30  1  0
  3 31  1  0
  4 32  1  0
  4 33  1  0
  5 34  1  0
  5 35  1  0
  6 36  1  6
  7 37  1  0
  7 38  1  0
 14 39  1  0
 16 40  1  0
 18 41  1  0
 19 42  1  0
 25 43  1  0
M  CHG  1  14  -1
M  END
>  <UniqueID>  (98) 
98

>  <SMILES>  (98) 
CN1CCC[C@H]1COC(=O)n1c(C([NH-])=O)cc2ccc(C(F)(F)F)cc21

>  <Energy>  (98) 
90.24294619324922

>  <Genealogy>  (98) 
CN1CCC[C@H]1COC(=O)n1c(C([NH-])=O)cc2ccc(C(F)(F)F)cc21 (protonated)
CN1CCC[C@H]1COC(=O)n1c(C([NH-])=O)cc2ccc(C(F)(F)F)cc21 (3D coordinates assigned)
CN1CCC[C@H]1COC(=O)n1c(C([NH-])=O)cc2ccc(C(F)(F)F)cc21 (nonaromatic ring conformer: 90.24294619324922 kcal/mol)

>  <smiles>  (98) 
CN1CCC[C@H]1COC(=O)n1c(C(N)=O)cc2ccc(C(F)(F)F)cc21

>  <score_type>  (98) 
oracle

>  <origin>  (98) 
adg

>  <m_score__min__energy>  (98) 
-7.3700000000000001

>  <m_primary>  (98) 
energy

$$$$
