0:0
     RDKit          3D

 42 44  0  0  0  0  0  0  0  0999 V2000
  149.1200  157.4930  131.8460 N   0  0  0  0  0  0  0  0  0  0  0  0
  148.7330  158.7120  132.4830 C   0  0  0  0  0  0  0  0  0  0  0  0
  149.5980  159.6100  132.6680 O   0  0  0  0  0  0  0  0  0  0  0  0
  147.3340  158.9610  132.8820 C   0  0  0  0  0  0  0  0  0  0  0  0
  146.7960  160.2350  133.0520 C   0  0  0  0  0  0  0  0  0  0  0  0
  145.4840  160.0300  133.4100 C   0  0  0  0  0  0  0  0  0  0  0  0
  144.4920  160.9510  133.7340 C   0  0  0  0  0  0  0  0  0  0  0  0
  143.2400  160.4570  134.1320 C   0  0  0  0  0  0  0  0  0  0  0  0
  143.0070  159.0620  134.2190 C   0  0  0  0  0  0  0  0  0  0  0  0
  141.6710  158.5460  134.6960 C   0  0  0  0  0  0  0  0  0  0  0  0
  140.9290  157.6240  133.6910 C   0  0  0  0  0  0  0  0  0  0  0  0
  141.0130  158.1140  132.2280 C   0  0  0  0  0  0  0  0  0  0  0  0
  139.8950  159.1120  131.8460 C   0  0  0  0  0  0  0  0  0  0  0  0
  138.9730  159.3480  132.8940 O   0  0  0  0  0  0  0  0  0  0  0  0
  138.4290  158.1230  133.3370 C   0  0  0  0  0  0  0  0  0  0  0  0
  139.4740  157.2970  134.1070 C   0  0  0  0  0  0  0  0  0  0  0  0
  144.0350  158.1580  133.8690 C   0  0  0  0  0  0  0  0  0  0  0  0
  145.2660  158.6770  133.4540 C   0  0  0  0  0  0  0  0  0  0  0  0
  146.3930  158.0060  133.1270 N   0  0  0  0  0  0  0  0  0  0  0  0
  146.6040  156.5850  133.1970 C   0  0  0  0  0  0  0  0  0  0  0  0
  146.6320  155.9090  132.1340 O   0  0  0  0  0  0  0  0  0  0  0  0
  146.7900  155.8880  134.5120 C   0  0  0  0  0  0  0  0  0  0  0  0
  147.8050  156.4850  135.2380 F   0  0  0  0  0  0  0  0  0  0  0  0
  145.6180  155.9570  135.2440 F   0  0  0  0  0  0  0  0  0  0  0  0
  150.1240  157.3150  131.6240 H   0  0  0  0  0  0  0  0  0  0  0  0
  148.4080  156.8120  131.5040 H   0  0  0  0  0  0  0  0  0  0  0  0
  147.3108  161.1990  132.9266 H   0  0  0  0  0  0  0  0  0  0  0  0
  144.6834  162.0329  133.6798 H   0  0  0  0  0  0  0  0  0  0  0  0
  142.4310  161.1602  134.3790 H   0  0  0  0  0  0  0  0  0  0  0  0
  141.8356  157.9779  135.6234 H   0  0  0  0  0  0  0  0  0  0  0  0
  141.0307  159.4297  134.8342 H   0  0  0  0  0  0  0  0  0  0  0  0
  141.4822  156.6741  133.7329 H   0  0  0  0  0  0  0  0  0  0  0  0
  141.9851  158.6075  132.0815 H   0  0  0  0  0  0  0  0  0  0  0  0
  140.8919  157.2307  131.5837 H   0  0  0  0  0  0  0  0  0  0  0  0
  140.3611  160.0691  131.5689 H   0  0  0  0  0  0  0  0  0  0  0  0
  139.3329  158.6677  131.0114 H   0  0  0  0  0  0  0  0  0  0  0  0
  137.5748  158.3281  133.9991 H   0  0  0  0  0  0  0  0  0  0  0  0
  138.1077  157.5459  132.4574 H   0  0  0  0  0  0  0  0  0  0  0  0
  139.3617  157.5036  135.1816 H   0  0  0  0  0  0  0  0  0  0  0  0
  139.2945  156.2375  133.8718 H   0  0  0  0  0  0  0  0  0  0  0  0
  143.8712  157.0715  133.9216 H   0  0  0  0  0  0  0  0  0  0  0  0
  147.0534  154.8382  134.3154 H   0  0  0  0  0  0  0  0  0  0  0  0
  1  2  1  0
  2  3  2  0
  2  4  1  0
  4  5  2  0
  5  6  1  0
  6  7  2  0
  7  8  1  0
  8  9  2  0
  9 10  1  0
 10 11  1  0
 11 12  1  0
 12 13  1  0
 13 14  1  0
 14 15  1  0
 15 16  1  0
  9 17  1  0
 17 18  2  0
 18 19  1  0
 19 20  1  0
 20 21  2  0
 20 22  1  0
 22 23  1  0
 22 24  1  0
 19  4  1  0
 18  6  1  0
 16 11  1  0
  1 25  1  0
  1 26  1  0
  5 27  1  0
  7 28  1  0
  8 29  1  0
 10 30  1  0
 10 31  1  0
 11 32  1  0
 12 33  1  0
 12 34  1  0
 13 35  1  0
 13 36  1  0
 15 37  1  0
 15 38  1  0
 16 39  1  0
 16 40  1  0
 17 41  1  0
 22 42  1  0
M  END
>  <UniqueID>  (1) 
1

>  <SMILES>  (1) 
NC(=O)c1cc2ccc(CC3CCOCC3)cc2n1C(=O)C(F)F

>  <Energy>  (1) 
90.29323694993143

>  <Genealogy>  (1) 
NC(=O)c1cc2ccc(CC3CCOCC3)cc2n1C(=O)C(F)F (3D coordinates assigned)
NC(=O)c1cc2ccc(CC3CCOCC3)cc2n1C(=O)C(F)F (nonaromatic ring conformer: 90.29323694993143 kcal/mol)

>  <smiles>  (1) 
NC(=O)c1cc2ccc(CC3CCOCC3)cc2n1C(=O)C(F)F

>  <score_type>  (1) 
oracle

>  <origin>  (1) 
adg

>  <m_score__min__energy>  (1) 
-7.3799999999999999

>  <m_primary>  (1) 
energy

$$$$
1:0
     RDKit          3D

 37 39  0  0  0  0  0  0  0  0999 V2000
  149.9270  160.5810  129.2260 C   0  0  0  0  0  0  0  0  0  0  0  0
  149.2860  160.1400  130.5000 C   0  0  0  0  0  0  0  0  0  0  0  0
  149.9730  159.4390  131.4890 C   0  0  0  0  0  0  0  0  0  0  0  0
  148.8890  159.1010  132.7310 S   0  0  0  0  0  0  0  0  0  0  0  0
  147.6020  159.8500  131.9520 C   0  0  0  0  0  0  0  0  0  0  0  0
  146.2800  159.9430  132.4980 N   0  0  0  0  0  0  0  0  0  0  0  0
  145.5940  158.8490  133.1250 C   0  0  0  0  0  0  0  0  0  0  0  0
  146.1960  157.7660  133.3590 O   0  0  0  0  0  0  0  0  0  0  0  0
  144.2260  159.0000  133.5310 N   0  0  0  0  0  0  0  0  0  0  0  0
  143.5910  160.1390  133.9310 C   0  0  0  0  0  0  0  0  0  0  0  0
  144.1500  161.5060  133.8780 C   0  0  0  0  0  0  0  0  0  0  0  0
  145.4660  161.7800  134.3490 N   0  0  0  0  0  0  0  0  0  0  0  0
  143.4700  162.4390  133.3710 O   0  0  0  0  0  0  0  0  0  0  0  0
  142.2870  159.8550  134.3330 C   0  0  0  0  0  0  0  0  0  0  0  0
  142.1380  158.4980  134.1530 C   0  0  0  0  0  0  0  0  0  0  0  0
  141.0430  157.6760  134.4050 C   0  0  0  0  0  0  0  0  0  0  0  0
  141.1810  156.3010  134.1510 C   0  0  0  0  0  0  0  0  0  0  0  0
  142.4000  155.7770  133.6500 C   0  0  0  0  0  0  0  0  0  0  0  0
  142.5470  154.2990  133.4240 C   0  0  0  0  0  0  0  0  0  0  0  0
  141.2080  153.6380  133.4560 C   0  0  0  0  0  0  0  0  0  0  0  0
  141.0040  152.6550  134.2180 O   0  0  0  0  0  0  0  0  0  0  0  0
  140.1970  154.0720  132.6080 O   0  0  0  0  0  0  0  0  0  0  0  0
  143.4920  156.6410  133.4170 C   0  0  0  0  0  0  0  0  0  0  0  0
  143.3210  158.0070  133.6670 C   0  0  0  0  0  0  0  0  0  0  0  0
  147.9680  160.3630  130.7570 N   0  0  0  0  0  0  0  0  0  0  0  0
  150.8136  161.1910  129.4536 H   0  0  0  0  0  0  0  0  0  0  0  0
  150.2289  159.6985  128.6428 H   0  0  0  0  0  0  0  0  0  0  0  0
  149.2108  161.1784  128.6428 H   0  0  0  0  0  0  0  0  0  0  0  0
  151.0358  159.1565  131.4626 H   0  0  0  0  0  0  0  0  0  0  0  0
  145.7890  160.8630  132.4320 H   0  0  0  0  0  0  0  0  0  0  0  0
  146.2390  162.0040  133.6850 H   0  0  0  0  0  0  0  0  0  0  0  0
  141.5367  160.5639  134.7131 H   0  0  0  0  0  0  0  0  0  0  0  0
  140.0997  158.0899  134.7907 H   0  0  0  0  0  0  0  0  0  0  0  0
  140.3352  155.6242  134.3426 H   0  0  0  0  0  0  0  0  0  0  0  0
  143.0146  154.1258  132.4435 H   0  0  0  0  0  0  0  0  0  0  0  0
  143.1766  153.8745  134.2198 H   0  0  0  0  0  0  0  0  0  0  0  0
  144.4521  156.2505  133.0486 H   0  0  0  0  0  0  0  0  0  0  0  0
  1  2  1  0
  2  3  2  0
  3  4  1  0
  4  5  1  0
  5  6  1  0
  6  7  1  0
  7  8  2  0
  7  9  1  0
  9 10  1  0
 10 11  1  0
 11 12  1  0
 11 13  2  0
 10 14  2  0
 14 15  1  0
 15 16  2  0
 16 17  1  0
 17 18  2  0
 18 19  1  0
 19 20  1  0
 20 21  2  0
 20 22  1  0
 18 23  1  0
 23 24  2  0
  5 25  2  0
 25  2  1  0
 24  9  1  0
 24 15  1  0
  1 26  1  0
  1 27  1  0
  1 28  1  0
  3 29  1  0
  6 30  1  0
 12 31  1  0
 14 32  1  0
 16 33  1  0
 17 34  1  0
 19 35  1  0
 19 36  1  0
 23 37  1  0
M  CHG  2  12  -1  22  -1
M  END
>  <UniqueID>  (2) 
2

>  <SMILES>  (2) 
Cc1csc(NC(=O)n2c(C([NH-])=O)cc3ccc(CC(=O)[O-])cc32)n1

>  <Energy>  (2) 
105.12901781281887

>  <Genealogy>  (2) 
Cc1csc(NC(=O)n2c(C([NH-])=O)cc3ccc(CC(=O)[O-])cc32)n1 (protonated)
Cc1csc(NC(=O)n2c(C([NH-])=O)cc3ccc(CC(=O)[O-])cc32)n1 (3D coordinates assigned)
Cc1csc(NC(=O)n2c(C([NH-])=O)cc3ccc(CC(=O)[O-])cc32)n1 (optimized conformer: 105.12901781281887 kcal/mol)

>  <smiles>  (2) 
Cc1csc(NC(=O)n2c(C(N)=O)cc3ccc(CC(=O)O)cc32)n1

>  <score_type>  (2) 
oracle

>  <origin>  (2) 
adg

>  <m_score__min__energy>  (2) 
-8.3800000000000008

>  <m_primary>  (2) 
energy

$$$$
2:0
     RDKit          3D

 53 55  0  0  0  0  0  0  0  0999 V2000
  147.5930  153.1730  137.6220 C   0  0  0  0  0  0  0  0  0  0  0  0
  146.9830  153.4490  136.3690 O   0  0  0  0  0  0  0  0  0  0  0  0
  147.2190  154.6280  135.6520 C   0  0  0  0  0  0  0  0  0  0  0  0
  147.9560  155.5200  136.1550 O   0  0  0  0  0  0  0  0  0  0  0  0
  146.6200  154.8160  134.3490 N   0  0  0  0  0  0  0  0  0  0  0  0
  147.0850  155.6250  133.3530 C   0  0  0  0  0  0  0  0  0  0  0  0
  148.3100  156.4330  133.4100 C   0  0  0  0  0  0  0  0  0  0  0  0
  148.4940  157.3820  134.4580 N   0  0  0  0  0  0  0  0  0  0  0  0
  149.1990  156.2850  132.5310 O   0  0  0  0  0  0  0  0  0  0  0  0
  146.2450  155.6030  132.2510 C   0  0  0  0  0  0  0  0  0  0  0  0
  145.2340  154.7380  132.5870 C   0  0  0  0  0  0  0  0  0  0  0  0
  144.1370  154.3270  131.8400 C   0  0  0  0  0  0  0  0  0  0  0  0
  143.2450  153.4150  132.4230 C   0  0  0  0  0  0  0  0  0  0  0  0
  143.4440  152.9470  133.7490 C   0  0  0  0  0  0  0  0  0  0  0  0
  142.5110  151.9310  134.3860 C   0  0  1  0  0  0  0  0  0  0  0  0
  141.5660  152.5490  135.4430 C   0  0  0  0  0  0  0  0  0  0  0  0
  142.1000  152.3160  136.8080 N   0  0  0  0  0  0  0  0  0  0  0  0
  142.9620  153.4390  137.2280 C   0  0  0  0  0  0  0  0  0  0  0  0
  141.0120  152.1010  137.7850 C   0  0  0  0  0  0  0  0  0  0  0  0
  140.3110  150.8030  137.5180 C   0  0  0  0  0  0  0  0  0  0  0  0
  139.4700  150.3550  138.3410 O   0  0  0  0  0  0  0  0  0  0  0  0
  140.5790  150.0960  136.3510 O   0  0  0  0  0  0  0  0  0  0  0  0
  141.7710  151.1520  133.3130 C   0  0  0  0  0  0  0  0  0  0  0  0
  142.3010  149.9680  132.7610 C   0  0  0  0  0  0  0  0  0  0  0  0
  141.5880  149.2560  131.7920 C   0  0  0  0  0  0  0  0  0  0  0  0
  140.3330  149.7080  131.3680 C   0  0  0  0  0  0  0  0  0  0  0  0
  139.6000  148.9740  130.3700 C   0  0  0  0  0  0  0  0  0  0  0  0
  139.0110  148.3840  129.5680 N   0  0  0  0  0  0  0  0  0  0  0  0
  139.7920  150.8750  131.9180 C   0  0  0  0  0  0  0  0  0  0  0  0
  140.5030  151.5890  132.8880 C   0  0  0  0  0  0  0  0  0  0  0  0
  144.5880  153.3750  134.4670 C   0  0  0  0  0  0  0  0  0  0  0  0
  145.4730  154.2770  133.8590 C   0  0  0  0  0  0  0  0  0  0  0  0
  146.9171  153.4788  138.4341 H   0  0  0  0  0  0  0  0  0  0  0  0
  147.7969  152.0950  137.7010 H   0  0  0  0  0  0  0  0  0  0  0  0
  148.5374  153.7315  137.7010 H   0  0  0  0  0  0  0  0  0  0  0  0
  147.7780  157.4850  135.2110 H   0  0  0  0  0  0  0  0  0  0  0  0
  149.3660  157.9560  134.4980 H   0  0  0  0  0  0  0  0  0  0  0  0
  146.3632  156.1593  131.3094 H   0  0  0  0  0  0  0  0  0  0  0  0
  143.9727  154.7060  130.8205 H   0  0  0  0  0  0  0  0  0  0  0  0
  142.3798  153.0575  131.8455 H   0  0  0  0  0  0  0  0  0  0  0  0
  143.1308  151.2203  134.9524 H   0  0  0  0  0  0  0  0  0  0  0  0
  141.4814  153.6314  135.2660 H   0  0  0  0  0  0  0  0  0  0  0  0
  140.5765  152.0759  135.3595 H   0  0  0  0  0  0  0  0  0  0  0  0
  142.9964  153.4839  138.3265 H   0  0  0  0  0  0  0  0  0  0  0  0
  143.9783  153.2880  136.8352 H   0  0  0  0  0  0  0  0  0  0  0  0
  142.5534  154.3817  136.8352 H   0  0  0  0  0  0  0  0  0  0  0  0
  141.4363  152.0805  138.7997 H   0  0  0  0  0  0  0  0  0  0  0  0
  140.2854  152.9217  137.6925 H   0  0  0  0  0  0  0  0  0  0  0  0
  143.2829  149.6017  133.0952 H   0  0  0  0  0  0  0  0  0  0  0  0
  142.0145  148.3379  131.3616 H   0  0  0  0  0  0  0  0  0  0  0  0
  138.8055  151.2318  131.5869 H   0  0  0  0  0  0  0  0  0  0  0  0
  140.0668  152.5005  133.3226 H   0  0  0  0  0  0  0  0  0  0  0  0
  144.7790  153.0056  135.4854 H   0  0  0  0  0  0  0  0  0  0  0  0
  1  2  1  0
  2  3  1  0
  3  4  2  0
  3  5  1  0
  5  6  1  0
  6  7  1  0
  7  8  1  0
  7  9  2  0
  6 10  2  0
 10 11  1  0
 11 12  2  0
 12 13  1  0
 13 14  2  0
 14 15  1  0
 15 16  1  0
 16 17  1  0
 17 18  1  0
 17 19  1  0
 19 20  1  0
 20 21  2  0
 20 22  1  0
 15 23  1  0
 23 24  2  0
 24 25  1  0
 25 26  2  0
 26 27  1  0
 27 28  3  0
 26 29  1  0
 29 30  2  0
 14 31  1  0
 31 32  2  0
 32  5  1  0
 32 11  1  0
 30 23  1  0
  1 33  1  0
  1 34  1  0
  1 35  1  0
  8 36  1  0
  8 37  1  0
 10 38  1  0
 12 39  1  0
 13 40  1  0
 15 41  1  1
 16 42  1  0
 16 43  1  0
 18 44  1  0
 18 45  1  0
 18 46  1  0
 19 47  1  0
 19 48  1  0
 24 49  1  0
 25 50  1  0
 29 51  1  0
 30 52  1  0
 31 53  1  0
M  CHG  1  22  -1
M  END
>  <UniqueID>  (3) 
3

>  <SMILES>  (3) 
COC(=O)n1c(C(N)=O)cc2ccc([C@@H](CN(C)CC(=O)[O-])c3ccc(C#N)cc3)cc21

>  <Energy>  (3) 
98.00495809023465

>  <Genealogy>  (3) 
COC(=O)n1c(C(N)=O)cc2ccc(C(CN(C)CC(=O)[O-])c3ccc(C#N)cc3)cc21 (protonated)
COC(=O)n1c(C(N)=O)cc2ccc([C@@H](CN(C)CC(=O)[O-])c3ccc(C#N)cc3)cc21 (chirality)
COC(=O)n1c(C(N)=O)cc2ccc([C@@H](CN(C)CC(=O)[O-])c3ccc(C#N)cc3)cc21 (3D coordinates assigned)
COC(=O)n1c(C(N)=O)cc2ccc([C@@H](CN(C)CC(=O)[O-])c3ccc(C#N)cc3)cc21 (optimized conformer: 98.00495809023465 kcal/mol)

>  <smiles>  (3) 
COC(=O)n1c(C(N)=O)cc2ccc(C(CN(C)CC(=O)O)c3ccc(C#N)cc3)cc21

>  <score_type>  (3) 
oracle

>  <origin>  (3) 
adg

>  <m_score__min__energy>  (3) 
-9.5600000000000005

>  <m_primary>  (3) 
energy

$$$$
3:0
     RDKit          3D

 52 53  0  0  0  0  0  0  0  0999 V2000
  149.1440  154.1940  132.6140 C   0  0  0  0  0  0  0  0  0  0  0  0
  148.0780  154.4730  133.6670 C   0  0  0  0  0  0  0  0  0  0  0  0
  147.7310  155.8570  133.6760 O   0  0  0  0  0  0  0  0  0  0  0  0
  146.5220  156.3530  133.1770 C   0  0  0  0  0  0  0  0  0  0  0  0
  145.6890  155.5740  132.6370 O   0  0  0  0  0  0  0  0  0  0  0  0
  146.2290  157.7550  133.2860 N   0  0  0  0  0  0  0  0  0  0  0  0
  147.0310  158.7960  132.9270 C   0  0  0  0  0  0  0  0  0  0  0  0
  148.4440  158.6950  132.5080 C   0  0  0  0  0  0  0  0  0  0  0  0
  148.9400  157.5250  131.8560 N   0  0  0  0  0  0  0  0  0  0  0  0
  149.2390  159.6340  132.7790 O   0  0  0  0  0  0  0  0  0  0  0  0
  146.3560  160.0070  133.0530 C   0  0  0  0  0  0  0  0  0  0  0  0
  145.1050  159.6770  133.5190 C   0  0  0  0  0  0  0  0  0  0  0  0
  144.0170  160.4940  133.8130 C   0  0  0  0  0  0  0  0  0  0  0  0
  142.8300  159.8790  134.2460 C   0  0  0  0  0  0  0  0  0  0  0  0
  142.7470  158.4690  134.3610 C   0  0  0  0  0  0  0  0  0  0  0  0
  141.4740  157.8200  134.8400 C   0  0  0  0  0  0  0  0  0  0  0  0
  140.4950  157.5540  133.6870 C   0  0  0  0  0  0  0  0  0  0  0  0
  139.4140  158.6430  133.5740 C   0  0  0  0  0  0  0  0  0  0  0  0
  139.8020  159.7570  132.5670 C   0  0  0  0  0  0  0  0  0  0  0  0
  139.3150  159.5360  131.1850 N   0  0  0  0  0  0  0  0  0  0  0  0
  138.7450  158.1870  130.9960 C   0  0  0  0  0  0  0  0  0  0  0  0
  138.4050  160.6060  130.7260 C   0  0  0  0  0  0  0  0  0  0  0  0
  136.9520  160.1340  130.7250 C   0  0  0  0  0  0  0  0  0  0  0  0
  136.3600  160.4550  129.5180 F   0  0  0  0  0  0  0  0  0  0  0  0
  143.8730  157.6720  134.0570 C   0  0  0  0  0  0  0  0  0  0  0  0
  145.0500  158.3110  133.6490 C   0  0  0  0  0  0  0  0  0  0  0  0
  150.0936  153.9455  133.1105 H   0  0  0  0  0  0  0  0  0  0  0  0
  148.8265  153.3487  131.9858 H   0  0  0  0  0  0  0  0  0  0  0  0
  149.2813  155.0865  131.9858 H   0  0  0  0  0  0  0  0  0  0  0  0
  147.1816  153.8770  133.4407 H   0  0  0  0  0  0  0  0  0  0  0  0
  148.4763  154.2009  134.6556 H   0  0  0  0  0  0  0  0  0  0  0  0
  149.9310  157.4870  131.5310 H   0  0  0  0  0  0  0  0  0  0  0  0
  148.3530  156.6670  131.7660 H   0  0  0  0  0  0  0  0  0  0  0  0
  146.7409  161.0126  132.8280 H   0  0  0  0  0  0  0  0  0  0  0  0
  144.0843  161.5871  133.7096 H   0  0  0  0  0  0  0  0  0  0  0  0
  141.9565  160.4982  134.4982 H   0  0  0  0  0  0  0  0  0  0  0  0
  141.7228  156.8633  135.3225 H   0  0  0  0  0  0  0  0  0  0  0  0
  140.9873  158.5076  135.5474 H   0  0  0  0  0  0  0  0  0  0  0  0
  141.0606  157.5182  132.7442 H   0  0  0  0  0  0  0  0  0  0  0  0
  139.9892  156.5984  133.8895 H   0  0  0  0  0  0  0  0  0  0  0  0
  138.4755  158.1762  133.2405 H   0  0  0  0  0  0  0  0  0  0  0  0
  139.3019  159.1092  134.5640 H   0  0  0  0  0  0  0  0  0  0  0  0
  139.3849  160.7080  132.9298 H   0  0  0  0  0  0  0  0  0  0  0  0
  140.9007  159.7603  132.5137 H   0  0  0  0  0  0  0  0  0  0  0  0
  138.5518  157.7298  131.9776 H   0  0  0  0  0  0  0  0  0  0  0  0
  137.8020  158.2627  130.4348 H   0  0  0  0  0  0  0  0  0  0  0  0
  139.4566  157.5636  130.4348 H   0  0  0  0  0  0  0  0  0  0  0  0
  138.5006  161.4711  131.3986 H   0  0  0  0  0  0  0  0  0  0  0  0
  138.6822  160.8812  129.6977 H   0  0  0  0  0  0  0  0  0  0  0  0
  136.9213  159.0439  130.8691 H   0  0  0  0  0  0  0  0  0  0  0  0
  136.4069  160.6295  131.5419 H   0  0  0  0  0  0  0  0  0  0  0  0
  143.8262  156.5760  134.1389 H   0  0  0  0  0  0  0  0  0  0  0  0
  1  2  1  0
  2  3  1  0
  3  4  1  0
  4  5  2  0
  4  6  1  0
  6  7  1  0
  7  8  1  0
  8  9  1  0
  8 10  2  0
  7 11  2  0
 11 12  1  0
 12 13  2  0
 13 14  1  0
 14 15  2  0
 15 16  1  0
 16 17  1  0
 17 18  1  0
 18 19  1  0
 19 20  1  0
 20 21  1  0
 20 22  1  0
 22 23  1  0
 23 24  1  0
 15 25  1  0
 25 26  2  0
 26  6  1  0
 26 12  1  0
  1 27  1  0
  1 28  1  0
  1 29  1  0
  2 30  1  0
  2 31  1  0
  9 32  1  0
  9 33  1  0
 11 34  1  0
 13 35  1  0
 14 36  1  0
 16 37  1  0
 16 38  1  0
 17 39  1  0
 17 40  1  0
 18 41  1  0
 18 42  1  0
 19 43  1  0
 19 44  1  0
 21 45  1  0
 21 46  1  0
 21 47  1  0
 22 48  1  0
 22 49  1  0
 23 50  1  0
 23 51  1  0
 25 52  1  0
M  END
>  <UniqueID>  (4) 
4

>  <SMILES>  (4) 
CCOC(=O)n1c(C(N)=O)cc2ccc(CCCCN(C)CCF)cc21

>  <Energy>  (4) 
85.5472981802476

>  <Genealogy>  (4) 
CCOC(=O)n1c(C(N)=O)cc2ccc(CCCCN(C)CCF)cc21 (3D coordinates assigned)
CCOC(=O)n1c(C(N)=O)cc2ccc(CCCCN(C)CCF)cc21 (optimized conformer: 85.5472981802476 kcal/mol)

>  <smiles>  (4) 
CCOC(=O)n1c(C(N)=O)cc2ccc(CCCCN(C)CCF)cc21

>  <score_type>  (4) 
oracle

>  <origin>  (4) 
adg

>  <m_score__min__energy>  (4) 
-6.9299999999999997

>  <m_primary>  (4) 
energy

$$$$
4:0
     RDKit          3D

 38 39  0  0  0  0  0  0  0  0999 V2000
  145.5670  153.9320  136.0340 C   0  0  0  0  0  0  0  0  0  0  0  0
  145.8730  154.3290  134.6510 N   0  0  0  0  0  0  0  0  0  0  0  0
  144.9620  153.6700  133.7030 C   0  0  0  0  0  0  0  0  0  0  0  0
  147.2500  154.0110  134.3300 C   0  0  0  0  0  0  0  0  0  0  0  0
  148.0400  153.7350  135.2260 O   0  0  0  0  0  0  0  0  0  0  0  0
  147.7030  154.0180  132.8880 C   0  0  0  0  0  0  0  0  0  0  0  0
  148.8570  154.9950  132.6210 C   0  0  0  0  0  0  0  0  0  0  0  0
  148.3830  156.4170  132.7450 C   0  0  0  0  0  0  0  0  0  0  0  0
  149.2430  157.4860  132.3890 C   0  0  0  0  0  0  0  0  0  0  0  0
  148.7960  158.8160  132.4560 C   0  0  0  0  0  0  0  0  0  0  0  0
  147.4900  159.0450  132.8780 C   0  0  0  0  0  0  0  0  0  0  0  0
  146.7960  160.2260  133.0040 C   0  0  0  0  0  0  0  0  0  0  0  0
  145.5250  159.8630  133.4450 C   0  0  0  0  0  0  0  0  0  0  0  0
  144.4750  160.8440  133.7920 C   0  0  0  0  0  0  0  0  0  0  0  0
  143.1330  160.6280  133.3600 N   0  0  0  0  0  0  0  0  0  0  0  0
  144.7550  161.8900  134.4340 O   0  0  0  0  0  0  0  0  0  0  0  0
  145.4340  158.5090  133.5790 N   0  0  0  0  0  0  0  0  0  0  0  0
  144.2810  157.7330  133.9470 C   0  0  0  0  0  0  0  0  0  0  0  0
  143.1530  157.9920  133.4500 O   0  0  0  0  0  0  0  0  0  0  0  0
  144.4040  156.6730  134.8360 O   0  0  0  0  0  0  0  0  0  0  0  0
  146.6470  158.0230  133.2310 C   0  0  0  0  0  0  0  0  0  0  0  0
  147.0600  156.6880  133.1570 C   0  0  0  0  0  0  0  0  0  0  0  0
  146.0860  154.6053  136.7321 H   0  0  0  0  0  0  0  0  0  0  0  0
  144.4818  153.9952  136.2020 H   0  0  0  0  0  0  0  0  0  0  0  0
  145.9045  152.8986  136.2020 H   0  0  0  0  0  0  0  0  0  0  0  0
  145.7270  155.3640  134.5730 H   0  0  0  0  0  0  0  0  0  0  0  0
  144.1932  153.1139  134.2595 H   0  0  0  0  0  0  0  0  0  0  0  0
  144.4793  154.4293  133.0702 H   0  0  0  0  0  0  0  0  0  0  0  0
  145.5321  152.9739  133.0702 H   0  0  0  0  0  0  0  0  0  0  0  0
  148.0347  153.0038  132.6209 H   0  0  0  0  0  0  0  0  0  0  0  0
  146.8485  154.3473  132.2786 H   0  0  0  0  0  0  0  0  0  0  0  0
  149.6593  154.8159  133.3519 H   0  0  0  0  0  0  0  0  0  0  0  0
  149.2313  154.8327  131.5994 H   0  0  0  0  0  0  0  0  0  0  0  0
  150.2698  157.2722  132.0573 H   0  0  0  0  0  0  0  0  0  0  0  0
  149.4582  159.6509  132.1832 H   0  0  0  0  0  0  0  0  0  0  0  0
  147.1660  161.2416  132.7999 H   0  0  0  0  0  0  0  0  0  0  0  0
  142.9200  159.9600  132.5860 H   0  0  0  0  0  0  0  0  0  0  0  0
  146.3709  155.8699  133.4135 H   0  0  0  0  0  0  0  0  0  0  0  0
  1  2  1  0
  2  3  1  0
  2  4  1  0
  4  5  2  0
  4  6  1  0
  6  7  1  0
  7  8  1  0
  8  9  2  0
  9 10  1  0
 10 11  2  0
 11 12  1  0
 12 13  2  0
 13 14  1  0
 14 15  1  0
 14 16  2  0
 13 17  1  0
 17 18  1  0
 18 19  2  0
 18 20  1  0
 17 21  1  0
 21 22  2  0
 22  8  1  0
 21 11  1  0
  1 23  1  0
  1 24  1  0
  1 25  1  0
  2 26  1  0
  3 27  1  0
  3 28  1  0
  3 29  1  0
  6 30  1  0
  6 31  1  0
  7 32  1  0
  7 33  1  0
  9 34  1  0
 10 35  1  0
 12 36  1  0
 15 37  1  0
 22 38  1  0
M  CHG  3   2   1  15  -1  20  -1
M  END
>  <UniqueID>  (5) 
5

>  <SMILES>  (5) 
C[NH+](C)C(=O)CCc1ccc2cc(C([NH-])=O)n(C(=O)[O-])c2c1

>  <Energy>  (5) 
74.73583541358724

>  <Genealogy>  (5) 
C[NH+](C)C(=O)CCc1ccc2cc(C([NH-])=O)n(C(=O)[O-])c2c1 (protonated)
C[NH+](C)C(=O)CCc1ccc2cc(C([NH-])=O)n(C(=O)[O-])c2c1 (3D coordinates assigned)
C[NH+](C)C(=O)CCc1ccc2cc(C([NH-])=O)n(C(=O)[O-])c2c1 (optimized conformer: 74.73583541358724 kcal/mol)

>  <smiles>  (5) 
CN(C)C(=O)CCc1ccc2cc(C(N)=O)n(C(=O)O)c2c1

>  <score_type>  (5) 
oracle

>  <origin>  (5) 
adg

>  <m_score__min__energy>  (5) 
-6.0499999999999998

>  <m_primary>  (5) 
energy

$$$$
5:0
     RDKit          3D

 34 35  0  0  0  0  0  0  0  0999 V2000
  147.6180  150.9970  132.2610 C   0  0  0  0  0  0  0  0  0  0  0  0
  148.9360  151.7460  132.5280 C   0  0  0  0  0  0  0  0  0  0  0  0
  149.9120  151.5170  131.3650 C   0  0  0  0  0  0  0  0  0  0  0  0
  148.6390  153.1870  132.6290 C   0  0  0  0  0  0  0  0  0  0  0  0
  148.3960  154.3650  132.7120 C   0  0  0  0  0  0  0  0  0  0  0  0
  148.1060  155.7720  132.8100 C   0  0  0  0  0  0  0  0  0  0  0  0
  149.1360  156.7180  132.6030 C   0  0  0  0  0  0  0  0  0  0  0  0
  148.8630  158.0930  132.6840 C   0  0  0  0  0  0  0  0  0  0  0  0
  147.5590  158.4840  132.9800 C   0  0  0  0  0  0  0  0  0  0  0  0
  147.0170  159.7430  133.0910 C   0  0  0  0  0  0  0  0  0  0  0  0
  145.6710  159.5410  133.3890 C   0  0  0  0  0  0  0  0  0  0  0  0
  144.7300  160.6420  133.6810 C   0  0  0  0  0  0  0  0  0  0  0  0
  143.3460  160.5260  133.3660 N   0  0  0  0  0  0  0  0  0  0  0  0
  145.1460  161.6800  134.2620 O   0  0  0  0  0  0  0  0  0  0  0  0
  145.3880  158.2080  133.4490 N   0  0  0  0  0  0  0  0  0  0  0  0
  144.1040  157.5900  133.6340 C   0  0  0  0  0  0  0  0  0  0  0  0
  143.8670  156.9120  134.6670 O   0  0  0  0  0  0  0  0  0  0  0  0
  143.1220  157.7100  132.6590 O   0  0  0  0  0  0  0  0  0  0  0  0
  146.5560  157.5740  133.1990 C   0  0  0  0  0  0  0  0  0  0  0  0
  146.7960  156.1970  133.1070 C   0  0  0  0  0  0  0  0  0  0  0  0
  149.5770  151.2730  133.8150 C   0  0  0  0  0  0  0  0  0  0  0  0
  150.4840  150.3970  133.7960 O   0  0  0  0  0  0  0  0  0  0  0  0
  149.2370  151.8650  135.0270 O   0  0  0  0  0  0  0  0  0  0  0  0
  147.1476  150.7297  133.2188 H   0  0  0  0  0  0  0  0  0  0  0  0
  146.9385  151.6439  131.6867 H   0  0  0  0  0  0  0  0  0  0  0  0
  147.8260  150.0822  131.6867 H   0  0  0  0  0  0  0  0  0  0  0  0
  150.9098  151.2829  131.7644 H   0  0  0  0  0  0  0  0  0  0  0  0
  149.5575  150.6776  130.7487 H   0  0  0  0  0  0  0  0  0  0  0  0
  149.9679  152.4264  130.7487 H   0  0  0  0  0  0  0  0  0  0  0  0
  150.1565  156.3751  132.3773 H   0  0  0  0  0  0  0  0  0  0  0  0
  149.6546  158.8387  132.5188 H   0  0  0  0  0  0  0  0  0  0  0  0
  147.5360  160.7053  132.9702 H   0  0  0  0  0  0  0  0  0  0  0  0
  143.0190  159.8880  132.6070 H   0  0  0  0  0  0  0  0  0  0  0  0
  145.9859  155.4692  133.2620 H   0  0  0  0  0  0  0  0  0  0  0  0
  1  2  1  0
  2  3  1  0
  2  4  1  0
  4  5  3  0
  5  6  1  0
  6  7  2  0
  7  8  1  0
  8  9  2  0
  9 10  1  0
 10 11  2  0
 11 12  1  0
 12 13  1  0
 12 14  2  0
 11 15  1  0
 15 16  1  0
 16 17  2  0
 16 18  1  0
 15 19  1  0
 19 20  2  0
  2 21  1  0
 21 22  2  0
 21 23  1  0
 20  6  1  0
 19  9  1  0
  1 24  1  0
  1 25  1  0
  1 26  1  0
  3 27  1  0
  3 28  1  0
  3 29  1  0
  7 30  1  0
  8 31  1  0
 10 32  1  0
 13 33  1  0
 20 34  1  0
M  CHG  3  13  -1  18  -1  23  -1
M  END
>  <UniqueID>  (6) 
6

>  <SMILES>  (6) 
CC(C)(C#Cc1ccc2cc(C([NH-])=O)n(C(=O)[O-])c2c1)C(=O)[O-]

>  <Energy>  (6) 
67.41899621258638

>  <Genealogy>  (6) 
CC(C)(C#Cc1ccc2cc(C([NH-])=O)n(C(=O)[O-])c2c1)C(=O)[O-] (protonated)
CC(C)(C#Cc1ccc2cc(C([NH-])=O)n(C(=O)[O-])c2c1)C(=O)[O-] (3D coordinates assigned)
CC(C)(C#Cc1ccc2cc(C([NH-])=O)n(C(=O)[O-])c2c1)C(=O)[O-] (optimized conformer: 67.41899621258638 kcal/mol)

>  <smiles>  (6) 
CC(C)(C#Cc1ccc2cc(C(N)=O)n(C(=O)O)c2c1)C(=O)O

>  <score_type>  (6) 
oracle

>  <origin>  (6) 
adg

>  <m_score__min__energy>  (6) 
-7.4299999999999997

>  <m_primary>  (6) 
energy

$$$$
6:0
     RDKit          3D

 42 43  0  0  0  0  0  0  0  0999 V2000
  138.7240  160.0180  130.4880 C   0  0  0  0  0  0  0  0  0  0  0  0
  138.8300  159.8860  131.9500 N   0  0  0  0  0  0  0  0  0  0  0  0
  140.2290  160.1020  132.3560 C   0  0  0  0  0  0  0  0  0  0  0  0
  138.3530  158.5520  132.3780 C   0  0  0  0  0  0  0  0  0  0  0  0
  139.4760  157.7660  133.0640 C   0  0  0  0  0  0  0  0  0  0  0  0
  139.0560  157.3530  134.3990 N   0  0  0  0  0  0  0  0  0  0  0  0
  139.5430  157.8760  135.6430 C   0  0  0  0  0  0  0  0  0  0  0  0
  139.1150  157.3750  136.7160 O   0  0  0  0  0  0  0  0  0  0  0  0
  140.5170  159.0220  135.7130 C   0  0  0  0  0  0  0  0  0  0  0  0
  141.8300  158.6890  135.0530 C   0  0  0  0  0  0  0  0  0  0  0  0
  142.1810  157.3380  134.7990 C   0  0  0  0  0  0  0  0  0  0  0  0
  143.4060  157.0200  134.1910 C   0  0  0  0  0  0  0  0  0  0  0  0
  144.2630  158.0660  133.8620 C   0  0  0  0  0  0  0  0  0  0  0  0
  145.5100  158.0340  133.2830 C   0  0  0  0  0  0  0  0  0  0  0  0
  145.9130  159.3660  133.2030 C   0  0  0  0  0  0  0  0  0  0  0  0
  147.1650  159.8080  132.5510 C   0  0  0  0  0  0  0  0  0  0  0  0
  147.7010  161.1080  132.8040 N   0  0  0  0  0  0  0  0  0  0  0  0
  147.7910  159.0240  131.7890 O   0  0  0  0  0  0  0  0  0  0  0  0
  144.9540  160.1880  133.7160 N   0  0  0  0  0  0  0  0  0  0  0  0
  145.0310  161.6140  133.8900 C   0  0  0  0  0  0  0  0  0  0  0  0
  146.0140  162.1330  134.4830 O   0  0  0  0  0  0  0  0  0  0  0  0
  144.0310  162.4370  133.3860 O   0  0  0  0  0  0  0  0  0  0  0  0
  143.9480  159.3750  134.1130 C   0  0  0  0  0  0  0  0  0  0  0  0
  142.7380  159.7210  134.7260 C   0  0  0  0  0  0  0  0  0  0  0  0
  138.0525  160.8542  130.2431 H   0  0  0  0  0  0  0  0  0  0  0  0
  139.7204  160.2116  130.0641 H   0  0  0  0  0  0  0  0  0  0  0  0
  138.3198  159.0869  130.0641 H   0  0  0  0  0  0  0  0  0  0  0  0
  140.2948  160.1122  133.4540 H   0  0  0  0  0  0  0  0  0  0  0  0
  140.8557  159.2900  131.9586 H   0  0  0  0  0  0  0  0  0  0  0  0
  140.5816  161.0652  131.9586 H   0  0  0  0  0  0  0  0  0  0  0  0
  137.5177  158.6768  133.0828 H   0  0  0  0  0  0  0  0  0  0  0  0
  138.0242  157.9935  131.4892 H   0  0  0  0  0  0  0  0  0  0  0  0
  139.7141  156.8744  132.4654 H   0  0  0  0  0  0  0  0  0  0  0  0
  140.3650  158.4083  133.1489 H   0  0  0  0  0  0  0  0  0  0  0  0
  140.0764  159.8938  135.2071 H   0  0  0  0  0  0  0  0  0  0  0  0
  140.7148  159.2350  136.7739 H   0  0  0  0  0  0  0  0  0  0  0  0
  141.4871  156.5324  135.0810 H   0  0  0  0  0  0  0  0  0  0  0  0
  143.6801  155.9756  133.9810 H   0  0  0  0  0  0  0  0  0  0  0  0
  146.0700  157.1465  132.9533 H   0  0  0  0  0  0  0  0  0  0  0  0
  147.1850  161.8030  133.3870 H   0  0  0  0  0  0  0  0  0  0  0  0
  148.6060  161.3950  132.3690 H   0  0  0  0  0  0  0  0  0  0  0  0
  142.4997  160.7717  134.9479 H   0  0  0  0  0  0  0  0  0  0  0  0
  1  2  1  0
  2  3  1  0
  2  4  1  0
  4  5  1  0
  5  6  1  0
  6  7  1  0
  7  8  2  0
  7  9  1  0
  9 10  1  0
 10 11  2  0
 11 12  1  0
 12 13  2  0
 13 14  1  0
 14 15  2  0
 15 16  1  0
 16 17  1  0
 16 18  2  0
 15 19  1  0
 19 20  1  0
 20 21  2  0
 20 22  1  0
 19 23  1  0
 23 24  2  0
 24 10  1  0
 23 13  1  0
  1 25  1  0
  1 26  1  0
  1 27  1  0
  3 28  1  0
  3 29  1  0
  3 30  1  0
  4 31  1  0
  4 32  1  0
  5 33  1  0
  5 34  1  0
  9 35  1  0
  9 36  1  0
 11 37  1  0
 12 38  1  0
 14 39  1  0
 17 40  1  0
 17 41  1  0
 24 42  1  0
M  CHG  2   6  -1  22  -1
M  END
>  <UniqueID>  (7) 
7

>  <SMILES>  (7) 
CN(C)CC[N-]C(=O)Cc1ccc2cc(C(N)=O)n(C(=O)[O-])c2c1

>  <Energy>  (7) 
75.34218394907265

>  <Genealogy>  (7) 
CN(C)CC[N-]C(=O)Cc1ccc2cc(C(N)=O)n(C(=O)[O-])c2c1 (protonated)
CN(C)CC[N-]C(=O)Cc1ccc2cc(C(N)=O)n(C(=O)[O-])c2c1 (3D coordinates assigned)
CN(C)CC[N-]C(=O)Cc1ccc2cc(C(N)=O)n(C(=O)[O-])c2c1 (optimized conformer: 75.34218394907265 kcal/mol)

>  <smiles>  (7) 
CN(C)CCNC(=O)Cc1ccc2cc(C(N)=O)n(C(=O)O)c2c1

>  <score_type>  (7) 
oracle

>  <origin>  (7) 
adg

>  <m_score__min__energy>  (7) 
-6.8899999999999997

>  <m_primary>  (7) 
energy

$$$$
7:0
     RDKit          3D

 32 33  0  0  0  0  0  0  0  0999 V2000
  148.9610  161.5280  130.7320 C   0  0  0  0  0  0  0  0  0  0  0  0
  149.9910  160.5170  130.4770 N   0  0  0  0  0  0  0  0  0  0  0  0
  149.6590  159.2330  131.1130 C   0  0  0  0  0  0  0  0  0  0  0  0
  149.3050  159.4150  132.5950 C   0  0  0  0  0  0  0  0  0  0  0  0
  147.8610  159.0770  132.8640 C   0  0  0  0  0  0  0  0  0  0  0  0
  147.4130  157.7370  132.7570 C   0  0  0  0  0  0  0  0  0  0  0  0
  146.0730  157.4080  133.0240 C   0  0  0  0  0  0  0  0  0  0  0  0
  145.2140  158.4330  133.4100 C   0  0  0  0  0  0  0  0  0  0  0  0
  143.8720  158.3950  133.7070 C   0  0  0  0  0  0  0  0  0  0  0  0
  143.5270  159.7070  134.0240 C   0  0  0  0  0  0  0  0  0  0  0  0
  142.1820  160.1020  134.4930 C   0  0  0  0  0  0  0  0  0  0  0  0
  141.3700  160.9870  133.7260 N   0  0  0  0  0  0  0  0  0  0  0  0
  141.7660  159.6940  135.6100 O   0  0  0  0  0  0  0  0  0  0  0  0
  144.6120  160.5270  133.9190 N   0  0  0  0  0  0  0  0  0  0  0  0
  144.6520  161.9550  134.0690 C   0  0  0  0  0  0  0  0  0  0  0  0
  145.5230  162.4940  134.8010 O   0  0  0  0  0  0  0  0  0  0  0  0
  143.7460  162.7570  133.3860 O   0  0  0  0  0  0  0  0  0  0  0  0
  145.6390  159.7290  133.5440 C   0  0  0  0  0  0  0  0  0  0  0  0
  146.9620  160.0890  133.2660 C   0  0  0  0  0  0  0  0  0  0  0  0
  148.8321  161.6545  131.8171 H   0  0  0  0  0  0  0  0  0  0  0  0
  149.2681  162.4851  130.2852 H   0  0  0  0  0  0  0  0  0  0  0  0
  148.0098  161.2032  130.2852 H   0  0  0  0  0  0  0  0  0  0  0  0
  150.8780  160.8680  130.9110 H   0  0  0  0  0  0  0  0  0  0  0  0
  148.7986  158.7878  130.5919 H   0  0  0  0  0  0  0  0  0  0  0  0
  150.5393  158.5767  131.0463 H   0  0  0  0  0  0  0  0  0  0  0  0
  149.9450  158.7550  133.1989 H   0  0  0  0  0  0  0  0  0  0  0  0
  149.4678  160.4697  132.8615 H   0  0  0  0  0  0  0  0  0  0  0  0
  148.1201  156.9475  132.4624 H   0  0  0  0  0  0  0  0  0  0  0  0
  145.7141  156.3724  132.9308 H   0  0  0  0  0  0  0  0  0  0  0  0
  143.2113  157.5156  133.6965 H   0  0  0  0  0  0  0  0  0  0  0  0
  141.7480  161.8960  133.3780 H   0  0  0  0  0  0  0  0  0  0  0  0
  147.2935  161.1338  133.3582 H   0  0  0  0  0  0  0  0  0  0  0  0
  1  2  1  0
  2  3  1  0
  3  4  1  0
  4  5  1  0
  5  6  2  0
  6  7  1  0
  7  8  2  0
  8  9  1  0
  9 10  2  0
 10 11  1  0
 11 12  1  0
 11 13  2  0
 10 14  1  0
 14 15  1  0
 15 16  2  0
 15 17  1  0
 14 18  1  0
 18 19  2  0
 19  5  1  0
 18  8  1  0
  1 20  1  0
  1 21  1  0
  1 22  1  0
  2 23  1  0
  3 24  1  0
  3 25  1  0
  4 26  1  0
  4 27  1  0
  6 28  1  0
  7 29  1  0
  9 30  1  0
 12 31  1  0
 19 32  1  0
M  CHG  2  12  -1  17  -1
M  END
>  <UniqueID>  (8) 
8

>  <SMILES>  (8) 
CNCCc1ccc2cc(C([NH-])=O)n(C(=O)[O-])c2c1

>  <Energy>  (8) 
68.70058975254965

>  <Genealogy>  (8) 
CNCCc1ccc2cc(C([NH-])=O)n(C(=O)[O-])c2c1 (protonated)
CNCCc1ccc2cc(C([NH-])=O)n(C(=O)[O-])c2c1 (3D coordinates assigned)
CNCCc1ccc2cc(C([NH-])=O)n(C(=O)[O-])c2c1 (optimized conformer: 68.70058975254965 kcal/mol)

>  <smiles>  (8) 
CNCCc1ccc2cc(C(N)=O)n(C(=O)O)c2c1

>  <score_type>  (8) 
oracle

>  <origin>  (8) 
adg

>  <m_score__min__energy>  (8) 
-6.8099999999999996

>  <m_primary>  (8) 
energy

$$$$
8:0
     RDKit          3D

 37 39  0  0  0  0  0  0  0  0999 V2000
  150.2860  158.1370  132.2240 N   0  0  0  0  0  0  0  0  0  0  0  0
  149.4340  159.2640  132.0160 C   0  0  0  0  0  0  0  0  0  0  0  0
  149.9030  160.3000  131.4750 O   0  0  0  0  0  0  0  0  0  0  0  0
  148.0340  159.2610  132.4820 C   0  0  0  0  0  0  0  0  0  0  0  0
  147.2940  160.4210  132.6890 C   0  0  0  0  0  0  0  0  0  0  0  0
  146.0820  159.9960  133.1810 C   0  0  0  0  0  0  0  0  0  0  0  0
  144.9600  160.7330  133.5520 C   0  0  0  0  0  0  0  0  0  0  0  0
  143.8320  160.0310  134.0060 C   0  0  0  0  0  0  0  0  0  0  0  0
  143.8410  158.6150  134.0780 C   0  0  0  0  0  0  0  0  0  0  0  0
  142.6240  157.8710  134.5620 C   0  0  0  0  0  0  0  0  0  0  0  0
  141.6190  158.7880  135.2070 C   0  0  0  0  0  0  0  0  0  0  0  0
  141.5050  158.7900  136.4610 O   0  0  0  0  0  0  0  0  0  0  0  0
  140.8500  159.7220  134.4400 N   0  0  0  0  0  0  0  0  0  0  0  0
  140.0360  159.3800  133.3130 C   0  0  0  0  0  0  0  0  0  0  0  0
  139.7990  160.3030  132.2860 C   0  0  0  0  0  0  0  0  0  0  0  0
  139.0170  159.9390  131.1890 C   0  0  0  0  0  0  0  0  0  0  0  0
  138.5010  158.6430  131.1180 C   0  0  0  0  0  0  0  0  0  0  0  0
  138.7740  157.7470  132.1060 N   0  0  0  0  0  0  0  0  0  0  0  0
  139.5310  158.0820  133.1850 C   0  0  0  0  0  0  0  0  0  0  0  0
  144.9900  157.9010  133.6660 C   0  0  0  0  0  0  0  0  0  0  0  0
  146.1120  158.6260  133.2480 C   0  0  0  0  0  0  0  0  0  0  0  0
  147.3060  158.1580  132.8190 N   0  0  0  0  0  0  0  0  0  0  0  0
  147.6770  156.7790  132.6490 C   0  0  0  0  0  0  0  0  0  0  0  0
  146.9800  156.0190  131.9260 O   0  0  0  0  0  0  0  0  0  0  0  0
  148.8060  156.2700  133.2780 O   0  0  0  0  0  0  0  0  0  0  0  0
  151.2620  158.1420  131.8540 H   0  0  0  0  0  0  0  0  0  0  0  0
  149.9810  157.3330  132.8170 H   0  0  0  0  0  0  0  0  0  0  0  0
  147.6108  161.4572  132.4995 H   0  0  0  0  0  0  0  0  0  0  0  0
  144.9577  161.8313  133.4912 H   0  0  0  0  0  0  0  0  0  0  0  0
  142.9316  160.5855  134.3091 H   0  0  0  0  0  0  0  0  0  0  0  0
  142.1493  157.3715  133.7046 H   0  0  0  0  0  0  0  0  0  0  0  0
  142.9511  157.1417  135.3177 H   0  0  0  0  0  0  0  0  0  0  0  0
  140.2290  161.3138  132.3443 H   0  0  0  0  0  0  0  0  0  0  0  0
  138.8092  160.6648  130.3890 H   0  0  0  0  0  0  0  0  0  0  0  0
  137.8743  158.3464  130.2641 H   0  0  0  0  0  0  0  0  0  0  0  0
  139.7466  157.3305  133.9588 H   0  0  0  0  0  0  0  0  0  0  0  0
  145.0018  156.8011  133.6738 H   0  0  0  0  0  0  0  0  0  0  0  0
  1  2  1  0
  2  3  2  0
  2  4  1  0
  4  5  2  0
  5  6  1  0
  6  7  2  0
  7  8  1  0
  8  9  2  0
  9 10  1  0
 10 11  1  0
 11 12  2  0
 11 13  1  0
 13 14  1  0
 14 15  2  0
 15 16  1  0
 16 17  2  0
 17 18  1  0
 18 19  2  0
  9 20  1  0
 20 21  2  0
 21 22  1  0
 22 23  1  0
 23 24  2  0
 23 25  1  0
 22  4  1  0
 21  6  1  0
 19 14  1  0
  1 26  1  0
  1 27  1  0
  5 28  1  0
  7 29  1  0
  8 30  1  0
 10 31  1  0
 10 32  1  0
 15 33  1  0
 16 34  1  0
 17 35  1  0
 19 36  1  0
 20 37  1  0
M  CHG  2  13  -1  25  -1
M  END
>  <UniqueID>  (9) 
9

>  <SMILES>  (9) 
NC(=O)c1cc2ccc(CC(=O)[N-]c3cccnc3)cc2n1C(=O)[O-]

>  <Energy>  (9) 
84.62300626759526

>  <Genealogy>  (9) 
NC(=O)c1cc2ccc(CC(=O)[N-]c3cccnc3)cc2n1C(=O)[O-] (protonated)
NC(=O)c1cc2ccc(CC(=O)[N-]c3cccnc3)cc2n1C(=O)[O-] (3D coordinates assigned)
NC(=O)c1cc2ccc(CC(=O)[N-]c3cccnc3)cc2n1C(=O)[O-] (optimized conformer: 84.62300626759526 kcal/mol)

>  <smiles>  (9) 
NC(=O)c1cc2ccc(CC(=O)Nc3cccnc3)cc2n1C(=O)O

>  <score_type>  (9) 
oracle

>  <origin>  (9) 
adg

>  <m_score__min__energy>  (9) 
-7.6600000000000001

>  <m_primary>  (9) 
energy

$$$$
9:0
     RDKit          3D

 54 56  0  0  0  0  0  0  0  0999 V2000
  138.7250  158.2080  133.6110 C   0  0  0  0  0  0  0  0  0  0  0  0
  139.4970  158.6860  132.3670 C   0  0  0  0  0  0  0  0  0  0  0  0
  139.6270  160.2210  132.3620 C   0  0  0  0  0  0  0  0  0  0  0  0
  138.7300  158.2500  131.1090 C   0  0  0  0  0  0  0  0  0  0  0  0
  140.7900  158.0680  132.3070 O   0  0  0  0  0  0  0  0  0  0  0  0
  141.7870  158.1270  133.2940 C   0  0  0  0  0  0  0  0  0  0  0  0
  142.7620  158.9180  133.1820 O   0  0  0  0  0  0  0  0  0  0  0  0
  141.6740  157.2970  134.4600 N   0  0  0  0  0  0  0  0  0  0  0  0
  141.5350  157.6960  135.7560 C   0  0  0  0  0  0  0  0  0  0  0  0
  141.2960  159.0800  136.2150 C   0  0  0  0  0  0  0  0  0  0  0  0
  141.0480  160.1100  135.2610 N   0  0  0  0  0  0  0  0  0  0  0  0
  141.3440  159.3700  137.4380 O   0  0  0  0  0  0  0  0  0  0  0  0
  141.5760  156.5970  136.6120 C   0  0  0  0  0  0  0  0  0  0  0  0
  141.7440  155.5030  135.7950 C   0  0  0  0  0  0  0  0  0  0  0  0
  141.8830  154.1560  136.1170 C   0  0  0  0  0  0  0  0  0  0  0  0
  142.0950  153.2450  135.0670 C   0  0  0  0  0  0  0  0  0  0  0  0
  142.1590  153.6950  133.7250 C   0  0  0  0  0  0  0  0  0  0  0  0
  142.4450  152.7210  132.6130 C   0  0  0  0  0  0  0  0  0  0  0  0
  143.1290  151.4550  133.1390 C   0  0  0  0  0  0  0  0  0  0  0  0
  142.3620  150.3040  132.8150 O   0  0  0  0  0  0  0  0  0  0  0  0
  140.9730  150.5390  132.9510 C   0  0  0  0  0  0  0  0  0  0  0  0
  140.1860  149.6650  132.0120 C   0  0  0  0  0  0  0  0  0  0  0  0
  138.8740  150.0100  131.6480 C   0  0  0  0  0  0  0  0  0  0  0  0
  138.1650  149.2180  130.7380 C   0  0  0  0  0  0  0  0  0  0  0  0
  138.7620  148.0830  130.1840 C   0  0  0  0  0  0  0  0  0  0  0  0
  140.0690  147.7360  130.5380 C   0  0  0  0  0  0  0  0  0  0  0  0
  140.7800  148.5230  131.4500 C   0  0  0  0  0  0  0  0  0  0  0  0
  142.0170  155.0700  133.4380 C   0  0  0  0  0  0  0  0  0  0  0  0
  141.7970  155.9520  134.5010 C   0  0  0  0  0  0  0  0  0  0  0  0
  139.2534  158.5352  134.5186 H   0  0  0  0  0  0  0  0  0  0  0  0
  137.7123  158.6373  133.6014 H   0  0  0  0  0  0  0  0  0  0  0  0
  138.6579  157.1101  133.6014 H   0  0  0  0  0  0  0  0  0  0  0  0
  139.6582  160.5897  133.3979 H   0  0  0  0  0  0  0  0  0  0  0  0
  140.5527  160.5089  131.8423 H   0  0  0  0  0  0  0  0  0  0  0  0
  138.7629  160.6605  131.8423 H   0  0  0  0  0  0  0  0  0  0  0  0
  137.8088  157.7263  131.4043 H   0  0  0  0  0  0  0  0  0  0  0  0
  138.4722  159.1366  130.5111 H   0  0  0  0  0  0  0  0  0  0  0  0
  139.3599  157.5750  130.5111 H   0  0  0  0  0  0  0  0  0  0  0  0
  141.1620  159.9330  134.2380 H   0  0  0  0  0  0  0  0  0  0  0  0
  141.4918  156.6030  137.7088 H   0  0  0  0  0  0  0  0  0  0  0  0
  141.8286  153.8145  137.1612 H   0  0  0  0  0  0  0  0  0  0  0  0
  142.2121  152.1741  135.2893 H   0  0  0  0  0  0  0  0  0  0  0  0
  141.4971  152.4410  132.1302 H   0  0  0  0  0  0  0  0  0  0  0  0
  143.1217  153.2061  131.8942 H   0  0  0  0  0  0  0  0  0  0  0  0
  144.1259  151.3659  132.6827 H   0  0  0  0  0  0  0  0  0  0  0  0
  143.2178  151.5270  134.2331 H   0  0  0  0  0  0  0  0  0  0  0  0
  140.6703  150.3201  133.9856 H   0  0  0  0  0  0  0  0  0  0  0  0
  140.7690  151.5917  132.7055 H   0  0  0  0  0  0  0  0  0  0  0  0
  138.4025  150.9053  132.0795 H   0  0  0  0  0  0  0  0  0  0  0  0
  137.1363  149.4895  130.4585 H   0  0  0  0  0  0  0  0  0  0  0  0
  138.2031  147.4618  129.4686 H   0  0  0  0  0  0  0  0  0  0  0  0
  140.5387  146.8434  130.0991 H   0  0  0  0  0  0  0  0  0  0  0  0
  141.8078  148.2466  131.7280 H   0  0  0  0  0  0  0  0  0  0  0  0
  142.0779  155.4388  132.4034 H   0  0  0  0  0  0  0  0  0  0  0  0
  1  2  1  0
  2  3  1  0
  2  4  1  0
  2  5  1  0
  5  6  1  0
  6  7  2  0
  6  8  1  0
  8  9  1  0
  9 10  1  0
 10 11  1  0
 10 12  2  0
  9 13  2  0
 13 14  1  0
 14 15  2  0
 15 16  1  0
 16 17  2  0
 17 18  1  0
 18 19  1  0
 19 20  1  0
 20 21  1  0
 21 22  1  0
 22 23  2  0
 23 24  1  0
 24 25  2  0
 25 26  1  0
 26 27  2  0
 17 28  1  0
 28 29  2  0
 29  8  1  0
 29 14  1  0
 27 22  1  0
  1 30  1  0
  1 31  1  0
  1 32  1  0
  3 33  1  0
  3 34  1  0
  3 35  1  0
  4 36  1  0
  4 37  1  0
  4 38  1  0
 11 39  1  0
 13 40  1  0
 15 41  1  0
 16 42  1  0
 18 43  1  0
 18 44  1  0
 19 45  1  0
 19 46  1  0
 21 47  1  0
 21 48  1  0
 23 49  1  0
 24 50  1  0
 25 51  1  0
 26 52  1  0
 27 53  1  0
 28 54  1  0
M  CHG  1  11  -1
M  END
>  <UniqueID>  (10) 
10

>  <SMILES>  (10) 
CC(C)(C)OC(=O)n1c(C([NH-])=O)cc2ccc(CCOCc3ccccc3)cc21

>  <Energy>  (10) 
87.53241694242784

>  <Genealogy>  (10) 
CC(C)(C)OC(=O)n1c(C([NH-])=O)cc2ccc(CCOCc3ccccc3)cc21 (protonated)
CC(C)(C)OC(=O)n1c(C([NH-])=O)cc2ccc(CCOCc3ccccc3)cc21 (3D coordinates assigned)
CC(C)(C)OC(=O)n1c(C([NH-])=O)cc2ccc(CCOCc3ccccc3)cc21 (optimized conformer: 87.53241694242784 kcal/mol)

>  <smiles>  (10) 
CC(C)(C)OC(=O)n1c(C(N)=O)cc2ccc(CCOCc3ccccc3)cc21

>  <score_type>  (10) 
oracle

>  <origin>  (10) 
adg

>  <m_score__min__energy>  (10) 
-9.1400000000000006

>  <m_primary>  (10) 
energy

$$$$
10:0
     RDKit          3D

 37 39  0  0  0  0  0  0  0  0999 V2000
  148.6060  157.3180  131.8510 N   0  0  0  0  0  0  0  0  0  0  0  0
  148.3650  158.4720  132.6570 C   0  0  0  0  0  0  0  0  0  0  0  0
  149.3450  159.1240  133.1110 O   0  0  0  0  0  0  0  0  0  0  0  0
  146.9940  158.8770  133.0230 C   0  0  0  0  0  0  0  0  0  0  0  0
  146.5500  160.1960  132.9860 C   0  0  0  0  0  0  0  0  0  0  0  0
  145.2580  160.1570  133.4550 C   0  0  0  0  0  0  0  0  0  0  0  0
  144.3380  161.1880  133.6230 C   0  0  0  0  0  0  0  0  0  0  0  0
  143.0570  160.8570  134.0950 C   0  0  0  0  0  0  0  0  0  0  0  0
  142.7160  159.5100  134.3730 C   0  0  0  0  0  0  0  0  0  0  0  0
  141.3480  159.1790  134.9010 C   0  0  0  0  0  0  0  0  0  0  0  0
  140.4860  158.7150  133.8090 N   0  0  0  0  0  0  0  0  0  0  0  0
  139.9310  159.6330  133.0100 N   0  0  0  0  0  0  0  0  0  0  0  0
  139.0930  159.3000  131.9920 C   0  0  0  0  0  0  0  0  0  0  0  0
  138.4960  160.3690  131.1250 C   0  0  0  0  0  0  0  0  0  0  0  0
  138.6780  160.0670  129.7870 F   0  0  0  0  0  0  0  0  0  0  0  0
  139.1020  161.5810  131.3980 F   0  0  0  0  0  0  0  0  0  0  0  0
  137.1400  160.4700  131.3800 F   0  0  0  0  0  0  0  0  0  0  0  0
  138.7920  157.9540  131.7730 C   0  0  0  0  0  0  0  0  0  0  0  0
  139.3540  156.9890  132.6030 C   0  0  0  0  0  0  0  0  0  0  0  0
  140.2080  157.3840  133.6330 C   0  0  0  0  0  0  0  0  0  0  0  0
  140.7100  156.5100  134.3900 O   0  0  0  0  0  0  0  0  0  0  0  0
  143.6770  158.4910  134.1960 C   0  0  0  0  0  0  0  0  0  0  0  0
  144.9550  158.8520  133.7460 C   0  0  0  0  0  0  0  0  0  0  0  0
  146.0120  158.0500  133.4830 N   0  0  0  0  0  0  0  0  0  0  0  0
  146.0430  156.6140  133.5610 C   0  0  0  0  0  0  0  0  0  0  0  0
  146.3030  155.9280  132.5390 O   0  0  0  0  0  0  0  0  0  0  0  0
  145.7860  155.9690  134.7640 O   0  0  0  0  0  0  0  0  0  0  0  0
  149.5800  157.0690  131.5710 H   0  0  0  0  0  0  0  0  0  0  0  0
  147.8310  156.6630  131.6030 H   0  0  0  0  0  0  0  0  0  0  0  0
  147.1126  161.0805  132.6527 H   0  0  0  0  0  0  0  0  0  0  0  0
  144.6058  162.2299  133.3932 H   0  0  0  0  0  0  0  0  0  0  0  0
  142.3116  161.6509  134.2503 H   0  0  0  0  0  0  0  0  0  0  0  0
  141.4325  158.3870  135.6597 H   0  0  0  0  0  0  0  0  0  0  0  0
  140.9069  160.0812  135.3499 H   0  0  0  0  0  0  0  0  0  0  0  0
  138.1188  157.6602  130.9542 H   0  0  0  0  0  0  0  0  0  0  0  0
  139.1269  155.9239  132.4484 H   0  0  0  0  0  0  0  0  0  0  0  0
  143.4293  157.4400  134.4059 H   0  0  0  0  0  0  0  0  0  0  0  0
  1  2  1  0
  2  3  2  0
  2  4  1  0
  4  5  2  0
  5  6  1  0
  6  7  2  0
  7  8  1  0
  8  9  2  0
  9 10  1  0
 10 11  1  0
 11 12  1  0
 12 13  2  0
 13 14  1  0
 14 15  1  0
 14 16  1  0
 14 17  1  0
 13 18  1  0
 18 19  2  0
 19 20  1  0
 20 21  2  0
  9 22  1  0
 22 23  2  0
 23 24  1  0
 24 25  1  0
 25 26  2  0
 25 27  1  0
 24  4  1  0
 23  6  1  0
 20 11  1  0
  1 28  1  0
  1 29  1  0
  5 30  1  0
  7 31  1  0
  8 32  1  0
 10 33  1  0
 10 34  1  0
 18 35  1  0
 19 36  1  0
 22 37  1  0
M  CHG  1  27  -1
M  END
>  <UniqueID>  (11) 
11

>  <SMILES>  (11) 
NC(=O)c1cc2ccc(Cn3nc(C(F)(F)F)ccc3=O)cc2n1C(=O)[O-]

>  <Energy>  (11) 
79.81299296316419

>  <Genealogy>  (11) 
NC(=O)c1cc2ccc(Cn3nc(C(F)(F)F)ccc3=O)cc2n1C(=O)[O-] (protonated)
NC(=O)c1cc2ccc(Cn3nc(C(F)(F)F)ccc3=O)cc2n1C(=O)[O-] (3D coordinates assigned)
NC(=O)c1cc2ccc(Cn3nc(C(F)(F)F)ccc3=O)cc2n1C(=O)[O-] (optimized conformer: 79.81299296316419 kcal/mol)

>  <smiles>  (11) 
NC(=O)c1cc2ccc(Cn3nc(C(F)(F)F)ccc3=O)cc2n1C(=O)O

>  <score_type>  (11) 
oracle

>  <origin>  (11) 
adg

>  <m_score__min__energy>  (11) 
-7.3700000000000001

>  <m_primary>  (11) 
energy

$$$$
11:0
     RDKit          3D

 48 49  0  0  0  0  0  0  0  0999 V2000
  138.0630  159.7640  131.2390 C   0  0  0  0  0  0  0  0  0  0  0  0
  138.7140  158.4110  131.4670 C   0  0  0  0  0  0  0  0  0  0  0  0
  138.8290  158.1720  132.8650 O   0  0  0  0  0  0  0  0  0  0  0  0
  139.7600  157.2780  133.4050 C   0  0  0  0  0  0  0  0  0  0  0  0
  139.9750  156.1610  132.8600 O   0  0  0  0  0  0  0  0  0  0  0  0
  140.5190  157.6700  134.6300 C   0  0  0  0  0  0  0  0  0  0  0  0
  141.1350  159.3500  134.5000 S   0  0  0  0  0  0  0  0  0  0  0  0
  140.3890  160.0510  133.3990 O   0  0  0  0  0  0  0  0  0  0  0  0
  140.9030  160.0940  135.7860 O   0  0  0  0  0  0  0  0  0  0  0  0
  142.8870  159.3970  134.1180 C   0  0  0  0  0  0  0  0  0  0  0  0
  143.3070  158.2280  133.2750 C   0  0  0  0  0  0  0  0  0  0  0  0
  142.5680  157.8520  132.3230 O   0  0  0  0  0  0  0  0  0  0  0  0
  144.4760  157.4590  133.6080 N   0  0  0  0  0  0  0  0  0  0  0  0
  144.5080  156.1420  133.9560 C   0  0  0  0  0  0  0  0  0  0  0  0
  143.3300  155.2990  134.2480 C   0  0  0  0  0  0  0  0  0  0  0  0
  142.2110  155.2550  133.3610 N   0  0  0  0  0  0  0  0  0  0  0  0
  143.2950  154.6340  135.3170 O   0  0  0  0  0  0  0  0  0  0  0  0
  145.8170  155.6710  133.9880 C   0  0  0  0  0  0  0  0  0  0  0  0
  146.5990  156.7500  133.6440 C   0  0  0  0  0  0  0  0  0  0  0  0
  147.9770  156.8270  133.4560 C   0  0  0  0  0  0  0  0  0  0  0  0
  148.5140  158.0450  133.0130 C   0  0  0  0  0  0  0  0  0  0  0  0
  147.6700  159.1560  132.7670 C   0  0  0  0  0  0  0  0  0  0  0  0
  148.2440  160.4450  132.2430 C   0  0  0  0  0  0  0  0  0  0  0  0
  148.8810  160.2290  130.8930 C   0  0  0  0  0  0  0  0  0  0  0  0
  149.5950  161.3410  130.1800 C   0  0  0  0  0  0  0  0  0  0  0  0
  148.8180  159.1290  130.3630 O   0  0  0  0  0  0  0  0  0  0  0  0
  146.2780  159.0390  132.9700 C   0  0  0  0  0  0  0  0  0  0  0  0
  145.7670  157.8180  133.4200 C   0  0  0  0  0  0  0  0  0  0  0  0
  137.8383  160.2310  132.2093 H   0  0  0  0  0  0  0  0  0  0  0  0
  138.7489  160.4099  130.6713 H   0  0  0  0  0  0  0  0  0  0  0  0
  137.1302  159.6311  130.6713 H   0  0  0  0  0  0  0  0  0  0  0  0
  138.0958  157.6244  131.0097 H   0  0  0  0  0  0  0  0  0  0  0  0
  139.7141  158.4023  131.0090 H   0  0  0  0  0  0  0  0  0  0  0  0
  139.8536  157.5981  135.5030 H   0  0  0  0  0  0  0  0  0  0  0  0
  141.3775  156.9912  134.7405 H   0  0  0  0  0  0  0  0  0  0  0  0
  143.1073  160.3264  133.5724 H   0  0  0  0  0  0  0  0  0  0  0  0
  143.4441  159.3521  135.0654 H   0  0  0  0  0  0  0  0  0  0  0  0
  142.1230  155.9280  132.5670 H   0  0  0  0  0  0  0  0  0  0  0  0
  141.4140  154.6110  133.5580 H   0  0  0  0  0  0  0  0  0  0  0  0
  146.1546  154.6537  134.2354 H   0  0  0  0  0  0  0  0  0  0  0  0
  148.6246  155.9590  133.6490 H   0  0  0  0  0  0  0  0  0  0  0  0
  149.5987  158.1381  132.8554 H   0  0  0  0  0  0  0  0  0  0  0  0
  147.4385  161.1881  132.1485 H   0  0  0  0  0  0  0  0  0  0  0  0
  149.0109  160.8045  132.9449 H   0  0  0  0  0  0  0  0  0  0  0  0
  150.0354  162.0269  130.9186 H   0  0  0  0  0  0  0  0  0  0  0  0
  150.3921  160.9201  129.5495 H   0  0  0  0  0  0  0  0  0  0  0  0
  148.8806  161.8906  129.5495 H   0  0  0  0  0  0  0  0  0  0  0  0
  145.6091  159.8909  132.7781 H   0  0  0  0  0  0  0  0  0  0  0  0
  1  2  1  0
  2  3  1  0
  3  4  1  0
  4  5  2  0
  4  6  1  0
  6  7  1  0
  7  8  2  0
  7  9  2  0
  7 10  1  0
 10 11  1  0
 11 12  2  0
 11 13  1  0
 13 14  1  0
 14 15  1  0
 15 16  1  0
 15 17  2  0
 14 18  2  0
 18 19  1  0
 19 20  2  0
 20 21  1  0
 21 22  2  0
 22 23  1  0
 23 24  1  0
 24 25  1  0
 24 26  2  0
 22 27  1  0
 27 28  2  0
 28 13  1  0
 28 19  1  0
  1 29  1  0
  1 30  1  0
  1 31  1  0
  2 32  1  0
  2 33  1  0
  6 34  1  0
  6 35  1  0
 10 36  1  0
 10 37  1  0
 16 38  1  0
 16 39  1  0
 18 40  1  0
 20 41  1  0
 21 42  1  0
 23 43  1  0
 23 44  1  0
 25 45  1  0
 25 46  1  0
 25 47  1  0
 27 48  1  0
M  END
>  <UniqueID>  (12) 
12

>  <SMILES>  (12) 
CCOC(=O)CS(=O)(=O)CC(=O)n1c(C(N)=O)cc2ccc(CC(C)=O)cc21

>  <Energy>  (12) 
71.40351005556722

>  <Genealogy>  (12) 
CCOC(=O)CS(=O)(=O)CC(=O)n1c(C(N)=O)cc2ccc(CC(C)=O)cc21 (3D coordinates assigned)
CCOC(=O)CS(=O)(=O)CC(=O)n1c(C(N)=O)cc2ccc(CC(C)=O)cc21 (optimized conformer: 71.40351005556722 kcal/mol)

>  <smiles>  (12) 
CCOC(=O)CS(=O)(=O)CC(=O)n1c(C(N)=O)cc2ccc(CC(C)=O)cc21

>  <score_type>  (12) 
oracle

>  <origin>  (12) 
adg

>  <m_score__min__energy>  (12) 
-7.7999999999999998

>  <m_primary>  (12) 
energy

$$$$
12:0
     RDKit          3D

 38 39  0  0  0  0  0  0  0  0999 V2000
  146.0370  151.9390  131.9290 N   0  0  0  0  0  0  0  0  0  0  0  0
  145.3430  152.8240  132.8100 C   0  0  0  0  0  0  0  0  0  0  0  0
  144.4210  152.3700  133.5400 O   0  0  0  0  0  0  0  0  0  0  0  0
  145.7290  154.2440  132.9290 C   0  0  0  0  0  0  0  0  0  0  0  0
  144.8080  155.2800  133.0610 C   0  0  0  0  0  0  0  0  0  0  0  0
  145.5630  156.4210  133.1990 C   0  0  0  0  0  0  0  0  0  0  0  0
  145.1610  157.7460  133.3400 C   0  0  0  0  0  0  0  0  0  0  0  0
  146.1580  158.7330  133.4120 C   0  0  0  0  0  0  0  0  0  0  0  0
  147.5290  158.3810  133.3390 C   0  0  0  0  0  0  0  0  0  0  0  0
  148.5900  159.4520  133.3670 C   0  0  0  0  0  0  0  0  0  0  0  0
  149.6060  159.2750  132.2330 C   0  0  0  0  0  0  0  0  0  0  0  0
  149.2300  160.0760  131.0250 C   0  0  0  0  0  0  0  0  0  0  0  0
  148.9010  159.4960  129.9570 O   0  0  0  0  0  0  0  0  0  0  0  0
  149.2010  161.4630  131.0910 O   0  0  0  0  0  0  0  0  0  0  0  0
  147.8990  157.0260  133.1870 C   0  0  0  0  0  0  0  0  0  0  0  0
  146.8850  156.0610  133.1390 C   0  0  0  0  0  0  0  0  0  0  0  0
  147.0030  154.7240  132.9700 N   0  0  0  0  0  0  0  0  0  0  0  0
  148.2170  153.9910  132.7390 C   0  0  0  0  0  0  0  0  0  0  0  0
  149.2250  154.5770  132.2550 O   0  0  0  0  0  0  0  0  0  0  0  0
  148.2770  152.6290  133.0590 O   0  0  0  0  0  0  0  0  0  0  0  0
  149.4620  151.8430  132.9590 C   0  0  0  0  0  0  0  0  0  0  0  0
  149.1550  150.4680  132.3690 C   0  0  0  0  0  0  0  0  0  0  0  0
  147.7710  150.2970  132.2330 O   0  0  0  0  0  0  0  0  0  0  0  0
  146.9080  152.2410  131.4390 H   0  0  0  0  0  0  0  0  0  0  0  0
  145.7240  150.9490  131.8280 H   0  0  0  0  0  0  0  0  0  0  0  0
  143.7108  155.2023  133.0560 H   0  0  0  0  0  0  0  0  0  0  0  0
  144.0950  158.0122  133.3934 H   0  0  0  0  0  0  0  0  0  0  0  0
  145.8720  159.7890  133.5261 H   0  0  0  0  0  0  0  0  0  0  0  0
  148.1070  160.4348  133.2624 H   0  0  0  0  0  0  0  0  0  0  0  0
  149.1279  159.3762  134.3235 H   0  0  0  0  0  0  0  0  0  0  0  0
  150.5949  159.6035  132.5854 H   0  0  0  0  0  0  0  0  0  0  0  0
  149.6227  158.2124  131.9492 H   0  0  0  0  0  0  0  0  0  0  0  0
  148.9572  156.7361  133.1083 H   0  0  0  0  0  0  0  0  0  0  0  0
  150.1839  152.3605  132.3101 H   0  0  0  0  0  0  0  0  0  0  0  0
  149.8805  151.7077  133.9673 H   0  0  0  0  0  0  0  0  0  0  0  0
  149.6304  150.3825  131.3807 H   0  0  0  0  0  0  0  0  0  0  0  0
  149.5475  149.6927  133.0434 H   0  0  0  0  0  0  0  0  0  0  0  0
  147.3620  150.7360  133.0240 H   0  0  0  0  0  0  0  0  0  0  0  0
  1  2  1  0
  2  3  2  0
  2  4  1  0
  4  5  2  0
  5  6  1  0
  6  7  2  0
  7  8  1  0
  8  9  2  0
  9 10  1  0
 10 11  1  0
 11 12  1  0
 12 13  2  0
 12 14  1  0
  9 15  1  0
 15 16  2  0
 16 17  1  0
 17 18  1  0
 18 19  2  0
 18 20  1  0
 20 21  1  0
 21 22  1  0
 22 23  1  0
 17  4  1  0
 16  6  1  0
  1 24  1  0
  1 25  1  0
  5 26  1  0
  7 27  1  0
  8 28  1  0
 10 29  1  0
 10 30  1  0
 11 31  1  0
 11 32  1  0
 15 33  1  0
 21 34  1  0
 21 35  1  0
 22 36  1  0
 22 37  1  0
 23 38  1  0
M  CHG  1  14  -1
M  END
>  <UniqueID>  (13) 
13

>  <SMILES>  (13) 
NC(=O)c1cc2ccc(CCC(=O)[O-])cc2n1C(=O)OCCO

>  <Energy>  (13) 
70.36417745379556

>  <Genealogy>  (13) 
NC(=O)c1cc2ccc(CCC(=O)[O-])cc2n1C(=O)OCCO (protonated)
NC(=O)c1cc2ccc(CCC(=O)[O-])cc2n1C(=O)OCCO (3D coordinates assigned)
NC(=O)c1cc2ccc(CCC(=O)[O-])cc2n1C(=O)OCCO (optimized conformer: 70.36417745379556 kcal/mol)

>  <smiles>  (13) 
NC(=O)c1cc2ccc(CCC(=O)O)cc2n1C(=O)OCCO

>  <score_type>  (13) 
oracle

>  <origin>  (13) 
adg

>  <m_score__min__energy>  (13) 
-6.6699999999999999

>  <m_primary>  (13) 
energy

$$$$
13:0
     RDKit          3D

 47 49  0  0  0  0  0  0  0  0999 V2000
  147.5300  152.6310  133.4260 N   0  0  0  0  0  0  0  0  0  0  0  0
  148.3440  153.6430  132.8260 C   0  0  0  0  0  0  0  0  0  0  0  0
  149.4050  153.3130  132.2310 O   0  0  0  0  0  0  0  0  0  0  0  0
  147.9640  155.0670  132.9320 C   0  0  0  0  0  0  0  0  0  0  0  0
  148.8420  156.1130  132.6680 C   0  0  0  0  0  0  0  0  0  0  0  0
  148.0950  157.2590  132.8030 C   0  0  0  0  0  0  0  0  0  0  0  0
  148.4710  158.5910  132.6470 C   0  0  0  0  0  0  0  0  0  0  0  0
  147.4970  159.5790  132.8560 C   0  0  0  0  0  0  0  0  0  0  0  0
  146.1800  159.2240  133.2300 C   0  0  0  0  0  0  0  0  0  0  0  0
  145.1430  160.2930  133.4090 C   0  0  0  0  0  0  0  0  0  0  0  0
  144.0650  159.7960  134.1230 F   0  0  0  0  0  0  0  0  0  0  0  0
  145.6980  161.3530  134.1020 F   0  0  0  0  0  0  0  0  0  0  0  0
  145.8330  157.8610  133.3790 C   0  0  0  0  0  0  0  0  0  0  0  0
  146.8180  156.8910  133.1440 C   0  0  0  0  0  0  0  0  0  0  0  0
  146.7220  155.5400  133.2330 N   0  0  0  0  0  0  0  0  0  0  0  0
  145.5810  154.7710  133.6630 C   0  0  0  0  0  0  0  0  0  0  0  0
  145.1020  154.9320  134.8200 O   0  0  0  0  0  0  0  0  0  0  0  0
  145.0180  153.8200  132.8010 O   0  0  0  0  0  0  0  0  0  0  0  0
  143.6150  153.6720  132.5910 C   0  0  0  0  0  0  0  0  0  0  0  0
  142.9580  152.9480  133.7770 C   0  0  0  0  0  0  0  0  0  0  0  0
  142.2000  151.7630  133.3190 N   0  0  0  0  0  0  0  0  0  0  0  0
  143.1180  150.6560  132.9180 C   0  0  0  0  0  0  0  0  0  0  0  0
  142.4540  149.5360  132.0860 C   0  0  0  0  0  0  0  0  0  0  0  0
  140.6910  149.4670  132.3270 S   0  0  0  0  0  0  0  0  0  0  0  0
  140.3840  148.8640  133.6690 O   0  0  0  0  0  0  0  0  0  0  0  0
  140.0610  148.6370  131.2440 O   0  0  0  0  0  0  0  0  0  0  0  0
  140.0790  151.1390  132.2480 C   0  0  0  0  0  0  0  0  0  0  0  0
  141.2510  152.1200  132.2420 C   0  0  0  0  0  0  0  0  0  0  0  0
  146.6300  152.8780  133.8950 H   0  0  0  0  0  0  0  0  0  0  0  0
  147.8000  151.6240  133.3560 H   0  0  0  0  0  0  0  0  0  0  0  0
  149.9079  156.0389  132.4066 H   0  0  0  0  0  0  0  0  0  0  0  0
  149.5005  158.8602  132.3684 H   0  0  0  0  0  0  0  0  0  0  0  0
  147.7600  160.6394  132.7278 H   0  0  0  0  0  0  0  0  0  0  0  0
  144.7966  160.6288  132.4205 H   0  0  0  0  0  0  0  0  0  0  0  0
  144.8140  157.5686  133.6724 H   0  0  0  0  0  0  0  0  0  0  0  0
  143.1602  154.6674  132.4796 H   0  0  0  0  0  0  0  0  0  0  0  0
  143.4562  153.0739  131.6815 H   0  0  0  0  0  0  0  0  0  0  0  0
  143.7402  152.6254  134.4799 H   0  0  0  0  0  0  0  0  0  0  0  0
  142.2608  153.6419  134.2693 H   0  0  0  0  0  0  0  0  0  0  0  0
  143.9350  151.0876  132.3212 H   0  0  0  0  0  0  0  0  0  0  0  0
  143.4645  150.1865  133.8505 H   0  0  0  0  0  0  0  0  0  0  0  0
  142.6582  149.7187  131.0207 H   0  0  0  0  0  0  0  0  0  0  0  0
  142.8761  148.5760  132.4180 H   0  0  0  0  0  0  0  0  0  0  0  0
  139.4894  151.2689  131.3285 H   0  0  0  0  0  0  0  0  0  0  0  0
  139.4456  151.3356  133.1256 H   0  0  0  0  0  0  0  0  0  0  0  0
  141.7644  152.0716  131.2704 H   0  0  0  0  0  0  0  0  0  0  0  0
  140.8753  153.1403  132.4085 H   0  0  0  0  0  0  0  0  0  0  0  0
  1  2  1  0
  2  3  2  0
  2  4  1  0
  4  5  2  0
  5  6  1  0
  6  7  2  0
  7  8  1  0
  8  9  2  0
  9 10  1  0
 10 11  1  0
 10 12  1  0
  9 13  1  0
 13 14  2  0
 14 15  1  0
 15 16  1  0
 16 17  2  0
 16 18  1  0
 18 19  1  0
 19 20  1  0
 20 21  1  0
 21 22  1  0
 22 23  1  0
 23 24  1  0
 24 25  2  0
 24 26  2  0
 24 27  1  0
 27 28  1  0
 15  4  1  0
 28 21  1  0
 14  6  1  0
  1 29  1  0
  1 30  1  0
  5 31  1  0
  7 32  1  0
  8 33  1  0
 10 34  1  0
 13 35  1  0
 19 36  1  0
 19 37  1  0
 20 38  1  0
 20 39  1  0
 22 40  1  0
 22 41  1  0
 23 42  1  0
 23 43  1  0
 27 44  1  0
 27 45  1  0
 28 46  1  0
 28 47  1  0
M  END
>  <UniqueID>  (14) 
14

>  <SMILES>  (14) 
NC(=O)c1cc2ccc(C(F)F)cc2n1C(=O)OCCN1CCS(=O)(=O)CC1

>  <Energy>  (14) 
87.39840531956604

>  <Genealogy>  (14) 
NC(=O)c1cc2ccc(C(F)F)cc2n1C(=O)OCCN1CCS(=O)(=O)CC1 (3D coordinates assigned)
NC(=O)c1cc2ccc(C(F)F)cc2n1C(=O)OCCN1CCS(=O)(=O)CC1 (nonaromatic ring conformer: 87.39840531956604 kcal/mol)

>  <smiles>  (14) 
NC(=O)c1cc2ccc(C(F)F)cc2n1C(=O)OCCN1CCS(=O)(=O)CC1

>  <score_type>  (14) 
oracle

>  <origin>  (14) 
adg

>  <m_score__min__energy>  (14) 
-8.3100000000000005

>  <m_primary>  (14) 
energy

$$$$
14:0
     RDKit          3D

 51 52  0  0  0  0  0  0  0  0999 V2000
  138.5070  160.1120  130.4380 C   0  0  0  0  0  0  0  0  0  0  0  0
  138.4100  160.2260  131.8410 O   0  0  0  0  0  0  0  0  0  0  0  0
  139.0880  159.1440  132.4440 C   0  0  0  0  0  0  0  0  0  0  0  0
  140.5960  159.3670  132.3210 C   0  0  0  0  0  0  0  0  0  0  0  0
  141.0600  160.3260  133.3200 N   0  0  0  0  0  0  0  0  0  0  0  0
  141.7040  159.9250  134.5420 C   0  0  0  0  0  0  0  0  0  0  0  0
  141.1350  160.1160  135.6580 O   0  0  0  0  0  0  0  0  0  0  0  0
  143.0160  159.1940  134.4620 C   0  0  0  0  0  0  0  0  0  0  0  0
  144.1250  159.9700  133.7310 C   0  0  0  0  0  0  0  0  0  0  0  0
  145.3210  159.1030  133.4220 C   0  0  0  0  0  0  0  0  0  0  0  0
  146.5230  159.6790  132.9340 C   0  0  0  0  0  0  0  0  0  0  0  0
  147.6430  158.8770  132.6580 C   0  0  0  0  0  0  0  0  0  0  0  0
  147.5390  157.5090  132.8900 C   0  0  0  0  0  0  0  0  0  0  0  0
  148.4640  156.5060  132.7160 C   0  0  0  0  0  0  0  0  0  0  0  0
  147.8220  155.3370  133.1250 C   0  0  0  0  0  0  0  0  0  0  0  0
  148.4820  154.0180  133.1710 C   0  0  0  0  0  0  0  0  0  0  0  0
  147.8320  152.8860  133.7480 N   0  0  0  0  0  0  0  0  0  0  0  0
  149.6380  153.8860  132.6990 O   0  0  0  0  0  0  0  0  0  0  0  0
  146.5420  155.6040  133.5090 N   0  0  0  0  0  0  0  0  0  0  0  0
  145.5300  154.6760  133.9340 C   0  0  0  0  0  0  0  0  0  0  0  0
  145.2440  153.6880  133.2020 O   0  0  0  0  0  0  0  0  0  0  0  0
  144.8530  154.8180  135.2690 C   0  0  0  0  0  0  0  0  0  0  0  0
  145.3670  153.7710  136.2560 C   0  0  0  0  0  0  0  0  0  0  0  0
  146.7790  153.7290  136.1720 O   0  0  0  0  0  0  0  0  0  0  0  0
  147.3170  153.7300  137.4750 C   0  0  0  0  0  0  0  0  0  0  0  0
  146.3870  156.9390  133.3680 C   0  0  0  0  0  0  0  0  0  0  0  0
  145.2470  157.7090  133.6240 C   0  0  0  0  0  0  0  0  0  0  0  0
  139.2005  159.2970  130.1834 H   0  0  0  0  0  0  0  0  0  0  0  0
  137.5140  159.8930  130.0184 H   0  0  0  0  0  0  0  0  0  0  0  0
  138.8821  161.0571  130.0184 H   0  0  0  0  0  0  0  0  0  0  0  0
  138.8104  159.0815  133.5066 H   0  0  0  0  0  0  0  0  0  0  0  0
  138.8100  158.2060  131.9411 H   0  0  0  0  0  0  0  0  0  0  0  0
  141.1159  158.4093  132.4712 H   0  0  0  0  0  0  0  0  0  0  0  0
  140.8135  159.7669  131.3196 H   0  0  0  0  0  0  0  0  0  0  0  0
  143.3582  158.9857  135.4865 H   0  0  0  0  0  0  0  0  0  0  0  0
  142.8336  158.2786  133.8800 H   0  0  0  0  0  0  0  0  0  0  0  0
  143.7190  160.3625  132.7870 H   0  0  0  0  0  0  0  0  0  0  0  0
  144.4598  160.7827  134.3924 H   0  0  0  0  0  0  0  0  0  0  0  0
  146.5782  160.7653  132.7701 H   0  0  0  0  0  0  0  0  0  0  0  0
  148.5736  159.3171  132.2704 H   0  0  0  0  0  0  0  0  0  0  0  0
  149.4913  156.6047  132.3354 H   0  0  0  0  0  0  0  0  0  0  0  0
  146.9490  152.9910  134.2910 H   0  0  0  0  0  0  0  0  0  0  0  0
  148.2990  151.9520  133.7250 H   0  0  0  0  0  0  0  0  0  0  0  0
  145.0561  155.8217  135.6707 H   0  0  0  0  0  0  0  0  0  0  0  0
  143.7716  154.6702  135.1318 H   0  0  0  0  0  0  0  0  0  0  0  0
  145.0641  154.0440  137.2776 H   0  0  0  0  0  0  0  0  0  0  0  0
  144.9457  152.7846  136.0121 H   0  0  0  0  0  0  0  0  0  0  0  0
  146.4983  153.7285  138.2097 H   0  0  0  0  0  0  0  0  0  0  0  0
  147.9379  152.8330  137.6160 H   0  0  0  0  0  0  0  0  0  0  0  0
  147.9346  154.6293  137.6160 H   0  0  0  0  0  0  0  0  0  0  0  0
  144.3162  157.2388  133.9741 H   0  0  0  0  0  0  0  0  0  0  0  0
  1  2  1  0
  2  3  1  0
  3  4  1  0
  4  5  1  0
  5  6  1  0
  6  7  2  0
  6  8  1  0
  8  9  1  0
  9 10  1  0
 10 11  2  0
 11 12  1  0
 12 13  2  0
 13 14  1  0
 14 15  2  0
 15 16  1  0
 16 17  1  0
 16 18  2  0
 15 19  1  0
 19 20  1  0
 20 21  2  0
 20 22  1  0
 22 23  1  0
 23 24  1  0
 24 25  1  0
 19 26  1  0
 26 27  2  0
 27 10  1  0
 26 13  1  0
  1 28  1  0
  1 29  1  0
  1 30  1  0
  3 31  1  0
  3 32  1  0
  4 33  1  0
  4 34  1  0
  8 35  1  0
  8 36  1  0
  9 37  1  0
  9 38  1  0
 11 39  1  0
 12 40  1  0
 14 41  1  0
 17 42  1  0
 17 43  1  0
 22 44  1  0
 22 45  1  0
 23 46  1  0
 23 47  1  0
 25 48  1  0
 25 49  1  0
 25 50  1  0
 27 51  1  0
M  CHG  1   5  -1
M  END
>  <UniqueID>  (15) 
15

>  <SMILES>  (15) 
COCC[N-]C(=O)CCc1ccc2cc(C(N)=O)n(C(=O)CCOC)c2c1

>  <Energy>  (15) 
83.17983281378618

>  <Genealogy>  (15) 
COCC[N-]C(=O)CCc1ccc2cc(C(N)=O)n(C(=O)CCOC)c2c1 (protonated)
COCC[N-]C(=O)CCc1ccc2cc(C(N)=O)n(C(=O)CCOC)c2c1 (3D coordinates assigned)
COCC[N-]C(=O)CCc1ccc2cc(C(N)=O)n(C(=O)CCOC)c2c1 (optimized conformer: 83.17983281378618 kcal/mol)

>  <smiles>  (15) 
COCCNC(=O)CCc1ccc2cc(C(N)=O)n(C(=O)CCOC)c2c1

>  <score_type>  (15) 
oracle

>  <origin>  (15) 
adg

>  <m_score__min__energy>  (15) 
-7.3600000000000003

>  <m_primary>  (15) 
energy

$$$$
15:0
     RDKit          3D

 50 52  0  0  0  0  0  0  0  0999 V2000
  139.8020  159.3570  130.7350 C   0  0  0  0  0  0  0  0  0  0  0  0
  139.8230  159.1490  132.2650 C   0  0  0  0  0  0  0  0  0  0  0  0
  140.3110  160.4560  132.9250 C   0  0  0  0  0  0  0  0  0  0  0  0
  138.3800  158.8410  132.7240 C   0  0  0  0  0  0  0  0  0  0  0  0
  140.7870  157.9630  132.5780 C   0  0  0  0  0  0  0  0  0  0  0  0
  140.1530  156.6760  133.0550 C   0  0  0  0  0  0  0  0  0  0  0  0
  139.1700  156.1730  132.4490 O   0  0  0  0  0  0  0  0  0  0  0  0
  140.7620  155.9400  134.1250 N   0  0  0  0  0  0  0  0  0  0  0  0
  141.1670  156.4170  135.3350 C   0  0  0  0  0  0  0  0  0  0  0  0
  140.9760  157.7970  135.8300 C   0  0  0  0  0  0  0  0  0  0  0  0
  139.8980  158.1240  136.7030 N   0  0  0  0  0  0  0  0  0  0  0  0
  141.7910  158.6980  135.4960 O   0  0  0  0  0  0  0  0  0  0  0  0
  141.7560  155.4010  136.0850 C   0  0  0  0  0  0  0  0  0  0  0  0
  141.7000  154.2790  135.2880 C   0  0  0  0  0  0  0  0  0  0  0  0
  142.1480  152.9840  135.5290 C   0  0  0  0  0  0  0  0  0  0  0  0
  141.9740  152.0280  134.5130 C   0  0  0  0  0  0  0  0  0  0  0  0
  141.3740  152.3840  133.2750 C   0  0  0  0  0  0  0  0  0  0  0  0
  141.1700  151.3490  132.1850 C   0  0  2  0  0  0  0  0  0  0  0  0
  139.7180  150.8300  132.2170 C   0  0  0  0  0  0  0  0  0  0  0  0
  139.4740  149.6770  131.2260 C   0  0  1  0  0  0  0  0  0  0  0  0
  139.4660  150.1390  129.8990 O   0  0  0  0  0  0  0  0  0  0  0  0
  140.4900  148.5820  131.4130 C   0  0  0  0  0  0  0  0  0  0  0  0
  140.2060  147.4020  131.0790 O   0  0  0  0  0  0  0  0  0  0  0  0
  141.7950  148.8820  131.9210 N   0  0  0  0  0  0  0  0  0  0  0  0
  142.1640  150.2130  132.2990 C   0  0  0  0  0  0  0  0  0  0  0  0
  143.3500  150.4470  132.6570 O   0  0  0  0  0  0  0  0  0  0  0  0
  140.9270  153.7100  133.0760 C   0  0  0  0  0  0  0  0  0  0  0  0
  141.0980  154.6330  134.1090 C   0  0  0  0  0  0  0  0  0  0  0  0
  139.6938  160.4287  130.5121 H   0  0  0  0  0  0  0  0  0  0  0  0
  140.7422  158.9854  130.3015 H   0  0  0  0  0  0  0  0  0  0  0  0
  138.9550  158.8050  130.3015 H   0  0  0  0  0  0  0  0  0  0  0  0
  140.2718  160.3510  134.0193 H   0  0  0  0  0  0  0  0  0  0  0  0
  141.3459  160.6601  132.6131 H   0  0  0  0  0  0  0  0  0  0  0  0
  139.6631  161.2884  132.6131 H   0  0  0  0  0  0  0  0  0  0  0  0
  138.3389  158.8322  133.8232 H   0  0  0  0  0  0  0  0  0  0  0  0
  137.6995  159.6141  132.3378 H   0  0  0  0  0  0  0  0  0  0  0  0
  138.0744  157.8574  132.3378 H   0  0  0  0  0  0  0  0  0  0  0  0
  141.3463  157.7373  131.6581 H   0  0  0  0  0  0  0  0  0  0  0  0
  141.4043  158.3088  133.4202 H   0  0  0  0  0  0  0  0  0  0  0  0
  139.4900  159.0850  136.7170 H   0  0  0  0  0  0  0  0  0  0  0  0
  142.1765  155.4785  137.0985 H   0  0  0  0  0  0  0  0  0  0  0  0
  142.6233  152.7166  136.4843 H   0  0  0  0  0  0  0  0  0  0  0  0
  142.3061  150.9924  134.6783 H   0  0  0  0  0  0  0  0  0  0  0  0
  141.3494  151.8318  131.2130 H   0  0  0  0  0  0  0  0  0  0  0  0
  139.4948  150.4730  133.2332 H   0  0  0  0  0  0  0  0  0  0  0  0
  139.0622  151.6630  131.9236 H   0  0  0  0  0  0  0  0  0  0  0  0
  138.4800  149.2564  131.4381 H   0  0  0  0  0  0  0  0  0  0  0  0
  139.5950  151.1230  129.9120 H   0  0  0  0  0  0  0  0  0  0  0  0
  142.4970  148.1130  132.0090 H   0  0  0  0  0  0  0  0  0  0  0  0
  140.4549  154.0080  132.1282 H   0  0  0  0  0  0  0  0  0  0  0  0
  1  2  1  0
  2  3  1  0
  2  4  1  0
  2  5  1  0
  5  6  1  0
  6  7  2  0
  6  8  1  0
  8  9  1  0
  9 10  1  0
 10 11  1  0
 10 12  2  0
  9 13  2  0
 13 14  1  0
 14 15  2  0
 15 16  1  0
 16 17  2  0
 17 18  1  0
 18 19  1  0
 19 20  1  0
 20 21  1  0
 20 22  1  0
 22 23  2  0
 22 24  1  0
 24 25  1  0
 25 26  2  0
 17 27  1  0
 27 28  2  0
 28  8  1  0
 28 14  1  0
 25 18  1  0
  1 29  1  0
  1 30  1  0
  1 31  1  0
  3 32  1  0
  3 33  1  0
  3 34  1  0
  4 35  1  0
  4 36  1  0
  4 37  1  0
  5 38  1  0
  5 39  1  0
 11 40  1  0
 13 41  1  0
 15 42  1  0
 16 43  1  0
 18 44  1  6
 19 45  1  0
 19 46  1  0
 20 47  1  1
 21 48  1  0
 24 49  1  0
 27 50  1  0
M  CHG  1  11  -1
M  END
>  <UniqueID>  (16) 
16

>  <SMILES>  (16) 
CC(C)(C)CC(=O)n1c(C([NH-])=O)cc2ccc([C@@H]3C[C@@H](O)C(=O)NC3=O)cc21

>  <Energy>  (16) 
88.50001022439659

>  <Genealogy>  (16) 
CC(C)(C)CC(=O)n1c(C([NH-])=O)cc2ccc([C@@H]3CC(O)C(=O)NC3=O)cc21 (protonated)
CC(C)(C)CC(=O)n1c(C([NH-])=O)cc2ccc([C@@H]3C[C@@H](O)C(=O)NC3=O)cc21 (chirality)
CC(C)(C)CC(=O)n1c(C([NH-])=O)cc2ccc([C@@H]3C[C@@H](O)C(=O)NC3=O)cc21 (3D coordinates assigned)
CC(C)(C)CC(=O)n1c(C([NH-])=O)cc2ccc([C@@H]3C[C@@H](O)C(=O)NC3=O)cc21 (nonaromatic ring conformer: 88.50001022439659 kcal/mol)

>  <smiles>  (16) 
CC(C)(C)CC(=O)n1c(C(N)=O)cc2ccc([C@@H]3CC(O)C(=O)NC3=O)cc21

>  <score_type>  (16) 
oracle

>  <origin>  (16) 
adg

>  <m_score__min__energy>  (16) 
-9.6500000000000004

>  <m_primary>  (16) 
energy

$$$$
16:0
     RDKit          3D

 49 51  0  0  0  0  0  0  0  0999 V2000
  143.6880  159.6130  133.4370 C   0  0  0  0  0  0  0  0  0  0  0  0
  142.8060  160.2760  134.4160 N   0  0  0  0  0  0  0  0  0  0  0  0
  142.1100  159.3060  135.2950 C   0  0  0  0  0  0  0  0  0  0  0  0
  140.7000  158.9340  134.7940 C   0  0  0  0  0  0  0  0  0  0  0  0
  140.6370  159.0750  133.3310 N   0  0  0  0  0  0  0  0  0  0  0  0
  139.3980  158.4780  132.7920 C   0  0  0  0  0  0  0  0  0  0  0  0
  139.2080  157.0340  133.2860 C   0  0  0  0  0  0  0  0  0  0  0  0
  140.1210  156.1470  132.6430 O   0  0  0  0  0  0  0  0  0  0  0  0
  140.1680  154.7710  132.8850 C   0  0  0  0  0  0  0  0  0  0  0  0
  139.0980  154.1120  133.0090 O   0  0  0  0  0  0  0  0  0  0  0  0
  141.4390  154.1110  133.0090 N   0  0  0  0  0  0  0  0  0  0  0  0
  142.6290  154.6680  133.3750 C   0  0  0  0  0  0  0  0  0  0  0  0
  142.8820  156.1050  133.5900 C   0  0  0  0  0  0  0  0  0  0  0  0
  142.3860  157.0850  132.6790 N   0  0  0  0  0  0  0  0  0  0  0  0
  143.6010  156.4690  134.5590 O   0  0  0  0  0  0  0  0  0  0  0  0
  143.6240  153.6990  133.4460 C   0  0  0  0  0  0  0  0  0  0  0  0
  143.0110  152.5220  133.0870 C   0  0  0  0  0  0  0  0  0  0  0  0
  143.5340  151.2360  132.9920 C   0  0  0  0  0  0  0  0  0  0  0  0
  142.6650  150.1970  132.6230 C   0  0  0  0  0  0  0  0  0  0  0  0
  141.2980  150.4570  132.3480 C   0  0  0  0  0  0  0  0  0  0  0  0
  140.3660  149.3200  132.0120 C   0  0  0  0  0  0  0  0  0  0  0  0
  140.9840  148.1000  132.2220 F   0  0  0  0  0  0  0  0  0  0  0  0
  139.9950  149.4150  130.6850 F   0  0  0  0  0  0  0  0  0  0  0  0
  139.2310  149.3720  132.8020 F   0  0  0  0  0  0  0  0  0  0  0  0
  140.7990  151.7730  132.4820 C   0  0  0  0  0  0  0  0  0  0  0  0
  141.6920  152.7940  132.8290 C   0  0  0  0  0  0  0  0  0  0  0  0
  140.7790  160.4970  132.9460 C   0  0  0  0  0  0  0  0  0  0  0  0
  141.8690  161.2170  133.7730 C   0  0  0  0  0  0  0  0  0  0  0  0
  144.4574  159.0346  133.9694 H   0  0  0  0  0  0  0  0  0  0  0  0
  143.0925  158.9371  132.8058 H   0  0  0  0  0  0  0  0  0  0  0  0
  144.1718  160.3729  132.8058 H   0  0  0  0  0  0  0  0  0  0  0  0
  142.7144  158.3886  135.3506 H   0  0  0  0  0  0  0  0  0  0  0  0
  141.9915  159.7835  136.2788 H   0  0  0  0  0  0  0  0  0  0  0  0
  140.4773  157.8928  135.0703 H   0  0  0  0  0  0  0  0  0  0  0  0
  139.9618  159.6063  135.2555 H   0  0  0  0  0  0  0  0  0  0  0  0
  138.5388  159.0831  133.1169 H   0  0  0  0  0  0  0  0  0  0  0  0
  139.4717  158.4609  131.6946 H   0  0  0  0  0  0  0  0  0  0  0  0
  139.3791  157.0004  134.3721 H   0  0  0  0  0  0  0  0  0  0  0  0
  138.1831  156.7147  133.0460 H   0  0  0  0  0  0  0  0  0  0  0  0
  142.5680  158.0990  132.8460 H   0  0  0  0  0  0  0  0  0  0  0  0
  141.9150  156.8020  131.7910 H   0  0  0  0  0  0  0  0  0  0  0  0
  144.6771  153.8435  133.7291 H   0  0  0  0  0  0  0  0  0  0  0  0
  144.5962  151.0395  133.1998 H   0  0  0  0  0  0  0  0  0  0  0  0
  143.0488  149.1690  132.5462 H   0  0  0  0  0  0  0  0  0  0  0  0
  139.7332  151.9899  132.3173 H   0  0  0  0  0  0  0  0  0  0  0  0
  141.0483  160.5509  131.8808 H   0  0  0  0  0  0  0  0  0  0  0  0
  139.8194  160.9983  133.1408 H   0  0  0  0  0  0  0  0  0  0  0  0
  142.4382  161.8798  133.1047 H   0  0  0  0  0  0  0  0  0  0  0  0
  141.3641  161.7821  134.5703 H   0  0  0  0  0  0  0  0  0  0  0  0
  1  2  1  0
  2  3  1  0
  3  4  1  0
  4  5  1  0
  5  6  1  0
  6  7  1  0
  7  8  1  0
  8  9  1  0
  9 10  2  0
  9 11  1  0
 11 12  1  0
 12 13  1  0
 13 14  1  0
 13 15  2  0
 12 16  2  0
 16 17  1  0
 17 18  2  0
 18 19  1  0
 19 20  2  0
 20 21  1  0
 21 22  1  0
 21 23  1  0
 21 24  1  0
 20 25  1  0
 25 26  2  0
  5 27  1  0
 27 28  1  0
 28  2  1  0
 26 11  1  0
 26 17  1  0
  1 29  1  0
  1 30  1  0
  1 31  1  0
  3 32  1  0
  3 33  1  0
  4 34  1  0
  4 35  1  0
  6 36  1  0
  6 37  1  0
  7 38  1  0
  7 39  1  0
 14 40  1  0
 14 41  1  0
 16 42  1  0
 18 43  1  0
 19 44  1  0
 25 45  1  0
 27 46  1  0
 27 47  1  0
 28 48  1  0
 28 49  1  0
M  END
>  <UniqueID>  (17) 
17

>  <SMILES>  (17) 
CN1CCN(CCOC(=O)n2c(C(N)=O)cc3ccc(C(F)(F)F)cc32)CC1

>  <Energy>  (17) 
95.70405705129079

>  <Genealogy>  (17) 
CN1CCN(CCOC(=O)n2c(C(N)=O)cc3ccc(C(F)(F)F)cc32)CC1 (3D coordinates assigned)
CN1CCN(CCOC(=O)n2c(C(N)=O)cc3ccc(C(F)(F)F)cc32)CC1 (nonaromatic ring conformer: 95.70405705129079 kcal/mol)

>  <smiles>  (17) 
CN1CCN(CCOC(=O)n2c(C(N)=O)cc3ccc(C(F)(F)F)cc32)CC1

>  <score_type>  (17) 
oracle

>  <origin>  (17) 
adg

>  <m_score__min__energy>  (17) 
-7.6200000000000001

>  <m_primary>  (17) 
energy

$$$$
17:0
     RDKit          3D

 34 35  0  0  0  0  0  0  0  0999 V2000
  148.3140  153.3150  137.3810 C   0  0  0  0  0  0  0  0  0  0  0  0
  147.0030  153.2910  136.7480 N   0  0  0  0  0  0  0  0  0  0  0  0
  146.5540  154.2500  135.7830 C   0  0  0  0  0  0  0  0  0  0  0  0
  147.2330  155.2960  135.6100 O   0  0  0  0  0  0  0  0  0  0  0  0
  145.2590  154.0720  135.0360 C   0  0  0  0  0  0  0  0  0  0  0  0
  144.4560  155.2900  135.0850 N   0  0  0  0  0  0  0  0  0  0  0  0
  143.8020  155.8460  133.9390 C   0  0  0  0  0  0  0  0  0  0  0  0
  143.2940  155.0880  133.0690 O   0  0  0  0  0  0  0  0  0  0  0  0
  143.7140  157.2710  133.7870 N   0  0  0  0  0  0  0  0  0  0  0  0
  142.5980  158.0510  133.8620 C   0  0  0  0  0  0  0  0  0  0  0  0
  141.2050  157.5680  133.9690 C   0  0  0  0  0  0  0  0  0  0  0  0
  140.7210  156.5290  133.1210 N   0  0  0  0  0  0  0  0  0  0  0  0
  140.4180  158.1090  134.7910 O   0  0  0  0  0  0  0  0  0  0  0  0
  142.9360  159.3980  133.7470 C   0  0  0  0  0  0  0  0  0  0  0  0
  144.3030  159.4190  133.5880 C   0  0  0  0  0  0  0  0  0  0  0  0
  145.1720  160.4970  133.4520 C   0  0  0  0  0  0  0  0  0  0  0  0
  146.5450  160.2270  133.3440 C   0  0  0  0  0  0  0  0  0  0  0  0
  147.0270  158.8920  133.3650 C   0  0  0  0  0  0  0  0  0  0  0  0
  148.5080  158.6180  133.3110 C   0  0  0  0  0  0  0  0  0  0  0  0
  149.0650  159.3330  132.2660 F   0  0  0  0  0  0  0  0  0  0  0  0
  149.1200  158.9990  134.4940 F   0  0  0  0  0  0  0  0  0  0  0  0
  148.7500  157.2690  133.1140 F   0  0  0  0  0  0  0  0  0  0  0  0
  146.1140  157.8250  133.5320 C   0  0  0  0  0  0  0  0  0  0  0  0
  144.7480  158.1230  133.6160 C   0  0  0  0  0  0  0  0  0  0  0  0
  148.1933  153.3128  138.4744 H   0  0  0  0  0  0  0  0  0  0  0  0
  148.8860  152.4272  137.0734 H   0  0  0  0  0  0  0  0  0  0  0  0
  148.8531  154.2232  137.0734 H   0  0  0  0  0  0  0  0  0  0  0  0
  145.4797  153.8285  133.9862 H   0  0  0  0  0  0  0  0  0  0  0  0
  144.6904  153.2577  135.5088 H   0  0  0  0  0  0  0  0  0  0  0  0
  141.3780  155.9470  132.5560 H   0  0  0  0  0  0  0  0  0  0  0  0
  142.2549  160.2612  133.7769 H   0  0  0  0  0  0  0  0  0  0  0  0
  144.7943  161.5299  133.4298 H   0  0  0  0  0  0  0  0  0  0  0  0
  147.2562  161.0599  133.2418 H   0  0  0  0  0  0  0  0  0  0  0  0
  146.4683  156.7855  133.5944 H   0  0  0  0  0  0  0  0  0  0  0  0
  1  2  1  0
  2  3  1  0
  3  4  2  0
  3  5  1  0
  5  6  1  0
  6  7  1  0
  7  8  2  0
  7  9  1  0
  9 10  1  0
 10 11  1  0
 11 12  1  0
 11 13  2  0
 10 14  2  0
 14 15  1  0
 15 16  2  0
 16 17  1  0
 17 18  2  0
 18 19  1  0
 19 20  1  0
 19 21  1  0
 19 22  1  0
 18 23  1  0
 23 24  2  0
 24  9  1  0
 24 15  1  0
  1 25  1  0
  1 26  1  0
  1 27  1  0
  5 28  1  0
  5 29  1  0
 12 30  1  0
 14 31  1  0
 16 32  1  0
 17 33  1  0
 23 34  1  0
M  CHG  3   2  -1   6  -1  12  -1
M  END
>  <UniqueID>  (18) 
18

>  <SMILES>  (18) 
C[N-]C(=O)C[N-]C(=O)n1c(C([NH-])=O)cc2ccc(C(F)(F)F)cc21

>  <Energy>  (18) 
70.01874728825659

>  <Genealogy>  (18) 
C[N-]C(=O)C[N-]C(=O)n1c(C([NH-])=O)cc2ccc(C(F)(F)F)cc21 (protonated)
C[N-]C(=O)C[N-]C(=O)n1c(C([NH-])=O)cc2ccc(C(F)(F)F)cc21 (3D coordinates assigned)
C[N-]C(=O)C[N-]C(=O)n1c(C([NH-])=O)cc2ccc(C(F)(F)F)cc21 (optimized conformer: 70.01874728825659 kcal/mol)

>  <smiles>  (18) 
CNC(=O)CNC(=O)n1c(C(N)=O)cc2ccc(C(F)(F)F)cc21

>  <score_type>  (18) 
oracle

>  <origin>  (18) 
adg

>  <m_score__min__energy>  (18) 
-6.04

>  <m_primary>  (18) 
energy

$$$$
18:0
     RDKit          3D

 46 47  0  0  0  0  0  0  0  0999 V2000
  146.7240  152.2580  132.5930 C   0  0  0  0  0  0  0  0  0  0  0  0
  148.1920  152.3220  132.6670 N   0  0  0  0  0  0  0  0  0  0  0  0
  148.7980  153.6260  132.5630 C   0  0  0  0  0  0  0  0  0  0  0  0
  150.0410  153.7310  132.3840 O   0  0  0  0  0  0  0  0  0  0  0  0
  147.9590  154.8680  132.6520 C   0  0  0  0  0  0  0  0  0  0  0  0
  148.8210  156.1000  132.9450 C   0  0  0  0  0  0  0  0  0  0  0  0
  147.9570  157.3210  133.1090 C   0  0  0  0  0  0  0  0  0  0  0  0
  148.5120  158.6150  132.9410 C   0  0  0  0  0  0  0  0  0  0  0  0
  147.7040  159.7580  133.0520 C   0  0  0  0  0  0  0  0  0  0  0  0
  146.3520  159.5780  133.3290 C   0  0  0  0  0  0  0  0  0  0  0  0
  145.3450  160.5070  133.4630 C   0  0  0  0  0  0  0  0  0  0  0  0
  144.1920  159.7680  133.7190 C   0  0  0  0  0  0  0  0  0  0  0  0
  142.8840  160.3850  134.0210 C   0  0  0  0  0  0  0  0  0  0  0  0
  141.9530  159.7450  134.8910 N   0  0  0  0  0  0  0  0  0  0  0  0
  142.6070  161.5190  133.5470 O   0  0  0  0  0  0  0  0  0  0  0  0
  144.4710  158.4330  133.7340 N   0  0  0  0  0  0  0  0  0  0  0  0
  143.5450  157.3420  133.8730 C   0  0  0  0  0  0  0  0  0  0  0  0
  142.4480  157.3550  133.2550 O   0  0  0  0  0  0  0  0  0  0  0  0
  143.8420  156.2710  134.7090 O   0  0  0  0  0  0  0  0  0  0  0  0
  145.7990  158.3340  133.4970 C   0  0  0  0  0  0  0  0  0  0  0  0
  146.5770  157.1770  133.3730 C   0  0  0  0  0  0  0  0  0  0  0  0
  149.0470  151.0990  132.6220 C   0  0  0  0  0  0  0  0  0  0  0  0
  149.9640  151.0690  133.8660 C   0  0  0  0  0  0  0  0  0  0  0  0
  149.9500  151.0610  131.3630 C   0  0  0  0  0  0  0  0  0  0  0  0
  148.1640  149.8340  132.6050 C   0  0  0  0  0  0  0  0  0  0  0  0
  146.3060  152.2398  133.6103 H   0  0  0  0  0  0  0  0  0  0  0  0
  146.3451  153.1405  132.0567 H   0  0  0  0  0  0  0  0  0  0  0  0
  146.4233  151.3459  132.0567 H   0  0  0  0  0  0  0  0  0  0  0  0
  147.4349  155.0160  131.6963 H   0  0  0  0  0  0  0  0  0  0  0  0
  147.2391  154.7434  133.4743 H   0  0  0  0  0  0  0  0  0  0  0  0
  149.3896  155.9319  133.8715 H   0  0  0  0  0  0  0  0  0  0  0  0
  149.5088  156.2616  132.1019 H   0  0  0  0  0  0  0  0  0  0  0  0
  149.5844  158.7243  132.7219 H   0  0  0  0  0  0  0  0  0  0  0  0
  148.1269  160.7654  132.9239 H   0  0  0  0  0  0  0  0  0  0  0  0
  145.4322  161.6007  133.3846 H   0  0  0  0  0  0  0  0  0  0  0  0
  141.7360  158.7290  134.7890 H   0  0  0  0  0  0  0  0  0  0  0  0
  146.1246  156.1799  133.4786 H   0  0  0  0  0  0  0  0  0  0  0  0
  149.3473  151.0892  134.7767 H   0  0  0  0  0  0  0  0  0  0  0  0
  150.5693  150.1506  133.8533 H   0  0  0  0  0  0  0  0  0  0  0  0
  150.6280  151.9459  133.8533 H   0  0  0  0  0  0  0  0  0  0  0  0
  151.0054  151.0166  131.6699 H   0  0  0  0  0  0  0  0  0  0  0  0
  149.7050  150.1724  130.7627 H   0  0  0  0  0  0  0  0  0  0  0  0
  149.7805  151.9671  130.7627 H   0  0  0  0  0  0  0  0  0  0  0  0
  147.9476  149.5240  133.6380 H   0  0  0  0  0  0  0  0  0  0  0  0
  147.2209  150.0521  132.0824 H   0  0  0  0  0  0  0  0  0  0  0  0
  148.6939  149.0240  132.0824 H   0  0  0  0  0  0  0  0  0  0  0  0
  1  2  1  0
  2  3  1  0
  3  4  2  0
  3  5  1  0
  5  6  1  0
  6  7  1  0
  7  8  2  0
  8  9  1  0
  9 10  2  0
 10 11  1  0
 11 12  2  0
 12 13  1  0
 13 14  1  0
 13 15  2  0
 12 16  1  0
 16 17  1  0
 17 18  2  0
 17 19  1  0
 16 20  1  0
 20 21  2  0
  2 22  1  0
 22 23  1  0
 22 24  1  0
 22 25  1  0
 21  7  1  0
 20 10  1  0
  1 26  1  0
  1 27  1  0
  1 28  1  0
  5 29  1  0
  5 30  1  0
  6 31  1  0
  6 32  1  0
  8 33  1  0
  9 34  1  0
 11 35  1  0
 14 36  1  0
 21 37  1  0
 23 38  1  0
 23 39  1  0
 23 40  1  0
 24 41  1  0
 24 42  1  0
 24 43  1  0
 25 44  1  0
 25 45  1  0
 25 46  1  0
M  CHG  2  14  -1  19  -1
M  END
>  <UniqueID>  (19) 
19

>  <SMILES>  (19) 
CN(C(=O)CCc1ccc2cc(C([NH-])=O)n(C(=O)[O-])c2c1)C(C)(C)C

>  <Energy>  (19) 
85.77597190833212

>  <Genealogy>  (19) 
CN(C(=O)CCc1ccc2cc(C([NH-])=O)n(C(=O)[O-])c2c1)C(C)(C)C (protonated)
CN(C(=O)CCc1ccc2cc(C([NH-])=O)n(C(=O)[O-])c2c1)C(C)(C)C (3D coordinates assigned)
CN(C(=O)CCc1ccc2cc(C([NH-])=O)n(C(=O)[O-])c2c1)C(C)(C)C (optimized conformer: 85.77597190833212 kcal/mol)

>  <smiles>  (19) 
CN(C(=O)CCc1ccc2cc(C(N)=O)n(C(=O)O)c2c1)C(C)(C)C

>  <score_type>  (19) 
oracle

>  <origin>  (19) 
adg

>  <m_score__min__energy>  (19) 
-8.1400000000000006

>  <m_primary>  (19) 
energy

$$$$
19:0
     RDKit          3D

 35 37  0  0  0  0  0  0  0  0999 V2000
  147.7020  155.9920  135.1220 C   0  0  0  0  0  0  0  0  0  0  0  0
  147.0080  155.7260  134.0160 C   0  0  0  0  0  0  0  0  0  0  0  0
  146.9740  156.6340  132.8540 C   0  0  0  0  0  0  0  0  0  0  0  0
  147.0450  156.1440  131.6960 O   0  0  0  0  0  0  0  0  0  0  0  0
  146.8510  158.0580  133.0110 N   0  0  0  0  0  0  0  0  0  0  0  0
  147.7920  159.0070  132.7510 C   0  0  0  0  0  0  0  0  0  0  0  0
  149.1870  158.7470  132.3400 C   0  0  0  0  0  0  0  0  0  0  0  0
  149.6460  157.4040  132.1970 N   0  0  0  0  0  0  0  0  0  0  0  0
  149.9750  159.6980  132.0970 O   0  0  0  0  0  0  0  0  0  0  0  0
  147.2720  160.2820  132.9750 C   0  0  0  0  0  0  0  0  0  0  0  0
  145.9700  160.0800  133.3760 C   0  0  0  0  0  0  0  0  0  0  0  0
  144.9850  160.9970  133.7310 C   0  0  0  0  0  0  0  0  0  0  0  0
  143.7230  160.5010  134.0990 C   0  0  0  0  0  0  0  0  0  0  0  0
  143.4660  159.1060  134.0900 C   0  0  0  0  0  0  0  0  0  0  0  0
  142.1290  158.5750  134.5280 C   0  0  0  0  0  0  0  0  0  0  0  0
  141.0780  159.0850  133.6480 N   0  0  0  0  0  0  0  0  0  0  0  0
  140.9090  160.3650  133.2550 C   0  0  0  0  0  0  0  0  0  0  0  0
  139.9000  160.5090  132.3680 N   0  0  0  0  0  0  0  0  0  0  0  0
  139.4300  159.2560  132.2020 C   0  0  0  0  0  0  0  0  0  0  0  0
  138.1060  158.8460  131.1290 Cl  0  0  0  0  0  0  0  0  0  0  0  0
  140.1520  158.3790  132.9760 C   0  0  0  0  0  0  0  0  0  0  0  0
  139.9330  156.6380  133.0650 Cl  0  0  0  0  0  0  0  0  0  0  0  0
  144.4880  158.2060  133.7210 C   0  0  0  0  0  0  0  0  0  0  0  0
  145.7400  158.7290  133.3820 C   0  0  0  0  0  0  0  0  0  0  0  0
  147.6938  155.2806  135.9609 H   0  0  0  0  0  0  0  0  0  0  0  0
  148.2831  156.9230  135.1961 H   0  0  0  0  0  0  0  0  0  0  0  0
  146.4353  154.7881  133.9674 H   0  0  0  0  0  0  0  0  0  0  0  0
  149.1270  156.7200  131.6020 H   0  0  0  0  0  0  0  0  0  0  0  0
  147.7916  161.2443  132.8565 H   0  0  0  0  0  0  0  0  0  0  0  0
  145.1885  162.0780  133.7237 H   0  0  0  0  0  0  0  0  0  0  0  0
  142.9277  161.2002  134.3966 H   0  0  0  0  0  0  0  0  0  0  0  0
  142.1406  157.4760  134.4833 H   0  0  0  0  0  0  0  0  0  0  0  0
  141.9291  158.9032  135.5587 H   0  0  0  0  0  0  0  0  0  0  0  0
  141.5258  161.2005  133.6175 H   0  0  0  0  0  0  0  0  0  0  0  0
  144.3049  157.1215  133.7005 H   0  0  0  0  0  0  0  0  0  0  0  0
  1  2  2  0
  2  3  1  0
  3  4  2  0
  3  5  1  0
  5  6  1  0
  6  7  1  0
  7  8  1  0
  7  9  2  0
  6 10  2  0
 10 11  1  0
 11 12  2  0
 12 13  1  0
 13 14  2  0
 14 15  1  0
 15 16  1  0
 16 17  1  0
 17 18  2  0
 18 19  1  0
 19 20  1  0
 19 21  2  0
 21 22  1  0
 14 23  1  0
 23 24  2  0
 24  5  1  0
 24 11  1  0
 21 16  1  0
  1 25  1  0
  1 26  1  0
  2 27  1  0
  8 28  1  0
 10 29  1  0
 12 30  1  0
 13 31  1  0
 15 32  1  0
 15 33  1  0
 17 34  1  0
 23 35  1  0
M  CHG  1   8  -1
M  END
>  <UniqueID>  (20) 
20

>  <SMILES>  (20) 
C=CC(=O)n1c(C([NH-])=O)cc2ccc(Cn3cnc(Cl)c3Cl)cc21

>  <Energy>  (20) 
103.73324320686537

>  <Genealogy>  (20) 
C=CC(=O)n1c(C([NH-])=O)cc2ccc(Cn3cnc(Cl)c3Cl)cc21 (protonated)
C=CC(=O)n1c(C([NH-])=O)cc2ccc(Cn3cnc(Cl)c3Cl)cc21 (3D coordinates assigned)
C=CC(=O)n1c(C([NH-])=O)cc2ccc(Cn3cnc(Cl)c3Cl)cc21 (optimized conformer: 103.73324320686537 kcal/mol)

>  <smiles>  (20) 
C=CC(=O)n1c(C(N)=O)cc2ccc(Cn3cnc(Cl)c3Cl)cc21

>  <score_type>  (20) 
oracle

>  <origin>  (20) 
adg

>  <m_score__min__energy>  (20) 
-7.7300000000000004

>  <m_primary>  (20) 
energy

$$$$
20:0
     RDKit          3D

 52 53  0  0  0  0  0  0  0  0999 V2000
  148.1060  153.7610  134.1400 C   0  0  0  0  0  0  0  0  0  0  0  0
  147.6810  154.6550  135.3100 C   0  0  0  0  0  0  0  0  0  0  0  0
  147.4870  153.8150  136.5800 C   0  0  0  0  0  0  0  0  0  0  0  0
  146.3980  155.4320  134.9540 C   0  0  0  0  0  0  0  0  0  0  0  0
  145.2370  154.6760  135.2910 O   0  0  0  0  0  0  0  0  0  0  0  0
  144.1150  154.5820  134.4620 C   0  0  0  0  0  0  0  0  0  0  0  0
  143.1220  153.8800  134.7960 O   0  0  0  0  0  0  0  0  0  0  0  0
  144.1150  155.2930  133.1470 C   0  0  0  0  0  0  0  0  0  0  0  0
  143.7720  156.7420  133.3630 C   0  0  0  0  0  0  0  0  0  0  0  0
  142.4550  157.1190  133.7270 C   0  0  0  0  0  0  0  0  0  0  0  0
  142.1430  158.4620  133.9920 C   0  0  0  0  0  0  0  0  0  0  0  0
  143.1680  159.3990  133.9070 C   0  0  0  0  0  0  0  0  0  0  0  0
  143.1410  160.7610  134.1040 C   0  0  0  0  0  0  0  0  0  0  0  0
  144.4490  161.1910  133.8930 C   0  0  0  0  0  0  0  0  0  0  0  0
  144.8860  162.5880  134.0900 C   0  0  0  0  0  0  0  0  0  0  0  0
  145.9190  162.9090  135.0180 N   0  0  0  0  0  0  0  0  0  0  0  0
  144.3040  163.5170  133.4690 O   0  0  0  0  0  0  0  0  0  0  0  0
  145.2520  160.1380  133.5690 N   0  0  0  0  0  0  0  0  0  0  0  0
  146.6360  160.1760  133.1890 C   0  0  0  0  0  0  0  0  0  0  0  0
  147.3250  161.2020  133.4410 O   0  0  0  0  0  0  0  0  0  0  0  0
  147.2100  159.0600  132.5620 O   0  0  0  0  0  0  0  0  0  0  0  0
  148.4640  158.4460  132.8950 C   0  0  0  0  0  0  0  0  0  0  0  0
  149.5240  159.0470  131.9600 C   0  0  0  0  0  0  0  0  0  0  0  0
  148.3980  156.9240  132.6620 C   0  0  0  0  0  0  0  0  0  0  0  0
  148.8530  158.7570  134.3520 C   0  0  0  0  0  0  0  0  0  0  0  0
  144.4530  159.0480  133.5820 C   0  0  0  0  0  0  0  0  0  0  0  0
  144.7870  157.7210  133.2870 C   0  0  0  0  0  0  0  0  0  0  0  0
  148.5476  152.8321  134.5299 H   0  0  0  0  0  0  0  0  0  0  0  0
  147.2266  153.5190  133.5251 H   0  0  0  0  0  0  0  0  0  0  0  0
  148.8489  154.2903  133.5251 H   0  0  0  0  0  0  0  0  0  0  0  0
  148.4778  155.3878  135.5053 H   0  0  0  0  0  0  0  0  0  0  0  0
  147.6337  154.4504  137.4658 H   0  0  0  0  0  0  0  0  0  0  0  0
  146.4690  153.3984  136.5921 H   0  0  0  0  0  0  0  0  0  0  0  0
  148.2192  152.9942  136.5921 H   0  0  0  0  0  0  0  0  0  0  0  0
  146.3847  156.3804  135.5110 H   0  0  0  0  0  0  0  0  0  0  0  0
  146.3914  155.6234  133.8708 H   0  0  0  0  0  0  0  0  0  0  0  0
  145.1118  155.2162  132.6881 H   0  0  0  0  0  0  0  0  0  0  0  0
  143.3696  154.8341  132.4809 H   0  0  0  0  0  0  0  0  0  0  0  0
  141.6700  156.3522  133.8026 H   0  0  0  0  0  0  0  0  0  0  0  0
  141.1195  158.7642  134.2587 H   0  0  0  0  0  0  0  0  0  0  0  0
  142.2711  161.3788  134.3714 H   0  0  0  0  0  0  0  0  0  0  0  0
  146.9240  162.8660  134.7400 H   0  0  0  0  0  0  0  0  0  0  0  0
  150.3263  159.5019  132.5596 H   0  0  0  0  0  0  0  0  0  0  0  0
  149.9454  158.2535  131.3254 H   0  0  0  0  0  0  0  0  0  0  0  0
  149.0595  159.8161  131.3254 H   0  0  0  0  0  0  0  0  0  0  0  0
  148.3755  156.4052  133.6317 H   0  0  0  0  0  0  0  0  0  0  0  0
  147.4884  156.6791  132.0940 H   0  0  0  0  0  0  0  0  0  0  0  0
  149.2830  156.6013  132.0940 H   0  0  0  0  0  0  0  0  0  0  0  0
  148.1791  158.2182  135.0344 H   0  0  0  0  0  0  0  0  0  0  0  0
  149.8897  158.4360  134.5312 H   0  0  0  0  0  0  0  0  0  0  0  0
  148.7680  159.8390  134.5312 H   0  0  0  0  0  0  0  0  0  0  0  0
  145.8140  157.4477  133.0032 H   0  0  0  0  0  0  0  0  0  0  0  0
  1  2  1  0
  2  3  1  0
  2  4  1  0
  4  5  1  0
  5  6  1  0
  6  7  2  0
  6  8  1  0
  8  9  1  0
  9 10  2  0
 10 11  1  0
 11 12  2  0
 12 13  1  0
 13 14  2  0
 14 15  1  0
 15 16  1  0
 15 17  2  0
 14 18  1  0
 18 19  1  0
 19 20  2  0
 19 21  1  0
 21 22  1  0
 22 23  1  0
 22 24  1  0
 22 25  1  0
 18 26  1  0
 26 27  2  0
 27  9  1  0
 26 12  1  0
  1 28  1  0
  1 29  1  0
  1 30  1  0
  2 31  1  0
  3 32  1  0
  3 33  1  0
  3 34  1  0
  4 35  1  0
  4 36  1  0
  8 37  1  0
  8 38  1  0
 10 39  1  0
 11 40  1  0
 13 41  1  0
 16 42  1  0
 23 43  1  0
 23 44  1  0
 23 45  1  0
 24 46  1  0
 24 47  1  0
 24 48  1  0
 25 49  1  0
 25 50  1  0
 25 51  1  0
 27 52  1  0
M  CHG  1  16  -1
M  END
>  <UniqueID>  (21) 
21

>  <SMILES>  (21) 
CC(C)COC(=O)Cc1ccc2cc(C([NH-])=O)n(C(=O)OC(C)(C)C)c2c1

>  <Energy>  (21) 
74.90591317205492

>  <Genealogy>  (21) 
CC(C)COC(=O)Cc1ccc2cc(C([NH-])=O)n(C(=O)OC(C)(C)C)c2c1 (protonated)
CC(C)COC(=O)Cc1ccc2cc(C([NH-])=O)n(C(=O)OC(C)(C)C)c2c1 (3D coordinates assigned)
CC(C)COC(=O)Cc1ccc2cc(C([NH-])=O)n(C(=O)OC(C)(C)C)c2c1 (optimized conformer: 74.90591317205492 kcal/mol)

>  <smiles>  (21) 
CC(C)COC(=O)Cc1ccc2cc(C(N)=O)n(C(=O)OC(C)(C)C)c2c1

>  <score_type>  (21) 
oracle

>  <origin>  (21) 
adg

>  <m_score__min__energy>  (21) 
-7.6600000000000001

>  <m_primary>  (21) 
energy

$$$$
21:0
     RDKit          3D

 42 43  0  0  0  0  0  0  0  0999 V2000
  139.1620  159.6120  131.2240 C   0  0  0  0  0  0  0  0  0  0  0  0
  140.3650  159.7070  131.9510 O   0  0  0  0  0  0  0  0  0  0  0  0
  140.2660  158.9230  133.1220 C   0  0  0  0  0  0  0  0  0  0  0  0
  141.1460  157.6890  132.9770 C   0  0  0  0  0  0  0  0  0  0  0  0
  142.5060  158.0830  132.8360 O   0  0  0  0  0  0  0  0  0  0  0  0
  143.4250  158.0250  133.8880 C   0  0  0  0  0  0  0  0  0  0  0  0
  143.1280  157.4270  134.9590 O   0  0  0  0  0  0  0  0  0  0  0  0
  144.7180  158.6320  133.7390 N   0  0  0  0  0  0  0  0  0  0  0  0
  145.0000  159.9550  133.5800 C   0  0  0  0  0  0  0  0  0  0  0  0
  144.0390  161.0700  133.7060 C   0  0  0  0  0  0  0  0  0  0  0  0
  142.6550  160.8810  133.4220 N   0  0  0  0  0  0  0  0  0  0  0  0
  144.4360  162.1940  134.1160 O   0  0  0  0  0  0  0  0  0  0  0  0
  146.3620  160.1410  133.3510 C   0  0  0  0  0  0  0  0  0  0  0  0
  146.9120  158.8790  133.3840 C   0  0  0  0  0  0  0  0  0  0  0  0
  148.2280  158.4740  133.2030 C   0  0  0  0  0  0  0  0  0  0  0  0
  148.5080  157.0990  133.2540 C   0  0  0  0  0  0  0  0  0  0  0  0
  147.4730  156.1480  133.4740 C   0  0  0  0  0  0  0  0  0  0  0  0
  147.7760  154.7310  133.5040 N   0  0  0  0  0  0  0  0  0  0  0  0
  148.8560  154.2000  132.6650 C   0  0  0  0  0  0  0  0  0  0  0  0
  147.0100  153.8060  134.3580 C   0  0  0  0  0  0  0  0  0  0  0  0
  147.4070  153.9630  135.7920 C   0  0  0  0  0  0  0  0  0  0  0  0
  148.1020  154.9510  136.1510 O   0  0  0  0  0  0  0  0  0  0  0  0
  147.0310  153.0100  136.7300 O   0  0  0  0  0  0  0  0  0  0  0  0
  146.1450  156.6090  133.6560 C   0  0  0  0  0  0  0  0  0  0  0  0
  145.9000  157.9860  133.6180 C   0  0  0  0  0  0  0  0  0  0  0  0
  138.3154  159.5451  131.9231 H   0  0  0  0  0  0  0  0  0  0  0  0
  139.0450  160.5037  130.5906 H   0  0  0  0  0  0  0  0  0  0  0  0
  139.1864  158.7130  130.5906 H   0  0  0  0  0  0  0  0  0  0  0  0
  140.5999  159.5128  133.9884 H   0  0  0  0  0  0  0  0  0  0  0  0
  139.2208  158.6148  133.2719 H   0  0  0  0  0  0  0  0  0  0  0  0
  141.0393  157.0569  133.8709 H   0  0  0  0  0  0  0  0  0  0  0  0
  140.8364  157.1238  132.0855 H   0  0  0  0  0  0  0  0  0  0  0  0
  142.3460  160.2350  132.6620 H   0  0  0  0  0  0  0  0  0  0  0  0
  146.8860  161.0930  133.1803 H   0  0  0  0  0  0  0  0  0  0  0  0
  149.0272  159.2085  133.0250 H   0  0  0  0  0  0  0  0  0  0  0  0
  149.5434  156.7518  133.1218 H   0  0  0  0  0  0  0  0  0  0  0  0
  149.6582  153.8056  133.3061 H   0  0  0  0  0  0  0  0  0  0  0  0
  148.4635  153.3921  132.0299 H   0  0  0  0  0  0  0  0  0  0  0  0
  149.2561  155.0041  132.0299 H   0  0  0  0  0  0  0  0  0  0  0  0
  145.9366  154.0229  134.2541 H   0  0  0  0  0  0  0  0  0  0  0  0
  147.2217  152.7738  134.0422 H   0  0  0  0  0  0  0  0  0  0  0  0
  145.3228  155.8978  133.8239 H   0  0  0  0  0  0  0  0  0  0  0  0
  1  2  1  0
  2  3  1  0
  3  4  1  0
  4  5  1  0
  5  6  1  0
  6  7  2  0
  6  8  1  0
  8  9  1  0
  9 10  1  0
 10 11  1  0
 10 12  2  0
  9 13  2  0
 13 14  1  0
 14 15  2  0
 15 16  1  0
 16 17  2  0
 17 18  1  0
 18 19  1  0
 18 20  1  0
 20 21  1  0
 21 22  2  0
 21 23  1  0
 17 24  1  0
 24 25  2  0
 25  8  1  0
 25 14  1  0
  1 26  1  0
  1 27  1  0
  1 28  1  0
  3 29  1  0
  3 30  1  0
  4 31  1  0
  4 32  1  0
 11 33  1  0
 13 34  1  0
 15 35  1  0
 16 36  1  0
 19 37  1  0
 19 38  1  0
 19 39  1  0
 20 40  1  0
 20 41  1  0
 24 42  1  0
M  CHG  2  11  -1  23  -1
M  END
>  <UniqueID>  (22) 
22

>  <SMILES>  (22) 
COCCOC(=O)n1c(C([NH-])=O)cc2ccc(N(C)CC(=O)[O-])cc21

>  <Energy>  (22) 
78.64662335839483

>  <Genealogy>  (22) 
COCCOC(=O)n1c(C([NH-])=O)cc2ccc(N(C)CC(=O)[O-])cc21 (protonated)
COCCOC(=O)n1c(C([NH-])=O)cc2ccc(N(C)CC(=O)[O-])cc21 (3D coordinates assigned)
COCCOC(=O)n1c(C([NH-])=O)cc2ccc(N(C)CC(=O)[O-])cc21 (optimized conformer: 78.64662335839483 kcal/mol)

>  <smiles>  (22) 
COCCOC(=O)n1c(C(N)=O)cc2ccc(N(C)CC(=O)O)cc21

>  <score_type>  (22) 
oracle

>  <origin>  (22) 
adg

>  <m_score__min__energy>  (22) 
-6.1799999999999997

>  <m_primary>  (22) 
energy

$$$$
22:0
     RDKit          3D

 71 73  0  0  0  0  0  0  0  0999 V2000
  140.8840  159.2320  136.0190 C   0  0  0  0  0  0  0  0  0  0  0  0
  141.3520  158.7510  134.6440 C   0  0  1  0  0  0  0  0  0  0  0  0
  140.3990  159.2230  133.5320 C   0  0  0  0  0  0  0  0  0  0  0  0
  141.0710  160.0440  132.6130 O   0  0  0  0  0  0  0  0  0  0  0  0
  142.6610  159.2680  134.4070 O   0  0  0  0  0  0  0  0  0  0  0  0
  143.5640  158.7310  133.4830 C   0  0  0  0  0  0  0  0  0  0  0  0
  143.1550  157.9120  132.6160 O   0  0  0  0  0  0  0  0  0  0  0  0
  144.9610  159.0830  133.5550 N   0  0  0  0  0  0  0  0  0  0  0  0
  145.5010  160.3360  133.6000 C   0  0  0  0  0  0  0  0  0  0  0  0
  144.7530  161.5940  133.7560 C   0  0  0  0  0  0  0  0  0  0  0  0
  143.3450  161.6370  133.5280 N   0  0  0  0  0  0  0  0  0  0  0  0
  145.3520  162.6280  134.1550 O   0  0  0  0  0  0  0  0  0  0  0  0
  146.8840  160.2910  133.4770 C   0  0  0  0  0  0  0  0  0  0  0  0
  147.1930  158.9560  133.3780 C   0  0  0  0  0  0  0  0  0  0  0  0
  148.4330  158.3380  133.2470 C   0  0  0  0  0  0  0  0  0  0  0  0
  148.4680  156.9360  133.1790 C   0  0  0  0  0  0  0  0  0  0  0  0
  147.2720  156.1810  133.2660 C   0  0  0  0  0  0  0  0  0  0  0  0
  147.3140  154.6740  133.1890 C   0  0  0  0  0  0  0  0  0  0  0  0
  145.9290  154.0770  132.8970 C   0  0  0  0  0  0  0  0  0  0  0  0
  145.0730  153.9480  134.1630 C   0  0  0  0  0  0  0  0  0  0  0  0
  144.0250  154.9980  134.1880 N   0  0  0  0  0  0  0  0  0  0  0  0
  143.1360  154.9810  133.0110 C   0  0  0  0  0  0  0  0  0  0  0  0
  142.3090  153.6910  132.9160 C   0  0  0  0  0  0  0  0  0  0  0  0
  142.1090  153.0550  134.2270 N   0  0  0  0  0  0  0  0  0  0  0  0
  141.7210  151.6700  134.2710 C   0  0  0  0  0  0  0  0  0  0  0  0
  141.2720  151.1740  135.3400 O   0  0  0  0  0  0  0  0  0  0  0  0
  141.8690  150.8740  133.1230 O   0  0  0  0  0  0  0  0  0  0  0  0
  140.8450  150.0910  132.4940 C   0  0  0  0  0  0  0  0  0  0  0  0
  141.4390  149.2120  131.3790 C   0  0  0  0  0  0  0  0  0  0  0  0
  139.7360  151.0040  131.9350 C   0  0  0  0  0  0  0  0  0  0  0  0
  140.2430  149.1830  133.5740 C   0  0  0  0  0  0  0  0  0  0  0  0
  142.1910  153.8250  135.4790 C   0  0  0  0  0  0  0  0  0  0  0  0
  143.2210  154.9770  135.4240 C   0  0  0  0  0  0  0  0  0  0  0  0
  146.0320  156.8430  133.4010 C   0  0  0  0  0  0  0  0  0  0  0  0
  146.0210  158.2450  133.4340 C   0  0  0  0  0  0  0  0  0  0  0  0
  141.4218  158.6793  136.8034 H   0  0  0  0  0  0  0  0  0  0  0  0
  141.0906  160.3076  136.1211 H   0  0  0  0  0  0  0  0  0  0  0  0
  139.8032  159.0549  136.1211 H   0  0  0  0  0  0  0  0  0  0  0  0
  141.3610  157.6511  134.6329 H   0  0  0  0  0  0  0  0  0  0  0  0
  139.9977  158.3450  133.0046 H   0  0  0  0  0  0  0  0  0  0  0  0
  139.5831  159.8016  133.9898 H   0  0  0  0  0  0  0  0  0  0  0  0
  141.8910  159.5550  132.3370 H   0  0  0  0  0  0  0  0  0  0  0  0
  142.8230  160.7670  133.2840 H   0  0  0  0  0  0  0  0  0  0  0  0
  142.8110  162.5210  133.6760 H   0  0  0  0  0  0  0  0  0  0  0  0
  147.5816  161.1413  133.4621 H   0  0  0  0  0  0  0  0  0  0  0  0
  149.3585  158.9305  133.1981 H   0  0  0  0  0  0  0  0  0  0  0  0
  149.4316  156.4196  133.0572 H   0  0  0  0  0  0  0  0  0  0  0  0
  148.0054  154.3780  132.3863 H   0  0  0  0  0  0  0  0  0  0  0  0
  147.6515  154.2919  134.1637 H   0  0  0  0  0  0  0  0  0  0  0  0
  145.4064  154.7287  132.1814 H   0  0  0  0  0  0  0  0  0  0  0  0
  146.0772  153.0674  132.4862 H   0  0  0  0  0  0  0  0  0  0  0  0
  144.5943  152.9577  134.1775 H   0  0  0  0  0  0  0  0  0  0  0  0
  145.7196  154.0682  135.0447 H   0  0  0  0  0  0  0  0  0  0  0  0
  142.4480  155.8368  133.0764 H   0  0  0  0  0  0  0  0  0  0  0  0
  143.7694  155.0382  132.1135 H   0  0  0  0  0  0  0  0  0  0  0  0
  141.3254  153.9328  132.4870 H   0  0  0  0  0  0  0  0  0  0  0  0
  142.8629  152.9837  132.2813 H   0  0  0  0  0  0  0  0  0  0  0  0
  142.0012  148.3801  131.8282 H   0  0  0  0  0  0  0  0  0  0  0  0
  140.6260  148.8110  130.7559 H   0  0  0  0  0  0  0  0  0  0  0  0
  142.1143  149.8167  130.7559 H   0  0  0  0  0  0  0  0  0  0  0  0
  139.1818  151.4602  132.7685 H   0  0  0  0  0  0  0  0  0  0  0  0
  140.1882  151.7951  131.3188 H   0  0  0  0  0  0  0  0  0  0  0  0
  139.0465  150.4083  131.3188 H   0  0  0  0  0  0  0  0  0  0  0  0
  140.5026  149.5745  134.5687 H   0  0  0  0  0  0  0  0  0  0  0  0
  139.1488  149.1580  133.4639 H   0  0  0  0  0  0  0  0  0  0  0  0
  140.6459  148.1654  133.4639 H   0  0  0  0  0  0  0  0  0  0  0  0
  141.2000  154.2529  135.6909 H   0  0  0  0  0  0  0  0  0  0  0  0
  142.5208  153.1313  136.2664 H   0  0  0  0  0  0  0  0  0  0  0  0
  142.6788  155.9310  135.5013 H   0  0  0  0  0  0  0  0  0  0  0  0
  143.9205  154.8215  136.2586 H   0  0  0  0  0  0  0  0  0  0  0  0
  145.0953  156.2716  133.4786 H   0  0  0  0  0  0  0  0  0  0  0  0
  1  2  1  0
  2  3  1  0
  3  4  1  0
  2  5  1  0
  5  6  1  0
  6  7  2  0
  6  8  1  0
  8  9  1  0
  9 10  1  0
 10 11  1  0
 10 12  2  0
  9 13  2  0
 13 14  1  0
 14 15  2  0
 15 16  1  0
 16 17  2  0
 17 18  1  0
 18 19  1  0
 19 20  1  0
 20 21  1  0
 21 22  1  0
 22 23  1  0
 23 24  1  0
 24 25  1  0
 25 26  2  0
 25 27  1  0
 27 28  1  0
 28 29  1  0
 28 30  1  0
 28 31  1  0
 24 32  1  0
 32 33  1  0
 17 34  1  0
 34 35  2  0
 35  8  1  0
 35 14  1  0
 33 21  1  0
  1 36  1  0
  1 37  1  0
  1 38  1  0
  2 39  1  1
  3 40  1  0
  3 41  1  0
  4 42  1  0
 11 43  1  0
 11 44  1  0
 13 45  1  0
 15 46  1  0
 16 47  1  0
 18 48  1  0
 18 49  1  0
 19 50  1  0
 19 51  1  0
 20 52  1  0
 20 53  1  0
 22 54  1  0
 22 55  1  0
 23 56  1  0
 23 57  1  0
 29 58  1  0
 29 59  1  0
 29 60  1  0
 30 61  1  0
 30 62  1  0
 30 63  1  0
 31 64  1  0
 31 65  1  0
 31 66  1  0
 32 67  1  0
 32 68  1  0
 33 69  1  0
 33 70  1  0
 34 71  1  0
M  END
>  <UniqueID>  (23) 
23

>  <SMILES>  (23) 
C[C@@H](CO)OC(=O)n1c(C(N)=O)cc2ccc(CCCN3CCN(C(=O)OC(C)(C)C)CC3)cc21

>  <Energy>  (23) 
105.42176844779142

>  <Genealogy>  (23) 
C[C@@H](CO)OC(=O)n1c(C(N)=O)cc2ccc(CCCN3CCN(C(=O)OC(C)(C)C)CC3)cc21 (chirality)
C[C@@H](CO)OC(=O)n1c(C(N)=O)cc2ccc(CCCN3CCN(C(=O)OC(C)(C)C)CC3)cc21 (3D coordinates assigned)
C[C@@H](CO)OC(=O)n1c(C(N)=O)cc2ccc(CCCN3CCN(C(=O)OC(C)(C)C)CC3)cc21 (nonaromatic ring conformer: 105.42176844779142 kcal/mol)

>  <smiles>  (23) 
CC(CO)OC(=O)n1c(C(N)=O)cc2ccc(CCCN3CCN(C(=O)OC(C)(C)C)CC3)cc21

>  <score_type>  (23) 
oracle

>  <origin>  (23) 
adg

>  <m_score__min__energy>  (23) 
-9.1400000000000006

>  <m_primary>  (23) 
energy

$$$$
23:0
     RDKit          3D

 45 47  0  0  0  0  0  0  0  0999 V2000
  147.3250  155.2640  135.5680 C   0  0  0  0  0  0  0  0  0  0  0  0
  146.8500  154.3490  134.5360 N   0  0  0  0  0  0  0  0  0  0  0  0
  147.5930  153.4630  133.8430 C   0  0  0  0  0  0  0  0  0  0  0  0
  146.8790  152.8110  132.9000 N   0  0  0  0  0  0  0  0  0  0  0  0
  145.6340  153.3180  133.0100 C   0  0  0  0  0  0  0  0  0  0  0  0
  145.6120  154.2610  134.0150 C   0  0  0  0  0  0  0  0  0  0  0  0
  144.4350  155.1190  134.3910 C   0  0  0  0  0  0  0  0  0  0  0  0
  144.0100  156.0300  133.2730 C   0  0  0  0  0  0  0  0  0  0  0  0
  143.9880  155.6200  132.0800 O   0  0  0  0  0  0  0  0  0  0  0  0
  143.5270  157.3460  133.5720 N   0  0  0  0  0  0  0  0  0  0  0  0
  142.2430  157.7190  133.8300 C   0  0  0  0  0  0  0  0  0  0  0  0
  141.0810  156.8090  133.8990 C   0  0  0  0  0  0  0  0  0  0  0  0
  141.1640  155.5040  133.3300 N   0  0  0  0  0  0  0  0  0  0  0  0
  140.0070  157.1760  134.4450 O   0  0  0  0  0  0  0  0  0  0  0  0
  142.1730  159.0910  134.0680 C   0  0  0  0  0  0  0  0  0  0  0  0
  143.4660  159.5490  133.9420 C   0  0  0  0  0  0  0  0  0  0  0  0
  143.9790  160.8360  134.0710 C   0  0  0  0  0  0  0  0  0  0  0  0
  145.3580  161.0190  133.8710 C   0  0  0  0  0  0  0  0  0  0  0  0
  146.1900  159.9220  133.5300 C   0  0  0  0  0  0  0  0  0  0  0  0
  147.6700  160.1200  133.3390 C   0  0  0  0  0  0  0  0  0  0  0  0
  148.4070  158.7820  133.3300 C   0  0  0  0  0  0  0  0  0  0  0  0
  147.9320  157.9710  132.2590 O   0  0  0  0  0  0  0  0  0  0  0  0
  148.0390  156.5780  132.2630 C   0  0  0  0  0  0  0  0  0  0  0  0
  146.9260  155.7880  131.8550 N   0  0  0  0  0  0  0  0  0  0  0  0
  149.1080  156.0150  132.6220 O   0  0  0  0  0  0  0  0  0  0  0  0
  145.6330  158.6290  133.4150 C   0  0  0  0  0  0  0  0  0  0  0  0
  144.2620  158.4760  133.6390 C   0  0  0  0  0  0  0  0  0  0  0  0
  147.1063  154.8428  136.5604 H   0  0  0  0  0  0  0  0  0  0  0  0
  148.4106  155.4058  135.4609 H   0  0  0  0  0  0  0  0  0  0  0  0
  146.8163  156.2334  135.4609 H   0  0  0  0  0  0  0  0  0  0  0  0
  148.6638  153.2899  134.0256 H   0  0  0  0  0  0  0  0  0  0  0  0
  144.7711  153.0248  132.3940 H   0  0  0  0  0  0  0  0  0  0  0  0
  143.5907  154.4649  134.6542 H   0  0  0  0  0  0  0  0  0  0  0  0
  144.7367  155.7489  135.2408 H   0  0  0  0  0  0  0  0  0  0  0  0
  141.8930  155.2730  132.6190 H   0  0  0  0  0  0  0  0  0  0  0  0
  141.2762  159.6819  134.3058 H   0  0  0  0  0  0  0  0  0  0  0  0
  143.3252  161.6843  134.3219 H   0  0  0  0  0  0  0  0  0  0  0  0
  145.7961  162.0221  133.9799 H   0  0  0  0  0  0  0  0  0  0  0  0
  147.8433  160.6321  132.3810 H   0  0  0  0  0  0  0  0  0  0  0  0
  148.0525  160.7240  134.1750 H   0  0  0  0  0  0  0  0  0  0  0  0
  149.4847  158.9607  133.2013 H   0  0  0  0  0  0  0  0  0  0  0  0
  148.2259  158.2637  134.2832 H   0  0  0  0  0  0  0  0  0  0  0  0
  146.0380  156.2470  131.5570 H   0  0  0  0  0  0  0  0  0  0  0  0
  146.9890  154.7450  131.8530 H   0  0  0  0  0  0  0  0  0  0  0  0
  146.2622  157.7647  133.1558 H   0  0  0  0  0  0  0  0  0  0  0  0
  1  2  1  0
  2  3  1  0
  3  4  2  0
  4  5  1  0
  5  6  2  0
  6  7  1  0
  7  8  1  0
  8  9  2  0
  8 10  1  0
 10 11  1  0
 11 12  1  0
 12 13  1  0
 12 14  2  0
 11 15  2  0
 15 16  1  0
 16 17  2  0
 17 18  1  0
 18 19  2  0
 19 20  1  0
 20 21  1  0
 21 22  1  0
 22 23  1  0
 23 24  1  0
 23 25  2  0
 19 26  1  0
 26 27  2  0
  6  2  1  0
 27 10  1  0
 27 16  1  0
  1 28  1  0
  1 29  1  0
  1 30  1  0
  3 31  1  0
  5 32  1  0
  7 33  1  0
  7 34  1  0
 13 35  1  0
 15 36  1  0
 17 37  1  0
 18 38  1  0
 20 39  1  0
 20 40  1  0
 21 41  1  0
 21 42  1  0
 24 43  1  0
 24 44  1  0
 26 45  1  0
M  CHG  1  13  -1
M  END
>  <UniqueID>  (24) 
24

>  <SMILES>  (24) 
Cn1cncc1CC(=O)n1c(C([NH-])=O)cc2ccc(CCOC(N)=O)cc21

>  <Energy>  (24) 
107.73051103785755

>  <Genealogy>  (24) 
Cn1cncc1CC(=O)n1c(C([NH-])=O)cc2ccc(CCOC(N)=O)cc21 (protonated)
Cn1cncc1CC(=O)n1c(C([NH-])=O)cc2ccc(CCOC(N)=O)cc21 (3D coordinates assigned)
Cn1cncc1CC(=O)n1c(C([NH-])=O)cc2ccc(CCOC(N)=O)cc21 (optimized conformer: 107.73051103785755 kcal/mol)

>  <smiles>  (24) 
Cn1cncc1CC(=O)n1c(C(N)=O)cc2ccc(CCOC(N)=O)cc21

>  <score_type>  (24) 
oracle

>  <origin>  (24) 
adg

>  <m_score__min__energy>  (24) 
-7.2599999999999998

>  <m_primary>  (24) 
energy

$$$$
24:0
     RDKit          3D

 60 61  0  0  0  0  0  0  0  0999 V2000
  140.6380  148.5160  130.8120 C   0  0  0  0  0  0  0  0  0  0  0  0
  139.6400  149.5940  130.8910 N   0  0  0  0  0  0  0  0  0  0  0  0
  138.2840  149.0870  130.6180 C   0  0  0  0  0  0  0  0  0  0  0  0
  139.7270  150.3680  132.1500 C   0  0  0  0  0  0  0  0  0  0  0  0
  141.0560  150.1940  132.9140 C   0  0  0  0  0  0  0  0  0  0  0  0
  141.1000  151.0830  134.0270 O   0  0  0  0  0  0  0  0  0  0  0  0
  141.7300  152.3330  133.9950 C   0  0  0  0  0  0  0  0  0  0  0  0
  142.6140  152.6300  134.8450 O   0  0  0  0  0  0  0  0  0  0  0  0
  141.3630  153.3200  132.9280 C   0  0  0  0  0  0  0  0  0  0  0  0
  140.1960  154.2210  133.3540 C   0  0  0  0  0  0  0  0  0  0  0  0
  140.5970  155.6740  133.3920 C   0  0  0  0  0  0  0  0  0  0  0  0
  139.6070  156.6860  133.3850 C   0  0  0  0  0  0  0  0  0  0  0  0
  139.9700  158.0400  133.4270 C   0  0  0  0  0  0  0  0  0  0  0  0
  141.3250  158.3520  133.4890 C   0  0  0  0  0  0  0  0  0  0  0  0
  141.9390  159.5790  133.5220 C   0  0  0  0  0  0  0  0  0  0  0  0
  143.2990  159.3050  133.5610 C   0  0  0  0  0  0  0  0  0  0  0  0
  144.3250  160.3600  133.5760 C   0  0  0  0  0  0  0  0  0  0  0  0
  145.5920  160.1540  132.9500 N   0  0  0  0  0  0  0  0  0  0  0  0
  144.0570  161.4800  134.0860 O   0  0  0  0  0  0  0  0  0  0  0  0
  143.5310  157.9580  133.5830 N   0  0  0  0  0  0  0  0  0  0  0  0
  144.7970  157.2950  133.7990 C   0  0  0  0  0  0  0  0  0  0  0  0
  144.9210  156.4440  134.7220 O   0  0  0  0  0  0  0  0  0  0  0  0
  145.8830  157.5590  132.9550 O   0  0  0  0  0  0  0  0  0  0  0  0
  147.1440  156.9020  133.0560 C   0  0  0  0  0  0  0  0  0  0  0  0
  148.2510  157.7290  132.3900 C   0  0  0  0  0  0  0  0  0  0  0  0
  147.9750  159.1800  132.4900 N   0  0  0  0  0  0  0  0  0  0  0  0
  148.6020  159.8910  131.3630 C   0  0  0  0  0  0  0  0  0  0  0  0
  148.4780  159.7320  133.7610 C   0  0  0  0  0  0  0  0  0  0  0  0
  142.3020  157.3870  133.5230 C   0  0  0  0  0  0  0  0  0  0  0  0
  141.9630  156.0260  133.4660 C   0  0  0  0  0  0  0  0  0  0  0  0
  140.9246  148.2065  131.8279 H   0  0  0  0  0  0  0  0  0  0  0  0
  140.2088  147.6576  130.2745 H   0  0  0  0  0  0  0  0  0  0  0  0
  141.5269  148.8779  130.2745 H   0  0  0  0  0  0  0  0  0  0  0  0
  137.7665  148.8935  131.5692 H   0  0  0  0  0  0  0  0  0  0  0  0
  137.7220  149.8357  130.0405 H   0  0  0  0  0  0  0  0  0  0  0  0
  138.3510  148.1532  130.0405 H   0  0  0  0  0  0  0  0  0  0  0  0
  139.6065  151.4342  131.9075 H   0  0  0  0  0  0  0  0  0  0  0  0
  138.9335  149.9860  132.8091 H   0  0  0  0  0  0  0  0  0  0  0  0
  141.1366  149.1573  133.2728 H   0  0  0  0  0  0  0  0  0  0  0  0
  141.8931  150.4216  132.2376 H   0  0  0  0  0  0  0  0  0  0  0  0
  142.2379  153.9508  132.7118 H   0  0  0  0  0  0  0  0  0  0  0  0
  141.0488  152.7560  132.0374 H   0  0  0  0  0  0  0  0  0  0  0  0
  139.3707  154.0978  132.6373 H   0  0  0  0  0  0  0  0  0  0  0  0
  139.8866  153.9245  134.3671 H   0  0  0  0  0  0  0  0  0  0  0  0
  138.5435  156.4078  133.3463 H   0  0  0  0  0  0  0  0  0  0  0  0
  139.2066  158.8318  133.4114 H   0  0  0  0  0  0  0  0  0  0  0  0
  141.4566  160.5676  133.5183 H   0  0  0  0  0  0  0  0  0  0  0  0
  146.3190  160.9030  132.9770 H   0  0  0  0  0  0  0  0  0  0  0  0
  145.7960  159.2680  132.4360 H   0  0  0  0  0  0  0  0  0  0  0  0
  147.3912  156.7598  134.1184 H   0  0  0  0  0  0  0  0  0  0  0  0
  147.0751  155.9316  132.5425 H   0  0  0  0  0  0  0  0  0  0  0  0
  149.2082  157.5116  132.8865 H   0  0  0  0  0  0  0  0  0  0  0  0
  148.2934  157.4571  131.3250 H   0  0  0  0  0  0  0  0  0  0  0  0
  149.2830  160.6633  131.7500 H   0  0  0  0  0  0  0  0  0  0  0  0
  149.1693  159.1764  130.7486 H   0  0  0  0  0  0  0  0  0  0  0  0
  147.8220  160.3644  130.7486 H   0  0  0  0  0  0  0  0  0  0  0  0
  148.0009  159.2084  134.6025 H   0  0  0  0  0  0  0  0  0  0  0  0
  149.5681  159.5948  133.8144 H   0  0  0  0  0  0  0  0  0  0  0  0
  148.2404  160.8047  133.8144 H   0  0  0  0  0  0  0  0  0  0  0  0
  142.7435  155.2510  133.4787 H   0  0  0  0  0  0  0  0  0  0  0  0
  1  2  1  0
  2  3  1  0
  2  4  1  0
  4  5  1  0
  5  6  1  0
  6  7  1  0
  7  8  2  0
  7  9  1  0
  9 10  1  0
 10 11  1  0
 11 12  2  0
 12 13  1  0
 13 14  2  0
 14 15  1  0
 15 16  2  0
 16 17  1  0
 17 18  1  0
 17 19  2  0
 16 20  1  0
 20 21  1  0
 21 22  2  0
 21 23  1  0
 23 24  1  0
 24 25  1  0
 25 26  1  0
 26 27  1  0
 26 28  1  0
 20 29  1  0
 29 30  2  0
 30 11  1  0
 29 14  1  0
  1 31  1  0
  1 32  1  0
  1 33  1  0
  3 34  1  0
  3 35  1  0
  3 36  1  0
  4 37  1  0
  4 38  1  0
  5 39  1  0
  5 40  1  0
  9 41  1  0
  9 42  1  0
 10 43  1  0
 10 44  1  0
 12 45  1  0
 13 46  1  0
 15 47  1  0
 18 48  1  0
 18 49  1  0
 24 50  1  0
 24 51  1  0
 25 52  1  0
 25 53  1  0
 27 54  1  0
 27 55  1  0
 27 56  1  0
 28 57  1  0
 28 58  1  0
 28 59  1  0
 30 60  1  0
M  END
>  <UniqueID>  (25) 
25

>  <SMILES>  (25) 
CN(C)CCOC(=O)CCc1ccc2cc(C(N)=O)n(C(=O)OCCN(C)C)c2c1

>  <Energy>  (25) 
94.3265617078021

>  <Genealogy>  (25) 
CN(C)CCOC(=O)CCc1ccc2cc(C(N)=O)n(C(=O)OCCN(C)C)c2c1 (3D coordinates assigned)
CN(C)CCOC(=O)CCc1ccc2cc(C(N)=O)n(C(=O)OCCN(C)C)c2c1 (optimized conformer: 94.3265617078021 kcal/mol)

>  <smiles>  (25) 
CN(C)CCOC(=O)CCc1ccc2cc(C(N)=O)n(C(=O)OCCN(C)C)c2c1

>  <score_type>  (25) 
oracle

>  <origin>  (25) 
adg

>  <m_score__min__energy>  (25) 
-7.8300000000000001

>  <m_primary>  (25) 
energy

$$$$
25:0
     RDKit          3D

 31 32  0  0  0  0  0  0  0  0999 V2000
  146.6620  161.0900  133.7240 N   0  0  0  0  0  0  0  0  0  0  0  0
  145.7110  160.0590  133.4530 C   0  0  0  0  0  0  0  0  0  0  0  0
  144.4920  160.3590  133.3420 O   0  0  0  0  0  0  0  0  0  0  0  0
  146.1200  158.6420  133.3520 C   0  0  0  0  0  0  0  0  0  0  0  0
  145.2350  157.5760  133.4850 C   0  0  0  0  0  0  0  0  0  0  0  0
  146.0060  156.4450  133.3430 C   0  0  0  0  0  0  0  0  0  0  0  0
  145.6350  155.1040  133.3560 C   0  0  0  0  0  0  0  0  0  0  0  0
  146.6330  154.1410  133.1280 C   0  0  0  0  0  0  0  0  0  0  0  0
  147.9710  154.5360  132.8810 C   0  0  0  0  0  0  0  0  0  0  0  0
  149.0310  153.5060  132.6110 C   0  0  0  0  0  0  0  0  0  0  0  0
  150.2160  154.1340  132.2760 F   0  0  0  0  0  0  0  0  0  0  0  0
  149.2280  152.7320  133.7400 F   0  0  0  0  0  0  0  0  0  0  0  0
  148.3080  155.9070  132.8660 C   0  0  0  0  0  0  0  0  0  0  0  0
  147.3000  156.8430  133.1240 C   0  0  0  0  0  0  0  0  0  0  0  0
  147.3880  158.1930  133.1330 N   0  0  0  0  0  0  0  0  0  0  0  0
  148.5430  158.9870  132.8180 C   0  0  0  0  0  0  0  0  0  0  0  0
  149.0360  159.7430  133.7000 O   0  0  0  0  0  0  0  0  0  0  0  0
  149.2400  158.8430  131.4920 C   0  0  0  0  0  0  0  0  0  0  0  0
  149.2790  160.1630  130.7210 C   0  0  0  0  0  0  0  0  0  0  0  0
  149.9560  160.0030  129.5250 F   0  0  0  0  0  0  0  0  0  0  0  0
  147.6390  160.8630  134.0120 H   0  0  0  0  0  0  0  0  0  0  0  0
  146.3600  162.0890  133.7360 H   0  0  0  0  0  0  0  0  0  0  0  0
  144.1510  157.6267  133.6651 H   0  0  0  0  0  0  0  0  0  0  0  0
  144.5920  154.8065  133.5392 H   0  0  0  0  0  0  0  0  0  0  0  0
  146.3732  153.0722  133.1414 H   0  0  0  0  0  0  0  0  0  0  0  0
  148.7060  152.8650  131.7782 H   0  0  0  0  0  0  0  0  0  0  0  0
  149.3379  156.2316  132.6566 H   0  0  0  0  0  0  0  0  0  0  0  0
  150.2714  158.5033  131.6676 H   0  0  0  0  0  0  0  0  0  0  0  0
  148.6788  158.1133  130.8898 H   0  0  0  0  0  0  0  0  0  0  0  0
  148.2501  160.4923  130.5139 H   0  0  0  0  0  0  0  0  0  0  0  0
  149.8017  160.9161  131.3290 H   0  0  0  0  0  0  0  0  0  0  0  0
  1  2  1  0
  2  3  2  0
  2  4  1  0
  4  5  2  0
  5  6  1  0
  6  7  2  0
  7  8  1  0
  8  9  2  0
  9 10  1  0
 10 11  1  0
 10 12  1  0
  9 13  1  0
 13 14  2  0
 14 15  1  0
 15 16  1  0
 16 17  2  0
 16 18  1  0
 18 19  1  0
 19 20  1  0
 15  4  1  0
 14  6  1  0
  1 21  1  0
  1 22  1  0
  5 23  1  0
  7 24  1  0
  8 25  1  0
 10 26  1  0
 13 27  1  0
 18 28  1  0
 18 29  1  0
 19 30  1  0
 19 31  1  0
M  END
>  <UniqueID>  (26) 
26

>  <SMILES>  (26) 
NC(=O)c1cc2ccc(C(F)F)cc2n1C(=O)CCF

>  <Energy>  (26) 
68.73953605732996

>  <Genealogy>  (26) 
NC(=O)c1cc2ccc(C(F)F)cc2n1C(=O)CCF (3D coordinates assigned)
NC(=O)c1cc2ccc(C(F)F)cc2n1C(=O)CCF (optimized conformer: 68.73953605732996 kcal/mol)

>  <smiles>  (26) 
NC(=O)c1cc2ccc(C(F)F)cc2n1C(=O)CCF

>  <score_type>  (26) 
oracle

>  <origin>  (26) 
adg

>  <m_score__min__energy>  (26) 
-6.1399999999999997

>  <m_primary>  (26) 
energy

$$$$
26:0
     RDKit          3D

 45 47  0  0  0  0  0  0  0  0999 V2000
  145.7570  155.2390  132.2630 C   0  0  0  0  0  0  0  0  0  0  0  0
  146.6610  155.3730  133.4110 N   0  0  0  0  0  0  0  0  0  0  0  0
  147.2200  154.1850  134.0590 C   0  0  0  0  0  0  0  0  0  0  0  0
  147.0750  156.6800  133.8520 C   0  0  0  0  0  0  0  0  0  0  0  0
  148.0940  156.8060  134.5840 O   0  0  0  0  0  0  0  0  0  0  0  0
  146.3510  157.8530  133.4550 N   0  0  0  0  0  0  0  0  0  0  0  0
  146.8520  158.9860  132.8890 C   0  0  0  0  0  0  0  0  0  0  0  0
  148.2460  159.1810  132.4370 C   0  0  0  0  0  0  0  0  0  0  0  0
  149.3560  158.7940  133.2470 N   0  0  0  0  0  0  0  0  0  0  0  0
  148.4600  159.6660  131.2930 O   0  0  0  0  0  0  0  0  0  0  0  0
  145.8660  159.9660  132.8040 C   0  0  0  0  0  0  0  0  0  0  0  0
  144.7360  159.3930  133.3450 C   0  0  0  0  0  0  0  0  0  0  0  0
  143.4650  159.9230  133.5370 C   0  0  0  0  0  0  0  0  0  0  0  0
  142.5020  159.1160  134.1660 C   0  0  0  0  0  0  0  0  0  0  0  0
  142.8280  157.8060  134.6190 C   0  0  0  0  0  0  0  0  0  0  0  0
  141.7980  156.8890  135.2670 C   0  0  0  0  0  0  0  0  0  0  0  0
  140.8560  156.2880  134.2060 C   0  0  0  0  0  0  0  0  0  0  0  0
  139.8050  157.2990  133.6980 C   0  0  0  0  0  0  0  0  0  0  0  0
  139.4690  158.3450  134.6800 N   0  0  0  0  0  0  0  0  0  0  0  0
  139.5480  157.8610  136.0600 C   0  0  0  0  0  0  0  0  0  0  0  0
  141.0060  157.5390  136.4330 C   0  0  0  0  0  0  0  0  0  0  0  0
  144.1340  157.3080  134.3970 C   0  0  0  0  0  0  0  0  0  0  0  0
  145.0600  158.1230  133.7400 C   0  0  0  0  0  0  0  0  0  0  0  0
  144.7285  155.0865  132.6220 H   0  0  0  0  0  0  0  0  0  0  0  0
  145.8007  156.1534  131.6532 H   0  0  0  0  0  0  0  0  0  0  0  0
  146.0641  154.3766  131.6532 H   0  0  0  0  0  0  0  0  0  0  0  0
  147.1646  154.3028  135.1513 H   0  0  0  0  0  0  0  0  0  0  0  0
  146.6450  153.2974  133.7563 H   0  0  0  0  0  0  0  0  0  0  0  0
  148.2704  154.0622  133.7563 H   0  0  0  0  0  0  0  0  0  0  0  0
  149.2290  158.2090  134.1020 H   0  0  0  0  0  0  0  0  0  0  0  0
  150.3300  159.0010  132.9310 H   0  0  0  0  0  0  0  0  0  0  0  0
  145.9678  160.9811  132.3926 H   0  0  0  0  0  0  0  0  0  0  0  0
  143.2207  160.9433  133.2064 H   0  0  0  0  0  0  0  0  0  0  0  0
  141.4820  159.5016  134.3105 H   0  0  0  0  0  0  0  0  0  0  0  0
  142.3726  156.0759  135.7347 H   0  0  0  0  0  0  0  0  0  0  0  0
  141.4598  155.9493  133.3512 H   0  0  0  0  0  0  0  0  0  0  0  0
  140.3138  155.4553  134.6778 H   0  0  0  0  0  0  0  0  0  0  0  0
  140.1991  157.7851  132.7933 H   0  0  0  0  0  0  0  0  0  0  0  0
  138.8824  156.7333  133.5012 H   0  0  0  0  0  0  0  0  0  0  0  0
  138.4890  158.6640  134.4990 H   0  0  0  0  0  0  0  0  0  0  0  0
  139.1631  158.6364  136.7386 H   0  0  0  0  0  0  0  0  0  0  0  0
  138.9456  156.9452  136.1520 H   0  0  0  0  0  0  0  0  0  0  0  0
  141.5093  158.4737  136.7211 H   0  0  0  0  0  0  0  0  0  0  0  0
  140.9829  156.8148  137.2606 H   0  0  0  0  0  0  0  0  0  0  0  0
  144.4147  156.2995  134.7348 H   0  0  0  0  0  0  0  0  0  0  0  0
  1  2  1  0
  2  3  1  0
  2  4  1  0
  4  5  2  0
  4  6  1  0
  6  7  1  0
  7  8  1  0
  8  9  1  0
  8 10  2  0
  7 11  2  0
 11 12  1  0
 12 13  2  0
 13 14  1  0
 14 15  2  0
 15 16  1  0
 16 17  1  0
 17 18  1  0
 18 19  1  0
 19 20  1  0
 20 21  1  0
 15 22  1  0
 22 23  2  0
 23  6  1  0
 23 12  1  0
 21 16  1  0
  1 24  1  0
  1 25  1  0
  1 26  1  0
  3 27  1  0
  3 28  1  0
  3 29  1  0
  9 30  1  0
  9 31  1  0
 11 32  1  0
 13 33  1  0
 14 34  1  0
 16 35  1  0
 17 36  1  0
 17 37  1  0
 18 38  1  0
 18 39  1  0
 19 40  1  0
 20 41  1  0
 20 42  1  0
 21 43  1  0
 21 44  1  0
 22 45  1  0
M  END
>  <UniqueID>  (27) 
27

>  <SMILES>  (27) 
CN(C)C(=O)n1c(C(N)=O)cc2ccc(C3CCNCC3)cc21

>  <Energy>  (27) 
91.08192917880395

>  <Genealogy>  (27) 
CN(C)C(=O)n1c(C(N)=O)cc2ccc(C3CCNCC3)cc21 (3D coordinates assigned)
CN(C)C(=O)n1c(C(N)=O)cc2ccc(C3CCNCC3)cc21 (nonaromatic ring conformer: 91.08192917880395 kcal/mol)

>  <smiles>  (27) 
CN(C)C(=O)n1c(C(N)=O)cc2ccc(C3CCNCC3)cc21

>  <score_type>  (27) 
oracle

>  <origin>  (27) 
adg

>  <m_score__min__energy>  (27) 
-8.1999999999999993

>  <m_primary>  (27) 
energy

$$$$
27:0
     RDKit          3D

 24 25  0  0  0  0  0  0  0  0999 V2000
  141.4620  161.0250  133.7410 N   0  0  0  0  0  0  0  0  0  0  0  0
  142.2690  160.1140  134.4820 C   0  0  0  0  0  0  0  0  0  0  0  0
  141.8480  159.6760  135.5860 O   0  0  0  0  0  0  0  0  0  0  0  0
  143.6120  159.7260  134.0050 C   0  0  0  0  0  0  0  0  0  0  0  0
  143.9620  158.4150  133.6880 C   0  0  0  0  0  0  0  0  0  0  0  0
  145.3030  158.4600  133.3820 C   0  0  0  0  0  0  0  0  0  0  0  0
  146.1640  157.4400  132.9850 C   0  0  0  0  0  0  0  0  0  0  0  0
  147.4980  157.7780  132.7010 C   0  0  0  0  0  0  0  0  0  0  0  0
  147.9420  159.1190  132.8130 C   0  0  0  0  0  0  0  0  0  0  0  0
  149.3650  159.4790  132.4930 C   0  0  0  0  0  0  0  0  0  0  0  0
  149.3910  160.5430  131.6120 F   0  0  0  0  0  0  0  0  0  0  0  0
  150.0010  158.3930  131.9180 F   0  0  0  0  0  0  0  0  0  0  0  0
  147.0380  160.1270  133.2160 C   0  0  0  0  0  0  0  0  0  0  0  0
  145.7200  159.7600  133.5090 C   0  0  0  0  0  0  0  0  0  0  0  0
  144.6910  160.5510  133.8890 N   0  0  0  0  0  0  0  0  0  0  0  0
  144.7230  161.9810  134.0330 C   0  0  0  0  0  0  0  0  0  0  0  0
  143.8880  162.7010  133.4230 O   0  0  0  0  0  0  0  0  0  0  0  0
  145.6570  162.5810  134.8680 O   0  0  0  0  0  0  0  0  0  0  0  0
  141.8620  161.9110  133.3610 H   0  0  0  0  0  0  0  0  0  0  0  0
  143.3060  157.5320  133.6833 H   0  0  0  0  0  0  0  0  0  0  0  0
  145.8108  156.4020  132.8965 H   0  0  0  0  0  0  0  0  0  0  0  0
  148.2041  156.9944  132.3889 H   0  0  0  0  0  0  0  0  0  0  0  0
  149.8831  159.7602  133.4217 H   0  0  0  0  0  0  0  0  0  0  0  0
  147.3624  161.1749  133.2975 H   0  0  0  0  0  0  0  0  0  0  0  0
  1  2  1  0
  2  3  2  0
  2  4  1  0
  4  5  2  0
  5  6  1  0
  6  7  2  0
  7  8  1  0
  8  9  2  0
  9 10  1  0
 10 11  1  0
 10 12  1  0
  9 13  1  0
 13 14  2  0
 14 15  1  0
 15 16  1  0
 16 17  2  0
 16 18  1  0
 15  4  1  0
 14  6  1  0
  1 19  1  0
  5 20  1  0
  7 21  1  0
  8 22  1  0
 10 23  1  0
 13 24  1  0
M  CHG  2   1  -1  18  -1
M  END
>  <UniqueID>  (28) 
28

>  <SMILES>  (28) 
[NH-]C(=O)c1cc2ccc(C(F)F)cc2n1C(=O)[O-]

>  <Energy>  (28) 
64.17615446031857

>  <Genealogy>  (28) 
[NH-]C(=O)c1cc2ccc(C(F)F)cc2n1C(=O)[O-] (protonated)
[NH-]C(=O)c1cc2ccc(C(F)F)cc2n1C(=O)[O-] (3D coordinates assigned)
[NH-]C(=O)c1cc2ccc(C(F)F)cc2n1C(=O)[O-] (optimized conformer: 64.17615446031857 kcal/mol)

>  <smiles>  (28) 
NC(=O)c1cc2ccc(C(F)F)cc2n1C(=O)O

>  <score_type>  (28) 
oracle

>  <origin>  (28) 
adg

>  <m_score__min__energy>  (28) 
-5.3099999999999996

>  <m_primary>  (28) 
energy

$$$$
28:0
     RDKit          3D

 35 36  0  0  0  0  0  0  0  0999 V2000
  147.5210  155.0840  134.9120 C   0  0  0  0  0  0  0  0  0  0  0  0
  147.3420  154.2100  133.6580 C   0  0  2  0  0  0  0  0  0  0  0  0
  148.6470  153.5370  133.2930 C   0  0  0  0  0  0  0  0  0  0  0  0
  149.2530  153.8700  132.2400 O   0  0  0  0  0  0  0  0  0  0  0  0
  149.1960  152.5540  134.1100 O   0  0  0  0  0  0  0  0  0  0  0  0
  146.7250  154.9650  132.5290 N   0  0  1  0  0  0  0  0  0  0  0  0
  145.3320  154.5740  132.2180 C   0  0  0  0  0  0  0  0  0  0  0  0
  146.8590  156.4040  132.7210 C   0  0  0  0  0  0  0  0  0  0  0  0
  148.1320  157.0160  132.5550 C   0  0  0  0  0  0  0  0  0  0  0  0
  148.3100  158.3900  132.7760 C   0  0  0  0  0  0  0  0  0  0  0  0
  147.2060  159.1380  133.1660 C   0  0  0  0  0  0  0  0  0  0  0  0
  147.1100  160.4760  133.4760 C   0  0  0  0  0  0  0  0  0  0  0  0
  145.7770  160.6780  133.8240 C   0  0  0  0  0  0  0  0  0  0  0  0
  145.2130  162.0050  134.1490 C   0  0  0  0  0  0  0  0  0  0  0  0
  145.9800  162.9330  134.9150 N   0  0  0  0  0  0  0  0  0  0  0  0
  144.0780  162.3450  133.7260 O   0  0  0  0  0  0  0  0  0  0  0  0
  145.0770  159.5110  133.7400 N   0  0  0  0  0  0  0  0  0  0  0  0
  143.7010  159.2840  134.0850 C   0  0  0  0  0  0  0  0  0  0  0  0
  143.2260  159.7550  135.1520 O   0  0  0  0  0  0  0  0  0  0  0  0
  142.8730  158.5640  133.2320 O   0  0  0  0  0  0  0  0  0  0  0  0
  145.9680  158.5790  133.3310 C   0  0  0  0  0  0  0  0  0  0  0  0
  145.7620  157.2090  133.1360 C   0  0  0  0  0  0  0  0  0  0  0  0
  147.3941  154.4644  135.8120 H   0  0  0  0  0  0  0  0  0  0  0  0
  148.5283  155.5260  134.9102 H   0  0  0  0  0  0  0  0  0  0  0  0
  146.7685  155.8864  134.9102 H   0  0  0  0  0  0  0  0  0  0  0  0
  146.6236  153.4103  133.8909 H   0  0  0  0  0  0  0  0  0  0  0  0
  147.2690  154.7190  131.6680 H   0  0  0  0  0  0  0  0  0  0  0  0
  144.7770  154.4182  133.1549 H   0  0  0  0  0  0  0  0  0  0  0  0
  144.8491  155.3713  131.6340 H   0  0  0  0  0  0  0  0  0  0  0  0
  145.3345  153.6419  131.6340 H   0  0  0  0  0  0  0  0  0  0  0  0
  148.9914  156.4018  132.2482 H   0  0  0  0  0  0  0  0  0  0  0  0
  149.2951  158.8614  132.6443 H   0  0  0  0  0  0  0  0  0  0  0  0
  147.9148  161.2256  133.4535 H   0  0  0  0  0  0  0  0  0  0  0  0
  147.0210  162.9520  134.8500 H   0  0  0  0  0  0  0  0  0  0  0  0
  144.7702  156.7626  133.3005 H   0  0  0  0  0  0  0  0  0  0  0  0
  1  2  1  0
  2  3  1  0
  3  4  2  0
  3  5  1  0
  2  6  1  0
  6  7  1  0
  6  8  1  0
  8  9  2  0
  9 10  1  0
 10 11  2  0
 11 12  1  0
 12 13  2  0
 13 14  1  0
 14 15  1  0
 14 16  2  0
 13 17  1  0
 17 18  1  0
 18 19  2  0
 18 20  1  0
 17 21  1  0
 21 22  2  0
 22  8  1  0
 21 11  1  0
  1 23  1  0
  1 24  1  0
  1 25  1  0
  2 26  1  1
  6 27  1  6
  7 28  1  0
  7 29  1  0
  7 30  1  0
  9 31  1  0
 10 32  1  0
 12 33  1  0
 15 34  1  0
 22 35  1  0
M  CHG  4   5  -1   6   1  15  -1  20  -1
M  END
>  <UniqueID>  (29) 
29

>  <SMILES>  (29) 
C[C@H](C(=O)[O-])[N@@H+](C)c1ccc2cc(C([NH-])=O)n(C(=O)[O-])c2c1

>  <Energy>  (29) 
82.37089275435393

>  <Genealogy>  (29) 
CC(C(=O)[O-])[NH+](C)c1ccc2cc(C([NH-])=O)n(C(=O)[O-])c2c1 (protonated)
C[C@H](C(=O)[O-])[N@@H+](C)c1ccc2cc(C([NH-])=O)n(C(=O)[O-])c2c1 (chirality)
C[C@H](C(=O)[O-])[N@@H+](C)c1ccc2cc(C([NH-])=O)n(C(=O)[O-])c2c1 (3D coordinates assigned)
C[C@H](C(=O)[O-])[N@@H+](C)c1ccc2cc(C([NH-])=O)n(C(=O)[O-])c2c1 (optimized conformer: 82.37089275435393 kcal/mol)

>  <smiles>  (29) 
CC(C(=O)O)N(C)c1ccc2cc(C(N)=O)n(C(=O)O)c2c1

>  <score_type>  (29) 
oracle

>  <origin>  (29) 
adg

>  <m_score__min__energy>  (29) 
-6.0800000000000001

>  <m_primary>  (29) 
energy

$$$$
29:0
     RDKit          3D

 28 29  0  0  0  0  0  0  0  0999 V2000
  149.3000  152.2850  132.4370 C   0  0  0  0  0  0  0  0  0  0  0  0
  148.4550  153.3600  132.8280 O   0  0  0  0  0  0  0  0  0  0  0  0
  148.8610  154.6970  132.7740 C   0  0  0  0  0  0  0  0  0  0  0  0
  149.9610  155.0060  132.2400 O   0  0  0  0  0  0  0  0  0  0  0  0
  148.0310  155.7190  133.3490 N   0  0  0  0  0  0  0  0  0  0  0  0
  147.1530  155.5950  134.3840 C   0  0  0  0  0  0  0  0  0  0  0  0
  146.7550  154.3300  135.0370 C   0  0  0  0  0  0  0  0  0  0  0  0
  146.0740  153.3280  134.2850 N   0  0  0  0  0  0  0  0  0  0  0  0
  147.0420  154.1080  136.2420 O   0  0  0  0  0  0  0  0  0  0  0  0
  146.5990  156.8320  134.7060 C   0  0  0  0  0  0  0  0  0  0  0  0
  147.1650  157.7250  133.8250 C   0  0  0  0  0  0  0  0  0  0  0  0
  146.9880  159.1010  133.7100 C   0  0  0  0  0  0  0  0  0  0  0  0
  147.7290  159.7800  132.7300 C   0  0  0  0  0  0  0  0  0  0  0  0
  148.6200  159.0780  131.8770 C   0  0  0  0  0  0  0  0  0  0  0  0
  149.4570  159.8280  130.8700 C   0  0  0  0  0  0  0  0  0  0  0  0
  149.4130  161.1890  131.1170 F   0  0  0  0  0  0  0  0  0  0  0  0
  148.9910  159.6050  129.5860 F   0  0  0  0  0  0  0  0  0  0  0  0
  150.7670  159.3970  130.9560 F   0  0  0  0  0  0  0  0  0  0  0  0
  148.7890  157.6830  132.0420 C   0  0  0  0  0  0  0  0  0  0  0  0
  148.0240  157.0290  133.0150 C   0  0  0  0  0  0  0  0  0  0  0  0
  149.6941  151.7837  133.3333 H   0  0  0  0  0  0  0  0  0  0  0  0
  148.7236  151.5649  131.8376 H   0  0  0  0  0  0  0  0  0  0  0  0
  150.1359  152.6750  131.8376 H   0  0  0  0  0  0  0  0  0  0  0  0
  146.6050  152.6040  133.7520 H   0  0  0  0  0  0  0  0  0  0  0  0
  145.8652  157.0488  135.4963 H   0  0  0  0  0  0  0  0  0  0  0  0
  146.2891  159.6396  134.3668 H   0  0  0  0  0  0  0  0  0  0  0  0
  147.6178  160.8690  132.6219 H   0  0  0  0  0  0  0  0  0  0  0  0
  149.5048  157.1253  131.4202 H   0  0  0  0  0  0  0  0  0  0  0  0
  1  2  1  0
  2  3  1  0
  3  4  2  0
  3  5  1  0
  5  6  1  0
  6  7  1  0
  7  8  1  0
  7  9  2  0
  6 10  2  0
 10 11  1  0
 11 12  2  0
 12 13  1  0
 13 14  2  0
 14 15  1  0
 15 16  1  0
 15 17  1  0
 15 18  1  0
 14 19  1  0
 19 20  2  0
 20  5  1  0
 20 11  1  0
  1 21  1  0
  1 22  1  0
  1 23  1  0
  8 24  1  0
 10 25  1  0
 12 26  1  0
 13 27  1  0
 19 28  1  0
M  CHG  1   8  -1
M  END
>  <UniqueID>  (30) 
30

>  <SMILES>  (30) 
COC(=O)n1c(C([NH-])=O)cc2ccc(C(F)(F)F)cc21

>  <Energy>  (30) 
65.82487251445592

>  <Genealogy>  (30) 
COC(=O)n1c(C([NH-])=O)cc2ccc(C(F)(F)F)cc21 (protonated)
COC(=O)n1c(C([NH-])=O)cc2ccc(C(F)(F)F)cc21 (3D coordinates assigned)
COC(=O)n1c(C([NH-])=O)cc2ccc(C(F)(F)F)cc21 (optimized conformer: 65.82487251445592 kcal/mol)

>  <smiles>  (30) 
COC(=O)n1c(C(N)=O)cc2ccc(C(F)(F)F)cc21

>  <score_type>  (30) 
oracle

>  <origin>  (30) 
adg

>  <m_score__min__energy>  (30) 
-5.1600000000000001

>  <m_primary>  (30) 
energy

$$$$
30:0
     RDKit          3D

 45 47  0  0  0  0  0  0  0  0999 V2000
  142.5470  153.6180  135.6980 C   0  0  0  0  0  0  0  0  0  0  0  0
  141.7300  152.5460  136.3480 C   0  0  0  0  0  0  0  0  0  0  0  0
  141.2480  151.4680  135.7000 N   0  0  0  0  0  0  0  0  0  0  0  0
  140.6080  150.7670  136.6260 N   0  0  0  0  0  0  0  0  0  0  0  0
  140.6920  151.3770  137.8000 N   0  0  0  0  0  0  0  0  0  0  0  0
  141.4000  152.4830  137.6510 N   0  0  0  0  0  0  0  0  0  0  0  0
  141.6820  153.4390  138.7200 C   0  0  0  0  0  0  0  0  0  0  0  0
  140.4330  154.2690  139.1020 C   0  0  1  0  0  0  0  0  0  0  0  0
  139.8770  153.7550  140.4380 C   0  0  0  0  0  0  0  0  0  0  0  0
  140.7380  155.7890  139.2120 C   0  0  0  0  0  0  0  0  0  0  0  0
  141.9140  156.2740  138.3430 C   0  0  0  0  0  0  0  0  0  0  0  0
  141.4820  157.1790  137.2140 C   0  0  0  0  0  0  0  0  0  0  0  0
  141.5480  158.5870  137.3620 C   0  0  0  0  0  0  0  0  0  0  0  0
  141.1520  159.4370  136.3170 C   0  0  0  0  0  0  0  0  0  0  0  0
  140.7060  158.8540  135.1350 C   0  0  0  0  0  0  0  0  0  0  0  0
  140.3000  159.4430  133.9610 C   0  0  0  0  0  0  0  0  0  0  0  0
  139.9940  158.3860  133.1050 C   0  0  0  0  0  0  0  0  0  0  0  0
  139.4310  158.5630  131.7480 C   0  0  0  0  0  0  0  0  0  0  0  0
  138.7320  157.4970  131.1030 N   0  0  0  0  0  0  0  0  0  0  0  0
  139.5940  159.6500  131.1320 O   0  0  0  0  0  0  0  0  0  0  0  0
  140.2060  157.1900  133.7250 N   0  0  0  0  0  0  0  0  0  0  0  0
  140.0940  155.8750  133.1530 C   0  0  0  0  0  0  0  0  0  0  0  0
  141.1220  155.1730  132.9670 O   0  0  0  0  0  0  0  0  0  0  0  0
  138.8510  155.3600  132.8130 O   0  0  0  0  0  0  0  0  0  0  0  0
  140.6380  157.4950  134.9700 C   0  0  0  0  0  0  0  0  0  0  0  0
  141.0370  156.6240  135.9930 C   0  0  0  0  0  0  0  0  0  0  0  0
  143.0203  154.2390  136.4729 H   0  0  0  0  0  0  0  0  0  0  0  0
  143.3250  153.1571  135.0717 H   0  0  0  0  0  0  0  0  0  0  0  0
  141.8963  154.2459  135.0717 H   0  0  0  0  0  0  0  0  0  0  0  0
  142.0267  152.8877  139.6073 H   0  0  0  0  0  0  0  0  0  0  0  0
  142.4536  154.1345  138.3581 H   0  0  0  0  0  0  0  0  0  0  0  0
  139.6912  154.1453  138.2993 H   0  0  0  0  0  0  0  0  0  0  0  0
  140.4068  154.2448  141.2684 H   0  0  0  0  0  0  0  0  0  0  0  0
  138.8033  153.9856  140.5013 H   0  0  0  0  0  0  0  0  0  0  0  0
  140.0227  152.6665  140.5013 H   0  0  0  0  0  0  0  0  0  0  0  0
  139.8369  156.3421  138.9087 H   0  0  0  0  0  0  0  0  0  0  0  0
  141.0274  155.9730  140.2572 H   0  0  0  0  0  0  0  0  0  0  0  0
  142.6187  156.8249  138.9833 H   0  0  0  0  0  0  0  0  0  0  0  0
  142.3772  155.3843  137.8915 H   0  0  0  0  0  0  0  0  0  0  0  0
  141.9134  159.0184  138.3056 H   0  0  0  0  0  0  0  0  0  0  0  0
  141.1931  160.5305  136.4293 H   0  0  0  0  0  0  0  0  0  0  0  0
  140.2312  160.5191  133.7434 H   0  0  0  0  0  0  0  0  0  0  0  0
  138.3730  157.6190  130.1290 H   0  0  0  0  0  0  0  0  0  0  0  0
  138.5300  156.6020  131.6000 H   0  0  0  0  0  0  0  0  0  0  0  0
  141.0045  155.5340  135.8488 H   0  0  0  0  0  0  0  0  0  0  0  0
  1  2  1  0
  2  3  2  0
  3  4  1  0
  4  5  2  0
  5  6  1  0
  6  7  1  0
  7  8  1  0
  8  9  1  0
  8 10  1  0
 10 11  1  0
 11 12  1  0
 12 13  2  0
 13 14  1  0
 14 15  2  0
 15 16  1  0
 16 17  2  0
 17 18  1  0
 18 19  1  0
 18 20  2  0
 17 21  1  0
 21 22  1  0
 22 23  2  0
 22 24  1  0
 21 25  1  0
 25 26  2  0
  6  2  1  0
 26 12  1  0
 25 15  1  0
  1 27  1  0
  1 28  1  0
  1 29  1  0
  7 30  1  0
  7 31  1  0
  8 32  1  6
  9 33  1  0
  9 34  1  0
  9 35  1  0
 10 36  1  0
 10 37  1  0
 11 38  1  0
 11 39  1  0
 13 40  1  0
 14 41  1  0
 16 42  1  0
 19 43  1  0
 19 44  1  0
 26 45  1  0
M  CHG  1  24  -1
M  END
>  <UniqueID>  (31) 
31

>  <SMILES>  (31) 
Cc1nnnn1C[C@@H](C)CCc1ccc2cc(C(N)=O)n(C(=O)[O-])c2c1

>  <Energy>  (31) 
118.19358740407453

>  <Genealogy>  (31) 
Cc1nnnn1CC(C)CCc1ccc2cc(C(N)=O)n(C(=O)[O-])c2c1 (protonated)
Cc1nnnn1C[C@@H](C)CCc1ccc2cc(C(N)=O)n(C(=O)[O-])c2c1 (chirality)
Cc1nnnn1C[C@@H](C)CCc1ccc2cc(C(N)=O)n(C(=O)[O-])c2c1 (3D coordinates assigned)
Cc1nnnn1C[C@@H](C)CCc1ccc2cc(C(N)=O)n(C(=O)[O-])c2c1 (optimized conformer: 118.19358740407453 kcal/mol)

>  <smiles>  (31) 
Cc1nnnn1CC(C)CCc1ccc2cc(C(N)=O)n(C(=O)O)c2c1

>  <score_type>  (31) 
oracle

>  <origin>  (31) 
adg

>  <m_score__min__energy>  (31) 
-8.6099999999999994

>  <m_primary>  (31) 
energy

$$$$
31:0
     RDKit          3D

 42 43  0  0  0  0  0  0  0  0999 V2000
  148.8250  154.3240  132.5820 C   0  0  0  0  0  0  0  0  0  0  0  0
  147.5060  154.5580  133.3430 C   0  0  0  0  0  0  0  0  0  0  0  0
  147.7420  154.5280  134.8650 C   0  0  0  0  0  0  0  0  0  0  0  0
  146.5150  153.4450  132.9720 C   0  0  0  0  0  0  0  0  0  0  0  0
  146.9100  155.8030  132.9500 O   0  0  0  0  0  0  0  0  0  0  0  0
  145.9710  156.5430  133.6820 C   0  0  0  0  0  0  0  0  0  0  0  0
  145.1910  155.9770  134.4940 O   0  0  0  0  0  0  0  0  0  0  0  0
  145.8960  157.9660  133.4990 N   0  0  0  0  0  0  0  0  0  0  0  0
  146.9140  158.8190  133.1950 C   0  0  0  0  0  0  0  0  0  0  0  0
  148.2900  158.4280  132.8290 C   0  0  0  0  0  0  0  0  0  0  0  0
  148.5380  157.4000  131.8680 N   0  0  0  0  0  0  0  0  0  0  0  0
  149.2650  159.0490  133.3320 O   0  0  0  0  0  0  0  0  0  0  0  0
  146.4740  160.1400  133.2230 C   0  0  0  0  0  0  0  0  0  0  0  0
  145.1370  160.0700  133.5440 C   0  0  0  0  0  0  0  0  0  0  0  0
  144.2080  161.0900  133.7290 C   0  0  0  0  0  0  0  0  0  0  0  0
  142.9020  160.7310  134.1010 C   0  0  0  0  0  0  0  0  0  0  0  0
  142.5510  159.3690  134.2800 C   0  0  0  0  0  0  0  0  0  0  0  0
  141.1620  159.0010  134.7270 C   0  0  0  0  0  0  0  0  0  0  0  0
  141.0870  158.9340  136.2530 C   0  0  0  0  0  0  0  0  0  0  0  0
  139.8960  158.3110  136.6520 O   0  0  0  0  0  0  0  0  0  0  0  0
  143.5250  158.3620  134.0980 C   0  0  0  0  0  0  0  0  0  0  0  0
  144.8140  158.7470  133.7070 C   0  0  0  0  0  0  0  0  0  0  0  0
  149.6433  154.1788  133.3026 H   0  0  0  0  0  0  0  0  0  0  0  0
  148.7298  153.4287  131.9500 H   0  0  0  0  0  0  0  0  0  0  0  0
  149.0436  155.1974  131.9500 H   0  0  0  0  0  0  0  0  0  0  0  0
  146.7817  154.6501  135.3874 H   0  0  0  0  0  0  0  0  0  0  0  0
  148.1932  153.5653  135.1472 H   0  0  0  0  0  0  0  0  0  0  0  0
  148.4197  155.3472  135.1472 H   0  0  0  0  0  0  0  0  0  0  0  0
  146.1118  152.9922  133.8898 H   0  0  0  0  0  0  0  0  0  0  0  0
  145.6909  153.8701  132.3802 H   0  0  0  0  0  0  0  0  0  0  0  0
  147.0325  152.6756  132.3802 H   0  0  0  0  0  0  0  0  0  0  0  0
  149.5170  157.1080  131.6540 H   0  0  0  0  0  0  0  0  0  0  0  0
  147.7600  156.9870  131.3070 H   0  0  0  0  0  0  0  0  0  0  0  0
  147.0677  161.0457  133.0299 H   0  0  0  0  0  0  0  0  0  0  0  0
  144.4880  162.1444  133.5882 H   0  0  0  0  0  0  0  0  0  0  0  0
  142.1446  161.5137  134.2549 H   0  0  0  0  0  0  0  0  0  0  0  0
  140.4526  159.7589  134.3632 H   0  0  0  0  0  0  0  0  0  0  0  0
  140.9076  158.0129  134.3160 H   0  0  0  0  0  0  0  0  0  0  0  0
  141.9435  158.3585  136.6340 H   0  0  0  0  0  0  0  0  0  0  0  0
  141.1111  159.9561  136.6589 H   0  0  0  0  0  0  0  0  0  0  0  0
  139.3710  158.9930  137.1460 H   0  0  0  0  0  0  0  0  0  0  0  0
  143.2775  157.3024  134.2592 H   0  0  0  0  0  0  0  0  0  0  0  0
  1  2  1  0
  2  3  1  0
  2  4  1  0
  2  5  1  0
  5  6  1  0
  6  7  2  0
  6  8  1  0
  8  9  1  0
  9 10  1  0
 10 11  1  0
 10 12  2  0
  9 13  2  0
 13 14  1  0
 14 15  2  0
 15 16  1  0
 16 17  2  0
 17 18  1  0
 18 19  1  0
 19 20  1  0
 17 21  1  0
 21 22  2  0
 22  8  1  0
 22 14  1  0
  1 23  1  0
  1 24  1  0
  1 25  1  0
  3 26  1  0
  3 27  1  0
  3 28  1  0
  4 29  1  0
  4 30  1  0
  4 31  1  0
 11 32  1  0
 11 33  1  0
 13 34  1  0
 15 35  1  0
 16 36  1  0
 18 37  1  0
 18 38  1  0
 19 39  1  0
 19 40  1  0
 20 41  1  0
 21 42  1  0
M  END
>  <UniqueID>  (32) 
32

>  <SMILES>  (32) 
CC(C)(C)OC(=O)n1c(C(N)=O)cc2ccc(CCO)cc21

>  <Energy>  (32) 
72.90182437428238

>  <Genealogy>  (32) 
CC(C)(C)OC(=O)n1c(C(N)=O)cc2ccc(CCO)cc21 (3D coordinates assigned)
CC(C)(C)OC(=O)n1c(C(N)=O)cc2ccc(CCO)cc21 (optimized conformer: 72.90182437428238 kcal/mol)

>  <smiles>  (32) 
CC(C)(C)OC(=O)n1c(C(N)=O)cc2ccc(CCO)cc21

>  <score_type>  (32) 
oracle

>  <origin>  (32) 
adg

>  <m_score__min__energy>  (32) 
-7.1100000000000003

>  <m_primary>  (32) 
energy

$$$$
32:0
     RDKit          3D

 43 45  0  0  0  0  0  0  0  0999 V2000
  144.3590  154.5080  130.9400 C   0  0  0  0  0  0  0  0  0  0  0  0
  144.6970  154.4050  132.3970 C   0  0  0  0  0  0  0  0  0  0  0  0
  143.9160  153.6780  133.3090 C   0  0  0  0  0  0  0  0  0  0  0  0
  144.3930  153.7210  134.6120 C   0  0  0  0  0  0  0  0  0  0  0  0
  145.7820  154.6650  134.6350 S   0  0  0  0  0  0  0  0  0  0  0  0
  145.8040  155.0190  132.9900 C   0  0  0  0  0  0  0  0  0  0  0  0
  146.7670  155.9700  132.3440 C   0  0  0  0  0  0  0  0  0  0  0  0
  147.2220  156.9850  133.3470 C   0  0  0  0  0  0  0  0  0  0  0  0
  148.0830  156.6730  134.2120 O   0  0  0  0  0  0  0  0  0  0  0  0
  146.6000  158.2750  133.3970 N   0  0  0  0  0  0  0  0  0  0  0  0
  147.1140  159.4620  132.9740 C   0  0  0  0  0  0  0  0  0  0  0  0
  148.5050  159.6640  132.5070 C   0  0  0  0  0  0  0  0  0  0  0  0
  149.5780  158.8690  133.0170 N   0  0  0  0  0  0  0  0  0  0  0  0
  148.7560  160.5430  131.6400 O   0  0  0  0  0  0  0  0  0  0  0  0
  146.1410  160.4600  133.0500 C   0  0  0  0  0  0  0  0  0  0  0  0
  145.0070  159.8310  133.5190 C   0  0  0  0  0  0  0  0  0  0  0  0
  143.7230  160.3270  133.7230 C   0  0  0  0  0  0  0  0  0  0  0  0
  142.7280  159.4260  134.1400 C   0  0  0  0  0  0  0  0  0  0  0  0
  143.0310  158.0530  134.3520 C   0  0  0  0  0  0  0  0  0  0  0  0
  141.9510  157.0690  134.7490 C   0  0  2  0  0  0  0  0  0  0  0  0
  141.2340  156.5190  133.5100 C   0  0  0  0  0  0  0  0  0  0  0  0
  140.9870  157.6940  135.7220 C   0  0  0  0  0  0  0  0  0  0  0  0
  139.7510  157.4800  135.6030 O   0  0  0  0  0  0  0  0  0  0  0  0
  141.4470  158.4610  136.7860 O   0  0  0  0  0  0  0  0  0  0  0  0
  144.3500  157.5940  134.1370 C   0  0  0  0  0  0  0  0  0  0  0  0
  145.3150  158.5140  133.7220 C   0  0  0  0  0  0  0  0  0  0  0  0
  143.3122  154.8270  130.8281 H   0  0  0  0  0  0  0  0  0  0  0  0
  145.0202  155.2454  130.4614 H   0  0  0  0  0  0  0  0  0  0  0  0
  144.4966  153.5272  130.4614 H   0  0  0  0  0  0  0  0  0  0  0  0
  143.0103  153.1256  133.0183 H   0  0  0  0  0  0  0  0  0  0  0  0
  143.9389  153.2221  135.4809 H   0  0  0  0  0  0  0  0  0  0  0  0
  147.6369  155.4111  131.9687 H   0  0  0  0  0  0  0  0  0  0  0  0
  146.2685  156.4818  131.5076 H   0  0  0  0  0  0  0  0  0  0  0  0
  149.4320  158.1740  133.7800 H   0  0  0  0  0  0  0  0  0  0  0  0
  150.5480  159.0070  132.6520 H   0  0  0  0  0  0  0  0  0  0  0  0
  146.2547  161.5229  132.7907 H   0  0  0  0  0  0  0  0  0  0  0  0
  143.4938  161.3909  133.5630 H   0  0  0  0  0  0  0  0  0  0  0  0
  141.7022  159.7875  134.3044 H   0  0  0  0  0  0  0  0  0  0  0  0
  142.4261  156.2183  135.2594 H   0  0  0  0  0  0  0  0  0  0  0  0
  140.3977  155.8775  133.8249 H   0  0  0  0  0  0  0  0  0  0  0  0
  140.8483  157.3551  132.9082 H   0  0  0  0  0  0  0  0  0  0  0  0
  141.9416  155.9298  132.9082 H   0  0  0  0  0  0  0  0  0  0  0  0
  144.6105  156.5367  134.2929 H   0  0  0  0  0  0  0  0  0  0  0  0
  1  2  1  0
  2  3  1  0
  3  4  2  0
  4  5  1  0
  5  6  1  0
  6  7  1  0
  7  8  1  0
  8  9  2  0
  8 10  1  0
 10 11  1  0
 11 12  1  0
 12 13  1  0
 12 14  2  0
 11 15  2  0
 15 16  1  0
 16 17  2  0
 17 18  1  0
 18 19  2  0
 19 20  1  0
 20 21  1  0
 20 22  1  0
 22 23  2  0
 22 24  1  0
 19 25  1  0
 25 26  2  0
  6  2  2  0
 26 10  1  0
 26 16  1  0
  1 27  1  0
  1 28  1  0
  1 29  1  0
  3 30  1  0
  4 31  1  0
  7 32  1  0
  7 33  1  0
 13 34  1  0
 13 35  1  0
 15 36  1  0
 17 37  1  0
 18 38  1  0
 20 39  1  1
 21 40  1  0
 21 41  1  0
 21 42  1  0
 25 43  1  0
M  CHG  1  24  -1
M  END
>  <UniqueID>  (33) 
33

>  <SMILES>  (33) 
Cc1ccsc1CC(=O)n1c(C(N)=O)cc2ccc([C@H](C)C(=O)[O-])cc21

>  <Energy>  (33) 
102.87482405368672

>  <Genealogy>  (33) 
Cc1ccsc1CC(=O)n1c(C(N)=O)cc2ccc(C(C)C(=O)[O-])cc21 (protonated)
Cc1ccsc1CC(=O)n1c(C(N)=O)cc2ccc([C@H](C)C(=O)[O-])cc21 (chirality)
Cc1ccsc1CC(=O)n1c(C(N)=O)cc2ccc([C@H](C)C(=O)[O-])cc21 (3D coordinates assigned)
Cc1ccsc1CC(=O)n1c(C(N)=O)cc2ccc([C@H](C)C(=O)[O-])cc21 (optimized conformer: 102.87482405368672 kcal/mol)

>  <smiles>  (33) 
Cc1ccsc1CC(=O)n1c(C(N)=O)cc2ccc(C(C)C(=O)O)cc21

>  <score_type>  (33) 
oracle

>  <origin>  (33) 
adg

>  <m_score__min__energy>  (33) 
-8.0999999999999996

>  <m_primary>  (33) 
energy

$$$$
33:0
     RDKit          3D

 48 49  0  0  0  0  0  0  0  0999 V2000
  137.9680  159.8430  131.1550 C   0  0  0  0  0  0  0  0  0  0  0  0
  138.9440  158.9660  131.4090 C   0  0  0  0  0  0  0  0  0  0  0  0
  140.0180  159.2640  132.4130 C   0  0  0  0  0  0  0  0  0  0  0  0
  140.4520  158.0660  133.0530 O   0  0  0  0  0  0  0  0  0  0  0  0
  139.9970  157.6560  134.3120 C   0  0  0  0  0  0  0  0  0  0  0  0
  138.8490  157.9900  134.7140 O   0  0  0  0  0  0  0  0  0  0  0  0
  140.8550  156.8710  135.1550 N   0  0  0  0  0  0  0  0  0  0  0  0
  141.3480  157.1930  136.3860 C   0  0  0  0  0  0  0  0  0  0  0  0
  140.9990  158.3900  137.1780 C   0  0  0  0  0  0  0  0  0  0  0  0
  140.2650  159.4660  136.5990 N   0  0  0  0  0  0  0  0  0  0  0  0
  141.3090  158.4430  138.3980 O   0  0  0  0  0  0  0  0  0  0  0  0
  142.1670  156.1720  136.8640 C   0  0  0  0  0  0  0  0  0  0  0  0
  142.1460  155.2000  135.8910 C   0  0  0  0  0  0  0  0  0  0  0  0
  142.7680  153.9550  135.8540 C   0  0  0  0  0  0  0  0  0  0  0  0
  142.5610  153.1480  134.7220 C   0  0  0  0  0  0  0  0  0  0  0  0
  141.7510  153.6010  133.6500 C   0  0  0  0  0  0  0  0  0  0  0  0
  141.5390  152.7280  132.4370 C   0  0  0  0  0  0  0  0  0  0  0  0
  140.3090  151.8830  132.5940 C   0  0  0  0  0  0  0  0  0  0  0  0
  139.1750  152.4310  132.5940 O   0  0  0  0  0  0  0  0  0  0  0  0
  140.4450  150.4660  132.7640 N   0  0  0  0  0  0  0  0  0  0  0  0
  140.9310  149.5050  131.7670 C   0  0  0  0  0  0  0  0  0  0  0  0
  142.4500  149.6620  131.5710 C   0  0  0  0  0  0  0  0  0  0  0  0
  140.6370  148.0950  132.3100 C   0  0  0  0  0  0  0  0  0  0  0  0
  140.1740  149.7150  130.4330 C   0  0  0  0  0  0  0  0  0  0  0  0
  138.8270  150.0230  130.6660 O   0  0  0  0  0  0  0  0  0  0  0  0
  141.1630  154.8850  133.7130 C   0  0  0  0  0  0  0  0  0  0  0  0
  141.3530  155.6490  134.8690 C   0  0  0  0  0  0  0  0  0  0  0  0
  137.1912  159.6022  130.4143 H   0  0  0  0  0  0  0  0  0  0  0  0
  137.9415  160.8056  131.6866 H   0  0  0  0  0  0  0  0  0  0  0  0
  138.9601  158.0066  130.8711 H   0  0  0  0  0  0  0  0  0  0  0  0
  140.8725  159.7304  131.9008 H   0  0  0  0  0  0  0  0  0  0  0  0
  139.6126  159.9465  133.1745 H   0  0  0  0  0  0  0  0  0  0  0  0
  139.2570  159.3580  136.3510 H   0  0  0  0  0  0  0  0  0  0  0  0
  142.7145  156.1483  137.8178 H   0  0  0  0  0  0  0  0  0  0  0  0
  143.4021  153.6133  136.6854 H   0  0  0  0  0  0  0  0  0  0  0  0
  143.0319  152.1554  134.6672 H   0  0  0  0  0  0  0  0  0  0  0  0
  141.4261  153.3669  131.5487 H   0  0  0  0  0  0  0  0  0  0  0  0
  142.4093  152.0646  132.3249 H   0  0  0  0  0  0  0  0  0  0  0  0
  142.9431  149.7130  132.5530 H   0  0  0  0  0  0  0  0  0  0  0  0
  142.8384  148.7992  131.0100 H   0  0  0  0  0  0  0  0  0  0  0  0
  142.6538  150.5860  131.0100 H   0  0  0  0  0  0  0  0  0  0  0  0
  140.6416  148.1173  133.4098 H   0  0  0  0  0  0  0  0  0  0  0  0
  139.6504  147.7634  131.9541 H   0  0  0  0  0  0  0  0  0  0  0  0
  141.4089  147.3967  131.9541 H   0  0  0  0  0  0  0  0  0  0  0  0
  140.6422  150.5423  129.8795 H   0  0  0  0  0  0  0  0  0  0  0  0
  140.2259  148.7843  129.8489 H   0  0  0  0  0  0  0  0  0  0  0  0
  138.8150  150.6510  131.4340 H   0  0  0  0  0  0  0  0  0  0  0  0
  140.5698  155.2742  132.8724 H   0  0  0  0  0  0  0  0  0  0  0  0
  1  2  2  0
  2  3  1  0
  3  4  1  0
  4  5  1  0
  5  6  2  0
  5  7  1  0
  7  8  1  0
  8  9  1  0
  9 10  1  0
  9 11  2  0
  8 12  2  0
 12 13  1  0
 13 14  2  0
 14 15  1  0
 15 16  2  0
 16 17  1  0
 17 18  1  0
 18 19  2  0
 18 20  1  0
 20 21  1  0
 21 22  1  0
 21 23  1  0
 21 24  1  0
 24 25  1  0
 16 26  1  0
 26 27  2  0
 27  7  1  0
 27 13  1  0
  1 28  1  0
  1 29  1  0
  2 30  1  0
  3 31  1  0
  3 32  1  0
 10 33  1  0
 12 34  1  0
 14 35  1  0
 15 36  1  0
 17 37  1  0
 17 38  1  0
 22 39  1  0
 22 40  1  0
 22 41  1  0
 23 42  1  0
 23 43  1  0
 23 44  1  0
 24 45  1  0
 24 46  1  0
 25 47  1  0
 26 48  1  0
M  CHG  2  10  -1  20  -1
M  END
>  <UniqueID>  (34) 
34

>  <SMILES>  (34) 
C=CCOC(=O)n1c(C([NH-])=O)cc2ccc(CC(=O)[N-]C(C)(C)CO)cc21

>  <Energy>  (34) 
75.00990020325908

>  <Genealogy>  (34) 
C=CCOC(=O)n1c(C([NH-])=O)cc2ccc(CC(=O)[N-]C(C)(C)CO)cc21 (protonated)
C=CCOC(=O)n1c(C([NH-])=O)cc2ccc(CC(=O)[N-]C(C)(C)CO)cc21 (3D coordinates assigned)
C=CCOC(=O)n1c(C([NH-])=O)cc2ccc(CC(=O)[N-]C(C)(C)CO)cc21 (optimized conformer: 75.00990020325908 kcal/mol)

>  <smiles>  (34) 
C=CCOC(=O)n1c(C(N)=O)cc2ccc(CC(=O)NC(C)(C)CO)cc21

>  <score_type>  (34) 
oracle

>  <origin>  (34) 
adg

>  <m_score__min__energy>  (34) 
-6.6100000000000003

>  <m_primary>  (34) 
energy

$$$$
34:0
     RDKit          3D

 63 65  0  0  0  0  0  0  0  0999 V2000
  146.4350  161.6280  133.4130 H   0  0  0  0  0  0  0  0  0  0  0  0
  145.6750  161.8060  134.1070 N   0  0  0  0  0  0  0  0  0  0  0  0
  144.3270  161.4370  133.8340 C   0  0  0  0  0  0  0  0  0  0  0  0
  143.4600  162.3380  133.7050 O   0  0  0  0  0  0  0  0  0  0  0  0
  143.9530  160.0090  133.7650 C   0  0  0  0  0  0  0  0  0  0  0  0
  142.7100  159.5270  134.1600 C   0  0  0  0  0  0  0  0  0  0  0  0
  141.8878  160.0984  134.6155 H   0  0  0  0  0  0  0  0  0  0  0  0
  142.7260  158.1860  133.8610 C   0  0  0  0  0  0  0  0  0  0  0  0
  141.7430  157.2220  134.0480 C   0  0  0  0  0  0  0  0  0  0  0  0
  140.7656  157.4849  134.4788 H   0  0  0  0  0  0  0  0  0  0  0  0
  142.0360  155.9020  133.6700 C   0  0  0  0  0  0  0  0  0  0  0  0
  141.2736  155.1188  133.7943 H   0  0  0  0  0  0  0  0  0  0  0  0
  143.3030  155.5670  133.1300 C   0  0  0  0  0  0  0  0  0  0  0  0
  143.5960  154.1380  132.7580 C   0  0  0  0  0  0  0  0  0  0  0  0
  142.8337  153.7887  132.0460 H   0  0  0  0  0  0  0  0  0  0  0  0
  144.5976  154.0934  132.3054 H   0  0  0  0  0  0  0  0  0  0  0  0
  143.5800  153.2460  133.9730 C   0  0  0  0  0  0  0  0  0  0  0  0
  144.6790  153.0290  134.5490 O   0  0  0  0  0  0  0  0  0  0  0  0
  142.3750  152.6370  134.4980 N   0  0  0  0  0  0  0  0  0  0  0  0
  142.0950  152.7840  135.9320 C   0  0  0  0  0  0  0  0  0  0  0  0
  142.9218  152.3499  136.5134 H   0  0  0  0  0  0  0  0  0  0  0  0
  141.9942  153.8513  136.1784 H   0  0  0  0  0  0  0  0  0  0  0  0
  141.1592  152.2609  136.1784 H   0  0  0  0  0  0  0  0  0  0  0  0
  141.4250  151.8700  133.6740 C   0  0  0  0  0  0  0  0  0  0  0  0
  140.6384  151.4612  134.3252 H   0  0  0  0  0  0  0  0  0  0  0  0
  141.0010  152.5493  132.9198 H   0  0  0  0  0  0  0  0  0  0  0  0
  142.1140  150.7100  132.9380 C   0  0  0  0  0  0  0  0  0  0  0  0
  142.9717  151.0993  132.3699 H   0  0  0  0  0  0  0  0  0  0  0  0
  142.4555  149.9703  133.6771 H   0  0  0  0  0  0  0  0  0  0  0  0
  141.1670  150.0570  132.0060 N   0  0  0  0  0  0  0  0  0  0  0  0
  139.8270  150.6630  132.0980 C   0  0  0  0  0  0  0  0  0  0  0  0
  139.5526  150.7871  133.1560 H   0  0  0  0  0  0  0  0  0  0  0  0
  139.8341  151.6455  131.6034 H   0  0  0  0  0  0  0  0  0  0  0  0
  139.0940  150.0088  131.6034 H   0  0  0  0  0  0  0  0  0  0  0  0
  141.0750  148.6080  132.2520 C   0  0  0  0  0  0  0  0  0  0  0  0
  141.0631  148.4201  133.3358 H   0  0  0  0  0  0  0  0  0  0  0  0
  140.1503  148.2177  131.8020 H   0  0  0  0  0  0  0  0  0  0  0  0
  141.9429  148.1038  131.8020 H   0  0  0  0  0  0  0  0  0  0  0  0
  144.2750  156.5770  132.9460 C   0  0  0  0  0  0  0  0  0  0  0  0
  145.2635  156.3380  132.5268 H   0  0  0  0  0  0  0  0  0  0  0  0
  143.9480  157.8910  133.3110 C   0  0  0  0  0  0  0  0  0  0  0  0
  144.7150  159.0040  133.2420 N   0  0  0  0  0  0  0  0  0  0  0  0
  146.0840  159.0840  132.7990 C   0  0  0  0  0  0  0  0  0  0  0  0
  146.4240  159.9840  131.9820 O   0  0  0  0  0  0  0  0  0  0  0  0
  147.0830  158.1180  133.2890 C   0  0  0  0  0  0  0  0  0  0  0  0
  147.2655  158.0501  134.3716 H   0  0  0  0  0  0  0  0  0  0  0  0
  147.7770  157.3200  132.4690 C   0  0  0  0  0  0  0  0  0  0  0  0
  147.5437  157.3155  131.3940 H   0  0  0  0  0  0  0  0  0  0  0  0
  148.8670  156.4320  132.9900 C   0  0  0  0  0  0  0  0  0  0  0  0
  149.1458  156.7578  134.0030 H   0  0  0  0  0  0  0  0  0  0  0  0
  149.7340  156.5013  132.3165 H   0  0  0  0  0  0  0  0  0  0  0  0
  148.4160  155.0380  133.0390 N   0  0  0  0  0  0  0  0  0  0  0  0
  148.8550  154.0300  132.2580 C   0  0  0  0  0  0  0  0  0  0  0  0
  149.6313  154.1071  131.4825 H   0  0  0  0  0  0  0  0  0  0  0  0
  148.1640  152.8860  132.5980 C   0  0  0  0  0  0  0  0  0  0  0  0
  148.3008  151.8952  132.1401 H   0  0  0  0  0  0  0  0  0  0  0  0
  147.2950  153.1810  133.5820 N   0  0  0  0  0  0  0  0  0  0  0  0
  146.6220  152.5270  134.0380 H   0  0  0  0  0  0  0  0  0  0  0  0
  147.4640  154.4950  133.8320 C   0  0  0  0  0  0  0  0  0  0  0  0
  146.6440  155.2610  134.8240 C   0  0  0  0  0  0  0  0  0  0  0  0
  146.9452  154.9796  135.8439 H   0  0  0  0  0  0  0  0  0  0  0  0
  146.8054  156.3393  134.6784 H   0  0  0  0  0  0  0  0  0  0  0  0
  145.5792  155.0267  134.6784 H   0  0  0  0  0  0  0  0  0  0  0  0
  1  2  1  0
  2  3  1  0
  3  4  2  0
  3  5  1  0
  5  6  2  0
  6  7  1  0
  6  8  1  0
  8  9  2  0
  9 10  1  0
  9 11  1  0
 11 12  1  0
 11 13  2  0
 13 14  1  0
 14 15  1  0
 14 16  1  0
 14 17  1  0
 17 18  2  0
 17 19  1  0
 19 20  1  0
 20 21  1  0
 20 22  1  0
 20 23  1  0
 19 24  1  0
 24 25  1  0
 24 26  1  0
 24 27  1  0
 27 28  1  0
 27 29  1  0
 27 30  1  0
 30 31  1  0
 31 32  1  0
 31 33  1  0
 31 34  1  0
 30 35  1  0
 35 36  1  0
 35 37  1  0
 35 38  1  0
 13 39  1  0
 39 40  1  0
 39 41  2  0
 41 42  1  0
 42 43  1  0
 43 44  2  0
 43 45  1  0
 45 46  1  0
 45 47  2  0
 47 48  1  0
 47 49  1  0
 49 50  1  0
 49 51  1  0
 49 52  1  0
 52 53  1  0
 53 54  1  0
 53 55  2  0
 55 56  1  0
 55 57  1  0
 57 58  1  0
 57 59  2  0
 59 60  1  0
 60 61  1  0
 60 62  1  0
 60 63  1  0
 42  5  1  0
 59 52  1  0
 41  8  1  0
M  CHG  2   2  -1  57   1
M  END
>  <UniqueID>  (35) 
35

>  <SMILES>  (35) 
Cc1[nH+]ccn1C/C=C/C(=O)n1c(C([NH-])=O)cc2ccc(CC(=O)N(C)CCN(C)C)cc21

>  <Energy>  (35) 
119.19432613031083

>  <Genealogy>  (35) 
Cc1[nH+]ccn1C/C=C/C(=O)n1c(C([NH-])=O)cc2ccc(CC(=O)N(C)CCN(C)C)cc21 (protonated)
Cc1[nH+]ccn1C/C=C/C(=O)n1c(C([NH-])=O)cc2ccc(CC(=O)N(C)CCN(C)C)cc21 (cis-trans isomerization)
Cc1[nH+]ccn1C/C=C/C(=O)n1c(C([NH-])=O)cc2ccc(CC(=O)N(C)CCN(C)C)cc21 (3D coordinates assigned)
Cc1[nH+]ccn1C/C=C/C(=O)n1c(C([NH-])=O)cc2ccc(CC(=O)N(C)CCN(C)C)cc21 (optimized conformer: 119.19432613031083 kcal/mol)

>  <smiles>  (35) 
Cc1nccn1C/C=C/C(=O)n1c(C(N)=O)cc2ccc(CC(=O)N(C)CCN(C)C)cc21

>  <score_type>  (35) 
oracle

>  <origin>  (35) 
adg

>  <m_score__min__energy>  (35) 
-8.7300000000000004

>  <m_primary>  (35) 
energy

$$$$
35:0
     RDKit          3D

 61 63  0  0  0  0  0  0  0  0999 V2000
  139.4610  156.1640  133.2800 C   0  0  0  0  0  0  0  0  0  0  0  0
  139.4100  157.7010  133.2130 C   0  0  2  0  0  0  0  0  0  0  0  0
  139.8710  158.2570  131.8480 C   0  0  0  0  0  0  0  0  0  0  0  0
  138.9500  159.6940  131.2980 S   0  0  0  0  0  0  0  0  0  0  0  0
  137.2110  159.3400  131.1220 C   0  0  0  0  0  0  0  0  0  0  0  0
  139.4920  160.1780  129.9820 O   0  0  0  0  0  0  0  0  0  0  0  0
  139.1180  160.7860  132.3240 O   0  0  0  0  0  0  0  0  0  0  0  0
  140.2200  158.2830  134.3040 N   0  0  0  0  0  0  0  0  0  0  0  0
  139.7230  158.2900  135.6870 C   0  0  0  0  0  0  0  0  0  0  0  0
  141.5340  158.8230  134.0360 C   0  0  0  0  0  0  0  0  0  0  0  0
  141.7310  160.2270  133.9530 C   0  0  0  0  0  0  0  0  0  0  0  0
  143.0100  160.7640  133.7400 C   0  0  0  0  0  0  0  0  0  0  0  0
  144.0740  159.8800  133.5980 C   0  0  0  0  0  0  0  0  0  0  0  0
  145.4180  160.1310  133.4410 C   0  0  0  0  0  0  0  0  0  0  0  0
  146.0230  158.8780  133.4000 C   0  0  0  0  0  0  0  0  0  0  0  0
  147.4810  158.6840  133.2470 C   0  0  0  0  0  0  0  0  0  0  0  0
  148.2340  157.9050  134.1770 N   0  0  0  0  0  0  0  0  0  0  0  0
  148.0660  159.1770  132.2460 O   0  0  0  0  0  0  0  0  0  0  0  0
  145.0930  157.8920  133.5280 N   0  0  0  0  0  0  0  0  0  0  0  0
  145.3350  156.4810  133.6600 C   0  0  0  0  0  0  0  0  0  0  0  0
  146.0640  156.0640  134.5980 O   0  0  0  0  0  0  0  0  0  0  0  0
  144.8390  155.5230  132.6120 C   0  0  0  0  0  0  0  0  0  0  0  0
  144.0930  154.3200  133.2040 C   0  0  0  0  0  0  0  0  0  0  0  0
  142.7130  154.6810  133.5970 N   0  0  0  0  0  0  0  0  0  0  0  0
  141.7190  153.7630  133.0090 C   0  0  0  0  0  0  0  0  0  0  0  0
  141.8050  152.3500  133.6360 C   0  0  0  0  0  0  0  0  0  0  0  0
  142.5010  152.3300  134.8710 O   0  0  0  0  0  0  0  0  0  0  0  0
  142.0920  153.4120  135.6790 C   0  0  0  0  0  0  0  0  0  0  0  0
  142.5460  154.7540  135.0660 C   0  0  0  0  0  0  0  0  0  0  0  0
  143.9050  158.5220  133.6530 C   0  0  0  0  0  0  0  0  0  0  0  0
  142.6450  157.9600  133.8880 C   0  0  0  0  0  0  0  0  0  0  0  0
  139.4716  155.8430  134.3321 H   0  0  0  0  0  0  0  0  0  0  0  0
  138.5762  155.7455  132.7779 H   0  0  0  0  0  0  0  0  0  0  0  0
  140.3715  155.8051  132.7779 H   0  0  0  0  0  0  0  0  0  0  0  0
  138.3569  157.9940  133.3355 H   0  0  0  0  0  0  0  0  0  0  0  0
  140.9320  158.5360  131.9285 H   0  0  0  0  0  0  0  0  0  0  0  0
  139.6971  157.4639  131.1058 H   0  0  0  0  0  0  0  0  0  0  0  0
  136.7532  159.2468  132.1178 H   0  0  0  0  0  0  0  0  0  0  0  0
  136.7244  160.1575  130.5698 H   0  0  0  0  0  0  0  0  0  0  0  0
  137.0828  158.3973  130.5698 H   0  0  0  0  0  0  0  0  0  0  0  0
  140.5749  158.2780  136.3828 H   0  0  0  0  0  0  0  0  0  0  0  0
  139.1237  159.1967  135.8567 H   0  0  0  0  0  0  0  0  0  0  0  0
  139.0984  157.4005  135.8567 H   0  0  0  0  0  0  0  0  0  0  0  0
  140.8693  160.9028  134.0571 H   0  0  0  0  0  0  0  0  0  0  0  0
  143.1661  161.8516  133.6870 H   0  0  0  0  0  0  0  0  0  0  0  0
  145.9093  161.1122  133.3643 H   0  0  0  0  0  0  0  0  0  0  0  0
  147.7670  157.3380  134.9170 H   0  0  0  0  0  0  0  0  0  0  0  0
  149.2700  157.8260  134.0710 H   0  0  0  0  0  0  0  0  0  0  0  0
  144.1561  156.0624  131.9392 H   0  0  0  0  0  0  0  0  0  0  0  0
  145.7191  155.1343  132.0787 H   0  0  0  0  0  0  0  0  0  0  0  0
  144.0529  153.5183  132.4519 H   0  0  0  0  0  0  0  0  0  0  0  0
  144.6327  153.9857  134.1023 H   0  0  0  0  0  0  0  0  0  0  0  0
  140.7116  154.1695  133.1823 H   0  0  0  0  0  0  0  0  0  0  0  0
  141.9278  153.6744  131.9326 H   0  0  0  0  0  0  0  0  0  0  0  0
  140.7832  151.9791  133.8042 H   0  0  0  0  0  0  0  0  0  0  0  0
  142.3644  151.7138  132.9344 H   0  0  0  0  0  0  0  0  0  0  0  0
  140.9952  153.4059  135.7622 H   0  0  0  0  0  0  0  0  0  0  0  0
  142.5512  153.3042  136.6728 H   0  0  0  0  0  0  0  0  0  0  0  0
  141.7914  155.5202  135.2972 H   0  0  0  0  0  0  0  0  0  0  0  0
  143.5249  155.0047  135.5006 H   0  0  0  0  0  0  0  0  0  0  0  0
  142.5211  156.8691  133.9563 H   0  0  0  0  0  0  0  0  0  0  0  0
  1  2  1  0
  2  3  1  0
  3  4  1  0
  4  5  1  0
  4  6  2  0
  4  7  2  0
  2  8  1  0
  8  9  1  0
  8 10  1  0
 10 11  2  0
 11 12  1  0
 12 13  2  0
 13 14  1  0
 14 15  2  0
 15 16  1  0
 16 17  1  0
 16 18  2  0
 15 19  1  0
 19 20  1  0
 20 21  2  0
 20 22  1  0
 22 23  1  0
 23 24  1  0
 24 25  1  0
 25 26  1  0
 26 27  1  0
 27 28  1  0
 28 29  1  0
 19 30  1  0
 30 31  2  0
 31 10  1  0
 30 13  1  0
 29 24  1  0
  1 32  1  0
  1 33  1  0
  1 34  1  0
  2 35  1  1
  3 36  1  0
  3 37  1  0
  5 38  1  0
  5 39  1  0
  5 40  1  0
  9 41  1  0
  9 42  1  0
  9 43  1  0
 11 44  1  0
 12 45  1  0
 14 46  1  0
 17 47  1  0
 17 48  1  0
 22 49  1  0
 22 50  1  0
 23 51  1  0
 23 52  1  0
 25 53  1  0
 25 54  1  0
 26 55  1  0
 26 56  1  0
 28 57  1  0
 28 58  1  0
 29 59  1  0
 29 60  1  0
 31 61  1  0
M  END
>  <UniqueID>  (36) 
36

>  <SMILES>  (36) 
C[C@H](CS(C)(=O)=O)N(C)c1ccc2cc(C(N)=O)n(C(=O)CCN3CCOCC3)c2c1

>  <Energy>  (36) 
104.93489786881504

>  <Genealogy>  (36) 
C[C@H](CS(C)(=O)=O)N(C)c1ccc2cc(C(N)=O)n(C(=O)CCN3CCOCC3)c2c1 (chirality)
C[C@H](CS(C)(=O)=O)N(C)c1ccc2cc(C(N)=O)n(C(=O)CCN3CCOCC3)c2c1 (3D coordinates assigned)
C[C@H](CS(C)(=O)=O)N(C)c1ccc2cc(C(N)=O)n(C(=O)CCN3CCOCC3)c2c1 (nonaromatic ring conformer: 104.93489786881504 kcal/mol)

>  <smiles>  (36) 
CC(CS(C)(=O)=O)N(C)c1ccc2cc(C(N)=O)n(C(=O)CCN3CCOCC3)c2c1

>  <score_type>  (36) 
oracle

>  <origin>  (36) 
adg

>  <m_score__min__energy>  (36) 
-9.1300000000000008

>  <m_primary>  (36) 
energy

$$$$
36:0
     RDKit          3D

 31 32  0  0  0  0  0  0  0  0999 V2000
  148.2510  157.3530  134.4440 N   0  0  0  0  0  0  0  0  0  0  0  0
  147.7580  158.4950  133.7430 C   0  0  0  0  0  0  0  0  0  0  0  0
  148.5730  159.2680  133.1730 O   0  0  0  0  0  0  0  0  0  0  0  0
  146.3170  158.8200  133.7260 C   0  0  0  0  0  0  0  0  0  0  0  0
  145.8260  160.1220  133.6940 C   0  0  0  0  0  0  0  0  0  0  0  0
  144.4560  159.9930  133.7550 C   0  0  0  0  0  0  0  0  0  0  0  0
  143.4670  160.9710  133.7300 C   0  0  0  0  0  0  0  0  0  0  0  0
  142.1260  160.5510  133.7580 C   0  0  0  0  0  0  0  0  0  0  0  0
  141.7980  159.1730  133.8190 C   0  0  0  0  0  0  0  0  0  0  0  0
  140.3570  158.7340  133.7840 C   0  0  0  0  0  0  0  0  0  0  0  0
  139.8510  158.7260  135.0710 F   0  0  0  0  0  0  0  0  0  0  0  0
  140.2440  157.4630  133.2470 F   0  0  0  0  0  0  0  0  0  0  0  0
  139.6020  159.5980  133.0090 F   0  0  0  0  0  0  0  0  0  0  0  0
  142.8340  158.2090  133.8150 C   0  0  0  0  0  0  0  0  0  0  0  0
  144.1600  158.6560  133.8090 C   0  0  0  0  0  0  0  0  0  0  0  0
  145.2950  157.9210  133.7880 N   0  0  0  0  0  0  0  0  0  0  0  0
  145.3870  156.4880  133.7270 C   0  0  0  0  0  0  0  0  0  0  0  0
  145.1480  155.8890  132.6430 O   0  0  0  0  0  0  0  0  0  0  0  0
  145.7410  155.7630  134.8700 O   0  0  0  0  0  0  0  0  0  0  0  0
  146.2310  154.4250  134.8290 C   0  0  0  0  0  0  0  0  0  0  0  0
  147.1740  154.1840  135.9650 C   0  0  0  0  0  0  0  0  0  0  0  0
  148.0720  155.0240  136.2340 O   0  0  0  0  0  0  0  0  0  0  0  0
  147.0410  153.0430  136.7460 O   0  0  0  0  0  0  0  0  0  0  0  0
  149.2670  157.1160  134.4100 H   0  0  0  0  0  0  0  0  0  0  0  0
  147.6290  156.7920  135.0670 H   0  0  0  0  0  0  0  0  0  0  0  0
  146.4072  161.0539  133.6331 H   0  0  0  0  0  0  0  0  0  0  0  0
  143.7263  162.0392  133.6896 H   0  0  0  0  0  0  0  0  0  0  0  0
  141.3212  161.3005  133.7323 H   0  0  0  0  0  0  0  0  0  0  0  0
  142.6024  157.1337  133.8166 H   0  0  0  0  0  0  0  0  0  0  0  0
  145.3851  153.7260  134.9047 H   0  0  0  0  0  0  0  0  0  0  0  0
  146.7651  154.2678  133.8803 H   0  0  0  0  0  0  0  0  0  0  0  0
  1  2  1  0
  2  3  2  0
  2  4  1  0
  4  5  2  0
  5  6  1  0
  6  7  2  0
  7  8  1  0
  8  9  2  0
  9 10  1  0
 10 11  1  0
 10 12  1  0
 10 13  1  0
  9 14  1  0
 14 15  2  0
 15 16  1  0
 16 17  1  0
 17 18  2  0
 17 19  1  0
 19 20  1  0
 20 21  1  0
 21 22  2  0
 21 23  1  0
 16  4  1  0
 15  6  1  0
  1 24  1  0
  1 25  1  0
  5 26  1  0
  7 27  1  0
  8 28  1  0
 14 29  1  0
 20 30  1  0
 20 31  1  0
M  CHG  1  23  -1
M  END
>  <UniqueID>  (37) 
37

>  <SMILES>  (37) 
NC(=O)c1cc2ccc(C(F)(F)F)cc2n1C(=O)OCC(=O)[O-]

>  <Energy>  (37) 
69.09420387185021

>  <Genealogy>  (37) 
NC(=O)c1cc2ccc(C(F)(F)F)cc2n1C(=O)OCC(=O)[O-] (protonated)
NC(=O)c1cc2ccc(C(F)(F)F)cc2n1C(=O)OCC(=O)[O-] (3D coordinates assigned)
NC(=O)c1cc2ccc(C(F)(F)F)cc2n1C(=O)OCC(=O)[O-] (optimized conformer: 69.09420387185021 kcal/mol)

>  <smiles>  (37) 
NC(=O)c1cc2ccc(C(F)(F)F)cc2n1C(=O)OCC(=O)O

>  <score_type>  (37) 
oracle

>  <origin>  (37) 
adg

>  <m_score__min__energy>  (37) 
-5.7199999999999998

>  <m_primary>  (37) 
energy

$$$$
37:0
     RDKit          3D

 42 46  0  0  0  0  0  0  0  0999 V2000
  140.1080  158.9370  132.9300 N   0  0  0  0  0  0  0  0  0  0  0  0
  141.0210  158.7530  133.6180 C   0  0  0  0  0  0  0  0  0  0  0  0
  142.1780  158.5200  134.4910 C   0  0  0  0  0  0  0  0  0  0  0  0
  143.5130  159.0720  134.0760 C   0  0  0  0  0  0  0  0  0  0  0  0
  143.7470  160.4700  134.1130 C   0  0  0  0  0  0  0  0  0  0  0  0
  145.0020  160.9950  133.7570 C   0  0  0  0  0  0  0  0  0  0  0  0
  145.9980  160.1000  133.3740 C   0  0  0  0  0  0  0  0  0  0  0  0
  147.3010  160.3290  132.9910 C   0  0  0  0  0  0  0  0  0  0  0  0
  147.8360  159.0680  132.7260 C   0  0  0  0  0  0  0  0  0  0  0  0
  149.2130  158.8440  132.2350 C   0  0  0  0  0  0  0  0  0  0  0  0
  149.7210  157.5260  132.0460 N   0  0  0  0  0  0  0  0  0  0  0  0
  149.9450  159.8310  131.9600 O   0  0  0  0  0  0  0  0  0  0  0  0
  146.8990  158.1020  132.9410 N   0  0  0  0  0  0  0  0  0  0  0  0
  147.0490  156.6850  132.7920 C   0  0  0  0  0  0  0  0  0  0  0  0
  146.9920  156.1660  131.6470 O   0  0  0  0  0  0  0  0  0  0  0  0
  147.2400  155.8120  133.9920 C   0  0  1  0  0  0  0  0  0  0  0  0
  147.9270  154.4380  133.9920 C   0  0  0  0  0  0  0  0  0  0  0  0
  147.4750  154.8300  135.4060 C   0  0  1  0  0  0  0  0  0  0  0  0
  147.6690  153.9870  136.6230 C   0  0  0  0  0  0  0  0  0  0  0  0
  146.9310  152.9870  136.8220 O   0  0  0  0  0  0  0  0  0  0  0  0
  148.6280  154.3360  137.5650 O   0  0  0  0  0  0  0  0  0  0  0  0
  148.0450  156.2430  135.2270 C   0  0  0  0  0  0  0  0  0  0  0  0
  146.1060  155.2810  134.8800 C   0  0  0  0  0  0  0  0  0  0  0  0
  145.7840  158.7470  133.3380 C   0  0  0  0  0  0  0  0  0  0  0  0
  144.5550  158.1960  133.7070 C   0  0  0  0  0  0  0  0  0  0  0  0
  141.8830  158.4870  135.9850 C   0  0  0  0  0  0  0  0  0  0  0  0
  142.1860  157.1940  135.2400 C   0  0  0  0  0  0  0  0  0  0  0  0
  142.9397  161.1499  134.4229 H   0  0  0  0  0  0  0  0  0  0  0  0
  145.1911  162.0784  133.7803 H   0  0  0  0  0  0  0  0  0  0  0  0
  147.8115  161.3001  132.9110 H   0  0  0  0  0  0  0  0  0  0  0  0
  149.0980  156.7490  131.7360 H   0  0  0  0  0  0  0  0  0  0  0  0
  147.4196  153.5988  133.4938 H   0  0  0  0  0  0  0  0  0  0  0  0
  148.9090  154.1222  133.6099 H   0  0  0  0  0  0  0  0  0  0  0  0
  147.6457  157.0522  135.8560 H   0  0  0  0  0  0  0  0  0  0  0  0
  149.0728  156.6235  135.3214 H   0  0  0  0  0  0  0  0  0  0  0  0
  145.4282  154.5206  134.4648 H   0  0  0  0  0  0  0  0  0  0  0  0
  145.2773  155.8031  135.3807 H   0  0  0  0  0  0  0  0  0  0  0  0
  144.4034  157.1065  133.7098 H   0  0  0  0  0  0  0  0  0  0  0  0
  142.6138  158.8946  136.6991 H   0  0  0  0  0  0  0  0  0  0  0  0
  141.0608  158.8424  136.6235 H   0  0  0  0  0  0  0  0  0  0  0  0
  143.1357  156.6675  135.4160 H   0  0  0  0  0  0  0  0  0  0  0  0
  141.6733  156.2285  135.1176 H   0  0  0  0  0  0  0  0  0  0  0  0
  1  2  3  0
  2  3  1  0
  3  4  1  0
  4  5  2  0
  5  6  1  0
  6  7  2  0
  7  8  1  0
  8  9  2  0
  9 10  1  0
 10 11  1  0
 10 12  2  0
  9 13  1  0
 13 14  1  0
 14 15  2  0
 16 14  1  6
 16 17  1  0
 17 18  1  0
 18 19  1  1
 19 20  2  0
 19 21  1  0
 18 22  1  0
 18 23  1  0
 13 24  1  0
 24 25  2  0
  3 26  1  0
 26 27  1  0
 27  3  1  0
 25  4  1  0
 24  7  1  0
 22 16  1  0
 23 16  1  0
  5 28  1  0
  6 29  1  0
  8 30  1  0
 11 31  1  0
 17 32  1  0
 17 33  1  0
 22 34  1  0
 22 35  1  0
 23 36  1  0
 23 37  1  0
 25 38  1  0
 26 39  1  0
 26 40  1  0
 27 41  1  0
 27 42  1  0
M  CHG  2  11  -1  21  -1
M  END
>  <UniqueID>  (38) 
38

>  <SMILES>  (38) 
N#CC1(c2ccc3cc(C([NH-])=O)n(C(=O)C45CC(C(=O)[O-])(C4)C5)c3c2)CC1

>  <Energy>  (38) 
641.6640426704174

>  <Genealogy>  (38) 
N#CC1(c2ccc3cc(C([NH-])=O)n(C(=O)C45CC(C(=O)[O-])(C4)C5)c3c2)CC1 (protonated)
N#CC1(c2ccc3cc(C([NH-])=O)n(C(=O)C45CC(C(=O)[O-])(C4)C5)c3c2)CC1 (3D coordinates assigned)
N#CC1(c2ccc3cc(C([NH-])=O)n(C(=O)C45CC(C(=O)[O-])(C4)C5)c3c2)CC1 (nonaromatic ring conformer: 641.6640426704174 kcal/mol)

>  <smiles>  (38) 
N#CC1(c2ccc3cc(C(N)=O)n(C(=O)C45CC(C(=O)O)(C4)C5)c3c2)CC1

>  <score_type>  (38) 
oracle

>  <origin>  (38) 
adg

>  <m_score__min__energy>  (38) 
-9.0899999999999999

>  <m_primary>  (38) 
energy

$$$$
38:0
     RDKit          3D

 41 44  0  0  0  0  0  0  0  0999 V2000
  140.2390  158.5980  136.5340 C   0  0  0  0  0  0  0  0  0  0  0  0
  139.9240  157.4390  135.5830 C   0  0  2  0  0  0  0  0  0  0  0  0
  141.0730  156.4610  135.4370 C   0  0  0  0  0  0  0  0  0  0  0  0
  142.3940  156.3100  136.4810 S   0  0  0  0  0  0  0  0  0  0  0  0
  143.1410  155.1080  135.5780 C   0  0  0  0  0  0  0  0  0  0  0  0
  142.4020  154.8090  134.4880 N   0  0  0  0  0  0  0  0  0  0  0  0
  141.2570  155.5420  134.3960 C   0  0  0  0  0  0  0  0  0  0  0  0
  140.3160  155.3780  133.2760 C   0  0  0  0  0  0  0  0  0  0  0  0
  140.2520  154.2870  132.6500 O   0  0  0  0  0  0  0  0  0  0  0  0
  139.4900  157.9620  134.2790 N   0  0  0  0  0  0  0  0  0  0  0  0
  138.2490  157.8760  133.8330 N   0  0  0  0  0  0  0  0  0  0  0  0
  138.1640  158.5010  132.6690 N   0  0  0  0  0  0  0  0  0  0  0  0
  139.3420  159.0160  132.3420 N   0  0  0  0  0  0  0  0  0  0  0  0
  140.1600  158.6850  133.3570 C   0  0  0  0  0  0  0  0  0  0  0  0
  141.5840  159.0340  133.3970 C   0  0  0  0  0  0  0  0  0  0  0  0
  141.9810  160.3730  133.6180 C   0  0  0  0  0  0  0  0  0  0  0  0
  143.3430  160.7020  133.7280 C   0  0  0  0  0  0  0  0  0  0  0  0
  144.2740  159.6740  133.6040 C   0  0  0  0  0  0  0  0  0  0  0  0
  145.6430  159.7000  133.7380 C   0  0  0  0  0  0  0  0  0  0  0  0
  146.0560  158.3810  133.5620 C   0  0  0  0  0  0  0  0  0  0  0  0
  147.4740  157.9670  133.5560 C   0  0  0  0  0  0  0  0  0  0  0  0
  148.4010  158.5140  134.4900 N   0  0  0  0  0  0  0  0  0  0  0  0
  147.8630  157.0830  132.7470 O   0  0  0  0  0  0  0  0  0  0  0  0
  144.9850  157.5690  133.3330 N   0  0  0  0  0  0  0  0  0  0  0  0
  144.9750  156.1360  133.2340 C   0  0  0  0  0  0  0  0  0  0  0  0
  145.9260  155.4590  133.7050 O   0  0  0  0  0  0  0  0  0  0  0  0
  143.9330  155.4850  132.5850 O   0  0  0  0  0  0  0  0  0  0  0  0
  143.9020  158.3780  133.3550 C   0  0  0  0  0  0  0  0  0  0  0  0
  142.5530  158.0240  133.2420 C   0  0  0  0  0  0  0  0  0  0  0  0
  140.1455  158.2541  137.5747 H   0  0  0  0  0  0  0  0  0  0  0  0
  141.2655  158.9505  136.3551 H   0  0  0  0  0  0  0  0  0  0  0  0
  139.5321  159.4216  136.3551 H   0  0  0  0  0  0  0  0  0  0  0  0
  139.1000  156.8632  136.0296 H   0  0  0  0  0  0  0  0  0  0  0  0
  144.0977  154.6311  135.8376 H   0  0  0  0  0  0  0  0  0  0  0  0
  142.6950  154.0900  133.7900 H   0  0  0  0  0  0  0  0  0  0  0  0
  139.6640  156.2143  132.9837 H   0  0  0  0  0  0  0  0  0  0  0  0
  141.2193  161.1619  133.7043 H   0  0  0  0  0  0  0  0  0  0  0  0
  143.6635  161.7390  133.9064 H   0  0  0  0  0  0  0  0  0  0  0  0
  146.2768  160.5759  133.9410 H   0  0  0  0  0  0  0  0  0  0  0  0
  149.2310  157.9670  134.8070 H   0  0  0  0  0  0  0  0  0  0  0  0
  142.2573  156.9844  133.0375 H   0  0  0  0  0  0  0  0  0  0  0  0
  1  2  1  0
  2  3  1  0
  3  4  1  0
  4  5  1  0
  5  6  2  0
  6  7  1  0
  7  8  1  0
  8  9  2  0
  2 10  1  0
 10 11  1  0
 11 12  2  0
 12 13  1  0
 13 14  2  0
 14 15  1  0
 15 16  2  0
 16 17  1  0
 17 18  2  0
 18 19  1  0
 19 20  2  0
 20 21  1  0
 21 22  1  0
 21 23  2  0
 20 24  1  0
 24 25  1  0
 25 26  2  0
 25 27  1  0
 24 28  1  0
 28 29  2  0
  7  3  2  0
 14 10  1  0
 29 15  1  0
 28 18  1  0
  1 30  1  0
  1 31  1  0
  1 32  1  0
  2 33  1  1
  5 34  1  0
  6 35  1  0
  8 36  1  0
 16 37  1  0
 17 38  1  0
 19 39  1  0
 22 40  1  0
 29 41  1  0
M  CHG  3   6   1  22  -1  27  -1
M  END
>  <UniqueID>  (39) 
39

>  <SMILES>  (39) 
C[C@H](c1sc[nH+]c1C=O)n1nnnc1-c1ccc2cc(C([NH-])=O)n(C(=O)[O-])c2c1

>  <Energy>  (39) 
156.69627714479637

>  <Genealogy>  (39) 
CC(c1sc[nH+]c1C=O)n1nnnc1-c1ccc2cc(C([NH-])=O)n(C(=O)[O-])c2c1 (protonated)
C[C@H](c1sc[nH+]c1C=O)n1nnnc1-c1ccc2cc(C([NH-])=O)n(C(=O)[O-])c2c1 (chirality)
C[C@H](c1sc[nH+]c1C=O)n1nnnc1-c1ccc2cc(C([NH-])=O)n(C(=O)[O-])c2c1 (3D coordinates assigned)
C[C@H](c1sc[nH+]c1C=O)n1nnnc1-c1ccc2cc(C([NH-])=O)n(C(=O)[O-])c2c1 (optimized conformer: 156.69627714479637 kcal/mol)

>  <smiles>  (39) 
CC(c1scnc1C=O)n1nnnc1-c1ccc2cc(C(N)=O)n(C(=O)O)c2c1

>  <score_type>  (39) 
oracle

>  <origin>  (39) 
adg

>  <m_score__min__energy>  (39) 
-7.9000000000000004

>  <m_primary>  (39) 
energy

$$$$
39:0
     RDKit          3D

 37 39  0  0  0  0  0  0  0  0999 V2000
  138.3440  157.2080  133.3650 N   0  0  0  0  0  0  0  0  0  0  0  0
  139.1590  157.8870  134.3220 C   0  0  0  0  0  0  0  0  0  0  0  0
  138.6550  158.2380  135.4230 O   0  0  0  0  0  0  0  0  0  0  0  0
  140.5930  158.1280  134.0720 C   0  0  0  0  0  0  0  0  0  0  0  0
  141.1630  159.3970  134.0500 C   0  0  0  0  0  0  0  0  0  0  0  0
  142.5080  159.1880  133.8500 C   0  0  0  0  0  0  0  0  0  0  0  0
  143.5440  160.1080  133.7230 C   0  0  0  0  0  0  0  0  0  0  0  0
  144.8350  159.6150  133.4730 C   0  0  0  0  0  0  0  0  0  0  0  0
  145.0640  158.2210  133.3510 C   0  0  0  0  0  0  0  0  0  0  0  0
  146.4390  157.7070  133.0100 C   0  0  0  0  0  0  0  0  0  0  0  0
  147.5420  158.6160  133.5670 C   0  0  0  0  0  0  0  0  0  0  0  0
  148.2800  159.3300  132.4680 C   0  0  0  0  0  0  0  0  0  0  0  0
  149.3440  158.7090  131.7950 C   0  0  0  0  0  0  0  0  0  0  0  0
  149.9750  159.3800  130.7460 C   0  0  0  0  0  0  0  0  0  0  0  0
  149.5420  160.6550  130.3760 C   0  0  0  0  0  0  0  0  0  0  0  0
  148.4750  161.2400  131.0630 C   0  0  0  0  0  0  0  0  0  0  0  0
  147.8710  160.5700  132.0800 N   0  0  0  0  0  0  0  0  0  0  0  0
  143.9860  157.3180  133.4780 C   0  0  0  0  0  0  0  0  0  0  0  0
  142.7130  157.8350  133.7490 C   0  0  0  0  0  0  0  0  0  0  0  0
  141.5430  157.1680  133.8790 N   0  0  0  0  0  0  0  0  0  0  0  0
  141.3380  155.7540  133.7200 C   0  0  0  0  0  0  0  0  0  0  0  0
  142.1380  154.9340  134.2450 O   0  0  0  0  0  0  0  0  0  0  0  0
  140.2580  155.2750  132.9910 O   0  0  0  0  0  0  0  0  0  0  0  0
  137.3240  157.0800  133.5420 H   0  0  0  0  0  0  0  0  0  0  0  0
  138.7660  156.7560  132.5230 H   0  0  0  0  0  0  0  0  0  0  0  0
  140.6480  160.3619  134.1675 H   0  0  0  0  0  0  0  0  0  0  0  0
  143.3576  161.1881  133.8156 H   0  0  0  0  0  0  0  0  0  0  0  0
  145.6761  160.3165  133.3709 H   0  0  0  0  0  0  0  0  0  0  0  0
  146.5585  156.7001  133.4364 H   0  0  0  0  0  0  0  0  0  0  0  0
  146.5340  157.6865  131.9143 H   0  0  0  0  0  0  0  0  0  0  0  0
  147.0862  159.3624  134.2341 H   0  0  0  0  0  0  0  0  0  0  0  0
  148.2618  157.9881  134.1127 H   0  0  0  0  0  0  0  0  0  0  0  0
  149.6773  157.7035  132.0913 H   0  0  0  0  0  0  0  0  0  0  0  0
  150.8115  158.9054  130.2121 H   0  0  0  0  0  0  0  0  0  0  0  0
  150.0353  161.1928  129.5530 H   0  0  0  0  0  0  0  0  0  0  0  0
  148.1236  162.2434  130.7807 H   0  0  0  0  0  0  0  0  0  0  0  0
  144.1422  156.2348  133.3668 H   0  0  0  0  0  0  0  0  0  0  0  0
  1  2  1  0
  2  3  2  0
  2  4  1  0
  4  5  2  0
  5  6  1  0
  6  7  2  0
  7  8  1  0
  8  9  2  0
  9 10  1  0
 10 11  1  0
 11 12  1  0
 12 13  2  0
 13 14  1  0
 14 15  2  0
 15 16  1  0
 16 17  2  0
  9 18  1  0
 18 19  2  0
 19 20  1  0
 20 21  1  0
 21 22  2  0
 21 23  1  0
 20  4  1  0
 19  6  1  0
 17 12  1  0
  1 24  1  0
  1 25  1  0
  5 26  1  0
  7 27  1  0
  8 28  1  0
 10 29  1  0
 10 30  1  0
 11 31  1  0
 11 32  1  0
 13 33  1  0
 14 34  1  0
 15 35  1  0
 16 36  1  0
 18 37  1  0
M  CHG  1  23  -1
M  END
>  <UniqueID>  (40) 
40

>  <SMILES>  (40) 
NC(=O)c1cc2ccc(CCc3ccccn3)cc2n1C(=O)[O-]

>  <Energy>  (40) 
76.1998822985809

>  <Genealogy>  (40) 
NC(=O)c1cc2ccc(CCc3ccccn3)cc2n1C(=O)[O-] (protonated)
NC(=O)c1cc2ccc(CCc3ccccn3)cc2n1C(=O)[O-] (3D coordinates assigned)
NC(=O)c1cc2ccc(CCc3ccccn3)cc2n1C(=O)[O-] (optimized conformer: 76.1998822985809 kcal/mol)

>  <smiles>  (40) 
NC(=O)c1cc2ccc(CCc3ccccn3)cc2n1C(=O)O

>  <score_type>  (40) 
oracle

>  <origin>  (40) 
adg

>  <m_score__min__energy>  (40) 
-7.9400000000000004

>  <m_primary>  (40) 
energy

$$$$
40:0
     RDKit          3D

 42 44  0  0  0  0  0  0  0  0999 V2000
  138.3700  158.3060  133.0080 C   0  0  0  0  0  0  0  0  0  0  0  0
  139.1620  157.8350  134.1820 C   0  0  0  0  0  0  0  0  0  0  0  0
  138.8850  158.1200  135.4330 O   0  0  0  0  0  0  0  0  0  0  0  0
  139.8110  157.5270  136.1510 C   0  0  0  0  0  0  0  0  0  0  0  0
  139.8620  157.5830  137.4070 O   0  0  0  0  0  0  0  0  0  0  0  0
  140.6780  156.8700  135.4150 O   0  0  0  0  0  0  0  0  0  0  0  0
  140.2990  157.0440  134.1710 C   0  0  0  0  0  0  0  0  0  0  0  0
  141.0090  156.4730  132.9820 C   0  0  0  0  0  0  0  0  0  0  0  0
  142.1570  157.2570  132.6710 O   0  0  0  0  0  0  0  0  0  0  0  0
  143.2390  157.4120  133.5450 C   0  0  0  0  0  0  0  0  0  0  0  0
  143.6780  156.4270  134.1990 O   0  0  0  0  0  0  0  0  0  0  0  0
  143.8710  158.6940  133.6750 N   0  0  0  0  0  0  0  0  0  0  0  0
  143.2780  159.8940  133.9260 C   0  0  0  0  0  0  0  0  0  0  0  0
  141.8600  160.1020  134.2900 C   0  0  0  0  0  0  0  0  0  0  0  0
  141.4120  159.9180  135.6290 N   0  0  0  0  0  0  0  0  0  0  0  0
  141.0420  160.4900  133.4120 O   0  0  0  0  0  0  0  0  0  0  0  0
  144.2160  160.9220  133.8720 C   0  0  0  0  0  0  0  0  0  0  0  0
  145.4130  160.3090  133.5820 C   0  0  0  0  0  0  0  0  0  0  0  0
  146.6750  160.8560  133.3950 C   0  0  0  0  0  0  0  0  0  0  0  0
  147.7300  159.9890  133.0670 C   0  0  0  0  0  0  0  0  0  0  0  0
  147.5130  158.5880  132.9200 C   0  0  0  0  0  0  0  0  0  0  0  0
  148.6080  157.7010  132.5670 N   0  0  0  0  0  0  0  0  0  0  0  0
  148.5530  156.2750  132.9070 C   0  0  0  0  0  0  0  0  0  0  0  0
  149.7890  158.2190  131.8640 C   0  0  0  0  0  0  0  0  0  0  0  0
  146.2040  158.0780  133.1220 C   0  0  0  0  0  0  0  0  0  0  0  0
  145.1790  158.9650  133.4660 C   0  0  0  0  0  0  0  0  0  0  0  0
  137.4742  158.8387  133.3599 H   0  0  0  0  0  0  0  0  0  0  0  0
  138.9851  158.9852  132.3994 H   0  0  0  0  0  0  0  0  0  0  0  0
  138.0669  157.4413  132.3994 H   0  0  0  0  0  0  0  0  0  0  0  0
  141.3225  155.4428  133.2062 H   0  0  0  0  0  0  0  0  0  0  0  0
  140.3263  156.4786  132.1195 H   0  0  0  0  0  0  0  0  0  0  0  0
  140.8610  159.0740  135.9010 H   0  0  0  0  0  0  0  0  0  0  0  0
  144.0376  161.9962  134.0281 H   0  0  0  0  0  0  0  0  0  0  0  0
  146.8439  161.9378  133.5007 H   0  0  0  0  0  0  0  0  0  0  0  0
  148.7407  160.3980  132.9211 H   0  0  0  0  0  0  0  0  0  0  0  0
  148.5485  156.1588  134.0008 H   0  0  0  0  0  0  0  0  0  0  0  0
  147.6371  155.8331  132.4876 H   0  0  0  0  0  0  0  0  0  0  0  0
  149.4321  155.7639  132.4876 H   0  0  0  0  0  0  0  0  0  0  0  0
  150.5384  158.5477  132.5991 H   0  0  0  0  0  0  0  0  0  0  0  0
  150.2173  157.4261  131.2332 H   0  0  0  0  0  0  0  0  0  0  0  0
  149.4958  159.0711  131.2332 H   0  0  0  0  0  0  0  0  0  0  0  0
  145.9991  157.0031  133.0098 H   0  0  0  0  0  0  0  0  0  0  0  0
  1  2  1  0
  2  3  1  0
  3  4  1  0
  4  5  2  0
  4  6  1  0
  6  7  1  0
  7  8  1  0
  8  9  1  0
  9 10  1  0
 10 11  2  0
 10 12  1  0
 12 13  1  0
 13 14  1  0
 14 15  1  0
 14 16  2  0
 13 17  2  0
 17 18  1  0
 18 19  2  0
 19 20  1  0
 20 21  2  0
 21 22  1  0
 22 23  1  0
 22 24  1  0
 21 25  1  0
 25 26  2  0
  7  2  2  0
 26 12  1  0
 26 18  1  0
  1 27  1  0
  1 28  1  0
  1 29  1  0
  8 30  1  0
  8 31  1  0
 15 32  1  0
 17 33  1  0
 19 34  1  0
 20 35  1  0
 23 36  1  0
 23 37  1  0
 23 38  1  0
 24 39  1  0
 24 40  1  0
 24 41  1  0
 25 42  1  0
M  CHG  1  15  -1
M  END
>  <UniqueID>  (41) 
41

>  <SMILES>  (41) 
Cc1oc(=O)oc1COC(=O)n1c(C([NH-])=O)cc2ccc(N(C)C)cc21

>  <Energy>  (41) 
114.09063322458842

>  <Genealogy>  (41) 
Cc1oc(=O)oc1COC(=O)n1c(C([NH-])=O)cc2ccc(N(C)C)cc21 (protonated)
Cc1oc(=O)oc1COC(=O)n1c(C([NH-])=O)cc2ccc(N(C)C)cc21 (3D coordinates assigned)
Cc1oc(=O)oc1COC(=O)n1c(C([NH-])=O)cc2ccc(N(C)C)cc21 (optimized conformer: 114.09063322458842 kcal/mol)

>  <smiles>  (41) 
Cc1oc(=O)oc1COC(=O)n1c(C(N)=O)cc2ccc(N(C)C)cc21

>  <score_type>  (41) 
oracle

>  <origin>  (41) 
adg

>  <m_score__min__energy>  (41) 
-6.4500000000000002

>  <m_primary>  (41) 
energy

$$$$
41:0
     RDKit          3D

 49 51  0  0  0  0  0  0  0  0999 V2000
  139.8360  159.0690  131.4700 C   0  0  0  0  0  0  0  0  0  0  0  0
  140.8190  158.8030  132.5300 N   0  0  0  0  0  0  0  0  0  0  0  0
  140.3790  159.3080  133.8430 C   0  0  0  0  0  0  0  0  0  0  0  0
  140.7660  158.3630  135.0010 C   0  0  0  0  0  0  0  0  0  0  0  0
  141.5830  157.1390  134.5330 C   0  0  0  0  0  0  0  0  0  0  0  0
  143.1110  157.2960  134.6660 C   0  0  0  0  0  0  0  0  0  0  0  0
  143.7470  157.8050  133.4030 C   0  0  0  0  0  0  0  0  0  0  0  0
  143.1650  157.6500  132.2910 O   0  0  0  0  0  0  0  0  0  0  0  0
  145.0480  158.4040  133.4380 N   0  0  0  0  0  0  0  0  0  0  0  0
  145.3560  159.7280  133.5440 C   0  0  0  0  0  0  0  0  0  0  0  0
  144.3870  160.8400  133.6650 C   0  0  0  0  0  0  0  0  0  0  0  0
  143.0110  160.6430  133.3600 N   0  0  0  0  0  0  0  0  0  0  0  0
  144.7830  161.9850  134.0250 O   0  0  0  0  0  0  0  0  0  0  0  0
  146.7380  159.9080  133.4720 C   0  0  0  0  0  0  0  0  0  0  0  0
  147.2640  158.6410  133.3090 C   0  0  0  0  0  0  0  0  0  0  0  0
  148.5840  158.2260  133.1670 C   0  0  0  0  0  0  0  0  0  0  0  0
  148.8310  156.8490  133.0130 C   0  0  0  0  0  0  0  0  0  0  0  0
  147.7610  155.9140  133.0040 C   0  0  0  0  0  0  0  0  0  0  0  0
  148.0310  154.4610  132.8700 C   0  0  0  0  0  0  0  0  0  0  0  0
  147.2130  153.4100  133.2710 C   0  0  0  0  0  0  0  0  0  0  0  0
  147.8340  152.2490  132.9900 N   0  0  0  0  0  0  0  0  0  0  0  0
  149.0060  152.5170  132.4380 N   0  0  0  0  0  0  0  0  0  0  0  0
  149.9370  151.5030  131.9580 C   0  0  0  0  0  0  0  0  0  0  0  0
  149.1580  153.8520  132.3350 C   0  0  0  0  0  0  0  0  0  0  0  0
  146.4330  156.3830  133.1370 C   0  0  0  0  0  0  0  0  0  0  0  0
  146.2200  157.7550  133.2890 C   0  0  0  0  0  0  0  0  0  0  0  0
  138.8689  159.3307  131.9241 H   0  0  0  0  0  0  0  0  0  0  0  0
  140.1864  159.9046  130.8463 H   0  0  0  0  0  0  0  0  0  0  0  0
  139.7171  158.1707  130.8463 H   0  0  0  0  0  0  0  0  0  0  0  0
  141.7310  159.2520  132.2650 H   0  0  0  0  0  0  0  0  0  0  0  0
  140.8450  160.2890  134.0177 H   0  0  0  0  0  0  0  0  0  0  0  0
  139.2815  159.3790  133.8226 H   0  0  0  0  0  0  0  0  0  0  0  0
  141.3668  158.9281  135.7288 H   0  0  0  0  0  0  0  0  0  0  0  0
  139.8325  157.9859  135.4442 H   0  0  0  0  0  0  0  0  0  0  0  0
  141.2741  156.2708  135.1336 H   0  0  0  0  0  0  0  0  0  0  0  0
  141.3751  157.0184  133.4596 H   0  0  0  0  0  0  0  0  0  0  0  0
  143.3237  158.0054  135.4793 H   0  0  0  0  0  0  0  0  0  0  0  0
  143.5330  156.3023  134.8770 H   0  0  0  0  0  0  0  0  0  0  0  0
  142.7060  159.8610  132.7380 H   0  0  0  0  0  0  0  0  0  0  0  0
  147.2910  160.8570  133.5322 H   0  0  0  0  0  0  0  0  0  0  0  0
  149.4101  158.9523  133.1748 H   0  0  0  0  0  0  0  0  0  0  0  0
  149.8651  156.4922  132.8982 H   0  0  0  0  0  0  0  0  0  0  0  0
  146.2230  153.5107  133.7399 H   0  0  0  0  0  0  0  0  0  0  0  0
  147.4660  151.2910  133.1790 H   0  0  0  0  0  0  0  0  0  0  0  0
  150.4021  150.9964  132.8165 H   0  0  0  0  0  0  0  0  0  0  0  0
  149.3941  150.7663  131.3476 H   0  0  0  0  0  0  0  0  0  0  0  0
  150.7173  151.9812  131.3476 H   0  0  0  0  0  0  0  0  0  0  0  0
  150.0260  154.3702  131.9015 H   0  0  0  0  0  0  0  0  0  0  0  0
  145.5857  155.6817  133.1210 H   0  0  0  0  0  0  0  0  0  0  0  0
  1  2  1  0
  2  3  1  0
  3  4  1  0
  4  5  1  0
  5  6  1  0
  6  7  1  0
  7  8  2  0
  7  9  1  0
  9 10  1  0
 10 11  1  0
 11 12  1  0
 11 13  2  0
 10 14  2  0
 14 15  1  0
 15 16  2  0
 16 17  1  0
 17 18  2  0
 18 19  1  0
 19 20  1  0
 20 21  2  0
 21 22  1  0
 22 23  1  0
 22 24  1  0
 18 25  1  0
 25 26  2  0
 26  9  1  0
 26 15  1  0
 24 19  2  0
  1 27  1  0
  1 28  1  0
  1 29  1  0
  2 30  1  0
  3 31  1  0
  3 32  1  0
  4 33  1  0
  4 34  1  0
  5 35  1  0
  5 36  1  0
  6 37  1  0
  6 38  1  0
 12 39  1  0
 14 40  1  0
 16 41  1  0
 17 42  1  0
 20 43  1  0
 21 44  1  0
 23 45  1  0
 23 46  1  0
 23 47  1  0
 24 48  1  0
 25 49  1  0
M  CHG  2  12  -1  21   1
M  END
>  <UniqueID>  (42) 
42

>  <SMILES>  (42) 
CNCCCCC(=O)n1c(C([NH-])=O)cc2ccc(-c3c[nH+]n(C)c3)cc21

>  <Energy>  (42) 
116.90752755972836

>  <Genealogy>  (42) 
CNCCCCC(=O)n1c(C([NH-])=O)cc2ccc(-c3c[nH+]n(C)c3)cc21 (protonated)
CNCCCCC(=O)n1c(C([NH-])=O)cc2ccc(-c3c[nH+]n(C)c3)cc21 (3D coordinates assigned)
CNCCCCC(=O)n1c(C([NH-])=O)cc2ccc(-c3c[nH+]n(C)c3)cc21 (optimized conformer: 116.90752755972836 kcal/mol)

>  <smiles>  (42) 
CNCCCCC(=O)n1c(C(N)=O)cc2ccc(-c3cnn(C)c3)cc21

>  <score_type>  (42) 
oracle

>  <origin>  (42) 
adg

>  <m_score__min__energy>  (42) 
-7.9699999999999998

>  <m_primary>  (42) 
energy

$$$$
42:0
     RDKit          3D

 39 40  0  0  0  0  0  0  0  0999 V2000
  148.8060  149.9890  132.2950 C   0  0  0  0  0  0  0  0  0  0  0  0
  149.1770  151.1660  131.4870 N   0  0  0  0  0  0  0  0  0  0  0  0
  149.9660  150.7310  130.3240 C   0  0  0  0  0  0  0  0  0  0  0  0
  149.9470  152.1400  132.2900 C   0  0  0  0  0  0  0  0  0  0  0  0
  149.2930  153.5300  132.2310 C   0  0  0  0  0  0  0  0  0  0  0  0
  148.3000  153.7200  133.3430 C   0  0  0  0  0  0  0  0  0  0  0  0
  148.4770  153.1310  134.4430 O   0  0  0  0  0  0  0  0  0  0  0  0
  147.1060  154.4940  133.1370 N   0  0  0  0  0  0  0  0  0  0  0  0
  145.8520  154.0200  132.8940 C   0  0  0  0  0  0  0  0  0  0  0  0
  145.5050  152.5960  132.6730 C   0  0  0  0  0  0  0  0  0  0  0  0
  146.3590  151.7410  131.9110 N   0  0  0  0  0  0  0  0  0  0  0  0
  144.4530  152.1190  133.1760 O   0  0  0  0  0  0  0  0  0  0  0  0
  144.9410  155.0720  132.8100 C   0  0  0  0  0  0  0  0  0  0  0  0
  145.6820  156.2130  133.0190 C   0  0  0  0  0  0  0  0  0  0  0  0
  145.2840  157.5460  133.0470 C   0  0  0  0  0  0  0  0  0  0  0  0
  146.2610  158.5210  133.3060 C   0  0  0  0  0  0  0  0  0  0  0  0
  147.6070  158.1490  133.5590 C   0  0  0  0  0  0  0  0  0  0  0  0
  148.6550  159.2070  133.7980 C   0  0  0  0  0  0  0  0  0  0  0  0
  149.2240  159.0560  135.0510 F   0  0  0  0  0  0  0  0  0  0  0  0
  149.6430  159.0940  132.8380 F   0  0  0  0  0  0  0  0  0  0  0  0
  148.0980  160.4710  133.7260 F   0  0  0  0  0  0  0  0  0  0  0  0
  147.9760  156.7850  133.4990 C   0  0  0  0  0  0  0  0  0  0  0  0
  146.9850  155.8380  133.2180 C   0  0  0  0  0  0  0  0  0  0  0  0
  148.8846  150.2382  133.3635 H   0  0  0  0  0  0  0  0  0  0  0  0
  147.7718  149.6955  132.0620 H   0  0  0  0  0  0  0  0  0  0  0  0
  149.4850  149.1555  132.0620 H   0  0  0  0  0  0  0  0  0  0  0  0
  150.8806  150.2268  130.6693 H   0  0  0  0  0  0  0  0  0  0  0  0
  149.3700  150.0340  129.7166 H   0  0  0  0  0  0  0  0  0  0  0  0
  150.2373  151.6070  129.7166 H   0  0  0  0  0  0  0  0  0  0  0  0
  149.9797  151.8003  133.3357 H   0  0  0  0  0  0  0  0  0  0  0  0
  150.9652  152.2104  131.8798 H   0  0  0  0  0  0  0  0  0  0  0  0
  150.0764  154.2974  132.3166 H   0  0  0  0  0  0  0  0  0  0  0  0
  148.7594  153.6196  131.2733 H   0  0  0  0  0  0  0  0  0  0  0  0
  147.2040  152.1100  131.4230 H   0  0  0  0  0  0  0  0  0  0  0  0
  146.1190  150.7320  131.7960 H   0  0  0  0  0  0  0  0  0  0  0  0
  143.8600  155.0046  132.6176 H   0  0  0  0  0  0  0  0  0  0  0  0
  144.2353  157.8277  132.8715 H   0  0  0  0  0  0  0  0  0  0  0  0
  145.9800  159.5845  133.3128 H   0  0  0  0  0  0  0  0  0  0  0  0
  149.0178  156.4758  133.6693 H   0  0  0  0  0  0  0  0  0  0  0  0
  1  2  1  0
  2  3  1  0
  2  4  1  0
  4  5  1  0
  5  6  1  0
  6  7  2  0
  6  8  1  0
  8  9  1  0
  9 10  1  0
 10 11  1  0
 10 12  2  0
  9 13  2  0
 13 14  1  0
 14 15  2  0
 15 16  1  0
 16 17  2  0
 17 18  1  0
 18 19  1  0
 18 20  1  0
 18 21  1  0
 17 22  1  0
 22 23  2  0
 23  8  1  0
 23 14  1  0
  1 24  1  0
  1 25  1  0
  1 26  1  0
  3 27  1  0
  3 28  1  0
  3 29  1  0
  4 30  1  0
  4 31  1  0
  5 32  1  0
  5 33  1  0
 11 34  1  0
 11 35  1  0
 13 36  1  0
 15 37  1  0
 16 38  1  0
 22 39  1  0
M  END
>  <UniqueID>  (43) 
43

>  <SMILES>  (43) 
CN(C)CCC(=O)n1c(C(N)=O)cc2ccc(C(F)(F)F)cc21

>  <Energy>  (43) 
77.2057994108497

>  <Genealogy>  (43) 
CN(C)CCC(=O)n1c(C(N)=O)cc2ccc(C(F)(F)F)cc21 (3D coordinates assigned)
CN(C)CCC(=O)n1c(C(N)=O)cc2ccc(C(F)(F)F)cc21 (optimized conformer: 77.2057994108497 kcal/mol)

>  <smiles>  (43) 
CN(C)CCC(=O)n1c(C(N)=O)cc2ccc(C(F)(F)F)cc21

>  <score_type>  (43) 
oracle

>  <origin>  (43) 
adg

>  <m_score__min__energy>  (43) 
-7.2699999999999996

>  <m_primary>  (43) 
energy

$$$$
43:0
     RDKit          3D

 48 50  0  0  0  0  0  0  0  0999 V2000
  148.8560  161.6020  130.7340 C   0  0  0  0  0  0  0  0  0  0  0  0
  149.0980  160.1860  130.4100 N   0  0  0  0  0  0  0  0  0  0  0  0
  150.0050  160.0970  129.2520 C   0  0  0  0  0  0  0  0  0  0  0  0
  149.6600  159.4820  131.5850 C   0  0  0  0  0  0  0  0  0  0  0  0
  148.9030  158.1760  131.8920 C   0  0  0  0  0  0  0  0  0  0  0  0
  148.3870  158.0820  133.3380 C   0  0  0  0  0  0  0  0  0  0  0  0
  146.9650  158.5620  133.4650 C   0  0  0  0  0  0  0  0  0  0  0  0
  146.6110  159.8680  133.0430 C   0  0  0  0  0  0  0  0  0  0  0  0
  145.2780  160.3070  133.1170 C   0  0  0  0  0  0  0  0  0  0  0  0
  144.3240  159.4180  133.6070 C   0  0  0  0  0  0  0  0  0  0  0  0
  142.9610  159.5590  133.7350 C   0  0  0  0  0  0  0  0  0  0  0  0
  142.5060  158.3350  134.2260 C   0  0  0  0  0  0  0  0  0  0  0  0
  141.0910  158.0530  134.5450 C   0  0  0  0  0  0  0  0  0  0  0  0
  140.5550  156.7400  134.4010 N   0  0  0  0  0  0  0  0  0  0  0  0
  140.3530  158.9760  134.9820 O   0  0  0  0  0  0  0  0  0  0  0  0
  143.5490  157.4760  134.4020 N   0  0  0  0  0  0  0  0  0  0  0  0
  143.4890  156.0800  134.7390 C   0  0  0  0  0  0  0  0  0  0  0  0
  142.9490  155.7320  135.8240 O   0  0  0  0  0  0  0  0  0  0  0  0
  144.0220  155.0480  133.8200 C   0  0  0  0  0  0  0  0  0  0  0  0
  145.2430  154.4090  134.0930 C   0  0  0  0  0  0  0  0  0  0  0  0
  145.7270  153.4270  133.2290 C   0  0  0  0  0  0  0  0  0  0  0  0
  144.9910  153.0910  132.0930 C   0  0  0  0  0  0  0  0  0  0  0  0
  143.8130  153.7190  131.8310 N   0  0  0  0  0  0  0  0  0  0  0  0
  143.3200  154.6810  132.6590 C   0  0  0  0  0  0  0  0  0  0  0  0
  144.6520  158.1530  134.0180 C   0  0  0  0  0  0  0  0  0  0  0  0
  145.9700  157.6900  133.9560 C   0  0  0  0  0  0  0  0  0  0  0  0
  148.8342  161.7297  131.8263 H   0  0  0  0  0  0  0  0  0  0  0  0
  149.6618  162.2183  130.3088 H   0  0  0  0  0  0  0  0  0  0  0  0
  147.8912  161.9157  130.3088 H   0  0  0  0  0  0  0  0  0  0  0  0
  151.0418  159.9953  129.6053 H   0  0  0  0  0  0  0  0  0  0  0  0
  149.7374  159.2208  128.6432 H   0  0  0  0  0  0  0  0  0  0  0  0
  149.9129  161.0085  128.6432 H   0  0  0  0  0  0  0  0  0  0  0  0
  150.7147  159.2424  131.3844 H   0  0  0  0  0  0  0  0  0  0  0  0
  149.5614  160.1448  132.4573 H   0  0  0  0  0  0  0  0  0  0  0  0
  148.0417  158.1063  131.2113 H   0  0  0  0  0  0  0  0  0  0  0  0
  149.6177  157.3515  131.7530 H   0  0  0  0  0  0  0  0  0  0  0  0
  148.4377  157.0330  133.6651 H   0  0  0  0  0  0  0  0  0  0  0  0
  149.0194  158.7271  133.9657 H   0  0  0  0  0  0  0  0  0  0  0  0
  147.3867  160.5441  132.6540 H   0  0  0  0  0  0  0  0  0  0  0  0
  144.9966  161.3214  132.7978 H   0  0  0  0  0  0  0  0  0  0  0  0
  142.3580  160.4485  133.4999 H   0  0  0  0  0  0  0  0  0  0  0  0
  141.0840  155.9050  134.7380 H   0  0  0  0  0  0  0  0  0  0  0  0
  145.8181  154.6836  134.9896 H   0  0  0  0  0  0  0  0  0  0  0  0
  146.6808  152.9220  133.4416 H   0  0  0  0  0  0  0  0  0  0  0  0
  145.3640  152.3162  131.4071 H   0  0  0  0  0  0  0  0  0  0  0  0
  143.2750  153.4600  130.9740 H   0  0  0  0  0  0  0  0  0  0  0  0
  142.3666  155.1739  132.4178 H   0  0  0  0  0  0  0  0  0  0  0  0
  146.2250  156.6708  134.2820 H   0  0  0  0  0  0  0  0  0  0  0  0
  1  2  1  0
  2  3  1  0
  2  4  1  0
  4  5  1  0
  5  6  1  0
  6  7  1  0
  7  8  2  0
  8  9  1  0
  9 10  2  0
 10 11  1  0
 11 12  2  0
 12 13  1  0
 13 14  1  0
 13 15  2  0
 12 16  1  0
 16 17  1  0
 17 18  2  0
 17 19  1  0
 19 20  2  0
 20 21  1  0
 21 22  2  0
 22 23  1  0
 23 24  2  0
 16 25  1  0
 25 26  2  0
 26  7  1  0
 25 10  1  0
 24 19  1  0
  1 27  1  0
  1 28  1  0
  1 29  1  0
  3 30  1  0
  3 31  1  0
  3 32  1  0
  4 33  1  0
  4 34  1  0
  5 35  1  0
  5 36  1  0
  6 37  1  0
  6 38  1  0
  8 39  1  0
  9 40  1  0
 11 41  1  0
 14 42  1  0
 20 43  1  0
 21 44  1  0
 22 45  1  0
 23 46  1  0
 24 47  1  0
 26 48  1  0
M  CHG  2  14  -1  23   1
M  END
>  <UniqueID>  (44) 
44

>  <SMILES>  (44) 
CN(C)CCCc1ccc2cc(C([NH-])=O)n(C(=O)c3ccc[nH+]c3)c2c1

>  <Energy>  (44) 
85.73317594115068

>  <Genealogy>  (44) 
CN(C)CCCc1ccc2cc(C([NH-])=O)n(C(=O)c3ccc[nH+]c3)c2c1 (protonated)
CN(C)CCCc1ccc2cc(C([NH-])=O)n(C(=O)c3ccc[nH+]c3)c2c1 (3D coordinates assigned)
CN(C)CCCc1ccc2cc(C([NH-])=O)n(C(=O)c3ccc[nH+]c3)c2c1 (optimized conformer: 85.73317594115068 kcal/mol)

>  <smiles>  (44) 
CN(C)CCCc1ccc2cc(C(N)=O)n(C(=O)c3cccnc3)c2c1

>  <score_type>  (44) 
oracle

>  <origin>  (44) 
adg

>  <m_score__min__energy>  (44) 
-7.9699999999999998

>  <m_primary>  (44) 
energy

$$$$
44:0
     RDKit          3D

 30 31  0  0  0  0  0  0  0  0999 V2000
  148.5020  160.8390  131.0600 C   0  0  0  0  0  0  0  0  0  0  0  0
  149.0020  159.5180  130.8870 O   0  0  0  0  0  0  0  0  0  0  0  0
  149.3530  158.6990  131.9640 C   0  0  0  0  0  0  0  0  0  0  0  0
  150.3130  157.8860  131.8640 O   0  0  0  0  0  0  0  0  0  0  0  0
  148.6050  158.7990  133.2250 C   0  0  0  0  0  0  0  0  0  0  0  0
  149.2050  159.1430  134.2780 O   0  0  0  0  0  0  0  0  0  0  0  0
  147.2000  158.5050  133.2720 N   0  0  0  0  0  0  0  0  0  0  0  0
  146.6000  157.2860  133.1610 C   0  0  0  0  0  0  0  0  0  0  0  0
  147.2800  156.0110  132.8450 C   0  0  0  0  0  0  0  0  0  0  0  0
  148.6770  155.8460  133.0720 N   0  0  0  0  0  0  0  0  0  0  0  0
  146.6210  155.0630  132.3410 O   0  0  0  0  0  0  0  0  0  0  0  0
  145.2230  157.4040  133.3380 C   0  0  0  0  0  0  0  0  0  0  0  0
  144.9980  158.7440  133.5680 C   0  0  0  0  0  0  0  0  0  0  0  0
  143.8090  159.4240  133.8150 C   0  0  0  0  0  0  0  0  0  0  0  0
  143.8790  160.8100  134.0400 C   0  0  0  0  0  0  0  0  0  0  0  0
  145.1280  161.4840  134.0420 C   0  0  0  0  0  0  0  0  0  0  0  0
  145.1850  162.9760  134.2470 C   0  0  0  0  0  0  0  0  0  0  0  0
  145.1230  163.2540  135.5990 F   0  0  0  0  0  0  0  0  0  0  0  0
  146.3600  163.4960  133.7320 F   0  0  0  0  0  0  0  0  0  0  0  0
  144.1230  163.5970  133.6110 F   0  0  0  0  0  0  0  0  0  0  0  0
  146.3100  160.7580  133.7650 C   0  0  0  0  0  0  0  0  0  0  0  0
  146.2080  159.3840  133.5260 C   0  0  0  0  0  0  0  0  0  0  0  0
  148.4178  161.0615  132.1340 H   0  0  0  0  0  0  0  0  0  0  0  0
  149.1908  161.5563  130.5899 H   0  0  0  0  0  0  0  0  0  0  0  0
  147.5109  160.9204  130.5899 H   0  0  0  0  0  0  0  0  0  0  0  0
  149.2780  156.6590  133.3300 H   0  0  0  0  0  0  0  0  0  0  0  0
  144.4746  156.5987  133.3018 H   0  0  0  0  0  0  0  0  0  0  0  0
  142.8453  158.8939  133.8336 H   0  0  0  0  0  0  0  0  0  0  0  0
  142.9543  161.3791  134.2166 H   0  0  0  0  0  0  0  0  0  0  0  0
  147.2870  161.2627  133.7382 H   0  0  0  0  0  0  0  0  0  0  0  0
  1  2  1  0
  2  3  1  0
  3  4  2  0
  3  5  1  0
  5  6  2  0
  5  7  1  0
  7  8  1  0
  8  9  1  0
  9 10  1  0
  9 11  2  0
  8 12  2  0
 12 13  1  0
 13 14  2  0
 14 15  1  0
 15 16  2  0
 16 17  1  0
 17 18  1  0
 17 19  1  0
 17 20  1  0
 16 21  1  0
 21 22  2  0
 22  7  1  0
 22 13  1  0
  1 23  1  0
  1 24  1  0
  1 25  1  0
 10 26  1  0
 12 27  1  0
 14 28  1  0
 15 29  1  0
 21 30  1  0
M  CHG  1  10  -1
M  END
>  <UniqueID>  (45) 
45

>  <SMILES>  (45) 
COC(=O)C(=O)n1c(C([NH-])=O)cc2ccc(C(F)(F)F)cc21

>  <Energy>  (45) 
68.0784733454573

>  <Genealogy>  (45) 
COC(=O)C(=O)n1c(C([NH-])=O)cc2ccc(C(F)(F)F)cc21 (protonated)
COC(=O)C(=O)n1c(C([NH-])=O)cc2ccc(C(F)(F)F)cc21 (3D coordinates assigned)
COC(=O)C(=O)n1c(C([NH-])=O)cc2ccc(C(F)(F)F)cc21 (optimized conformer: 68.0784733454573 kcal/mol)

>  <smiles>  (45) 
COC(=O)C(=O)n1c(C(N)=O)cc2ccc(C(F)(F)F)cc21

>  <score_type>  (45) 
oracle

>  <origin>  (45) 
adg

>  <m_score__min__energy>  (45) 
-5.3399999999999999

>  <m_primary>  (45) 
energy

$$$$
45:0
     RDKit          3D

 55 57  0  0  0  0  0  0  0  0999 V2000
  142.4360  157.4760  140.5140 C   0  0  0  0  0  0  0  0  0  0  0  0
  141.6570  157.0050  139.3700 N   0  0  0  0  0  0  0  0  0  0  0  0
  140.9790  155.7100  139.4360 C   0  0  0  0  0  0  0  0  0  0  0  0
  141.5460  157.8440  138.2080 C   0  0  0  0  0  0  0  0  0  0  0  0
  141.2770  159.0660  138.3520 O   0  0  0  0  0  0  0  0  0  0  0  0
  141.7730  157.3400  136.8860 N   0  0  0  0  0  0  0  0  0  0  0  0
  141.7730  155.9270  136.5220 C   0  0  0  0  0  0  0  0  0  0  0  0
  142.6580  155.6970  135.2940 C   0  0  0  0  0  0  0  0  0  0  0  0
  142.1870  156.4640  134.0850 C   0  0  0  0  0  0  0  0  0  0  0  0
  141.9630  155.8600  133.0020 O   0  0  0  0  0  0  0  0  0  0  0  0
  142.1390  157.8980  134.1150 N   0  0  0  0  0  0  0  0  0  0  0  0
  141.0850  158.7000  134.4400 C   0  0  0  0  0  0  0  0  0  0  0  0
  139.7070  158.2470  134.7090 C   0  0  0  0  0  0  0  0  0  0  0  0
  139.2060  158.2490  136.0450 N   0  0  0  0  0  0  0  0  0  0  0  0
  138.9530  157.8820  133.7690 O   0  0  0  0  0  0  0  0  0  0  0  0
  141.4680  160.0400  134.4100 C   0  0  0  0  0  0  0  0  0  0  0  0
  142.7960  160.0330  134.0450 C   0  0  0  0  0  0  0  0  0  0  0  0
  143.6840  161.0880  133.8670 C   0  0  0  0  0  0  0  0  0  0  0  0
  145.0070  160.7830  133.5040 C   0  0  0  0  0  0  0  0  0  0  0  0
  145.4220  159.4350  133.3280 C   0  0  0  0  0  0  0  0  0  0  0  0
  146.7870  159.1330  132.9630 N   0  0  0  0  0  0  0  0  0  0  0  0
  147.5620  158.1500  133.7380 C   0  0  0  0  0  0  0  0  0  0  0  0
  148.5870  157.4480  132.8430 C   0  0  0  0  0  0  0  0  0  0  0  0
  149.5320  158.4370  132.1300 C   0  0  0  0  0  0  0  0  0  0  0  0
  148.9530  159.8640  132.0060 C   0  0  1  0  0  0  0  0  0  0  0  0
  149.6100  160.6150  130.8810 C   0  0  0  0  0  0  0  0  0  0  0  0
  150.4220  160.0350  130.1120 O   0  0  0  0  0  0  0  0  0  0  0  0
  149.3390  161.9660  130.6980 O   0  0  0  0  0  0  0  0  0  0  0  0
  147.4240  159.8450  131.8420 C   0  0  0  0  0  0  0  0  0  0  0  0
  144.4850  158.3910  133.5210 C   0  0  0  0  0  0  0  0  0  0  0  0
  143.1740  158.7280  133.8710 C   0  0  0  0  0  0  0  0  0  0  0  0
  141.9369  157.1742  141.4467 H   0  0  0  0  0  0  0  0  0  0  0  0
  143.4433  157.0355  140.4780 H   0  0  0  0  0  0  0  0  0  0  0  0
  142.5139  158.5726  140.4780 H   0  0  0  0  0  0  0  0  0  0  0  0
  140.8308  155.4269  140.4886 H   0  0  0  0  0  0  0  0  0  0  0  0
  140.0026  155.7814  138.9345 H   0  0  0  0  0  0  0  0  0  0  0  0
  141.5939  154.9482  138.9345 H   0  0  0  0  0  0  0  0  0  0  0  0
  142.1596  155.3348  137.3645 H   0  0  0  0  0  0  0  0  0  0  0  0
  140.7442  155.6173  136.2859 H   0  0  0  0  0  0  0  0  0  0  0  0
  143.6832  156.0147  135.5347 H   0  0  0  0  0  0  0  0  0  0  0  0
  142.6111  154.6262  135.0468 H   0  0  0  0  0  0  0  0  0  0  0  0
  139.8420  158.4090  136.8560 H   0  0  0  0  0  0  0  0  0  0  0  0
  140.8421  160.9172  134.6310 H   0  0  0  0  0  0  0  0  0  0  0  0
  143.3607  162.1302  134.0061 H   0  0  0  0  0  0  0  0  0  0  0  0
  145.7306  161.5979  133.3542 H   0  0  0  0  0  0  0  0  0  0  0  0
  148.0881  158.6665  134.5544 H   0  0  0  0  0  0  0  0  0  0  0  0
  146.8726  157.3968  134.1472 H   0  0  0  0  0  0  0  0  0  0  0  0
  149.1909  156.7702  133.4643 H   0  0  0  0  0  0  0  0  0  0  0  0
  148.0310  156.9018  132.0667 H   0  0  0  0  0  0  0  0  0  0  0  0
  150.4722  158.4912  132.6985 H   0  0  0  0  0  0  0  0  0  0  0  0
  149.6829  158.0597  131.1078 H   0  0  0  0  0  0  0  0  0  0  0  0
  149.1743  160.3931  132.9447 H   0  0  0  0  0  0  0  0  0  0  0  0
  147.0514  160.8796  131.8134 H   0  0  0  0  0  0  0  0  0  0  0  0
  147.1760  159.3230  130.9060 H   0  0  0  0  0  0  0  0  0  0  0  0
  144.7818  157.3389  133.3984 H   0  0  0  0  0  0  0  0  0  0  0  0
  1  2  1  0
  2  3  1  0
  2  4  1  0
  4  5  2  0
  4  6  1  0
  6  7  1  0
  7  8  1  0
  8  9  1  0
  9 10  2  0
  9 11  1  0
 11 12  1  0
 12 13  1  0
 13 14  1  0
 13 15  2  0
 12 16  2  0
 16 17  1  0
 17 18  2  0
 18 19  1  0
 19 20  2  0
 20 21  1  0
 21 22  1  0
 22 23  1  0
 23 24  1  0
 24 25  1  0
 25 26  1  0
 26 27  2  0
 26 28  1  0
 25 29  1  0
 20 30  1  0
 30 31  2  0
 31 11  1  0
 31 17  1  0
 29 21  1  0
  1 32  1  0
  1 33  1  0
  1 34  1  0
  3 35  1  0
  3 36  1  0
  3 37  1  0
  7 38  1  0
  7 39  1  0
  8 40  1  0
  8 41  1  0
 14 42  1  0
 16 43  1  0
 18 44  1  0
 19 45  1  0
 22 46  1  0
 22 47  1  0
 23 48  1  0
 23 49  1  0
 24 50  1  0
 24 51  1  0
 25 52  1  1
 29 53  1  0
 29 54  1  0
 30 55  1  0
M  CHG  3   6  -1  14  -1  28  -1
M  END
>  <UniqueID>  (46) 
46

>  <SMILES>  (46) 
CN(C)C(=O)[N-]CCC(=O)n1c(C([NH-])=O)cc2ccc(N3CCC[C@@H](C(=O)[O-])C3)cc21

>  <Energy>  (46) 
98.85524440419016

>  <Genealogy>  (46) 
CN(C)C(=O)[N-]CCC(=O)n1c(C([NH-])=O)cc2ccc(N3CCCC(C(=O)[O-])C3)cc21 (protonated)
CN(C)C(=O)[N-]CCC(=O)n1c(C([NH-])=O)cc2ccc(N3CCC[C@@H](C(=O)[O-])C3)cc21 (chirality)
CN(C)C(=O)[N-]CCC(=O)n1c(C([NH-])=O)cc2ccc(N3CCC[C@@H](C(=O)[O-])C3)cc21 (3D coordinates assigned)
CN(C)C(=O)[N-]CCC(=O)n1c(C([NH-])=O)cc2ccc(N3CCC[C@@H](C(=O)[O-])C3)cc21 (nonaromatic ring conformer: 98.85524440419016 kcal/mol)

>  <smiles>  (46) 
CN(C)C(=O)NCCC(=O)n1c(C(N)=O)cc2ccc(N3CCCC(C(=O)O)C3)cc21

>  <score_type>  (46) 
oracle

>  <origin>  (46) 
adg

>  <m_score__min__energy>  (46) 
-9.8499999999999996

>  <m_primary>  (46) 
energy

$$$$
46:0
     RDKit          3D

 62 65  0  0  0  0  0  0  0  0999 V2000
  148.5090  161.0420  130.7810 C   0  0  0  0  0  0  0  0  0  0  0  0
  148.4500  159.8000  131.5690 N   0  0  0  0  0  0  0  0  0  0  0  0
  148.5230  160.0970  133.0080 C   0  0  0  0  0  0  0  0  0  0  0  0
  148.3160  158.8120  133.8430 C   0  0  0  0  0  0  0  0  0  0  0  0
  148.5720  157.5650  133.0820 N   0  0  0  0  0  0  0  0  0  0  0  0
  147.3430  157.0590  132.4190 C   0  0  0  0  0  0  0  0  0  0  0  0
  146.2460  156.6690  133.4220 C   0  0  0  0  0  0  0  0  0  0  0  0
  145.6530  157.8270  134.0040 O   0  0  0  0  0  0  0  0  0  0  0  0
  145.0430  158.8370  133.2530 C   0  0  0  0  0  0  0  0  0  0  0  0
  145.6510  159.3580  132.2750 O   0  0  0  0  0  0  0  0  0  0  0  0
  143.6970  159.2300  133.5570 N   0  0  0  0  0  0  0  0  0  0  0  0
  143.2560  160.4770  133.8830 C   0  0  0  0  0  0  0  0  0  0  0  0
  144.0340  161.7230  133.7490 C   0  0  0  0  0  0  0  0  0  0  0  0
  145.4430  161.7120  133.9810 N   0  0  0  0  0  0  0  0  0  0  0  0
  143.4520  162.8110  133.4950 O   0  0  0  0  0  0  0  0  0  0  0  0
  141.9200  160.4400  134.2760 C   0  0  0  0  0  0  0  0  0  0  0  0
  141.5500  159.1180  134.1800 C   0  0  0  0  0  0  0  0  0  0  0  0
  140.3280  158.5080  134.4510 C   0  0  0  0  0  0  0  0  0  0  0  0
  140.2340  157.1180  134.2740 C   0  0  0  0  0  0  0  0  0  0  0  0
  141.3540  156.3700  133.8450 C   0  0  0  0  0  0  0  0  0  0  0  0
  141.2370  154.9610  133.6420 N   0  0  0  0  0  0  0  0  0  0  0  0
  140.3100  154.0290  132.9750 C   0  0  0  0  0  0  0  0  0  0  0  0
  140.9730  152.7690  133.4560 C   0  0  0  0  0  0  0  0  0  0  0  0
  141.5750  151.9590  132.3770 N   0  0  0  0  0  0  0  0  0  0  0  0
  140.6230  150.9220  131.9340 C   0  0  0  0  0  0  0  0  0  0  0  0
  142.7980  151.3020  132.8720 C   0  0  0  0  0  0  0  0  0  0  0  0
  141.9330  153.7400  134.0820 C   0  0  0  0  0  0  0  0  0  0  0  0
  142.5810  157.0170  133.5910 C   0  0  0  0  0  0  0  0  0  0  0  0
  142.6410  158.4060  133.7450 C   0  0  0  0  0  0  0  0  0  0  0  0
  149.7340  157.7360  132.1800 C   0  0  0  0  0  0  0  0  0  0  0  0
  149.5500  158.8970  131.1760 C   0  0  0  0  0  0  0  0  0  0  0  0
  148.5500  161.9059  131.4607 H   0  0  0  0  0  0  0  0  0  0  0  0
  149.4077  161.0315  130.1467 H   0  0  0  0  0  0  0  0  0  0  0  0
  147.6134  161.1167  130.1467 H   0  0  0  0  0  0  0  0  0  0  0  0
  149.5107  160.5225  133.2391 H   0  0  0  0  0  0  0  0  0  0  0  0
  147.7291  160.8149  133.2614 H   0  0  0  0  0  0  0  0  0  0  0  0
  149.0007  158.8417  134.7034 H   0  0  0  0  0  0  0  0  0  0  0  0
  147.2601  158.7925  134.1509 H   0  0  0  0  0  0  0  0  0  0  0  0
  146.9512  157.8452  131.7569 H   0  0  0  0  0  0  0  0  0  0  0  0
  147.6170  156.1537  131.8575 H   0  0  0  0  0  0  0  0  0  0  0  0
  145.4696  156.0909  132.8996 H   0  0  0  0  0  0  0  0  0  0  0  0
  146.7003  156.0670  134.2228 H   0  0  0  0  0  0  0  0  0  0  0  0
  146.0910  161.2540  133.3050 H   0  0  0  0  0  0  0  0  0  0  0  0
  141.2944  161.2867  134.5950 H   0  0  0  0  0  0  0  0  0  0  0  0
  139.4636  159.0962  134.7929 H   0  0  0  0  0  0  0  0  0  0  0  0
  139.2801  156.6067  134.4710 H   0  0  0  0  0  0  0  0  0  0  0  0
  139.2757  154.1285  133.3360 H   0  0  0  0  0  0  0  0  0  0  0  0
  140.1819  154.1432  131.8885 H   0  0  0  0  0  0  0  0  0  0  0  0
  140.4538  151.9658  133.9994 H   0  0  0  0  0  0  0  0  0  0  0  0
  140.1759  150.4350  132.8132 H   0  0  0  0  0  0  0  0  0  0  0  0
  139.8301  151.3864  131.3293 H   0  0  0  0  0  0  0  0  0  0  0  0
  141.1534  150.1716  131.3293 H   0  0  0  0  0  0  0  0  0  0  0  0
  142.7954  151.3034  133.9720 H   0  0  0  0  0  0  0  0  0  0  0  0
  142.8306  150.2649  132.5067 H   0  0  0  0  0  0  0  0  0  0  0  0
  143.6807  151.8474  132.5067 H   0  0  0  0  0  0  0  0  0  0  0  0
  141.9753  153.6477  135.1773 H   0  0  0  0  0  0  0  0  0  0  0  0
  142.9931  153.6425  133.8052 H   0  0  0  0  0  0  0  0  0  0  0  0
  143.4674  156.4446  133.2800 H   0  0  0  0  0  0  0  0  0  0  0  0
  150.6260  157.9384  132.7911 H   0  0  0  0  0  0  0  0  0  0  0  0
  149.8389  156.8090  131.5972 H   0  0  0  0  0  0  0  0  0  0  0  0
  150.4842  159.4757  131.1274 H   0  0  0  0  0  0  0  0  0  0  0  0
  149.2992  158.4626  130.1970 H   0  0  0  0  0  0  0  0  0  0  0  0
  1  2  1  0
  2  3  1  0
  3  4  1  0
  4  5  1  0
  5  6  1  0
  6  7  1  0
  7  8  1  0
  8  9  1  0
  9 10  2  0
  9 11  1  0
 11 12  1  0
 12 13  1  0
 13 14  1  0
 13 15  2  0
 12 16  2  0
 16 17  1  0
 17 18  2  0
 18 19  1  0
 19 20  2  0
 20 21  1  0
 21 22  1  0
 22 23  1  0
 23 24  1  0
 24 25  1  0
 24 26  1  0
 23 27  1  0
 20 28  1  0
 28 29  2  0
  5 30  1  0
 30 31  1  0
 31  2  1  0
 29 11  1  0
 29 17  1  0
 27 21  1  0
  1 32  1  0
  1 33  1  0
  1 34  1  0
  3 35  1  0
  3 36  1  0
  4 37  1  0
  4 38  1  0
  6 39  1  0
  6 40  1  0
  7 41  1  0
  7 42  1  0
 14 43  1  0
 16 44  1  0
 18 45  1  0
 19 46  1  0
 22 47  1  0
 22 48  1  0
 23 49  1  0
 25 50  1  0
 25 51  1  0
 25 52  1  0
 26 53  1  0
 26 54  1  0
 26 55  1  0
 27 56  1  0
 27 57  1  0
 28 58  1  0
 30 59  1  0
 30 60  1  0
 31 61  1  0
 31 62  1  0
M  CHG  1  14  -1
M  END
>  <UniqueID>  (47) 
47

>  <SMILES>  (47) 
CN1CCN(CCOC(=O)n2c(C([NH-])=O)cc3ccc(N4CC(N(C)C)C4)cc32)CC1

>  <Energy>  (47) 
154.6961808944442

>  <Genealogy>  (47) 
CN1CCN(CCOC(=O)n2c(C([NH-])=O)cc3ccc(N4CC(N(C)C)C4)cc32)CC1 (protonated)
CN1CCN(CCOC(=O)n2c(C([NH-])=O)cc3ccc(N4CC(N(C)C)C4)cc32)CC1 (3D coordinates assigned)
CN1CCN(CCOC(=O)n2c(C([NH-])=O)cc3ccc(N4CC(N(C)C)C4)cc32)CC1 (nonaromatic ring conformer: 154.6961808944442 kcal/mol)

>  <smiles>  (47) 
CN1CCN(CCOC(=O)n2c(C(N)=O)cc3ccc(N4CC(N(C)C)C4)cc32)CC1

>  <score_type>  (47) 
oracle

>  <origin>  (47) 
adg

>  <m_score__min__energy>  (47) 
-8.7799999999999994

>  <m_primary>  (47) 
energy

$$$$
47:0
     RDKit          3D

 55 56  0  0  0  0  0  0  0  0999 V2000
  139.3300  159.7350  130.3610 C   0  0  0  0  0  0  0  0  0  0  0  0
  139.3610  159.4680  131.8820 C   0  0  0  0  0  0  0  0  0  0  0  0
  138.1810  158.5370  132.2380 C   0  0  0  0  0  0  0  0  0  0  0  0
  140.6730  158.8950  132.3050 N   0  0  2  0  0  0  0  0  0  0  0  0
  140.5580  157.4960  132.7630 C   0  0  0  0  0  0  0  0  0  0  0  0
  141.2600  159.6820  133.3790 C   0  0  0  0  0  0  0  0  0  0  0  0
  140.9970  160.8750  133.4840 O   0  0  0  0  0  0  0  0  0  0  0  0
  142.1960  159.0530  134.3780 C   0  0  0  0  0  0  0  0  0  0  0  0
  143.6150  159.4310  134.0600 C   0  0  0  0  0  0  0  0  0  0  0  0
  144.0160  160.7900  134.1160 C   0  0  0  0  0  0  0  0  0  0  0  0
  145.3290  161.1640  133.7760 C   0  0  0  0  0  0  0  0  0  0  0  0
  146.2110  160.1620  133.3830 C   0  0  0  0  0  0  0  0  0  0  0  0
  147.5270  160.2370  132.9800 C   0  0  0  0  0  0  0  0  0  0  0  0
  147.9000  158.9260  132.6860 C   0  0  0  0  0  0  0  0  0  0  0  0
  149.2440  158.5360  132.2100 C   0  0  0  0  0  0  0  0  0  0  0  0
  149.6520  157.1700  132.2080 N   0  0  0  0  0  0  0  0  0  0  0  0
  150.0460  159.4190  131.8050 O   0  0  0  0  0  0  0  0  0  0  0  0
  146.8550  158.0800  132.8970 N   0  0  0  0  0  0  0  0  0  0  0  0
  146.8100  156.6630  132.6870 C   0  0  0  0  0  0  0  0  0  0  0  0
  146.9920  156.2110  131.5240 O   0  0  0  0  0  0  0  0  0  0  0  0
  146.5930  155.7640  133.7920 N   0  0  0  0  0  0  0  0  0  0  0  0
  145.2260  155.4840  134.2420 C   0  0  0  0  0  0  0  0  0  0  0  0
  147.7390  155.1690  134.4920 C   0  0  0  0  0  0  0  0  0  0  0  0
  148.4330  153.8500  133.5120 S   0  0  0  0  0  0  0  0  0  0  0  0
  147.1490  152.8070  132.8600 C   0  0  0  0  0  0  0  0  0  0  0  0
  149.3550  154.4850  132.2590 O   0  0  0  0  0  0  0  0  0  0  0  0
  145.8320  158.8460  133.3220 C   0  0  0  0  0  0  0  0  0  0  0  0
  144.5350  158.4430  133.6470 C   0  0  0  0  0  0  0  0  0  0  0  0
  139.2049  160.8128  130.1804 H   0  0  0  0  0  0  0  0  0  0  0  0
  140.2737  159.3947  129.9097 H   0  0  0  0  0  0  0  0  0  0  0  0
  138.4894  159.1876  129.9097 H   0  0  0  0  0  0  0  0  0  0  0  0
  139.2506  160.4152  132.4302 H   0  0  0  0  0  0  0  0  0  0  0  0
  138.0885  158.4641  133.3317 H   0  0  0  0  0  0  0  0  0  0  0  0
  137.2507  158.9471  131.8179 H   0  0  0  0  0  0  0  0  0  0  0  0
  138.3634  157.5369  131.8179 H   0  0  0  0  0  0  0  0  0  0  0  0
  141.3190  158.8970  131.4790 H   0  0  0  0  0  0  0  0  0  0  0  0
  140.5558  157.4692  133.8627 H   0  0  0  0  0  0  0  0  0  0  0  0
  139.6211  157.0619  132.3838 H   0  0  0  0  0  0  0  0  0  0  0  0
  141.4114  156.9147  132.3838 H   0  0  0  0  0  0  0  0  0  0  0  0
  141.9422  159.4068  135.3882 H   0  0  0  0  0  0  0  0  0  0  0  0
  142.0939  157.9588  134.3299 H   0  0  0  0  0  0  0  0  0  0  0  0
  143.2939  161.5588  134.4281 H   0  0  0  0  0  0  0  0  0  0  0  0
  145.6484  162.2157  133.8195 H   0  0  0  0  0  0  0  0  0  0  0  0
  148.1509  161.1399  132.9060 H   0  0  0  0  0  0  0  0  0  0  0  0
  149.1630  156.4620  131.6180 H   0  0  0  0  0  0  0  0  0  0  0  0
  145.1960  155.4778  135.3416 H   0  0  0  0  0  0  0  0  0  0  0  0
  144.5480  156.2619  133.8610 H   0  0  0  0  0  0  0  0  0  0  0  0
  144.9084  154.5022  133.8610 H   0  0  0  0  0  0  0  0  0  0  0  0
  148.5048  155.9408  134.6590 H   0  0  0  0  0  0  0  0  0  0  0  0
  147.4021  154.7634  135.4574 H   0  0  0  0  0  0  0  0  0  0  0  0
  146.5891  152.3522  133.6904 H   0  0  0  0  0  0  0  0  0  0  0  0
  146.4655  153.4089  132.2431 H   0  0  0  0  0  0  0  0  0  0  0  0
  147.5981  152.0147  132.2431 H   0  0  0  0  0  0  0  0  0  0  0  0
  148.8880  155.3160  131.9930 H   0  0  0  0  0  0  0  0  0  0  0  0
  144.2386  157.3856  133.5830 H   0  0  0  0  0  0  0  0  0  0  0  0
  1  2  1  0
  2  3  1  0
  2  4  1  0
  4  5  1  0
  4  6  1  0
  6  7  2  0
  6  8  1  0
  8  9  1  0
  9 10  2  0
 10 11  1  0
 11 12  2  0
 12 13  1  0
 13 14  2  0
 14 15  1  0
 15 16  1  0
 15 17  2  0
 14 18  1  0
 18 19  1  0
 19 20  2  0
 19 21  1  0
 21 22  1  0
 21 23  1  0
 23 24  1  0
 24 25  1  0
 24 26  1  6
 18 27  1  0
 27 28  2  0
 28  9  1  0
 27 12  1  0
  1 29  1  0
  1 30  1  0
  1 31  1  0
  2 32  1  0
  3 33  1  0
  3 34  1  0
  3 35  1  0
  4 36  1  6
  5 37  1  0
  5 38  1  0
  5 39  1  0
  8 40  1  0
  8 41  1  0
 10 42  1  0
 11 43  1  0
 13 44  1  0
 16 45  1  0
 22 46  1  0
 22 47  1  0
 22 48  1  0
 23 49  1  0
 23 50  1  0
 25 51  1  0
 25 52  1  0
 25 53  1  0
 26 54  1  0
 28 55  1  0
M  CHG  3   4   1  16  -1  24   1
M  END
>  <UniqueID>  (48) 
48

>  <SMILES>  (48) 
CC(C)[N@H+](C)C(=O)Cc1ccc2cc(C([NH-])=O)n(C(=O)N(C)C[S@@+](C)O)c2c1

>  <Energy>  (48) 
83.15398281197369

>  <Genealogy>  (48) 
CC(C)[NH+](C)C(=O)Cc1ccc2cc(C([NH-])=O)n(C(=O)N(C)C[S+](C)O)c2c1 (protonated)
CC(C)[N@H+](C)C(=O)Cc1ccc2cc(C([NH-])=O)n(C(=O)N(C)C[S@@+](C)O)c2c1 (chirality)
CC(C)[N@H+](C)C(=O)Cc1ccc2cc(C([NH-])=O)n(C(=O)N(C)C[S@@+](C)O)c2c1 (3D coordinates assigned)
CC(C)[N@H+](C)C(=O)Cc1ccc2cc(C([NH-])=O)n(C(=O)N(C)C[S@@+](C)O)c2c1 (optimized conformer: 83.15398281197369 kcal/mol)

>  <smiles>  (48) 
CC(C)N(C)C(=O)Cc1ccc2cc(C(N)=O)n(C(=O)N(C)C[S+](C)[O-])c2c1

>  <score_type>  (48) 
oracle

>  <origin>  (48) 
adg

>  <m_score__min__energy>  (48) 
-6.7999999999999998

>  <m_primary>  (48) 
energy

$$$$
48:0
     RDKit          3D

 43 44  0  0  0  0  0  0  0  0999 V2000
  144.3640  154.4490  131.0930 C   0  0  0  0  0  0  0  0  0  0  0  0
  145.0650  153.4720  131.8530 O   0  0  0  0  0  0  0  0  0  0  0  0
  145.7310  153.7770  133.0440 C   0  0  0  0  0  0  0  0  0  0  0  0
  145.5250  153.0870  134.0810 O   0  0  0  0  0  0  0  0  0  0  0  0
  146.6470  154.8830  133.0860 N   0  0  0  0  0  0  0  0  0  0  0  0
  147.9960  154.8440  132.8870 C   0  0  0  0  0  0  0  0  0  0  0  0
  148.8150  153.6230  132.7560 C   0  0  0  0  0  0  0  0  0  0  0  0
  148.3310  152.3550  133.2020 N   0  0  0  0  0  0  0  0  0  0  0  0
  149.9850  153.7090  132.2950 O   0  0  0  0  0  0  0  0  0  0  0  0
  148.5300  156.1290  132.8710 C   0  0  0  0  0  0  0  0  0  0  0  0
  147.4610  156.9690  133.0840 C   0  0  0  0  0  0  0  0  0  0  0  0
  147.4160  158.3600  133.1510 C   0  0  0  0  0  0  0  0  0  0  0  0
  146.1660  158.9690  133.3430 C   0  0  0  0  0  0  0  0  0  0  0  0
  144.9960  158.1840  133.4530 C   0  0  0  0  0  0  0  0  0  0  0  0
  143.7200  158.8220  133.6340 C   0  0  0  0  0  0  0  0  0  0  0  0
  142.6520  159.3590  133.7890 C   0  0  0  0  0  0  0  0  0  0  0  0
  141.3500  160.0080  133.9750 C   0  0  0  0  0  0  0  0  0  0  0  0
  140.4710  159.7090  132.8460 N   0  0  0  0  0  0  0  0  0  0  0  0
  139.6540  158.1830  133.0520 S   0  0  0  0  0  0  0  0  0  0  0  0
  138.7230  157.9000  131.9030 O   0  0  0  0  0  0  0  0  0  0  0  0
  138.8520  158.2340  134.3210 O   0  0  0  0  0  0  0  0  0  0  0  0
  140.8510  156.8660  133.1910 C   0  0  0  0  0  0  0  0  0  0  0  0
  140.1640  155.5090  133.3910 C   0  0  0  0  0  0  0  0  0  0  0  0
  138.7720  155.5510  132.9470 N   0  0  0  0  0  0  0  0  0  0  0  0
  145.0730  156.7780  133.3790 C   0  0  0  0  0  0  0  0  0  0  0  0
  146.3350  156.1940  133.2090 C   0  0  0  0  0  0  0  0  0  0  0  0
  143.8603  155.1510  131.7738 H   0  0  0  0  0  0  0  0  0  0  0  0
  145.0746  154.9993  130.4588 H   0  0  0  0  0  0  0  0  0  0  0  0
  143.6151  153.9522  130.4588 H   0  0  0  0  0  0  0  0  0  0  0  0
  147.4390  152.2770  133.7380 H   0  0  0  0  0  0  0  0  0  0  0  0
  148.9090  151.4970  133.0680 H   0  0  0  0  0  0  0  0  0  0  0  0
  149.5820  156.4127  132.7203 H   0  0  0  0  0  0  0  0  0  0  0  0
  148.3316  158.9622  133.0564 H   0  0  0  0  0  0  0  0  0  0  0  0
  146.0966  160.0649  133.4083 H   0  0  0  0  0  0  0  0  0  0  0  0
  140.8888  159.6379  134.9025 H   0  0  0  0  0  0  0  0  0  0  0  0
  141.4971  161.0964  134.0370 H   0  0  0  0  0  0  0  0  0  0  0  0
  141.4537  156.8307  132.2715 H   0  0  0  0  0  0  0  0  0  0  0  0
  141.4878  157.0657  134.0654 H   0  0  0  0  0  0  0  0  0  0  0  0
  140.7027  154.7451  132.8111 H   0  0  0  0  0  0  0  0  0  0  0  0
  140.1804  155.2648  134.4634 H   0  0  0  0  0  0  0  0  0  0  0  0
  138.7520  155.7160  131.9140 H   0  0  0  0  0  0  0  0  0  0  0  0
  138.2940  156.3600  133.4070 H   0  0  0  0  0  0  0  0  0  0  0  0
  144.1678  156.1573  133.4527 H   0  0  0  0  0  0  0  0  0  0  0  0
  1  2  1  0
  2  3  1  0
  3  4  2  0
  3  5  1  0
  5  6  1  0
  6  7  1  0
  7  8  1  0
  7  9  2  0
  6 10  2  0
 10 11  1  0
 11 12  2  0
 12 13  1  0
 13 14  2  0
 14 15  1  0
 15 16  3  0
 16 17  1  0
 17 18  1  0
 18 19  1  0
 19 20  2  0
 19 21  2  0
 19 22  1  0
 22 23  1  0
 23 24  1  0
 14 25  1  0
 25 26  2  0
 26  5  1  0
 26 11  1  0
  1 27  1  0
  1 28  1  0
  1 29  1  0
  8 30  1  0
  8 31  1  0
 10 32  1  0
 12 33  1  0
 13 34  1  0
 17 35  1  0
 17 36  1  0
 22 37  1  0
 22 38  1  0
 23 39  1  0
 23 40  1  0
 24 41  1  0
 24 42  1  0
 25 43  1  0
M  CHG  1  18  -1
M  END
>  <UniqueID>  (49) 
49

>  <SMILES>  (49) 
COC(=O)n1c(C(N)=O)cc2ccc(C#CC[N-]S(=O)(=O)CCN)cc21

>  <Energy>  (49) 
68.30465234497386

>  <Genealogy>  (49) 
COC(=O)n1c(C(N)=O)cc2ccc(C#CC[N-]S(=O)(=O)CCN)cc21 (protonated)
COC(=O)n1c(C(N)=O)cc2ccc(C#CC[N-]S(=O)(=O)CCN)cc21 (3D coordinates assigned)
COC(=O)n1c(C(N)=O)cc2ccc(C#CC[N-]S(=O)(=O)CCN)cc21 (optimized conformer: 68.30465234497386 kcal/mol)

>  <smiles>  (49) 
COC(=O)n1c(C(N)=O)cc2ccc(C#CCNS(=O)(=O)CCN)cc21

>  <score_type>  (49) 
oracle

>  <origin>  (49) 
adg

>  <m_score__min__energy>  (49) 
-8.1500000000000004

>  <m_primary>  (49) 
energy

$$$$
49:0
     RDKit          3D

 32 33  0  0  0  0  0  0  0  0999 V2000
  149.4070  162.7360  130.3330 N   0  0  0  0  0  0  0  0  0  0  0  0
  149.2310  161.5950  130.2480 C   0  0  0  0  0  0  0  0  0  0  0  0
  149.0100  160.1480  130.1400 C   0  0  0  0  0  0  0  0  0  0  0  0
  149.9100  159.3620  131.1070 C   0  0  0  0  0  0  0  0  0  0  0  0
  149.5080  159.5200  132.5850 C   0  0  0  0  0  0  0  0  0  0  0  0
  148.0800  159.1110  132.8420 C   0  0  0  0  0  0  0  0  0  0  0  0
  147.6970  157.7520  132.7300 C   0  0  0  0  0  0  0  0  0  0  0  0
  146.3730  157.3590  132.9850 C   0  0  0  0  0  0  0  0  0  0  0  0
  145.4610  158.3420  133.3570 C   0  0  0  0  0  0  0  0  0  0  0  0
  144.1200  158.2400  133.6450 C   0  0  0  0  0  0  0  0  0  0  0  0
  143.7060  159.5360  133.9510 C   0  0  0  0  0  0  0  0  0  0  0  0
  142.3450  159.8770  134.4160 C   0  0  0  0  0  0  0  0  0  0  0  0
  141.5870  160.9010  133.7680 N   0  0  0  0  0  0  0  0  0  0  0  0
  141.8250  159.2420  135.3710 O   0  0  0  0  0  0  0  0  0  0  0  0
  144.7520  160.4060  133.8550 N   0  0  0  0  0  0  0  0  0  0  0  0
  144.7200  161.8330  134.0270 C   0  0  0  0  0  0  0  0  0  0  0  0
  143.8430  162.5260  133.4470 O   0  0  0  0  0  0  0  0  0  0  0  0
  145.6480  162.4620  134.8490 O   0  0  0  0  0  0  0  0  0  0  0  0
  145.8190  159.6590  133.4900 C   0  0  0  0  0  0  0  0  0  0  0  0
  147.1270  160.0810  133.2220 C   0  0  0  0  0  0  0  0  0  0  0  0
  147.9578  159.9295  130.3749 H   0  0  0  0  0  0  0  0  0  0  0  0
  149.2570  159.8389  129.1136 H   0  0  0  0  0  0  0  0  0  0  0  0
  149.8564  158.2954  130.8436 H   0  0  0  0  0  0  0  0  0  0  0  0
  150.9277  159.7664  131.0032 H   0  0  0  0  0  0  0  0  0  0  0  0
  150.1706  158.8930  133.1997 H   0  0  0  0  0  0  0  0  0  0  0  0
  149.6026  160.5846  132.8450 H   0  0  0  0  0  0  0  0  0  0  0  0
  148.4433  156.9975  132.4407 H   0  0  0  0  0  0  0  0  0  0  0  0
  146.0664  156.3066  132.8935 H   0  0  0  0  0  0  0  0  0  0  0  0
  143.5041  157.3286  133.6359 H   0  0  0  0  0  0  0  0  0  0  0  0
  140.6120  161.1080  134.0780 H   0  0  0  0  0  0  0  0  0  0  0  0
  142.0030  161.4840  133.0080 H   0  0  0  0  0  0  0  0  0  0  0  0
  147.4052  161.1420  133.3055 H   0  0  0  0  0  0  0  0  0  0  0  0
  1  2  3  0
  2  3  1  0
  3  4  1  0
  4  5  1  0
  5  6  1  0
  6  7  2  0
  7  8  1  0
  8  9  2  0
  9 10  1  0
 10 11  2  0
 11 12  1  0
 12 13  1  0
 12 14  2  0
 11 15  1  0
 15 16  1  0
 16 17  2  0
 16 18  1  0
 15 19  1  0
 19 20  2  0
 20  6  1  0
 19  9  1  0
  3 21  1  0
  3 22  1  0
  4 23  1  0
  4 24  1  0
  5 25  1  0
  5 26  1  0
  7 27  1  0
  8 28  1  0
 10 29  1  0
 13 30  1  0
 13 31  1  0
 20 32  1  0
M  CHG  1  18  -1
M  END
>  <UniqueID>  (50) 
50

>  <SMILES>  (50) 
N#CCCCc1ccc2cc(C(N)=O)n(C(=O)[O-])c2c1

>  <Energy>  (50) 
66.56910485734622

>  <Genealogy>  (50) 
N#CCCCc1ccc2cc(C(N)=O)n(C(=O)[O-])c2c1 (protonated)
N#CCCCc1ccc2cc(C(N)=O)n(C(=O)[O-])c2c1 (3D coordinates assigned)
N#CCCCc1ccc2cc(C(N)=O)n(C(=O)[O-])c2c1 (optimized conformer: 66.56910485734622 kcal/mol)

>  <smiles>  (50) 
N#CCCCc1ccc2cc(C(N)=O)n(C(=O)O)c2c1

>  <score_type>  (50) 
oracle

>  <origin>  (50) 
adg

>  <m_score__min__energy>  (50) 
-6.9299999999999997

>  <m_primary>  (50) 
energy

$$$$
50:0
     RDKit          3D

 40 42  0  0  0  0  0  0  0  0999 V2000
  142.6920  160.5760  133.7100 N   0  0  0  0  0  0  0  0  0  0  0  0
  144.0790  160.9010  133.7300 C   0  0  0  0  0  0  0  0  0  0  0  0
  144.4260  162.0910  133.9560 O   0  0  0  0  0  0  0  0  0  0  0  0
  145.1160  159.8670  133.5150 C   0  0  0  0  0  0  0  0  0  0  0  0
  146.4780  160.1540  133.4450 C   0  0  0  0  0  0  0  0  0  0  0  0
  147.1000  158.9390  133.2720 C   0  0  0  0  0  0  0  0  0  0  0  0
  148.4510  158.6390  133.1160 C   0  0  0  0  0  0  0  0  0  0  0  0
  148.8070  157.2960  132.9120 C   0  0  0  0  0  0  0  0  0  0  0  0
  147.8150  156.2860  132.8580 C   0  0  0  0  0  0  0  0  0  0  0  0
  148.2160  154.8580  132.6160 C   0  0  0  0  0  0  0  0  0  0  0  0
  149.5920  154.7700  132.5260 F   0  0  0  0  0  0  0  0  0  0  0  0
  147.7750  154.0660  133.6600 F   0  0  0  0  0  0  0  0  0  0  0  0
  146.4540  156.6290  133.0150 C   0  0  0  0  0  0  0  0  0  0  0  0
  146.1300  157.9720  133.2410 C   0  0  0  0  0  0  0  0  0  0  0  0
  144.9060  158.5240  133.3960 N   0  0  0  0  0  0  0  0  0  0  0  0
  143.6520  157.8240  133.3830 C   0  0  0  0  0  0  0  0  0  0  0  0
  143.0370  157.6590  132.2950 O   0  0  0  0  0  0  0  0  0  0  0  0
  143.0670  157.2720  134.6520 C   0  0  0  0  0  0  0  0  0  0  0  0
  141.8580  158.0270  135.0350 N   0  0  0  0  0  0  0  0  0  0  0  0
  140.7840  157.1230  135.4750 C   0  0  0  0  0  0  0  0  0  0  0  0
  140.0390  157.8220  136.5930 C   0  0  0  0  0  0  0  0  0  0  0  0
  141.1110  158.6620  137.2560 C   0  0  2  0  0  0  0  0  0  0  0  0
  140.5900  159.8220  137.8590 O   0  0  0  0  0  0  0  0  0  0  0  0
  142.1070  158.9730  136.1410 C   0  0  0  0  0  0  0  0  0  0  0  0
  142.3730  159.5920  133.5810 H   0  0  0  0  0  0  0  0  0  0  0  0
  146.9549  161.1429  133.5136 H   0  0  0  0  0  0  0  0  0  0  0  0
  149.2153  159.4293  133.1515 H   0  0  0  0  0  0  0  0  0  0  0  0
  149.8666  157.0255  132.7930 H   0  0  0  0  0  0  0  0  0  0  0  0
  147.7628  154.5113  131.6755 H   0  0  0  0  0  0  0  0  0  0  0  0
  145.6687  155.8606  132.9611 H   0  0  0  0  0  0  0  0  0  0  0  0
  142.8007  156.2158  134.4984 H   0  0  0  0  0  0  0  0  0  0  0  0
  143.8123  157.3621  135.4560 H   0  0  0  0  0  0  0  0  0  0  0  0
  140.1001  156.9154  134.6388 H   0  0  0  0  0  0  0  0  0  0  0  0
  141.1982  156.1648  135.8217 H   0  0  0  0  0  0  0  0  0  0  0  0
  139.2333  158.4554  136.1935 H   0  0  0  0  0  0  0  0  0  0  0  0
  139.5504  157.1224  137.2872 H   0  0  0  0  0  0  0  0  0  0  0  0
  141.5909  158.1284  138.0896 H   0  0  0  0  0  0  0  0  0  0  0  0
  139.5990  159.7740  137.8160 H   0  0  0  0  0  0  0  0  0  0  0  0
  141.9643  160.0055  135.7893 H   0  0  0  0  0  0  0  0  0  0  0  0
  143.1387  158.8707  136.5085 H   0  0  0  0  0  0  0  0  0  0  0  0
  1  2  1  0
  2  3  2  0
  2  4  1  0
  4  5  2  0
  5  6  1  0
  6  7  2  0
  7  8  1  0
  8  9  2  0
  9 10  1  0
 10 11  1  0
 10 12  1  0
  9 13  1  0
 13 14  2  0
 14 15  1  0
 15 16  1  0
 16 17  2  0
 16 18  1  0
 18 19  1  0
 19 20  1  0
 20 21  1  0
 21 22  1  0
 22 23  1  0
 22 24  1  0
 15  4  1  0
 24 19  1  0
 14  6  1  0
  1 25  1  0
  5 26  1  0
  7 27  1  0
  8 28  1  0
 10 29  1  0
 13 30  1  0
 18 31  1  0
 18 32  1  0
 20 33  1  0
 20 34  1  0
 21 35  1  0
 21 36  1  0
 22 37  1  1
 23 38  1  0
 24 39  1  0
 24 40  1  0
M  CHG  1   1  -1
M  END
>  <UniqueID>  (51) 
51

>  <SMILES>  (51) 
[NH-]C(=O)c1cc2ccc(C(F)F)cc2n1C(=O)CN1CC[C@H](O)C1

>  <Energy>  (51) 
83.97170211539395

>  <Genealogy>  (51) 
[NH-]C(=O)c1cc2ccc(C(F)F)cc2n1C(=O)CN1CC[C@H](O)C1 (protonated)
[NH-]C(=O)c1cc2ccc(C(F)F)cc2n1C(=O)CN1CC[C@H](O)C1 (3D coordinates assigned)
[NH-]C(=O)c1cc2ccc(C(F)F)cc2n1C(=O)CN1CC[C@H](O)C1 (nonaromatic ring conformer: 83.97170211539395 kcal/mol)

>  <smiles>  (51) 
NC(=O)c1cc2ccc(C(F)F)cc2n1C(=O)CN1CC[C@H](O)C1

>  <score_type>  (51) 
oracle

>  <origin>  (51) 
adg

>  <m_score__min__energy>  (51) 
-6.8799999999999999

>  <m_primary>  (51) 
energy

$$$$
51:0
     RDKit          3D

 46 47  0  0  0  0  0  0  0  0999 V2000
  140.9780  159.3360  137.2380 C   0  0  0  0  0  0  0  0  0  0  0  0
  141.7030  158.0930  137.5590 N   0  0  0  0  0  0  0  0  0  0  0  0
  141.8190  157.9630  139.0210 C   0  0  0  0  0  0  0  0  0  0  0  0
  141.0100  156.9140  136.9950 C   0  0  0  0  0  0  0  0  0  0  0  0
  141.0470  156.9480  135.4590 C   0  0  0  0  0  0  0  0  0  0  0  0
  142.3340  156.3300  134.8920 C   0  0  0  0  0  0  0  0  0  0  0  0
  143.2430  157.3740  134.2950 C   0  0  0  0  0  0  0  0  0  0  0  0
  142.7250  158.6370  133.9120 C   0  0  0  0  0  0  0  0  0  0  0  0
  143.5710  159.6220  133.3770 C   0  0  0  0  0  0  0  0  0  0  0  0
  144.9240  159.3250  133.2520 C   0  0  0  0  0  0  0  0  0  0  0  0
  145.9570  160.0910  132.7630 C   0  0  0  0  0  0  0  0  0  0  0  0
  147.0970  159.3000  132.8880 C   0  0  0  0  0  0  0  0  0  0  0  0
  148.4640  159.7710  132.5740 C   0  0  0  0  0  0  0  0  0  0  0  0
  149.6060  159.0160  132.9820 N   0  0  0  0  0  0  0  0  0  0  0  0
  148.6340  160.8300  131.9130 O   0  0  0  0  0  0  0  0  0  0  0  0
  146.7800  158.0870  133.4260 N   0  0  0  0  0  0  0  0  0  0  0  0
  147.6620  156.9820  133.6870 C   0  0  0  0  0  0  0  0  0  0  0  0
  148.3030  156.9310  134.7710 O   0  0  0  0  0  0  0  0  0  0  0  0
  147.8190  155.9790  132.7230 O   0  0  0  0  0  0  0  0  0  0  0  0
  146.7830  155.0820  132.3240 C   0  0  0  0  0  0  0  0  0  0  0  0
  146.8410  153.7780  133.1270 C   0  0  0  0  0  0  0  0  0  0  0  0
  148.4560  153.0340  132.9830 Cl  0  0  0  0  0  0  0  0  0  0  0  0
  146.5290  154.1240  134.8460 Cl  0  0  0  0  0  0  0  0  0  0  0  0
  145.6160  152.6150  132.5580 Cl  0  0  0  0  0  0  0  0  0  0  0  0
  145.4460  158.1180  133.6430 C   0  0  0  0  0  0  0  0  0  0  0  0
  144.6220  157.1080  134.1540 C   0  0  0  0  0  0  0  0  0  0  0  0
  140.6839  159.8402  138.1704 H   0  0  0  0  0  0  0  0  0  0  0  0
  141.6304  160.0001  136.6521 H   0  0  0  0  0  0  0  0  0  0  0  0
  140.0788  159.0951  136.6521 H   0  0  0  0  0  0  0  0  0  0  0  0
  141.1623  158.6990  139.5078 H   0  0  0  0  0  0  0  0  0  0  0  0
  141.5205  156.9485  139.3237 H   0  0  0  0  0  0  0  0  0  0  0  0
  142.8609  158.1444  139.3237 H   0  0  0  0  0  0  0  0  0  0  0  0
  141.5077  155.9989  137.3484 H   0  0  0  0  0  0  0  0  0  0  0  0
  139.9607  156.9282  137.3247 H   0  0  0  0  0  0  0  0  0  0  0  0
  140.1845  156.3856  135.0720 H   0  0  0  0  0  0  0  0  0  0  0  0
  141.0137  158.0018  135.1453 H   0  0  0  0  0  0  0  0  0  0  0  0
  142.8688  155.8149  135.7036 H   0  0  0  0  0  0  0  0  0  0  0  0
  142.0520  155.6270  134.0943 H   0  0  0  0  0  0  0  0  0  0  0  0
  141.6522  158.8470  134.0349 H   0  0  0  0  0  0  0  0  0  0  0  0
  143.1751  160.6000  133.0658 H   0  0  0  0  0  0  0  0  0  0  0  0
  145.8957  161.1122  132.3588 H   0  0  0  0  0  0  0  0  0  0  0  0
  149.5090  158.1630  133.5760 H   0  0  0  0  0  0  0  0  0  0  0  0
  150.5660  159.3360  132.7220 H   0  0  0  0  0  0  0  0  0  0  0  0
  145.8078  155.5630  132.4904 H   0  0  0  0  0  0  0  0  0  0  0  0
  146.9200  154.8424  131.2592 H   0  0  0  0  0  0  0  0  0  0  0  0
  145.0392  156.1308  134.4387 H   0  0  0  0  0  0  0  0  0  0  0  0
  1  2  1  0
  2  3  1  0
  2  4  1  0
  4  5  1  0
  5  6  1  0
  6  7  1  0
  7  8  2  0
  8  9  1  0
  9 10  2  0
 10 11  1  0
 11 12  2  0
 12 13  1  0
 13 14  1  0
 13 15  2  0
 12 16  1  0
 16 17  1  0
 17 18  2  0
 17 19  1  0
 19 20  1  0
 20 21  1  0
 21 22  1  0
 21 23  1  0
 21 24  1  0
 16 25  1  0
 25 26  2  0
 26  7  1  0
 25 10  1  0
  1 27  1  0
  1 28  1  0
  1 29  1  0
  3 30  1  0
  3 31  1  0
  3 32  1  0
  4 33  1  0
  4 34  1  0
  5 35  1  0
  5 36  1  0
  6 37  1  0
  6 38  1  0
  8 39  1  0
  9 40  1  0
 11 41  1  0
 14 42  1  0
 14 43  1  0
 20 44  1  0
 20 45  1  0
 26 46  1  0
M  END
>  <UniqueID>  (52) 
52

>  <SMILES>  (52) 
CN(C)CCCc1ccc2cc(C(N)=O)n(C(=O)OCC(Cl)(Cl)Cl)c2c1

>  <Energy>  (52) 
77.69912075469159

>  <Genealogy>  (52) 
CN(C)CCCc1ccc2cc(C(N)=O)n(C(=O)OCC(Cl)(Cl)Cl)c2c1 (3D coordinates assigned)
CN(C)CCCc1ccc2cc(C(N)=O)n(C(=O)OCC(Cl)(Cl)Cl)c2c1 (optimized conformer: 77.69912075469159 kcal/mol)

>  <smiles>  (52) 
CN(C)CCCc1ccc2cc(C(N)=O)n(C(=O)OCC(Cl)(Cl)Cl)c2c1

>  <score_type>  (52) 
oracle

>  <origin>  (52) 
adg

>  <m_score__min__energy>  (52) 
-8.2599999999999998

>  <m_primary>  (52) 
energy

$$$$
52:0
     RDKit          3D

 67 69  0  0  0  0  0  0  0  0999 V2000
  144.9490  152.6460  132.2440 C   0  0  0  0  0  0  0  0  0  0  0  0
  144.0120  152.7430  133.3110 O   0  0  0  0  0  0  0  0  0  0  0  0
  143.3610  153.9410  133.6350 C   0  0  0  0  0  0  0  0  0  0  0  0
  142.3310  154.2970  132.9990 O   0  0  0  0  0  0  0  0  0  0  0  0
  143.8530  154.7820  134.7840 C   0  0  2  0  0  0  0  0  0  0  0  0
  145.2790  154.3760  135.2130 C   0  0  0  0  0  0  0  0  0  0  0  0
  146.3260  155.0910  134.3980 C   0  0  0  0  0  0  0  0  0  0  0  0
  147.4920  154.4060  133.9730 C   0  0  0  0  0  0  0  0  0  0  0  0
  148.4870  155.0730  133.2380 C   0  0  0  0  0  0  0  0  0  0  0  0
  148.2910  156.4210  132.9500 C   0  0  0  0  0  0  0  0  0  0  0  0
  149.0750  157.2980  132.2370 C   0  0  0  0  0  0  0  0  0  0  0  0
  148.3890  158.5120  132.2610 C   0  0  0  0  0  0  0  0  0  0  0  0
  148.9220  159.7610  131.6790 C   0  0  0  0  0  0  0  0  0  0  0  0
  148.0640  160.8640  131.3990 N   0  0  0  0  0  0  0  0  0  0  0  0
  150.1590  159.8730  131.4640 O   0  0  0  0  0  0  0  0  0  0  0  0
  147.2230  158.3870  132.9560 N   0  0  0  0  0  0  0  0  0  0  0  0
  146.1860  159.3630  133.1340 C   0  0  0  0  0  0  0  0  0  0  0  0
  146.4510  160.4720  133.6750 O   0  0  0  0  0  0  0  0  0  0  0  0
  144.8930  159.0900  132.6710 O   0  0  0  0  0  0  0  0  0  0  0  0
  143.8320  158.6320  133.5090 C   0  0  1  0  0  0  0  0  0  0  0  0
  142.7740  159.7440  133.6530 C   0  0  0  0  0  0  0  0  0  0  0  0
  141.4710  159.2770  134.3340 C   0  0  2  0  0  0  0  0  0  0  0  0
  141.6220  159.0870  135.8550 C   0  0  0  0  0  0  0  0  0  0  0  0
  140.5340  158.3820  136.3890 O   0  0  0  0  0  0  0  0  0  0  0  0
  140.9430  158.0280  133.6800 C   0  0  0  0  0  0  0  0  0  0  0  0
  139.7130  157.7630  133.7450 O   0  0  0  0  0  0  0  0  0  0  0  0
  141.8290  157.1210  133.0180 N   0  0  0  0  0  0  0  0  0  0  0  0
  143.2300  157.3930  132.9020 C   0  0  0  0  0  0  0  0  0  0  0  0
  143.9770  156.5540  132.3330 O   0  0  0  0  0  0  0  0  0  0  0  0
  147.1790  157.1030  133.3730 C   0  0  0  0  0  0  0  0  0  0  0  0
  146.1660  156.4590  134.0910 C   0  0  0  0  0  0  0  0  0  0  0  0
  142.9200  154.7330  135.9150 N   0  0  0  0  0  0  0  0  0  0  0  0
  141.7380  155.5280  136.0560 C   0  0  0  0  0  0  0  0  0  0  0  0
  140.8900  155.5750  135.1240 O   0  0  0  0  0  0  0  0  0  0  0  0
  141.5410  156.2330  137.2500 O   0  0  0  0  0  0  0  0  0  0  0  0
  141.4000  155.6610  138.5570 C   0  0  0  0  0  0  0  0  0  0  0  0
  142.4150  154.5170  138.7580 C   0  0  0  0  0  0  0  0  0  0  0  0
  141.7000  156.7710  139.5750 C   0  0  0  0  0  0  0  0  0  0  0  0
  139.9610  155.1570  138.7780 C   0  0  0  0  0  0  0  0  0  0  0  0
  145.9637  152.5410  132.6555 H   0  0  0  0  0  0  0  0  0  0  0  0
  144.7112  151.7677  131.6259 H   0  0  0  0  0  0  0  0  0  0  0  0
  144.8962  153.5544  131.6259 H   0  0  0  0  0  0  0  0  0  0  0  0
  143.9002  155.8241  134.4350 H   0  0  0  0  0  0  0  0  0  0  0  0
  145.4184  154.6286  136.2745 H   0  0  0  0  0  0  0  0  0  0  0  0
  145.3937  153.2943  135.0493 H   0  0  0  0  0  0  0  0  0  0  0  0
  147.6193  153.3419  134.2209 H   0  0  0  0  0  0  0  0  0  0  0  0
  149.3921  154.5466  132.9009 H   0  0  0  0  0  0  0  0  0  0  0  0
  150.0388  157.0866  131.7509 H   0  0  0  0  0  0  0  0  0  0  0  0
  147.6570  161.4390  132.1690 H   0  0  0  0  0  0  0  0  0  0  0  0
  144.2150  158.3873  134.5107 H   0  0  0  0  0  0  0  0  0  0  0  0
  143.2062  160.5588  134.2524 H   0  0  0  0  0  0  0  0  0  0  0  0
  142.5069  160.0667  132.6359 H   0  0  0  0  0  0  0  0  0  0  0  0
  140.7364  160.0839  134.1955 H   0  0  0  0  0  0  0  0  0  0  0  0
  142.5465  158.5261  136.0564 H   0  0  0  0  0  0  0  0  0  0  0  0
  141.6594  160.0796  136.3277 H   0  0  0  0  0  0  0  0  0  0  0  0
  140.4610  157.5470  135.8610 H   0  0  0  0  0  0  0  0  0  0  0  0
  141.4420  156.2470  132.5960 H   0  0  0  0  0  0  0  0  0  0  0  0
  145.2660  157.0059  134.4088 H   0  0  0  0  0  0  0  0  0  0  0  0
  142.5666  154.3461  139.8340 H   0  0  0  0  0  0  0  0  0  0  0  0
  142.0293  153.5984  138.2916 H   0  0  0  0  0  0  0  0  0  0  0  0
  143.3729  154.7906  138.2916 H   0  0  0  0  0  0  0  0  0  0  0  0
  141.5923  156.3724  140.5945 H   0  0  0  0  0  0  0  0  0  0  0  0
  142.7283  157.1335  139.4298 H   0  0  0  0  0  0  0  0  0  0  0  0
  140.9943  157.6022  139.4298 H   0  0  0  0  0  0  0  0  0  0  0  0
  139.7589  155.0862  139.8570 H   0  0  0  0  0  0  0  0  0  0  0  0
  139.2514  155.8601  138.3174 H   0  0  0  0  0  0  0  0  0  0  0  0
  139.8452  154.1648  138.3174 H   0  0  0  0  0  0  0  0  0  0  0  0
  1  2  1  0
  2  3  1  0
  3  4  2  0
  3  5  1  0
  5  6  1  0
  6  7  1  0
  7  8  2  0
  8  9  1  0
  9 10  2  0
 10 11  1  0
 11 12  2  0
 12 13  1  0
 13 14  1  0
 13 15  2  0
 12 16  1  0
 16 17  1  0
 17 18  2  0
 17 19  1  0
 19 20  1  0
 20 21  1  0
 21 22  1  0
 22 23  1  0
 23 24  1  0
 22 25  1  0
 25 26  2  0
 25 27  1  0
 27 28  1  0
 28 29  2  0
 16 30  1  0
 30 31  2  0
  5 32  1  0
 32 33  1  0
 33 34  2  0
 33 35  1  0
 35 36  1  0
 36 37  1  0
 36 38  1  0
 36 39  1  0
 31  7  1  0
 30 10  1  0
 28 20  1  0
  1 40  1  0
  1 41  1  0
  1 42  1  0
  5 43  1  6
  6 44  1  0
  6 45  1  0
  8 46  1  0
  9 47  1  0
 11 48  1  0
 14 49  1  0
 20 50  1  1
 21 51  1  0
 21 52  1  0
 22 53  1  1
 23 54  1  0
 23 55  1  0
 24 56  1  0
 27 57  1  0
 31 58  1  0
 37 59  1  0
 37 60  1  0
 37 61  1  0
 38 62  1  0
 38 63  1  0
 38 64  1  0
 39 65  1  0
 39 66  1  0
 39 67  1  0
M  CHG  2  14  -1  32  -1
M  END
>  <UniqueID>  (53) 
53

>  <SMILES>  (53) 
COC(=O)[C@H](Cc1ccc2cc(C([NH-])=O)n(C(=O)O[C@H]3C[C@H](CO)C(=O)NC3=O)c2c1)[N-]C(=O)OC(C)(C)C

>  <Energy>  (53) 
92.20983666290374

>  <Genealogy>  (53) 
COC(=O)[C@H](Cc1ccc2cc(C([NH-])=O)n(C(=O)OC3CC(CO)C(=O)NC3=O)c2c1)[N-]C(=O)OC(C)(C)C (protonated)
COC(=O)[C@H](Cc1ccc2cc(C([NH-])=O)n(C(=O)O[C@H]3C[C@H](CO)C(=O)NC3=O)c2c1)[N-]C(=O)OC(C)(C)C (chirality)
COC(=O)[C@H](Cc1ccc2cc(C([NH-])=O)n(C(=O)O[C@H]3C[C@H](CO)C(=O)NC3=O)c2c1)[N-]C(=O)OC(C)(C)C (3D coordinates assigned)
COC(=O)[C@H](Cc1ccc2cc(C([NH-])=O)n(C(=O)O[C@H]3C[C@H](CO)C(=O)NC3=O)c2c1)[N-]C(=O)OC(C)(C)C (nonaromatic ring conformer: 92.20983666290374 kcal/mol)

>  <smiles>  (53) 
COC(=O)[C@H](Cc1ccc2cc(C(N)=O)n(C(=O)OC3CC(CO)C(=O)NC3=O)c2c1)NC(=O)OC(C)(C)C

>  <score_type>  (53) 
oracle

>  <origin>  (53) 
adg

>  <m_score__min__energy>  (53) 
-8.9199999999999999

>  <m_primary>  (53) 
energy

$$$$
53:0
     RDKit          3D

 43 44  0  0  0  0  0  0  0  0999 V2000
  149.8710  158.9820  131.4820 C   0  0  0  0  0  0  0  0  0  0  0  0
  149.6280  160.0000  130.6070 C   0  0  0  0  0  0  0  0  0  0  0  0
  148.4830  160.9270  130.7960 C   0  0  0  0  0  0  0  0  0  0  0  0
  147.3790  160.1470  131.3470 O   0  0  0  0  0  0  0  0  0  0  0  0
  147.0360  159.9780  132.6980 C   0  0  0  0  0  0  0  0  0  0  0  0
  147.6920  160.5840  133.5890 O   0  0  0  0  0  0  0  0  0  0  0  0
  145.9360  159.1050  132.9980 N   0  0  0  0  0  0  0  0  0  0  0  0
  144.8160  159.4010  133.5900 C   0  0  0  0  0  0  0  0  0  0  0  0
  144.2350  160.7660  133.7790 C   0  0  0  0  0  0  0  0  0  0  0  0
  145.0810  161.8530  134.0900 N   0  0  0  0  0  0  0  0  0  0  0  0
  142.9670  160.9270  133.7220 O   0  0  0  0  0  0  0  0  0  0  0  0
  144.0960  158.2510  133.9330 C   0  0  0  0  0  0  0  0  0  0  0  0
  144.9220  157.2100  133.6650 C   0  0  0  0  0  0  0  0  0  0  0  0
  144.8420  155.8730  133.9350 C   0  0  0  0  0  0  0  0  0  0  0  0
  145.9890  155.0120  133.6570 C   0  0  0  0  0  0  0  0  0  0  0  0
  147.1310  155.6360  132.9920 C   0  0  0  0  0  0  0  0  0  0  0  0
  148.4700  154.9070  133.2420 C   0  0  0  0  0  0  0  0  0  0  0  0
  148.7190  153.8060  132.2360 C   0  0  0  0  0  0  0  0  0  0  0  0
  149.8620  153.0830  132.5800 N   0  0  0  0  0  0  0  0  0  0  0  0
  149.6000  151.3330  132.5850 S   0  0  0  0  0  0  0  0  0  0  0  0
  150.3860  150.6780  131.0890 C   0  0  0  0  0  0  0  0  0  0  0  0
  148.1470  151.0470  132.5510 O   0  0  0  0  0  0  0  0  0  0  0  0
  150.2490  150.7330  133.7540 O   0  0  0  0  0  0  0  0  0  0  0  0
  147.1740  157.0100  132.7150 C   0  0  0  0  0  0  0  0  0  0  0  0
  146.0500  157.7460  133.0370 C   0  0  0  0  0  0  0  0  0  0  0  0
  150.7259  158.3092  131.3193 H   0  0  0  0  0  0  0  0  0  0  0  0
  149.2120  158.8339  132.3502 H   0  0  0  0  0  0  0  0  0  0  0  0
  150.2945  160.1373  129.7427 H   0  0  0  0  0  0  0  0  0  0  0  0
  148.7608  161.7309  131.4935 H   0  0  0  0  0  0  0  0  0  0  0  0
  148.1944  161.3891  129.8404 H   0  0  0  0  0  0  0  0  0  0  0  0
  146.0170  161.9810  133.6170 H   0  0  0  0  0  0  0  0  0  0  0  0
  143.0736  158.2020  134.3358 H   0  0  0  0  0  0  0  0  0  0  0  0
  143.9202  155.4478  134.3588 H   0  0  0  0  0  0  0  0  0  0  0  0
  145.9929  153.9475  133.9343 H   0  0  0  0  0  0  0  0  0  0  0  0
  149.2889  155.6384  133.1762 H   0  0  0  0  0  0  0  0  0  0  0  0
  148.4222  154.4471  134.2401 H   0  0  0  0  0  0  0  0  0  0  0  0
  147.8528  153.1282  132.2185 H   0  0  0  0  0  0  0  0  0  0  0  0
  148.8665  154.2561  131.2432 H   0  0  0  0  0  0  0  0  0  0  0  0
  150.7460  153.3170  132.0090 H   0  0  0  0  0  0  0  0  0  0  0  0
  151.2026  149.9975  131.3718 H   0  0  0  0  0  0  0  0  0  0  0  0
  149.6412  150.1295  130.4936 H   0  0  0  0  0  0  0  0  0  0  0  0
  150.7912  151.5095  130.4936 H   0  0  0  0  0  0  0  0  0  0  0  0
  148.0602  157.4793  132.2630 H   0  0  0  0  0  0  0  0  0  0  0  0
  1  2  2  0
  2  3  1  0
  3  4  1  0
  4  5  1  0
  5  6  2  0
  5  7  1  0
  7  8  1  0
  8  9  1  0
  9 10  1  0
  9 11  2  0
  8 12  2  0
 12 13  1  0
 13 14  2  0
 14 15  1  0
 15 16  2  0
 16 17  1  0
 17 18  1  0
 18 19  1  0
 19 20  1  0
 20 21  1  0
 20 22  2  0
 20 23  2  0
 16 24  1  0
 24 25  2  0
 25  7  1  0
 25 13  1  0
  1 26  1  0
  1 27  1  0
  2 28  1  0
  3 29  1  0
  3 30  1  0
 10 31  1  0
 12 32  1  0
 14 33  1  0
 15 34  1  0
 17 35  1  0
 17 36  1  0
 18 37  1  0
 18 38  1  0
 19 39  1  0
 21 40  1  0
 21 41  1  0
 21 42  1  0
 24 43  1  0
M  CHG  1  10  -1
M  END
>  <UniqueID>  (54) 
54

>  <SMILES>  (54) 
C=CCOC(=O)n1c(C([NH-])=O)cc2ccc(CCNS(C)(=O)=O)cc21

>  <Energy>  (54) 
145.6916087015231

>  <Genealogy>  (54) 
C=CCOC(=O)n1c(C([NH-])=O)cc2ccc(CCNS(C)(=O)=O)cc21 (protonated)
C=CCOC(=O)n1c(C([NH-])=O)cc2ccc(CCNS(C)(=O)=O)cc21 (3D coordinates assigned)
C=CCOC(=O)n1c(C([NH-])=O)cc2ccc(CCNS(C)(=O)=O)cc21 (optimized conformer: 145.6916087015231 kcal/mol)

>  <smiles>  (54) 
C=CCOC(=O)n1c(C(N)=O)cc2ccc(CCNS(C)(=O)=O)cc21

>  <score_type>  (54) 
oracle

>  <origin>  (54) 
adg

>  <m_score__min__energy>  (54) 
-7.9800000000000004

>  <m_primary>  (54) 
energy

$$$$
54:0
     RDKit          3D

 65 70  0  0  0  0  0  0  0  0999 V2000
  143.9710  161.1280  133.8630 C   0  0  0  0  0  0  0  0  0  0  0  0
  145.2140  160.5740  134.2770 O   0  0  0  0  0  0  0  0  0  0  0  0
  145.8370  159.5280  133.5850 C   0  0  0  0  0  0  0  0  0  0  0  0
  145.1530  158.5900  133.0890 O   0  0  0  0  0  0  0  0  0  0  0  0
  147.3270  159.5570  133.3900 C   0  0  2  0  0  0  0  0  0  0  0  0
  147.7340  160.5410  132.2910 C   0  0  0  0  0  0  0  0  0  0  0  0
  148.5090  159.7170  131.2550 C   0  0  1  0  0  0  0  0  0  0  0  0
  149.9940  159.7390  131.4520 C   0  0  0  0  0  0  0  0  0  0  0  0
  149.9860  158.3940  131.8160 C   0  0  0  0  0  0  0  0  0  0  0  0
  148.4990  158.3420  131.6560 C   0  0  1  0  0  0  0  0  0  0  0  0
  147.8090  158.2600  132.9390 N   0  0  0  0  0  0  0  0  0  0  0  0
  147.7560  157.0810  133.7680 C   0  0  0  0  0  0  0  0  0  0  0  0
  148.3450  157.0850  134.8850 O   0  0  0  0  0  0  0  0  0  0  0  0
  146.9950  155.8430  133.3490 C   0  0  1  0  0  0  0  0  0  0  0  0
  147.9670  154.7010  132.9720 C   0  0  0  0  0  0  0  0  0  0  0  0
  147.3090  153.3050  132.9670 C   0  0  0  0  0  0  0  0  0  0  0  0
  145.7810  153.3770  132.8720 C   0  0  0  0  0  0  0  0  0  0  0  0
  145.1950  154.1390  134.0800 C   0  0  2  0  0  0  0  0  0  0  0  0
  143.7260  154.4480  133.8510 C   0  0  0  0  0  0  0  0  0  0  0  0
  142.8340  153.4460  133.3820 C   0  0  0  0  0  0  0  0  0  0  0  0
  141.4730  153.7290  133.1820 C   0  0  0  0  0  0  0  0  0  0  0  0
  141.0230  155.0120  133.4750 C   0  0  0  0  0  0  0  0  0  0  0  0
  139.7650  155.5560  133.3570 C   0  0  0  0  0  0  0  0  0  0  0  0
  139.8920  156.8760  133.7890 C   0  0  0  0  0  0  0  0  0  0  0  0
  138.7490  157.8050  133.9100 C   0  0  0  0  0  0  0  0  0  0  0  0
  138.0270  158.1970  132.7450 N   0  0  0  0  0  0  0  0  0  0  0  0
  138.3810  158.2330  135.0390 O   0  0  0  0  0  0  0  0  0  0  0  0
  141.1800  157.1380  134.1520 N   0  0  0  0  0  0  0  0  0  0  0  0
  141.7270  158.3900  134.5990 C   0  0  0  0  0  0  0  0  0  0  0  0
  142.3370  158.4470  135.7000 O   0  0  0  0  0  0  0  0  0  0  0  0
  141.6290  159.5200  133.7770 O   0  0  0  0  0  0  0  0  0  0  0  0
  140.7740  159.6390  132.6740 C   0  0  0  0  0  0  0  0  0  0  0  0
  139.7880  160.5480  132.5990 N   0  0  0  0  0  0  0  0  0  0  0  0
  139.2550  160.3680  131.3970 N   0  0  0  0  0  0  0  0  0  0  0  0
  139.8910  159.3970  130.7600 N   0  0  0  0  0  0  0  0  0  0  0  0
  140.8460  158.9230  131.5380 N   0  0  0  0  0  0  0  0  0  0  0  0
  141.8590  155.9870  133.9550 C   0  0  0  0  0  0  0  0  0  0  0  0
  143.2250  155.7390  134.1440 C   0  0  0  0  0  0  0  0  0  0  0  0
  146.0200  155.4030  134.4610 C   0  0  0  0  0  0  0  0  0  0  0  0
  143.3749  161.3937  134.7485 H   0  0  0  0  0  0  0  0  0  0  0  0
  144.1541  162.0297  133.2602 H   0  0  0  0  0  0  0  0  0  0  0  0
  143.4228  160.3890  133.2602 H   0  0  0  0  0  0  0  0  0  0  0  0
  147.7534  159.8464  134.3618 H   0  0  0  0  0  0  0  0  0  0  0  0
  146.8420  160.9919  131.8316 H   0  0  0  0  0  0  0  0  0  0  0  0
  148.3445  161.3638  132.6914 H   0  0  0  0  0  0  0  0  0  0  0  0
  148.0895  160.0745  130.3030 H   0  0  0  0  0  0  0  0  0  0  0  0
  150.7751  160.5068  131.3503 H   0  0  0  0  0  0  0  0  0  0  0  0
  150.7588  157.6661  132.1040 H   0  0  0  0  0  0  0  0  0  0  0  0
  148.0482  157.5403  131.0527 H   0  0  0  0  0  0  0  0  0  0  0  0
  146.4022  156.0863  132.4549 H   0  0  0  0  0  0  0  0  0  0  0  0
  148.3652  154.9012  131.9663 H   0  0  0  0  0  0  0  0  0  0  0  0
  148.7556  154.6828  133.7387 H   0  0  0  0  0  0  0  0  0  0  0  0
  147.6898  152.7385  132.1044 H   0  0  0  0  0  0  0  0  0  0  0  0
  147.5621  152.8127  133.9176 H   0  0  0  0  0  0  0  0  0  0  0  0
  145.5009  153.8991  131.9452 H   0  0  0  0  0  0  0  0  0  0  0  0
  145.3780  152.3535  132.8699 H   0  0  0  0  0  0  0  0  0  0  0  0
  145.2685  153.4761  134.9547 H   0  0  0  0  0  0  0  0  0  0  0  0
  143.2146  152.4354  133.1729 H   0  0  0  0  0  0  0  0  0  0  0  0
  140.7837  152.9591  132.8050 H   0  0  0  0  0  0  0  0  0  0  0  0
  138.8531  155.0563  132.9983 H   0  0  0  0  0  0  0  0  0  0  0  0
  138.3160  159.0350  132.1910 H   0  0  0  0  0  0  0  0  0  0  0  0
  141.5220  158.1750  131.2670 H   0  0  0  0  0  0  0  0  0  0  0  0
  143.8939  156.5308  134.5123 H   0  0  0  0  0  0  0  0  0  0  0  0
  145.3226  156.2293  134.6631 H   0  0  0  0  0  0  0  0  0  0  0  0
  146.6223  155.1490  135.3458 H   0  0  0  0  0  0  0  0  0  0  0  0
  1  2  1  0
  2  3  1  0
  3  4  2  0
  3  5  1  0
  5  6  1  0
  6  7  1  0
  7  8  1  0
  8  9  2  0
  9 10  1  0
 10 11  1  0
 11 12  1  0
 12 13  2  0
 12 14  1  0
 14 15  1  0
 15 16  1  0
 16 17  1  0
 17 18  1  0
 18 19  1  0
 19 20  2  0
 20 21  1  0
 21 22  2  0
 22 23  1  0
 23 24  2  0
 24 25  1  0
 25 26  1  0
 25 27  2  0
 24 28  1  0
 28 29  1  0
 29 30  2  0
 29 31  1  0
 31 32  1  0
 32 33  2  0
 33 34  1  0
 34 35  1  0
 35 36  2  0
 28 37  1  0
 37 38  2  0
 18 39  1  0
 11  5  1  0
 39 14  1  0
 10  7  1  0
 38 19  1  0
 37 22  1  0
 36 32  1  0
  1 40  1  0
  1 41  1  0
  1 42  1  0
  5 43  1  1
  6 44  1  0
  6 45  1  0
  7 46  1  6
  8 47  1  0
  9 48  1  0
 10 49  1  6
 14 50  1  6
 15 51  1  0
 15 52  1  0
 16 53  1  0
 16 54  1  0
 17 55  1  0
 17 56  1  0
 18 57  1  1
 20 58  1  0
 21 59  1  0
 23 60  1  0
 26 61  1  0
 36 62  1  0
 38 63  1  0
 39 64  1  0
 39 65  1  0
M  CHG  3  26  -1  34  -1  36   1
M  END
>  <UniqueID>  (55) 
55

>  <SMILES>  (55) 
COC(=O)[C@@H]1C[C@H]2C=C[C@H]2N1C(=O)[C@H]1CCC[C@H](c2ccc3cc(C([NH-])=O)n(C(=O)Oc4n[n-]n[nH+]4)c3c2)C1

>  <Energy>  (55) 
191.4814322152566

>  <Genealogy>  (55) 
COC(=O)[C@@H]1C[C@H]2C=C[C@H]2N1C(=O)C1CCCC(c2ccc3cc(C([NH-])=O)n(C(=O)Oc4n[n-]n[nH+]4)c3c2)C1 (protonated)
COC(=O)[C@@H]1C[C@H]2C=C[C@H]2N1C(=O)[C@H]1CCC[C@H](c2ccc3cc(C([NH-])=O)n(C(=O)Oc4n[n-]n[nH+]4)c3c2)C1 (chirality)
COC(=O)[C@@H]1C[C@H]2C=C[C@H]2N1C(=O)[C@H]1CCC[C@H](c2ccc3cc(C([NH-])=O)n(C(=O)Oc4n[n-]n[nH+]4)c3c2)C1 (3D coordinates assigned)
COC(=O)[C@@H]1C[C@H]2C=C[C@H]2N1C(=O)[C@H]1CCC[C@H](c2ccc3cc(C([NH-])=O)n(C(=O)Oc4n[n-]n[nH+]4)c3c2)C1 (nonaromatic ring conformer: 191.4814322152566 kcal/mol)

>  <smiles>  (55) 
COC(=O)[C@@H]1C[C@H]2C=C[C@H]2N1C(=O)C1CCCC(c2ccc3cc(C(N)=O)n(C(=O)Oc4nn[nH]n4)c3c2)C1

>  <score_type>  (55) 
oracle

>  <origin>  (55) 
adg

>  <m_score__min__energy>  (55) 
-11.789999999999999

>  <m_primary>  (55) 
energy

$$$$
55:0
     RDKit          3D

 77 80  0  0  0  0  0  0  0  0999 V2000
  149.7450  151.0870  131.2820 C   0  0  0  0  0  0  0  0  0  0  0  0
  148.9330  150.9550  132.4430 O   0  0  0  0  0  0  0  0  0  0  0  0
  147.6610  151.5230  132.5410 C   0  0  0  0  0  0  0  0  0  0  0  0
  146.6860  151.0120  131.9260 O   0  0  0  0  0  0  0  0  0  0  0  0
  147.4880  152.6690  133.3240 O   0  0  0  0  0  0  0  0  0  0  0  0
  148.5020  153.6580  133.5100 C   0  0  1  0  0  0  0  0  0  0  0  0
  148.2580  154.8500  132.5880 C   0  0  0  0  0  0  0  0  0  0  0  0
  148.4740  154.1170  134.8590 O   0  0  0  0  0  0  0  0  0  0  0  0
  147.3240  154.1090  135.6520 C   0  0  0  0  0  0  0  0  0  0  0  0
  147.2790  153.4210  136.7110 O   0  0  0  0  0  0  0  0  0  0  0  0
  146.1270  154.8870  135.1900 C   0  0  0  0  0  0  0  0  0  0  0  0
  144.8440  154.0550  135.1720 C   0  0  0  0  0  0  0  0  0  0  0  0
  144.9800  153.0030  134.2220 O   0  0  0  0  0  0  0  0  0  0  0  0
  144.3020  152.9870  133.0000 C   0  0  0  0  0  0  0  0  0  0  0  0
  144.9480  152.9850  131.9160 O   0  0  0  0  0  0  0  0  0  0  0  0
  142.8630  152.9600  132.9820 N   0  0  0  0  0  0  0  0  0  0  0  0
  142.0560  151.9000  132.6920 C   0  0  0  0  0  0  0  0  0  0  0  0
  142.4830  150.4940  132.5440 C   0  0  0  0  0  0  0  0  0  0  0  0
  143.8390  150.1660  132.2530 N   0  0  0  0  0  0  0  0  0  0  0  0
  141.6530  149.5650  132.7390 O   0  0  0  0  0  0  0  0  0  0  0  0
  140.7210  152.2970  132.6550 C   0  0  0  0  0  0  0  0  0  0  0  0
  140.7310  153.6400  132.9520 C   0  0  0  0  0  0  0  0  0  0  0  0
  139.6730  154.5380  133.0680 C   0  0  0  0  0  0  0  0  0  0  0  0
  139.9730  155.8690  133.3950 C   0  0  0  0  0  0  0  0  0  0  0  0
  141.3140  156.2810  133.5860 C   0  0  0  0  0  0  0  0  0  0  0  0
  141.6200  157.6910  134.0200 C   0  0  0  0  0  0  0  0  0  0  0  0
  142.7400  158.3030  133.1720 C   0  0  0  0  0  0  0  0  0  0  0  0
  142.9450  159.7210  133.5070 N   0  0  0  0  0  0  0  0  0  0  0  0
  141.7930  160.6070  133.6970 C   0  0  0  0  0  0  0  0  0  0  0  0
  144.2760  160.2450  133.6540 C   0  0  0  0  0  0  0  0  0  0  0  0
  144.4590  161.4940  133.7090 O   0  0  0  0  0  0  0  0  0  0  0  0
  145.3670  159.3700  133.7630 O   0  0  0  0  0  0  0  0  0  0  0  0
  146.4540  159.3490  132.8360 C   0  0  1  0  0  0  0  0  0  0  0  0
  147.4740  160.4670  133.1910 C   0  0  0  0  0  0  0  0  0  0  0  0
  148.8420  159.9160  133.3520 N   0  0  0  0  0  0  0  0  0  0  0  0
  148.8490  158.9540  134.4820 C   0  0  0  0  0  0  0  0  0  0  0  0
  147.8440  157.7990  134.2400 C   0  0  0  0  0  0  0  0  0  0  0  0
  147.1790  157.9830  132.8620 C   0  0  0  0  0  0  0  0  0  0  0  0
  148.2980  158.0230  131.8040 C   0  0  0  0  0  0  0  0  0  0  0  0
  149.2430  159.2160  132.1060 C   0  0  0  0  0  0  0  0  0  0  0  0
  142.3630  155.3450  133.4480 C   0  0  0  0  0  0  0  0  0  0  0  0
  142.0350  154.0180  133.1430 C   0  0  0  0  0  0  0  0  0  0  0  0
  150.7895  151.2568  131.5824 H   0  0  0  0  0  0  0  0  0  0  0  0
  149.6807  150.1666  130.6830 H   0  0  0  0  0  0  0  0  0  0  0  0
  149.3925  151.9396  130.6830 H   0  0  0  0  0  0  0  0  0  0  0  0
  149.4780  153.2074  133.2769 H   0  0  0  0  0  0  0  0  0  0  0  0
  148.0738  155.7499  133.1931 H   0  0  0  0  0  0  0  0  0  0  0  0
  149.1421  155.0096  131.9533 H   0  0  0  0  0  0  0  0  0  0  0  0
  147.3823  154.6494  131.9533 H   0  0  0  0  0  0  0  0  0  0  0  0
  145.9813  155.7412  135.8676 H   0  0  0  0  0  0  0  0  0  0  0  0
  146.3236  155.2108  134.1573 H   0  0  0  0  0  0  0  0  0  0  0  0
  144.6685  153.6283  136.1705 H   0  0  0  0  0  0  0  0  0  0  0  0
  143.9932  154.6948  134.8949 H   0  0  0  0  0  0  0  0  0  0  0  0
  144.4900  150.8770  131.8480 H   0  0  0  0  0  0  0  0  0  0  0  0
  139.8448  151.6695  132.4349 H   0  0  0  0  0  0  0  0  0  0  0  0
  138.6341  154.2138  132.9082 H   0  0  0  0  0  0  0  0  0  0  0  0
  139.1581  156.5998  133.5041 H   0  0  0  0  0  0  0  0  0  0  0  0
  140.7130  158.3040  133.9123 H   0  0  0  0  0  0  0  0  0  0  0  0
  141.9512  157.6677  135.0687 H   0  0  0  0  0  0  0  0  0  0  0  0
  143.6734  157.7515  133.3580 H   0  0  0  0  0  0  0  0  0  0  0  0
  142.4534  158.2327  132.1123 H   0  0  0  0  0  0  0  0  0  0  0  0
  141.6114  160.7467  134.7729 H   0  0  0  0  0  0  0  0  0  0  0  0
  141.9991  161.5816  133.2304 H   0  0  0  0  0  0  0  0  0  0  0  0
  140.9040  160.1577  133.2304 H   0  0  0  0  0  0  0  0  0  0  0  0
  146.0439  159.5171  131.8292 H   0  0  0  0  0  0  0  0  0  0  0  0
  147.4814  161.2148  132.3844 H   0  0  0  0  0  0  0  0  0  0  0  0
  147.1696  160.9255  134.1434 H   0  0  0  0  0  0  0  0  0  0  0  0
  149.8598  158.5337  134.5893 H   0  0  0  0  0  0  0  0  0  0  0  0
  148.5525  159.4883  135.3966 H   0  0  0  0  0  0  0  0  0  0  0  0
  148.3767  156.8370  134.2654 H   0  0  0  0  0  0  0  0  0  0  0  0
  147.0738  157.8100  135.0253 H   0  0  0  0  0  0  0  0  0  0  0  0
  146.4674  157.1676  132.6652 H   0  0  0  0  0  0  0  0  0  0  0  0
  148.8693  157.0836  131.8370 H   0  0  0  0  0  0  0  0  0  0  0  0
  147.8568  158.1449  130.8038 H   0  0  0  0  0  0  0  0  0  0  0  0
  150.2704  158.8400  132.2204 H   0  0  0  0  0  0  0  0  0  0  0  0
  149.1819  159.9291  131.2706 H   0  0  0  0  0  0  0  0  0  0  0  0
  143.4117  155.6509  133.5769 H   0  0  0  0  0  0  0  0  0  0  0  0
  1  2  1  0
  2  3  1  0
  3  4  2  0
  3  5  1  0
  5  6  1  0
  6  7  1  0
  6  8  1  0
  8  9  1  0
  9 10  2  0
  9 11  1  0
 11 12  1  0
 12 13  1  0
 13 14  1  0
 14 15  2  0
 14 16  1  0
 16 17  1  0
 17 18  1  0
 18 19  1  0
 18 20  2  0
 17 21  2  0
 21 22  1  0
 22 23  2  0
 23 24  1  0
 24 25  2  0
 25 26  1  0
 26 27  1  0
 27 28  1  0
 28 29  1  0
 28 30  1  0
 30 31  2  0
 30 32  1  0
 32 33  1  0
 33 34  1  0
 34 35  1  0
 35 36  1  0
 36 37  1  0
 37 38  1  0
 38 39  1  0
 39 40  1  0
 25 41  1  0
 41 42  2  0
 42 16  1  0
 42 22  1  0
 38 33  1  0
 40 35  1  0
  1 43  1  0
  1 44  1  0
  1 45  1  0
  6 46  1  6
  7 47  1  0
  7 48  1  0
  7 49  1  0
 11 50  1  0
 11 51  1  0
 12 52  1  0
 12 53  1  0
 19 54  1  0
 21 55  1  0
 23 56  1  0
 24 57  1  0
 26 58  1  0
 26 59  1  0
 27 60  1  0
 27 61  1  0
 29 62  1  0
 29 63  1  0
 29 64  1  0
 33 65  1  6
 34 66  1  0
 34 67  1  0
 36 68  1  0
 36 69  1  0
 37 70  1  0
 37 71  1  0
 38 72  1  0
 39 73  1  0
 39 74  1  0
 40 75  1  0
 40 76  1  0
 41 77  1  0
M  CHG  1  19  -1
M  END
>  <UniqueID>  (56) 
56

>  <SMILES>  (56) 
COC(=O)O[C@@H](C)OC(=O)CCOC(=O)n1c(C([NH-])=O)cc2ccc(CCN(C)C(=O)O[C@H]3CN4CCC3CC4)cc21

>  <Energy>  (56) 
111.22181337770496

>  <Genealogy>  (56) 
COC(=O)OC(C)OC(=O)CCOC(=O)n1c(C([NH-])=O)cc2ccc(CCN(C)C(=O)O[C@H]3CN4CCC3CC4)cc21 (protonated)
COC(=O)O[C@@H](C)OC(=O)CCOC(=O)n1c(C([NH-])=O)cc2ccc(CCN(C)C(=O)O[C@H]3CN4CCC3CC4)cc21 (chirality)
COC(=O)O[C@@H](C)OC(=O)CCOC(=O)n1c(C([NH-])=O)cc2ccc(CCN(C)C(=O)O[C@H]3CN4CCC3CC4)cc21 (3D coordinates assigned)
COC(=O)O[C@@H](C)OC(=O)CCOC(=O)n1c(C([NH-])=O)cc2ccc(CCN(C)C(=O)O[C@H]3CN4CCC3CC4)cc21 (nonaromatic ring conformer: 111.22181337770496 kcal/mol)

>  <smiles>  (56) 
COC(=O)OC(C)OC(=O)CCOC(=O)n1c(C(N)=O)cc2ccc(CCN(C)C(=O)O[C@H]3CN4CCC3CC4)cc21

>  <score_type>  (56) 
oracle

>  <origin>  (56) 
adg

>  <m_score__min__energy>  (56) 
-8.7200000000000006

>  <m_primary>  (56) 
energy

$$$$
56:0
     RDKit          3D

 52 53  0  0  0  0  0  0  0  0999 V2000
  141.5380  157.3000  138.3820 C   0  0  0  0  0  0  0  0  0  0  0  0
  140.4040  156.7610  137.5150 C   0  0  0  0  0  0  0  0  0  0  0  0
  139.8140  157.8620  136.6280 C   0  0  0  0  0  0  0  0  0  0  0  0
  140.6780  159.1260  136.6730 C   0  0  0  0  0  0  0  0  0  0  0  0
  141.8230  158.9930  135.7790 N   0  0  0  0  0  0  0  0  0  0  0  0
  141.7100  158.8850  134.3570 C   0  0  0  0  0  0  0  0  0  0  0  0
  142.0960  159.8290  133.6160 O   0  0  0  0  0  0  0  0  0  0  0  0
  141.1390  157.7040  133.7720 N   0  0  0  0  0  0  0  0  0  0  0  0
  140.1160  157.6290  132.8740 C   0  0  0  0  0  0  0  0  0  0  0  0
  139.4750  158.7710  132.1900 C   0  0  0  0  0  0  0  0  0  0  0  0
  140.2530  159.7360  131.4860 N   0  0  0  0  0  0  0  0  0  0  0  0
  138.2190  158.8730  132.1890 O   0  0  0  0  0  0  0  0  0  0  0  0
  139.7910  156.2980  132.6170 C   0  0  0  0  0  0  0  0  0  0  0  0
  140.6580  155.5560  133.3850 C   0  0  0  0  0  0  0  0  0  0  0  0
  140.7720  154.1770  133.5260 C   0  0  0  0  0  0  0  0  0  0  0  0
  141.7380  153.6820  134.4180 C   0  0  0  0  0  0  0  0  0  0  0  0
  142.5640  154.5710  135.1610 C   0  0  0  0  0  0  0  0  0  0  0  0
  143.5440  154.0900  136.1000 N   0  0  0  0  0  0  0  0  0  0  0  0
  143.2480  153.6650  137.4690 C   0  0  0  0  0  0  0  0  0  0  0  0
  141.7510  153.3830  137.6540 C   0  0  0  0  0  0  0  0  0  0  0  0
  141.5340  152.0270  138.1810 N   0  0  0  0  0  0  0  0  0  0  0  0
  142.0850  151.6790  139.4960 C   0  0  0  0  0  0  0  0  0  0  0  0
  140.7290  151.0720  137.4510 C   0  0  0  0  0  0  0  0  0  0  0  0
  139.5880  150.3500  138.1030 C   0  0  0  0  0  0  0  0  0  0  0  0
  140.9770  150.8310  136.2380 O   0  0  0  0  0  0  0  0  0  0  0  0
  142.4200  155.9640  134.9800 C   0  0  0  0  0  0  0  0  0  0  0  0
  141.4610  156.4270  134.0720 C   0  0  0  0  0  0  0  0  0  0  0  0
  141.2783  157.1765  139.4437 H   0  0  0  0  0  0  0  0  0  0  0  0
  142.4622  156.7448  138.1637 H   0  0  0  0  0  0  0  0  0  0  0  0
  141.6911  158.3672  138.1637 H   0  0  0  0  0  0  0  0  0  0  0  0
  140.7931  155.9550  136.8755 H   0  0  0  0  0  0  0  0  0  0  0  0
  139.6099  156.3826  138.1755 H   0  0  0  0  0  0  0  0  0  0  0  0
  139.7617  157.4989  135.5910 H   0  0  0  0  0  0  0  0  0  0  0  0
  138.8094  158.1111  137.0006 H   0  0  0  0  0  0  0  0  0  0  0  0
  140.0728  159.9897  136.3604 H   0  0  0  0  0  0  0  0  0  0  0  0
  141.0432  159.2715  137.7004 H   0  0  0  0  0  0  0  0  0  0  0  0
  141.2910  159.7690  131.5890 H   0  0  0  0  0  0  0  0  0  0  0  0
  139.0075  155.9211  131.9431 H   0  0  0  0  0  0  0  0  0  0  0  0
  140.1249  153.4941  132.9560 H   0  0  0  0  0  0  0  0  0  0  0  0
  141.8571  152.5957  134.5433 H   0  0  0  0  0  0  0  0  0  0  0  0
  144.5470  154.0750  135.8050 H   0  0  0  0  0  0  0  0  0  0  0  0
  143.8152  152.7489  137.6903 H   0  0  0  0  0  0  0  0  0  0  0  0
  143.5357  154.4760  138.1542 H   0  0  0  0  0  0  0  0  0  0  0  0
  141.3310  154.1151  138.3594 H   0  0  0  0  0  0  0  0  0  0  0  0
  141.2544  153.4637  136.6758 H   0  0  0  0  0  0  0  0  0  0  0  0
  141.4370  152.0883  140.2851 H   0  0  0  0  0  0  0  0  0  0  0  0
  142.1359  150.5846  139.5943 H   0  0  0  0  0  0  0  0  0  0  0  0
  143.0951  152.1033  139.5943 H   0  0  0  0  0  0  0  0  0  0  0  0
  139.6901  150.4146  139.1963 H   0  0  0  0  0  0  0  0  0  0  0  0
  138.6382  150.8118  137.7955 H   0  0  0  0  0  0  0  0  0  0  0  0
  139.5987  149.2939  137.7955 H   0  0  0  0  0  0  0  0  0  0  0  0
  143.0488  156.6708  135.5413 H   0  0  0  0  0  0  0  0  0  0  0  0
  1  2  1  0
  2  3  1  0
  3  4  1  0
  4  5  1  0
  5  6  1  0
  6  7  2  0
  6  8  1  0
  8  9  1  0
  9 10  1  0
 10 11  1  0
 10 12  2  0
  9 13  2  0
 13 14  1  0
 14 15  2  0
 15 16  1  0
 16 17  2  0
 17 18  1  0
 18 19  1  0
 19 20  1  0
 20 21  1  0
 21 22  1  0
 21 23  1  0
 23 24  1  0
 23 25  2  0
 17 26  1  0
 26 27  2  0
 27  8  1  0
 27 14  1  0
  1 28  1  0
  1 29  1  0
  1 30  1  0
  2 31  1  0
  2 32  1  0
  3 33  1  0
  3 34  1  0
  4 35  1  0
  4 36  1  0
 11 37  1  0
 13 38  1  0
 15 39  1  0
 16 40  1  0
 18 41  1  0
 19 42  1  0
 19 43  1  0
 20 44  1  0
 20 45  1  0
 22 46  1  0
 22 47  1  0
 22 48  1  0
 24 49  1  0
 24 50  1  0
 24 51  1  0
 26 52  1  0
M  CHG  2   5  -1  11  -1
M  END
>  <UniqueID>  (57) 
57

>  <SMILES>  (57) 
CCCC[N-]C(=O)n1c(C([NH-])=O)cc2ccc(NCCN(C)C(C)=O)cc21

>  <Energy>  (57) 
76.069873503225

>  <Genealogy>  (57) 
CCCC[N-]C(=O)n1c(C([NH-])=O)cc2ccc(NCCN(C)C(C)=O)cc21 (protonated)
CCCC[N-]C(=O)n1c(C([NH-])=O)cc2ccc(NCCN(C)C(C)=O)cc21 (3D coordinates assigned)
CCCC[N-]C(=O)n1c(C([NH-])=O)cc2ccc(NCCN(C)C(C)=O)cc21 (optimized conformer: 76.069873503225 kcal/mol)

>  <smiles>  (57) 
CCCCNC(=O)n1c(C(N)=O)cc2ccc(NCCN(C)C(C)=O)cc21

>  <score_type>  (57) 
oracle

>  <origin>  (57) 
adg

>  <m_score__min__energy>  (57) 
-8.0199999999999996

>  <m_primary>  (57) 
energy

$$$$
57:0
     RDKit          3D

 40 41  0  0  0  0  0  0  0  0999 V2000
  140.2480  158.7140  135.0810 C   0  0  0  0  0  0  0  0  0  0  0  0
  140.3020  158.8600  133.6220 N   0  0  0  0  0  0  0  0  0  0  0  0
  141.2980  159.7620  133.0220 C   0  0  0  0  0  0  0  0  0  0  0  0
  142.4490  160.0390  133.9970 C   0  0  0  0  0  0  0  0  0  0  0  0
  143.5890  159.0780  133.7840 C   0  0  0  0  0  0  0  0  0  0  0  0
  143.4440  157.7150  134.1490 C   0  0  0  0  0  0  0  0  0  0  0  0
  144.5070  156.8110  133.9810 C   0  0  0  0  0  0  0  0  0  0  0  0
  145.7020  157.3010  133.4610 C   0  0  0  0  0  0  0  0  0  0  0  0
  146.8860  156.6510  133.1880 C   0  0  0  0  0  0  0  0  0  0  0  0
  147.7400  157.6350  132.6900 C   0  0  0  0  0  0  0  0  0  0  0  0
  149.1480  157.3860  132.3120 C   0  0  0  0  0  0  0  0  0  0  0  0
  150.0250  158.4640  131.9940 N   0  0  0  0  0  0  0  0  0  0  0  0
  149.5910  156.2060  132.2930 O   0  0  0  0  0  0  0  0  0  0  0  0
  147.1050  158.8390  132.6530 N   0  0  0  0  0  0  0  0  0  0  0  0
  147.6170  160.0930  132.1880 C   0  0  0  0  0  0  0  0  0  0  0  0
  147.7120  161.0630  132.9850 O   0  0  0  0  0  0  0  0  0  0  0  0
  147.9450  160.2850  130.7420 C   0  0  0  0  0  0  0  0  0  0  0  0
  149.4290  161.2560  130.5960 Cl  0  0  0  0  0  0  0  0  0  0  0  0
  145.8620  158.6190  133.1270 C   0  0  0  0  0  0  0  0  0  0  0  0
  144.8190  159.5390  133.2670 C   0  0  0  0  0  0  0  0  0  0  0  0
  139.4050  158.1100  132.7690 C   0  0  0  0  0  0  0  0  0  0  0  0
  139.5940  156.8760  132.5930 O   0  0  0  0  0  0  0  0  0  0  0  0
  138.2710  158.7630  132.0320 C   0  0  0  0  0  0  0  0  0  0  0  0
  138.9130  159.7650  130.7100 Cl  0  0  0  0  0  0  0  0  0  0  0  0
  140.5923  159.6447  135.5556 H   0  0  0  0  0  0  0  0  0  0  0  0
  139.2133  158.5055  135.3906 H   0  0  0  0  0  0  0  0  0  0  0  0
  140.8980  157.8823  135.3906 H   0  0  0  0  0  0  0  0  0  0  0  0
  141.7026  159.2959  132.1114 H   0  0  0  0  0  0  0  0  0  0  0  0
  140.8060  160.7160  132.7817 H   0  0  0  0  0  0  0  0  0  0  0  0
  142.8117  161.0657  133.8409 H   0  0  0  0  0  0  0  0  0  0  0  0
  142.0737  159.9110  135.0230 H   0  0  0  0  0  0  0  0  0  0  0  0
  142.4900  157.3620  134.5677 H   0  0  0  0  0  0  0  0  0  0  0  0
  144.3983  155.7504  134.2517 H   0  0  0  0  0  0  0  0  0  0  0  0
  147.1099  155.5837  133.3321 H   0  0  0  0  0  0  0  0  0  0  0  0
  150.9320  158.5850  132.4960 H   0  0  0  0  0  0  0  0  0  0  0  0
  148.0998  159.3047  130.2676 H   0  0  0  0  0  0  0  0  0  0  0  0
  147.1146  160.8061  130.2431 H   0  0  0  0  0  0  0  0  0  0  0  0
  144.9530  160.5930  132.9822 H   0  0  0  0  0  0  0  0  0  0  0  0
  137.6109  157.9878  131.6158 H   0  0  0  0  0  0  0  0  0  0  0  0
  137.7024  159.3981  132.7273 H   0  0  0  0  0  0  0  0  0  0  0  0
  1  2  1  0
  2  3  1  0
  3  4  1  0
  4  5  1  0
  5  6  2  0
  6  7  1  0
  7  8  2  0
  8  9  1  0
  9 10  2  0
 10 11  1  0
 11 12  1  0
 11 13  2  0
 10 14  1  0
 14 15  1  0
 15 16  2  0
 15 17  1  0
 17 18  1  0
 14 19  1  0
 19 20  2  0
  2 21  1  0
 21 22  2  0
 21 23  1  0
 23 24  1  0
 20  5  1  0
 19  8  1  0
  1 25  1  0
  1 26  1  0
  1 27  1  0
  3 28  1  0
  3 29  1  0
  4 30  1  0
  4 31  1  0
  6 32  1  0
  7 33  1  0
  9 34  1  0
 12 35  1  0
 17 36  1  0
 17 37  1  0
 20 38  1  0
 23 39  1  0
 23 40  1  0
M  CHG  1  12  -1
M  END
>  <UniqueID>  (58) 
58

>  <SMILES>  (58) 
CN(CCc1ccc2cc(C([NH-])=O)n(C(=O)CCl)c2c1)C(=O)CCl

>  <Energy>  (58) 
70.73235345495075

>  <Genealogy>  (58) 
CN(CCc1ccc2cc(C([NH-])=O)n(C(=O)CCl)c2c1)C(=O)CCl (protonated)
CN(CCc1ccc2cc(C([NH-])=O)n(C(=O)CCl)c2c1)C(=O)CCl (3D coordinates assigned)
CN(CCc1ccc2cc(C([NH-])=O)n(C(=O)CCl)c2c1)C(=O)CCl (optimized conformer: 70.73235345495075 kcal/mol)

>  <smiles>  (58) 
CN(CCc1ccc2cc(C(N)=O)n(C(=O)CCl)c2c1)C(=O)CCl

>  <score_type>  (58) 
oracle

>  <origin>  (58) 
adg

>  <m_score__min__energy>  (58) 
-7.4500000000000002

>  <m_primary>  (58) 
energy

$$$$
58:0
     RDKit          3D

 34 35  0  0  0  0  0  0  0  0999 V2000
  149.2170  160.5270  129.9740 C   0  0  0  0  0  0  0  0  0  0  0  0
  148.2350  160.3640  130.9740 O   0  0  0  0  0  0  0  0  0  0  0  0
  148.7840  159.7160  132.1060 C   0  0  0  0  0  0  0  0  0  0  0  0
  147.8650  159.9000  133.3190 C   0  0  0  0  0  0  0  0  0  0  0  0
  146.5360  160.3700  132.9040 N   0  0  0  0  0  0  0  0  0  0  0  0
  145.5360  159.3940  133.2570 C   0  0  0  0  0  0  0  0  0  0  0  0
  145.8230  158.0080  133.1530 C   0  0  0  0  0  0  0  0  0  0  0  0
  144.8500  157.0480  133.4770 C   0  0  0  0  0  0  0  0  0  0  0  0
  143.5980  157.5000  133.8840 C   0  0  0  0  0  0  0  0  0  0  0  0
  142.4860  156.7880  134.2740 C   0  0  0  0  0  0  0  0  0  0  0  0
  141.5220  157.7480  134.5760 C   0  0  0  0  0  0  0  0  0  0  0  0
  140.1340  157.4120  134.9560 C   0  0  0  0  0  0  0  0  0  0  0  0
  139.5850  157.8550  136.1920 N   0  0  0  0  0  0  0  0  0  0  0  0
  139.4070  156.7680  134.1520 O   0  0  0  0  0  0  0  0  0  0  0  0
  142.0200  159.0030  134.3900 N   0  0  0  0  0  0  0  0  0  0  0  0
  141.3770  160.2550  134.6800 C   0  0  0  0  0  0  0  0  0  0  0  0
  141.3690  161.1790  133.8260 O   0  0  0  0  0  0  0  0  0  0  0  0
  140.7830  160.4680  135.9180 O   0  0  0  0  0  0  0  0  0  0  0  0
  143.2920  158.8340  133.9630 C   0  0  0  0  0  0  0  0  0  0  0  0
  144.2480  159.8120  133.6650 C   0  0  0  0  0  0  0  0  0  0  0  0
  150.1973  160.6897  130.4458 H   0  0  0  0  0  0  0  0  0  0  0  0
  149.2567  159.6232  129.3483 H   0  0  0  0  0  0  0  0  0  0  0  0
  148.9626  161.3952  129.3483 H   0  0  0  0  0  0  0  0  0  0  0  0
  148.8934  158.6425  131.8926 H   0  0  0  0  0  0  0  0  0  0  0  0
  149.7667  160.1565  132.3302 H   0  0  0  0  0  0  0  0  0  0  0  0
  147.7598  158.9371  133.8404 H   0  0  0  0  0  0  0  0  0  0  0  0
  148.3109  160.6520  133.9866 H   0  0  0  0  0  0  0  0  0  0  0  0
  146.5240  160.5270  131.8680 H   0  0  0  0  0  0  0  0  0  0  0  0
  146.3200  161.2810  133.3720 H   0  0  0  0  0  0  0  0  0  0  0  0
  146.8178  157.6821  132.8151 H   0  0  0  0  0  0  0  0  0  0  0  0
  145.0707  155.9724  133.4111 H   0  0  0  0  0  0  0  0  0  0  0  0
  142.3809  155.6947  134.3343 H   0  0  0  0  0  0  0  0  0  0  0  0
  139.3810  158.8650  136.3590 H   0  0  0  0  0  0  0  0  0  0  0  0
  144.0031  160.8813  133.7463 H   0  0  0  0  0  0  0  0  0  0  0  0
  1  2  1  0
  2  3  1  0
  3  4  1  0
  4  5  1  0
  5  6  1  0
  6  7  2  0
  7  8  1  0
  8  9  2  0
  9 10  1  0
 10 11  2  0
 11 12  1  0
 12 13  1  0
 12 14  2  0
 11 15  1  0
 15 16  1  0
 16 17  2  0
 16 18  1  0
 15 19  1  0
 19 20  2  0
 20  6  1  0
 19  9  1  0
  1 21  1  0
  1 22  1  0
  1 23  1  0
  3 24  1  0
  3 25  1  0
  4 26  1  0
  4 27  1  0
  5 28  1  0
  5 29  1  0
  7 30  1  0
  8 31  1  0
 10 32  1  0
 13 33  1  0
 20 34  1  0
M  CHG  3   5   1  13  -1  18  -1
M  END
>  <UniqueID>  (59) 
59

>  <SMILES>  (59) 
COCC[NH2+]c1ccc2cc(C([NH-])=O)n(C(=O)[O-])c2c1

>  <Energy>  (59) 
74.58786805633537

>  <Genealogy>  (59) 
COCC[NH2+]c1ccc2cc(C([NH-])=O)n(C(=O)[O-])c2c1 (protonated)
COCC[NH2+]c1ccc2cc(C([NH-])=O)n(C(=O)[O-])c2c1 (3D coordinates assigned)
COCC[NH2+]c1ccc2cc(C([NH-])=O)n(C(=O)[O-])c2c1 (optimized conformer: 74.58786805633537 kcal/mol)

>  <smiles>  (59) 
COCCNc1ccc2cc(C(N)=O)n(C(=O)O)c2c1

>  <score_type>  (59) 
oracle

>  <origin>  (59) 
adg

>  <m_score__min__energy>  (59) 
-5.9400000000000004

>  <m_primary>  (59) 
energy

$$$$
59:0
     RDKit          3D

 30 31  0  0  0  0  0  0  0  0999 V2000
  141.0060  159.9150  132.7290 N   0  0  0  0  0  0  0  0  0  0  0  0
  141.8710  159.9790  133.8590 C   0  0  0  0  0  0  0  0  0  0  0  0
  141.4250  160.4140  134.9540 O   0  0  0  0  0  0  0  0  0  0  0  0
  143.2870  159.5800  133.7240 C   0  0  0  0  0  0  0  0  0  0  0  0
  143.6970  158.2620  133.5320 C   0  0  0  0  0  0  0  0  0  0  0  0
  145.0610  158.3240  133.3620 C   0  0  0  0  0  0  0  0  0  0  0  0
  145.9820  157.3040  133.1390 C   0  0  0  0  0  0  0  0  0  0  0  0
  147.3360  157.6550  133.0210 C   0  0  0  0  0  0  0  0  0  0  0  0
  147.7450  159.0070  133.1420 C   0  0  0  0  0  0  0  0  0  0  0  0
  149.2010  159.3700  132.9950 C   0  0  0  0  0  0  0  0  0  0  0  0
  149.7710  158.9200  131.6430 C   0  0  0  0  0  0  0  0  0  0  0  0
  149.0670  159.5920  130.4620 C   0  0  0  0  0  0  0  0  0  0  0  0
  149.5750  161.4580  130.3610 Br  0  0  0  0  0  0  0  0  0  0  0  0
  146.7800  160.0150  133.3640 C   0  0  0  0  0  0  0  0  0  0  0  0
  145.4360  159.6390  133.4580 C   0  0  0  0  0  0  0  0  0  0  0  0
  144.3570  160.4250  133.6820 N   0  0  0  0  0  0  0  0  0  0  0  0
  144.3660  161.8440  133.9040 C   0  0  0  0  0  0  0  0  0  0  0  0
  145.2600  162.3710  134.6160 O   0  0  0  0  0  0  0  0  0  0  0  0
  143.3720  162.6470  133.3580 O   0  0  0  0  0  0  0  0  0  0  0  0
  141.3860  159.7490  131.7700 H   0  0  0  0  0  0  0  0  0  0  0  0
  143.0641  157.3624  133.5191 H   0  0  0  0  0  0  0  0  0  0  0  0
  145.6587  156.2557  133.0578 H   0  0  0  0  0  0  0  0  0  0  0  0
  148.0869  156.8735  132.8328 H   0  0  0  0  0  0  0  0  0  0  0  0
  149.3052  160.4618  133.0789 H   0  0  0  0  0  0  0  0  0  0  0  0
  149.7618  158.8551  133.7890 H   0  0  0  0  0  0  0  0  0  0  0  0
  150.8407  159.1741  131.6081 H   0  0  0  0  0  0  0  0  0  0  0  0
  149.6122  157.8350  131.5557 H   0  0  0  0  0  0  0  0  0  0  0  0
  149.3559  159.0850  129.5295 H   0  0  0  0  0  0  0  0  0  0  0  0
  147.9784  159.5217  130.6036 H   0  0  0  0  0  0  0  0  0  0  0  0
  147.0783  161.0694  133.4605 H   0  0  0  0  0  0  0  0  0  0  0  0
  1  2  1  0
  2  3  2  0
  2  4  1  0
  4  5  2  0
  5  6  1  0
  6  7  2  0
  7  8  1  0
  8  9  2  0
  9 10  1  0
 10 11  1  0
 11 12  1  0
 12 13  1  0
  9 14  1  0
 14 15  2  0
 15 16  1  0
 16 17  1  0
 17 18  2  0
 17 19  1  0
 16  4  1  0
 15  6  1  0
  1 20  1  0
  5 21  1  0
  7 22  1  0
  8 23  1  0
 10 24  1  0
 10 25  1  0
 11 26  1  0
 11 27  1  0
 12 28  1  0
 12 29  1  0
 14 30  1  0
M  CHG  2   1  -1  19  -1
M  END
>  <UniqueID>  (60) 
60

>  <SMILES>  (60) 
[NH-]C(=O)c1cc2ccc(CCCBr)cc2n1C(=O)[O-]

>  <Energy>  (60) 
64.45339442161234

>  <Genealogy>  (60) 
[NH-]C(=O)c1cc2ccc(CCCBr)cc2n1C(=O)[O-] (protonated)
[NH-]C(=O)c1cc2ccc(CCCBr)cc2n1C(=O)[O-] (3D coordinates assigned)
[NH-]C(=O)c1cc2ccc(CCCBr)cc2n1C(=O)[O-] (optimized conformer: 64.45339442161234 kcal/mol)

>  <smiles>  (60) 
NC(=O)c1cc2ccc(CCCBr)cc2n1C(=O)O

>  <score_type>  (60) 
oracle

>  <origin>  (60) 
adg

>  <m_score__min__energy>  (60) 
-7.3300000000000001

>  <m_primary>  (60) 
energy

$$$$
60:0
     RDKit          3D

 37 38  0  0  0  0  0  0  0  0999 V2000
  141.0290  158.9970  137.1890 C   0  0  0  0  0  0  0  0  0  0  0  0
  140.2660  158.1160  136.1990 C   0  0  0  0  0  0  0  0  0  0  0  0
  140.2520  158.6930  134.7610 C   0  0  0  0  0  0  0  0  0  0  0  0
  139.6340  157.7010  133.7470 C   0  0  0  0  0  0  0  0  0  0  0  0
  139.2190  158.3830  132.4430 C   0  0  0  0  0  0  0  0  0  0  0  0
  141.6610  159.0920  134.3520 C   0  0  0  0  0  0  0  0  0  0  0  0
  141.9710  160.4590  134.1330 C   0  0  0  0  0  0  0  0  0  0  0  0
  143.2590  160.8480  133.7310 C   0  0  0  0  0  0  0  0  0  0  0  0
  144.2180  159.8560  133.5600 C   0  0  0  0  0  0  0  0  0  0  0  0
  145.5280  159.9540  133.1540 C   0  0  0  0  0  0  0  0  0  0  0  0
  146.0130  158.6470  133.1480 C   0  0  0  0  0  0  0  0  0  0  0  0
  147.4200  158.2910  132.8560 C   0  0  0  0  0  0  0  0  0  0  0  0
  147.7320  157.2940  131.8820 N   0  0  0  0  0  0  0  0  0  0  0  0
  148.3590  158.8900  133.4430 O   0  0  0  0  0  0  0  0  0  0  0  0
  145.0380  157.7740  133.5350 N   0  0  0  0  0  0  0  0  0  0  0  0
  145.1190  156.3410  133.6030 C   0  0  0  0  0  0  0  0  0  0  0  0
  145.5300  155.6790  132.6130 O   0  0  0  0  0  0  0  0  0  0  0  0
  144.7330  155.6680  134.7550 O   0  0  0  0  0  0  0  0  0  0  0  0
  143.9450  158.5310  133.7830 C   0  0  0  0  0  0  0  0  0  0  0  0
  142.6660  158.1120  134.1660 C   0  0  0  0  0  0  0  0  0  0  0  0
  140.7724  158.7007  138.2168 H   0  0  0  0  0  0  0  0  0  0  0  0
  142.1107  158.8740  137.0312 H   0  0  0  0  0  0  0  0  0  0  0  0
  140.7528  160.0500  137.0312 H   0  0  0  0  0  0  0  0  0  0  0  0
  140.7410  157.1242  136.1741 H   0  0  0  0  0  0  0  0  0  0  0  0
  139.2223  158.0630  136.5424 H   0  0  0  0  0  0  0  0  0  0  0  0
  139.6127  159.5882  134.7566 H   0  0  0  0  0  0  0  0  0  0  0  0
  140.3762  156.9222  133.5176 H   0  0  0  0  0  0  0  0  0  0  0  0
  138.7295  157.2738  134.2046 H   0  0  0  0  0  0  0  0  0  0  0  0
  138.6597  159.3021  132.6718 H   0  0  0  0  0  0  0  0  0  0  0  0
  140.1166  158.6356  131.8595 H   0  0  0  0  0  0  0  0  0  0  0  0
  138.5821  157.7019  131.8595 H   0  0  0  0  0  0  0  0  0  0  0  0
  141.1934  161.2230  134.2798 H   0  0  0  0  0  0  0  0  0  0  0  0
  143.5021  161.9065  133.5565 H   0  0  0  0  0  0  0  0  0  0  0  0
  146.0771  160.8698  132.8899 H   0  0  0  0  0  0  0  0  0  0  0  0
  148.7280  157.0780  131.6550 H   0  0  0  0  0  0  0  0  0  0  0  0
  146.9830  156.7380  131.4150 H   0  0  0  0  0  0  0  0  0  0  0  0
  142.4462  157.0451  134.3192 H   0  0  0  0  0  0  0  0  0  0  0  0
  1  2  1  0
  2  3  1  0
  3  4  1  0
  4  5  1  0
  3  6  1  0
  6  7  2  0
  7  8  1  0
  8  9  2  0
  9 10  1  0
 10 11  2  0
 11 12  1  0
 12 13  1  0
 12 14  2  0
 11 15  1  0
 15 16  1  0
 16 17  2  0
 16 18  1  0
 15 19  1  0
 19 20  2  0
 20  6  1  0
 19  9  1  0
  1 21  1  0
  1 22  1  0
  1 23  1  0
  2 24  1  0
  2 25  1  0
  3 26  1  0
  4 27  1  0
  4 28  1  0
  5 29  1  0
  5 30  1  0
  5 31  1  0
  7 32  1  0
  8 33  1  0
 10 34  1  0
 13 35  1  0
 13 36  1  0
 20 37  1  0
M  CHG  1  18  -1
M  END
>  <UniqueID>  (61) 
61

>  <SMILES>  (61) 
CCC(CC)c1ccc2cc(C(N)=O)n(C(=O)[O-])c2c1

>  <Energy>  (61) 
69.9822305477662

>  <Genealogy>  (61) 
CCC(CC)c1ccc2cc(C(N)=O)n(C(=O)[O-])c2c1 (protonated)
CCC(CC)c1ccc2cc(C(N)=O)n(C(=O)[O-])c2c1 (3D coordinates assigned)
CCC(CC)c1ccc2cc(C(N)=O)n(C(=O)[O-])c2c1 (optimized conformer: 69.9822305477662 kcal/mol)

>  <smiles>  (61) 
CCC(CC)c1ccc2cc(C(N)=O)n(C(=O)O)c2c1

>  <score_type>  (61) 
oracle

>  <origin>  (61) 
adg

>  <m_score__min__energy>  (61) 
-6.9900000000000002

>  <m_primary>  (61) 
energy

$$$$
61:0
     RDKit          3D

 36 37  0  0  0  0  0  0  0  0999 V2000
  149.5820  162.3290  130.2370 C   0  0  0  0  0  0  0  0  0  0  0  0
  149.6530  160.8790  129.7680 C   0  0  0  0  0  0  0  0  0  0  0  0
  150.2960  160.0440  130.7770 N   0  0  0  0  0  0  0  0  0  0  0  0
  149.6110  159.0340  131.5240 C   0  0  0  0  0  0  0  0  0  0  0  0
  150.2580  158.1830  132.1930 O   0  0  0  0  0  0  0  0  0  0  0  0
  148.1130  159.0180  131.5500 C   0  0  0  0  0  0  0  0  0  0  0  0
  147.5620  159.6850  132.8150 C   0  0  0  0  0  0  0  0  0  0  0  0
  146.3040  159.0100  133.3010 C   0  0  0  0  0  0  0  0  0  0  0  0
  146.3090  157.6260  133.6020 C   0  0  0  0  0  0  0  0  0  0  0  0
  145.1320  156.9780  134.0110 C   0  0  0  0  0  0  0  0  0  0  0  0
  143.9690  157.7390  134.1090 C   0  0  0  0  0  0  0  0  0  0  0  0
  142.6900  157.3600  134.4450 C   0  0  0  0  0  0  0  0  0  0  0  0
  141.9250  158.5220  134.3590 C   0  0  0  0  0  0  0  0  0  0  0  0
  140.4940  158.5810  134.7240 C   0  0  0  0  0  0  0  0  0  0  0  0
  140.0850  158.5700  136.0890 N   0  0  0  0  0  0  0  0  0  0  0  0
  139.6190  158.5890  133.8180 O   0  0  0  0  0  0  0  0  0  0  0  0
  142.7000  159.5760  133.9770 N   0  0  0  0  0  0  0  0  0  0  0  0
  142.2740  160.9170  133.6810 C   0  0  0  0  0  0  0  0  0  0  0  0
  141.0660  161.1570  133.4170 O   0  0  0  0  0  0  0  0  0  0  0  0
  143.1850  161.9660  133.7160 O   0  0  0  0  0  0  0  0  0  0  0  0
  143.9490  159.0810  133.8310 C   0  0  0  0  0  0  0  0  0  0  0  0
  145.1040  159.7480  133.4030 C   0  0  0  0  0  0  0  0  0  0  0  0
  149.5805  162.3590  131.3366 H   0  0  0  0  0  0  0  0  0  0  0  0
  150.4542  162.8806  129.8563 H   0  0  0  0  0  0  0  0  0  0  0  0
  148.6601  162.7928  129.8563 H   0  0  0  0  0  0  0  0  0  0  0  0
  148.6337  160.5072  129.5871 H   0  0  0  0  0  0  0  0  0  0  0  0
  150.2442  160.8344  128.8415 H   0  0  0  0  0  0  0  0  0  0  0  0
  147.7352  159.5574  130.6689 H   0  0  0  0  0  0  0  0  0  0  0  0
  147.7806  157.9695  131.5421 H   0  0  0  0  0  0  0  0  0  0  0  0
  148.3238  159.6310  133.6067 H   0  0  0  0  0  0  0  0  0  0  0  0
  147.3177  160.7297  132.5722 H   0  0  0  0  0  0  0  0  0  0  0  0
  147.2439  157.0530  133.5146 H   0  0  0  0  0  0  0  0  0  0  0  0
  145.1285  155.9035  134.2465 H   0  0  0  0  0  0  0  0  0  0  0  0
  142.3443  156.3533  134.7227 H   0  0  0  0  0  0  0  0  0  0  0  0
  139.1780  158.9950  136.3800 H   0  0  0  0  0  0  0  0  0  0  0  0
  145.0772  160.8188  133.1528 H   0  0  0  0  0  0  0  0  0  0  0  0
  1  2  1  0
  2  3  1  0
  3  4  1  0
  4  5  2  0
  4  6  1  0
  6  7  1  0
  7  8  1  0
  8  9  2  0
  9 10  1  0
 10 11  2  0
 11 12  1  0
 12 13  2  0
 13 14  1  0
 14 15  1  0
 14 16  2  0
 13 17  1  0
 17 18  1  0
 18 19  2  0
 18 20  1  0
 17 21  1  0
 21 22  2  0
 22  8  1  0
 21 11  1  0
  1 23  1  0
  1 24  1  0
  1 25  1  0
  2 26  1  0
  2 27  1  0
  6 28  1  0
  6 29  1  0
  7 30  1  0
  7 31  1  0
  9 32  1  0
 10 33  1  0
 12 34  1  0
 15 35  1  0
 22 36  1  0
M  CHG  3   3  -1  15  -1  20  -1
M  END
>  <UniqueID>  (62) 
62

>  <SMILES>  (62) 
CC[N-]C(=O)CCc1ccc2cc(C([NH-])=O)n(C(=O)[O-])c2c1

>  <Energy>  (62) 
67.45401798975445

>  <Genealogy>  (62) 
CC[N-]C(=O)CCc1ccc2cc(C([NH-])=O)n(C(=O)[O-])c2c1 (protonated)
CC[N-]C(=O)CCc1ccc2cc(C([NH-])=O)n(C(=O)[O-])c2c1 (3D coordinates assigned)
CC[N-]C(=O)CCc1ccc2cc(C([NH-])=O)n(C(=O)[O-])c2c1 (optimized conformer: 67.45401798975445 kcal/mol)

>  <smiles>  (62) 
CCNC(=O)CCc1ccc2cc(C(N)=O)n(C(=O)O)c2c1

>  <score_type>  (62) 
oracle

>  <origin>  (62) 
adg

>  <m_score__min__energy>  (62) 
-6.6500000000000004

>  <m_primary>  (62) 
energy

$$$$
62:0
     RDKit          3D

 39 41  0  0  0  0  0  0  0  0999 V2000
  144.6510  154.1380  135.9530 C   0  0  0  0  0  0  0  0  0  0  0  0
  145.3330  155.0210  134.9930 N   0  0  1  0  0  0  0  0  0  0  0  0
  146.6210  155.5090  135.5200 C   0  0  0  0  0  0  0  0  0  0  0  0
  147.7350  154.6620  134.8940 C   0  0  0  0  0  0  0  0  0  0  0  0
  147.1550  154.1190  133.5890 C   0  0  2  0  0  0  0  0  0  0  0  0
  147.6500  154.9250  132.3700 C   0  0  0  0  0  0  0  0  0  0  0  0
  147.6410  156.4090  132.6350 C   0  0  0  0  0  0  0  0  0  0  0  0
  148.8470  157.1510  132.5760 C   0  0  0  0  0  0  0  0  0  0  0  0
  148.8540  158.5280  132.8550 C   0  0  0  0  0  0  0  0  0  0  0  0
  147.6440  159.1330  133.1850 C   0  0  0  0  0  0  0  0  0  0  0  0
  147.3730  160.4360  133.5290 C   0  0  0  0  0  0  0  0  0  0  0  0
  146.0020  160.4770  133.7720 C   0  0  0  0  0  0  0  0  0  0  0  0
  145.2710  161.7210  134.0930 C   0  0  0  0  0  0  0  0  0  0  0  0
  145.8950  162.7700  134.8290 N   0  0  0  0  0  0  0  0  0  0  0  0
  144.0640  161.8400  133.7550 O   0  0  0  0  0  0  0  0  0  0  0  0
  145.4480  159.2430  133.5950 N   0  0  0  0  0  0  0  0  0  0  0  0
  144.0870  158.8440  133.8300 C   0  0  0  0  0  0  0  0  0  0  0  0
  143.1350  159.5290  133.3700 O   0  0  0  0  0  0  0  0  0  0  0  0
  143.8080  157.7150  134.5890 O   0  0  0  0  0  0  0  0  0  0  0  0
  146.4660  158.4330  133.2320 C   0  0  0  0  0  0  0  0  0  0  0  0
  146.4330  157.0570  132.9760 C   0  0  0  0  0  0  0  0  0  0  0  0
  145.6930  154.2910  133.8150 C   0  0  0  0  0  0  0  0  0  0  0  0
  144.8510  153.8310  133.0560 O   0  0  0  0  0  0  0  0  0  0  0  0
  144.8946  154.4534  136.9783 H   0  0  0  0  0  0  0  0  0  0  0  0
  143.5636  154.1994  135.7991 H   0  0  0  0  0  0  0  0  0  0  0  0
  144.9852  153.1014  135.7991 H   0  0  0  0  0  0  0  0  0  0  0  0
  144.7130  155.8250  134.7390 H   0  0  0  0  0  0  0  0  0  0  0  0
  146.7589  156.5666  135.2507 H   0  0  0  0  0  0  0  0  0  0  0  0
  146.6442  155.4243  136.6165 H   0  0  0  0  0  0  0  0  0  0  0  0
  148.6209  155.2819  134.6918 H   0  0  0  0  0  0  0  0  0  0  0  0
  148.0556  153.8515  135.5650 H   0  0  0  0  0  0  0  0  0  0  0  0
  147.4483  153.0830  133.3639 H   0  0  0  0  0  0  0  0  0  0  0  0
  148.6773  154.6128  132.1308 H   0  0  0  0  0  0  0  0  0  0  0  0
  146.9686  154.7249  131.5300 H   0  0  0  0  0  0  0  0  0  0  0  0
  149.7862  156.6442  132.3093 H   0  0  0  0  0  0  0  0  0  0  0  0
  149.7864  159.1101  132.8140 H   0  0  0  0  0  0  0  0  0  0  0  0
  148.0874  161.2696  133.5978 H   0  0  0  0  0  0  0  0  0  0  0  0
  146.9350  162.8530  134.8680 H   0  0  0  0  0  0  0  0  0  0  0  0
  145.4898  156.4944  133.0388 H   0  0  0  0  0  0  0  0  0  0  0  0
  1  2  1  0
  2  3  1  0
  3  4  1  0
  4  5  1  0
  5  6  1  0
  6  7  1  0
  7  8  2  0
  8  9  1  0
  9 10  2  0
 10 11  1  0
 11 12  2  0
 12 13  1  0
 13 14  1  0
 13 15  2  0
 12 16  1  0
 16 17  1  0
 17 18  2  0
 17 19  1  0
 16 20  1  0
 20 21  2  0
  5 22  1  0
 22 23  2  0
 22  2  1  0
 21  7  1  0
 20 10  1  0
  1 24  1  0
  1 25  1  0
  1 26  1  0
  2 27  1  6
  3 28  1  0
  3 29  1  0
  4 30  1  0
  4 31  1  0
  5 32  1  6
  6 33  1  0
  6 34  1  0
  8 35  1  0
  9 36  1  0
 11 37  1  0
 14 38  1  0
 21 39  1  0
M  CHG  3   2   1  14  -1  19  -1
M  END
>  <UniqueID>  (63) 
63

>  <SMILES>  (63) 
C[N@H+]1CC[C@H](Cc2ccc3cc(C([NH-])=O)n(C(=O)[O-])c3c2)C1=O

>  <Energy>  (63) 
80.89382300336797

>  <Genealogy>  (63) 
C[NH+]1CC[C@H](Cc2ccc3cc(C([NH-])=O)n(C(=O)[O-])c3c2)C1=O (protonated)
C[N@H+]1CC[C@H](Cc2ccc3cc(C([NH-])=O)n(C(=O)[O-])c3c2)C1=O (chirality)
C[N@H+]1CC[C@H](Cc2ccc3cc(C([NH-])=O)n(C(=O)[O-])c3c2)C1=O (3D coordinates assigned)
C[N@H+]1CC[C@H](Cc2ccc3cc(C([NH-])=O)n(C(=O)[O-])c3c2)C1=O (nonaromatic ring conformer: 80.89382300336797 kcal/mol)

>  <smiles>  (63) 
CN1CC[C@H](Cc2ccc3cc(C(N)=O)n(C(=O)O)c3c2)C1=O

>  <score_type>  (63) 
oracle

>  <origin>  (63) 
adg

>  <m_score__min__energy>  (63) 
-7.1600000000000001

>  <m_primary>  (63) 
energy

$$$$
63:0
     RDKit          3D

 44 46  0  0  0  0  0  0  0  0999 V2000
  146.0680  153.3870  133.0900 C   0  0  0  0  0  0  0  0  0  0  0  0
  147.4920  153.4330  132.7690 N   0  0  0  0  0  0  0  0  0  0  0  0
  148.1980  152.3470  132.4980 N   0  0  0  0  0  0  0  0  0  0  0  0
  149.4710  152.7270  132.2780 C   0  0  0  0  0  0  0  0  0  0  0  0
  149.5770  154.0970  132.4100 C   0  0  0  0  0  0  0  0  0  0  0  0
  148.2970  154.5190  132.7120 C   0  0  0  0  0  0  0  0  0  0  0  0
  147.8940  155.9270  132.9320 C   0  0  0  0  0  0  0  0  0  0  0  0
  148.8670  156.9580  132.8570 C   0  0  0  0  0  0  0  0  0  0  0  0
  148.4990  158.3060  133.0070 C   0  0  0  0  0  0  0  0  0  0  0  0
  147.1560  158.5960  133.2240 C   0  0  0  0  0  0  0  0  0  0  0  0
  146.5140  159.8100  133.3450 C   0  0  0  0  0  0  0  0  0  0  0  0
  145.1630  159.5000  133.4940 C   0  0  0  0  0  0  0  0  0  0  0  0
  144.1070  160.5090  133.7190 C   0  0  0  0  0  0  0  0  0  0  0  0
  142.7490  160.2340  133.3890 N   0  0  0  0  0  0  0  0  0  0  0  0
  144.4040  161.6170  134.2390 O   0  0  0  0  0  0  0  0  0  0  0  0
  144.9810  158.1510  133.4590 N   0  0  0  0  0  0  0  0  0  0  0  0
  143.7470  157.4200  133.4970 C   0  0  0  0  0  0  0  0  0  0  0  0
  142.7830  157.7900  132.7740 O   0  0  0  0  0  0  0  0  0  0  0  0
  143.5510  156.2940  134.4730 C   0  0  0  0  0  0  0  0  0  0  0  0
  142.4510  156.6260  135.4940 C   0  0  0  0  0  0  0  0  0  0  0  0
  141.0760  156.7760  134.8330 C   0  0  0  0  0  0  0  0  0  0  0  0
  140.3870  158.3920  135.1510 S   0  0  0  0  0  0  0  0  0  0  0  0
  138.9390  158.2400  136.0810 N   0  0  0  0  0  0  0  0  0  0  0  0
  140.0700  159.0600  133.8440 O   0  0  0  0  0  0  0  0  0  0  0  0
  141.3800  159.2280  135.9070 O   0  0  0  0  0  0  0  0  0  0  0  0
  146.2070  157.6130  133.3020 C   0  0  0  0  0  0  0  0  0  0  0  0
  146.5400  156.2650  133.1480 C   0  0  0  0  0  0  0  0  0  0  0  0
  145.9383  153.3828  134.1823 H   0  0  0  0  0  0  0  0  0  0  0  0
  145.5676  154.2694  132.6647 H   0  0  0  0  0  0  0  0  0  0  0  0
  145.6256  152.4741  132.6647 H   0  0  0  0  0  0  0  0  0  0  0  0
  150.3007  152.0485  132.0306 H   0  0  0  0  0  0  0  0  0  0  0  0
  150.4801  154.7152  132.2993 H   0  0  0  0  0  0  0  0  0  0  0  0
  149.9212  156.6988  132.6794 H   0  0  0  0  0  0  0  0  0  0  0  0
  149.2504  159.1076  132.9544 H   0  0  0  0  0  0  0  0  0  0  0  0
  146.9707  160.8106  133.3277 H   0  0  0  0  0  0  0  0  0  0  0  0
  142.1970  159.5320  133.9290 H   0  0  0  0  0  0  0  0  0  0  0  0
  143.2654  155.3866  133.9208 H   0  0  0  0  0  0  0  0  0  0  0  0
  144.4942  156.1375  135.0169 H   0  0  0  0  0  0  0  0  0  0  0  0
  142.4008  155.8164  136.2370 H   0  0  0  0  0  0  0  0  0  0  0  0
  142.7061  157.5862  135.9661 H   0  0  0  0  0  0  0  0  0  0  0  0
  141.1818  156.6373  133.7469 H   0  0  0  0  0  0  0  0  0  0  0  0
  140.3998  156.0174  135.2540 H   0  0  0  0  0  0  0  0  0  0  0  0
  139.0980  158.7460  136.9810 H   0  0  0  0  0  0  0  0  0  0  0  0
  145.7656  155.4851  133.1939 H   0  0  0  0  0  0  0  0  0  0  0  0
  1  2  1  0
  2  3  1  0
  3  4  2  0
  4  5  1  0
  5  6  2  0
  6  7  1  0
  7  8  2  0
  8  9  1  0
  9 10  2  0
 10 11  1  0
 11 12  2  0
 12 13  1  0
 13 14  1  0
 13 15  2  0
 12 16  1  0
 16 17  1  0
 17 18  2  0
 17 19  1  0
 19 20  1  0
 20 21  1  0
 21 22  1  0
 22 23  1  0
 22 24  2  0
 22 25  2  0
 16 26  1  0
 26 27  2  0
  6  2  1  0
 27  7  1  0
 26 10  1  0
  1 28  1  0
  1 29  1  0
  1 30  1  0
  4 31  1  0
  5 32  1  0
  8 33  1  0
  9 34  1  0
 11 35  1  0
 14 36  1  0
 19 37  1  0
 19 38  1  0
 20 39  1  0
 20 40  1  0
 21 41  1  0
 21 42  1  0
 23 43  1  0
 27 44  1  0
M  CHG  2  14  -1  23  -1
M  END
>  <UniqueID>  (64) 
64

>  <SMILES>  (64) 
Cn1nccc1-c1ccc2cc(C([NH-])=O)n(C(=O)CCCS([NH-])(=O)=O)c2c1

>  <Energy>  (64) 
108.32585153747885

>  <Genealogy>  (64) 
Cn1nccc1-c1ccc2cc(C([NH-])=O)n(C(=O)CCCS([NH-])(=O)=O)c2c1 (protonated)
Cn1nccc1-c1ccc2cc(C([NH-])=O)n(C(=O)CCCS([NH-])(=O)=O)c2c1 (3D coordinates assigned)
Cn1nccc1-c1ccc2cc(C([NH-])=O)n(C(=O)CCCS([NH-])(=O)=O)c2c1 (optimized conformer: 108.32585153747885 kcal/mol)

>  <smiles>  (64) 
Cn1nccc1-c1ccc2cc(C(N)=O)n(C(=O)CCCS(N)(=O)=O)c2c1

>  <score_type>  (64) 
oracle

>  <origin>  (64) 
adg

>  <m_score__min__energy>  (64) 
-8.1500000000000004

>  <m_primary>  (64) 
energy

$$$$
64:0
     RDKit          3D

 53 55  0  0  0  0  0  0  0  0999 V2000
  142.4390  157.0180  139.9650 C   0  0  0  0  0  0  0  0  0  0  0  0
  142.2360  156.1380  138.8690 O   0  0  0  0  0  0  0  0  0  0  0  0
  141.8400  156.5880  137.6020 C   0  0  0  0  0  0  0  0  0  0  0  0
  142.4620  156.2060  136.5720 O   0  0  0  0  0  0  0  0  0  0  0  0
  140.6330  157.4950  137.5000 C   0  0  1  0  0  0  0  0  0  0  0  0
  141.0060  158.9860  137.4340 C   0  0  0  0  0  0  0  0  0  0  0  0
  141.0570  159.3330  135.9510 C   0  0  0  0  0  0  0  0  0  0  0  0
  140.3000  158.2870  135.2820 N   0  0  0  0  0  0  0  0  0  0  0  0
  139.9520  158.2840  133.8830 C   0  0  0  0  0  0  0  0  0  0  0  0
  138.7860  158.6150  133.5280 O   0  0  0  0  0  0  0  0  0  0  0  0
  140.9060  157.7960  132.8300 C   0  0  0  0  0  0  0  0  0  0  0  0
  142.2740  158.3710  133.0830 C   0  0  0  0  0  0  0  0  0  0  0  0
  142.4220  159.7520  133.3660 C   0  0  0  0  0  0  0  0  0  0  0  0
  143.6970  160.3050  133.5860 C   0  0  0  0  0  0  0  0  0  0  0  0
  144.7990  159.4650  133.4700 C   0  0  0  0  0  0  0  0  0  0  0  0
  146.1340  159.7270  133.6660 C   0  0  0  0  0  0  0  0  0  0  0  0
  146.7760  158.5210  133.4100 C   0  0  0  0  0  0  0  0  0  0  0  0
  148.2310  158.3280  133.5160 C   0  0  0  0  0  0  0  0  0  0  0  0
  148.9390  157.5490  132.5470 N   0  0  0  0  0  0  0  0  0  0  0  0
  148.8670  158.9090  134.4330 O   0  0  0  0  0  0  0  0  0  0  0  0
  145.8910  157.5550  133.0380 N   0  0  0  0  0  0  0  0  0  0  0  0
  146.1690  156.1500  133.0490 C   0  0  0  0  0  0  0  0  0  0  0  0
  147.1110  155.7080  132.3340 O   0  0  0  0  0  0  0  0  0  0  0  0
  145.3150  155.2390  133.7590 N   0  0  0  0  0  0  0  0  0  0  0  0
  144.7780  154.0780  133.0500 C   0  0  0  0  0  0  0  0  0  0  0  0
  145.2430  155.2990  135.2230 C   0  0  0  0  0  0  0  0  0  0  0  0
  144.6780  158.1430  133.1050 C   0  0  0  0  0  0  0  0  0  0  0  0
  143.4200  157.5540  132.9550 C   0  0  0  0  0  0  0  0  0  0  0  0
  139.8780  157.2360  136.1890 C   0  0  0  0  0  0  0  0  0  0  0  0
  142.3115  156.4653  140.9075 H   0  0  0  0  0  0  0  0  0  0  0  0
  143.4565  157.4333  139.9182 H   0  0  0  0  0  0  0  0  0  0  0  0
  141.7062  157.8370  139.9182 H   0  0  0  0  0  0  0  0  0  0  0  0
  140.0386  157.2770  138.3995 H   0  0  0  0  0  0  0  0  0  0  0  0
  140.2451  159.5947  137.9444 H   0  0  0  0  0  0  0  0  0  0  0  0
  141.9665  159.1866  137.9312 H   0  0  0  0  0  0  0  0  0  0  0  0
  140.5976  160.3159  135.7700 H   0  0  0  0  0  0  0  0  0  0  0  0
  142.0910  159.3898  135.5801 H   0  0  0  0  0  0  0  0  0  0  0  0
  140.9584  156.6978  132.8640 H   0  0  0  0  0  0  0  0  0  0  0  0
  140.5521  158.1171  131.8392 H   0  0  0  0  0  0  0  0  0  0  0  0
  141.5323  160.3971  133.4141 H   0  0  0  0  0  0  0  0  0  0  0  0
  143.8181  161.3680  133.8416 H   0  0  0  0  0  0  0  0  0  0  0  0
  146.5936  160.6819  133.9608 H   0  0  0  0  0  0  0  0  0  0  0  0
  148.4490  157.1840  131.6970 H   0  0  0  0  0  0  0  0  0  0  0  0
  149.9760  157.4690  132.6010 H   0  0  0  0  0  0  0  0  0  0  0  0
  144.4323  153.3306  133.7793 H   0  0  0  0  0  0  0  0  0  0  0  0
  143.9337  154.3921  132.4187 H   0  0  0  0  0  0  0  0  0  0  0  0
  145.5641  153.6380  132.4187 H   0  0  0  0  0  0  0  0  0  0  0  0
  146.0201  154.6515  135.6552 H   0  0  0  0  0  0  0  0  0  0  0  0
  145.4024  156.3353  135.5558 H   0  0  0  0  0  0  0  0  0  0  0  0
  144.2525  154.9552  135.5558 H   0  0  0  0  0  0  0  0  0  0  0  0
  143.3238  156.4791  132.7422 H   0  0  0  0  0  0  0  0  0  0  0  0
  138.7918  157.2853  136.3552 H   0  0  0  0  0  0  0  0  0  0  0  0
  140.0962  156.2368  135.7840 H   0  0  0  0  0  0  0  0  0  0  0  0
  1  2  1  0
  2  3  1  0
  3  4  2  0
  3  5  1  0
  5  6  1  0
  6  7  1  0
  7  8  1  0
  8  9  1  0
  9 10  2  0
  9 11  1  0
 11 12  1  0
 12 13  2  0
 13 14  1  0
 14 15  2  0
 15 16  1  0
 16 17  2  0
 17 18  1  0
 18 19  1  0
 18 20  2  0
 17 21  1  0
 21 22  1  0
 22 23  2  0
 22 24  1  0
 24 25  1  0
 24 26  1  0
 21 27  1  0
 27 28  2  0
  8 29  1  0
 29  5  1  0
 28 12  1  0
 27 15  1  0
  1 30  1  0
  1 31  1  0
  1 32  1  0
  5 33  1  1
  6 34  1  0
  6 35  1  0
  7 36  1  0
  7 37  1  0
 11 38  1  0
 11 39  1  0
 13 40  1  0
 14 41  1  0
 16 42  1  0
 19 43  1  0
 19 44  1  0
 25 45  1  0
 25 46  1  0
 25 47  1  0
 26 48  1  0
 26 49  1  0
 26 50  1  0
 28 51  1  0
 29 52  1  0
 29 53  1  0
M  END
>  <UniqueID>  (65) 
65

>  <SMILES>  (65) 
COC(=O)[C@H]1CCN(C(=O)Cc2ccc3cc(C(N)=O)n(C(=O)N(C)C)c3c2)C1

>  <Energy>  (65) 
98.75761505620311

>  <Genealogy>  (65) 
COC(=O)[C@H]1CCN(C(=O)Cc2ccc3cc(C(N)=O)n(C(=O)N(C)C)c3c2)C1 (chirality)
COC(=O)[C@H]1CCN(C(=O)Cc2ccc3cc(C(N)=O)n(C(=O)N(C)C)c3c2)C1 (3D coordinates assigned)
COC(=O)[C@H]1CCN(C(=O)Cc2ccc3cc(C(N)=O)n(C(=O)N(C)C)c3c2)C1 (nonaromatic ring conformer: 98.75761505620311 kcal/mol)

>  <smiles>  (65) 
COC(=O)C1CCN(C(=O)Cc2ccc3cc(C(N)=O)n(C(=O)N(C)C)c3c2)C1

>  <score_type>  (65) 
oracle

>  <origin>  (65) 
adg

>  <m_score__min__energy>  (65) 
-8.1600000000000001

>  <m_primary>  (65) 
energy

$$$$
65:0
     RDKit          3D

 56 57  0  0  0  0  0  0  0  0999 V2000
  138.7240  160.8040  130.4000 C   0  0  0  0  0  0  0  0  0  0  0  0
  138.9050  159.8570  131.5850 C   0  0  0  0  0  0  0  0  0  0  0  0
  137.9430  158.6700  131.4690 C   0  0  0  0  0  0  0  0  0  0  0  0
  140.2550  159.4000  131.6010 O   0  0  0  0  0  0  0  0  0  0  0  0
  140.9840  159.1480  132.7700 C   0  0  0  0  0  0  0  0  0  0  0  0
  141.0910  160.0320  133.6620 O   0  0  0  0  0  0  0  0  0  0  0  0
  141.6030  157.7950  132.9760 C   0  0  2  0  0  0  0  0  0  0  0  0
  141.1340  157.2460  134.2050 O   0  0  0  0  0  0  0  0  0  0  0  0
  140.0430  157.7720  134.9060 C   0  0  0  0  0  0  0  0  0  0  0  0
  138.9390  157.9630  134.3280 O   0  0  0  0  0  0  0  0  0  0  0  0
  140.1900  158.1100  136.3630 C   0  0  0  0  0  0  0  0  0  0  0  0
  140.6190  159.5710  136.5270 C   0  0  0  0  0  0  0  0  0  0  0  0
  141.1960  157.1670  137.0270 C   0  0  0  0  0  0  0  0  0  0  0  0
  143.0260  157.9140  133.0350 O   0  0  0  0  0  0  0  0  0  0  0  0
  143.6980  158.7320  133.9500 C   0  0  0  0  0  0  0  0  0  0  0  0
  143.1630  159.0270  135.0540 O   0  0  0  0  0  0  0  0  0  0  0  0
  145.0250  159.1920  133.6490 N   0  0  0  0  0  0  0  0  0  0  0  0
  145.5050  160.4670  133.7100 C   0  0  0  0  0  0  0  0  0  0  0  0
  144.7020  161.6880  133.9230 C   0  0  0  0  0  0  0  0  0  0  0  0
  143.2910  161.6820  133.7280 N   0  0  0  0  0  0  0  0  0  0  0  0
  145.2780  162.7660  134.2340 O   0  0  0  0  0  0  0  0  0  0  0  0
  146.8760  160.4830  133.4610 C   0  0  0  0  0  0  0  0  0  0  0  0
  147.2230  159.1710  133.2370 C   0  0  0  0  0  0  0  0  0  0  0  0
  148.4650  158.6100  132.9580 C   0  0  0  0  0  0  0  0  0  0  0  0
  148.5380  157.2160  132.7990 C   0  0  0  0  0  0  0  0  0  0  0  0
  147.3760  156.4150  132.9200 C   0  0  0  0  0  0  0  0  0  0  0  0
  147.4710  154.9190  132.7710 C   0  0  0  0  0  0  0  0  0  0  0  0
  146.1170  154.2600  133.0250 C   0  0  0  0  0  0  0  0  0  0  0  0
  146.1490  152.9380  132.5650 O   0  0  0  0  0  0  0  0  0  0  0  0
  146.1360  157.0170  133.2240 C   0  0  0  0  0  0  0  0  0  0  0  0
  146.0880  158.4110  133.3550 C   0  0  0  0  0  0  0  0  0  0  0  0
  138.5295  161.8215  130.7701 H   0  0  0  0  0  0  0  0  0  0  0  0
  139.6382  160.8048  129.7883 H   0  0  0  0  0  0  0  0  0  0  0  0
  137.8739  160.4676  129.7883 H   0  0  0  0  0  0  0  0  0  0  0  0
  138.6809  160.3873  132.5223 H   0  0  0  0  0  0  0  0  0  0  0  0
  137.6634  158.3250  132.4753 H   0  0  0  0  0  0  0  0  0  0  0  0
  137.0397  158.9820  130.9242 H   0  0  0  0  0  0  0  0  0  0  0  0
  138.4353  157.8510  130.9242 H   0  0  0  0  0  0  0  0  0  0  0  0
  141.3245  157.1397  132.1375 H   0  0  0  0  0  0  0  0  0  0  0  0
  139.2172  157.9792  136.8595 H   0  0  0  0  0  0  0  0  0  0  0  0
  140.6904  159.8142  137.5974 H   0  0  0  0  0  0  0  0  0  0  0  0
  141.5991  159.7210  136.0507 H   0  0  0  0  0  0  0  0  0  0  0  0
  139.8756  160.2271  136.0507 H   0  0  0  0  0  0  0  0  0  0  0  0
  141.1087  157.2488  138.1205 H   0  0  0  0  0  0  0  0  0  0  0  0
  140.9869  156.1319  136.7189 H   0  0  0  0  0  0  0  0  0  0  0  0
  142.2154  157.4425  136.7189 H   0  0  0  0  0  0  0  0  0  0  0  0
  142.7190  160.8420  133.9670 H   0  0  0  0  0  0  0  0  0  0  0  0
  147.5403  161.3596  133.4466 H   0  0  0  0  0  0  0  0  0  0  0  0
  149.3627  159.2388  132.8647 H   0  0  0  0  0  0  0  0  0  0  0  0
  149.5061  156.7424  132.5786 H   0  0  0  0  0  0  0  0  0  0  0  0
  147.8027  154.6789  131.7501 H   0  0  0  0  0  0  0  0  0  0  0  0
  148.1921  154.5370  133.5086 H   0  0  0  0  0  0  0  0  0  0  0  0
  145.9017  154.2680  134.1037 H   0  0  0  0  0  0  0  0  0  0  0  0
  145.3322  154.8157  132.4909 H   0  0  0  0  0  0  0  0  0  0  0  0
  146.5320  152.9740  131.6490 H   0  0  0  0  0  0  0  0  0  0  0  0
  145.2301  156.4069  133.3548 H   0  0  0  0  0  0  0  0  0  0  0  0
  1  2  1  0
  2  3  1  0
  2  4  1  0
  4  5  1  0
  5  6  2  0
  5  7  1  0
  7  8  1  0
  8  9  1  0
  9 10  2  0
  9 11  1  0
 11 12  1  0
 11 13  1  0
  7 14  1  0
 14 15  1  0
 15 16  2  0
 15 17  1  0
 17 18  1  0
 18 19  1  0
 19 20  1  0
 19 21  2  0
 18 22  2  0
 22 23  1  0
 23 24  2  0
 24 25  1  0
 25 26  2  0
 26 27  1  0
 27 28  1  0
 28 29  1  0
 26 30  1  0
 30 31  2  0
 31 17  1  0
 31 23  1  0
  1 32  1  0
  1 33  1  0
  1 34  1  0
  2 35  1  0
  3 36  1  0
  3 37  1  0
  3 38  1  0
  7 39  1  6
 11 40  1  0
 12 41  1  0
 12 42  1  0
 12 43  1  0
 13 44  1  0
 13 45  1  0
 13 46  1  0
 20 47  1  0
 22 48  1  0
 24 49  1  0
 25 50  1  0
 27 51  1  0
 27 52  1  0
 28 53  1  0
 28 54  1  0
 29 55  1  0
 30 56  1  0
M  CHG  1  20  -1
M  END
>  <UniqueID>  (66) 
66

>  <SMILES>  (66) 
CC(C)OC(=O)[C@H](OC(=O)C(C)C)OC(=O)n1c(C([NH-])=O)cc2ccc(CCO)cc21

>  <Energy>  (66) 
74.54862539332542

>  <Genealogy>  (66) 
CC(C)OC(=O)C(OC(=O)C(C)C)OC(=O)n1c(C([NH-])=O)cc2ccc(CCO)cc21 (protonated)
CC(C)OC(=O)[C@H](OC(=O)C(C)C)OC(=O)n1c(C([NH-])=O)cc2ccc(CCO)cc21 (chirality)
CC(C)OC(=O)[C@H](OC(=O)C(C)C)OC(=O)n1c(C([NH-])=O)cc2ccc(CCO)cc21 (3D coordinates assigned)
CC(C)OC(=O)[C@H](OC(=O)C(C)C)OC(=O)n1c(C([NH-])=O)cc2ccc(CCO)cc21 (optimized conformer: 74.54862539332542 kcal/mol)

>  <smiles>  (66) 
CC(C)OC(=O)C(OC(=O)C(C)C)OC(=O)n1c(C(N)=O)cc2ccc(CCO)cc21

>  <score_type>  (66) 
oracle

>  <origin>  (66) 
adg

>  <m_score__min__energy>  (66) 
-7.6900000000000004

>  <m_primary>  (66) 
energy

$$$$
66:0
     RDKit          3D

 46 48  0  0  0  0  0  0  0  0999 V2000
  148.8110  158.4340  132.2670 C   0  0  0  0  0  0  0  0  0  0  0  0
  148.4520  158.2320  133.5360 C   0  0  0  0  0  0  0  0  0  0  0  0
  147.2650  158.7370  134.0890 O   0  0  0  0  0  0  0  0  0  0  0  0
  146.5870  159.8850  133.6520 C   0  0  0  0  0  0  0  0  0  0  0  0
  147.2160  160.8380  133.1190 O   0  0  0  0  0  0  0  0  0  0  0  0
  145.1540  159.9400  133.7490 N   0  0  0  0  0  0  0  0  0  0  0  0
  144.3850  161.0330  134.0170 C   0  0  0  0  0  0  0  0  0  0  0  0
  144.8610  162.4280  134.1070 C   0  0  0  0  0  0  0  0  0  0  0  0
  146.0250  162.7330  134.8700 N   0  0  0  0  0  0  0  0  0  0  0  0
  144.2260  163.3620  133.5490 O   0  0  0  0  0  0  0  0  0  0  0  0
  143.0420  160.6730  134.1060 C   0  0  0  0  0  0  0  0  0  0  0  0
  143.0110  159.3180  133.8740 C   0  0  0  0  0  0  0  0  0  0  0  0
  141.9330  158.4420  133.8420 C   0  0  0  0  0  0  0  0  0  0  0  0
  142.1910  157.0850  133.5920 C   0  0  0  0  0  0  0  0  0  0  0  0
  143.5190  156.6190  133.3840 C   0  0  0  0  0  0  0  0  0  0  0  0
  143.7720  155.2200  133.1230 N   0  0  0  0  0  0  0  0  0  0  0  0
  144.5250  154.7300  131.9760 C   0  0  0  0  0  0  0  0  0  0  0  0
  144.7440  153.2450  132.2280 C   0  0  0  0  0  0  0  0  0  0  0  0
  143.6830  152.8410  133.2540 C   0  0  2  0  0  0  0  0  0  0  0  0
  142.5010  152.3030  132.5710 N   0  0  0  0  0  0  0  0  0  0  0  0
  141.4110  151.6870  133.2680 C   0  0  0  0  0  0  0  0  0  0  0  0
  141.4360  151.5780  134.5250 O   0  0  0  0  0  0  0  0  0  0  0  0
  140.3210  151.2040  132.5390 O   0  0  0  0  0  0  0  0  0  0  0  0
  140.1830  149.8340  132.1840 C   0  0  0  0  0  0  0  0  0  0  0  0
  143.3250  154.1340  133.9870 C   0  0  0  0  0  0  0  0  0  0  0  0
  144.5880  157.5480  133.4310 C   0  0  0  0  0  0  0  0  0  0  0  0
  144.2980  158.8980  133.6620 C   0  0  0  0  0  0  0  0  0  0  0  0
  149.7542  158.0131  131.8886 H   0  0  0  0  0  0  0  0  0  0  0  0
  148.1638  159.0215  131.5992 H   0  0  0  0  0  0  0  0  0  0  0  0
  149.1190  157.6406  134.1804 H   0  0  0  0  0  0  0  0  0  0  0  0
  146.9740  162.4500  134.5370 H   0  0  0  0  0  0  0  0  0  0  0  0
  142.1876  161.3329  134.3171 H   0  0  0  0  0  0  0  0  0  0  0  0
  140.9067  158.8016  134.0078 H   0  0  0  0  0  0  0  0  0  0  0  0
  141.3544  156.3717  133.5564 H   0  0  0  0  0  0  0  0  0  0  0  0
  143.9524  154.8809  131.0490 H   0  0  0  0  0  0  0  0  0  0  0  0
  145.4785  155.2658  131.8585 H   0  0  0  0  0  0  0  0  0  0  0  0
  144.6145  152.6743  131.2966 H   0  0  0  0  0  0  0  0  0  0  0  0
  145.7615  153.0396  132.5921 H   0  0  0  0  0  0  0  0  0  0  0  0
  144.0457  152.0628  133.9416 H   0  0  0  0  0  0  0  0  0  0  0  0
  142.3990  152.4540  131.5420 H   0  0  0  0  0  0  0  0  0  0  0  0
  140.1215  149.2231  133.0967 H   0  0  0  0  0  0  0  0  0  0  0  0
  139.2668  149.6995  131.5903 H   0  0  0  0  0  0  0  0  0  0  0  0
  141.0540  149.5195  131.5903 H   0  0  0  0  0  0  0  0  0  0  0  0
  142.2384  154.1949  134.1470 H   0  0  0  0  0  0  0  0  0  0  0  0
  143.8025  154.1827  134.9768 H   0  0  0  0  0  0  0  0  0  0  0  0
  145.6265  157.2146  133.2886 H   0  0  0  0  0  0  0  0  0  0  0  0
  1  2  2  0
  2  3  1  0
  3  4  1  0
  4  5  2  0
  4  6  1  0
  6  7  1  0
  7  8  1  0
  8  9  1  0
  8 10  2  0
  7 11  2  0
 11 12  1  0
 12 13  2  0
 13 14  1  0
 14 15  2  0
 15 16  1  0
 16 17  1  0
 17 18  1  0
 18 19  1  0
 19 20  1  0
 20 21  1  0
 21 22  2  0
 21 23  1  0
 23 24  1  0
 19 25  1  0
 15 26  1  0
 26 27  2  0
 27  6  1  0
 27 12  1  0
 25 16  1  0
  1 28  1  0
  1 29  1  0
  2 30  1  0
  9 31  1  0
 11 32  1  0
 13 33  1  0
 14 34  1  0
 17 35  1  0
 17 36  1  0
 18 37  1  0
 18 38  1  0
 19 39  1  1
 20 40  1  0
 24 41  1  0
 24 42  1  0
 24 43  1  0
 25 44  1  0
 25 45  1  0
 26 46  1  0
M  CHG  1   9  -1
M  END
>  <UniqueID>  (67) 
67

>  <SMILES>  (67) 
C=COC(=O)n1c(C([NH-])=O)cc2ccc(N3CC[C@H](NC(=O)OC)C3)cc21

>  <Energy>  (67) 
88.13438835557074

>  <Genealogy>  (67) 
C=COC(=O)n1c(C([NH-])=O)cc2ccc(N3CC[C@H](NC(=O)OC)C3)cc21 (protonated)
C=COC(=O)n1c(C([NH-])=O)cc2ccc(N3CC[C@H](NC(=O)OC)C3)cc21 (3D coordinates assigned)
C=COC(=O)n1c(C([NH-])=O)cc2ccc(N3CC[C@H](NC(=O)OC)C3)cc21 (nonaromatic ring conformer: 88.13438835557074 kcal/mol)

>  <smiles>  (67) 
C=COC(=O)n1c(C(N)=O)cc2ccc(N3CC[C@H](NC(=O)OC)C3)cc21

>  <score_type>  (67) 
oracle

>  <origin>  (67) 
adg

>  <m_score__min__energy>  (67) 
-7.5999999999999996

>  <m_primary>  (67) 
energy

$$$$
67:0
     RDKit          3D

 49 51  0  0  0  0  0  0  0  0999 V2000
  141.3170  156.0300  139.2040 C   0  0  0  0  0  0  0  0  0  0  0  0
  141.8280  157.7390  138.6520 Si  0  0  0  0  0  2  0  0  0  0  0  0
  141.9140  157.7750  136.9090 O   0  0  0  0  0  0  0  0  0  0  0  0
  140.7540  158.2910  136.2450 C   0  0  0  0  0  0  0  0  0  0  0  0
  140.6140  159.8160  136.5620 C   0  0  0  0  0  0  0  0  0  0  0  0
  139.4990  157.4970  136.7280 C   0  0  0  0  0  0  0  0  0  0  0  0
  141.0050  158.0590  134.6850 C   0  0  1  0  0  0  0  0  0  0  0  0
  139.8990  158.8060  133.8760 C   0  0  0  0  0  0  0  0  0  0  0  0
  142.4040  158.6260  134.3240 C   0  0  0  0  0  0  0  0  0  0  0  0
  142.5860  160.0270  134.1230 C   0  0  0  0  0  0  0  0  0  0  0  0
  143.8200  160.5600  133.7270 C   0  0  0  0  0  0  0  0  0  0  0  0
  144.8740  159.6780  133.5250 C   0  0  0  0  0  0  0  0  0  0  0  0
  146.1630  159.9210  133.1070 C   0  0  0  0  0  0  0  0  0  0  0  0
  146.7730  158.6740  133.0620 C   0  0  0  0  0  0  0  0  0  0  0  0
  148.1970  158.4790  132.7340 C   0  0  0  0  0  0  0  0  0  0  0  0
  148.6060  157.4820  131.8010 N   0  0  0  0  0  0  0  0  0  0  0  0
  149.0700  159.1700  133.3240 O   0  0  0  0  0  0  0  0  0  0  0  0
  145.8940  157.6950  133.4160 N   0  0  0  0  0  0  0  0  0  0  0  0
  146.1040  156.2740  133.3920 C   0  0  0  0  0  0  0  0  0  0  0  0
  146.4370  155.6990  132.3240 O   0  0  0  0  0  0  0  0  0  0  0  0
  145.9610  155.2940  134.9000 S   0  0  0  0  0  0  0  0  0  0  0  0
  144.7360  158.3290  133.7010 C   0  0  0  0  0  0  0  0  0  0  0  0
  143.5120  157.7670  134.0750 C   0  0  0  0  0  0  0  0  0  0  0  0
  140.9320  156.6010  134.1870 C   0  0  0  0  0  0  0  0  0  0  0  0
  141.6470  155.4650  134.5860 C   0  0  0  0  0  0  0  0  0  0  0  0
  141.2890  154.2940  133.9050 C   0  0  0  0  0  0  0  0  0  0  0  0
  140.2770  154.4680  132.9760 C   0  0  0  0  0  0  0  0  0  0  0  0
  139.8380  156.0820  133.0050 S   0  0  0  0  0  0  0  0  0  0  0  0
  141.3045  155.9881  140.3031 H   0  0  0  0  0  0  0  0  0  0  0  0
  140.3122  155.8048  138.8170 H   0  0  0  0  0  0  0  0  0  0  0  0
  142.0332  155.2902  138.8170 H   0  0  0  0  0  0  0  0  0  0  0  0
  140.6004  159.9642  137.6519 H   0  0  0  0  0  0  0  0  0  0  0  0
  141.4659  160.3603  136.1285 H   0  0  0  0  0  0  0  0  0  0  0  0
  139.6772  160.1961  136.1285 H   0  0  0  0  0  0  0  0  0  0  0  0
  139.4754  157.4821  137.8276 H   0  0  0  0  0  0  0  0  0  0  0  0
  138.5886  157.9838  136.3483 H   0  0  0  0  0  0  0  0  0  0  0  0
  139.5490  156.4658  136.3483 H   0  0  0  0  0  0  0  0  0  0  0  0
  139.1937  159.2824  134.5728 H   0  0  0  0  0  0  0  0  0  0  0  0
  140.3646  159.5753  133.2425 H   0  0  0  0  0  0  0  0  0  0  0  0
  139.3592  158.0868  133.2425 H   0  0  0  0  0  0  0  0  0  0  0  0
  141.7356  160.7061  134.2830 H   0  0  0  0  0  0  0  0  0  0  0  0
  143.9499  161.6425  133.5808 H   0  0  0  0  0  0  0  0  0  0  0  0
  146.6133  160.8941  132.8613 H   0  0  0  0  0  0  0  0  0  0  0  0
  149.6140  157.3850  131.5500 H   0  0  0  0  0  0  0  0  0  0  0  0
  147.9280  156.7690  131.4470 H   0  0  0  0  0  0  0  0  0  0  0  0
  143.4062  156.6767  134.1755 H   0  0  0  0  0  0  0  0  0  0  0  0
  142.4222  155.4898  135.3661 H   0  0  0  0  0  0  0  0  0  0  0  0
  141.7694  153.3223  134.0918 H   0  0  0  0  0  0  0  0  0  0  0  0
  139.8411  153.6871  132.3355 H   0  0  0  0  0  0  0  0  0  0  0  0
  1  2  1  0
  2  3  1  0
  3  4  1  0
  4  5  1  0
  4  6  1  0
  7  4  1  1
  7  8  1  0
  7  9  1  0
  9 10  2  0
 10 11  1  0
 11 12  2  0
 12 13  1  0
 13 14  2  0
 14 15  1  0
 15 16  1  0
 15 17  2  0
 14 18  1  0
 18 19  1  0
 19 20  2  0
 19 21  1  0
 18 22  1  0
 22 23  2  0
  7 24  1  0
 24 25  2  0
 25 26  1  0
 26 27  2  0
 27 28  1  0
 23  9  1  0
 28 24  1  0
 22 12  1  0
  1 29  1  0
  1 30  1  0
  1 31  1  0
  5 32  1  0
  5 33  1  0
  5 34  1  0
  6 35  1  0
  6 36  1  0
  6 37  1  0
  8 38  1  0
  8 39  1  0
  8 40  1  0
 10 41  1  0
 11 42  1  0
 13 43  1  0
 16 44  1  0
 16 45  1  0
 23 46  1  0
 25 47  1  0
 26 48  1  0
 27 49  1  0
M  CHG  1  21  -1
M  RAD  1   2   3
M  END
>  <UniqueID>  (68) 
68

>  <SMILES>  (68) 
C[Si]OC(C)(C)[C@@](C)(c1ccc2cc(C(N)=O)n(C(=O)[S-])c2c1)c1cccs1

>  <Energy>  (68) 
139.83872414450875

>  <Genealogy>  (68) 
C[Si]OC(C)(C)C(C)(c1ccc2cc(C(N)=O)n(C(=O)[S-])c2c1)c1cccs1 (protonated)
C[Si]OC(C)(C)[C@@](C)(c1ccc2cc(C(N)=O)n(C(=O)[S-])c2c1)c1cccs1 (chirality)
C[Si]OC(C)(C)[C@@](C)(c1ccc2cc(C(N)=O)n(C(=O)[S-])c2c1)c1cccs1 (3D coordinates assigned)
C[Si]OC(C)(C)[C@@](C)(c1ccc2cc(C(N)=O)n(C(=O)[S-])c2c1)c1cccs1 (optimized conformer: 139.83872414450875 kcal/mol)

>  <smiles>  (68) 
C[Si]OC(C)(C)C(C)(c1ccc2cc(C(N)=O)n(C(=O)S)c2c1)c1cccs1

>  <score_type>  (68) 
oracle

>  <origin>  (68) 
adg

>  <m_score__min__energy>  (68) 
-8.75

>  <m_primary>  (68) 
energy

$$$$
68:0
     RDKit          3D

 48 50  0  0  0  0  0  0  0  0999 V2000
  140.9770  153.5100  132.9820 C   0  0  0  0  0  0  0  0  0  0  0  0
  140.7210  154.8910  133.5930 C   0  0  0  0  0  0  0  0  0  0  0  0
  139.4920  155.5360  132.9540 C   0  0  0  0  0  0  0  0  0  0  0  0
  141.8480  155.7380  133.3800 O   0  0  0  0  0  0  0  0  0  0  0  0
  142.4680  156.4760  134.3970 C   0  0  0  0  0  0  0  0  0  0  0  0
  142.9560  155.8930  135.4020 O   0  0  0  0  0  0  0  0  0  0  0  0
  142.5670  157.9040  134.2750 N   0  0  0  0  0  0  0  0  0  0  0  0
  141.5900  158.8360  134.4690 C   0  0  0  0  0  0  0  0  0  0  0  0
  140.1610  158.5560  134.7270 C   0  0  0  0  0  0  0  0  0  0  0  0
  139.7290  158.2400  136.0490 N   0  0  0  0  0  0  0  0  0  0  0  0
  139.3120  158.6270  133.8010 O   0  0  0  0  0  0  0  0  0  0  0  0
  142.1030  160.1200  134.3060 C   0  0  0  0  0  0  0  0  0  0  0  0
  143.4330  159.9470  133.9980 C   0  0  0  0  0  0  0  0  0  0  0  0
  144.4220  160.8900  133.7320 C   0  0  0  0  0  0  0  0  0  0  0  0
  145.7200  160.4250  133.4600 C   0  0  0  0  0  0  0  0  0  0  0  0
  146.0060  159.0360  133.4760 C   0  0  0  0  0  0  0  0  0  0  0  0
  147.3920  158.5430  133.1580 C   0  0  0  0  0  0  0  0  0  0  0  0
  148.3210  159.7250  132.8380 C   0  0  0  0  0  0  0  0  0  0  0  0
  148.2790  160.1500  131.3560 C   0  0  2  0  0  0  0  0  0  0  0  0
  149.2500  159.3620  130.4790 C   0  0  0  0  0  0  0  0  0  0  0  0
  149.7780  160.4010  129.5390 C   0  0  0  0  0  0  0  0  0  0  0  0
  149.6000  161.6850  130.3190 C   0  0  0  0  0  0  0  0  0  0  0  0
  148.5300  161.5330  131.2220 O   0  0  0  0  0  0  0  0  0  0  0  0
  144.9740  158.1090  133.7390 C   0  0  0  0  0  0  0  0  0  0  0  0
  143.6870  158.5990  133.9860 C   0  0  0  0  0  0  0  0  0  0  0  0
  141.1137  152.7726  133.7867 H   0  0  0  0  0  0  0  0  0  0  0  0
  140.1175  153.2191  132.3602 H   0  0  0  0  0  0  0  0  0  0  0  0
  141.8837  153.5465  132.3602 H   0  0  0  0  0  0  0  0  0  0  0  0
  140.5499  154.7631  134.6721 H   0  0  0  0  0  0  0  0  0  0  0  0
  138.8131  155.8923  133.7427 H   0  0  0  0  0  0  0  0  0  0  0  0
  139.8065  156.3853  132.3296 H   0  0  0  0  0  0  0  0  0  0  0  0
  138.9717  154.7947  132.3296 H   0  0  0  0  0  0  0  0  0  0  0  0
  139.4740  158.9940  136.7240 H   0  0  0  0  0  0  0  0  0  0  0  0
  141.5599  161.0717  134.4029 H   0  0  0  0  0  0  0  0  0  0  0  0
  144.1944  161.9662  133.7346 H   0  0  0  0  0  0  0  0  0  0  0  0
  146.5207  161.1442  133.2329 H   0  0  0  0  0  0  0  0  0  0  0  0
  147.7892  157.9942  134.0246 H   0  0  0  0  0  0  0  0  0  0  0  0
  147.3426  157.8805  132.2813 H   0  0  0  0  0  0  0  0  0  0  0  0
  148.0193  160.5835  133.4561 H   0  0  0  0  0  0  0  0  0  0  0  0
  149.3491  159.3993  133.0546 H   0  0  0  0  0  0  0  0  0  0  0  0
  147.2623  159.9226  131.0031 H   0  0  0  0  0  0  0  0  0  0  0  0
  150.0606  158.9255  131.0809 H   0  0  0  0  0  0  0  0  0  0  0  0
  148.7763  158.5134  129.9638 H   0  0  0  0  0  0  0  0  0  0  0  0
  150.8384  160.2226  129.3072 H   0  0  0  0  0  0  0  0  0  0  0  0
  149.2634  160.4087  128.5668 H   0  0  0  0  0  0  0  0  0  0  0  0
  150.5222  161.9085  130.8754 H   0  0  0  0  0  0  0  0  0  0  0  0
  149.3846  162.5118  129.6262 H   0  0  0  0  0  0  0  0  0  0  0  0
  145.1769  157.0279  133.7495 H   0  0  0  0  0  0  0  0  0  0  0  0
  1  2  1  0
  2  3  1  0
  2  4  1  0
  4  5  1  0
  5  6  2  0
  5  7  1  0
  7  8  1  0
  8  9  1  0
  9 10  1  0
  9 11  2  0
  8 12  2  0
 12 13  1  0
 13 14  2  0
 14 15  1  0
 15 16  2  0
 16 17  1  0
 17 18  1  0
 18 19  1  0
 19 20  1  0
 20 21  1  0
 21 22  1  0
 22 23  1  0
 16 24  1  0
 24 25  2  0
 25  7  1  0
 25 13  1  0
 23 19  1  0
  1 26  1  0
  1 27  1  0
  1 28  1  0
  2 29  1  0
  3 30  1  0
  3 31  1  0
  3 32  1  0
 10 33  1  0
 12 34  1  0
 14 35  1  0
 15 36  1  0
 17 37  1  0
 17 38  1  0
 18 39  1  0
 18 40  1  0
 19 41  1  6
 20 42  1  0
 20 43  1  0
 21 44  1  0
 21 45  1  0
 22 46  1  0
 22 47  1  0
 24 48  1  0
M  CHG  1  10  -1
M  END
>  <UniqueID>  (69) 
69

>  <SMILES>  (69) 
CC(C)OC(=O)n1c(C([NH-])=O)cc2ccc(CC[C@@H]3CCCO3)cc21

>  <Energy>  (69) 
77.65254978534891

>  <Genealogy>  (69) 
CC(C)OC(=O)n1c(C([NH-])=O)cc2ccc(CCC3CCCO3)cc21 (protonated)
CC(C)OC(=O)n1c(C([NH-])=O)cc2ccc(CC[C@@H]3CCCO3)cc21 (chirality)
CC(C)OC(=O)n1c(C([NH-])=O)cc2ccc(CC[C@@H]3CCCO3)cc21 (3D coordinates assigned)
CC(C)OC(=O)n1c(C([NH-])=O)cc2ccc(CC[C@@H]3CCCO3)cc21 (nonaromatic ring conformer: 77.65254978534891 kcal/mol)

>  <smiles>  (69) 
CC(C)OC(=O)n1c(C(N)=O)cc2ccc(CCC3CCCO3)cc21

>  <score_type>  (69) 
oracle

>  <origin>  (69) 
adg

>  <m_score__min__energy>  (69) 
-8.2200000000000006

>  <m_primary>  (69) 
energy

$$$$
69:0
     RDKit          3D

 46 47  0  0  0  0  0  0  0  0999 V2000
  139.5480  157.4340  133.3640 C   0  0  0  0  0  0  0  0  0  0  0  0
  140.8660  157.0150  133.6360 O   0  0  0  0  0  0  0  0  0  0  0  0
  141.7550  157.6590  132.7480 C   0  0  0  0  0  0  0  0  0  0  0  0
  143.1240  157.6880  133.3600 C   0  0  0  0  0  0  0  0  0  0  0  0
  143.6380  156.6130  133.7740 O   0  0  0  0  0  0  0  0  0  0  0  0
  143.8290  158.9300  133.5360 N   0  0  0  0  0  0  0  0  0  0  0  0
  143.3300  160.1350  133.9340 C   0  0  0  0  0  0  0  0  0  0  0  0
  141.9020  160.4680  134.1010 C   0  0  0  0  0  0  0  0  0  0  0  0
  141.0910  159.7630  135.0350 N   0  0  0  0  0  0  0  0  0  0  0  0
  141.3770  161.3500  133.3700 O   0  0  0  0  0  0  0  0  0  0  0  0
  144.3560  161.0710  134.0580 C   0  0  0  0  0  0  0  0  0  0  0  0
  145.5040  160.4040  133.7000 C   0  0  0  0  0  0  0  0  0  0  0  0
  146.8170  160.8590  133.6180 C   0  0  0  0  0  0  0  0  0  0  0  0
  147.8050  159.9490  133.2070 C   0  0  0  0  0  0  0  0  0  0  0  0
  147.4680  158.6050  132.9040 C   0  0  0  0  0  0  0  0  0  0  0  0
  148.5270  157.6540  132.4120 C   0  0  0  0  0  0  0  0  0  0  0  0
  148.3510  156.2770  133.0630 C   0  0  0  0  0  0  0  0  0  0  0  0
  147.3630  155.4040  132.2670 C   0  0  0  0  0  0  0  0  0  0  0  0
  146.1030  155.1630  133.0120 N   0  0  0  0  0  0  0  0  0  0  0  0
  146.3300  155.1720  134.4700 C   0  0  0  0  0  0  0  0  0  0  0  0
  145.5180  153.8700  132.6130 C   0  0  0  0  0  0  0  0  0  0  0  0
  146.1230  158.1800  132.9950 C   0  0  0  0  0  0  0  0  0  0  0  0
  145.1590  159.1140  133.3890 C   0  0  0  0  0  0  0  0  0  0  0  0
  139.0144  157.6036  134.3108 H   0  0  0  0  0  0  0  0  0  0  0  0
  139.5726  158.3686  132.7844 H   0  0  0  0  0  0  0  0  0  0  0  0
  139.0284  156.6568  132.7844 H   0  0  0  0  0  0  0  0  0  0  0  0
  141.7885  157.1084  131.7963 H   0  0  0  0  0  0  0  0  0  0  0  0
  141.4112  158.6868  132.5596 H   0  0  0  0  0  0  0  0  0  0  0  0
  140.9190  158.7390  134.9320 H   0  0  0  0  0  0  0  0  0  0  0  0
  144.2662  162.1205  134.3750 H   0  0  0  0  0  0  0  0  0  0  0  0
  147.0730  161.8993  133.8674 H   0  0  0  0  0  0  0  0  0  0  0  0
  148.8498  160.2818  133.1193 H   0  0  0  0  0  0  0  0  0  0  0  0
  148.4439  157.5522  131.3199 H   0  0  0  0  0  0  0  0  0  0  0  0
  149.5169  158.0520  132.6796 H   0  0  0  0  0  0  0  0  0  0  0  0
  149.3269  155.7708  133.1002 H   0  0  0  0  0  0  0  0  0  0  0  0
  147.9485  156.4209  134.0765 H   0  0  0  0  0  0  0  0  0  0  0  0
  147.1238  155.9121  131.3212 H   0  0  0  0  0  0  0  0  0  0  0  0
  147.8413  154.4298  132.0880 H   0  0  0  0  0  0  0  0  0  0  0  0
  145.4070  155.9100  132.7780 H   0  0  0  0  0  0  0  0  0  0  0  0
  145.3625  155.1336  134.9920 H   0  0  0  0  0  0  0  0  0  0  0  0
  146.9340  154.2971  134.7525 H   0  0  0  0  0  0  0  0  0  0  0  0
  146.8628  156.0920  134.7525 H   0  0  0  0  0  0  0  0  0  0  0  0
  145.2568  153.2927  133.5122 H   0  0  0  0  0  0  0  0  0  0  0  0
  144.6121  154.0465  132.0146 H   0  0  0  0  0  0  0  0  0  0  0  0
  146.2486  153.3060  132.0146 H   0  0  0  0  0  0  0  0  0  0  0  0
  145.8418  157.1423  132.7622 H   0  0  0  0  0  0  0  0  0  0  0  0
  1  2  1  0
  2  3  1  0
  3  4  1  0
  4  5  2  0
  4  6  1  0
  6  7  1  0
  7  8  1  0
  8  9  1  0
  8 10  2  0
  7 11  2  0
 11 12  1  0
 12 13  2  0
 13 14  1  0
 14 15  2  0
 15 16  1  0
 16 17  1  0
 17 18  1  0
 18 19  1  0
 19 20  1  0
 19 21  1  0
 15 22  1  0
 22 23  2  0
 23  6  1  0
 23 12  1  0
  1 24  1  0
  1 25  1  0
  1 26  1  0
  3 27  1  0
  3 28  1  0
  9 29  1  0
 11 30  1  0
 13 31  1  0
 14 32  1  0
 16 33  1  0
 16 34  1  0
 17 35  1  0
 17 36  1  0
 18 37  1  0
 18 38  1  0
 19 39  1  0
 20 40  1  0
 20 41  1  0
 20 42  1  0
 21 43  1  0
 21 44  1  0
 21 45  1  0
 22 46  1  0
M  CHG  2   9  -1  19   1
M  END
>  <UniqueID>  (70) 
70

>  <SMILES>  (70) 
COCC(=O)n1c(C([NH-])=O)cc2ccc(CCC[NH+](C)C)cc21

>  <Energy>  (70) 
82.3996438980232

>  <Genealogy>  (70) 
COCC(=O)n1c(C([NH-])=O)cc2ccc(CCC[NH+](C)C)cc21 (protonated)
COCC(=O)n1c(C([NH-])=O)cc2ccc(CCC[NH+](C)C)cc21 (3D coordinates assigned)
COCC(=O)n1c(C([NH-])=O)cc2ccc(CCC[NH+](C)C)cc21 (optimized conformer: 82.3996438980232 kcal/mol)

>  <smiles>  (70) 
COCC(=O)n1c(C(N)=O)cc2ccc(CCCN(C)C)cc21

>  <score_type>  (70) 
oracle

>  <origin>  (70) 
adg

>  <m_score__min__energy>  (70) 
-6.0199999999999996

>  <m_primary>  (70) 
energy

$$$$
70:0
     RDKit          3D

 39 41  0  0  0  0  0  0  0  0999 V2000
  139.4150  157.9120  136.7200 N   0  0  0  0  0  0  0  0  0  0  0  0
  139.7030  158.1950  135.3530 C   0  0  0  0  0  0  0  0  0  0  0  0
  138.7600  158.2280  134.5180 O   0  0  0  0  0  0  0  0  0  0  0  0
  141.0940  158.3920  134.8940 C   0  0  0  0  0  0  0  0  0  0  0  0
  141.7000  159.6440  134.8090 C   0  0  0  0  0  0  0  0  0  0  0  0
  142.9420  159.4110  134.2640 C   0  0  0  0  0  0  0  0  0  0  0  0
  143.9690  160.3000  133.9670 C   0  0  0  0  0  0  0  0  0  0  0  0
  145.1600  159.7770  133.4390 C   0  0  0  0  0  0  0  0  0  0  0  0
  145.3140  158.3850  133.2260 C   0  0  0  0  0  0  0  0  0  0  0  0
  146.5640  157.8970  132.6990 N   0  0  0  0  0  0  0  0  0  0  0  0
  147.8800  158.1890  133.2670 C   0  0  0  0  0  0  0  0  0  0  0  0
  149.0120  158.0710  132.2220 C   0  0  0  0  0  0  0  0  0  0  0  0
  149.3560  159.3090  131.4820 N   0  0  0  0  0  0  0  0  0  0  0  0
  149.2700  159.2450  130.0250 C   0  0  0  0  0  0  0  0  0  0  0  0
  149.6010  160.6300  129.5110 C   0  0  0  0  0  0  0  0  0  0  0  0
  148.9120  161.8220  130.6960 S   0  0  0  0  0  0  0  0  0  0  0  0
  148.6500  160.5100  131.9310 C   0  0  0  0  0  0  0  0  0  0  0  0
  144.2410  157.5130  133.5350 C   0  0  0  0  0  0  0  0  0  0  0  0
  143.0580  158.0630  134.0440 C   0  0  0  0  0  0  0  0  0  0  0  0
  141.9320  157.4220  134.4280 N   0  0  0  0  0  0  0  0  0  0  0  0
  141.7200  156.0020  134.4260 C   0  0  0  0  0  0  0  0  0  0  0  0
  140.8830  155.4840  133.6390 O   0  0  0  0  0  0  0  0  0  0  0  0
  142.4200  155.1860  135.3070 O   0  0  0  0  0  0  0  0  0  0  0  0
  139.1010  158.6670  137.3690 H   0  0  0  0  0  0  0  0  0  0  0  0
  141.2759  160.6124  135.1129 H   0  0  0  0  0  0  0  0  0  0  0  0
  143.8519  161.3799  134.1404 H   0  0  0  0  0  0  0  0  0  0  0  0
  145.9860  160.4583  133.1869 H   0  0  0  0  0  0  0  0  0  0  0  0
  146.5370  157.2720  131.8610 H   0  0  0  0  0  0  0  0  0  0  0  0
  147.8730  159.2141  133.6660 H   0  0  0  0  0  0  0  0  0  0  0  0
  148.0754  157.4499  134.0579 H   0  0  0  0  0  0  0  0  0  0  0  0
  149.9176  157.7315  132.7461 H   0  0  0  0  0  0  0  0  0  0  0  0
  148.6368  157.3701  131.4617 H   0  0  0  0  0  0  0  0  0  0  0  0
  149.9916  158.5126  129.6340 H   0  0  0  0  0  0  0  0  0  0  0  0
  148.2672  158.9304  129.7002 H   0  0  0  0  0  0  0  0  0  0  0  0
  150.6916  160.7554  129.4413 H   0  0  0  0  0  0  0  0  0  0  0  0
  149.1761  160.7862  128.5085 H   0  0  0  0  0  0  0  0  0  0  0  0
  149.0460  160.8319  132.9054 H   0  0  0  0  0  0  0  0  0  0  0  0
  147.5756  160.3001  132.0390 H   0  0  0  0  0  0  0  0  0  0  0  0
  144.3350  156.4282  133.3786 H   0  0  0  0  0  0  0  0  0  0  0  0
  1  2  1  0
  2  3  2  0
  2  4  1  0
  4  5  2  0
  5  6  1  0
  6  7  2  0
  7  8  1  0
  8  9  2  0
  9 10  1  0
 10 11  1  0
 11 12  1  0
 12 13  1  0
 13 14  1  0
 14 15  1  0
 15 16  1  0
 16 17  1  0
  9 18  1  0
 18 19  2  0
 19 20  1  0
 20 21  1  0
 21 22  2  0
 21 23  1  0
 20  4  1  0
 19  6  1  0
 17 13  1  0
  1 24  1  0
  5 25  1  0
  7 26  1  0
  8 27  1  0
 10 28  1  0
 11 29  1  0
 11 30  1  0
 12 31  1  0
 12 32  1  0
 14 33  1  0
 14 34  1  0
 15 35  1  0
 15 36  1  0
 17 37  1  0
 17 38  1  0
 18 39  1  0
M  CHG  2   1  -1  23  -1
M  END
>  <UniqueID>  (71) 
71

>  <SMILES>  (71) 
[NH-]C(=O)c1cc2ccc(NCCN3CCSC3)cc2n1C(=O)[O-]

>  <Energy>  (71) 
82.27746241197616

>  <Genealogy>  (71) 
[NH-]C(=O)c1cc2ccc(NCCN3CCSC3)cc2n1C(=O)[O-] (protonated)
[NH-]C(=O)c1cc2ccc(NCCN3CCSC3)cc2n1C(=O)[O-] (3D coordinates assigned)
[NH-]C(=O)c1cc2ccc(NCCN3CCSC3)cc2n1C(=O)[O-] (nonaromatic ring conformer: 82.27746241197616 kcal/mol)

>  <smiles>  (71) 
NC(=O)c1cc2ccc(NCCN3CCSC3)cc2n1C(=O)O

>  <score_type>  (71) 
oracle

>  <origin>  (71) 
adg

>  <m_score__min__energy>  (71) 
-7.46

>  <m_primary>  (71) 
energy

$$$$
71:0
     RDKit          3D

 53 55  0  0  0  0  0  0  0  0999 V2000
  141.6390  156.0340  135.6570 C   0  0  0  0  0  0  0  0  0  0  0  0
  141.6270  155.6500  134.2300 N   0  0  0  0  0  0  0  0  0  0  0  0
  142.3580  154.3770  134.0140 C   0  0  0  0  0  0  0  0  0  0  0  0
  143.8880  154.5310  134.1540 C   0  0  0  0  0  0  0  0  0  0  0  0
  144.5770  155.0810  132.8920 C   0  0  0  0  0  0  0  0  0  0  0  0
  145.1520  156.4640  133.0670 C   0  0  0  0  0  0  0  0  0  0  0  0
  146.5410  156.6800  132.8760 C   0  0  0  0  0  0  0  0  0  0  0  0
  147.1010  157.9540  133.0660 C   0  0  0  0  0  0  0  0  0  0  0  0
  146.2510  158.9910  133.4340 C   0  0  0  0  0  0  0  0  0  0  0  0
  146.5240  160.3210  133.6570 C   0  0  0  0  0  0  0  0  0  0  0  0
  145.2970  160.9040  133.9630 C   0  0  0  0  0  0  0  0  0  0  0  0
  145.1190  162.3570  134.1650 C   0  0  0  0  0  0  0  0  0  0  0  0
  145.9830  163.0890  135.0300 N   0  0  0  0  0  0  0  0  0  0  0  0
  144.1610  162.9520  133.6030 O   0  0  0  0  0  0  0  0  0  0  0  0
  144.3060  159.9680  133.9460 N   0  0  0  0  0  0  0  0  0  0  0  0
  142.9140  160.1480  134.2560 C   0  0  0  0  0  0  0  0  0  0  0  0
  142.4190  159.6230  135.2880 O   0  0  0  0  0  0  0  0  0  0  0  0
  142.0970  160.8840  133.4070 O   0  0  0  0  0  0  0  0  0  0  0  0
  144.9070  158.8030  133.6170 C   0  0  0  0  0  0  0  0  0  0  0  0
  144.3270  157.5380  133.4710 C   0  0  0  0  0  0  0  0  0  0  0  0
  140.2290  155.5630  133.7310 C   0  0  0  0  0  0  0  0  0  0  0  0
  139.9270  156.7480  132.7930 C   0  0  1  0  0  0  0  0  0  0  0  0
  138.6830  157.5280  133.2510 C   0  0  0  0  0  0  0  0  0  0  0  0
  138.3240  158.6350  132.2420 C   0  0  0  0  0  0  0  0  0  0  0  0
  139.5480  159.1340  131.4550 C   0  0  0  0  0  0  0  0  0  0  0  0
  140.7490  159.0940  132.2940 N   0  0  0  0  0  0  0  0  0  0  0  0
  141.1340  157.7180  132.6680 C   0  0  0  0  0  0  0  0  0  0  0  0
  141.6107  155.1283  136.2807 H   0  0  0  0  0  0  0  0  0  0  0  0
  142.5553  156.6017  135.8763 H   0  0  0  0  0  0  0  0  0  0  0  0
  140.7599  156.6578  135.8763 H   0  0  0  0  0  0  0  0  0  0  0  0
  142.0100  153.6424  134.7551 H   0  0  0  0  0  0  0  0  0  0  0  0
  142.1523  154.0490  132.9844 H   0  0  0  0  0  0  0  0  0  0  0  0
  144.0921  155.2188  134.9878 H   0  0  0  0  0  0  0  0  0  0  0  0
  144.2959  153.5243  134.3278 H   0  0  0  0  0  0  0  0  0  0  0  0
  145.3941  154.3978  132.6172 H   0  0  0  0  0  0  0  0  0  0  0  0
  143.8061  155.1508  132.1104 H   0  0  0  0  0  0  0  0  0  0  0  0
  147.1861  155.8411  132.5760 H   0  0  0  0  0  0  0  0  0  0  0  0
  148.1787  158.1260  132.9279 H   0  0  0  0  0  0  0  0  0  0  0  0
  147.5038  160.8183  133.6046 H   0  0  0  0  0  0  0  0  0  0  0  0
  147.0200  163.0360  134.9250 H   0  0  0  0  0  0  0  0  0  0  0  0
  143.2555  157.3833  133.6658 H   0  0  0  0  0  0  0  0  0  0  0  0
  140.0973  154.6201  133.1800 H   0  0  0  0  0  0  0  0  0  0  0  0
  139.5385  155.5960  134.5867 H   0  0  0  0  0  0  0  0  0  0  0  0
  139.7301  156.3129  131.8021 H   0  0  0  0  0  0  0  0  0  0  0  0
  137.8350  156.8330  133.3396 H   0  0  0  0  0  0  0  0  0  0  0  0
  138.9004  157.9960  134.2225 H   0  0  0  0  0  0  0  0  0  0  0  0
  137.5851  158.2377  131.5305 H   0  0  0  0  0  0  0  0  0  0  0  0
  137.9214  159.4869  132.8096 H   0  0  0  0  0  0  0  0  0  0  0  0
  139.6994  158.4912  130.5753 H   0  0  0  0  0  0  0  0  0  0  0  0
  139.3689  160.1725  131.1395 H   0  0  0  0  0  0  0  0  0  0  0  0
  141.5390  159.5200  131.7550 H   0  0  0  0  0  0  0  0  0  0  0  0
  141.8168  157.3266  131.8995 H   0  0  0  0  0  0  0  0  0  0  0  0
  141.6081  157.7732  133.6590 H   0  0  0  0  0  0  0  0  0  0  0  0
  1  2  1  0
  2  3  1  0
  3  4  1  0
  4  5  1  0
  5  6  1  0
  6  7  2  0
  7  8  1  0
  8  9  2  0
  9 10  1  0
 10 11  2  0
 11 12  1  0
 12 13  1  0
 12 14  2  0
 11 15  1  0
 15 16  1  0
 16 17  2  0
 16 18  1  0
 15 19  1  0
 19 20  2  0
  2 21  1  0
 21 22  1  0
 22 23  1  0
 23 24  1  0
 24 25  1  0
 25 26  1  0
 26 27  1  0
 20  6  1  0
 27 22  1  0
 19  9  1  0
  1 28  1  0
  1 29  1  0
  1 30  1  0
  3 31  1  0
  3 32  1  0
  4 33  1  0
  4 34  1  0
  5 35  1  0
  5 36  1  0
  7 37  1  0
  8 38  1  0
 10 39  1  0
 13 40  1  0
 20 41  1  0
 21 42  1  0
 21 43  1  0
 22 44  1  6
 23 45  1  0
 23 46  1  0
 24 47  1  0
 24 48  1  0
 25 49  1  0
 25 50  1  0
 26 51  1  0
 27 52  1  0
 27 53  1  0
M  CHG  2  13  -1  18  -1
M  END
>  <UniqueID>  (72) 
72

>  <SMILES>  (72) 
CN(CCCc1ccc2cc(C([NH-])=O)n(C(=O)[O-])c2c1)C[C@H]1CCCNC1

>  <Energy>  (72) 
93.15601225702599

>  <Genealogy>  (72) 
CN(CCCc1ccc2cc(C([NH-])=O)n(C(=O)[O-])c2c1)CC1CCCNC1 (protonated)
CN(CCCc1ccc2cc(C([NH-])=O)n(C(=O)[O-])c2c1)C[C@H]1CCCNC1 (chirality)
CN(CCCc1ccc2cc(C([NH-])=O)n(C(=O)[O-])c2c1)C[C@H]1CCCNC1 (3D coordinates assigned)
CN(CCCc1ccc2cc(C([NH-])=O)n(C(=O)[O-])c2c1)C[C@H]1CCCNC1 (nonaromatic ring conformer: 93.15601225702599 kcal/mol)

>  <smiles>  (72) 
CN(CCCc1ccc2cc(C(N)=O)n(C(=O)O)c2c1)CC1CCCNC1

>  <score_type>  (72) 
oracle

>  <origin>  (72) 
adg

>  <m_score__min__energy>  (72) 
-8.5299999999999994

>  <m_primary>  (72) 
energy

$$$$
72:0
     RDKit          3D

 34 35  0  0  0  0  0  0  0  0999 V2000
  139.1970  160.8590  131.8690 C   0  0  0  0  0  0  0  0  0  0  0  0
  138.7240  159.6570  131.0520 C   0  0  2  0  0  0  0  0  0  0  0  0
  137.2670  159.6860  130.8640 C   0  0  0  0  0  0  0  0  0  0  0  0
  136.1180  159.7100  130.7160 N   0  0  0  0  0  0  0  0  0  0  0  0
  139.1370  158.4030  131.6830 N   0  0  0  0  0  0  0  0  0  0  0  0
  139.1570  158.1480  133.0940 C   0  0  0  0  0  0  0  0  0  0  0  0
  138.4230  157.2540  133.5980 O   0  0  0  0  0  0  0  0  0  0  0  0
  140.0180  158.9870  133.9810 C   0  0  0  0  0  0  0  0  0  0  0  0
  141.4650  158.6500  133.7550 C   0  0  0  0  0  0  0  0  0  0  0  0
  141.8560  157.3040  133.5360 C   0  0  0  0  0  0  0  0  0  0  0  0
  143.2110  156.9700  133.3780 C   0  0  0  0  0  0  0  0  0  0  0  0
  144.1480  157.9960  133.4450 C   0  0  0  0  0  0  0  0  0  0  0  0
  145.5210  157.9470  133.3600 C   0  0  0  0  0  0  0  0  0  0  0  0
  145.9480  159.2640  133.5170 C   0  0  0  0  0  0  0  0  0  0  0  0
  147.3630  159.6760  133.4050 C   0  0  0  0  0  0  0  0  0  0  0  0
  147.7370  160.8060  132.6200 N   0  0  0  0  0  0  0  0  0  0  0  0
  148.2590  158.9930  133.9690 O   0  0  0  0  0  0  0  0  0  0  0  0
  144.8840  160.0940  133.7010 N   0  0  0  0  0  0  0  0  0  0  0  0
  144.9070  161.5010  133.9970 C   0  0  0  0  0  0  0  0  0  0  0  0
  145.9410  162.0320  134.4820 O   0  0  0  0  0  0  0  0  0  0  0  0
  143.7990  162.2930  133.7230 O   0  0  0  0  0  0  0  0  0  0  0  0
  143.7880  159.3030  133.6510 C   0  0  0  0  0  0  0  0  0  0  0  0
  142.4460  159.6630  133.8280 C   0  0  0  0  0  0  0  0  0  0  0  0
  139.1075  160.6315  132.9415 H   0  0  0  0  0  0  0  0  0  0  0  0
  140.2477  161.0764  131.6268 H   0  0  0  0  0  0  0  0  0  0  0  0
  138.5762  161.7342  131.6268 H   0  0  0  0  0  0  0  0  0  0  0  0
  139.1971  159.7171  130.0608 H   0  0  0  0  0  0  0  0  0  0  0  0
  139.8509  160.0499  133.7525 H   0  0  0  0  0  0  0  0  0  0  0  0
  139.7591  158.7878  135.0314 H   0  0  0  0  0  0  0  0  0  0  0  0
  141.0911  156.5149  133.4895 H   0  0  0  0  0  0  0  0  0  0  0  0
  143.5218  155.9289  133.2065 H   0  0  0  0  0  0  0  0  0  0  0  0
  146.1479  157.0571  133.2017 H   0  0  0  0  0  0  0  0  0  0  0  0
  147.3470  161.7520  132.8220 H   0  0  0  0  0  0  0  0  0  0  0  0
  142.1634  160.7087  134.0191 H   0  0  0  0  0  0  0  0  0  0  0  0
  1  2  1  0
  2  3  1  0
  3  4  3  0
  2  5  1  0
  5  6  1  0
  6  7  2  0
  6  8  1  0
  8  9  1  0
  9 10  2  0
 10 11  1  0
 11 12  2  0
 12 13  1  0
 13 14  2  0
 14 15  1  0
 15 16  1  0
 15 17  2  0
 14 18  1  0
 18 19  1  0
 19 20  2  0
 19 21  1  0
 18 22  1  0
 22 23  2  0
 23  9  1  0
 22 12  1  0
  1 24  1  0
  1 25  1  0
  1 26  1  0
  2 27  1  6
  8 28  1  0
  8 29  1  0
 10 30  1  0
 11 31  1  0
 13 32  1  0
 16 33  1  0
 23 34  1  0
M  CHG  3   5  -1  16  -1  21  -1
M  END
>  <UniqueID>  (73) 
73

>  <SMILES>  (73) 
C[C@H](C#N)[N-]C(=O)Cc1ccc2cc(C([NH-])=O)n(C(=O)[O-])c2c1

>  <Energy>  (73) 
67.76392387028613

>  <Genealogy>  (73) 
CC(C#N)[N-]C(=O)Cc1ccc2cc(C([NH-])=O)n(C(=O)[O-])c2c1 (protonated)
C[C@H](C#N)[N-]C(=O)Cc1ccc2cc(C([NH-])=O)n(C(=O)[O-])c2c1 (chirality)
C[C@H](C#N)[N-]C(=O)Cc1ccc2cc(C([NH-])=O)n(C(=O)[O-])c2c1 (3D coordinates assigned)
C[C@H](C#N)[N-]C(=O)Cc1ccc2cc(C([NH-])=O)n(C(=O)[O-])c2c1 (optimized conformer: 67.76392387028613 kcal/mol)

>  <smiles>  (73) 
CC(C#N)NC(=O)Cc1ccc2cc(C(N)=O)n(C(=O)O)c2c1

>  <score_type>  (73) 
oracle

>  <origin>  (73) 
adg

>  <m_score__min__energy>  (73) 
-7.3700000000000001

>  <m_primary>  (73) 
energy

$$$$
73:0
     RDKit          3D

 41 42  0  0  0  0  0  0  0  0999 V2000
  149.6220  150.9790  134.2090 C   0  0  0  0  0  0  0  0  0  0  0  0
  149.6170  151.1410  132.8060 O   0  0  0  0  0  0  0  0  0  0  0  0
  149.9370  152.4760  132.4660 C   0  0  0  0  0  0  0  0  0  0  0  0
  148.8060  153.3630  132.7670 C   0  0  0  0  0  0  0  0  0  0  0  0
  147.8760  154.0840  133.0240 C   0  0  0  0  0  0  0  0  0  0  0  0
  146.7740  154.9580  133.3260 C   0  0  0  0  0  0  0  0  0  0  0  0
  145.5660  154.4270  133.8330 C   0  0  0  0  0  0  0  0  0  0  0  0
  144.4800  155.2740  134.1170 C   0  0  0  0  0  0  0  0  0  0  0  0
  144.6410  156.6390  133.8880 C   0  0  0  0  0  0  0  0  0  0  0  0
  143.7490  157.6750  134.0480 C   0  0  0  0  0  0  0  0  0  0  0  0
  144.4390  158.8220  133.6550 C   0  0  0  0  0  0  0  0  0  0  0  0
  143.8740  160.1840  133.7410 C   0  0  0  0  0  0  0  0  0  0  0  0
  144.7460  161.3120  133.7920 N   0  0  0  0  0  0  0  0  0  0  0  0
  142.6290  160.3680  133.7350 O   0  0  0  0  0  0  0  0  0  0  0  0
  145.7060  158.5040  133.2630 N   0  0  0  0  0  0  0  0  0  0  0  0
  146.7160  159.3760  132.7320 C   0  0  0  0  0  0  0  0  0  0  0  0
  146.4600  160.1010  131.7320 O   0  0  0  0  0  0  0  0  0  0  0  0
  147.9870  159.3960  133.3190 O   0  0  0  0  0  0  0  0  0  0  0  0
  149.2090  159.4520  132.5790 C   0  0  1  0  0  0  0  0  0  0  0  0
  149.4050  158.1150  131.8670 C   0  0  0  0  0  0  0  0  0  0  0  0
  149.1580  160.5960  131.5520 C   0  0  0  0  0  0  0  0  0  0  0  0
  149.6670  160.1670  130.2440 C   0  0  0  0  0  0  0  0  0  0  0  0
  150.0680  159.8310  129.2120 N   0  0  0  0  0  0  0  0  0  0  0  0
  145.8140  157.1660  133.4130 C   0  0  0  0  0  0  0  0  0  0  0  0
  146.9040  156.3430  133.1050 C   0  0  0  0  0  0  0  0  0  0  0  0
  149.5916  151.9667  134.6923 H   0  0  0  0  0  0  0  0  0  0  0  0
  148.7414  150.3944  134.5137 H   0  0  0  0  0  0  0  0  0  0  0  0
  150.5369  150.4497  134.5137 H   0  0  0  0  0  0  0  0  0  0  0  0
  150.8149  152.7977  133.0455 H   0  0  0  0  0  0  0  0  0  0  0  0
  150.1566  152.5285  131.3894 H   0  0  0  0  0  0  0  0  0  0  0  0
  145.4749  153.3446  134.0064 H   0  0  0  0  0  0  0  0  0  0  0  0
  143.5336  154.8718  134.5075 H   0  0  0  0  0  0  0  0  0  0  0  0
  142.7119  157.6119  134.4092 H   0  0  0  0  0  0  0  0  0  0  0  0
  145.4400  161.4880  133.0330 H   0  0  0  0  0  0  0  0  0  0  0  0
  150.0505  159.6412  133.2617 H   0  0  0  0  0  0  0  0  0  0  0  0
  149.5222  157.3157  132.6136 H   0  0  0  0  0  0  0  0  0  0  0  0
  148.5283  157.9029  131.2373 H   0  0  0  0  0  0  0  0  0  0  0  0
  150.3056  158.1635  131.2373 H   0  0  0  0  0  0  0  0  0  0  0  0
  148.1156  160.9284  131.4385 H   0  0  0  0  0  0  0  0  0  0  0  0
  149.7928  161.4167  131.9174 H   0  0  0  0  0  0  0  0  0  0  0  0
  147.8358  156.7662  132.7017 H   0  0  0  0  0  0  0  0  0  0  0  0
  1  2  1  0
  2  3  1  0
  3  4  1  0
  4  5  3  0
  5  6  1  0
  6  7  2  0
  7  8  1  0
  8  9  2  0
  9 10  1  0
 10 11  2  0
 11 12  1  0
 12 13  1  0
 12 14  2  0
 11 15  1  0
 15 16  1  0
 16 17  2  0
 16 18  1  0
 18 19  1  0
 19 20  1  0
 19 21  1  0
 21 22  1  0
 22 23  3  0
 15 24  1  0
 24 25  2  0
 25  6  1  0
 24  9  1  0
  1 26  1  0
  1 27  1  0
  1 28  1  0
  3 29  1  0
  3 30  1  0
  7 31  1  0
  8 32  1  0
 10 33  1  0
 13 34  1  0
 19 35  1  1
 20 36  1  0
 20 37  1  0
 20 38  1  0
 21 39  1  0
 21 40  1  0
 25 41  1  0
M  CHG  1  13  -1
M  END
>  <UniqueID>  (74) 
74

>  <SMILES>  (74) 
COCC#Cc1ccc2cc(C([NH-])=O)n(C(=O)O[C@@H](C)CC#N)c2c1

>  <Energy>  (74) 
70.78089974108322

>  <Genealogy>  (74) 
COCC#Cc1ccc2cc(C([NH-])=O)n(C(=O)OC(C)CC#N)c2c1 (protonated)
COCC#Cc1ccc2cc(C([NH-])=O)n(C(=O)O[C@@H](C)CC#N)c2c1 (chirality)
COCC#Cc1ccc2cc(C([NH-])=O)n(C(=O)O[C@@H](C)CC#N)c2c1 (3D coordinates assigned)
COCC#Cc1ccc2cc(C([NH-])=O)n(C(=O)O[C@@H](C)CC#N)c2c1 (optimized conformer: 70.78089974108322 kcal/mol)

>  <smiles>  (74) 
COCC#Cc1ccc2cc(C(N)=O)n(C(=O)OC(C)CC#N)c2c1

>  <score_type>  (74) 
oracle

>  <origin>  (74) 
adg

>  <m_score__min__energy>  (74) 
-7.3099999999999996

>  <m_primary>  (74) 
energy

$$$$
74:0
     RDKit          3D

 51 52  0  0  0  0  0  0  0  0999 V2000
  148.3540  152.5080  137.8220 C   0  0  0  0  0  0  0  0  0  0  0  0
  147.4100  152.9910  136.8240 N   0  0  0  0  0  0  0  0  0  0  0  0
  147.7640  153.9490  135.8200 C   0  0  0  0  0  0  0  0  0  0  0  0
  147.8970  155.1630  136.1330 O   0  0  0  0  0  0  0  0  0  0  0  0
  147.9660  153.5290  134.4560 N   0  0  0  0  0  0  0  0  0  0  0  0
  148.8670  152.4090  134.1720 C   0  0  0  0  0  0  0  0  0  0  0  0
  147.2660  154.2060  133.3550 C   0  0  0  0  0  0  0  0  0  0  0  0
  148.2300  155.1250  132.5990 C   0  0  0  0  0  0  0  0  0  0  0  0
  147.8850  156.5680  132.8440 C   0  0  0  0  0  0  0  0  0  0  0  0
  148.8830  157.5670  132.7330 C   0  0  0  0  0  0  0  0  0  0  0  0
  148.5610  158.9240  132.9050 C   0  0  0  0  0  0  0  0  0  0  0  0
  147.2350  159.2490  133.1810 C   0  0  0  0  0  0  0  0  0  0  0  0
  146.6420  160.4790  133.3490 C   0  0  0  0  0  0  0  0  0  0  0  0
  145.2910  160.2130  133.5650 C   0  0  0  0  0  0  0  0  0  0  0  0
  144.2810  161.2500  133.8690 C   0  0  0  0  0  0  0  0  0  0  0  0
  142.8930  160.9180  133.9490 N   0  0  0  0  0  0  0  0  0  0  0  0
  144.6350  162.4470  134.0340 O   0  0  0  0  0  0  0  0  0  0  0  0
  145.0590  158.8700  133.5350 N   0  0  0  0  0  0  0  0  0  0  0  0
  143.7930  158.1990  133.6220 C   0  0  0  0  0  0  0  0  0  0  0  0
  143.2500  157.7450  132.5780 O   0  0  0  0  0  0  0  0  0  0  0  0
  143.1600  158.0710  134.8640 O   0  0  0  0  0  0  0  0  0  0  0  0
  142.1280  157.1220  135.1350 C   0  0  0  0  0  0  0  0  0  0  0  0
  140.7560  157.8030  135.2820 C   0  0  1  0  0  0  0  0  0  0  0  0
  140.3220  157.8740  136.7530 C   0  0  0  0  0  0  0  0  0  0  0  0
  140.7450  159.1650  134.6410 C   0  0  0  0  0  0  0  0  0  0  0  0
  140.5470  159.2730  133.4030 O   0  0  0  0  0  0  0  0  0  0  0  0
  141.0030  160.3070  135.3920 O   0  0  0  0  0  0  0  0  0  0  0  0
  146.2580  158.2930  133.2980 C   0  0  0  0  0  0  0  0  0  0  0  0
  146.5490  156.9360  133.1160 C   0  0  0  0  0  0  0  0  0  0  0  0
  147.9589  152.7101  138.8285 H   0  0  0  0  0  0  0  0  0  0  0  0
  148.4990  151.4249  137.6957 H   0  0  0  0  0  0  0  0  0  0  0  0
  149.3172  153.0241  137.6957 H   0  0  0  0  0  0  0  0  0  0  0  0
  149.2185  151.9721  135.1184 H   0  0  0  0  0  0  0  0  0  0  0  0
  148.3297  151.6441  133.5922 H   0  0  0  0  0  0  0  0  0  0  0  0
  149.7293  152.7700  133.5922 H   0  0  0  0  0  0  0  0  0  0  0  0
  146.8645  153.4520  132.6620 H   0  0  0  0  0  0  0  0  0  0  0  0
  146.4459  154.8105  133.7698 H   0  0  0  0  0  0  0  0  0  0  0  0
  149.2569  154.9349  132.9444 H   0  0  0  0  0  0  0  0  0  0  0  0
  148.1471  154.9179  131.5219 H   0  0  0  0  0  0  0  0  0  0  0  0
  149.9205  157.2777  132.5099 H   0  0  0  0  0  0  0  0  0  0  0  0
  149.3317  159.7048  132.8242 H   0  0  0  0  0  0  0  0  0  0  0  0
  147.1307  161.4640  133.3192 H   0  0  0  0  0  0  0  0  0  0  0  0
  142.5660  159.9300  133.8750 H   0  0  0  0  0  0  0  0  0  0  0  0
  142.1860  161.6650  134.1270 H   0  0  0  0  0  0  0  0  0  0  0  0
  142.0810  156.3996  134.3068 H   0  0  0  0  0  0  0  0  0  0  0  0
  142.3650  156.6177  136.0834 H   0  0  0  0  0  0  0  0  0  0  0  0
  140.0212  157.1820  134.7486 H   0  0  0  0  0  0  0  0  0  0  0  0
  141.1990  157.7305  137.4014 H   0  0  0  0  0  0  0  0  0  0  0  0
  139.8731  158.8575  136.9558 H   0  0  0  0  0  0  0  0  0  0  0  0
  139.5831  157.0848  136.9558 H   0  0  0  0  0  0  0  0  0  0  0  0
  145.7571  156.1755  133.1831 H   0  0  0  0  0  0  0  0  0  0  0  0
  1  2  1  0
  2  3  1  0
  3  4  2  0
  3  5  1  0
  5  6  1  0
  5  7  1  0
  7  8  1  0
  8  9  1  0
  9 10  2  0
 10 11  1  0
 11 12  2  0
 12 13  1  0
 13 14  2  0
 14 15  1  0
 15 16  1  0
 15 17  2  0
 14 18  1  0
 18 19  1  0
 19 20  2  0
 19 21  1  0
 21 22  1  0
 22 23  1  0
 23 24  1  0
 23 25  1  0
 25 26  2  0
 25 27  1  0
 18 28  1  0
 28 29  2  0
 29  9  1  0
 28 12  1  0
  1 30  1  0
  1 31  1  0
  1 32  1  0
  6 33  1  0
  6 34  1  0
  6 35  1  0
  7 36  1  0
  7 37  1  0
  8 38  1  0
  8 39  1  0
 10 40  1  0
 11 41  1  0
 13 42  1  0
 16 43  1  0
 16 44  1  0
 22 45  1  0
 22 46  1  0
 23 47  1  6
 24 48  1  0
 24 49  1  0
 24 50  1  0
 29 51  1  0
M  CHG  2   2  -1  27  -1
M  END
>  <UniqueID>  (75) 
75

>  <SMILES>  (75) 
C[N-]C(=O)N(C)CCc1ccc2cc(C(N)=O)n(C(=O)OC[C@@H](C)C(=O)[O-])c2c1

>  <Energy>  (75) 
76.28464162660244

>  <Genealogy>  (75) 
C[N-]C(=O)N(C)CCc1ccc2cc(C(N)=O)n(C(=O)OCC(C)C(=O)[O-])c2c1 (protonated)
C[N-]C(=O)N(C)CCc1ccc2cc(C(N)=O)n(C(=O)OC[C@@H](C)C(=O)[O-])c2c1 (chirality)
C[N-]C(=O)N(C)CCc1ccc2cc(C(N)=O)n(C(=O)OC[C@@H](C)C(=O)[O-])c2c1 (3D coordinates assigned)
C[N-]C(=O)N(C)CCc1ccc2cc(C(N)=O)n(C(=O)OC[C@@H](C)C(=O)[O-])c2c1 (optimized conformer: 76.28464162660244 kcal/mol)

>  <smiles>  (75) 
CNC(=O)N(C)CCc1ccc2cc(C(N)=O)n(C(=O)OCC(C)C(=O)O)c2c1

>  <score_type>  (75) 
oracle

>  <origin>  (75) 
adg

>  <m_score__min__energy>  (75) 
-8.4399999999999995

>  <m_primary>  (75) 
energy

$$$$
75:0
     RDKit          3D

 44 46  0  0  0  0  0  0  0  0999 V2000
  140.1900  155.7780  133.3180 C   0  0  0  0  0  0  0  0  0  0  0  0
  140.0750  157.2360  133.1870 N   0  0  0  0  0  0  0  0  0  0  0  0
  138.7720  157.8860  133.3560 C   0  0  0  0  0  0  0  0  0  0  0  0
  141.2270  158.0450  132.8660 C   0  0  0  0  0  0  0  0  0  0  0  0
  141.0720  159.2760  132.6270 O   0  0  0  0  0  0  0  0  0  0  0  0
  142.6020  157.4360  132.7270 C   0  0  0  0  0  0  0  0  0  0  0  0
  143.5140  157.8180  133.8600 C   0  0  0  0  0  0  0  0  0  0  0  0
  143.1880  157.5310  135.0440 O   0  0  0  0  0  0  0  0  0  0  0  0
  144.7610  158.4870  133.6070 N   0  0  0  0  0  0  0  0  0  0  0  0
  145.0150  159.8250  133.6640 C   0  0  0  0  0  0  0  0  0  0  0  0
  144.0200  160.8860  133.9270 C   0  0  0  0  0  0  0  0  0  0  0  0
  142.7290  160.5420  134.4240 N   0  0  0  0  0  0  0  0  0  0  0  0
  144.3020  162.0980  133.7350 O   0  0  0  0  0  0  0  0  0  0  0  0
  146.3580  160.0770  133.3900 C   0  0  0  0  0  0  0  0  0  0  0  0
  146.9240  158.8430  133.1660 C   0  0  0  0  0  0  0  0  0  0  0  0
  148.2390  158.5010  132.8700 C   0  0  0  0  0  0  0  0  0  0  0  0
  148.5500  157.1380  132.7250 C   0  0  0  0  0  0  0  0  0  0  0  0
  147.5500  156.1440  132.8870 C   0  0  0  0  0  0  0  0  0  0  0  0
  147.8950  154.7080  132.7420 C   0  0  0  0  0  0  0  0  0  0  0  0
  149.2370  154.3080  132.6150 C   0  0  0  0  0  0  0  0  0  0  0  0
  149.5440  152.9530  132.4860 C   0  0  0  0  0  0  0  0  0  0  0  0
  148.5210  152.0070  132.4840 C   0  0  0  0  0  0  0  0  0  0  0  0
  147.1970  152.4310  132.6120 C   0  0  0  0  0  0  0  0  0  0  0  0
  146.1940  151.5190  132.6040 F   0  0  0  0  0  0  0  0  0  0  0  0
  146.9110  153.7560  132.7370 N   0  0  0  0  0  0  0  0  0  0  0  0
  146.2250  156.5340  133.1930 C   0  0  0  0  0  0  0  0  0  0  0  0
  145.9400  157.8990  133.3070 C   0  0  0  0  0  0  0  0  0  0  0  0
  140.2114  155.5062  134.3837 H   0  0  0  0  0  0  0  0  0  0  0  0
  139.3270  155.2972  132.8342 H   0  0  0  0  0  0  0  0  0  0  0  0
  141.1177  155.4384  132.8342 H   0  0  0  0  0  0  0  0  0  0  0  0
  138.5531  157.9952  134.4285 H   0  0  0  0  0  0  0  0  0  0  0  0
  138.7935  158.8790  132.8832 H   0  0  0  0  0  0  0  0  0  0  0  0
  137.9917  157.2716  132.8832 H   0  0  0  0  0  0  0  0  0  0  0  0
  142.5031  156.3406  132.7068 H   0  0  0  0  0  0  0  0  0  0  0  0
  143.0457  157.8173  131.7955 H   0  0  0  0  0  0  0  0  0  0  0  0
  142.3690  159.5640  134.3520 H   0  0  0  0  0  0  0  0  0  0  0  0
  146.8595  161.0555  133.3593 H   0  0  0  0  0  0  0  0  0  0  0  0
  149.0127  159.2741  132.7528 H   0  0  0  0  0  0  0  0  0  0  0  0
  149.5804  156.8382  132.4832 H   0  0  0  0  0  0  0  0  0  0  0  0
  150.0405  155.0592  132.6173 H   0  0  0  0  0  0  0  0  0  0  0  0
  150.5915  152.6323  132.3861 H   0  0  0  0  0  0  0  0  0  0  0  0
  148.7542  150.9368  132.3826 H   0  0  0  0  0  0  0  0  0  0  0  0
  145.9080  154.0390  132.8070 H   0  0  0  0  0  0  0  0  0  0  0  0
  145.4365  155.7809  133.3380 H   0  0  0  0  0  0  0  0  0  0  0  0
  1  2  1  0
  2  3  1  0
  2  4  1  0
  4  5  2  0
  4  6  1  0
  6  7  1  0
  7  8  2  0
  7  9  1  0
  9 10  1  0
 10 11  1  0
 11 12  1  0
 11 13  2  0
 10 14  2  0
 14 15  1  0
 15 16  2  0
 16 17  1  0
 17 18  2  0
 18 19  1  0
 19 20  2  0
 20 21  1  0
 21 22  2  0
 22 23  1  0
 23 24  1  0
 23 25  2  0
 18 26  1  0
 26 27  2  0
 27  9  1  0
 27 15  1  0
 25 19  1  0
  1 28  1  0
  1 29  1  0
  1 30  1  0
  3 31  1  0
  3 32  1  0
  3 33  1  0
  6 34  1  0
  6 35  1  0
 12 36  1  0
 14 37  1  0
 16 38  1  0
 17 39  1  0
 20 40  1  0
 21 41  1  0
 22 42  1  0
 25 43  1  0
 26 44  1  0
M  CHG  2  12  -1  25   1
M  END
>  <UniqueID>  (76) 
76

>  <SMILES>  (76) 
CN(C)C(=O)CC(=O)n1c(C([NH-])=O)cc2ccc(-c3cccc(F)[nH+]3)cc21

>  <Energy>  (76) 
87.96454170804802

>  <Genealogy>  (76) 
CN(C)C(=O)CC(=O)n1c(C([NH-])=O)cc2ccc(-c3cccc(F)[nH+]3)cc21 (protonated)
CN(C)C(=O)CC(=O)n1c(C([NH-])=O)cc2ccc(-c3cccc(F)[nH+]3)cc21 (3D coordinates assigned)
CN(C)C(=O)CC(=O)n1c(C([NH-])=O)cc2ccc(-c3cccc(F)[nH+]3)cc21 (optimized conformer: 87.96454170804802 kcal/mol)

>  <smiles>  (76) 
CN(C)C(=O)CC(=O)n1c(C(N)=O)cc2ccc(-c3cccc(F)n3)cc21

>  <score_type>  (76) 
oracle

>  <origin>  (76) 
adg

>  <m_score__min__energy>  (76) 
-7.9400000000000004

>  <m_primary>  (76) 
energy

$$$$
76:0
     RDKit          3D

 49 50  0  0  0  0  0  0  0  0999 V2000
  149.6370  150.8040  131.5530 C   0  0  0  0  0  0  0  0  0  0  0  0
  149.8760  151.8940  132.5930 C   0  0  0  0  0  0  0  0  0  0  0  0
  149.5480  153.1730  132.0550 O   0  0  0  0  0  0  0  0  0  0  0  0
  148.9310  154.1830  132.8010 C   0  0  0  0  0  0  0  0  0  0  0  0
  149.2220  155.3940  132.6070 O   0  0  0  0  0  0  0  0  0  0  0  0
  147.8880  153.8320  133.8200 C   0  0  0  0  0  0  0  0  0  0  0  0
  146.5260  154.0130  133.2830 N   0  0  0  0  0  0  0  0  0  0  0  0
  145.8800  152.8770  132.6110 C   0  0  0  0  0  0  0  0  0  0  0  0
  145.8340  155.2900  133.3800 C   0  0  0  0  0  0  0  0  0  0  0  0
  144.4110  155.3410  133.4280 C   0  0  0  0  0  0  0  0  0  0  0  0
  143.7290  156.5640  133.5300 C   0  0  0  0  0  0  0  0  0  0  0  0
  144.4840  157.7280  133.6000 C   0  0  0  0  0  0  0  0  0  0  0  0
  144.0820  159.0420  133.6760 C   0  0  0  0  0  0  0  0  0  0  0  0
  145.2580  159.7840  133.7160 C   0  0  0  0  0  0  0  0  0  0  0  0
  145.2900  161.2540  133.8550 C   0  0  0  0  0  0  0  0  0  0  0  0
  146.5130  161.9470  134.1100 N   0  0  0  0  0  0  0  0  0  0  0  0
  144.2130  161.9040  133.8000 O   0  0  0  0  0  0  0  0  0  0  0  0
  146.3440  158.9640  133.6560 N   0  0  0  0  0  0  0  0  0  0  0  0
  147.7270  159.3420  133.5930 C   0  0  0  0  0  0  0  0  0  0  0  0
  148.5590  158.8160  134.3810 O   0  0  0  0  0  0  0  0  0  0  0  0
  148.1430  160.2850  132.6460 O   0  0  0  0  0  0  0  0  0  0  0  0
  149.2450  160.0830  131.7630 C   0  0  0  0  0  0  0  0  0  0  0  0
  149.1710  161.0790  130.6030 C   0  0  0  0  0  0  0  0  0  0  0  0
  149.2070  158.6480  131.2430 C   0  0  0  0  0  0  0  0  0  0  0  0
  145.8530  157.7080  133.5830 C   0  0  0  0  0  0  0  0  0  0  0  0
  146.5590  156.5090  133.4450 C   0  0  0  0  0  0  0  0  0  0  0  0
  149.4281  149.8513  132.0617 H   0  0  0  0  0  0  0  0  0  0  0  0
  148.7780  151.0797  130.9237 H   0  0  0  0  0  0  0  0  0  0  0  0
  150.5326  150.6950  130.9237 H   0  0  0  0  0  0  0  0  0  0  0  0
  149.2469  151.6989  133.4740 H   0  0  0  0  0  0  0  0  0  0  0  0
  150.9381  151.8883  132.8791 H   0  0  0  0  0  0  0  0  0  0  0  0
  148.0183  152.7811  134.1176 H   0  0  0  0  0  0  0  0  0  0  0  0
  148.0104  154.5014  134.6842 H   0  0  0  0  0  0  0  0  0  0  0  0
  145.4844  152.1813  133.3656 H   0  0  0  0  0  0  0  0  0  0  0  0
  145.0553  153.2437  131.9822 H   0  0  0  0  0  0  0  0  0  0  0  0
  146.6168  152.3557  131.9822 H   0  0  0  0  0  0  0  0  0  0  0  0
  143.8357  154.4044  133.3843 H   0  0  0  0  0  0  0  0  0  0  0  0
  142.6298  156.5994  133.5538 H   0  0  0  0  0  0  0  0  0  0  0  0
  143.0508  159.4241  133.7000 H   0  0  0  0  0  0  0  0  0  0  0  0
  147.3900  161.4310  134.3410 H   0  0  0  0  0  0  0  0  0  0  0  0
  146.5220  162.9910  134.1560 H   0  0  0  0  0  0  0  0  0  0  0  0
  150.1911  160.2481  132.2993 H   0  0  0  0  0  0  0  0  0  0  0  0
  149.0951  162.1013  131.0018 H   0  0  0  0  0  0  0  0  0  0  0  0
  150.0781  160.9922  129.9868 H   0  0  0  0  0  0  0  0  0  0  0  0
  148.2867  160.8592  129.9868 H   0  0  0  0  0  0  0  0  0  0  0  0
  149.1885  157.9503  132.0932 H   0  0  0  0  0  0  0  0  0  0  0  0
  148.3047  158.5037  130.6306 H   0  0  0  0  0  0  0  0  0  0  0  0
  150.1004  158.4561  130.6306 H   0  0  0  0  0  0  0  0  0  0  0  0
  147.6575  156.5102  133.3878 H   0  0  0  0  0  0  0  0  0  0  0  0
  1  2  1  0
  2  3  1  0
  3  4  1  0
  4  5  2  0
  4  6  1  0
  6  7  1  0
  7  8  1  0
  7  9  1  0
  9 10  2  0
 10 11  1  0
 11 12  2  0
 12 13  1  0
 13 14  2  0
 14 15  1  0
 15 16  1  0
 15 17  2  0
 14 18  1  0
 18 19  1  0
 19 20  2  0
 19 21  1  0
 21 22  1  0
 22 23  1  0
 22 24  1  0
 18 25  1  0
 25 26  2  0
 26  9  1  0
 25 12  1  0
  1 27  1  0
  1 28  1  0
  1 29  1  0
  2 30  1  0
  2 31  1  0
  6 32  1  0
  6 33  1  0
  8 34  1  0
  8 35  1  0
  8 36  1  0
 10 37  1  0
 11 38  1  0
 13 39  1  0
 16 40  1  0
 16 41  1  0
 22 42  1  0
 23 43  1  0
 23 44  1  0
 23 45  1  0
 24 46  1  0
 24 47  1  0
 24 48  1  0
 26 49  1  0
M  END
>  <UniqueID>  (77) 
77

>  <SMILES>  (77) 
CCOC(=O)CN(C)c1ccc2cc(C(N)=O)n(C(=O)OC(C)C)c2c1

>  <Energy>  (77) 
76.27466317846552

>  <Genealogy>  (77) 
CCOC(=O)CN(C)c1ccc2cc(C(N)=O)n(C(=O)OC(C)C)c2c1 (3D coordinates assigned)
CCOC(=O)CN(C)c1ccc2cc(C(N)=O)n(C(=O)OC(C)C)c2c1 (optimized conformer: 76.27466317846552 kcal/mol)

>  <smiles>  (77) 
CCOC(=O)CN(C)c1ccc2cc(C(N)=O)n(C(=O)OC(C)C)c2c1

>  <score_type>  (77) 
oracle

>  <origin>  (77) 
adg

>  <m_score__min__energy>  (77) 
-7.1900000000000004

>  <m_primary>  (77) 
energy

$$$$
77:0
     RDKit          3D

 40 42  0  0  0  0  0  0  0  0999 V2000
  139.4850  150.0010  137.5070 C   0  0  0  0  0  0  0  0  0  0  0  0
  140.5880  150.7460  137.0070 O   0  0  0  0  0  0  0  0  0  0  0  0
  141.3550  151.5920  137.8140 C   0  0  0  0  0  0  0  0  0  0  0  0
  141.9150  151.1460  138.8520 O   0  0  0  0  0  0  0  0  0  0  0  0
  141.4840  152.9810  137.4700 N   0  0  0  0  0  0  0  0  0  0  0  0
  141.0950  154.0640  138.2010 C   0  0  0  0  0  0  0  0  0  0  0  0
  140.5940  154.0420  139.5910 C   0  0  0  0  0  0  0  0  0  0  0  0
  141.3540  153.4400  140.6360 N   0  0  0  0  0  0  0  0  0  0  0  0
  139.5020  154.6050  139.8690 O   0  0  0  0  0  0  0  0  0  0  0  0
  141.3090  155.2390  137.4830 C   0  0  0  0  0  0  0  0  0  0  0  0
  141.8550  154.8400  136.2850 C   0  0  0  0  0  0  0  0  0  0  0  0
  142.2560  155.5970  135.1890 C   0  0  0  0  0  0  0  0  0  0  0  0
  142.7610  154.9170  134.0680 C   0  0  0  0  0  0  0  0  0  0  0  0
  142.8510  153.5010  134.0570 C   0  0  0  0  0  0  0  0  0  0  0  0
  143.3880  152.7680  132.8450 C   0  0  1  0  0  0  0  0  0  0  0  0
  144.9020  152.5430  132.9540 C   0  0  0  0  0  0  0  0  0  0  0  0
  142.6580  151.5090  132.6410 N   0  0  0  0  0  0  0  0  0  0  0  0
  143.2220  150.2920  132.4810 C   0  0  0  0  0  0  0  0  0  0  0  0
  142.3030  149.3410  132.2270 N   0  0  0  0  0  0  0  0  0  0  0  0
  141.1230  149.9870  132.2150 C   0  0  0  0  0  0  0  0  0  0  0  0
  139.8560  149.3620  131.9560 C   0  0  0  0  0  0  0  0  0  0  0  0
  138.8350  148.8580  131.7470 N   0  0  0  0  0  0  0  0  0  0  0  0
  141.3320  151.3250  132.4620 C   0  0  0  0  0  0  0  0  0  0  0  0
  142.4310  152.7690  135.1920 C   0  0  0  0  0  0  0  0  0  0  0  0
  141.9510  153.4730  136.3020 C   0  0  0  0  0  0  0  0  0  0  0  0
  139.5028  150.0130  138.6068 H   0  0  0  0  0  0  0  0  0  0  0  0
  138.5467  150.4511  137.1505 H   0  0  0  0  0  0  0  0  0  0  0  0
  139.5522  148.9625  137.1505 H   0  0  0  0  0  0  0  0  0  0  0  0
  141.9280  152.5860  140.4580 H   0  0  0  0  0  0  0  0  0  0  0  0
  141.0882  156.2672  137.8056 H   0  0  0  0  0  0  0  0  0  0  0  0
  142.1800  156.6943  135.1996 H   0  0  0  0  0  0  0  0  0  0  0  0
  143.0906  155.4893  133.1883 H   0  0  0  0  0  0  0  0  0  0  0  0
  143.2240  153.3973  131.9578 H   0  0  0  0  0  0  0  0  0  0  0  0
  145.1909  152.5001  134.0145 H   0  0  0  0  0  0  0  0  0  0  0  0
  145.1682  151.5954  132.4628 H   0  0  0  0  0  0  0  0  0  0  0  0
  145.4322  153.3722  132.4628 H   0  0  0  0  0  0  0  0  0  0  0  0
  144.3030  150.1006  132.5500 H   0  0  0  0  0  0  0  0  0  0  0  0
  142.4760  148.3250  132.0580 H   0  0  0  0  0  0  0  0  0  0  0  0
  140.5575  152.1049  132.5058 H   0  0  0  0  0  0  0  0  0  0  0  0
  142.4806  151.6702  135.2019 H   0  0  0  0  0  0  0  0  0  0  0  0
  1  2  1  0
  2  3  1  0
  3  4  2  0
  3  5  1  0
  5  6  1  0
  6  7  1  0
  7  8  1  0
  7  9  2  0
  6 10  2  0
 10 11  1  0
 11 12  2  0
 12 13  1  0
 13 14  2  0
 14 15  1  0
 15 16  1  0
 15 17  1  0
 17 18  1  0
 18 19  2  0
 19 20  1  0
 20 21  1  0
 21 22  3  0
 20 23  2  0
 14 24  1  0
 24 25  2  0
 25  5  1  0
 25 11  1  0
 23 17  1  0
  1 26  1  0
  1 27  1  0
  1 28  1  0
  8 29  1  0
 10 30  1  0
 12 31  1  0
 13 32  1  0
 15 33  1  6
 16 34  1  0
 16 35  1  0
 16 36  1  0
 18 37  1  0
 19 38  1  0
 23 39  1  0
 24 40  1  0
M  CHG  2   8  -1  19   1
M  END
>  <UniqueID>  (78) 
78

>  <SMILES>  (78) 
COC(=O)n1c(C([NH-])=O)cc2ccc([C@@H](C)n3c[nH+]c(C#N)c3)cc21

>  <Energy>  (78) 
108.15815716240239

>  <Genealogy>  (78) 
COC(=O)n1c(C([NH-])=O)cc2ccc([C@@H](C)n3c[nH+]c(C#N)c3)cc21 (protonated)
COC(=O)n1c(C([NH-])=O)cc2ccc([C@@H](C)n3c[nH+]c(C#N)c3)cc21 (3D coordinates assigned)
COC(=O)n1c(C([NH-])=O)cc2ccc([C@@H](C)n3c[nH+]c(C#N)c3)cc21 (optimized conformer: 108.15815716240239 kcal/mol)

>  <smiles>  (78) 
COC(=O)n1c(C(N)=O)cc2ccc([C@@H](C)n3cnc(C#N)c3)cc21

>  <score_type>  (78) 
oracle

>  <origin>  (78) 
adg

>  <m_score__min__energy>  (78) 
-7.0899999999999999

>  <m_primary>  (78) 
energy

$$$$
78:0
     RDKit          3D

 48 50  0  0  0  0  0  0  0  0999 V2000
  138.4350  149.2040  130.7530 C   0  0  0  0  0  0  0  0  0  0  0  0
  139.5410  148.3330  131.1750 N   0  0  0  0  0  0  0  0  0  0  0  0
  139.8090  147.1800  130.3610 C   0  0  0  0  0  0  0  0  0  0  0  0
  138.8770  146.4420  129.9460 O   0  0  0  0  0  0  0  0  0  0  0  0
  140.3620  148.5970  132.3780 C   0  0  0  0  0  0  0  0  0  0  0  0
  140.2320  149.9870  132.9210 C   0  0  0  0  0  0  0  0  0  0  0  0
  141.6120  150.4040  132.5980 N   0  0  0  0  0  0  0  0  0  0  0  0
  142.4180  151.5760  132.7260 C   0  0  0  0  0  0  0  0  0  0  0  0
  143.8260  151.4800  132.6320 C   0  0  0  0  0  0  0  0  0  0  0  0
  144.6310  152.6260  132.7500 C   0  0  0  0  0  0  0  0  0  0  0  0
  143.9950  153.8470  132.9650 C   0  0  0  0  0  0  0  0  0  0  0  0
  144.5230  155.1120  133.1030 C   0  0  0  0  0  0  0  0  0  0  0  0
  143.4250  155.9520  133.2940 C   0  0  0  0  0  0  0  0  0  0  0  0
  143.5370  157.4010  133.5590 C   0  0  0  0  0  0  0  0  0  0  0  0
  143.2220  157.9390  134.8400 N   0  0  0  0  0  0  0  0  0  0  0  0
  143.9460  158.1730  132.6500 O   0  0  0  0  0  0  0  0  0  0  0  0
  142.2680  155.2330  133.2630 N   0  0  0  0  0  0  0  0  0  0  0  0
  140.9190  155.7150  133.3590 C   0  0  0  0  0  0  0  0  0  0  0  0
  140.0000  155.0740  132.7840 O   0  0  0  0  0  0  0  0  0  0  0  0
  140.6280  156.9820  134.0760 C   0  0  0  0  0  0  0  0  0  0  0  0
  140.2340  156.9130  135.2730 O   0  0  0  0  0  0  0  0  0  0  0  0
  140.7990  158.2890  133.4700 N   0  0  0  0  0  0  0  0  0  0  0  0
  139.9920  158.4270  132.2480 C   0  0  0  0  0  0  0  0  0  0  0  0
  140.5170  159.3710  134.4290 C   0  0  0  0  0  0  0  0  0  0  0  0
  142.6330  153.9500  133.0680 C   0  0  0  0  0  0  0  0  0  0  0  0
  141.8080  152.8270  132.9450 C   0  0  0  0  0  0  0  0  0  0  0  0
  141.7660  149.0280  132.0840 C   0  0  0  0  0  0  0  0  0  0  0  0
  137.9251  149.6055  131.6411 H   0  0  0  0  0  0  0  0  0  0  0  0
  138.8317  150.0348  130.1510 H   0  0  0  0  0  0  0  0  0  0  0  0
  137.7204  148.6236  130.1510 H   0  0  0  0  0  0  0  0  0  0  0  0
  140.8484  146.9372  130.0951 H   0  0  0  0  0  0  0  0  0  0  0  0
  140.1032  147.6897  132.9435 H   0  0  0  0  0  0  0  0  0  0  0  0
  139.4728  150.5815  132.3917 H   0  0  0  0  0  0  0  0  0  0  0  0
  139.9065  150.0906  133.9666 H   0  0  0  0  0  0  0  0  0  0  0  0
  144.2953  150.4993  132.4650 H   0  0  0  0  0  0  0  0  0  0  0  0
  145.7265  152.5612  132.6751 H   0  0  0  0  0  0  0  0  0  0  0  0
  145.5844  155.3989  133.0697 H   0  0  0  0  0  0  0  0  0  0  0  0
  142.2890  157.7730  135.2780 H   0  0  0  0  0  0  0  0  0  0  0  0
  141.8040  158.3880  133.1870 H   0  0  0  0  0  0  0  0  0  0  0  0
  138.9416  158.6066  132.5206 H   0  0  0  0  0  0  0  0  0  0  0  0
  140.3669  159.2741  131.6548 H   0  0  0  0  0  0  0  0  0  0  0  0
  140.0641  157.5035  131.6548 H   0  0  0  0  0  0  0  0  0  0  0  0
  140.6171  158.9870  135.4549 H   0  0  0  0  0  0  0  0  0  0  0  0
  141.2308  160.1935  134.2741 H   0  0  0  0  0  0  0  0  0  0  0  0
  139.4926  159.7405  134.2741 H   0  0  0  0  0  0  0  0  0  0  0  0
  140.7142  152.9180  133.0172 H   0  0  0  0  0  0  0  0  0  0  0  0
  142.0041  148.9989  131.0105 H   0  0  0  0  0  0  0  0  0  0  0  0
  142.5784  148.4201  132.5089 H   0  0  0  0  0  0  0  0  0  0  0  0
  1  2  1  0
  2  3  1  0
  3  4  2  0
  2  5  1  0
  5  6  1  0
  6  7  1  0
  7  8  1  0
  8  9  2  0
  9 10  1  0
 10 11  2  0
 11 12  1  0
 12 13  2  0
 13 14  1  0
 14 15  1  0
 14 16  2  0
 13 17  1  0
 17 18  1  0
 18 19  2  0
 18 20  1  0
 20 21  2  0
 20 22  1  0
 22 23  1  0
 22 24  1  0
 17 25  1  0
 25 26  2  0
  7 27  1  0
 27  5  1  0
 26  8  1  0
 25 11  1  0
  1 28  1  0
  1 29  1  0
  1 30  1  0
  3 31  1  0
  5 32  1  0
  6 33  1  0
  6 34  1  0
  9 35  1  0
 10 36  1  0
 12 37  1  0
 15 38  1  0
 22 39  1  0
 23 40  1  0
 23 41  1  0
 23 42  1  0
 24 43  1  0
 24 44  1  0
 24 45  1  0
 26 46  1  0
 27 47  1  0
 27 48  1  0
M  CHG  2  15  -1  22   1
M  END
>  <UniqueID>  (79) 
79

>  <SMILES>  (79) 
CN(C=O)C1CN(c2ccc3cc(C([NH-])=O)n(C(=O)C(=O)[NH+](C)C)c3c2)C1

>  <Energy>  (79) 
136.45066353694796

>  <Genealogy>  (79) 
CN(C=O)C1CN(c2ccc3cc(C([NH-])=O)n(C(=O)C(=O)[NH+](C)C)c3c2)C1 (protonated)
CN(C=O)C1CN(c2ccc3cc(C([NH-])=O)n(C(=O)C(=O)[NH+](C)C)c3c2)C1 (3D coordinates assigned)
CN(C=O)C1CN(c2ccc3cc(C([NH-])=O)n(C(=O)C(=O)[NH+](C)C)c3c2)C1 (nonaromatic ring conformer: 136.45066353694796 kcal/mol)

>  <smiles>  (79) 
CN(C)C(=O)C(=O)n1c(C(N)=O)cc2ccc(N3CC(N(C)C=O)C3)cc21

>  <score_type>  (79) 
oracle

>  <origin>  (79) 
adg

>  <m_score__min__energy>  (79) 
-6.8099999999999996

>  <m_primary>  (79) 
energy

$$$$
79:0
     RDKit          3D

 74 75  0  0  0  0  0  0  0  0999 V2000
  138.7110  160.1250  130.3380 C   0  0  0  0  0  0  0  0  0  0  0  0
  139.6380  159.1120  130.6650 O   0  0  0  0  0  0  0  0  0  0  0  0
  139.2160  158.4100  131.8230 C   0  0  0  0  0  0  0  0  0  0  0  0
  139.8790  158.9870  133.0790 C   0  0  0  0  0  0  0  0  0  0  0  0
  140.9160  159.9610  132.7120 N   0  0  0  0  0  0  0  0  0  0  0  0
  141.9150  160.0660  133.7830 C   0  0  0  0  0  0  0  0  0  0  0  0
  143.1330  159.1970  133.4460 C   0  0  0  0  0  0  0  0  0  0  0  0
  144.4370  160.0090  133.4100 C   0  0  0  0  0  0  0  0  0  0  0  0
  145.6440  159.1260  133.2280 C   0  0  0  0  0  0  0  0  0  0  0  0
  146.9170  159.6960  132.9800 C   0  0  0  0  0  0  0  0  0  0  0  0
  148.0550  158.8820  132.8540 C   0  0  0  0  0  0  0  0  0  0  0  0
  147.8890  157.5060  132.9700 C   0  0  0  0  0  0  0  0  0  0  0  0
  148.8200  156.4950  132.9140 C   0  0  0  0  0  0  0  0  0  0  0  0
  148.0990  155.3170  133.0990 C   0  0  0  0  0  0  0  0  0  0  0  0
  148.7060  153.9740  133.0220 C   0  0  0  0  0  0  0  0  0  0  0  0
  148.1860  152.9130  133.8230 N   0  0  0  0  0  0  0  0  0  0  0  0
  149.7080  153.7600  132.2910 O   0  0  0  0  0  0  0  0  0  0  0  0
  146.7730  155.5890  133.2740 N   0  0  0  0  0  0  0  0  0  0  0  0
  145.7160  154.6560  133.5570 C   0  0  0  0  0  0  0  0  0  0  0  0
  145.6010  153.6070  132.8670 O   0  0  0  0  0  0  0  0  0  0  0  0
  144.7950  154.9370  134.5720 O   0  0  0  0  0  0  0  0  0  0  0  0
  145.1040  154.8530  135.9650 C   0  0  1  0  0  0  0  0  0  0  0  0
  144.2320  153.7850  136.6350 C   0  0  0  0  0  0  0  0  0  0  0  0
  146.5880  154.5140  136.1300 C   0  0  0  0  0  0  0  0  0  0  0  0
  146.7140  153.1400  136.4150 O   0  0  0  0  0  0  0  0  0  0  0  0
  148.0210  152.8250  137.5220 Si  0  0  0  0  0  4  0  0  0  0  0  0
  149.2270  151.7480  136.5830 C   0  0  0  0  0  0  0  0  0  0  0  0
  148.9510  154.4010  137.9350 C   0  0  0  0  0  0  0  0  0  0  0  0
  147.4730  151.9100  139.1100 C   0  0  0  0  0  0  0  0  0  0  0  0
  146.1200  152.4760  139.5820 C   0  0  0  0  0  0  0  0  0  0  0  0
  148.5220  152.1260  140.2140 C   0  0  0  0  0  0  0  0  0  0  0  0
  147.3030  150.4030  138.8360 C   0  0  0  0  0  0  0  0  0  0  0  0
  146.6620  156.9340  133.1910 C   0  0  0  0  0  0  0  0  0  0  0  0
  145.5160  157.7240  133.3470 C   0  0  0  0  0  0  0  0  0  0  0  0
  138.3080  160.5654  131.2619 H   0  0  0  0  0  0  0  0  0  0  0  0
  139.2139  160.9059  129.7486 H   0  0  0  0  0  0  0  0  0  0  0  0
  137.8887  159.6932  129.7486 H   0  0  0  0  0  0  0  0  0  0  0  0
  138.1236  158.4964  131.9194 H   0  0  0  0  0  0  0  0  0  0  0  0
  139.5084  157.3544  131.7224 H   0  0  0  0  0  0  0  0  0  0  0  0
  139.1158  159.4854  133.6947 H   0  0  0  0  0  0  0  0  0  0  0  0
  140.3454  158.1665  133.6440 H   0  0  0  0  0  0  0  0  0  0  0  0
  141.4090  159.6040  131.8590 H   0  0  0  0  0  0  0  0  0  0  0  0
  142.2317  161.1144  133.8852 H   0  0  0  0  0  0  0  0  0  0  0  0
  141.4717  159.7184  134.7278 H   0  0  0  0  0  0  0  0  0  0  0  0
  143.2275  158.4097  134.2083 H   0  0  0  0  0  0  0  0  0  0  0  0
  142.9749  158.7700  132.4447 H   0  0  0  0  0  0  0  0  0  0  0  0
  144.3888  160.7222  132.5739 H   0  0  0  0  0  0  0  0  0  0  0  0
  144.5394  160.5322  134.3722 H   0  0  0  0  0  0  0  0  0  0  0  0
  147.0154  160.7875  132.8851 H   0  0  0  0  0  0  0  0  0  0  0  0
  149.0472  159.3196  132.6692 H   0  0  0  0  0  0  0  0  0  0  0  0
  149.9041  156.5952  132.7565 H   0  0  0  0  0  0  0  0  0  0  0  0
  147.2340  152.9760  134.2450 H   0  0  0  0  0  0  0  0  0  0  0  0
  144.8969  155.8192  136.4482 H   0  0  0  0  0  0  0  0  0  0  0  0
  144.3101  153.8807  137.7280 H   0  0  0  0  0  0  0  0  0  0  0  0
  143.1844  153.9220  136.3289 H   0  0  0  0  0  0  0  0  0  0  0  0
  144.5758  152.7860  136.3289 H   0  0  0  0  0  0  0  0  0  0  0  0
  147.1259  154.7489  135.1997 H   0  0  0  0  0  0  0  0  0  0  0  0
  147.0159  155.1057  136.9527 H   0  0  0  0  0  0  0  0  0  0  0  0
  149.8520  151.1899  137.2957 H   0  0  0  0  0  0  0  0  0  0  0  0
  148.6710  151.0404  135.9504 H   0  0  0  0  0  0  0  0  0  0  0  0
  149.8675  152.3802  135.9504 H   0  0  0  0  0  0  0  0  0  0  0  0
  149.0167  154.5124  139.0274 H   0  0  0  0  0  0  0  0  0  0  0  0
  149.9643  154.3509  137.5099 H   0  0  0  0  0  0  0  0  0  0  0  0
  148.4173  155.2638  137.5099 H   0  0  0  0  0  0  0  0  0  0  0  0
  146.0911  152.4881  140.6816 H   0  0  0  0  0  0  0  0  0  0  0  0
  145.9981  153.5006  139.2007 H   0  0  0  0  0  0  0  0  0  0  0  0
  145.3048  151.8434  139.2007 H   0  0  0  0  0  0  0  0  0  0  0  0
  148.0430  152.0274  141.1993 H   0  0  0  0  0  0  0  0  0  0  0  0
  149.3177  151.3729  140.1161 H   0  0  0  0  0  0  0  0  0  0  0  0
  148.9555  153.1323  140.1161 H   0  0  0  0  0  0  0  0  0  0  0  0
  147.2419  149.8612  139.7914 H   0  0  0  0  0  0  0  0  0  0  0  0
  146.3804  150.2367  138.2605 H   0  0  0  0  0  0  0  0  0  0  0  0
  148.1654  150.0354  138.2605 H   0  0  0  0  0  0  0  0  0  0  0  0
  144.5393  157.2637  133.5572 H   0  0  0  0  0  0  0  0  0  0  0  0
  1  2  1  0
  2  3  1  0
  3  4  1  0
  4  5  1  0
  5  6  1  0
  6  7  1  0
  7  8  1  0
  8  9  1  0
  9 10  2  0
 10 11  1  0
 11 12  2  0
 12 13  1  0
 13 14  2  0
 14 15  1  0
 15 16  1  0
 15 17  2  0
 14 18  1  0
 18 19  1  0
 19 20  2  0
 19 21  1  0
 21 22  1  0
 22 23  1  0
 22 24  1  0
 24 25  1  0
 25 26  1  0
 26 27  1  0
 26 28  1  0
 26 29  1  0
 29 30  1  0
 29 31  1  0
 29 32  1  0
 18 33  1  0
 33 34  2  0
 34  9  1  0
 33 12  1  0
  1 35  1  0
  1 36  1  0
  1 37  1  0
  3 38  1  0
  3 39  1  0
  4 40  1  0
  4 41  1  0
  5 42  1  0
  6 43  1  0
  6 44  1  0
  7 45  1  0
  7 46  1  0
  8 47  1  0
  8 48  1  0
 10 49  1  0
 11 50  1  0
 13 51  1  0
 16 52  1  0
 22 53  1  1
 23 54  1  0
 23 55  1  0
 23 56  1  0
 24 57  1  0
 24 58  1  0
 27 59  1  0
 27 60  1  0
 27 61  1  0
 28 62  1  0
 28 63  1  0
 28 64  1  0
 30 65  1  0
 30 66  1  0
 30 67  1  0
 31 68  1  0
 31 69  1  0
 31 70  1  0
 32 71  1  0
 32 72  1  0
 32 73  1  0
 34 74  1  0
M  CHG  1  16  -1
M  END
>  <UniqueID>  (80) 
80

>  <SMILES>  (80) 
COCCNCCCc1ccc2cc(C([NH-])=O)n(C(=O)O[C@@H](C)CO[Si](C)(C)C(C)(C)C)c2c1

>  <Energy>  (80) 
84.65206373118137

>  <Genealogy>  (80) 
COCCNCCCc1ccc2cc(C([NH-])=O)n(C(=O)O[C@@H](C)CO[Si](C)(C)C(C)(C)C)c2c1 (protonated)
COCCNCCCc1ccc2cc(C([NH-])=O)n(C(=O)O[C@@H](C)CO[Si](C)(C)C(C)(C)C)c2c1 (3D coordinates assigned)
COCCNCCCc1ccc2cc(C([NH-])=O)n(C(=O)O[C@@H](C)CO[Si](C)(C)C(C)(C)C)c2c1 (optimized conformer: 84.65206373118137 kcal/mol)

>  <smiles>  (80) 
COCCNCCCc1ccc2cc(C(N)=O)n(C(=O)O[C@@H](C)CO[Si](C)(C)C(C)(C)C)c2c1

>  <score_type>  (80) 
oracle

>  <origin>  (80) 
adg

>  <m_score__min__energy>  (80) 
-8.8399999999999999

>  <m_primary>  (80) 
energy

$$$$
80:0
     RDKit          3D

 35 37  0  0  0  0  0  0  0  0999 V2000
  139.9610  159.0220  131.8670 C   0  0  0  0  0  0  0  0  0  0  0  0
  139.9030  158.6400  133.2730 N   0  0  0  0  0  0  0  0  0  0  0  0
  138.8130  158.1990  133.8750 N   0  0  0  0  0  0  0  0  0  0  0  0
  139.1110  157.8960  135.1300 N   0  0  0  0  0  0  0  0  0  0  0  0
  140.3940  158.1350  135.3620 N   0  0  0  0  0  0  0  0  0  0  0  0
  140.8820  158.6110  134.2000 C   0  0  0  0  0  0  0  0  0  0  0  0
  142.2970  158.9960  134.0040 C   0  0  0  0  0  0  0  0  0  0  0  0
  142.6430  160.3700  133.9430 C   0  0  0  0  0  0  0  0  0  0  0  0
  143.9740  160.7680  133.7370 C   0  0  0  0  0  0  0  0  0  0  0  0
  144.9370  159.7730  133.5950 C   0  0  0  0  0  0  0  0  0  0  0  0
  146.2880  159.8740  133.3510 C   0  0  0  0  0  0  0  0  0  0  0  0
  146.7490  158.5610  133.2690 C   0  0  0  0  0  0  0  0  0  0  0  0
  148.1690  158.2090  133.0440 C   0  0  0  0  0  0  0  0  0  0  0  0
  148.6010  156.8520  133.0340 N   0  0  0  0  0  0  0  0  0  0  0  0
  149.0190  159.1240  132.8780 O   0  0  0  0  0  0  0  0  0  0  0  0
  145.7230  157.6850  133.4600 N   0  0  0  0  0  0  0  0  0  0  0  0
  145.7670  156.2500  133.4160 C   0  0  0  0  0  0  0  0  0  0  0  0
  145.9660  155.6630  132.3190 O   0  0  0  0  0  0  0  0  0  0  0  0
  145.6060  155.4420  134.6690 C   0  0  0  0  0  0  0  0  0  0  0  0
  147.1540  154.6850  135.1200 S   0  0  0  0  0  0  0  0  0  0  0  0
  147.7430  153.9850  133.9280 O   0  0  0  0  0  0  0  0  0  0  0  0
  148.1070  155.7480  135.5930 O   0  0  0  0  0  0  0  0  0  0  0  0
  146.9080  153.5740  136.3560 O   0  0  0  0  0  0  0  0  0  0  0  0
  144.6220  158.4420  133.6520 C   0  0  0  0  0  0  0  0  0  0  0  0
  143.3000  158.0180  133.8260 C   0  0  0  0  0  0  0  0  0  0  0  0
  140.1257  160.1068  131.7883 H   0  0  0  0  0  0  0  0  0  0  0  0
  140.7885  158.4889  131.3760 H   0  0  0  0  0  0  0  0  0  0  0  0
  139.0126  158.7585  131.3760 H   0  0  0  0  0  0  0  0  0  0  0  0
  141.8594  161.1333  134.0584 H   0  0  0  0  0  0  0  0  0  0  0  0
  144.2469  161.8326  133.6894 H   0  0  0  0  0  0  0  0  0  0  0  0
  146.8787  160.7957  133.2435 H   0  0  0  0  0  0  0  0  0  0  0  0
  147.9900  156.0880  133.3990 H   0  0  0  0  0  0  0  0  0  0  0  0
  145.2727  156.1002  135.4849 H   0  0  0  0  0  0  0  0  0  0  0  0
  144.8600  154.6531  134.4925 H   0  0  0  0  0  0  0  0  0  0  0  0
  143.0477  156.9473  133.8242 H   0  0  0  0  0  0  0  0  0  0  0  0
  1  2  1  0
  2  3  1  0
  3  4  2  0
  4  5  1  0
  5  6  2  0
  6  7  1  0
  7  8  2  0
  8  9  1  0
  9 10  2  0
 10 11  1  0
 11 12  2  0
 12 13  1  0
 13 14  1  0
 13 15  2  0
 12 16  1  0
 16 17  1  0
 17 18  2  0
 17 19  1  0
 19 20  1  0
 20 21  2  0
 20 22  2  0
 20 23  1  0
 16 24  1  0
 24 25  2  0
  6  2  1  0
 25  7  1  0
 24 10  1  0
  1 26  1  0
  1 27  1  0
  1 28  1  0
  8 29  1  0
  9 30  1  0
 11 31  1  0
 14 32  1  0
 19 33  1  0
 19 34  1  0
 25 35  1  0
M  CHG  2  14  -1  23  -1
M  END
>  <UniqueID>  (81) 
81

>  <SMILES>  (81) 
Cn1nnnc1-c1ccc2cc(C([NH-])=O)n(C(=O)CS(=O)(=O)[O-])c2c1

>  <Energy>  (81) 
115.40340755204886

>  <Genealogy>  (81) 
Cn1nnnc1-c1ccc2cc(C([NH-])=O)n(C(=O)CS(=O)(=O)[O-])c2c1 (protonated)
Cn1nnnc1-c1ccc2cc(C([NH-])=O)n(C(=O)CS(=O)(=O)[O-])c2c1 (3D coordinates assigned)
Cn1nnnc1-c1ccc2cc(C([NH-])=O)n(C(=O)CS(=O)(=O)[O-])c2c1 (optimized conformer: 115.40340755204886 kcal/mol)

>  <smiles>  (81) 
Cn1nnnc1-c1ccc2cc(C(N)=O)n(C(=O)CS(=O)(=O)O)c2c1

>  <score_type>  (81) 
oracle

>  <origin>  (81) 
adg

>  <m_score__min__energy>  (81) 
-7.6699999999999999

>  <m_primary>  (81) 
energy

$$$$
81:0
     RDKit          3D

 34 35  0  0  0  0  0  0  0  0999 V2000
  140.5890  156.8680  137.5300 C   0  0  0  0  0  0  0  0  0  0  0  0
  140.2740  158.2180  137.0900 N   0  0  0  0  0  0  0  0  0  0  0  0
  140.9470  158.8520  136.0000 C   0  0  0  0  0  0  0  0  0  0  0  0
  140.9670  160.1090  135.9060 O   0  0  0  0  0  0  0  0  0  0  0  0
  141.6660  158.0210  134.9850 C   0  0  0  0  0  0  0  0  0  0  0  0
  143.0050  158.4840  134.8260 O   0  0  0  0  0  0  0  0  0  0  0  0
  143.6960  158.4340  133.6080 C   0  0  0  0  0  0  0  0  0  0  0  0
  143.2190  157.7980  132.6290 O   0  0  0  0  0  0  0  0  0  0  0  0
  144.9670  159.0900  133.4850 N   0  0  0  0  0  0  0  0  0  0  0  0
  145.2350  160.4200  133.6170 C   0  0  0  0  0  0  0  0  0  0  0  0
  144.2330  161.4980  133.7480 C   0  0  0  0  0  0  0  0  0  0  0  0
  142.8370  161.2120  133.6930 N   0  0  0  0  0  0  0  0  0  0  0  0
  144.6140  162.6940  133.8580 O   0  0  0  0  0  0  0  0  0  0  0  0
  146.6060  160.6520  133.5380 C   0  0  0  0  0  0  0  0  0  0  0  0
  147.1750  159.4150  133.3420 C   0  0  0  0  0  0  0  0  0  0  0  0
  148.5130  159.0550  133.2190 C   0  0  0  0  0  0  0  0  0  0  0  0
  148.8180  157.6910  133.0670 C   0  0  0  0  0  0  0  0  0  0  0  0
  147.7870  156.7170  133.0300 C   0  0  0  0  0  0  0  0  0  0  0  0
  148.1310  155.2530  132.9300 C   0  0  0  0  0  0  0  0  0  0  0  0
  147.1270  154.5960  132.2430 F   0  0  0  0  0  0  0  0  0  0  0  0
  148.2560  154.6930  134.1900 F   0  0  0  0  0  0  0  0  0  0  0  0
  149.3280  155.0770  132.2590 F   0  0  0  0  0  0  0  0  0  0  0  0
  146.4400  157.1220  133.1830 C   0  0  0  0  0  0  0  0  0  0  0  0
  146.1650  158.4890  133.3140 C   0  0  0  0  0  0  0  0  0  0  0  0
  140.5971  156.8332  138.6294 H   0  0  0  0  0  0  0  0  0  0  0  0
  139.8294  156.1708  137.1467 H   0  0  0  0  0  0  0  0  0  0  0  0
  141.5787  156.5790  137.1467 H   0  0  0  0  0  0  0  0  0  0  0  0
  141.6815  156.9731  135.3190 H   0  0  0  0  0  0  0  0  0  0  0  0
  141.1426  158.1012  134.0209 H   0  0  0  0  0  0  0  0  0  0  0  0
  142.4090  160.5040  134.3300 H   0  0  0  0  0  0  0  0  0  0  0  0
  147.1240  161.6193  133.6158 H   0  0  0  0  0  0  0  0  0  0  0  0
  149.3084  159.8145  133.2400 H   0  0  0  0  0  0  0  0  0  0  0  0
  149.8678  157.3754  132.9757 H   0  0  0  0  0  0  0  0  0  0  0  0
  145.6277  156.3805  133.1987 H   0  0  0  0  0  0  0  0  0  0  0  0
  1  2  1  0
  2  3  1  0
  3  4  2  0
  3  5  1  0
  5  6  1  0
  6  7  1  0
  7  8  2  0
  7  9  1  0
  9 10  1  0
 10 11  1  0
 11 12  1  0
 11 13  2  0
 10 14  2  0
 14 15  1  0
 15 16  2  0
 16 17  1  0
 17 18  2  0
 18 19  1  0
 19 20  1  0
 19 21  1  0
 19 22  1  0
 18 23  1  0
 23 24  2  0
 24  9  1  0
 24 15  1  0
  1 25  1  0
  1 26  1  0
  1 27  1  0
  5 28  1  0
  5 29  1  0
 12 30  1  0
 14 31  1  0
 16 32  1  0
 17 33  1  0
 23 34  1  0
M  CHG  2   2  -1  12  -1
M  END
>  <UniqueID>  (82) 
82

>  <SMILES>  (82) 
C[N-]C(=O)COC(=O)n1c(C([NH-])=O)cc2ccc(C(F)(F)F)cc21

>  <Energy>  (82) 
68.80544818659531

>  <Genealogy>  (82) 
C[N-]C(=O)COC(=O)n1c(C([NH-])=O)cc2ccc(C(F)(F)F)cc21 (protonated)
C[N-]C(=O)COC(=O)n1c(C([NH-])=O)cc2ccc(C(F)(F)F)cc21 (3D coordinates assigned)
C[N-]C(=O)COC(=O)n1c(C([NH-])=O)cc2ccc(C(F)(F)F)cc21 (optimized conformer: 68.80544818659531 kcal/mol)

>  <smiles>  (82) 
CNC(=O)COC(=O)n1c(C(N)=O)cc2ccc(C(F)(F)F)cc21

>  <score_type>  (82) 
oracle

>  <origin>  (82) 
adg

>  <m_score__min__energy>  (82) 
-5.5099999999999998

>  <m_primary>  (82) 
energy

$$$$
82:0
     RDKit          3D

 39 41  0  0  0  0  0  0  0  0999 V2000
  148.8720  161.6280  130.7310 C   0  0  0  0  0  0  0  0  0  0  0  0
  149.7960  160.4810  130.7490 N   0  0  0  0  0  0  0  0  0  0  0  0
  149.6880  159.7380  129.4710 C   0  0  0  0  0  0  0  0  0  0  0  0
  149.5850  159.6900  131.9970 C   0  0  0  0  0  0  0  0  0  0  0  0
  148.4600  160.1140  132.9020 C   0  0  0  0  0  0  0  0  0  0  0  0
  147.6350  158.9070  132.6910 N   0  0  0  0  0  0  0  0  0  0  0  0
  146.3710  158.4060  133.1280 C   0  0  0  0  0  0  0  0  0  0  0  0
  146.2080  157.0240  133.3820 C   0  0  0  0  0  0  0  0  0  0  0  0
  144.9660  156.5170  133.7990 C   0  0  0  0  0  0  0  0  0  0  0  0
  143.9150  157.4170  133.9590 C   0  0  0  0  0  0  0  0  0  0  0  0
  142.6070  157.1940  134.3240 C   0  0  0  0  0  0  0  0  0  0  0  0
  142.0010  158.4480  134.3100 C   0  0  0  0  0  0  0  0  0  0  0  0
  140.6030  158.6770  134.7300 C   0  0  0  0  0  0  0  0  0  0  0  0
  140.2730  158.8670  136.1030 N   0  0  0  0  0  0  0  0  0  0  0  0
  139.6810  158.6530  133.8710 O   0  0  0  0  0  0  0  0  0  0  0  0
  142.8950  159.4080  133.9410 N   0  0  0  0  0  0  0  0  0  0  0  0
  142.6410  160.8040  133.7140 C   0  0  0  0  0  0  0  0  0  0  0  0
  143.5880  161.6340  133.7260 O   0  0  0  0  0  0  0  0  0  0  0  0
  141.3500  161.2480  133.4520 O   0  0  0  0  0  0  0  0  0  0  0  0
  144.0640  158.7620  133.7330 C   0  0  0  0  0  0  0  0  0  0  0  0
  145.2850  159.2890  133.3000 C   0  0  0  0  0  0  0  0  0  0  0  0
  148.7450  158.4580  131.8270 C   0  0  0  0  0  0  0  0  0  0  0  0
  148.6340  161.9234  131.7635 H   0  0  0  0  0  0  0  0  0  0  0  0
  149.3454  162.4720  130.2080 H   0  0  0  0  0  0  0  0  0  0  0  0
  147.9465  161.3451  130.2080 H   0  0  0  0  0  0  0  0  0  0  0  0
  150.7650  160.8750  130.7990 H   0  0  0  0  0  0  0  0  0  0  0  0
  149.5327  158.6693  129.6802 H   0  0  0  0  0  0  0  0  0  0  0  0
  148.8368  160.1259  128.8922 H   0  0  0  0  0  0  0  0  0  0  0  0
  150.6144  159.8675  128.8922 H   0  0  0  0  0  0  0  0  0  0  0  0
  150.6390  159.6983  132.3116 H   0  0  0  0  0  0  0  0  0  0  0  0
  148.7777  160.2349  133.9481 H   0  0  0  0  0  0  0  0  0  0  0  0
  147.9896  161.0873  132.6985 H   0  0  0  0  0  0  0  0  0  0  0  0
  147.0604  156.3410  133.2520 H   0  0  0  0  0  0  0  0  0  0  0  0
  144.8278  155.4431  133.9930 H   0  0  0  0  0  0  0  0  0  0  0  0
  142.1394  156.2302  134.5738 H   0  0  0  0  0  0  0  0  0  0  0  0
  139.4110  159.3870  136.3810 H   0  0  0  0  0  0  0  0  0  0  0  0
  145.3954  160.3648  133.0988 H   0  0  0  0  0  0  0  0  0  0  0  0
  149.2389  157.5513  132.2065 H   0  0  0  0  0  0  0  0  0  0  0  0
  148.4917  158.1615  130.7984 H   0  0  0  0  0  0  0  0  0  0  0  0
  1  2  1  0
  2  3  1  0
  2  4  1  0
  4  5  1  0
  5  6  1  0
  6  7  1  0
  7  8  2  0
  8  9  1  0
  9 10  2  0
 10 11  1  0
 11 12  2  0
 12 13  1  0
 13 14  1  0
 13 15  2  0
 12 16  1  0
 16 17  1  0
 17 18  2  0
 17 19  1  0
 16 20  1  0
 20 21  2  0
  6 22  1  0
 22  4  1  0
 21  7  1  0
 20 10  1  0
  1 23  1  0
  1 24  1  0
  1 25  1  0
  2 26  1  0
  3 27  1  0
  3 28  1  0
  3 29  1  0
  4 30  1  0
  5 31  1  0
  5 32  1  0
  8 33  1  0
  9 34  1  0
 11 35  1  0
 14 36  1  0
 21 37  1  0
 22 38  1  0
 22 39  1  0
M  CHG  3   2   1  14  -1  19  -1
M  END
>  <UniqueID>  (83) 
83

>  <SMILES>  (83) 
C[NH+](C)C1CN(c2ccc3cc(C([NH-])=O)n(C(=O)[O-])c3c2)C1

>  <Energy>  (83) 
132.3733875414054

>  <Genealogy>  (83) 
C[NH+](C)C1CN(c2ccc3cc(C([NH-])=O)n(C(=O)[O-])c3c2)C1 (protonated)
C[NH+](C)C1CN(c2ccc3cc(C([NH-])=O)n(C(=O)[O-])c3c2)C1 (3D coordinates assigned)
C[NH+](C)C1CN(c2ccc3cc(C([NH-])=O)n(C(=O)[O-])c3c2)C1 (nonaromatic ring conformer: 132.3733875414054 kcal/mol)

>  <smiles>  (83) 
CN(C)C1CN(c2ccc3cc(C(N)=O)n(C(=O)O)c3c2)C1

>  <score_type>  (83) 
oracle

>  <origin>  (83) 
adg

>  <m_score__min__energy>  (83) 
-6.6299999999999999

>  <m_primary>  (83) 
energy

$$$$
83:0
     RDKit          3D

 62 65  0  0  0  0  0  0  0  0999 V2000
  141.0370  156.3010  137.1920 C   0  0  0  0  0  0  0  0  0  0  0  0
  141.4940  156.2980  135.8430 O   0  0  0  0  0  0  0  0  0  0  0  0
  140.7880  156.8520  134.7650 C   0  0  0  0  0  0  0  0  0  0  0  0
  140.2040  156.0330  133.7670 C   0  0  0  0  0  0  0  0  0  0  0  0
  139.4380  156.6050  132.7420 C   0  0  0  0  0  0  0  0  0  0  0  0
  139.2670  157.9850  132.6790 C   0  0  0  0  0  0  0  0  0  0  0  0
  139.8540  158.8060  133.6440 C   0  0  0  0  0  0  0  0  0  0  0  0
  140.6260  158.2570  134.6890 C   0  0  0  0  0  0  0  0  0  0  0  0
  141.2500  159.1730  135.6780 C   0  0  0  0  0  0  0  0  0  0  0  0
  140.5510  159.6150  136.6420 O   0  0  0  0  0  0  0  0  0  0  0  0
  142.5910  159.5590  135.5350 O   0  0  0  0  0  0  0  0  0  0  0  0
  143.1240  160.0740  134.3440 C   0  0  0  0  0  0  0  0  0  0  0  0
  142.3620  160.5670  133.4610 O   0  0  0  0  0  0  0  0  0  0  0  0
  144.5360  159.9970  134.0960 N   0  0  0  0  0  0  0  0  0  0  0  0
  145.4060  161.0350  133.9140 C   0  0  0  0  0  0  0  0  0  0  0  0
  145.1040  162.4690  134.1130 C   0  0  0  0  0  0  0  0  0  0  0  0
  144.0070  163.0900  133.4480 N   0  0  0  0  0  0  0  0  0  0  0  0
  145.8140  163.1480  134.9030 O   0  0  0  0  0  0  0  0  0  0  0  0
  146.6580  160.5630  133.5330 C   0  0  0  0  0  0  0  0  0  0  0  0
  146.5290  159.1950  133.4820 C   0  0  0  0  0  0  0  0  0  0  0  0
  147.4530  158.2260  133.1010 C   0  0  0  0  0  0  0  0  0  0  0  0
  147.0340  156.8890  133.0790 C   0  0  0  0  0  0  0  0  0  0  0  0
  145.7000  156.5380  133.4290 C   0  0  0  0  0  0  0  0  0  0  0  0
  145.2750  155.1560  133.4320 N   0  0  0  0  0  0  0  0  0  0  0  0
  144.4380  154.6090  134.5000 C   0  0  0  0  0  0  0  0  0  0  0  0
  142.9910  154.4440  133.9950 C   0  0  0  0  0  0  0  0  0  0  0  0
  142.8640  153.7590  132.5940 C   0  0  0  0  0  0  0  0  0  0  0  0
  142.6020  152.2830  132.6220 N   0  0  0  0  0  0  0  0  0  0  0  0
  143.7760  151.4620  132.9860 C   0  0  0  0  0  0  0  0  0  0  0  0
  141.4650  151.9400  133.4960 C   0  0  0  0  0  0  0  0  0  0  0  0
  143.9890  154.1690  131.5930 C   0  0  0  0  0  0  0  0  0  0  0  0
  145.3820  154.3440  132.2180 C   0  0  0  0  0  0  0  0  0  0  0  0
  144.7850  157.5570  133.7990 C   0  0  0  0  0  0  0  0  0  0  0  0
  145.2420  158.8790  133.8300 C   0  0  0  0  0  0  0  0  0  0  0  0
  141.9016  156.2953  137.8720 H   0  0  0  0  0  0  0  0  0  0  0  0
  140.4341  157.2031  137.3729 H   0  0  0  0  0  0  0  0  0  0  0  0
  140.4224  155.4069  137.3729 H   0  0  0  0  0  0  0  0  0  0  0  0
  140.3525  154.9435  133.7968 H   0  0  0  0  0  0  0  0  0  0  0  0
  138.9697  155.9603  131.9837 H   0  0  0  0  0  0  0  0  0  0  0  0
  138.6695  158.4288  131.8691 H   0  0  0  0  0  0  0  0  0  0  0  0
  139.7125  159.8954  133.5885 H   0  0  0  0  0  0  0  0  0  0  0  0
  143.1310  162.5710  133.2330 H   0  0  0  0  0  0  0  0  0  0  0  0
  147.5585  161.1571  133.3184 H   0  0  0  0  0  0  0  0  0  0  0  0
  148.4816  158.5017  132.8254 H   0  0  0  0  0  0  0  0  0  0  0  0
  147.7446  156.1015  132.7877 H   0  0  0  0  0  0  0  0  0  0  0  0
  144.8318  153.6289  134.8072 H   0  0  0  0  0  0  0  0  0  0  0  0
  144.4475  155.2971  135.3581 H   0  0  0  0  0  0  0  0  0  0  0  0
  142.4399  153.8344  134.7262 H   0  0  0  0  0  0  0  0  0  0  0  0
  142.5820  155.4591  133.8838 H   0  0  0  0  0  0  0  0  0  0  0  0
  141.9323  154.1807  132.1889 H   0  0  0  0  0  0  0  0  0  0  0  0
  142.3090  151.9910  131.6560 H   0  0  0  0  0  0  0  0  0  0  0  0
  143.8579  151.4047  134.0814 H   0  0  0  0  0  0  0  0  0  0  0  0
  143.6572  150.4491  132.5737 H   0  0  0  0  0  0  0  0  0  0  0  0
  144.6866  151.9212  132.5737 H   0  0  0  0  0  0  0  0  0  0  0  0
  141.7708  152.0322  134.5486 H   0  0  0  0  0  0  0  0  0  0  0  0
  140.6286  152.6258  133.2957 H   0  0  0  0  0  0  0  0  0  0  0  0
  141.1474  150.9061  133.2957 H   0  0  0  0  0  0  0  0  0  0  0  0
  144.0576  153.3904  130.8190 H   0  0  0  0  0  0  0  0  0  0  0  0
  143.7037  155.1547  131.1967 H   0  0  0  0  0  0  0  0  0  0  0  0
  145.7961  153.3572  132.4725 H   0  0  0  0  0  0  0  0  0  0  0  0
  146.0456  154.8463  131.4988 H   0  0  0  0  0  0  0  0  0  0  0  0
  143.7431  157.3140  134.0549 H   0  0  0  0  0  0  0  0  0  0  0  0
  1  2  1  0
  2  3  1  0
  3  4  2  0
  4  5  1  0
  5  6  2  0
  6  7  1  0
  7  8  2  0
  8  9  1  0
  9 10  2  0
  9 11  1  0
 11 12  1  0
 12 13  2  0
 12 14  1  0
 14 15  1  0
 15 16  1  0
 16 17  1  0
 16 18  2  0
 15 19  2  0
 19 20  1  0
 20 21  2  0
 21 22  1  0
 22 23  2  0
 23 24  1  0
 24 25  1  0
 25 26  1  0
 26 27  1  0
 27 28  1  0
 28 29  1  0
 28 30  1  0
 27 31  1  0
 31 32  1  0
 23 33  1  0
 33 34  2  0
  8  3  1  0
 34 14  1  0
 34 20  1  0
 32 24  1  0
  1 35  1  0
  1 36  1  0
  1 37  1  0
  4 38  1  0
  5 39  1  0
  6 40  1  0
  7 41  1  0
 17 42  1  0
 19 43  1  0
 21 44  1  0
 22 45  1  0
 25 46  1  0
 25 47  1  0
 26 48  1  0
 26 49  1  0
 27 50  1  0
 28 51  1  0
 29 52  1  0
 29 53  1  0
 29 54  1  0
 30 55  1  0
 30 56  1  0
 30 57  1  0
 31 58  1  0
 31 59  1  0
 32 60  1  0
 32 61  1  0
 33 62  1  0
M  CHG  2  17  -1  28   1
M  END
>  <UniqueID>  (84) 
84

>  <SMILES>  (84) 
COc1ccccc1C(=O)OC(=O)n1c(C([NH-])=O)cc2ccc(N3CCC([NH+](C)C)CC3)cc21

>  <Energy>  (84) 
122.16357767269537

>  <Genealogy>  (84) 
COc1ccccc1C(=O)OC(=O)n1c(C([NH-])=O)cc2ccc(N3CCC([NH+](C)C)CC3)cc21 (protonated)
COc1ccccc1C(=O)OC(=O)n1c(C([NH-])=O)cc2ccc(N3CCC([NH+](C)C)CC3)cc21 (3D coordinates assigned)
COc1ccccc1C(=O)OC(=O)n1c(C([NH-])=O)cc2ccc(N3CCC([NH+](C)C)CC3)cc21 (nonaromatic ring conformer: 122.16357767269537 kcal/mol)

>  <smiles>  (84) 
COc1ccccc1C(=O)OC(=O)n1c(C(N)=O)cc2ccc(N3CCC(N(C)C)CC3)cc21

>  <score_type>  (84) 
oracle

>  <origin>  (84) 
adg

>  <m_score__min__energy>  (84) 
-9

>  <m_primary>  (84) 
energy

$$$$
84:0
     RDKit          3D

 38 40  0  0  0  0  0  0  0  0999 V2000
  141.1620  159.2860  132.7310 N   0  0  0  0  0  0  0  0  0  0  0  0
  140.7130  158.5700  133.8770 C   0  0  0  0  0  0  0  0  0  0  0  0
  139.4800  158.4000  134.0700 O   0  0  0  0  0  0  0  0  0  0  0  0
  141.7070  157.9840  134.8230 C   0  0  0  0  0  0  0  0  0  0  0  0
  142.9620  158.6290  134.6380 O   0  0  0  0  0  0  0  0  0  0  0  0
  143.7840  158.3880  133.5340 C   0  0  0  0  0  0  0  0  0  0  0  0
  143.3930  157.6300  132.6040 O   0  0  0  0  0  0  0  0  0  0  0  0
  145.0910  158.9800  133.4780 N   0  0  0  0  0  0  0  0  0  0  0  0
  145.4190  160.3030  133.5170 C   0  0  0  0  0  0  0  0  0  0  0  0
  144.4860  161.4230  133.7670 C   0  0  0  0  0  0  0  0  0  0  0  0
  143.0940  161.2580  133.5060 N   0  0  0  0  0  0  0  0  0  0  0  0
  144.9090  162.5370  134.1740 O   0  0  0  0  0  0  0  0  0  0  0  0
  146.7950  160.4710  133.3710 C   0  0  0  0  0  0  0  0  0  0  0  0
  147.3060  159.2000  133.2500 C   0  0  0  0  0  0  0  0  0  0  0  0
  148.6230  158.7770  133.0760 C   0  0  0  0  0  0  0  0  0  0  0  0
  148.8590  157.3970  132.9590 C   0  0  0  0  0  0  0  0  0  0  0  0
  147.7850  156.4770  133.0090 C   0  0  0  0  0  0  0  0  0  0  0  0
  148.0370  155.0770  132.8810 N   0  0  0  0  0  0  0  0  0  0  0  0
  147.2760  153.8190  133.0160 C   0  0  0  0  0  0  0  0  0  0  0  0
  148.4230  152.9100  132.6900 C   0  0  0  0  0  0  0  0  0  0  0  0
  148.8470  152.1110  133.7730 O   0  0  0  0  0  0  0  0  0  0  0  0
  149.1760  154.1980  132.5510 C   0  0  0  0  0  0  0  0  0  0  0  0
  146.4650  156.9400  133.1830 C   0  0  0  0  0  0  0  0  0  0  0  0
  146.2590  158.3180  133.3180 C   0  0  0  0  0  0  0  0  0  0  0  0
  142.1800  159.4490  132.5650 H   0  0  0  0  0  0  0  0  0  0  0  0
  141.3643  158.1346  135.8574 H   0  0  0  0  0  0  0  0  0  0  0  0
  141.8121  156.9062  134.6296 H   0  0  0  0  0  0  0  0  0  0  0  0
  142.5640  160.4530  133.9090 H   0  0  0  0  0  0  0  0  0  0  0  0
  147.3534  161.4186  133.3558 H   0  0  0  0  0  0  0  0  0  0  0  0
  149.4506  159.5003  133.0318 H   0  0  0  0  0  0  0  0  0  0  0  0
  149.8871  157.0287  132.8274 H   0  0  0  0  0  0  0  0  0  0  0  0
  146.8864  153.6645  134.0330 H   0  0  0  0  0  0  0  0  0  0  0  0
  146.3640  153.7153  132.4098 H   0  0  0  0  0  0  0  0  0  0  0  0
  148.3900  152.1293  131.9158 H   0  0  0  0  0  0  0  0  0  0  0  0
  148.1530  151.4260  133.9650 H   0  0  0  0  0  0  0  0  0  0  0  0
  150.0037  154.2864  133.2701 H   0  0  0  0  0  0  0  0  0  0  0  0
  149.6899  154.3789  131.5954 H   0  0  0  0  0  0  0  0  0  0  0  0
  145.6193  156.2372  133.2119 H   0  0  0  0  0  0  0  0  0  0  0  0
  1  2  1  0
  2  3  2  0
  2  4  1  0
  4  5  1  0
  5  6  1  0
  6  7  2  0
  6  8  1  0
  8  9  1  0
  9 10  1  0
 10 11  1  0
 10 12  2  0
  9 13  2  0
 13 14  1  0
 14 15  2  0
 15 16  1  0
 16 17  2  0
 17 18  1  0
 18 19  1  0
 19 20  1  0
 20 21  1  0
 20 22  1  0
 17 23  1  0
 23 24  2  0
 24  8  1  0
 24 14  1  0
 22 18  1  0
  1 25  1  0
  4 26  1  0
  4 27  1  0
 11 28  1  0
 13 29  1  0
 15 30  1  0
 16 31  1  0
 19 32  1  0
 19 33  1  0
 20 34  1  0
 21 35  1  0
 22 36  1  0
 22 37  1  0
 23 38  1  0
M  CHG  2   1  -1  11  -1
M  END
>  <UniqueID>  (85) 
85

>  <SMILES>  (85) 
[NH-]C(=O)COC(=O)n1c(C([NH-])=O)cc2ccc(N3CC(O)C3)cc21

>  <Energy>  (85) 
120.42525173169535

>  <Genealogy>  (85) 
[NH-]C(=O)COC(=O)n1c(C([NH-])=O)cc2ccc(N3CC(O)C3)cc21 (protonated)
[NH-]C(=O)COC(=O)n1c(C([NH-])=O)cc2ccc(N3CC(O)C3)cc21 (3D coordinates assigned)
[NH-]C(=O)COC(=O)n1c(C([NH-])=O)cc2ccc(N3CC(O)C3)cc21 (nonaromatic ring conformer: 120.42525173169535 kcal/mol)

>  <smiles>  (85) 
NC(=O)COC(=O)n1c(C(N)=O)cc2ccc(N3CC(O)C3)cc21

>  <score_type>  (85) 
oracle

>  <origin>  (85) 
adg

>  <m_score__min__energy>  (85) 
-6.6600000000000001

>  <m_primary>  (85) 
energy

$$$$
85:0
     RDKit          3D

 54 56  0  0  0  0  0  0  0  0999 V2000
  141.7630  158.9930  135.8760 C   0  0  0  0  0  0  0  0  0  0  0  0
  141.8830  157.5480  135.4210 C   0  0  0  0  0  0  0  0  0  0  0  0
  143.1630  157.3350  134.8360 O   0  0  0  0  0  0  0  0  0  0  0  0
  143.5650  157.9510  133.6470 C   0  0  0  0  0  0  0  0  0  0  0  0
  142.7880  157.9820  132.6530 O   0  0  0  0  0  0  0  0  0  0  0  0
  144.8800  158.5190  133.5490 N   0  0  0  0  0  0  0  0  0  0  0  0
  145.2260  159.8380  133.4940 C   0  0  0  0  0  0  0  0  0  0  0  0
  144.3160  160.9840  133.6970 C   0  0  0  0  0  0  0  0  0  0  0  0
  142.9310  160.8880  133.3760 N   0  0  0  0  0  0  0  0  0  0  0  0
  144.7580  162.0470  134.2090 O   0  0  0  0  0  0  0  0  0  0  0  0
  146.6000  159.9750  133.2960 C   0  0  0  0  0  0  0  0  0  0  0  0
  147.0900  158.6900  133.2400 C   0  0  0  0  0  0  0  0  0  0  0  0
  148.3910  158.2350  133.0400 C   0  0  0  0  0  0  0  0  0  0  0  0
  148.6020  156.8460  132.9920 C   0  0  0  0  0  0  0  0  0  0  0  0
  147.5190  155.9450  133.1420 C   0  0  0  0  0  0  0  0  0  0  0  0
  147.7500  154.4580  133.0490 C   0  0  0  0  0  0  0  0  0  0  0  0
  146.4700  153.7010  133.3190 C   0  0  0  0  0  0  0  0  0  0  0  0
  146.1480  153.5450  134.4910 O   0  0  0  0  0  0  0  0  0  0  0  0
  145.5810  153.2080  132.2730 N   0  0  0  0  0  0  0  0  0  0  0  0
  144.6880  154.2340  131.6820 C   0  0  0  0  0  0  0  0  0  0  0  0
  143.3340  154.4120  132.3930 C   0  0  0  0  0  0  0  0  0  0  0  0
  142.7500  153.1320  132.8010 N   0  0  0  0  0  0  0  0  0  0  0  0
  141.3190  153.0360  132.9560 C   0  0  0  0  0  0  0  0  0  0  0  0
  140.7970  151.9770  133.3990 O   0  0  0  0  0  0  0  0  0  0  0  0
  140.5060  154.1250  132.6160 O   0  0  0  0  0  0  0  0  0  0  0  0
  140.2990  155.2310  133.4860 C   0  0  0  0  0  0  0  0  0  0  0  0
  143.6190  152.1360  133.4340 C   0  0  0  0  0  0  0  0  0  0  0  0
  144.9020  151.9430  132.6260 C   0  0  0  0  0  0  0  0  0  0  0  0
  146.2130  156.4470  133.3310 C   0  0  0  0  0  0  0  0  0  0  0  0
  146.0340  157.8320  133.3940 C   0  0  0  0  0  0  0  0  0  0  0  0
  141.7597  159.0322  136.9753 H   0  0  0  0  0  0  0  0  0  0  0  0
  142.6163  159.5707  135.4910 H   0  0  0  0  0  0  0  0  0  0  0  0
  140.8261  159.4220  135.4910 H   0  0  0  0  0  0  0  0  0  0  0  0
  141.7608  156.8805  136.2867 H   0  0  0  0  0  0  0  0  0  0  0  0
  141.1017  157.3339  134.6769 H   0  0  0  0  0  0  0  0  0  0  0  0
  142.5820  160.1550  132.7210 H   0  0  0  0  0  0  0  0  0  0  0  0
  147.1706  160.9110  133.2042 H   0  0  0  0  0  0  0  0  0  0  0  0
  149.2271  158.9402  132.9233 H   0  0  0  0  0  0  0  0  0  0  0  0
  149.6182  156.4547  132.8364 H   0  0  0  0  0  0  0  0  0  0  0  0
  148.1096  154.2108  132.0393 H   0  0  0  0  0  0  0  0  0  0  0  0
  148.4979  154.1683  133.8018 H   0  0  0  0  0  0  0  0  0  0  0  0
  146.2190  152.9440  131.4820 H   0  0  0  0  0  0  0  0  0  0  0  0
  145.2151  155.1992  131.7070 H   0  0  0  0  0  0  0  0  0  0  0  0
  144.4554  153.8869  130.6645 H   0  0  0  0  0  0  0  0  0  0  0  0
  143.4829  155.0345  133.2876 H   0  0  0  0  0  0  0  0  0  0  0  0
  142.6408  154.8885  131.6842 H   0  0  0  0  0  0  0  0  0  0  0  0
  140.3623  154.8926  134.5307 H   0  0  0  0  0  0  0  0  0  0  0  0
  141.0701  155.9931  133.3000 H   0  0  0  0  0  0  0  0  0  0  0  0
  139.3045  155.6627  133.3000 H   0  0  0  0  0  0  0  0  0  0  0  0
  143.8788  152.4761  134.4474 H   0  0  0  0  0  0  0  0  0  0  0  0
  143.0823  151.1768  133.4777 H   0  0  0  0  0  0  0  0  0  0  0  0
  145.5967  151.3304  133.2194 H   0  0  0  0  0  0  0  0  0  0  0  0
  144.6155  151.4586  131.6808 H   0  0  0  0  0  0  0  0  0  0  0  0
  145.3560  155.7640  133.4265 H   0  0  0  0  0  0  0  0  0  0  0  0
  1  2  1  0
  2  3  1  0
  3  4  1  0
  4  5  2  0
  4  6  1  0
  6  7  1  0
  7  8  1  0
  8  9  1  0
  8 10  2  0
  7 11  2  0
 11 12  1  0
 12 13  2  0
 13 14  1  0
 14 15  2  0
 15 16  1  0
 16 17  1  0
 17 18  2  0
 17 19  1  0
 19 20  1  0
 20 21  1  0
 21 22  1  0
 22 23  1  0
 23 24  2  0
 23 25  1  0
 25 26  1  0
 22 27  1  0
 27 28  1  0
 15 29  1  0
 29 30  2  0
 30  6  1  0
 30 12  1  0
 28 19  1  0
  1 31  1  0
  1 32  1  0
  1 33  1  0
  2 34  1  0
  2 35  1  0
  9 36  1  0
 11 37  1  0
 13 38  1  0
 14 39  1  0
 16 40  1  0
 16 41  1  0
 19 42  1  0
 20 43  1  0
 20 44  1  0
 21 45  1  0
 21 46  1  0
 26 47  1  0
 26 48  1  0
 26 49  1  0
 27 50  1  0
 27 51  1  0
 28 52  1  0
 28 53  1  0
 29 54  1  0
M  CHG  2   9  -1  19   1
M  END
>  <UniqueID>  (86) 
86

>  <SMILES>  (86) 
CCOC(=O)n1c(C([NH-])=O)cc2ccc(CC(=O)[NH+]3CCN(C(=O)OC)CC3)cc21

>  <Energy>  (86) 
94.44575379000624

>  <Genealogy>  (86) 
CCOC(=O)n1c(C([NH-])=O)cc2ccc(CC(=O)[NH+]3CCN(C(=O)OC)CC3)cc21 (protonated)
CCOC(=O)n1c(C([NH-])=O)cc2ccc(CC(=O)[NH+]3CCN(C(=O)OC)CC3)cc21 (3D coordinates assigned)
CCOC(=O)n1c(C([NH-])=O)cc2ccc(CC(=O)[NH+]3CCN(C(=O)OC)CC3)cc21 (nonaromatic ring conformer: 94.44575379000624 kcal/mol)

>  <smiles>  (86) 
CCOC(=O)n1c(C(N)=O)cc2ccc(CC(=O)N3CCN(C(=O)OC)CC3)cc21

>  <score_type>  (86) 
oracle

>  <origin>  (86) 
adg

>  <m_score__min__energy>  (86) 
-7.4199999999999999

>  <m_primary>  (86) 
energy

$$$$
86:0
     RDKit          3D

 45 47  0  0  0  0  0  0  0  0999 V2000
  140.1070  150.0780  132.2160 C   0  0  0  0  0  0  0  0  0  0  0  0
  141.2070  150.2870  133.0930 O   0  0  0  0  0  0  0  0  0  0  0  0
  142.1120  151.3390  132.9300 C   0  0  0  0  0  0  0  0  0  0  0  0
  143.3130  151.1040  132.6240 O   0  0  0  0  0  0  0  0  0  0  0  0
  141.6820  152.7300  133.1220 C   0  0  0  0  0  0  0  0  0  0  0  0
  140.5200  153.1980  132.7250 O   0  0  0  0  0  0  0  0  0  0  0  0
  140.5010  154.4650  133.0690 C   0  0  0  0  0  0  0  0  0  0  0  0
  139.5310  155.2340  132.8440 O   0  0  0  0  0  0  0  0  0  0  0  0
  141.6030  154.8390  133.6740 O   0  0  0  0  0  0  0  0  0  0  0  0
  142.3710  153.7750  133.7230 C   0  0  0  0  0  0  0  0  0  0  0  0
  143.7220  153.7490  134.3700 C   0  0  0  0  0  0  0  0  0  0  0  0
  144.2360  155.0730  134.5050 O   0  0  0  0  0  0  0  0  0  0  0  0
  144.6000  155.8710  133.4150 C   0  0  0  0  0  0  0  0  0  0  0  0
  144.9100  155.3270  132.3200 O   0  0  0  0  0  0  0  0  0  0  0  0
  144.6550  157.3070  133.5480 N   0  0  0  0  0  0  0  0  0  0  0  0
  145.7380  158.1140  133.3530 C   0  0  0  0  0  0  0  0  0  0  0  0
  147.1110  157.6620  133.0880 C   0  0  0  0  0  0  0  0  0  0  0  0
  147.3830  156.7480  132.0280 N   0  0  0  0  0  0  0  0  0  0  0  0
  148.0440  158.0290  133.8510 O   0  0  0  0  0  0  0  0  0  0  0  0
  145.3790  159.4540  133.4030 C   0  0  0  0  0  0  0  0  0  0  0  0
  144.0300  159.4570  133.6650 C   0  0  0  0  0  0  0  0  0  0  0  0
  143.1590  160.5280  133.8420 C   0  0  0  0  0  0  0  0  0  0  0  0
  141.8130  160.2440  134.1230 C   0  0  0  0  0  0  0  0  0  0  0  0
  141.3650  158.9040  134.2210 C   0  0  0  0  0  0  0  0  0  0  0  0
  139.9290  158.6110  134.5710 C   0  0  0  0  0  0  0  0  0  0  0  0
  139.1180  158.2240  133.3310 C   0  0  0  0  0  0  0  0  0  0  0  0
  137.9830  157.4820  133.6900 O   0  0  0  0  0  0  0  0  0  0  0  0
  142.2790  157.8420  134.0430 C   0  0  0  0  0  0  0  0  0  0  0  0
  143.6140  158.1520  133.7480 C   0  0  0  0  0  0  0  0  0  0  0  0
  139.1952  149.9048  132.8064 H   0  0  0  0  0  0  0  0  0  0  0  0
  139.9699  150.9662  131.5817 H   0  0  0  0  0  0  0  0  0  0  0  0
  140.3052  149.2014  131.5817 H   0  0  0  0  0  0  0  0  0  0  0  0
  143.6378  153.2899  135.3661 H   0  0  0  0  0  0  0  0  0  0  0  0
  144.4075  153.1634  133.7398 H   0  0  0  0  0  0  0  0  0  0  0  0
  148.3600  156.4330  131.8410 H   0  0  0  0  0  0  0  0  0  0  0  0
  146.6030  156.3500  131.4580 H   0  0  0  0  0  0  0  0  0  0  0  0
  146.0340  160.3265  133.2629 H   0  0  0  0  0  0  0  0  0  0  0  0
  143.5145  161.5660  133.7641 H   0  0  0  0  0  0  0  0  0  0  0  0
  141.1004  161.0693  134.2683 H   0  0  0  0  0  0  0  0  0  0  0  0
  139.8988  157.7804  135.2916 H   0  0  0  0  0  0  0  0  0  0  0  0
  139.4863  159.5203  135.0036 H   0  0  0  0  0  0  0  0  0  0  0  0
  138.8007  159.1381  132.8078 H   0  0  0  0  0  0  0  0  0  0  0  0
  139.7496  157.6071  132.6749 H   0  0  0  0  0  0  0  0  0  0  0  0
  137.9590  156.6880  133.0940 H   0  0  0  0  0  0  0  0  0  0  0  0
  141.9510  156.7960  134.1337 H   0  0  0  0  0  0  0  0  0  0  0  0
  1  2  1  0
  2  3  1  0
  3  4  2  0
  3  5  1  0
  5  6  1  0
  6  7  1  0
  7  8  2  0
  7  9  1  0
  9 10  1  0
 10 11  1  0
 11 12  1  0
 12 13  1  0
 13 14  2  0
 13 15  1  0
 15 16  1  0
 16 17  1  0
 17 18  1  0
 17 19  2  0
 16 20  2  0
 20 21  1  0
 21 22  2  0
 22 23  1  0
 23 24  2  0
 24 25  1  0
 25 26  1  0
 26 27  1  0
 24 28  1  0
 28 29  2  0
 10  5  2  0
 29 15  1  0
 29 21  1  0
  1 30  1  0
  1 31  1  0
  1 32  1  0
 11 33  1  0
 11 34  1  0
 18 35  1  0
 18 36  1  0
 20 37  1  0
 22 38  1  0
 23 39  1  0
 25 40  1  0
 25 41  1  0
 26 42  1  0
 26 43  1  0
 27 44  1  0
 28 45  1  0
M  END
>  <UniqueID>  (87) 
87

>  <SMILES>  (87) 
COC(=O)c1oc(=O)oc1COC(=O)n1c(C(N)=O)cc2ccc(CCO)cc21

>  <Energy>  (87) 
113.74022265423315

>  <Genealogy>  (87) 
COC(=O)c1oc(=O)oc1COC(=O)n1c(C(N)=O)cc2ccc(CCO)cc21 (3D coordinates assigned)
COC(=O)c1oc(=O)oc1COC(=O)n1c(C(N)=O)cc2ccc(CCO)cc21 (optimized conformer: 113.74022265423315 kcal/mol)

>  <smiles>  (87) 
COC(=O)c1oc(=O)oc1COC(=O)n1c(C(N)=O)cc2ccc(CCO)cc21

>  <score_type>  (87) 
oracle

>  <origin>  (87) 
adg

>  <m_score__min__energy>  (87) 
-7.1699999999999999

>  <m_primary>  (87) 
energy

$$$$
87:0
     RDKit          3D

 49 51  0  0  0  0  0  0  0  0999 V2000
  149.9640  158.2210  132.4520 N   0  0  0  0  0  0  0  0  0  0  0  0
  149.0790  159.3080  132.1770 C   0  0  0  0  0  0  0  0  0  0  0  0
  149.4950  160.2770  131.4870 O   0  0  0  0  0  0  0  0  0  0  0  0
  147.7020  159.3180  132.7200 C   0  0  0  0  0  0  0  0  0  0  0  0
  146.9890  160.4790  133.0160 C   0  0  0  0  0  0  0  0  0  0  0  0
  145.7370  160.0510  133.3940 C   0  0  0  0  0  0  0  0  0  0  0  0
  144.6250  160.7850  133.7960 C   0  0  0  0  0  0  0  0  0  0  0  0
  143.4640  160.0790  134.1510 C   0  0  0  0  0  0  0  0  0  0  0  0
  143.4400  158.6620  134.1150 C   0  0  0  0  0  0  0  0  0  0  0  0
  142.1830  157.9200  134.4870 C   0  0  0  0  0  0  0  0  0  0  0  0
  141.1580  158.8390  135.0790 C   0  0  0  0  0  0  0  0  0  0  0  0
  141.3870  159.4290  136.1710 O   0  0  0  0  0  0  0  0  0  0  0  0
  139.8900  158.9840  134.4330 N   0  0  0  0  0  0  0  0  0  0  0  0
  139.0260  157.8590  134.0910 C   0  0  0  0  0  0  0  0  0  0  0  0
  139.2090  157.4590  132.6250 C   0  0  0  0  0  0  0  0  0  0  0  0
  138.8760  158.5760  131.7430 N   0  0  0  0  0  0  0  0  0  0  0  0
  137.6500  159.0470  131.4640 C   0  0  0  0  0  0  0  0  0  0  0  0
  137.7970  160.1580  130.6660 C   0  0  0  0  0  0  0  0  0  0  0  0
  139.1090  160.3920  130.4520 N   0  0  0  0  0  0  0  0  0  0  0  0
  139.7380  159.4090  131.1290 C   0  0  0  0  0  0  0  0  0  0  0  0
  144.5840  157.9510  133.6900 C   0  0  0  0  0  0  0  0  0  0  0  0
  145.7200  158.6820  133.3230 C   0  0  0  0  0  0  0  0  0  0  0  0
  146.9190  158.2170  132.9100 N   0  0  0  0  0  0  0  0  0  0  0  0
  147.2920  156.8400  132.7480 C   0  0  0  0  0  0  0  0  0  0  0  0
  147.0030  156.2310  131.6820 O   0  0  0  0  0  0  0  0  0  0  0  0
  147.9800  156.1810  133.7740 O   0  0  0  0  0  0  0  0  0  0  0  0
  148.1020  154.7620  133.8500 C   0  0  0  0  0  0  0  0  0  0  0  0
  149.1550  154.2490  132.8660 C   0  0  0  0  0  0  0  0  0  0  0  0
  149.8200  155.3220  132.2550 O   0  0  0  0  0  0  0  0  0  0  0  0
  150.9460  158.2440  132.0980 H   0  0  0  0  0  0  0  0  0  0  0  0
  149.6420  157.3740  132.9690 H   0  0  0  0  0  0  0  0  0  0  0  0
  147.3504  161.5164  132.9594 H   0  0  0  0  0  0  0  0  0  0  0  0
  144.6545  161.8839  133.8345 H   0  0  0  0  0  0  0  0  0  0  0  0
  142.5642  160.6311  134.4601 H   0  0  0  0  0  0  0  0  0  0  0  0
  141.7641  157.4513  133.5843 H   0  0  0  0  0  0  0  0  0  0  0  0
  142.4406  157.1598  135.2391 H   0  0  0  0  0  0  0  0  0  0  0  0
  139.2787  157.0021  134.7328 H   0  0  0  0  0  0  0  0  0  0  0  0
  137.9791  158.1585  134.2467 H   0  0  0  0  0  0  0  0  0  0  0  0
  140.2560  157.1658  132.4580 H   0  0  0  0  0  0  0  0  0  0  0  0
  138.5382  156.6167  132.4002 H   0  0  0  0  0  0  0  0  0  0  0  0
  136.6975  158.6205  131.8116 H   0  0  0  0  0  0  0  0  0  0  0  0
  136.9713  160.7633  130.2637 H   0  0  0  0  0  0  0  0  0  0  0  0
  140.8317  159.3001  131.1744 H   0  0  0  0  0  0  0  0  0  0  0  0
  144.5823  156.8518  133.6485 H   0  0  0  0  0  0  0  0  0  0  0  0
  148.3969  154.4805  134.8717 H   0  0  0  0  0  0  0  0  0  0  0  0
  147.1320  154.3124  133.5913 H   0  0  0  0  0  0  0  0  0  0  0  0
  149.8862  153.6311  133.4078 H   0  0  0  0  0  0  0  0  0  0  0  0
  148.6552  153.6514  132.0894 H   0  0  0  0  0  0  0  0  0  0  0  0
  149.1180  155.9390  131.9210 H   0  0  0  0  0  0  0  0  0  0  0  0
  1  2  1  0
  2  3  2  0
  2  4  1  0
  4  5  2  0
  5  6  1  0
  6  7  2  0
  7  8  1  0
  8  9  2  0
  9 10  1  0
 10 11  1  0
 11 12  2  0
 11 13  1  0
 13 14  1  0
 14 15  1  0
 15 16  1  0
 16 17  1  0
 17 18  2  0
 18 19  1  0
 19 20  1  0
  9 21  1  0
 21 22  2  0
 22 23  1  0
 23 24  1  0
 24 25  2  0
 24 26  1  0
 26 27  1  0
 27 28  1  0
 28 29  1  0
 23  4  1  0
 22  6  1  0
 20 16  2  0
  1 30  1  0
  1 31  1  0
  5 32  1  0
  7 33  1  0
  8 34  1  0
 10 35  1  0
 10 36  1  0
 14 37  1  0
 14 38  1  0
 15 39  1  0
 15 40  1  0
 17 41  1  0
 18 42  1  0
 20 43  1  0
 21 44  1  0
 27 45  1  0
 27 46  1  0
 28 47  1  0
 28 48  1  0
 29 49  1  0
M  CHG  3  13  -1  16   1  19  -1
M  END
>  <UniqueID>  (88) 
88

>  <SMILES>  (88) 
NC(=O)c1cc2ccc(CC(=O)[N-]CC[n+]3cc[n-]c3)cc2n1C(=O)OCCO

>  <Energy>  (88) 
106.84667892877103

>  <Genealogy>  (88) 
NC(=O)c1cc2ccc(CC(=O)[N-]CC[n+]3cc[n-]c3)cc2n1C(=O)OCCO (protonated)
NC(=O)c1cc2ccc(CC(=O)[N-]CC[n+]3cc[n-]c3)cc2n1C(=O)OCCO (3D coordinates assigned)
NC(=O)c1cc2ccc(CC(=O)[N-]CC[n+]3cc[n-]c3)cc2n1C(=O)OCCO (optimized conformer: 106.84667892877103 kcal/mol)

>  <smiles>  (88) 
NC(=O)c1cc2ccc(CC(=O)NCC[n+]3cc[nH]c3)cc2n1C(=O)OCCO

>  <score_type>  (88) 
oracle

>  <origin>  (88) 
adg

>  <m_score__min__energy>  (88) 
-7.6600000000000001

>  <m_primary>  (88) 
energy

$$$$
88:0
     RDKit          3D

 40 42  0  0  0  0  0  0  0  0999 V2000
  148.8780  158.4290  131.4340 N   0  0  0  0  0  0  0  0  0  0  0  0
  148.4020  158.9300  132.6800 C   0  0  0  0  0  0  0  0  0  0  0  0
  149.2320  159.3130  133.5480 O   0  0  0  0  0  0  0  0  0  0  0  0
  146.9560  158.9750  132.9810 C   0  0  0  0  0  0  0  0  0  0  0  0
  146.2390  160.1560  133.1680 C   0  0  0  0  0  0  0  0  0  0  0  0
  144.9600  159.7600  133.4930 C   0  0  0  0  0  0  0  0  0  0  0  0
  143.8270  160.5200  133.7690 C   0  0  0  0  0  0  0  0  0  0  0  0
  142.6300  159.8390  134.0460 C   0  0  0  0  0  0  0  0  0  0  0  0
  142.5880  158.4210  134.0500 C   0  0  0  0  0  0  0  0  0  0  0  0
  141.2910  157.7020  134.3030 C   0  0  0  0  0  0  0  0  0  0  0  0
  140.6280  157.3120  132.9800 C   0  0  0  0  0  0  0  0  0  0  0  0
  139.2580  157.9060  132.8860 C   0  0  0  0  0  0  0  0  0  0  0  0
  138.4830  157.8570  133.8790 O   0  0  0  0  0  0  0  0  0  0  0  0
  138.8210  158.4860  131.6560 N   0  0  0  0  0  0  0  0  0  0  0  0
  138.4580  159.8920  131.5430 C   0  0  0  0  0  0  0  0  0  0  0  0
  138.6090  160.4450  130.1390 C   0  0  0  0  0  0  0  0  0  0  0  0
  137.2270  160.1190  130.6870 C   0  0  0  0  0  0  0  0  0  0  0  0
  143.7580  157.6850  133.7550 C   0  0  0  0  0  0  0  0  0  0  0  0
  144.9350  158.3900  133.4920 C   0  0  0  0  0  0  0  0  0  0  0  0
  146.1480  157.8940  133.1750 N   0  0  0  0  0  0  0  0  0  0  0  0
  146.4690  156.5070  133.0100 C   0  0  0  0  0  0  0  0  0  0  0  0
  147.1840  156.1430  132.0380 O   0  0  0  0  0  0  0  0  0  0  0  0
  146.0590  155.5050  134.0420 C   0  0  0  0  0  0  0  0  0  0  0  0
  147.3880  155.2740  135.2040 Cl  0  0  0  0  0  0  0  0  0  0  0  0
  148.6240  157.4700  131.1080 H   0  0  0  0  0  0  0  0  0  0  0  0
  146.6148  161.1857  133.0756 H   0  0  0  0  0  0  0  0  0  0  0  0
  143.8677  161.6193  133.7702 H   0  0  0  0  0  0  0  0  0  0  0  0
  141.7157  160.4112  134.2621 H   0  0  0  0  0  0  0  0  0  0  0  0
  141.4893  156.7933  134.8903 H   0  0  0  0  0  0  0  0  0  0  0  0
  140.6153  158.3708  134.8562 H   0  0  0  0  0  0  0  0  0  0  0  0
  141.2411  157.6818  132.1449 H   0  0  0  0  0  0  0  0  0  0  0  0
  140.5449  156.2162  132.9329 H   0  0  0  0  0  0  0  0  0  0  0  0
  138.7858  160.2113  132.5433 H   0  0  0  0  0  0  0  0  0  0  0  0
  138.9086  161.4928  129.9895 H   0  0  0  0  0  0  0  0  0  0  0  0
  139.1805  160.1545  129.2451 H   0  0  0  0  0  0  0  0  0  0  0  0
  136.5272  160.9310  130.9338 H   0  0  0  0  0  0  0  0  0  0  0  0
  136.3847  159.4950  130.3537 H   0  0  0  0  0  0  0  0  0  0  0  0
  143.7422  156.5853  133.7331 H   0  0  0  0  0  0  0  0  0  0  0  0
  145.1668  155.8690  134.5726 H   0  0  0  0  0  0  0  0  0  0  0  0
  145.8286  154.5472  133.5526 H   0  0  0  0  0  0  0  0  0  0  0  0
  1  2  1  0
  2  3  2  0
  2  4  1  0
  4  5  2  0
  5  6  1  0
  6  7  2  0
  7  8  1  0
  8  9  2  0
  9 10  1  0
 10 11  1  0
 11 12  1  0
 12 13  2  0
 12 14  1  0
 14 15  1  0
 15 16  1  0
 16 17  1  0
  9 18  1  0
 18 19  2  0
 19 20  1  0
 20 21  1  0
 21 22  2  0
 21 23  1  0
 23 24  1  0
 20  4  1  0
 19  6  1  0
 17 15  1  0
  1 25  1  0
  5 26  1  0
  7 27  1  0
  8 28  1  0
 10 29  1  0
 10 30  1  0
 11 31  1  0
 11 32  1  0
 15 33  1  0
 16 34  1  0
 16 35  1  0
 17 36  1  0
 17 37  1  0
 18 38  1  0
 23 39  1  0
 23 40  1  0
M  CHG  2   1  -1  14  -1
M  END
>  <UniqueID>  (89) 
89

>  <SMILES>  (89) 
[NH-]C(=O)c1cc2ccc(CCC(=O)[N-]C3CC3)cc2n1C(=O)CCl

>  <Energy>  (89) 
338.22381819988163

>  <Genealogy>  (89) 
[NH-]C(=O)c1cc2ccc(CCC(=O)[N-]C3CC3)cc2n1C(=O)CCl (protonated)
[NH-]C(=O)c1cc2ccc(CCC(=O)[N-]C3CC3)cc2n1C(=O)CCl (3D coordinates assigned)
[NH-]C(=O)c1cc2ccc(CCC(=O)[N-]C3CC3)cc2n1C(=O)CCl (nonaromatic ring conformer: 338.22381819988163 kcal/mol)

>  <smiles>  (89) 
NC(=O)c1cc2ccc(CCC(=O)NC3CC3)cc2n1C(=O)CCl

>  <score_type>  (89) 
oracle

>  <origin>  (89) 
adg

>  <m_score__min__energy>  (89) 
-7.6399999999999997

>  <m_primary>  (89) 
energy

$$$$
89:0
     RDKit          3D

 58 59  0  0  0  0  0  0  0  0999 V2000
  144.3580  154.8940  136.4030 N   0  0  0  0  0  0  0  0  0  0  0  0
  142.9960  155.0420  136.8090 C   0  0  0  0  0  0  0  0  0  0  0  0
  142.6230  154.5310  137.8990 O   0  0  0  0  0  0  0  0  0  0  0  0
  142.0060  155.7390  135.9620 C   0  0  0  0  0  0  0  0  0  0  0  0
  140.9850  156.5390  136.4710 C   0  0  0  0  0  0  0  0  0  0  0  0
  140.3140  157.0150  135.3680 C   0  0  0  0  0  0  0  0  0  0  0  0
  139.2360  157.8930  135.2890 C   0  0  0  0  0  0  0  0  0  0  0  0
  138.7880  158.2720  134.0130 C   0  0  0  0  0  0  0  0  0  0  0  0
  139.4300  157.7850  132.8480 C   0  0  0  0  0  0  0  0  0  0  0  0
  138.9350  158.1990  131.4860 C   0  0  0  0  0  0  0  0  0  0  0  0
  137.5180  158.7900  131.5400 C   0  0  0  0  0  0  0  0  0  0  0  0
  137.4380  160.1720  130.8800 C   0  0  0  0  0  0  0  0  0  0  0  0
  138.7820  160.8330  130.8320 C   0  0  0  0  0  0  0  0  0  0  0  0
  139.3080  161.2210  131.8610 O   0  0  0  0  0  0  0  0  0  0  0  0
  140.5200  156.8940  132.9680 C   0  0  0  0  0  0  0  0  0  0  0  0
  140.9290  156.5130  134.2500 C   0  0  0  0  0  0  0  0  0  0  0  0
  141.9650  155.7170  134.5990 N   0  0  0  0  0  0  0  0  0  0  0  0
  142.9360  155.1280  133.7170 C   0  0  0  0  0  0  0  0  0  0  0  0
  144.0170  155.7380  133.5040 O   0  0  0  0  0  0  0  0  0  0  0  0
  142.6870  153.8150  133.0170 C   0  0  1  0  0  0  0  0  0  0  0  0
  143.7680  152.9230  133.2960 O   0  0  0  0  0  0  0  0  0  0  0  0
  144.8330  152.7080  132.4150 C   0  0  0  0  0  0  0  0  0  0  0  0
  144.8980  153.3380  131.3240 O   0  0  0  0  0  0  0  0  0  0  0  0
  145.8260  151.7870  132.7690 O   0  0  0  0  0  0  0  0  0  0  0  0
  146.9280  151.4430  131.9290 C   0  0  0  0  0  0  0  0  0  0  0  0
  148.2600  151.8370  132.5820 C   0  0  0  0  0  0  0  0  0  0  0  0
  148.5190  153.3600  132.5720 C   0  0  0  0  0  0  0  0  0  0  0  0
  147.9740  154.0620  133.8200 C   0  0  0  0  0  0  0  0  0  0  0  0
  148.3480  153.3510  134.9750 O   0  0  0  0  0  0  0  0  0  0  0  0
  147.6230  154.0900  136.3290 P   0  0  0  0  0  0  0  0  0  0  0  0
  146.7960  155.2750  135.8810 O   0  0  0  0  0  0  0  0  0  0  0  0
  148.7960  154.6060  137.4340 O   0  0  0  0  0  0  0  0  0  0  0  0
  146.6130  152.9680  137.0900 O   0  0  0  0  0  0  0  0  0  0  0  0
  141.3960  153.1810  133.4530 C   0  0  0  0  0  0  0  0  0  0  0  0
  140.2980  153.5750  132.9790 O   0  0  0  0  0  0  0  0  0  0  0  0
  141.4070  152.1730  134.4100 O   0  0  0  0  0  0  0  0  0  0  0  0
  144.6620  155.1180  135.4310 H   0  0  0  0  0  0  0  0  0  0  0  0
  145.0490  154.4520  137.0480 H   0  0  0  0  0  0  0  0  0  0  0  0
  140.7629  156.7458  137.5283 H   0  0  0  0  0  0  0  0  0  0  0  0
  138.7504  158.2778  136.1979 H   0  0  0  0  0  0  0  0  0  0  0  0
  137.9301  158.9538  133.9173 H   0  0  0  0  0  0  0  0  0  0  0  0
  139.6193  158.9559  131.0751 H   0  0  0  0  0  0  0  0  0  0  0  0
  138.9033  157.3017  130.8504 H   0  0  0  0  0  0  0  0  0  0  0  0
  136.8304  158.1084  131.0179 H   0  0  0  0  0  0  0  0  0  0  0  0
  137.2421  158.9062  132.5985 H   0  0  0  0  0  0  0  0  0  0  0  0
  137.0586  160.0573  129.8539 H   0  0  0  0  0  0  0  0  0  0  0  0
  136.7629  160.8026  131.4772 H   0  0  0  0  0  0  0  0  0  0  0  0
  139.2941  160.9681  129.8679 H   0  0  0  0  0  0  0  0  0  0  0  0
  141.0343  156.5094  132.0749 H   0  0  0  0  0  0  0  0  0  0  0  0
  142.6159  154.0148  131.9376 H   0  0  0  0  0  0  0  0  0  0  0  0
  146.9209  150.3572  131.7526 H   0  0  0  0  0  0  0  0  0  0  0  0
  146.8283  151.9879  130.9787 H   0  0  0  0  0  0  0  0  0  0  0  0
  148.2527  151.4910  133.6261 H   0  0  0  0  0  0  0  0  0  0  0  0
  149.0623  151.3664  131.9948 H   0  0  0  0  0  0  0  0  0  0  0  0
  149.6041  153.5318  132.5175 H   0  0  0  0  0  0  0  0  0  0  0  0
  147.9957  153.7797  131.7002 H   0  0  0  0  0  0  0  0  0  0  0  0
  148.3829  155.0819  133.8719 H   0  0  0  0  0  0  0  0  0  0  0  0
  146.8763  154.1022  133.7608 H   0  0  0  0  0  0  0  0  0  0  0  0
  1  2  1  0
  2  3  2  0
  2  4  1  0
  4  5  2  0
  5  6  1  0
  6  7  2  0
  7  8  1  0
  8  9  2  0
  9 10  1  0
 10 11  1  0
 11 12  1  0
 12 13  1  0
 13 14  2  0
  9 15  1  0
 15 16  2  0
 16 17  1  0
 17 18  1  0
 18 19  2  0
 18 20  1  0
 20 21  1  0
 21 22  1  0
 22 23  2  0
 22 24  1  0
 24 25  1  0
 25 26  1  0
 26 27  1  0
 27 28  1  0
 28 29  1  0
 29 30  1  0
 30 31  2  0
 30 32  1  0
 30 33  1  0
 20 34  1  0
 34 35  2  0
 34 36  1  0
 17  4  1  0
 16  6  1  0
  1 37  1  0
  1 38  1  0
  5 39  1  0
  7 40  1  0
  8 41  1  0
 10 42  1  0
 10 43  1  0
 11 44  1  0
 11 45  1  0
 12 46  1  0
 12 47  1  0
 13 48  1  0
 15 49  1  0
 20 50  1  6
 25 51  1  0
 25 52  1  0
 26 53  1  0
 26 54  1  0
 27 55  1  0
 27 56  1  0
 28 57  1  0
 28 58  1  0
M  CHG  3  32  -1  33  -1  36  -1
M  END
>  <UniqueID>  (90) 
90

>  <SMILES>  (90) 
NC(=O)c1cc2ccc(CCCC=O)cc2n1C(=O)[C@@H](OC(=O)OCCCCOP(=O)([O-])[O-])C(=O)[O-]

>  <Energy>  (90) 
85.16016808231302

>  <Genealogy>  (90) 
NC(=O)c1cc2ccc(CCCC=O)cc2n1C(=O)C(OC(=O)OCCCCOP(=O)([O-])[O-])C(=O)[O-] (protonated)
NC(=O)c1cc2ccc(CCCC=O)cc2n1C(=O)[C@@H](OC(=O)OCCCCOP(=O)([O-])[O-])C(=O)[O-] (chirality)
NC(=O)c1cc2ccc(CCCC=O)cc2n1C(=O)[C@@H](OC(=O)OCCCCOP(=O)([O-])[O-])C(=O)[O-] (3D coordinates assigned)
NC(=O)c1cc2ccc(CCCC=O)cc2n1C(=O)[C@@H](OC(=O)OCCCCOP(=O)([O-])[O-])C(=O)[O-] (optimized conformer: 85.16016808231302 kcal/mol)

>  <smiles>  (90) 
NC(=O)c1cc2ccc(CCCC=O)cc2n1C(=O)C(OC(=O)OCCCCOP(=O)(O)O)C(=O)O

>  <score_type>  (90) 
oracle

>  <origin>  (90) 
adg

>  <m_score__min__energy>  (90) 
-7.5599999999999996

>  <m_primary>  (90) 
energy

$$$$
90:0
     RDKit          3D

 47 49  0  0  0  0  0  0  0  0999 V2000
  139.1470  157.2450  133.4270 C   0  0  0  0  0  0  0  0  0  0  0  0
  139.5470  158.3270  134.3400 N   0  0  0  0  0  0  0  0  0  0  0  0
  139.5080  157.8550  135.7460 C   0  0  0  0  0  0  0  0  0  0  0  0
  140.3560  158.7410  136.6670 C   0  0  0  0  0  0  0  0  0  0  0  0
  141.8390  158.7050  136.2590 C   0  0  0  0  0  0  0  0  0  0  0  0
  142.0320  158.4070  134.7530 C   0  0  2  0  0  0  0  0  0  0  0  0
  143.3530  158.9530  134.2410 C   0  0  0  0  0  0  0  0  0  0  0  0
  143.4830  160.3390  133.9600 C   0  0  0  0  0  0  0  0  0  0  0  0
  144.6980  160.8680  133.4980 C   0  0  0  0  0  0  0  0  0  0  0  0
  145.7640  159.9940  133.3150 C   0  0  0  0  0  0  0  0  0  0  0  0
  147.0540  160.2430  132.9070 C   0  0  0  0  0  0  0  0  0  0  0  0
  147.6910  159.0040  132.9150 C   0  0  0  0  0  0  0  0  0  0  0  0
  149.0820  158.8010  132.4620 C   0  0  0  0  0  0  0  0  0  0  0  0
  149.5930  157.4920  132.2270 N   0  0  0  0  0  0  0  0  0  0  0  0
  149.8160  159.8000  132.2330 O   0  0  0  0  0  0  0  0  0  0  0  0
  146.8310  158.0270  133.3200 N   0  0  0  0  0  0  0  0  0  0  0  0
  147.1230  156.6420  133.5560 C   0  0  0  0  0  0  0  0  0  0  0  0
  147.3240  156.2340  134.7330 O   0  0  0  0  0  0  0  0  0  0  0  0
  147.2030  155.7560  132.4750 O   0  0  0  0  0  0  0  0  0  0  0  0
  147.2100  154.3380  132.6220 C   0  0  0  0  0  0  0  0  0  0  0  0
  148.6380  153.8230  132.8010 C   0  0  0  0  0  0  0  0  0  0  0  0
  149.5520  154.7200  132.2340 O   0  0  0  0  0  0  0  0  0  0  0  0
  145.6540  158.6500  133.5600 C   0  0  0  0  0  0  0  0  0  0  0  0
  144.4630  158.0960  134.0390 C   0  0  0  0  0  0  0  0  0  0  0  0
  140.8390  158.9360  133.9290 C   0  0  0  0  0  0  0  0  0  0  0  0
  138.8241  156.3716  134.0127 H   0  0  0  0  0  0  0  0  0  0  0  0
  138.3165  157.5886  132.7928 H   0  0  0  0  0  0  0  0  0  0  0  0
  140.0013  156.9657  132.7928 H   0  0  0  0  0  0  0  0  0  0  0  0
  138.4659  157.8698  136.0980 H   0  0  0  0  0  0  0  0  0  0  0  0
  139.9206  156.8358  135.7765 H   0  0  0  0  0  0  0  0  0  0  0  0
  139.9913  159.7769  136.6045 H   0  0  0  0  0  0  0  0  0  0  0  0
  140.2674  158.3612  137.6956 H   0  0  0  0  0  0  0  0  0  0  0  0
  142.2912  159.6817  136.4861 H   0  0  0  0  0  0  0  0  0  0  0  0
  142.3218  157.8945  136.8247 H   0  0  0  0  0  0  0  0  0  0  0  0
  142.0658  157.3146  134.6283 H   0  0  0  0  0  0  0  0  0  0  0  0
  142.6207  161.0061  134.1063 H   0  0  0  0  0  0  0  0  0  0  0  0
  144.8040  161.9423  133.2869 H   0  0  0  0  0  0  0  0  0  0  0  0
  147.4902  161.2148  132.6325 H   0  0  0  0  0  0  0  0  0  0  0  0
  148.9950  156.7510  131.7980 H   0  0  0  0  0  0  0  0  0  0  0  0
  146.6132  154.0630  133.5042 H   0  0  0  0  0  0  0  0  0  0  0  0
  146.7806  153.8853  131.7161 H   0  0  0  0  0  0  0  0  0  0  0  0
  148.8532  153.7153  133.8743 H   0  0  0  0  0  0  0  0  0  0  0  0
  148.7332  152.8491  132.2985 H   0  0  0  0  0  0  0  0  0  0  0  0
  149.0200  155.4770  131.8710 H   0  0  0  0  0  0  0  0  0  0  0  0
  144.3895  157.0197  134.2540 H   0  0  0  0  0  0  0  0  0  0  0  0
  140.7735  160.0258  134.0632 H   0  0  0  0  0  0  0  0  0  0  0  0
  141.0148  158.6672  132.8769 H   0  0  0  0  0  0  0  0  0  0  0  0
  1  2  1  0
  2  3  1  0
  3  4  1  0
  4  5  1  0
  5  6  1  0
  6  7  1  0
  7  8  2  0
  8  9  1  0
  9 10  2  0
 10 11  1  0
 11 12  2  0
 12 13  1  0
 13 14  1  0
 13 15  2  0
 12 16  1  0
 16 17  1  0
 17 18  2  0
 17 19  1  0
 19 20  1  0
 20 21  1  0
 21 22  1  0
 16 23  1  0
 23 24  2  0
  6 25  1  0
 25  2  1  0
 24  7  1  0
 23 10  1  0
  1 26  1  0
  1 27  1  0
  1 28  1  0
  3 29  1  0
  3 30  1  0
  4 31  1  0
  4 32  1  0
  5 33  1  0
  5 34  1  0
  6 35  1  1
  8 36  1  0
  9 37  1  0
 11 38  1  0
 14 39  1  0
 20 40  1  0
 20 41  1  0
 21 42  1  0
 21 43  1  0
 22 44  1  0
 24 45  1  0
 25 46  1  0
 25 47  1  0
M  CHG  1  14  -1
M  END
>  <UniqueID>  (91) 
91

>  <SMILES>  (91) 
CN1CCC[C@H](c2ccc3cc(C([NH-])=O)n(C(=O)OCCO)c3c2)C1

>  <Energy>  (91) 
91.44973618411913

>  <Genealogy>  (91) 
CN1CCC[C@H](c2ccc3cc(C([NH-])=O)n(C(=O)OCCO)c3c2)C1 (protonated)
CN1CCC[C@H](c2ccc3cc(C([NH-])=O)n(C(=O)OCCO)c3c2)C1 (3D coordinates assigned)
CN1CCC[C@H](c2ccc3cc(C([NH-])=O)n(C(=O)OCCO)c3c2)C1 (nonaromatic ring conformer: 91.44973618411913 kcal/mol)

>  <smiles>  (91) 
CN1CCC[C@H](c2ccc3cc(C(N)=O)n(C(=O)OCCO)c3c2)C1

>  <score_type>  (91) 
oracle

>  <origin>  (91) 
adg

>  <m_score__min__energy>  (91) 
-7.3200000000000003

>  <m_primary>  (91) 
energy

$$$$
91:0
     RDKit          3D

 41 43  0  0  0  0  0  0  0  0999 V2000
  148.5570  150.3730  132.2140 C   0  0  0  0  0  0  0  0  0  0  0  0
  149.7710  150.9700  131.8190 O   0  0  0  0  0  0  0  0  0  0  0  0
  149.9960  152.1210  132.6060 C   0  0  0  0  0  0  0  0  0  0  0  0
  149.4890  153.3550  131.9290 C   0  0  0  0  0  0  0  0  0  0  0  0
  148.3920  153.6160  132.8800 N   0  0  0  0  0  0  0  0  0  0  0  0
  147.3590  154.5860  133.0570 C   0  0  0  0  0  0  0  0  0  0  0  0
  146.0140  154.1700  133.2030 C   0  0  0  0  0  0  0  0  0  0  0  0
  144.9890  155.1170  133.3730 C   0  0  0  0  0  0  0  0  0  0  0  0
  145.3430  156.4630  133.3980 C   0  0  0  0  0  0  0  0  0  0  0  0
  144.5570  157.5870  133.5290 C   0  0  0  0  0  0  0  0  0  0  0  0
  145.4410  158.6650  133.4730 C   0  0  0  0  0  0  0  0  0  0  0  0
  145.0230  160.0770  133.6000 C   0  0  0  0  0  0  0  0  0  0  0  0
  145.9450  161.0830  134.0110 N   0  0  0  0  0  0  0  0  0  0  0  0
  143.8280  160.3990  133.3600 O   0  0  0  0  0  0  0  0  0  0  0  0
  146.7190  158.2220  133.3170 N   0  0  0  0  0  0  0  0  0  0  0  0
  147.9070  159.0130  133.1610 C   0  0  0  0  0  0  0  0  0  0  0  0
  148.7330  159.0760  134.1130 O   0  0  0  0  0  0  0  0  0  0  0  0
  148.2270  159.6830  131.8500 C   0  0  2  0  0  0  0  0  0  0  0  0
  149.6350  159.3170  131.3730 C   0  0  0  0  0  0  0  0  0  0  0  0
  148.1160  161.0760  131.9780 O   0  0  0  0  0  0  0  0  0  0  0  0
  146.6430  156.8760  133.2680 C   0  0  0  0  0  0  0  0  0  0  0  0
  147.6810  155.9580  133.0850 C   0  0  0  0  0  0  0  0  0  0  0  0
  148.8760  152.4020  133.5600 C   0  0  0  0  0  0  0  0  0  0  0  0
  148.5020  150.3460  133.3123 H   0  0  0  0  0  0  0  0  0  0  0  0
  147.7144  150.9595  131.8190 H   0  0  0  0  0  0  0  0  0  0  0  0
  148.5071  149.3476  131.8190 H   0  0  0  0  0  0  0  0  0  0  0  0
  151.0379  151.9558  132.9178 H   0  0  0  0  0  0  0  0  0  0  0  0
  150.2339  154.1641  131.9077 H   0  0  0  0  0  0  0  0  0  0  0  0
  149.2203  153.2686  130.8658 H   0  0  0  0  0  0  0  0  0  0  0  0
  145.7690  153.0978  133.1833 H   0  0  0  0  0  0  0  0  0  0  0  0
  143.9402  154.8042  133.4828 H   0  0  0  0  0  0  0  0  0  0  0  0
  143.4646  157.6262  133.6517 H   0  0  0  0  0  0  0  0  0  0  0  0
  146.4710  161.6480  133.3090 H   0  0  0  0  0  0  0  0  0  0  0  0
  147.5036  159.3272  131.1017 H   0  0  0  0  0  0  0  0  0  0  0  0
  150.2849  159.1481  132.2442 H   0  0  0  0  0  0  0  0  0  0  0  0
  149.5899  158.4007  130.7660 H   0  0  0  0  0  0  0  0  0  0  0  0
  150.0418  160.1392  130.7660 H   0  0  0  0  0  0  0  0  0  0  0  0
  147.3370  161.2500  132.5690 H   0  0  0  0  0  0  0  0  0  0  0  0
  148.7207  156.2969  132.9661 H   0  0  0  0  0  0  0  0  0  0  0  0
  149.2292  152.6004  134.5827 H   0  0  0  0  0  0  0  0  0  0  0  0
  148.1458  151.5963  133.7265 H   0  0  0  0  0  0  0  0  0  0  0  0
  1  2  1  0
  2  3  1  0
  3  4  1  0
  4  5  1  0
  5  6  1  0
  6  7  2  0
  7  8  1  0
  8  9  2  0
  9 10  1  0
 10 11  2  0
 11 12  1  0
 12 13  1  0
 12 14  2  0
 11 15  1  0
 15 16  1  0
 16 17  2  0
 16 18  1  0
 18 19  1  0
 18 20  1  0
 15 21  1  0
 21 22  2  0
  5 23  1  0
 23  3  1  0
 22  6  1  0
 21  9  1  0
  1 24  1  0
  1 25  1  0
  1 26  1  0
  3 27  1  0
  4 28  1  0
  4 29  1  0
  7 30  1  0
  8 31  1  0
 10 32  1  0
 13 33  1  0
 18 34  1  6
 19 35  1  0
 19 36  1  0
 19 37  1  0
 20 38  1  0
 22 39  1  0
 23 40  1  0
 23 41  1  0
M  CHG  1  13  -1
M  END
>  <UniqueID>  (92) 
92

>  <SMILES>  (92) 
COC1CN(c2ccc3cc(C([NH-])=O)n(C(=O)[C@H](C)O)c3c2)C1

>  <Energy>  (92) 
124.96860028083896

>  <Genealogy>  (92) 
COC1CN(c2ccc3cc(C([NH-])=O)n(C(=O)C(C)O)c3c2)C1 (protonated)
COC1CN(c2ccc3cc(C([NH-])=O)n(C(=O)[C@H](C)O)c3c2)C1 (chirality)
COC1CN(c2ccc3cc(C([NH-])=O)n(C(=O)[C@H](C)O)c3c2)C1 (3D coordinates assigned)
COC1CN(c2ccc3cc(C([NH-])=O)n(C(=O)[C@H](C)O)c3c2)C1 (nonaromatic ring conformer: 124.96860028083896 kcal/mol)

>  <smiles>  (92) 
COC1CN(c2ccc3cc(C(N)=O)n(C(=O)C(C)O)c3c2)C1

>  <score_type>  (92) 
oracle

>  <origin>  (92) 
adg

>  <m_score__min__energy>  (92) 
-6.8899999999999997

>  <m_primary>  (92) 
energy

$$$$
92:0
     RDKit          3D

 42 44  0  0  0  0  0  0  0  0999 V2000
  150.7290  150.3210  130.3070 C   0  0  0  0  0  0  0  0  0  0  0  0
  150.6150  150.7590  131.6570 O   0  0  0  0  0  0  0  0  0  0  0  0
  149.4070  150.7250  132.3630 C   0  0  0  0  0  0  0  0  0  0  0  0
  149.0030  149.6430  132.8620 O   0  0  0  0  0  0  0  0  0  0  0  0
  148.6100  151.9610  132.5250 C   0  0  0  0  0  0  0  0  0  0  0  0
  149.2480  153.2080  132.6120 C   0  0  0  0  0  0  0  0  0  0  0  0
  148.5010  154.3790  132.7730 C   0  0  0  0  0  0  0  0  0  0  0  0
  147.0970  154.3290  132.8470 C   0  0  0  0  0  0  0  0  0  0  0  0
  146.3030  155.5720  133.0430 C   0  0  0  0  0  0  0  0  0  0  0  0
  144.8920  155.5020  133.1750 C   0  0  0  0  0  0  0  0  0  0  0  0
  144.1320  156.6600  133.3900 C   0  0  0  0  0  0  0  0  0  0  0  0
  144.8020  157.8750  133.4630 C   0  0  0  0  0  0  0  0  0  0  0  0
  144.3030  159.1320  133.6850 C   0  0  0  0  0  0  0  0  0  0  0  0
  145.4080  159.9700  133.6950 C   0  0  0  0  0  0  0  0  0  0  0  0
  145.3040  161.4150  133.9570 C   0  0  0  0  0  0  0  0  0  0  0  0
  146.4740  162.2130  134.1340 N   0  0  0  0  0  0  0  0  0  0  0  0
  144.1650  161.9360  134.0980 O   0  0  0  0  0  0  0  0  0  0  0  0
  146.5580  159.2730  133.4630 N   0  0  0  0  0  0  0  0  0  0  0  0
  147.8830  159.8260  133.2690 C   0  0  0  0  0  0  0  0  0  0  0  0
  148.8530  159.4360  133.9760 O   0  0  0  0  0  0  0  0  0  0  0  0
  148.1050  160.7900  132.2810 O   0  0  0  0  0  0  0  0  0  0  0  0
  149.2330  160.7850  131.4130 C   0  0  0  0  0  0  0  0  0  0  0  0
  148.9290  159.7340  130.0030 Cl  0  0  0  0  0  0  0  0  0  0  0  0
  146.1660  157.9780  133.3350 C   0  0  0  0  0  0  0  0  0  0  0  0
  146.9460  156.8310  133.1200 C   0  0  0  0  0  0  0  0  0  0  0  0
  146.4590  153.0790  132.7510 C   0  0  0  0  0  0  0  0  0  0  0  0
  147.2070  151.9090  132.5940 C   0  0  0  0  0  0  0  0  0  0  0  0
  151.0060  149.2566  130.2890 H   0  0  0  0  0  0  0  0  0  0  0  0
  149.7653  150.4578  129.7945 H   0  0  0  0  0  0  0  0  0  0  0  0
  151.5037  150.9102  129.7945 H   0  0  0  0  0  0  0  0  0  0  0  0
  150.3450  153.2646  132.5530 H   0  0  0  0  0  0  0  0  0  0  0  0
  149.0160  155.3485  132.8424 H   0  0  0  0  0  0  0  0  0  0  0  0
  144.3881  154.5265  133.1078 H   0  0  0  0  0  0  0  0  0  0  0  0
  143.0385  156.6084  133.4976 H   0  0  0  0  0  0  0  0  0  0  0  0
  143.2496  159.4160  133.8254 H   0  0  0  0  0  0  0  0  0  0  0  0
  146.3920  163.2350  134.3310 H   0  0  0  0  0  0  0  0  0  0  0  0
  147.4240  161.7820  134.0860 H   0  0  0  0  0  0  0  0  0  0  0  0
  149.4273  161.8104  131.0654 H   0  0  0  0  0  0  0  0  0  0  0  0
  150.1046  160.4006  131.9630 H   0  0  0  0  0  0  0  0  0  0  0  0
  148.0380  156.9090  133.0132 H   0  0  0  0  0  0  0  0  0  0  0  0
  145.3616  153.0219  132.8000 H   0  0  0  0  0  0  0  0  0  0  0  0
  146.6933  150.9388  132.5238 H   0  0  0  0  0  0  0  0  0  0  0  0
  1  2  1  0
  2  3  1  0
  3  4  2  0
  3  5  1  0
  5  6  2  0
  6  7  1  0
  7  8  2  0
  8  9  1  0
  9 10  2  0
 10 11  1  0
 11 12  2  0
 12 13  1  0
 13 14  2  0
 14 15  1  0
 15 16  1  0
 15 17  2  0
 14 18  1  0
 18 19  1  0
 19 20  2  0
 19 21  1  0
 21 22  1  0
 22 23  1  0
 18 24  1  0
 24 25  2  0
  8 26  1  0
 26 27  2  0
 27  5  1  0
 25  9  1  0
 24 12  1  0
  1 28  1  0
  1 29  1  0
  1 30  1  0
  6 31  1  0
  7 32  1  0
 10 33  1  0
 11 34  1  0
 13 35  1  0
 16 36  1  0
 16 37  1  0
 22 38  1  0
 22 39  1  0
 25 40  1  0
 26 41  1  0
 27 42  1  0
M  END
>  <UniqueID>  (93) 
93

>  <SMILES>  (93) 
COC(=O)c1ccc(-c2ccc3cc(C(N)=O)n(C(=O)OCCl)c3c2)cc1

>  <Energy>  (93) 
88.36437553546673

>  <Genealogy>  (93) 
COC(=O)c1ccc(-c2ccc3cc(C(N)=O)n(C(=O)OCCl)c3c2)cc1 (3D coordinates assigned)
COC(=O)c1ccc(-c2ccc3cc(C(N)=O)n(C(=O)OCCl)c3c2)cc1 (optimized conformer: 88.36437553546673 kcal/mol)

>  <smiles>  (93) 
COC(=O)c1ccc(-c2ccc3cc(C(N)=O)n(C(=O)OCCl)c3c2)cc1

>  <score_type>  (93) 
oracle

>  <origin>  (93) 
adg

>  <m_score__min__energy>  (93) 
-8.1799999999999997

>  <m_primary>  (93) 
energy

$$$$
93:0
     RDKit          3D

 40 42  0  0  0  0  0  0  0  0999 V2000
  144.0860  153.6930  137.2500 N   0  0  0  0  0  0  0  0  0  0  0  0
  143.6280  154.0820  135.9550 C   0  0  0  0  0  0  0  0  0  0  0  0
  142.7370  153.3980  135.3850 O   0  0  0  0  0  0  0  0  0  0  0  0
  144.2250  155.2320  135.2470 C   0  0  0  0  0  0  0  0  0  0  0  0
  143.4950  156.3460  134.8450 C   0  0  0  0  0  0  0  0  0  0  0  0
  144.3920  157.1450  134.1760 C   0  0  0  0  0  0  0  0  0  0  0  0
  144.2060  158.3850  133.5770 C   0  0  0  0  0  0  0  0  0  0  0  0
  145.3190  159.0070  132.9870 C   0  0  0  0  0  0  0  0  0  0  0  0
  146.6010  158.3920  133.0130 C   0  0  0  0  0  0  0  0  0  0  0  0
  147.7430  159.0500  132.4170 N   0  0  0  0  0  0  0  0  0  0  0  0
  149.1250  158.7570  132.7730 C   0  0  0  0  0  0  0  0  0  0  0  0
  149.9780  159.7840  132.0390 C   0  0  0  0  0  0  0  0  0  0  0  0
  149.0820  160.3480  130.9160 C   0  0  1  0  0  0  0  0  0  0  0  0
  149.3340  161.7850  130.7350 N   0  0  0  0  0  0  0  0  0  0  0  0
  149.3640  159.6210  129.5750 C   0  0  0  0  0  0  0  0  0  0  0  0
  149.7000  160.5230  128.5530 O   0  0  0  0  0  0  0  0  0  0  0  0
  147.6420  160.0920  131.4030 C   0  0  0  0  0  0  0  0  0  0  0  0
  146.7420  157.1270  133.6380 C   0  0  0  0  0  0  0  0  0  0  0  0
  145.6110  156.5200  134.1960 C   0  0  0  0  0  0  0  0  0  0  0  0
  145.5260  155.3410  134.8550 N   0  0  0  0  0  0  0  0  0  0  0  0
  146.6120  154.4550  135.1760 C   0  0  0  0  0  0  0  0  0  0  0  0
  147.5820  154.3250  134.3820 O   0  0  0  0  0  0  0  0  0  0  0  0
  146.6060  153.7330  136.3630 O   0  0  0  0  0  0  0  0  0  0  0  0
  144.9350  154.1270  137.6760 H   0  0  0  0  0  0  0  0  0  0  0  0
  143.6260  152.9010  137.7540 H   0  0  0  0  0  0  0  0  0  0  0  0
  142.4281  156.5451  135.0241 H   0  0  0  0  0  0  0  0  0  0  0  0
  143.2165  158.8654  133.5651 H   0  0  0  0  0  0  0  0  0  0  0  0
  145.1970  159.9845  132.4975 H   0  0  0  0  0  0  0  0  0  0  0  0
  149.2670  158.8497  133.8598 H   0  0  0  0  0  0  0  0  0  0  0  0
  149.4028  157.7302  132.4927 H   0  0  0  0  0  0  0  0  0  0  0  0
  150.2847  160.5877  132.7246 H   0  0  0  0  0  0  0  0  0  0  0  0
  150.8973  159.3338  131.6363 H   0  0  0  0  0  0  0  0  0  0  0  0
  150.3630  161.9370  130.6140 H   0  0  0  0  0  0  0  0  0  0  0  0
  148.8780  162.1200  129.8540 H   0  0  0  0  0  0  0  0  0  0  0  0
  150.1988  158.9194  129.7192 H   0  0  0  0  0  0  0  0  0  0  0  0
  148.4484  159.0903  129.2749 H   0  0  0  0  0  0  0  0  0  0  0  0
  149.0900  161.3020  128.6400 H   0  0  0  0  0  0  0  0  0  0  0  0
  147.2162  161.0086  131.8373 H   0  0  0  0  0  0  0  0  0  0  0  0
  146.9837  159.7883  130.5757 H   0  0  0  0  0  0  0  0  0  0  0  0
  147.7230  156.6315  133.6835 H   0  0  0  0  0  0  0  0  0  0  0  0
  1  2  1  0
  2  3  2  0
  2  4  1  0
  4  5  2  0
  5  6  1  0
  6  7  2  0
  7  8  1  0
  8  9  2  0
  9 10  1  0
 10 11  1  0
 11 12  1  0
 12 13  1  0
 13 14  1  6
 13 15  1  0
 15 16  1  0
 13 17  1  0
  9 18  1  0
 18 19  2  0
 19 20  1  0
 20 21  1  0
 21 22  2  0
 21 23  1  0
 20  4  1  0
 19  6  1  0
 17 10  1  0
  1 24  1  0
  1 25  1  0
  5 26  1  0
  7 27  1  0
  8 28  1  0
 11 29  1  0
 11 30  1  0
 12 31  1  0
 12 32  1  0
 14 33  1  0
 14 34  1  0
 15 35  1  0
 15 36  1  0
 16 37  1  0
 17 38  1  0
 17 39  1  0
 18 40  1  0
M  CHG  1  23  -1
M  END
>  <UniqueID>  (94) 
94

>  <SMILES>  (94) 
NC(=O)c1cc2ccc(N3CC[C@@](N)(CO)C3)cc2n1C(=O)[O-]

>  <Energy>  (94) 
84.95664652883744

>  <Genealogy>  (94) 
NC(=O)c1cc2ccc(N3CCC(N)(CO)C3)cc2n1C(=O)[O-] (protonated)
NC(=O)c1cc2ccc(N3CC[C@@](N)(CO)C3)cc2n1C(=O)[O-] (chirality)
NC(=O)c1cc2ccc(N3CC[C@@](N)(CO)C3)cc2n1C(=O)[O-] (3D coordinates assigned)
NC(=O)c1cc2ccc(N3CC[C@@](N)(CO)C3)cc2n1C(=O)[O-] (nonaromatic ring conformer: 84.95664652883744 kcal/mol)

>  <smiles>  (94) 
NC(=O)c1cc2ccc(N3CCC(N)(CO)C3)cc2n1C(=O)O

>  <score_type>  (94) 
oracle

>  <origin>  (94) 
adg

>  <m_score__min__energy>  (94) 
-7.5300000000000002

>  <m_primary>  (94) 
energy

$$$$
94:0
     RDKit          3D

 48 51  0  0  0  0  0  0  0  0999 V2000
  139.3870  157.2810  132.7340 C   0  0  0  0  0  0  0  0  0  0  0  0
  138.8880  158.5280  132.0760 C   0  0  0  0  0  0  0  0  0  0  0  0
  137.8530  158.5820  131.2690 O   0  0  0  0  0  0  0  0  0  0  0  0
  137.7490  159.8410  130.9020 C   0  0  0  0  0  0  0  0  0  0  0  0
  136.8580  160.2690  130.1220 O   0  0  0  0  0  0  0  0  0  0  0  0
  138.6750  160.6030  131.4390 O   0  0  0  0  0  0  0  0  0  0  0  0
  139.4100  159.8060  132.1820 C   0  0  0  0  0  0  0  0  0  0  0  0
  140.5970  160.2510  132.9810 C   0  0  0  0  0  0  0  0  0  0  0  0
  141.6910  159.3640  132.7670 O   0  0  0  0  0  0  0  0  0  0  0  0
  142.2620  158.5890  133.7820 C   0  0  0  0  0  0  0  0  0  0  0  0
  141.5960  158.3030  134.8150 O   0  0  0  0  0  0  0  0  0  0  0  0
  143.6030  158.0980  133.6360 N   0  0  0  0  0  0  0  0  0  0  0  0
  144.7550  158.8240  133.5880 C   0  0  0  0  0  0  0  0  0  0  0  0
  144.8760  160.2760  133.8370 C   0  0  0  0  0  0  0  0  0  0  0  0
  143.7070  161.0500  134.0970 N   0  0  0  0  0  0  0  0  0  0  0  0
  145.9970  160.8480  133.7870 O   0  0  0  0  0  0  0  0  0  0  0  0
  145.8460  157.9920  133.3440 C   0  0  0  0  0  0  0  0  0  0  0  0
  145.3230  156.7230  133.2470 C   0  0  0  0  0  0  0  0  0  0  0  0
  145.9580  155.5110  132.9970 C   0  0  0  0  0  0  0  0  0  0  0  0
  145.1640  154.3550  132.9200 C   0  0  0  0  0  0  0  0  0  0  0  0
  143.7560  154.4270  133.0860 C   0  0  0  0  0  0  0  0  0  0  0  0
  142.9270  153.1980  132.9950 C   0  0  0  0  0  0  0  0  0  0  0  0
  141.5240  153.2800  132.9610 C   0  0  0  0  0  0  0  0  0  0  0  0
  140.7470  152.1210  132.8780 C   0  0  0  0  0  0  0  0  0  0  0  0
  141.3530  150.8530  132.8200 C   0  0  0  0  0  0  0  0  0  0  0  0
  140.5130  149.6330  132.7370 C   0  0  0  0  0  0  0  0  0  0  0  0
  139.0840  149.7060  132.7320 N   0  0  0  0  0  0  0  0  0  0  0  0
  141.0640  148.4990  132.6830 O   0  0  0  0  0  0  0  0  0  0  0  0
  142.7560  150.7720  132.8670 C   0  0  0  0  0  0  0  0  0  0  0  0
  143.5340  151.9310  132.9510 C   0  0  0  0  0  0  0  0  0  0  0  0
  143.1490  155.6810  133.3360 C   0  0  0  0  0  0  0  0  0  0  0  0
  143.9670  156.8130  133.4260 C   0  0  0  0  0  0  0  0  0  0  0  0
  139.3398  157.3989  133.8266 H   0  0  0  0  0  0  0  0  0  0  0  0
  138.7602  156.4298  132.4296 H   0  0  0  0  0  0  0  0  0  0  0  0
  140.4279  157.0972  132.4296 H   0  0  0  0  0  0  0  0  0  0  0  0
  140.8852  161.2660  132.6700 H   0  0  0  0  0  0  0  0  0  0  0  0
  140.3341  160.2476  134.0491 H   0  0  0  0  0  0  0  0  0  0  0  0
  142.7690  160.5970  134.1850 H   0  0  0  0  0  0  0  0  0  0  0  0
  146.9014  158.2872  133.2491 H   0  0  0  0  0  0  0  0  0  0  0  0
  147.0487  155.4594  132.8637 H   0  0  0  0  0  0  0  0  0  0  0  0
  145.6392  153.3816  132.7287 H   0  0  0  0  0  0  0  0  0  0  0  0
  141.0338  154.2640  133.0000 H   0  0  0  0  0  0  0  0  0  0  0  0
  139.6501  152.2014  132.8578 H   0  0  0  0  0  0  0  0  0  0  0  0
  138.5200  148.8400  132.5820 H   0  0  0  0  0  0  0  0  0  0  0  0
  138.5770  150.5920  132.9450 H   0  0  0  0  0  0  0  0  0  0  0  0
  143.2462  149.7877  132.8374 H   0  0  0  0  0  0  0  0  0  0  0  0
  144.6306  151.8504  132.9829 H   0  0  0  0  0  0  0  0  0  0  0  0
  142.0588  155.7639  133.4568 H   0  0  0  0  0  0  0  0  0  0  0  0
  1  2  1  0
  2  3  1  0
  3  4  1  0
  4  5  2  0
  4  6  1  0
  6  7  1  0
  7  8  1  0
  8  9  1  0
  9 10  1  0
 10 11  2  0
 10 12  1  0
 12 13  1  0
 13 14  1  0
 14 15  1  0
 14 16  2  0
 13 17  2  0
 17 18  1  0
 18 19  2  0
 19 20  1  0
 20 21  2  0
 21 22  1  0
 22 23  2  0
 23 24  1  0
 24 25  2  0
 25 26  1  0
 26 27  1  0
 26 28  2  0
 25 29  1  0
 29 30  2  0
 21 31  1  0
 31 32  2  0
  7  2  2  0
 32 12  1  0
 32 18  1  0
 30 22  1  0
  1 33  1  0
  1 34  1  0
  1 35  1  0
  8 36  1  0
  8 37  1  0
 15 38  1  0
 17 39  1  0
 19 40  1  0
 20 41  1  0
 23 42  1  0
 24 43  1  0
 27 44  1  0
 27 45  1  0
 29 46  1  0
 30 47  1  0
 31 48  1  0
M  CHG  1  15  -1
M  END
>  <UniqueID>  (95) 
95

>  <SMILES>  (95) 
Cc1oc(=O)oc1COC(=O)n1c(C([NH-])=O)cc2ccc(-c3ccc(C(N)=O)cc3)cc21

>  <Energy>  (95) 
127.34311431410308

>  <Genealogy>  (95) 
Cc1oc(=O)oc1COC(=O)n1c(C([NH-])=O)cc2ccc(-c3ccc(C(N)=O)cc3)cc21 (protonated)
Cc1oc(=O)oc1COC(=O)n1c(C([NH-])=O)cc2ccc(-c3ccc(C(N)=O)cc3)cc21 (3D coordinates assigned)
Cc1oc(=O)oc1COC(=O)n1c(C([NH-])=O)cc2ccc(-c3ccc(C(N)=O)cc3)cc21 (optimized conformer: 127.34311431410308 kcal/mol)

>  <smiles>  (95) 
Cc1oc(=O)oc1COC(=O)n1c(C(N)=O)cc2ccc(-c3ccc(C(N)=O)cc3)cc21

>  <score_type>  (95) 
oracle

>  <origin>  (95) 
adg

>  <m_score__min__energy>  (95) 
-9.1099999999999994

>  <m_primary>  (95) 
energy

$$$$
95:0
     RDKit          3D

 40 42  0  0  0  0  0  0  0  0999 V2000
  147.7610  154.4320  133.2710 C   0  0  0  0  0  0  0  0  0  0  0  0
  148.4850  155.7400  132.9800 C   0  0  0  0  0  0  0  0  0  0  0  0
  148.0150  156.8220  133.9090 C   0  0  0  0  0  0  0  0  0  0  0  0
  148.6220  157.0150  134.9970 O   0  0  0  0  0  0  0  0  0  0  0  0
  146.9120  157.6690  133.5490 N   0  0  0  0  0  0  0  0  0  0  0  0
  146.9700  158.8990  132.9670 C   0  0  0  0  0  0  0  0  0  0  0  0
  148.2070  159.5630  132.4960 C   0  0  0  0  0  0  0  0  0  0  0  0
  149.4910  159.1440  132.9630 N   0  0  0  0  0  0  0  0  0  0  0  0
  148.1380  160.5220  131.6820 O   0  0  0  0  0  0  0  0  0  0  0  0
  145.6860  159.4240  132.8200 C   0  0  0  0  0  0  0  0  0  0  0  0
  144.8390  158.4730  133.3440 C   0  0  0  0  0  0  0  0  0  0  0  0
  143.4540  158.4790  133.4740 C   0  0  0  0  0  0  0  0  0  0  0  0
  142.8430  157.3720  134.0860 C   0  0  0  0  0  0  0  0  0  0  0  0
  143.6240  156.2890  134.5690 C   0  0  0  0  0  0  0  0  0  0  0  0
  142.9740  155.1240  135.2190 C   0  0  0  0  0  0  0  0  0  0  0  0
  142.5470  155.2160  136.5540 C   0  0  0  0  0  0  0  0  0  0  0  0
  141.9390  154.1260  137.1820 C   0  0  0  0  0  0  0  0  0  0  0  0
  141.7390  152.9220  136.4860 C   0  0  0  0  0  0  0  0  0  0  0  0
  141.0930  151.7710  137.1530 C   0  0  0  0  0  0  0  0  0  0  0  0
  140.9720  151.7420  138.4070 O   0  0  0  0  0  0  0  0  0  0  0  0
  140.6100  150.7030  136.4050 O   0  0  0  0  0  0  0  0  0  0  0  0
  142.1590  152.8320  135.1470 C   0  0  0  0  0  0  0  0  0  0  0  0
  142.7700  153.9210  134.5170 C   0  0  0  0  0  0  0  0  0  0  0  0
  143.1260  153.8090  133.2120 F   0  0  0  0  0  0  0  0  0  0  0  0
  145.0290  156.3210  134.4150 C   0  0  0  0  0  0  0  0  0  0  0  0
  145.6040  157.4260  133.7820 C   0  0  0  0  0  0  0  0  0  0  0  0
  147.6827  154.2905  134.3590 H   0  0  0  0  0  0  0  0  0  0  0  0
  146.7529  154.4654  132.8321 H   0  0  0  0  0  0  0  0  0  0  0  0
  148.3245  153.5955  132.8321 H   0  0  0  0  0  0  0  0  0  0  0  0
  149.5667  155.5923  133.1149 H   0  0  0  0  0  0  0  0  0  0  0  0
  148.2685  156.0425  131.9448 H   0  0  0  0  0  0  0  0  0  0  0  0
  149.6030  158.3130  133.5840 H   0  0  0  0  0  0  0  0  0  0  0  0
  150.3510  159.6460  132.6490 H   0  0  0  0  0  0  0  0  0  0  0  0
  145.4087  160.3927  132.3788 H   0  0  0  0  0  0  0  0  0  0  0  0
  142.8548  159.3259  133.1083 H   0  0  0  0  0  0  0  0  0  0  0  0
  141.7485  157.3439  134.1921 H   0  0  0  0  0  0  0  0  0  0  0  0
  142.6925  156.1541  137.1097 H   0  0  0  0  0  0  0  0  0  0  0  0
  141.6144  154.2112  138.2296 H   0  0  0  0  0  0  0  0  0  0  0  0
  142.0055  151.8961  134.5897 H   0  0  0  0  0  0  0  0  0  0  0  0
  145.6548  155.4954  134.7848 H   0  0  0  0  0  0  0  0  0  0  0  0
  1  2  1  0
  2  3  1  0
  3  4  2  0
  3  5  1  0
  5  6  1  0
  6  7  1  0
  7  8  1  0
  7  9  2  0
  6 10  2  0
 10 11  1  0
 11 12  2  0
 12 13  1  0
 13 14  2  0
 14 15  1  0
 15 16  2  0
 16 17  1  0
 17 18  2  0
 18 19  1  0
 19 20  2  0
 19 21  1  0
 18 22  1  0
 22 23  2  0
 23 24  1  0
 14 25  1  0
 25 26  2  0
 26  5  1  0
 26 11  1  0
 23 15  1  0
  1 27  1  0
  1 28  1  0
  1 29  1  0
  2 30  1  0
  2 31  1  0
  8 32  1  0
  8 33  1  0
 10 34  1  0
 12 35  1  0
 13 36  1  0
 16 37  1  0
 17 38  1  0
 22 39  1  0
 25 40  1  0
M  CHG  1  21  -1
M  END
>  <UniqueID>  (96) 
96

>  <SMILES>  (96) 
CCC(=O)n1c(C(N)=O)cc2ccc(-c3ccc(C(=O)[O-])cc3F)cc21

>  <Energy>  (96) 
85.1703315596623

>  <Genealogy>  (96) 
CCC(=O)n1c(C(N)=O)cc2ccc(-c3ccc(C(=O)[O-])cc3F)cc21 (protonated)
CCC(=O)n1c(C(N)=O)cc2ccc(-c3ccc(C(=O)[O-])cc3F)cc21 (3D coordinates assigned)
CCC(=O)n1c(C(N)=O)cc2ccc(-c3ccc(C(=O)[O-])cc3F)cc21 (optimized conformer: 85.1703315596623 kcal/mol)

>  <smiles>  (96) 
CCC(=O)n1c(C(N)=O)cc2ccc(-c3ccc(C(=O)O)cc3F)cc21

>  <score_type>  (96) 
oracle

>  <origin>  (96) 
adg

>  <m_score__min__energy>  (96) 
-8.0999999999999996

>  <m_primary>  (96) 
energy

$$$$
96:0
     RDKit          3D

 65 66  0  0  0  0  0  0  0  0999 V2000
  139.2530  147.3600  130.4240 C   0  0  0  0  0  0  0  0  0  0  0  0
  139.0870  148.8890  130.5100 C   0  0  0  0  0  0  0  0  0  0  0  0
  137.5950  149.2330  130.3870 C   0  0  0  0  0  0  0  0  0  0  0  0
  139.8570  149.5850  129.3720 C   0  0  0  0  0  0  0  0  0  0  0  0
  139.5270  149.3730  131.7880 O   0  0  0  0  0  0  0  0  0  0  0  0
  139.6050  150.7160  132.1850 C   0  0  0  0  0  0  0  0  0  0  0  0
  138.5750  151.4420  132.2160 O   0  0  0  0  0  0  0  0  0  0  0  0
  140.8760  151.2620  132.5740 N   0  0  0  0  0  0  0  0  0  0  0  0
  142.0550  150.5930  132.7150 C   0  0  0  0  0  0  0  0  0  0  0  0
  142.2910  149.1810  132.3360 C   0  0  0  0  0  0  0  0  0  0  0  0
  141.4380  148.1430  132.8250 N   0  0  0  0  0  0  0  0  0  0  0  0
  143.2670  148.8790  131.5980 O   0  0  0  0  0  0  0  0  0  0  0  0
  143.0490  151.4470  133.1880 C   0  0  0  0  0  0  0  0  0  0  0  0
  142.4370  152.6720  133.3320 C   0  0  0  0  0  0  0  0  0  0  0  0
  142.9550  153.8830  133.7810 C   0  0  0  0  0  0  0  0  0  0  0  0
  142.0900  154.9880  133.8370 C   0  0  0  0  0  0  0  0  0  0  0  0
  140.7350  154.8690  133.4470 C   0  0  0  0  0  0  0  0  0  0  0  0
  139.8910  156.0360  133.4810 N   0  0  0  0  0  0  0  0  0  0  0  0
  139.2600  156.6310  132.2990 C   0  0  0  0  0  0  0  0  0  0  0  0
  139.4410  158.1500  132.2890 C   0  0  0  0  0  0  0  0  0  0  0  0
  139.3440  158.6430  133.6030 O   0  0  0  0  0  0  0  0  0  0  0  0
  140.9140  158.9690  134.2670 Si  0  0  0  0  0  4  0  0  0  0  0  0
  141.3850  160.7820  134.1380 C   0  0  0  0  0  0  0  0  0  0  0  0
  142.1860  157.9680  133.3270 C   0  0  0  0  0  0  0  0  0  0  0  0
  140.8640  158.4410  136.0940 C   0  0  0  0  0  0  0  0  0  0  0  0
  139.4960  157.8110  136.4030 C   0  0  0  0  0  0  0  0  0  0  0  0
  141.0610  159.6840  136.9790 C   0  0  0  0  0  0  0  0  0  0  0  0
  141.9770  157.4200  136.3820 C   0  0  0  0  0  0  0  0  0  0  0  0
  140.2380  153.6130  133.0230 C   0  0  0  0  0  0  0  0  0  0  0  0
  141.1270  152.5340  132.9550 C   0  0  0  0  0  0  0  0  0  0  0  0
  139.2988  146.9385  131.4390 H   0  0  0  0  0  0  0  0  0  0  0  0
  138.3965  146.9279  129.8858 H   0  0  0  0  0  0  0  0  0  0  0  0
  140.1823  147.1218  129.8858 H   0  0  0  0  0  0  0  0  0  0  0  0
  137.1579  149.3338  131.3914 H   0  0  0  0  0  0  0  0  0  0  0  0
  137.4811  150.1810  129.8408 H   0  0  0  0  0  0  0  0  0  0  0  0
  137.0775  148.4306  129.8408 H   0  0  0  0  0  0  0  0  0  0  0  0
  140.6087  150.2645  129.8000 H   0  0  0  0  0  0  0  0  0  0  0  0
  140.3583  148.8275  128.7516 H   0  0  0  0  0  0  0  0  0  0  0  0
  139.1538  150.1601  128.7516 H   0  0  0  0  0  0  0  0  0  0  0  0
  140.5860  148.3590  133.3880 H   0  0  0  0  0  0  0  0  0  0  0  0
  141.6410  147.1470  132.5890 H   0  0  0  0  0  0  0  0  0  0  0  0
  144.0986  151.1962  133.4010 H   0  0  0  0  0  0  0  0  0  0  0  0
  144.0091  153.9720  134.0827 H   0  0  0  0  0  0  0  0  0  0  0  0
  142.4707  155.9583  134.1885 H   0  0  0  0  0  0  0  0  0  0  0  0
  139.8140  156.5640  134.3790 H   0  0  0  0  0  0  0  0  0  0  0  0
  139.7199  156.2077  131.3939 H   0  0  0  0  0  0  0  0  0  0  0  0
  138.1836  156.4058  132.3248 H   0  0  0  0  0  0  0  0  0  0  0  0
  140.4299  158.3986  131.8763 H   0  0  0  0  0  0  0  0  0  0  0  0
  138.6580  158.6082  131.6670 H   0  0  0  0  0  0  0  0  0  0  0  0
  141.4949  161.2050  135.1475 H   0  0  0  0  0  0  0  0  0  0  0  0
  142.3373  160.8757  133.5955 H   0  0  0  0  0  0  0  0  0  0  0  0
  140.5987  161.3274  133.5955 H   0  0  0  0  0  0  0  0  0  0  0  0
  142.8445  157.4498  134.0397 H   0  0  0  0  0  0  0  0  0  0  0  0
  141.6751  157.2272  132.6944 H   0  0  0  0  0  0  0  0  0  0  0  0
  142.7860  158.6388  132.6944 H   0  0  0  0  0  0  0  0  0  0  0  0
  139.3591  157.7480  137.4926 H   0  0  0  0  0  0  0  0  0  0  0  0
  138.6994  158.4330  135.9687 H   0  0  0  0  0  0  0  0  0  0  0  0
  139.4508  156.8014  135.9687 H   0  0  0  0  0  0  0  0  0  0  0  0
  141.0146  159.3910  138.0383 H   0  0  0  0  0  0  0  0  0  0  0  0
  142.0417  160.1343  136.7658 H   0  0  0  0  0  0  0  0  0  0  0  0
  140.2676  160.4154  136.7658 H   0  0  0  0  0  0  0  0  0  0  0  0
  142.0993  157.3078  137.4694 H   0  0  0  0  0  0  0  0  0  0  0  0
  141.7069  156.4490  135.9413 H   0  0  0  0  0  0  0  0  0  0  0  0
  142.9211  157.7727  135.9413 H   0  0  0  0  0  0  0  0  0  0  0  0
  139.1789  153.4881  132.7535 H   0  0  0  0  0  0  0  0  0  0  0  0
  1  2  1  0
  2  3  1  0
  2  4  1  0
  2  5  1  0
  5  6  1  0
  6  7  2  0
  6  8  1  0
  8  9  1  0
  9 10  1  0
 10 11  1  0
 10 12  2  0
  9 13  2  0
 13 14  1  0
 14 15  2  0
 15 16  1  0
 16 17  2  0
 17 18  1  0
 18 19  1  0
 19 20  1  0
 20 21  1  0
 21 22  1  0
 22 23  1  0
 22 24  1  0
 22 25  1  0
 25 26  1  0
 25 27  1  0
 25 28  1  0
 17 29  1  0
 29 30  2  0
 30  8  1  0
 30 14  1  0
  1 31  1  0
  1 32  1  0
  1 33  1  0
  3 34  1  0
  3 35  1  0
  3 36  1  0
  4 37  1  0
  4 38  1  0
  4 39  1  0
 11 40  1  0
 11 41  1  0
 13 42  1  0
 15 43  1  0
 16 44  1  0
 18 45  1  0
 19 46  1  0
 19 47  1  0
 20 48  1  0
 20 49  1  0
 23 50  1  0
 23 51  1  0
 23 52  1  0
 24 53  1  0
 24 54  1  0
 24 55  1  0
 26 56  1  0
 26 57  1  0
 26 58  1  0
 27 59  1  0
 27 60  1  0
 27 61  1  0
 28 62  1  0
 28 63  1  0
 28 64  1  0
 29 65  1  0
M  END
>  <UniqueID>  (97) 
97

>  <SMILES>  (97) 
CC(C)(C)OC(=O)n1c(C(N)=O)cc2ccc(NCCO[Si](C)(C)C(C)(C)C)cc21

>  <Energy>  (97) 
74.46020077075522

>  <Genealogy>  (97) 
CC(C)(C)OC(=O)n1c(C(N)=O)cc2ccc(NCCO[Si](C)(C)C(C)(C)C)cc21 (3D coordinates assigned)
CC(C)(C)OC(=O)n1c(C(N)=O)cc2ccc(NCCO[Si](C)(C)C(C)(C)C)cc21 (optimized conformer: 74.46020077075522 kcal/mol)

>  <smiles>  (97) 
CC(C)(C)OC(=O)n1c(C(N)=O)cc2ccc(NCCO[Si](C)(C)C(C)(C)C)cc21

>  <score_type>  (97) 
oracle

>  <origin>  (97) 
adg

>  <m_score__min__energy>  (97) 
-8.9100000000000001

>  <m_primary>  (97) 
energy

$$$$
97:0
     RDKit          3D

 39 40  0  0  0  0  0  0  0  0999 V2000
  151.4710  149.2080  129.2470 C   0  0  0  0  0  0  0  0  0  0  0  0
  150.4070  150.0470  129.6320 O   0  0  0  0  0  0  0  0  0  0  0  0
  150.4840  150.2970  131.0210 C   0  0  0  0  0  0  0  0  0  0  0  0
  149.2390  151.0600  131.4800 C   0  0  0  0  0  0  0  0  0  0  0  0
  149.5550  152.1190  132.5390 C   0  0  0  0  0  0  0  0  0  0  0  0
  148.6440  153.2070  132.4300 O   0  0  0  0  0  0  0  0  0  0  0  0
  149.0320  154.5430  132.5610 C   0  0  0  0  0  0  0  0  0  0  0  0
  150.2000  154.8970  132.2410 O   0  0  0  0  0  0  0  0  0  0  0  0
  148.0930  155.5090  133.0650 N   0  0  0  0  0  0  0  0  0  0  0  0
  147.0350  155.2710  133.8900 C   0  0  0  0  0  0  0  0  0  0  0  0
  146.5340  153.9420  134.2950 C   0  0  0  0  0  0  0  0  0  0  0  0
  146.3530  152.8980  133.3380 N   0  0  0  0  0  0  0  0  0  0  0  0
  146.2060  153.7430  135.4950 O   0  0  0  0  0  0  0  0  0  0  0  0
  146.4370  156.4640  134.2850 C   0  0  0  0  0  0  0  0  0  0  0  0
  147.1600  157.4550  133.6630 C   0  0  0  0  0  0  0  0  0  0  0  0
  147.0060  158.8370  133.7150 C   0  0  0  0  0  0  0  0  0  0  0  0
  147.9200  159.6280  133.0000 C   0  0  0  0  0  0  0  0  0  0  0  0
  148.9760  159.0290  132.2690 C   0  0  0  0  0  0  0  0  0  0  0  0
  149.9330  159.8850  131.4930 C   0  0  0  0  0  0  0  0  0  0  0  0
  149.3020  160.1560  129.8520 Cl  0  0  0  0  0  0  0  0  0  0  0  0
  149.0950  157.6220  132.2300 C   0  0  0  0  0  0  0  0  0  0  0  0
  148.1570  156.8550  132.9350 C   0  0  0  0  0  0  0  0  0  0  0  0
  151.9705  148.8141  130.1444 H   0  0  0  0  0  0  0  0  0  0  0  0
  151.0805  148.3721  128.6480 H   0  0  0  0  0  0  0  0  0  0  0  0
  152.1928  149.7826  128.6480 H   0  0  0  0  0  0  0  0  0  0  0  0
  150.5462  149.3409  131.5613 H   0  0  0  0  0  0  0  0  0  0  0  0
  151.3787  150.9009  131.2324 H   0  0  0  0  0  0  0  0  0  0  0  0
  148.7890  151.5571  130.6080 H   0  0  0  0  0  0  0  0  0  0  0  0
  148.5497  150.3317  131.9323 H   0  0  0  0  0  0  0  0  0  0  0  0
  149.4677  151.6703  133.5395 H   0  0  0  0  0  0  0  0  0  0  0  0
  150.5788  152.4898  132.3830 H   0  0  0  0  0  0  0  0  0  0  0  0
  146.0380  151.9520  133.6480 H   0  0  0  0  0  0  0  0  0  0  0  0
  146.4670  153.0780  132.3160 H   0  0  0  0  0  0  0  0  0  0  0  0
  145.5712  156.5879  134.9521 H   0  0  0  0  0  0  0  0  0  0  0  0
  146.1937  159.2956  134.2980 H   0  0  0  0  0  0  0  0  0  0  0  0
  147.8152  160.7230  133.0075 H   0  0  0  0  0  0  0  0  0  0  0  0
  150.0537  160.8524  132.0025 H   0  0  0  0  0  0  0  0  0  0  0  0
  150.9063  159.3765  131.4291 H   0  0  0  0  0  0  0  0  0  0  0  0
  149.9035  157.1402  131.6606 H   0  0  0  0  0  0  0  0  0  0  0  0
  1  2  1  0
  2  3  1  0
  3  4  1  0
  4  5  1  0
  5  6  1  0
  6  7  1  0
  7  8  2  0
  7  9  1  0
  9 10  1  0
 10 11  1  0
 11 12  1  0
 11 13  2  0
 10 14  2  0
 14 15  1  0
 15 16  2  0
 16 17  1  0
 17 18  2  0
 18 19  1  0
 19 20  1  0
 18 21  1  0
 21 22  2  0
 22  9  1  0
 22 15  1  0
  1 23  1  0
  1 24  1  0
  1 25  1  0
  3 26  1  0
  3 27  1  0
  4 28  1  0
  4 29  1  0
  5 30  1  0
  5 31  1  0
 12 32  1  0
 12 33  1  0
 14 34  1  0
 16 35  1  0
 17 36  1  0
 19 37  1  0
 19 38  1  0
 21 39  1  0
M  END
>  <UniqueID>  (98) 
98

>  <SMILES>  (98) 
COCCCOC(=O)n1c(C(N)=O)cc2ccc(CCl)cc21

>  <Energy>  (98) 
71.05882357682947

>  <Genealogy>  (98) 
COCCCOC(=O)n1c(C(N)=O)cc2ccc(CCl)cc21 (3D coordinates assigned)
COCCCOC(=O)n1c(C(N)=O)cc2ccc(CCl)cc21 (optimized conformer: 71.05882357682947 kcal/mol)

>  <smiles>  (98) 
COCCCOC(=O)n1c(C(N)=O)cc2ccc(CCl)cc21

>  <score_type>  (98) 
oracle

>  <origin>  (98) 
adg

>  <m_score__min__energy>  (98) 
-7.2300000000000004

>  <m_primary>  (98) 
energy

$$$$
98:0
     RDKit          3D

 44 46  0  0  0  0  0  0  0  0999 V2000
  146.1930  155.6310  132.5760 C   0  0  0  0  0  0  0  0  0  0  0  0
  147.3110  155.5500  133.6280 C   0  0  0  0  0  0  0  0  0  0  0  0
  148.6570  155.2450  132.9470 C   0  0  0  0  0  0  0  0  0  0  0  0
  146.9840  154.4160  134.6130 C   0  0  0  0  0  0  0  0  0  0  0  0
  147.4070  157.1090  134.6150 S   0  0  0  0  0  0  0  0  0  0  0  0
  147.9440  158.2520  133.3210 C   0  0  0  0  0  0  0  0  0  0  0  0
  149.2200  158.1530  132.8500 N   0  0  0  0  0  0  0  0  0  0  0  0
  149.6860  158.9590  131.8590 C   0  0  0  0  0  0  0  0  0  0  0  0
  148.8620  159.9340  131.3040 C   0  0  0  0  0  0  0  0  0  0  0  0
  147.5630  160.0860  131.7860 C   0  0  0  0  0  0  0  0  0  0  0  0
  147.0900  159.2610  132.8170 C   0  0  0  0  0  0  0  0  0  0  0  0
  145.7220  159.4770  133.3410 C   0  0  0  0  0  0  0  0  0  0  0  0
  145.2490  160.7900  133.5900 C   0  0  0  0  0  0  0  0  0  0  0  0
  143.9480  161.0020  134.0750 C   0  0  0  0  0  0  0  0  0  0  0  0
  143.1460  159.8870  134.3000 C   0  0  0  0  0  0  0  0  0  0  0  0
  141.8470  159.8080  134.7450 C   0  0  0  0  0  0  0  0  0  0  0  0
  141.5480  158.4470  134.7730 C   0  0  0  0  0  0  0  0  0  0  0  0
  140.2670  157.9090  135.2780 C   0  0  0  0  0  0  0  0  0  0  0  0
  139.8770  158.0980  136.6350 N   0  0  0  0  0  0  0  0  0  0  0  0
  139.4860  157.3160  134.4870 O   0  0  0  0  0  0  0  0  0  0  0  0
  142.6170  157.7140  134.3510 N   0  0  0  0  0  0  0  0  0  0  0  0
  142.6910  156.2920  134.1580 C   0  0  0  0  0  0  0  0  0  0  0  0
  141.8770  155.7100  133.3930 O   0  0  0  0  0  0  0  0  0  0  0  0
  143.6770  155.5480  134.7950 O   0  0  0  0  0  0  0  0  0  0  0  0
  143.5880  158.6100  134.0690 C   0  0  0  0  0  0  0  0  0  0  0  0
  144.8700  158.3720  133.5610 C   0  0  0  0  0  0  0  0  0  0  0  0
  145.2185  155.7016  133.0813 H   0  0  0  0  0  0  0  0  0  0  0  0
  146.3452  156.5205  131.9470 H   0  0  0  0  0  0  0  0  0  0  0  0
  146.2154  154.7289  131.9470 H   0  0  0  0  0  0  0  0  0  0  0  0
  149.4252  155.0709  133.7148 H   0  0  0  0  0  0  0  0  0  0  0  0
  148.5554  154.3471  132.3197 H   0  0  0  0  0  0  0  0  0  0  0  0
  148.9524  156.0990  132.3197 H   0  0  0  0  0  0  0  0  0  0  0  0
  147.0901  154.7840  135.6442 H   0  0  0  0  0  0  0  0  0  0  0  0
  145.9510  154.0751  134.4498 H   0  0  0  0  0  0  0  0  0  0  0  0
  147.6769  153.5774  134.4498 H   0  0  0  0  0  0  0  0  0  0  0  0
  149.8610  157.4300  133.2500 H   0  0  0  0  0  0  0  0  0  0  0  0
  150.7171  158.8402  131.4948 H   0  0  0  0  0  0  0  0  0  0  0  0
  149.2324  160.5782  130.4930 H   0  0  0  0  0  0  0  0  0  0  0  0
  146.9060  160.8563  131.3559 H   0  0  0  0  0  0  0  0  0  0  0  0
  145.9072  161.6510  133.4016 H   0  0  0  0  0  0  0  0  0  0  0  0
  143.5745  162.0179  134.2710 H   0  0  0  0  0  0  0  0  0  0  0  0
  141.1847  160.6420  135.0203 H   0  0  0  0  0  0  0  0  0  0  0  0
  139.4620  159.0020  136.9530 H   0  0  0  0  0  0  0  0  0  0  0  0
  145.2063  157.3486  133.3383 H   0  0  0  0  0  0  0  0  0  0  0  0
  1  2  1  0
  2  3  1  0
  2  4  1  0
  2  5  1  0
  5  6  1  0
  6  7  2  0
  7  8  1  0
  8  9  2  0
  9 10  1  0
 10 11  2  0
 11 12  1  0
 12 13  2  0
 13 14  1  0
 14 15  2  0
 15 16  1  0
 16 17  2  0
 17 18  1  0
 18 19  1  0
 18 20  2  0
 17 21  1  0
 21 22  1  0
 22 23  2  0
 22 24  1  0
 21 25  1  0
 25 26  2  0
 11  6  1  0
 26 12  1  0
 25 15  1  0
  1 27  1  0
  1 28  1  0
  1 29  1  0
  3 30  1  0
  3 31  1  0
  3 32  1  0
  4 33  1  0
  4 34  1  0
  4 35  1  0
  7 36  1  0
  8 37  1  0
  9 38  1  0
 10 39  1  0
 13 40  1  0
 14 41  1  0
 16 42  1  0
 19 43  1  0
 26 44  1  0
M  CHG  3   7   1  19  -1  24  -1
M  END
>  <UniqueID>  (99) 
99

>  <SMILES>  (99) 
CC(C)(C)Sc1[nH+]cccc1-c1ccc2cc(C([NH-])=O)n(C(=O)[O-])c2c1

>  <Energy>  (99) 
85.44536480013032

>  <Genealogy>  (99) 
CC(C)(C)Sc1[nH+]cccc1-c1ccc2cc(C([NH-])=O)n(C(=O)[O-])c2c1 (protonated)
CC(C)(C)Sc1[nH+]cccc1-c1ccc2cc(C([NH-])=O)n(C(=O)[O-])c2c1 (3D coordinates assigned)
CC(C)(C)Sc1[nH+]cccc1-c1ccc2cc(C([NH-])=O)n(C(=O)[O-])c2c1 (optimized conformer: 85.44536480013032 kcal/mol)

>  <smiles>  (99) 
CC(C)(C)Sc1ncccc1-c1ccc2cc(C(N)=O)n(C(=O)O)c2c1

>  <score_type>  (99) 
oracle

>  <origin>  (99) 
adg

>  <m_score__min__energy>  (99) 
-8.2599999999999998

>  <m_primary>  (99) 
energy

$$$$
