0:0
     RDKit          3D

 51 52  0  0  0  0  0  0  0  0999 V2000
  139.1230  159.6240  131.6420 C   0  0  0  0  0  0  0  0  0  0  0  0
  139.5980  159.1450  132.9560 N   0  0  0  0  0  0  0  0  0  0  0  0
  138.8160  157.9630  133.3730 C   0  0  0  0  0  0  0  0  0  0  0  0
  138.7560  157.8640  134.7570 F   0  0  0  0  0  0  0  0  0  0  0  0
  141.0390  158.8150  132.9190 C   0  0  0  0  0  0  0  0  0  0  0  0
  141.7320  159.1820  134.2390 C   0  0  0  0  0  0  0  0  0  0  0  0
  143.2070  159.3760  134.0170 C   0  0  0  0  0  0  0  0  0  0  0  0
  143.7560  160.6830  134.0080 C   0  0  0  0  0  0  0  0  0  0  0  0
  145.1130  160.8860  133.7030 C   0  0  0  0  0  0  0  0  0  0  0  0
  145.8900  159.7690  133.4110 C   0  0  0  0  0  0  0  0  0  0  0  0
  147.2130  159.6790  133.0420 C   0  0  0  0  0  0  0  0  0  0  0  0
  147.4520  158.3200  132.8510 C   0  0  0  0  0  0  0  0  0  0  0  0
  148.7850  157.7630  132.5410 C   0  0  0  0  0  0  0  0  0  0  0  0
  148.9700  156.3500  132.5030 N   0  0  0  0  0  0  0  0  0  0  0  0
  149.7490  158.5220  132.2610 O   0  0  0  0  0  0  0  0  0  0  0  0
  146.3200  157.5980  133.0840 N   0  0  0  0  0  0  0  0  0  0  0  0
  146.1480  156.1740  133.0090 C   0  0  0  0  0  0  0  0  0  0  0  0
  146.2230  155.5940  131.8940 O   0  0  0  0  0  0  0  0  0  0  0  0
  145.8600  155.3750  134.2120 C   0  0  0  0  0  0  0  0  0  0  0  0
  146.7250  154.5290  134.7890 C   0  0  0  0  0  0  0  0  0  0  0  0
  148.0860  154.1690  134.2270 C   0  0  0  0  0  0  0  0  0  0  0  0
  148.0400  153.6870  132.8260 N   0  0  0  0  0  0  0  0  0  0  0  0
  149.3450  153.1660  132.3840 C   0  0  0  0  0  0  0  0  0  0  0  0
  146.9750  152.6950  132.6080 C   0  0  0  0  0  0  0  0  0  0  0  0
  145.3760  158.4980  133.4330 C   0  0  0  0  0  0  0  0  0  0  0  0
  144.0270  158.2660  133.7190 C   0  0  0  0  0  0  0  0  0  0  0  0
  138.3554  160.3980  131.7895 H   0  0  0  0  0  0  0  0  0  0  0  0
  139.9676  160.0478  131.0790 H   0  0  0  0  0  0  0  0  0  0  0  0
  138.6922  158.7829  131.0790 H   0  0  0  0  0  0  0  0  0  0  0  0
  137.7943  158.0498  132.9747 H   0  0  0  0  0  0  0  0  0  0  0  0
  139.3098  157.0620  132.9801 H   0  0  0  0  0  0  0  0  0  0  0  0
  141.1545  157.7354  132.7423 H   0  0  0  0  0  0  0  0  0  0  0  0
  141.5063  159.3953  132.1097 H   0  0  0  0  0  0  0  0  0  0  0  0
  141.2980  160.1141  134.6299 H   0  0  0  0  0  0  0  0  0  0  0  0
  141.5828  158.3656  134.9609 H   0  0  0  0  0  0  0  0  0  0  0  0
  143.1146  161.5456  134.2417 H   0  0  0  0  0  0  0  0  0  0  0  0
  145.5474  161.8966  133.6954 H   0  0  0  0  0  0  0  0  0  0  0  0
  147.9296  160.5050  132.9232 H   0  0  0  0  0  0  0  0  0  0  0  0
  148.3890  155.7500  131.8770 H   0  0  0  0  0  0  0  0  0  0  0  0
  144.8651  155.4798  134.6693 H   0  0  0  0  0  0  0  0  0  0  0  0
  146.4255  154.0623  135.7390 H   0  0  0  0  0  0  0  0  0  0  0  0
  148.7262  155.0626  134.2667 H   0  0  0  0  0  0  0  0  0  0  0  0
  148.4805  153.3447  134.8393 H   0  0  0  0  0  0  0  0  0  0  0  0
  147.8170  154.5160  132.2250 H   0  0  0  0  0  0  0  0  0  0  0  0
  149.9588  152.9209  133.2633 H   0  0  0  0  0  0  0  0  0  0  0  0
  149.1923  152.2599  131.7793 H   0  0  0  0  0  0  0  0  0  0  0  0
  149.8583  153.9281  131.7793 H   0  0  0  0  0  0  0  0  0  0  0  0
  146.5972  152.3431  133.5793 H   0  0  0  0  0  0  0  0  0  0  0  0
  146.1537  153.1574  132.0409 H   0  0  0  0  0  0  0  0  0  0  0  0
  147.3780  151.8430  132.0409 H   0  0  0  0  0  0  0  0  0  0  0  0
  143.6156  157.2458  133.7120 H   0  0  0  0  0  0  0  0  0  0  0  0
  1  2  1  0
  2  3  1  0
  3  4  1  0
  2  5  1  0
  5  6  1  0
  6  7  1  0
  7  8  2  0
  8  9  1  0
  9 10  2  0
 10 11  1  0
 11 12  2  0
 12 13  1  0
 13 14  1  0
 13 15  2  0
 12 16  1  0
 16 17  1  0
 17 18  2  0
 17 19  1  0
 19 20  2  3
 20 21  1  0
 21 22  1  0
 22 23  1  0
 22 24  1  0
 16 25  1  0
 25 26  2  0
 26  7  1  0
 25 10  1  0
  1 27  1  0
  1 28  1  0
  1 29  1  0
  3 30  1  0
  3 31  1  0
  5 32  1  0
  5 33  1  0
  6 34  1  0
  6 35  1  0
  8 36  1  0
  9 37  1  0
 11 38  1  0
 14 39  1  0
 19 40  1  0
 20 41  1  0
 21 42  1  0
 21 43  1  0
 22 44  1  0
 23 45  1  0
 23 46  1  0
 23 47  1  0
 24 48  1  0
 24 49  1  0
 24 50  1  0
 26 51  1  0
M  CHG  2  14  -1  22   1
M  END
>  <UniqueID>  (1) 
1

>  <SMILES>  (1) 
CN(CF)CCc1ccc2cc(C([NH-])=O)n(C(=O)C=CC[NH+](C)C)c2c1

>  <Energy>  (1) 
95.27347235607479

>  <Genealogy>  (1) 
CN(CF)CCc1ccc2cc(C([NH-])=O)n(C(=O)C=CC[NH+](C)C)c2c1 (protonated)
CN(CF)CCc1ccc2cc(C([NH-])=O)n(C(=O)C=CC[NH+](C)C)c2c1 (3D coordinates assigned)
CN(CF)CCc1ccc2cc(C([NH-])=O)n(C(=O)C=CC[NH+](C)C)c2c1 (optimized conformer: 95.27347235607479 kcal/mol)

>  <smiles>  (1) 
CN(C)CC=CC(=O)n1c(C(N)=O)cc2ccc(CCN(C)CF)cc21

>  <score_type>  (1) 
oracle

>  <origin>  (1) 
adg

>  <m_score__min__energy>  (1) 
-5.9400000000000004

>  <m_primary>  (1) 
energy

$$$$
1:0
     RDKit          3D

 50 52  0  0  0  0  0  0  0  0999 V2000
  148.1680  153.8740  137.1300 C   0  0  0  0  0  0  0  0  0  0  0  0
  147.2790  153.3850  136.1330 O   0  0  0  0  0  0  0  0  0  0  0  0
  146.5000  154.2310  135.3400 C   0  0  0  0  0  0  0  0  0  0  0  0
  145.8820  155.2050  135.8490 O   0  0  0  0  0  0  0  0  0  0  0  0
  146.4580  154.0160  133.8570 C   0  0  0  0  0  0  0  0  0  0  0  0
  147.5980  154.7590  133.1500 C   0  0  0  0  0  0  0  0  0  0  0  0
  147.3810  156.2500  133.1610 C   0  0  0  0  0  0  0  0  0  0  0  0
  148.4850  157.1300  133.0390 C   0  0  0  0  0  0  0  0  0  0  0  0
  148.3030  158.5210  133.1140 C   0  0  0  0  0  0  0  0  0  0  0  0
  147.0120  159.0000  133.3200 C   0  0  0  0  0  0  0  0  0  0  0  0
  146.5630  160.2910  133.4790 C   0  0  0  0  0  0  0  0  0  0  0  0
  145.1910  160.1810  133.6920 C   0  0  0  0  0  0  0  0  0  0  0  0
  144.2930  161.3470  133.8330 C   0  0  0  0  0  0  0  0  0  0  0  0
  142.8830  161.1730  133.7260 N   0  0  0  0  0  0  0  0  0  0  0  0
  144.7560  162.4910  134.0840 O   0  0  0  0  0  0  0  0  0  0  0  0
  144.8070  158.8720  133.6730 N   0  0  0  0  0  0  0  0  0  0  0  0
  143.5020  158.3300  133.9300 C   0  0  0  0  0  0  0  0  0  0  0  0
  143.2250  157.8680  135.0700 O   0  0  0  0  0  0  0  0  0  0  0  0
  142.5560  158.2880  132.8990 O   0  0  0  0  0  0  0  0  0  0  0  0
  141.3480  157.5250  132.9530 C   0  0  0  0  0  0  0  0  0  0  0  0
  140.1380  158.3990  133.3610 C   0  0  1  0  0  0  0  0  0  0  0  0
  140.1230  158.6440  134.8870 C   0  0  0  0  0  0  0  0  0  0  0  0
  141.1020  159.5780  135.2570 O   0  0  0  0  0  0  0  0  0  0  0  0
  140.1760  159.7200  132.6500 C   0  0  0  0  0  0  0  0  0  0  0  0
  139.1230  159.8600  131.8740 C   0  0  0  0  0  0  0  0  0  0  0  0
  138.2890  158.7610  131.9490 O   0  0  0  0  0  0  0  0  0  0  0  0
  138.7930  157.7980  132.8610 C   0  0  0  0  0  0  0  0  0  0  0  0
  145.9330  158.1630  133.4370 C   0  0  0  0  0  0  0  0  0  0  0  0
  146.0860  156.7740  133.3680 C   0  0  0  0  0  0  0  0  0  0  0  0
  147.7603  153.6497  138.1267 H   0  0  0  0  0  0  0  0  0  0  0  0
  149.1485  153.3883  137.0171 H   0  0  0  0  0  0  0  0  0  0  0  0
  148.2827  154.9622  137.0171 H   0  0  0  0  0  0  0  0  0  0  0  0
  146.5493  152.9397  133.6489 H   0  0  0  0  0  0  0  0  0  0  0  0
  145.5026  154.4079  133.4779 H   0  0  0  0  0  0  0  0  0  0  0  0
  148.5440  154.5324  133.6635 H   0  0  0  0  0  0  0  0  0  0  0  0
  147.6287  154.4241  132.1027 H   0  0  0  0  0  0  0  0  0  0  0  0
  149.4940  156.7201  132.8841 H   0  0  0  0  0  0  0  0  0  0  0  0
  149.1542  159.2104  133.0131 H   0  0  0  0  0  0  0  0  0  0  0  0
  147.1607  161.2138  133.4451 H   0  0  0  0  0  0  0  0  0  0  0  0
  142.4600  160.2190  133.7070 H   0  0  0  0  0  0  0  0  0  0  0  0
  141.1558  157.0906  131.9608 H   0  0  0  0  0  0  0  0  0  0  0  0
  141.4732  156.7370  133.7102 H   0  0  0  0  0  0  0  0  0  0  0  0
  139.1336  159.0250  135.1802 H   0  0  0  0  0  0  0  0  0  0  0  0
  140.3368  157.6927  135.3962 H   0  0  0  0  0  0  0  0  0  0  0  0
  141.8520  159.4830  134.6140 H   0  0  0  0  0  0  0  0  0  0  0  0
  140.9744  160.4683  132.7622 H   0  0  0  0  0  0  0  0  0  0  0  0
  138.9307  160.7413  131.2445 H   0  0  0  0  0  0  0  0  0  0  0  0
  138.0958  157.6549  133.6997 H   0  0  0  0  0  0  0  0  0  0  0  0
  138.9245  156.8103  132.3950 H   0  0  0  0  0  0  0  0  0  0  0  0
  145.2183  156.1060  133.4725 H   0  0  0  0  0  0  0  0  0  0  0  0
  1  2  1  0
  2  3  1  0
  3  4  2  0
  3  5  1  0
  5  6  1  0
  6  7  1  0
  7  8  2  0
  8  9  1  0
  9 10  2  0
 10 11  1  0
 11 12  2  0
 12 13  1  0
 13 14  1  0
 13 15  2  0
 12 16  1  0
 16 17  1  0
 17 18  2  0
 17 19  1  0
 19 20  1  0
 21 20  1  1
 21 22  1  0
 22 23  1  0
 21 24  1  0
 24 25  2  0
 25 26  1  0
 26 27  1  0
 16 28  1  0
 28 29  2  0
 29  7  1  0
 28 10  1  0
 27 21  1  0
  1 30  1  0
  1 31  1  0
  1 32  1  0
  5 33  1  0
  5 34  1  0
  6 35  1  0
  6 36  1  0
  8 37  1  0
  9 38  1  0
 11 39  1  0
 14 40  1  0
 20 41  1  0
 20 42  1  0
 22 43  1  0
 22 44  1  0
 23 45  1  0
 24 46  1  0
 25 47  1  0
 27 48  1  0
 27 49  1  0
 29 50  1  0
M  CHG  1  14  -1
M  END
>  <UniqueID>  (2) 
2

>  <SMILES>  (2) 
COC(=O)CCc1ccc2cc(C([NH-])=O)n(C(=O)OC[C@@]3(CO)C=COC3)c2c1

>  <Energy>  (2) 
92.5419502703941

>  <Genealogy>  (2) 
COC(=O)CCc1ccc2cc(C([NH-])=O)n(C(=O)OCC3(CO)C=COC3)c2c1 (protonated)
COC(=O)CCc1ccc2cc(C([NH-])=O)n(C(=O)OC[C@@]3(CO)C=COC3)c2c1 (chirality)
COC(=O)CCc1ccc2cc(C([NH-])=O)n(C(=O)OC[C@@]3(CO)C=COC3)c2c1 (3D coordinates assigned)
COC(=O)CCc1ccc2cc(C([NH-])=O)n(C(=O)OC[C@@]3(CO)C=COC3)c2c1 (nonaromatic ring conformer: 92.5419502703941 kcal/mol)

>  <smiles>  (2) 
COC(=O)CCc1ccc2cc(C(N)=O)n(C(=O)OCC3(CO)C=COC3)c2c1

>  <score_type>  (2) 
oracle

>  <origin>  (2) 
adg

>  <m_score__min__energy>  (2) 
-7.1500000000000004

>  <m_primary>  (2) 
energy

$$$$
2:0
     RDKit          3D

 46 48  0  0  0  0  0  0  0  0999 V2000
  149.8110  151.9380  132.5200 C   0  0  0  0  0  0  0  0  0  0  0  0
  148.6170  152.6970  132.3720 O   0  0  0  0  0  0  0  0  0  0  0  0
  148.5360  154.0500  132.7150 C   0  0  0  0  0  0  0  0  0  0  0  0
  149.5450  154.7960  132.5900 O   0  0  0  0  0  0  0  0  0  0  0  0
  147.2630  154.5830  133.2360 C   0  0  0  0  0  0  0  0  0  0  0  0
  146.0160  154.0300  133.0200 C   0  0  0  0  0  0  0  0  0  0  0  0
  145.1290  154.7970  133.6760 N   0  0  0  0  0  0  0  0  0  0  0  0
  145.7860  155.7800  134.2690 N   0  0  0  0  0  0  0  0  0  0  0  0
  147.0810  155.6740  134.0180 N   0  0  0  0  0  0  0  0  0  0  0  0
  148.0700  156.6420  134.4990 C   0  0  0  0  0  0  0  0  0  0  0  0
  148.4730  157.6400  133.4020 C   0  0  0  0  0  0  0  0  0  0  0  0
  147.8800  159.0520  133.5680 C   0  0  0  0  0  0  0  0  0  0  0  0
  146.7800  159.3990  132.5430 C   0  0  0  0  0  0  0  0  0  0  0  0
  145.4220  159.5540  133.1790 C   0  0  0  0  0  0  0  0  0  0  0  0
  144.9390  160.8460  133.5100 C   0  0  0  0  0  0  0  0  0  0  0  0
  143.6730  161.0100  134.0960 C   0  0  0  0  0  0  0  0  0  0  0  0
  142.9160  159.8700  134.3410 C   0  0  0  0  0  0  0  0  0  0  0  0
  141.6690  159.7420  134.9100 C   0  0  0  0  0  0  0  0  0  0  0  0
  141.4050  158.3740  134.9150 C   0  0  0  0  0  0  0  0  0  0  0  0
  140.1200  157.7980  135.3630 C   0  0  0  0  0  0  0  0  0  0  0  0
  139.7370  157.8950  136.7330 N   0  0  0  0  0  0  0  0  0  0  0  0
  139.3370  157.2520  134.5410 O   0  0  0  0  0  0  0  0  0  0  0  0
  142.4500  157.6810  134.3790 N   0  0  0  0  0  0  0  0  0  0  0  0
  142.5930  156.2570  134.2630 C   0  0  0  0  0  0  0  0  0  0  0  0
  142.3850  155.6850  133.1600 O   0  0  0  0  0  0  0  0  0  0  0  0
  142.9910  155.4990  135.3570 O   0  0  0  0  0  0  0  0  0  0  0  0
  143.3660  158.6140  134.0300 C   0  0  0  0  0  0  0  0  0  0  0  0
  144.6330  158.4190  133.4680 C   0  0  0  0  0  0  0  0  0  0  0  0
  150.0277  151.8003  133.5896 H   0  0  0  0  0  0  0  0  0  0  0  0
  149.6825  150.9555  132.0424 H   0  0  0  0  0  0  0  0  0  0  0  0
  150.6461  152.4714  132.0424 H   0  0  0  0  0  0  0  0  0  0  0  0
  145.7917  153.1327  132.4245 H   0  0  0  0  0  0  0  0  0  0  0  0
  144.0950  154.6600  133.7230 H   0  0  0  0  0  0  0  0  0  0  0  0
  147.6414  157.1979  135.3459 H   0  0  0  0  0  0  0  0  0  0  0  0
  148.9699  156.0880  134.8042 H   0  0  0  0  0  0  0  0  0  0  0  0
  149.5696  157.7264  133.4033 H   0  0  0  0  0  0  0  0  0  0  0  0
  148.0717  157.2432  132.4578 H   0  0  0  0  0  0  0  0  0  0  0  0
  147.4484  159.1288  134.5769 H   0  0  0  0  0  0  0  0  0  0  0  0
  148.7030  159.7627  133.4021 H   0  0  0  0  0  0  0  0  0  0  0  0
  147.0464  160.3439  132.0468 H   0  0  0  0  0  0  0  0  0  0  0  0
  146.7187  158.5670  131.8260 H   0  0  0  0  0  0  0  0  0  0  0  0
  145.5625  161.7289  133.3056 H   0  0  0  0  0  0  0  0  0  0  0  0
  143.2923  162.0095  134.3531 H   0  0  0  0  0  0  0  0  0  0  0  0
  141.0194  160.5482  135.2816 H   0  0  0  0  0  0  0  0  0  0  0  0
  139.1050  158.6580  137.0610 H   0  0  0  0  0  0  0  0  0  0  0  0
  145.0053  157.4058  133.2565 H   0  0  0  0  0  0  0  0  0  0  0  0
  1  2  1  0
  2  3  1  0
  3  4  2  0
  3  5  1  0
  5  6  2  0
  6  7  1  0
  7  8  2  0
  8  9  1  0
  9 10  1  0
 10 11  1  0
 11 12  1  0
 12 13  1  0
 13 14  1  0
 14 15  2  0
 15 16  1  0
 16 17  2  0
 17 18  1  0
 18 19  2  0
 19 20  1  0
 20 21  1  0
 20 22  2  0
 19 23  1  0
 23 24  1  0
 24 25  2  0
 24 26  1  0
 23 27  1  0
 27 28  2  0
  9  5  1  0
 28 14  1  0
 27 17  1  0
  1 29  1  0
  1 30  1  0
  1 31  1  0
  6 32  1  0
  7 33  1  0
 10 34  1  0
 10 35  1  0
 11 36  1  0
 11 37  1  0
 12 38  1  0
 12 39  1  0
 13 40  1  0
 13 41  1  0
 15 42  1  0
 16 43  1  0
 18 44  1  0
 21 45  1  0
 28 46  1  0
M  CHG  3   7   1  21  -1  26  -1
M  END
>  <UniqueID>  (3) 
3

>  <SMILES>  (3) 
COC(=O)c1c[nH+]nn1CCCCc1ccc2cc(C([NH-])=O)n(C(=O)[O-])c2c1

>  <Energy>  (3) 
116.10863859202708

>  <Genealogy>  (3) 
COC(=O)c1c[nH+]nn1CCCCc1ccc2cc(C([NH-])=O)n(C(=O)[O-])c2c1 (protonated)
COC(=O)c1c[nH+]nn1CCCCc1ccc2cc(C([NH-])=O)n(C(=O)[O-])c2c1 (3D coordinates assigned)
COC(=O)c1c[nH+]nn1CCCCc1ccc2cc(C([NH-])=O)n(C(=O)[O-])c2c1 (optimized conformer: 116.10863859202708 kcal/mol)

>  <smiles>  (3) 
COC(=O)c1cnnn1CCCCc1ccc2cc(C(N)=O)n(C(=O)O)c2c1

>  <score_type>  (3) 
oracle

>  <origin>  (3) 
adg

>  <m_score__min__energy>  (3) 
-6.2999999999999998

>  <m_primary>  (3) 
energy

$$$$
3:0
     RDKit          3D

 45 46  0  0  0  0  0  0  0  0999 V2000
  147.5870  154.3300  135.8830 C   0  0  0  0  0  0  0  0  0  0  0  0
  147.1560  155.6180  135.4990 O   0  0  0  0  0  0  0  0  0  0  0  0
  145.9180  155.5390  134.8150 C   0  0  0  0  0  0  0  0  0  0  0  0
  145.9360  156.3830  133.5690 C   0  0  0  0  0  0  0  0  0  0  0  0
  146.4050  155.8970  132.5020 O   0  0  0  0  0  0  0  0  0  0  0  0
  145.4450  157.7390  133.5840 N   0  0  0  0  0  0  0  0  0  0  0  0
  146.1700  158.8930  133.5620 C   0  0  0  0  0  0  0  0  0  0  0  0
  147.6400  158.9910  133.6850 C   0  0  0  0  0  0  0  0  0  0  0  0
  148.4410  157.8120  133.7960 N   0  0  0  0  0  0  0  0  0  0  0  0
  148.2020  160.1200  133.6510 O   0  0  0  0  0  0  0  0  0  0  0  0
  145.3250  160.0010  133.5520 C   0  0  0  0  0  0  0  0  0  0  0  0
  144.0500  159.4860  133.5870 C   0  0  0  0  0  0  0  0  0  0  0  0
  142.8230  160.1410  133.6340 C   0  0  0  0  0  0  0  0  0  0  0  0
  141.6600  159.3550  133.7080 C   0  0  0  0  0  0  0  0  0  0  0  0
  141.7430  157.9400  133.7230 C   0  0  0  0  0  0  0  0  0  0  0  0
  140.4920  157.1080  133.8370 C   0  0  0  0  0  0  0  0  0  0  0  0
  139.4500  157.8320  134.6310 C   0  0  0  0  0  0  0  0  0  0  0  0
  138.3800  158.2010  134.0760 O   0  0  0  0  0  0  0  0  0  0  0  0
  139.7020  158.1470  136.0050 N   0  0  0  0  0  0  0  0  0  0  0  0
  140.9140  157.7480  136.7190 C   0  0  2  0  0  0  0  0  0  0  0  0
  140.6170  156.5590  137.6430 C   0  0  0  0  0  0  0  0  0  0  0  0
  141.4640  158.9480  137.5020 C   0  0  0  0  0  0  0  0  0  0  0  0
  140.6100  160.0590  137.3980 O   0  0  0  0  0  0  0  0  0  0  0  0
  143.0070  157.3140  133.6530 C   0  0  0  0  0  0  0  0  0  0  0  0
  144.1490  158.1210  133.6040 C   0  0  0  0  0  0  0  0  0  0  0  0
  147.6094  154.2630  136.9807 H   0  0  0  0  0  0  0  0  0  0  0  0
  146.8920  153.5766  135.4838 H   0  0  0  0  0  0  0  0  0  0  0  0
  148.5955  154.1466  135.4838 H   0  0  0  0  0  0  0  0  0  0  0  0
  145.7263  154.4919  134.5376 H   0  0  0  0  0  0  0  0  0  0  0  0
  145.1254  155.9125  135.4801 H   0  0  0  0  0  0  0  0  0  0  0  0
  149.4810  157.8830  133.8370 H   0  0  0  0  0  0  0  0  0  0  0  0
  148.0000  156.8690  133.8950 H   0  0  0  0  0  0  0  0  0  0  0  0
  145.6156  161.0615  133.5224 H   0  0  0  0  0  0  0  0  0  0  0  0
  142.7651  161.2393  133.6139 H   0  0  0  0  0  0  0  0  0  0  0  0
  140.6753  159.8430  133.7547 H   0  0  0  0  0  0  0  0  0  0  0  0
  140.1012  156.9025  132.8295 H   0  0  0  0  0  0  0  0  0  0  0  0
  140.7375  156.1657  134.3487 H   0  0  0  0  0  0  0  0  0  0  0  0
  141.6803  157.4248  135.9990 H   0  0  0  0  0  0  0  0  0  0  0  0
  140.6974  156.8807  138.6918 H   0  0  0  0  0  0  0  0  0  0  0  0
  139.5990  156.1897  137.4497 H   0  0  0  0  0  0  0  0  0  0  0  0
  141.3418  155.7544  137.4497 H   0  0  0  0  0  0  0  0  0  0  0  0
  141.5629  158.6698  138.5616 H   0  0  0  0  0  0  0  0  0  0  0  0
  142.4421  159.2205  137.0788 H   0  0  0  0  0  0  0  0  0  0  0  0
  139.7880  159.7500  136.9310 H   0  0  0  0  0  0  0  0  0  0  0  0
  143.0918  156.2174  133.6374 H   0  0  0  0  0  0  0  0  0  0  0  0
  1  2  1  0
  2  3  1  0
  3  4  1  0
  4  5  2  0
  4  6  1  0
  6  7  1  0
  7  8  1  0
  8  9  1  0
  8 10  2  0
  7 11  2  0
 11 12  1  0
 12 13  2  0
 13 14  1  0
 14 15  2  0
 15 16  1  0
 16 17  1  0
 17 18  2  0
 17 19  1  0
 19 20  1  0
 20 21  1  0
 20 22  1  0
 22 23  1  0
 15 24  1  0
 24 25  2  0
 25  6  1  0
 25 12  1  0
  1 26  1  0
  1 27  1  0
  1 28  1  0
  3 29  1  0
  3 30  1  0
  9 31  1  0
  9 32  1  0
 11 33  1  0
 13 34  1  0
 14 35  1  0
 16 36  1  0
 16 37  1  0
 20 38  1  6
 21 39  1  0
 21 40  1  0
 21 41  1  0
 22 42  1  0
 22 43  1  0
 23 44  1  0
 24 45  1  0
M  CHG  1  19  -1
M  END
>  <UniqueID>  (4) 
4

>  <SMILES>  (4) 
COCC(=O)n1c(C(N)=O)cc2ccc(CC(=O)[N-][C@H](C)CO)cc21

>  <Energy>  (4) 
77.99438338863708

>  <Genealogy>  (4) 
COCC(=O)n1c(C(N)=O)cc2ccc(CC(=O)[N-]C(C)CO)cc21 (protonated)
COCC(=O)n1c(C(N)=O)cc2ccc(CC(=O)[N-][C@H](C)CO)cc21 (chirality)
COCC(=O)n1c(C(N)=O)cc2ccc(CC(=O)[N-][C@H](C)CO)cc21 (3D coordinates assigned)
COCC(=O)n1c(C(N)=O)cc2ccc(CC(=O)[N-][C@H](C)CO)cc21 (optimized conformer: 77.99438338863708 kcal/mol)

>  <smiles>  (4) 
COCC(=O)n1c(C(N)=O)cc2ccc(CC(=O)NC(C)CO)cc21

>  <score_type>  (4) 
oracle

>  <origin>  (4) 
adg

>  <m_score__min__energy>  (4) 
-6.71

>  <m_primary>  (4) 
energy

$$$$
4:0
     RDKit          3D

 42 44  0  0  0  0  0  0  0  0999 V2000
  143.3200  154.9070  135.1490 C   0  0  0  0  0  0  0  0  0  0  0  0
  144.4190  154.7350  134.1030 C   0  0  0  0  0  0  0  0  0  0  0  0
  143.8550  154.9420  132.6950 C   0  0  0  0  0  0  0  0  0  0  0  0
  145.4530  155.6840  134.3620 O   0  0  0  0  0  0  0  0  0  0  0  0
  146.0600  156.4620  133.3680 C   0  0  0  0  0  0  0  0  0  0  0  0
  146.7130  155.9110  132.4390 O   0  0  0  0  0  0  0  0  0  0  0  0
  145.9370  157.8930  133.4070 N   0  0  0  0  0  0  0  0  0  0  0  0
  146.8690  158.8170  133.0390 C   0  0  0  0  0  0  0  0  0  0  0  0
  148.2730  158.5340  132.6830 C   0  0  0  0  0  0  0  0  0  0  0  0
  148.6020  157.6660  131.5970 N   0  0  0  0  0  0  0  0  0  0  0  0
  149.2000  159.0230  133.3830 O   0  0  0  0  0  0  0  0  0  0  0  0
  146.3350  160.1010  133.0890 C   0  0  0  0  0  0  0  0  0  0  0  0
  145.0370  159.9380  133.5150 C   0  0  0  0  0  0  0  0  0  0  0  0
  144.0430  160.8870  133.7330 C   0  0  0  0  0  0  0  0  0  0  0  0
  142.7780  160.4330  134.1410 C   0  0  0  0  0  0  0  0  0  0  0  0
  142.5240  159.0480  134.3040 C   0  0  0  0  0  0  0  0  0  0  0  0
  141.1820  158.5930  134.7320 C   0  0  0  0  0  0  0  0  0  0  0  0
  140.7910  158.3400  136.0300 C   0  0  0  0  0  0  0  0  0  0  0  0
  141.5480  158.4220  137.1510 F   0  0  0  0  0  0  0  0  0  0  0  0
  139.4770  157.9330  135.9490 C   0  0  0  0  0  0  0  0  0  0  0  0
  139.0890  157.9550  134.6590 N   0  0  0  0  0  0  0  0  0  0  0  0
  140.1170  158.3620  133.9280 N   0  0  0  0  0  0  0  0  0  0  0  0
  140.0420  158.5250  132.4790 C   0  0  0  0  0  0  0  0  0  0  0  0
  143.5620  158.1160  134.0840 C   0  0  0  0  0  0  0  0  0  0  0  0
  144.8190  158.5970  133.6980 C   0  0  0  0  0  0  0  0  0  0  0  0
  143.7580  154.8384  136.1557 H   0  0  0  0  0  0  0  0  0  0  0  0
  142.8440  155.8906  135.0224 H   0  0  0  0  0  0  0  0  0  0  0  0
  142.5663  154.1159  135.0224 H   0  0  0  0  0  0  0  0  0  0  0  0
  144.8255  153.7146  134.1625 H   0  0  0  0  0  0  0  0  0  0  0  0
  142.8244  155.3202  132.7648 H   0  0  0  0  0  0  0  0  0  0  0  0
  144.4771  155.6704  132.1542 H   0  0  0  0  0  0  0  0  0  0  0  0
  143.8582  153.9841  132.1542 H   0  0  0  0  0  0  0  0  0  0  0  0
  147.8640  157.1140  131.1070 H   0  0  0  0  0  0  0  0  0  0  0  0
  149.6000  157.5100  131.3360 H   0  0  0  0  0  0  0  0  0  0  0  0
  146.8424  161.0449  132.8409 H   0  0  0  0  0  0  0  0  0  0  0  0
  144.2417  161.9594  133.5902 H   0  0  0  0  0  0  0  0  0  0  0  0
  141.9759  161.1600  134.3361 H   0  0  0  0  0  0  0  0  0  0  0  0
  138.8464  157.6377  136.8005 H   0  0  0  0  0  0  0  0  0  0  0  0
  139.5930  159.5009  132.2426 H   0  0  0  0  0  0  0  0  0  0  0  0
  141.0542  158.4738  132.0514 H   0  0  0  0  0  0  0  0  0  0  0  0
  139.4224  157.7230  132.0514 H   0  0  0  0  0  0  0  0  0  0  0  0
  143.3871  157.0377  134.2129 H   0  0  0  0  0  0  0  0  0  0  0  0
  1  2  1  0
  2  3  1  0
  2  4  1  0
  4  5  1  0
  5  6  2  0
  5  7  1  0
  7  8  1  0
  8  9  1  0
  9 10  1  0
  9 11  2  0
  8 12  2  0
 12 13  1  0
 13 14  2  0
 14 15  1  0
 15 16  2  0
 16 17  1  0
 17 18  2  0
 18 19  1  0
 18 20  1  0
 20 21  2  0
 21 22  1  0
 22 23  1  0
 16 24  1  0
 24 25  2  0
 25  7  1  0
 25 13  1  0
 22 17  1  0
  1 26  1  0
  1 27  1  0
  1 28  1  0
  2 29  1  0
  3 30  1  0
  3 31  1  0
  3 32  1  0
 10 33  1  0
 10 34  1  0
 12 35  1  0
 14 36  1  0
 15 37  1  0
 20 38  1  0
 23 39  1  0
 23 40  1  0
 23 41  1  0
 24 42  1  0
M  END
>  <UniqueID>  (5) 
5

>  <SMILES>  (5) 
CC(C)OC(=O)n1c(C(N)=O)cc2ccc(-c3c(F)cnn3C)cc21

>  <Energy>  (5) 
112.3827904449236

>  <Genealogy>  (5) 
CC(C)OC(=O)n1c(C(N)=O)cc2ccc(-c3c(F)cnn3C)cc21 (3D coordinates assigned)
CC(C)OC(=O)n1c(C(N)=O)cc2ccc(-c3c(F)cnn3C)cc21 (optimized conformer: 112.3827904449236 kcal/mol)

>  <smiles>  (5) 
CC(C)OC(=O)n1c(C(N)=O)cc2ccc(-c3c(F)cnn3C)cc21

>  <score_type>  (5) 
oracle

>  <origin>  (5) 
adg

>  <m_score__min__energy>  (5) 
-7.4800000000000004

>  <m_primary>  (5) 
energy

$$$$
5:0
     RDKit          3D

 37 38  0  0  0  0  0  0  0  0999 V2000
  142.7740  161.2110  133.6710 N   0  0  0  0  0  0  0  0  0  0  0  0
  144.1920  161.3420  133.7400 C   0  0  0  0  0  0  0  0  0  0  0  0
  144.6990  162.4890  133.8550 O   0  0  0  0  0  0  0  0  0  0  0  0
  145.0480  160.1440  133.6350 C   0  0  0  0  0  0  0  0  0  0  0  0
  146.4240  160.1990  133.4140 C   0  0  0  0  0  0  0  0  0  0  0  0
  146.8540  158.8930  133.4650 C   0  0  0  0  0  0  0  0  0  0  0  0
  148.1320  158.3640  133.3040 C   0  0  0  0  0  0  0  0  0  0  0  0
  148.2810  156.9690  133.3820 C   0  0  0  0  0  0  0  0  0  0  0  0
  147.1570  156.1330  133.5980 C   0  0  0  0  0  0  0  0  0  0  0  0
  147.3330  154.6430  133.6970 C   0  0  0  0  0  0  0  0  0  0  0  0
  146.6200  154.1220  134.9030 C   0  0  0  0  0  0  0  0  0  0  0  0
  145.3670  154.0040  134.8970 O   0  0  0  0  0  0  0  0  0  0  0  0
  147.3440  153.7170  136.0180 O   0  0  0  0  0  0  0  0  0  0  0  0
  145.8770  156.7070  133.7670 C   0  0  0  0  0  0  0  0  0  0  0  0
  145.7610  158.1000  133.7050 C   0  0  0  0  0  0  0  0  0  0  0  0
  144.6440  158.8540  133.8110 N   0  0  0  0  0  0  0  0  0  0  0  0
  143.3040  158.3700  133.9850 C   0  0  0  0  0  0  0  0  0  0  0  0
  142.5490  158.2380  132.9830 O   0  0  0  0  0  0  0  0  0  0  0  0
  142.8360  158.0680  135.2680 O   0  0  0  0  0  0  0  0  0  0  0  0
  141.7340  157.1970  135.5200 C   0  0  0  0  0  0  0  0  0  0  0  0
  140.6430  157.9030  136.3340 C   0  0  0  0  0  0  0  0  0  0  0  0
  140.6280  159.4130  136.0750 C   0  0  0  0  0  0  0  0  0  0  0  0
  140.6140  159.6660  134.6960 O   0  0  0  0  0  0  0  0  0  0  0  0
  142.3270  160.2760  133.5490 H   0  0  0  0  0  0  0  0  0  0  0  0
  147.0356  161.0960  133.2366 H   0  0  0  0  0  0  0  0  0  0  0  0
  148.9977  159.0177  133.1215 H   0  0  0  0  0  0  0  0  0  0  0  0
  149.2800  156.5212  133.2744 H   0  0  0  0  0  0  0  0  0  0  0  0
  146.9196  154.1669  132.7957 H   0  0  0  0  0  0  0  0  0  0  0  0
  148.4048  154.4114  133.7837 H   0  0  0  0  0  0  0  0  0  0  0  0
  144.9941  156.0748  133.9428 H   0  0  0  0  0  0  0  0  0  0  0  0
  141.3093  156.8689  134.5598 H   0  0  0  0  0  0  0  0  0  0  0  0
  142.0971  156.3350  136.0988 H   0  0  0  0  0  0  0  0  0  0  0  0
  139.6644  157.4843  136.0565 H   0  0  0  0  0  0  0  0  0  0  0  0
  140.8537  157.7410  137.4014 H   0  0  0  0  0  0  0  0  0  0  0  0
  139.7300  159.8519  136.5344 H   0  0  0  0  0  0  0  0  0  0  0  0
  141.5311  159.8622  136.5139 H   0  0  0  0  0  0  0  0  0  0  0  0
  141.5520  159.5810  134.3820 H   0  0  0  0  0  0  0  0  0  0  0  0
  1  2  1  0
  2  3  2  0
  2  4  1  0
  4  5  2  0
  5  6  1  0
  6  7  2  0
  7  8  1  0
  8  9  2  0
  9 10  1  0
 10 11  1  0
 11 12  2  0
 11 13  1  0
  9 14  1  0
 14 15  2  0
 15 16  1  0
 16 17  1  0
 17 18  2  0
 17 19  1  0
 19 20  1  0
 20 21  1  0
 21 22  1  0
 22 23  1  0
 16  4  1  0
 15  6  1  0
  1 24  1  0
  5 25  1  0
  7 26  1  0
  8 27  1  0
 10 28  1  0
 10 29  1  0
 14 30  1  0
 20 31  1  0
 20 32  1  0
 21 33  1  0
 21 34  1  0
 22 35  1  0
 22 36  1  0
 23 37  1  0
M  CHG  2   1  -1  13  -1
M  END
>  <UniqueID>  (6) 
6

>  <SMILES>  (6) 
[NH-]C(=O)c1cc2ccc(CC(=O)[O-])cc2n1C(=O)OCCCO

>  <Energy>  (6) 
68.38367885911734

>  <Genealogy>  (6) 
[NH-]C(=O)c1cc2ccc(CC(=O)[O-])cc2n1C(=O)OCCCO (protonated)
[NH-]C(=O)c1cc2ccc(CC(=O)[O-])cc2n1C(=O)OCCCO (3D coordinates assigned)
[NH-]C(=O)c1cc2ccc(CC(=O)[O-])cc2n1C(=O)OCCCO (optimized conformer: 68.38367885911734 kcal/mol)

>  <smiles>  (6) 
NC(=O)c1cc2ccc(CC(=O)O)cc2n1C(=O)OCCCO

>  <score_type>  (6) 
oracle

>  <origin>  (6) 
adg

>  <m_score__min__energy>  (6) 
-6.0999999999999996

>  <m_primary>  (6) 
energy

$$$$
6:0
     RDKit          3D

 52 54  0  0  0  0  0  0  0  0999 V2000
  145.0000  153.7280  135.2430 C   0  0  0  0  0  0  0  0  0  0  0  0
  145.1620  154.4020  133.9420 N   0  0  1  0  0  0  0  0  0  0  0  0
  146.2050  153.7670  133.1040 C   0  0  0  0  0  0  0  0  0  0  0  0
  147.6510  154.1030  133.5370 C   0  0  0  0  0  0  0  0  0  0  0  0
  148.3980  155.0760  132.6050 C   0  0  0  0  0  0  0  0  0  0  0  0
  147.9800  156.5100  132.8120 C   0  0  0  0  0  0  0  0  0  0  0  0
  148.9140  157.5570  132.6080 C   0  0  0  0  0  0  0  0  0  0  0  0
  148.5290  158.8990  132.7600 C   0  0  0  0  0  0  0  0  0  0  0  0
  147.2070  159.1640  133.1050 C   0  0  0  0  0  0  0  0  0  0  0  0
  146.5760  160.3660  133.3310 C   0  0  0  0  0  0  0  0  0  0  0  0
  145.2600  160.0370  133.6520 C   0  0  0  0  0  0  0  0  0  0  0  0
  144.2060  161.0470  133.8820 C   0  0  0  0  0  0  0  0  0  0  0  0
  144.5330  162.4230  134.0530 N   0  0  0  0  0  0  0  0  0  0  0  0
  143.0040  160.6810  133.9820 O   0  0  0  0  0  0  0  0  0  0  0  0
  145.0860  158.6840  133.6350 N   0  0  0  0  0  0  0  0  0  0  0  0
  143.9100  157.9430  134.0010 C   0  0  0  0  0  0  0  0  0  0  0  0
  143.9940  156.9680  134.7930 O   0  0  0  0  0  0  0  0  0  0  0  0
  142.6730  158.2760  133.4630 O   0  0  0  0  0  0  0  0  0  0  0  0
  146.2870  158.1640  133.2950 C   0  0  0  0  0  0  0  0  0  0  0  0
  146.6480  156.8190  133.1710 C   0  0  0  0  0  0  0  0  0  0  0  0
  143.9100  154.3950  133.2240 C   0  0  0  0  0  0  0  0  0  0  0  0
  143.8310  154.9120  132.0740 O   0  0  0  0  0  0  0  0  0  0  0  0
  142.7730  153.8550  133.8370 O   0  0  0  0  0  0  0  0  0  0  0  0
  141.4420  154.1700  133.4360 C   0  0  0  0  0  0  0  0  0  0  0  0
  140.9800  155.4410  134.1050 C   0  0  0  0  0  0  0  0  0  0  0  0
  141.4530  155.7650  135.3890 C   0  0  0  0  0  0  0  0  0  0  0  0
  142.3340  154.9510  136.0230 F   0  0  0  0  0  0  0  0  0  0  0  0
  141.0160  156.9320  136.0270 C   0  0  0  0  0  0  0  0  0  0  0  0
  141.4780  157.2400  137.2650 F   0  0  0  0  0  0  0  0  0  0  0  0
  140.1040  157.7800  135.3920 C   0  0  0  0  0  0  0  0  0  0  0  0
  139.6820  158.9080  136.0120 F   0  0  0  0  0  0  0  0  0  0  0  0
  139.6260  157.4630  134.1170 C   0  0  0  0  0  0  0  0  0  0  0  0
  138.7380  158.2850  133.5040 F   0  0  0  0  0  0  0  0  0  0  0  0
  140.0580  156.2980  133.4730 C   0  0  0  0  0  0  0  0  0  0  0  0
  139.5750  156.0090  132.2380 F   0  0  0  0  0  0  0  0  0  0  0  0
  145.1736  154.4503  136.0543 H   0  0  0  0  0  0  0  0  0  0  0  0
  143.9795  153.3253  135.3228 H   0  0  0  0  0  0  0  0  0  0  0  0
  145.7260  152.9055  135.3228 H   0  0  0  0  0  0  0  0  0  0  0  0
  145.4080  155.4000  134.1260 H   0  0  0  0  0  0  0  0  0  0  0  0
  146.0732  152.6761  133.1554 H   0  0  0  0  0  0  0  0  0  0  0  0
  146.0782  154.1616  132.0851 H   0  0  0  0  0  0  0  0  0  0  0  0
  147.6115  154.5531  134.5399 H   0  0  0  0  0  0  0  0  0  0  0  0
  148.2100  153.1561  133.5062 H   0  0  0  0  0  0  0  0  0  0  0  0
  149.4774  154.9917  132.7992 H   0  0  0  0  0  0  0  0  0  0  0  0
  148.1507  154.8022  131.5687 H   0  0  0  0  0  0  0  0  0  0  0  0
  149.9501  157.3159  132.3280 H   0  0  0  0  0  0  0  0  0  0  0  0
  149.2504  159.7159  132.6109 H   0  0  0  0  0  0  0  0  0  0  0  0
  147.0164  161.3722  133.2711 H   0  0  0  0  0  0  0  0  0  0  0  0
  145.1350  162.9220  133.3600 H   0  0  0  0  0  0  0  0  0  0  0  0
  145.9130  156.0201  133.3486 H   0  0  0  0  0  0  0  0  0  0  0  0
  141.4140  154.3037  132.3445 H   0  0  0  0  0  0  0  0  0  0  0  0
  140.7750  153.3470  133.7324 H   0  0  0  0  0  0  0  0  0  0  0  0
  1  2  1  0
  2  3  1  0
  3  4  1  0
  4  5  1  0
  5  6  1  0
  6  7  2  0
  7  8  1  0
  8  9  2  0
  9 10  1  0
 10 11  2  0
 11 12  1  0
 12 13  1  0
 12 14  2  0
 11 15  1  0
 15 16  1  0
 16 17  2  0
 16 18  1  0
 15 19  1  0
 19 20  2  0
  2 21  1  0
 21 22  2  0
 21 23  1  0
 23 24  1  0
 24 25  1  0
 25 26  2  0
 26 27  1  0
 26 28  1  0
 28 29  1  0
 28 30  2  0
 30 31  1  0
 30 32  1  0
 32 33  1  0
 32 34  2  0
 34 35  1  0
 20  6  1  0
 34 25  1  0
 19  9  1  0
  1 36  1  0
  1 37  1  0
  1 38  1  0
  2 39  1  1
  3 40  1  0
  3 41  1  0
  4 42  1  0
  4 43  1  0
  5 44  1  0
  5 45  1  0
  7 46  1  0
  8 47  1  0
 10 48  1  0
 13 49  1  0
 20 50  1  0
 24 51  1  0
 24 52  1  0
M  CHG  3   2   1  13  -1  18  -1
M  END
>  <UniqueID>  (7) 
7

>  <SMILES>  (7) 
C[N@@H+](CCCc1ccc2cc(C([NH-])=O)n(C(=O)[O-])c2c1)C(=O)OCc1c(F)c(F)c(F)c(F)c1F

>  <Energy>  (7) 
91.94028357858285

>  <Genealogy>  (7) 
C[NH+](CCCc1ccc2cc(C([NH-])=O)n(C(=O)[O-])c2c1)C(=O)OCc1c(F)c(F)c(F)c(F)c1F (protonated)
C[N@@H+](CCCc1ccc2cc(C([NH-])=O)n(C(=O)[O-])c2c1)C(=O)OCc1c(F)c(F)c(F)c(F)c1F (chirality)
C[N@@H+](CCCc1ccc2cc(C([NH-])=O)n(C(=O)[O-])c2c1)C(=O)OCc1c(F)c(F)c(F)c(F)c1F (3D coordinates assigned)
C[N@@H+](CCCc1ccc2cc(C([NH-])=O)n(C(=O)[O-])c2c1)C(=O)OCc1c(F)c(F)c(F)c(F)c1F (optimized conformer: 91.94028357858285 kcal/mol)

>  <smiles>  (7) 
CN(CCCc1ccc2cc(C(N)=O)n(C(=O)O)c2c1)C(=O)OCc1c(F)c(F)c(F)c(F)c1F

>  <score_type>  (7) 
oracle

>  <origin>  (7) 
adg

>  <m_score__min__energy>  (7) 
-7.2699999999999996

>  <m_primary>  (7) 
energy

$$$$
7:0
     RDKit          3D

 39 41  0  0  0  0  0  0  0  0999 V2000
  148.7960  157.7780  133.4630 N   0  0  0  0  0  0  0  0  0  0  0  0
  148.1000  158.9240  132.9710 C   0  0  0  0  0  0  0  0  0  0  0  0
  148.7120  159.7540  132.2480 O   0  0  0  0  0  0  0  0  0  0  0  0
  146.6620  159.1190  133.2410 C   0  0  0  0  0  0  0  0  0  0  0  0
  146.0700  160.3730  133.3610 C   0  0  0  0  0  0  0  0  0  0  0  0
  144.7280  160.1250  133.5470 C   0  0  0  0  0  0  0  0  0  0  0  0
  143.6750  161.0110  133.7490 C   0  0  0  0  0  0  0  0  0  0  0  0
  142.3940  160.4750  133.9610 C   0  0  0  0  0  0  0  0  0  0  0  0
  142.1910  159.0740  133.9630 C   0  0  0  0  0  0  0  0  0  0  0  0
  140.8250  158.5130  134.2460 C   0  0  0  0  0  0  0  0  0  0  0  0
  140.2820  158.6240  135.6360 C   0  0  0  0  0  0  0  0  0  0  0  0
  139.1840  158.0850  135.9320 O   0  0  0  0  0  0  0  0  0  0  0  0
  141.0140  159.2820  136.6170 O   0  0  0  0  0  0  0  0  0  0  0  0
  139.8020  158.6090  133.1190 C   0  0  0  0  0  0  0  0  0  0  0  0
  140.4240  157.2640  133.4670 C   0  0  0  0  0  0  0  0  0  0  0  0
  143.2870  158.2030  133.7760 C   0  0  0  0  0  0  0  0  0  0  0  0
  144.5490  158.7650  133.5450 C   0  0  0  0  0  0  0  0  0  0  0  0
  145.7310  158.1320  133.3610 N   0  0  0  0  0  0  0  0  0  0  0  0
  145.9660  156.7150  133.4180 C   0  0  0  0  0  0  0  0  0  0  0  0
  145.3850  155.9450  132.6060 O   0  0  0  0  0  0  0  0  0  0  0  0
  146.8470  156.1970  134.3760 O   0  0  0  0  0  0  0  0  0  0  0  0
  147.0530  154.8010  134.5800 C   0  0  0  0  0  0  0  0  0  0  0  0
  148.1230  154.2710  133.6290 C   0  0  0  0  0  0  0  0  0  0  0  0
  148.3960  155.2340  132.6500 O   0  0  0  0  0  0  0  0  0  0  0  0
  148.2840  156.9920  133.9220 H   0  0  0  0  0  0  0  0  0  0  0  0
  149.8220  157.6760  133.2980 H   0  0  0  0  0  0  0  0  0  0  0  0
  146.5677  161.3530  133.3167 H   0  0  0  0  0  0  0  0  0  0  0  0
  143.8404  162.0985  133.7429 H   0  0  0  0  0  0  0  0  0  0  0  0
  141.5412  161.1497  134.1269 H   0  0  0  0  0  0  0  0  0  0  0  0
  138.7444  158.8022  133.3516 H   0  0  0  0  0  0  0  0  0  0  0  0
  139.7102  159.2089  132.2015 H   0  0  0  0  0  0  0  0  0  0  0  0
  139.8158  156.4857  133.9511 H   0  0  0  0  0  0  0  0  0  0  0  0
  140.9676  156.4901  132.9052 H   0  0  0  0  0  0  0  0  0  0  0  0
  143.1530  157.1118  133.8109 H   0  0  0  0  0  0  0  0  0  0  0  0
  147.3755  154.6311  135.6178 H   0  0  0  0  0  0  0  0  0  0  0  0
  146.1095  154.2709  134.3830 H   0  0  0  0  0  0  0  0  0  0  0  0
  149.0408  154.0529  134.1947 H   0  0  0  0  0  0  0  0  0  0  0  0
  147.7617  153.3505  133.1471 H   0  0  0  0  0  0  0  0  0  0  0  0
  147.5180  155.6190  132.3920 H   0  0  0  0  0  0  0  0  0  0  0  0
  1  2  1  0
  2  3  2  0
  2  4  1  0
  4  5  2  0
  5  6  1  0
  6  7  2  0
  7  8  1  0
  8  9  2  0
  9 10  1  0
 10 11  1  0
 11 12  2  0
 11 13  1  0
 10 14  1  0
 14 15  1  0
  9 16  1  0
 16 17  2  0
 17 18  1  0
 18 19  1  0
 19 20  2  0
 19 21  1  0
 21 22  1  0
 22 23  1  0
 23 24  1  0
 18  4  1  0
 17  6  1  0
 15 10  1  0
  1 25  1  0
  1 26  1  0
  5 27  1  0
  7 28  1  0
  8 29  1  0
 14 30  1  0
 14 31  1  0
 15 32  1  0
 15 33  1  0
 16 34  1  0
 22 35  1  0
 22 36  1  0
 23 37  1  0
 23 38  1  0
 24 39  1  0
M  CHG  1  13  -1
M  END
>  <UniqueID>  (8) 
8

>  <SMILES>  (8) 
NC(=O)c1cc2ccc(C3(C(=O)[O-])CC3)cc2n1C(=O)OCCO

>  <Energy>  (8) 
340.7092088825799

>  <Genealogy>  (8) 
NC(=O)c1cc2ccc(C3(C(=O)[O-])CC3)cc2n1C(=O)OCCO (protonated)
NC(=O)c1cc2ccc(C3(C(=O)[O-])CC3)cc2n1C(=O)OCCO (3D coordinates assigned)
NC(=O)c1cc2ccc(C3(C(=O)[O-])CC3)cc2n1C(=O)OCCO (nonaromatic ring conformer: 340.7092088825799 kcal/mol)

>  <smiles>  (8) 
NC(=O)c1cc2ccc(C3(C(=O)O)CC3)cc2n1C(=O)OCCO

>  <score_type>  (8) 
oracle

>  <origin>  (8) 
adg

>  <m_score__min__energy>  (8) 
-6.8600000000000003

>  <m_primary>  (8) 
energy

$$$$
8:0
     RDKit          3D

 51 54  0  0  0  0  0  0  0  0999 V2000
  138.1600  159.8310  131.1190 C   0  0  0  0  0  0  0  0  0  0  0  0
  139.6050  159.3530  131.2020 C   0  0  0  0  0  0  0  0  0  0  0  0
  140.1510  159.6320  132.4900 O   0  0  0  0  0  0  0  0  0  0  0  0
  140.1400  158.7140  133.5460 C   0  0  0  0  0  0  0  0  0  0  0  0
  139.2620  157.8120  133.6100 O   0  0  0  0  0  0  0  0  0  0  0  0
  141.1510  158.8430  134.6370 C   0  0  0  0  0  0  0  0  0  0  0  0
  142.5690  159.1660  134.2620 C   0  0  0  0  0  0  0  0  0  0  0  0
  142.9710  160.5120  134.0840 C   0  0  0  0  0  0  0  0  0  0  0  0
  144.2880  160.8180  133.7020 C   0  0  0  0  0  0  0  0  0  0  0  0
  145.1720  159.7590  133.4970 C   0  0  0  0  0  0  0  0  0  0  0  0
  146.4860  159.7690  133.0940 C   0  0  0  0  0  0  0  0  0  0  0  0
  146.8630  158.4290  133.0240 C   0  0  0  0  0  0  0  0  0  0  0  0
  148.2400  157.9700  132.7240 C   0  0  0  0  0  0  0  0  0  0  0  0
  148.4830  156.6510  132.2280 N   0  0  0  0  0  0  0  0  0  0  0  0
  149.2110  158.7560  132.8780 O   0  0  0  0  0  0  0  0  0  0  0  0
  145.8210  157.6220  133.3670 N   0  0  0  0  0  0  0  0  0  0  0  0
  145.7760  156.1870  133.3230 C   0  0  0  0  0  0  0  0  0  0  0  0
  145.6680  155.5960  132.2140 O   0  0  0  0  0  0  0  0  0  0  0  0
  145.8850  155.4480  134.5070 O   0  0  0  0  0  0  0  0  0  0  0  0
  146.2290  154.0660  134.5390 C   0  0  0  0  0  0  0  0  0  0  0  0
  147.3530  153.7850  133.5920 C   0  0  0  0  0  0  0  0  0  0  0  0
  148.4670  154.4750  133.5300 O   0  0  0  0  0  0  0  0  0  0  0  0
  149.1720  153.9360  132.5620 C   0  0  0  0  0  0  0  0  0  0  0  0
  150.3100  154.3450  132.2150 O   0  0  0  0  0  0  0  0  0  0  0  0
  148.5590  152.9250  131.9930 O   0  0  0  0  0  0  0  0  0  0  0  0
  147.4080  152.8080  132.6130 C   0  0  0  0  0  0  0  0  0  0  0  0
  146.3850  151.7650  132.3120 C   0  0  0  0  0  0  0  0  0  0  0  0
  144.7950  158.4510  133.6570 C   0  0  0  0  0  0  0  0  0  0  0  0
  143.4850  158.1180  134.0230 C   0  0  0  0  0  0  0  0  0  0  0  0
  140.9920  157.8410  135.7750 C   0  0  0  0  0  0  0  0  0  0  0  0
  140.6500  159.3060  136.0000 C   0  0  0  0  0  0  0  0  0  0  0  0
  137.7588  159.9637  132.1346 H   0  0  0  0  0  0  0  0  0  0  0  0
  138.1213  160.7898  130.5813 H   0  0  0  0  0  0  0  0  0  0  0  0
  137.5571  159.0844  130.5813 H   0  0  0  0  0  0  0  0  0  0  0  0
  139.6382  158.2683  131.0221 H   0  0  0  0  0  0  0  0  0  0  0  0
  140.1987  159.8822  130.4420 H   0  0  0  0  0  0  0  0  0  0  0  0
  142.2469  161.3240  134.2460 H   0  0  0  0  0  0  0  0  0  0  0  0
  144.6119  161.8608  133.5687 H   0  0  0  0  0  0  0  0  0  0  0  0
  147.1085  160.6486  132.8733 H   0  0  0  0  0  0  0  0  0  0  0  0
  147.7100  155.9580  132.1240 H   0  0  0  0  0  0  0  0  0  0  0  0
  149.4550  156.3510  131.9920 H   0  0  0  0  0  0  0  0  0  0  0  0
  146.5378  153.7931  135.5589 H   0  0  0  0  0  0  0  0  0  0  0  0
  145.3526  153.4736  134.2376 H   0  0  0  0  0  0  0  0  0  0  0  0
  145.9870  151.3592  133.2538 H   0  0  0  0  0  0  0  0  0  0  0  0
  145.5656  152.2122  131.7301 H   0  0  0  0  0  0  0  0  0  0  0  0
  146.8480  150.9544  131.7301 H   0  0  0  0  0  0  0  0  0  0  0  0
  143.1772  157.0666  134.1219 H   0  0  0  0  0  0  0  0  0  0  0  0
  140.1903  157.0887  135.7372 H   0  0  0  0  0  0  0  0  0  0  0  0
  141.6528  157.1124  136.2674 H   0  0  0  0  0  0  0  0  0  0  0  0
  139.6011  159.6128  136.1250 H   0  0  0  0  0  0  0  0  0  0  0  0
  140.9613  160.0748  136.7225 H   0  0  0  0  0  0  0  0  0  0  0  0
  1  2  1  0
  2  3  1  0
  3  4  1  0
  4  5  2  0
  4  6  1  0
  6  7  1  0
  7  8  2  0
  8  9  1  0
  9 10  2  0
 10 11  1  0
 11 12  2  0
 12 13  1  0
 13 14  1  0
 13 15  2  0
 12 16  1  0
 16 17  1  0
 17 18  2  0
 17 19  1  0
 19 20  1  0
 20 21  1  0
 21 22  1  0
 22 23  1  0
 23 24  2  0
 23 25  1  0
 25 26  1  0
 26 27  1  0
 16 28  1  0
 28 29  2  0
  6 30  1  0
 30 31  1  0
 31  6  1  0
 29  7  1  0
 28 10  1  0
 26 21  2  0
  1 32  1  0
  1 33  1  0
  1 34  1  0
  2 35  1  0
  2 36  1  0
  8 37  1  0
  9 38  1  0
 11 39  1  0
 14 40  1  0
 14 41  1  0
 20 42  1  0
 20 43  1  0
 27 44  1  0
 27 45  1  0
 27 46  1  0
 29 47  1  0
 30 48  1  0
 30 49  1  0
 31 50  1  0
 31 51  1  0
M  END
>  <UniqueID>  (9) 
9

>  <SMILES>  (9) 
CCOC(=O)C1(c2ccc3cc(C(N)=O)n(C(=O)OCc4oc(=O)oc4C)c3c2)CC1

>  <Energy>  (9) 
382.4398733622966

>  <Genealogy>  (9) 
CCOC(=O)C1(c2ccc3cc(C(N)=O)n(C(=O)OCc4oc(=O)oc4C)c3c2)CC1 (3D coordinates assigned)
CCOC(=O)C1(c2ccc3cc(C(N)=O)n(C(=O)OCc4oc(=O)oc4C)c3c2)CC1 (nonaromatic ring conformer: 382.4398733622966 kcal/mol)

>  <smiles>  (9) 
CCOC(=O)C1(c2ccc3cc(C(N)=O)n(C(=O)OCc4oc(=O)oc4C)c3c2)CC1

>  <score_type>  (9) 
oracle

>  <origin>  (9) 
adg

>  <m_score__min__energy>  (9) 
-8.3200000000000003

>  <m_primary>  (9) 
energy

$$$$
9:0
     RDKit          3D

 43 44  0  0  0  0  0  0  0  0999 V2000
  149.3830  152.6050  132.5280 C   0  0  0  0  0  0  0  0  0  0  0  0
  148.8650  153.0960  133.7580 O   0  0  0  0  0  0  0  0  0  0  0  0
  148.0830  154.2520  133.8360 C   0  0  0  0  0  0  0  0  0  0  0  0
  147.7380  154.7220  134.9540 O   0  0  0  0  0  0  0  0  0  0  0  0
  147.6990  154.9650  132.5800 C   0  0  0  0  0  0  0  0  0  0  0  0
  147.5740  156.4390  132.8440 C   0  0  0  0  0  0  0  0  0  0  0  0
  148.7120  157.2780  132.7500 C   0  0  0  0  0  0  0  0  0  0  0  0
  148.5970  158.6640  132.9450 C   0  0  0  0  0  0  0  0  0  0  0  0
  147.3360  159.1810  133.2290 C   0  0  0  0  0  0  0  0  0  0  0  0
  146.9360  160.4840  133.4210 C   0  0  0  0  0  0  0  0  0  0  0  0
  145.5620  160.4200  133.6420 C   0  0  0  0  0  0  0  0  0  0  0  0
  144.7360  161.6000  133.9700 C   0  0  0  0  0  0  0  0  0  0  0  0
  143.3320  161.6020  133.7260 N   0  0  0  0  0  0  0  0  0  0  0  0
  145.2680  162.6010  134.5190 O   0  0  0  0  0  0  0  0  0  0  0  0
  145.1270  159.1290  133.5810 N   0  0  0  0  0  0  0  0  0  0  0  0
  143.7730  158.6560  133.6460 C   0  0  0  0  0  0  0  0  0  0  0  0
  143.2780  158.0470  132.6610 O   0  0  0  0  0  0  0  0  0  0  0  0
  143.0120  158.9020  134.8000 O   0  0  0  0  0  0  0  0  0  0  0  0
  141.5960  158.7190  134.9410 C   0  0  0  0  0  0  0  0  0  0  0  0
  140.8430  159.4440  133.8090 C   0  0  0  0  0  0  0  0  0  0  0  0
  141.1900  159.3400  136.2860 C   0  0  0  0  0  0  0  0  0  0  0  0
  141.2400  157.2200  134.9580 C   0  0  0  0  0  0  0  0  0  0  0  0
  146.2260  158.3820  133.3300 C   0  0  0  0  0  0  0  0  0  0  0  0
  146.3080  157.0000  133.1240 C   0  0  0  0  0  0  0  0  0  0  0  0
  150.1676  151.8613  132.7314 H   0  0  0  0  0  0  0  0  0  0  0  0
  148.5732  152.1351  131.9506 H   0  0  0  0  0  0  0  0  0  0  0  0
  149.8089  153.4388  131.9506 H   0  0  0  0  0  0  0  0  0  0  0  0
  148.4708  154.7961  131.8146 H   0  0  0  0  0  0  0  0  0  0  0  0
  146.7320  154.5781  132.2261 H   0  0  0  0  0  0  0  0  0  0  0  0
  149.6948  156.8396  132.5221 H   0  0  0  0  0  0  0  0  0  0  0  0
  149.4765  159.3211  132.8755 H   0  0  0  0  0  0  0  0  0  0  0  0
  147.5673  161.3847  133.4036 H   0  0  0  0  0  0  0  0  0  0  0  0
  142.8030  160.7090  133.6180 H   0  0  0  0  0  0  0  0  0  0  0  0
  140.1149  160.1450  134.2432 H   0  0  0  0  0  0  0  0  0  0  0  0
  141.5612  159.9993  133.1878 H   0  0  0  0  0  0  0  0  0  0  0  0
  140.3153  158.7053  133.1878 H   0  0  0  0  0  0  0  0  0  0  0  0
  141.5900  158.7282  137.1080 H   0  0  0  0  0  0  0  0  0  0  0  0
  141.5964  160.3597  136.3566 H   0  0  0  0  0  0  0  0  0  0  0  0
  140.0929  159.3768  136.3566 H   0  0  0  0  0  0  0  0  0  0  0  0
  141.1579  156.8744  135.9991 H   0  0  0  0  0  0  0  0  0  0  0  0
  140.2801  157.0652  134.4435 H   0  0  0  0  0  0  0  0  0  0  0  0
  142.0278  156.6502  134.4435 H   0  0  0  0  0  0  0  0  0  0  0  0
  145.4100  156.3671  133.1787 H   0  0  0  0  0  0  0  0  0  0  0  0
  1  2  1  0
  2  3  1  0
  3  4  2  0
  3  5  1  0
  5  6  1  0
  6  7  2  0
  7  8  1  0
  8  9  2  0
  9 10  1  0
 10 11  2  0
 11 12  1  0
 12 13  1  0
 12 14  2  0
 11 15  1  0
 15 16  1  0
 16 17  2  0
 16 18  1  0
 18 19  1  0
 19 20  1  0
 19 21  1  0
 19 22  1  0
 15 23  1  0
 23 24  2  0
 24  6  1  0
 23  9  1  0
  1 25  1  0
  1 26  1  0
  1 27  1  0
  5 28  1  0
  5 29  1  0
  7 30  1  0
  8 31  1  0
 10 32  1  0
 13 33  1  0
 20 34  1  0
 20 35  1  0
 20 36  1  0
 21 37  1  0
 21 38  1  0
 21 39  1  0
 22 40  1  0
 22 41  1  0
 22 42  1  0
 24 43  1  0
M  CHG  1  13  -1
M  END
>  <UniqueID>  (10) 
10

>  <SMILES>  (10) 
COC(=O)Cc1ccc2cc(C([NH-])=O)n(C(=O)OC(C)(C)C)c2c1

>  <Energy>  (10) 
72.61213464005256

>  <Genealogy>  (10) 
COC(=O)Cc1ccc2cc(C([NH-])=O)n(C(=O)OC(C)(C)C)c2c1 (protonated)
COC(=O)Cc1ccc2cc(C([NH-])=O)n(C(=O)OC(C)(C)C)c2c1 (3D coordinates assigned)
COC(=O)Cc1ccc2cc(C([NH-])=O)n(C(=O)OC(C)(C)C)c2c1 (optimized conformer: 72.61213464005256 kcal/mol)

>  <smiles>  (10) 
COC(=O)Cc1ccc2cc(C(N)=O)n(C(=O)OC(C)(C)C)c2c1

>  <score_type>  (10) 
oracle

>  <origin>  (10) 
adg

>  <m_score__min__energy>  (10) 
-6.5199999999999996

>  <m_primary>  (10) 
energy

$$$$
10:0
     RDKit          3D

 39 41  0  0  0  0  0  0  0  0999 V2000
  143.1740  161.2200  133.7250 N   0  0  0  0  0  0  0  0  0  0  0  0
  144.5930  161.3620  133.7910 C   0  0  0  0  0  0  0  0  0  0  0  0
  145.0880  162.4710  134.1270 O   0  0  0  0  0  0  0  0  0  0  0  0
  145.4880  160.2160  133.5380 C   0  0  0  0  0  0  0  0  0  0  0  0
  146.8550  160.3500  133.3170 C   0  0  0  0  0  0  0  0  0  0  0  0
  147.3320  159.0650  133.2000 C   0  0  0  0  0  0  0  0  0  0  0  0
  148.6230  158.6140  132.9590 C   0  0  0  0  0  0  0  0  0  0  0  0
  148.8280  157.2290  132.8510 C   0  0  0  0  0  0  0  0  0  0  0  0
  147.7460  156.3210  132.9810 C   0  0  0  0  0  0  0  0  0  0  0  0
  147.9830  154.8620  132.8610 C   0  0  0  0  0  0  0  0  0  0  0  0
  147.0390  153.8450  133.0020 C   0  0  0  0  0  0  0  0  0  0  0  0
  147.5240  152.5840  132.8470 N   0  0  0  0  0  0  0  0  0  0  0  0
  148.8480  152.5690  132.5840 C   0  0  0  0  0  0  0  0  0  0  0  0
  149.4680  154.1290  132.5390 S   0  0  0  0  0  0  0  0  0  0  0  0
  146.4440  156.8230  133.2180 C   0  0  0  0  0  0  0  0  0  0  0  0
  146.2710  158.2070  133.3390 C   0  0  0  0  0  0  0  0  0  0  0  0
  145.1250  158.9010  133.5400 N   0  0  0  0  0  0  0  0  0  0  0  0
  143.7910  158.3680  133.6170 C   0  0  0  0  0  0  0  0  0  0  0  0
  143.2840  157.7970  132.6110 O   0  0  0  0  0  0  0  0  0  0  0  0
  143.0550  158.4810  134.8000 O   0  0  0  0  0  0  0  0  0  0  0  0
  141.7480  157.9330  134.9450 C   0  0  0  0  0  0  0  0  0  0  0  0
  140.6950  158.9910  134.6200 C   0  0  0  0  0  0  0  0  0  0  0  0
  140.2760  158.9390  133.1510 C   0  0  0  0  0  0  0  0  0  0  0  0
  141.1220  159.7610  132.3960 O   0  0  0  0  0  0  0  0  0  0  0  0
  142.7310  160.2810  133.6130 H   0  0  0  0  0  0  0  0  0  0  0  0
  142.5570  162.0490  133.8730 H   0  0  0  0  0  0  0  0  0  0  0  0
  147.4316  161.2844  133.2501 H   0  0  0  0  0  0  0  0  0  0  0  0
  149.4599  159.3204  132.8558 H   0  0  0  0  0  0  0  0  0  0  0  0
  149.8408  156.8432  132.6631 H   0  0  0  0  0  0  0  0  0  0  0  0
  145.9806  154.0479  133.2223 H   0  0  0  0  0  0  0  0  0  0  0  0
  149.4412  151.6571  132.4210 H   0  0  0  0  0  0  0  0  0  0  0  0
  145.5861  156.1401  133.3053 H   0  0  0  0  0  0  0  0  0  0  0  0
  141.6323  157.0818  134.2580 H   0  0  0  0  0  0  0  0  0  0  0  0
  141.6120  157.5975  135.9837 H   0  0  0  0  0  0  0  0  0  0  0  0
  139.8097  158.8180  135.2495 H   0  0  0  0  0  0  0  0  0  0  0  0
  141.1316  159.9812  134.8172 H   0  0  0  0  0  0  0  0  0  0  0  0
  140.3480  157.9040  132.7854 H   0  0  0  0  0  0  0  0  0  0  0  0
  139.2384  159.2908  133.0525 H   0  0  0  0  0  0  0  0  0  0  0  0
  141.7810  159.1570  131.9650 H   0  0  0  0  0  0  0  0  0  0  0  0
  1  2  1  0
  2  3  2  0
  2  4  1  0
  4  5  2  0
  5  6  1  0
  6  7  2  0
  7  8  1  0
  8  9  2  0
  9 10  1  0
 10 11  2  0
 11 12  1  0
 12 13  2  0
 13 14  1  0
  9 15  1  0
 15 16  2  0
 16 17  1  0
 17 18  1  0
 18 19  2  0
 18 20  1  0
 20 21  1  0
 21 22  1  0
 22 23  1  0
 23 24  1  0
 17  4  1  0
 16  6  1  0
 14 10  1  0
  1 25  1  0
  1 26  1  0
  5 27  1  0
  7 28  1  0
  8 29  1  0
 11 30  1  0
 13 31  1  0
 15 32  1  0
 21 33  1  0
 21 34  1  0
 22 35  1  0
 22 36  1  0
 23 37  1  0
 23 38  1  0
 24 39  1  0
M  END
>  <UniqueID>  (11) 
11

>  <SMILES>  (11) 
NC(=O)c1cc2ccc(-c3cncs3)cc2n1C(=O)OCCCO

>  <Energy>  (11) 
105.37568817076178

>  <Genealogy>  (11) 
NC(=O)c1cc2ccc(-c3cncs3)cc2n1C(=O)OCCCO (3D coordinates assigned)
NC(=O)c1cc2ccc(-c3cncs3)cc2n1C(=O)OCCCO (optimized conformer: 105.37568817076178 kcal/mol)

>  <smiles>  (11) 
NC(=O)c1cc2ccc(-c3cncs3)cc2n1C(=O)OCCCO

>  <score_type>  (11) 
oracle

>  <origin>  (11) 
adg

>  <m_score__min__energy>  (11) 
-6.9199999999999999

>  <m_primary>  (11) 
energy

$$$$
11:0
     RDKit          3D

 58 60  0  0  0  0  0  0  0  0999 V2000
  139.5210  156.4340  132.9670 C   0  0  0  0  0  0  0  0  0  0  0  0
  140.1360  155.4030  133.7300 O   0  0  0  0  0  0  0  0  0  0  0  0
  141.4640  155.4770  134.1650 C   0  0  0  0  0  0  0  0  0  0  0  0
  142.3800  155.8360  133.3750 O   0  0  0  0  0  0  0  0  0  0  0  0
  141.7930  155.1480  135.5840 C   0  0  0  0  0  0  0  0  0  0  0  0
  143.0070  153.8340  135.6490 S   0  0  0  0  0  0  0  0  0  0  0  0
  142.3980  152.5770  135.0940 O   0  0  0  0  0  0  0  0  0  0  0  0
  143.3910  153.5890  137.0820 O   0  0  0  0  0  0  0  0  0  0  0  0
  144.4430  154.2290  134.7370 N   0  0  0  0  0  0  0  0  0  0  0  0
  144.5900  153.3440  133.5730 C   0  0  0  0  0  0  0  0  0  0  0  0
  145.6550  153.9100  132.6150 C   0  0  0  0  0  0  0  0  0  0  0  0
  146.8180  154.6260  133.3560 C   0  0  0  0  0  0  0  0  0  0  0  0
  146.7460  156.1500  133.3200 C   0  0  0  0  0  0  0  0  0  0  0  0
  147.9550  156.8850  133.1990 C   0  0  0  0  0  0  0  0  0  0  0  0
  147.9570  158.2900  133.2450 C   0  0  0  0  0  0  0  0  0  0  0  0
  146.7400  158.9380  133.4210 C   0  0  0  0  0  0  0  0  0  0  0  0
  146.4600  160.2790  133.5540 C   0  0  0  0  0  0  0  0  0  0  0  0
  145.0800  160.3520  133.7430 C   0  0  0  0  0  0  0  0  0  0  0  0
  144.3390  161.6240  133.8650 C   0  0  0  0  0  0  0  0  0  0  0  0
  142.9280  161.6730  133.6650 N   0  0  0  0  0  0  0  0  0  0  0  0
  144.9650  162.6900  134.1070 O   0  0  0  0  0  0  0  0  0  0  0  0
  144.5320  159.1050  133.7280 N   0  0  0  0  0  0  0  0  0  0  0  0
  143.1660  158.7390  133.9740 C   0  0  0  0  0  0  0  0  0  0  0  0
  142.3440  158.7110  133.0180 O   0  0  0  0  0  0  0  0  0  0  0  0
  142.7680  158.3730  135.2640 O   0  0  0  0  0  0  0  0  0  0  0  0
  141.7300  159.0380  135.9850 C   0  0  0  0  0  0  0  0  0  0  0  0
  141.7260  158.5820  137.4460 C   0  0  0  0  0  0  0  0  0  0  0  0
  140.3900  158.7280  135.3240 C   0  0  0  0  0  0  0  0  0  0  0  0
  145.5600  158.2510  133.5300 C   0  0  0  0  0  0  0  0  0  0  0  0
  145.5280  156.8550  133.4980 C   0  0  0  0  0  0  0  0  0  0  0  0
  146.9570  154.1180  134.8030 C   0  0  0  0  0  0  0  0  0  0  0  0
  145.6390  154.2140  135.6040 C   0  0  0  0  0  0  0  0  0  0  0  0
  139.0775  157.1775  133.6456 H   0  0  0  0  0  0  0  0  0  0  0  0
  140.2763  156.9210  132.3327 H   0  0  0  0  0  0  0  0  0  0  0  0
  138.7336  156.0008  132.3327 H   0  0  0  0  0  0  0  0  0  0  0  0
  142.1987  156.0423  136.0796 H   0  0  0  0  0  0  0  0  0  0  0  0
  140.8780  154.8167  136.0969 H   0  0  0  0  0  0  0  0  0  0  0  0
  144.8988  152.3441  133.9118 H   0  0  0  0  0  0  0  0  0  0  0  0
  143.6272  153.2770  133.0452 H   0  0  0  0  0  0  0  0  0  0  0  0
  146.0727  153.0805  132.0255 H   0  0  0  0  0  0  0  0  0  0  0  0
  145.1606  154.6579  131.9777 H   0  0  0  0  0  0  0  0  0  0  0  0
  147.7239  154.3590  132.7920 H   0  0  0  0  0  0  0  0  0  0  0  0
  148.9050  156.3464  133.0672 H   0  0  0  0  0  0  0  0  0  0  0  0
  148.8930  158.8591  133.1448 H   0  0  0  0  0  0  0  0  0  0  0  0
  147.1733  161.1157  133.5187 H   0  0  0  0  0  0  0  0  0  0  0  0
  142.3640  160.7980  133.5960 H   0  0  0  0  0  0  0  0  0  0  0  0
  141.9029  160.1242  135.9664 H   0  0  0  0  0  0  0  0  0  0  0  0
  141.7337  159.4627  138.1050 H   0  0  0  0  0  0  0  0  0  0  0  0
  140.8226  157.9857  137.6415 H   0  0  0  0  0  0  0  0  0  0  0  0
  142.6188  157.9699  137.6415 H   0  0  0  0  0  0  0  0  0  0  0  0
  139.6304  158.5523  136.0999 H   0  0  0  0  0  0  0  0  0  0  0  0
  140.0844  159.5792  134.6978 H   0  0  0  0  0  0  0  0  0  0  0  0
  140.4893  157.8291  134.6978 H   0  0  0  0  0  0  0  0  0  0  0  0
  144.5772  156.3130  133.6086 H   0  0  0  0  0  0  0  0  0  0  0  0
  147.2754  153.0654  134.7762 H   0  0  0  0  0  0  0  0  0  0  0  0
  147.6967  154.7572  135.3073 H   0  0  0  0  0  0  0  0  0  0  0  0
  145.5735  153.3475  136.2785 H   0  0  0  0  0  0  0  0  0  0  0  0
  145.6573  155.1629  136.1601 H   0  0  0  0  0  0  0  0  0  0  0  0
  1  2  1  0
  2  3  1  0
  3  4  2  0
  3  5  1  0
  5  6  1  0
  6  7  2  0
  6  8  2  0
  6  9  1  0
  9 10  1  0
 10 11  1  0
 11 12  1  0
 12 13  1  0
 13 14  2  0
 14 15  1  0
 15 16  2  0
 16 17  1  0
 17 18  2  0
 18 19  1  0
 19 20  1  0
 19 21  2  0
 18 22  1  0
 22 23  1  0
 23 24  2  0
 23 25  1  0
 25 26  1  0
 26 27  1  0
 26 28  1  0
 22 29  1  0
 29 30  2  0
 12 31  1  0
 31 32  1  0
 32  9  1  0
 30 13  1  0
 29 16  1  0
  1 33  1  0
  1 34  1  0
  1 35  1  0
  5 36  1  0
  5 37  1  0
 10 38  1  0
 10 39  1  0
 11 40  1  0
 11 41  1  0
 12 42  1  0
 14 43  1  0
 15 44  1  0
 17 45  1  0
 20 46  1  0
 26 47  1  0
 27 48  1  0
 27 49  1  0
 27 50  1  0
 28 51  1  0
 28 52  1  0
 28 53  1  0
 30 54  1  0
 31 55  1  0
 31 56  1  0
 32 57  1  0
 32 58  1  0
M  CHG  1  20  -1
M  END
>  <UniqueID>  (12) 
12

>  <SMILES>  (12) 
COC(=O)CS(=O)(=O)N1CCC(c2ccc3cc(C([NH-])=O)n(C(=O)OC(C)C)c3c2)CC1

>  <Energy>  (12) 
90.65087356203473

>  <Genealogy>  (12) 
COC(=O)CS(=O)(=O)N1CCC(c2ccc3cc(C([NH-])=O)n(C(=O)OC(C)C)c3c2)CC1 (protonated)
COC(=O)CS(=O)(=O)N1CCC(c2ccc3cc(C([NH-])=O)n(C(=O)OC(C)C)c3c2)CC1 (3D coordinates assigned)
COC(=O)CS(=O)(=O)N1CCC(c2ccc3cc(C([NH-])=O)n(C(=O)OC(C)C)c3c2)CC1 (nonaromatic ring conformer: 90.65087356203473 kcal/mol)

>  <smiles>  (12) 
COC(=O)CS(=O)(=O)N1CCC(c2ccc3cc(C(N)=O)n(C(=O)OC(C)C)c3c2)CC1

>  <score_type>  (12) 
oracle

>  <origin>  (12) 
adg

>  <m_score__min__energy>  (12) 
-9.3499999999999996

>  <m_primary>  (12) 
energy

$$$$
12:0
     RDKit          3D

 43 45  0  0  0  0  0  0  0  0999 V2000
  141.4220  161.0030  133.6920 N   0  0  0  0  0  0  0  0  0  0  0  0
  142.7040  160.3840  133.7600 C   0  0  0  0  0  0  0  0  0  0  0  0
  143.7360  161.1010  133.7490 O   0  0  0  0  0  0  0  0  0  0  0  0
  142.8040  158.9150  133.8880 C   0  0  0  0  0  0  0  0  0  0  0  0
  143.9040  158.1800  133.4510 C   0  0  0  0  0  0  0  0  0  0  0  0
  143.5670  156.8610  133.6520 C   0  0  0  0  0  0  0  0  0  0  0  0
  144.2870  155.7000  133.3820 C   0  0  0  0  0  0  0  0  0  0  0  0
  143.6910  154.4670  133.6950 C   0  0  0  0  0  0  0  0  0  0  0  0
  142.4040  154.4170  134.2850 C   0  0  0  0  0  0  0  0  0  0  0  0
  141.7560  153.0940  134.5840 C   0  0  0  0  0  0  0  0  0  0  0  0
  141.7080  152.2600  133.3450 C   0  0  0  0  0  0  0  0  0  0  0  0
  141.4020  152.7940  132.2440 O   0  0  0  0  0  0  0  0  0  0  0  0
  141.9720  150.8880  133.4380 O   0  0  0  0  0  0  0  0  0  0  0  0
  142.0120  150.0020  132.3540 C   0  0  0  0  0  0  0  0  0  0  0  0
  143.1110  149.5690  131.9150 O   0  0  0  0  0  0  0  0  0  0  0  0
  140.7440  149.5820  131.7130 C   0  0  0  0  0  0  0  0  0  0  0  0
  140.7430  148.6110  130.6980 C   0  0  0  0  0  0  0  0  0  0  0  0
  139.5470  148.2440  130.0800 C   0  0  0  0  0  0  0  0  0  0  0  0
  138.3520  148.8400  130.4860 C   0  0  0  0  0  0  0  0  0  0  0  0
  138.3630  149.7730  131.4770 N   0  0  0  0  0  0  0  0  0  0  0  0
  139.5150  150.1530  132.0920 C   0  0  0  0  0  0  0  0  0  0  0  0
  141.7040  155.6160  134.5440 C   0  0  0  0  0  0  0  0  0  0  0  0
  142.3090  156.8300  134.1980 C   0  0  0  0  0  0  0  0  0  0  0  0
  141.8260  158.0830  134.3510 N   0  0  0  0  0  0  0  0  0  0  0  0
  140.5660  158.4500  134.9410 C   0  0  0  0  0  0  0  0  0  0  0  0
  140.5290  159.3420  135.8320 O   0  0  0  0  0  0  0  0  0  0  0  0
  139.3930  157.8230  134.5050 O   0  0  0  0  0  0  0  0  0  0  0  0
  139.1090  157.4790  133.1750 C   0  0  0  0  0  0  0  0  0  0  0  0
  139.1100  156.2770  132.7920 O   0  0  0  0  0  0  0  0  0  0  0  0
  138.8250  158.5400  132.2080 C   0  0  0  0  0  0  0  0  0  0  0  0
  139.1610  159.7330  132.4540 O   0  0  0  0  0  0  0  0  0  0  0  0
  140.5600  160.4750  133.9480 H   0  0  0  0  0  0  0  0  0  0  0  0
  144.8434  158.5714  133.0335 H   0  0  0  0  0  0  0  0  0  0  0  0
  145.2919  155.7470  132.9371 H   0  0  0  0  0  0  0  0  0  0  0  0
  144.2286  153.5317  133.4800 H   0  0  0  0  0  0  0  0  0  0  0  0
  142.3384  152.5685  135.3551 H   0  0  0  0  0  0  0  0  0  0  0  0
  140.7312  153.2659  134.9450 H   0  0  0  0  0  0  0  0  0  0  0  0
  141.6874  148.1387  130.3896 H   0  0  0  0  0  0  0  0  0  0  0  0
  139.5460  147.4904  129.2787 H   0  0  0  0  0  0  0  0  0  0  0  0
  137.4036  148.5564  130.0063 H   0  0  0  0  0  0  0  0  0  0  0  0
  139.4859  150.9102  132.8894 H   0  0  0  0  0  0  0  0  0  0  0  0
  140.7064  155.5963  135.0070 H   0  0  0  0  0  0  0  0  0  0  0  0
  138.3168  158.2979  131.2629 H   0  0  0  0  0  0  0  0  0  0  0  0
  1  2  1  0
  2  3  2  0
  2  4  1  0
  4  5  2  0
  5  6  1  0
  6  7  2  0
  7  8  1  0
  8  9  2  0
  9 10  1  0
 10 11  1  0
 11 12  2  0
 11 13  1  0
 13 14  1  0
 14 15  2  0
 14 16  1  0
 16 17  2  0
 17 18  1  0
 18 19  2  0
 19 20  1  0
 20 21  2  0
  9 22  1  0
 22 23  2  0
 23 24  1  0
 24 25  1  0
 25 26  2  0
 25 27  1  0
 27 28  1  0
 28 29  2  0
 28 30  1  0
 30 31  2  0
 24  4  1  0
 23  6  1  0
 21 16  1  0
  1 32  1  0
  5 33  1  0
  7 34  1  0
  8 35  1  0
 10 36  1  0
 10 37  1  0
 17 38  1  0
 18 39  1  0
 19 40  1  0
 21 41  1  0
 22 42  1  0
 30 43  1  0
M  CHG  1   1  -1
M  END
>  <UniqueID>  (13) 
13

>  <SMILES>  (13) 
[NH-]C(=O)c1cc2ccc(CC(=O)OC(=O)c3cccnc3)cc2n1C(=O)OC(=O)C=O

>  <Energy>  (13) 
84.32855813269987

>  <Genealogy>  (13) 
[NH-]C(=O)c1cc2ccc(CC(=O)OC(=O)c3cccnc3)cc2n1C(=O)OC(=O)C=O (protonated)
[NH-]C(=O)c1cc2ccc(CC(=O)OC(=O)c3cccnc3)cc2n1C(=O)OC(=O)C=O (3D coordinates assigned)
[NH-]C(=O)c1cc2ccc(CC(=O)OC(=O)c3cccnc3)cc2n1C(=O)OC(=O)C=O (optimized conformer: 84.32855813269987 kcal/mol)

>  <smiles>  (13) 
NC(=O)c1cc2ccc(CC(=O)OC(=O)c3cccnc3)cc2n1C(=O)OC(=O)C=O

>  <score_type>  (13) 
oracle

>  <origin>  (13) 
adg

>  <m_score__min__energy>  (13) 
-8.3499999999999996

>  <m_primary>  (13) 
energy

$$$$
13:0
     RDKit          3D

 59 61  0  0  0  0  0  0  0  0999 V2000
  140.2350  154.8040  133.0390 C   0  0  0  0  0  0  0  0  0  0  0  0
  141.3680  154.0310  133.5760 N   0  0  0  0  0  0  0  0  0  0  0  0
  141.3500  152.6760  133.0070 C   0  0  0  0  0  0  0  0  0  0  0  0
  142.6540  154.7010  133.2820 C   0  0  0  0  0  0  0  0  0  0  0  0
  143.7180  153.6600  132.8870 C   0  0  0  0  0  0  0  0  0  0  0  0
  144.9290  154.2420  132.2210 C   0  0  0  0  0  0  0  0  0  0  0  0
  145.8700  153.9360  133.3140 N   0  0  0  0  0  0  0  0  0  0  0  0
  147.2400  154.1810  133.6260 C   0  0  0  0  0  0  0  0  0  0  0  0
  147.7120  153.7500  134.7120 O   0  0  0  0  0  0  0  0  0  0  0  0
  148.0690  155.0380  132.7130 C   0  0  0  0  0  0  0  0  0  0  0  0
  147.7880  156.5080  132.8910 C   0  0  0  0  0  0  0  0  0  0  0  0
  148.8540  157.4420  132.8380 C   0  0  0  0  0  0  0  0  0  0  0  0
  148.6060  158.8170  132.9830 C   0  0  0  0  0  0  0  0  0  0  0  0
  147.2910  159.2260  133.1900 C   0  0  0  0  0  0  0  0  0  0  0  0
  146.7770  160.4900  133.3570 C   0  0  0  0  0  0  0  0  0  0  0  0
  145.4080  160.3070  133.5450 C   0  0  0  0  0  0  0  0  0  0  0  0
  144.4840  161.4120  133.8800 C   0  0  0  0  0  0  0  0  0  0  0  0
  143.0690  161.2580  133.7470 N   0  0  0  0  0  0  0  0  0  0  0  0
  144.9490  162.4900  134.3440 O   0  0  0  0  0  0  0  0  0  0  0  0
  145.0860  158.9830  133.4820 N   0  0  0  0  0  0  0  0  0  0  0  0
  143.7870  158.3780  133.6020 C   0  0  0  0  0  0  0  0  0  0  0  0
  143.2640  157.8140  132.6020 O   0  0  0  0  0  0  0  0  0  0  0  0
  143.1360  158.3820  134.8440 O   0  0  0  0  0  0  0  0  0  0  0  0
  141.7880  158.7060  135.0430 C   0  0  0  0  0  0  0  0  0  0  0  0
  141.4520  159.7200  135.7170 O   0  0  0  0  0  0  0  0  0  0  0  0
  140.7350  157.8300  134.4350 C   0  0  0  0  0  0  0  0  0  0  0  0
  140.3670  158.2270  132.9880 C   0  0  2  0  0  0  0  0  0  0  0  0
  141.2320  159.2940  132.4650 N   0  0  0  0  0  0  0  0  0  0  0  0
  138.9160  158.6090  132.8720 C   0  0  0  0  0  0  0  0  0  0  0  0
  138.0140  157.9050  133.4060 O   0  0  0  0  0  0  0  0  0  0  0  0
  138.5530  159.7170  132.1120 O   0  0  0  0  0  0  0  0  0  0  0  0
  146.2490  158.3340  133.2660 C   0  0  0  0  0  0  0  0  0  0  0  0
  146.4620  156.9600  133.0960 C   0  0  0  0  0  0  0  0  0  0  0  0
  144.6960  153.3420  133.9770 C   0  0  0  0  0  0  0  0  0  0  0  0
  139.6406  155.2095  133.8710 H   0  0  0  0  0  0  0  0  0  0  0  0
  140.6153  155.6318  132.4225 H   0  0  0  0  0  0  0  0  0  0  0  0
  139.6029  154.1480  132.4225 H   0  0  0  0  0  0  0  0  0  0  0  0
  141.3402  151.9365  133.8213 H   0  0  0  0  0  0  0  0  0  0  0  0
  140.4501  152.5506  132.3869 H   0  0  0  0  0  0  0  0  0  0  0  0
  142.2462  152.5268  132.3869 H   0  0  0  0  0  0  0  0  0  0  0  0
  142.5133  155.4095  132.4524 H   0  0  0  0  0  0  0  0  0  0  0  0
  142.9929  155.2374  134.1806 H   0  0  0  0  0  0  0  0  0  0  0  0
  143.0508  152.9212  132.4189 H   0  0  0  0  0  0  0  0  0  0  0  0
  145.1860  153.7281  131.2830 H   0  0  0  0  0  0  0  0  0  0  0  0
  144.8656  155.2900  131.8929 H   0  0  0  0  0  0  0  0  0  0  0  0
  149.1325  154.8536  132.9249 H   0  0  0  0  0  0  0  0  0  0  0  0
  147.8116  154.7708  131.6775 H   0  0  0  0  0  0  0  0  0  0  0  0
  149.8833  157.0868  132.6821 H   0  0  0  0  0  0  0  0  0  0  0  0
  149.4259  159.5487  132.9345 H   0  0  0  0  0  0  0  0  0  0  0  0
  147.3280  161.4420  133.3449 H   0  0  0  0  0  0  0  0  0  0  0  0
  142.6070  160.3360  133.9280 H   0  0  0  0  0  0  0  0  0  0  0  0
  141.1042  156.7938  134.4291 H   0  0  0  0  0  0  0  0  0  0  0  0
  139.8262  157.9441  135.0441 H   0  0  0  0  0  0  0  0  0  0  0  0
  140.5366  157.3353  132.3666 H   0  0  0  0  0  0  0  0  0  0  0  0
  141.6940  158.9630  131.5880 H   0  0  0  0  0  0  0  0  0  0  0  0
  141.9850  159.5230  133.1550 H   0  0  0  0  0  0  0  0  0  0  0  0
  145.6214  156.2510  133.1211 H   0  0  0  0  0  0  0  0  0  0  0  0
  144.8061  152.2607  134.1461 H   0  0  0  0  0  0  0  0  0  0  0  0
  144.4549  153.7048  134.9871 H   0  0  0  0  0  0  0  0  0  0  0  0
  1  2  1  0
  2  3  1  0
  2  4  1  0
  4  5  1  0
  5  6  1  0
  6  7  1  0
  7  8  1  0
  8  9  2  0
  8 10  1  0
 10 11  1  0
 11 12  2  0
 12 13  1  0
 13 14  2  0
 14 15  1  0
 15 16  2  0
 16 17  1  0
 17 18  1  0
 17 19  2  0
 16 20  1  0
 20 21  1  0
 21 22  2  0
 21 23  1  0
 23 24  1  0
 24 25  2  0
 24 26  1  0
 26 27  1  0
 27 28  1  0
 27 29  1  0
 29 30  2  0
 29 31  1  0
 20 32  1  0
 32 33  2  0
  7 34  1  0
 34  5  1  0
 33 11  1  0
 32 14  1  0
  1 35  1  0
  1 36  1  0
  1 37  1  0
  3 38  1  0
  3 39  1  0
  3 40  1  0
  4 41  1  0
  4 42  1  0
  5 43  1  0
  6 44  1  0
  6 45  1  0
 10 46  1  0
 10 47  1  0
 12 48  1  0
 13 49  1  0
 15 50  1  0
 18 51  1  0
 26 52  1  0
 26 53  1  0
 27 54  1  6
 28 55  1  0
 28 56  1  0
 33 57  1  0
 34 58  1  0
 34 59  1  0
M  CHG  2  18  -1  31  -1
M  END
>  <UniqueID>  (14) 
14

>  <SMILES>  (14) 
CN(C)CC1CN(C(=O)Cc2ccc3cc(C([NH-])=O)n(C(=O)OC(=O)C[C@H](N)C(=O)[O-])c3c2)C1

>  <Energy>  (14) 
140.402975795161

>  <Genealogy>  (14) 
CN(C)CC1CN(C(=O)Cc2ccc3cc(C([NH-])=O)n(C(=O)OC(=O)CC(N)C(=O)[O-])c3c2)C1 (protonated)
CN(C)CC1CN(C(=O)Cc2ccc3cc(C([NH-])=O)n(C(=O)OC(=O)C[C@H](N)C(=O)[O-])c3c2)C1 (chirality)
CN(C)CC1CN(C(=O)Cc2ccc3cc(C([NH-])=O)n(C(=O)OC(=O)C[C@H](N)C(=O)[O-])c3c2)C1 (3D coordinates assigned)
CN(C)CC1CN(C(=O)Cc2ccc3cc(C([NH-])=O)n(C(=O)OC(=O)C[C@H](N)C(=O)[O-])c3c2)C1 (nonaromatic ring conformer: 140.402975795161 kcal/mol)

>  <smiles>  (14) 
CN(C)CC1CN(C(=O)Cc2ccc3cc(C(N)=O)n(C(=O)OC(=O)CC(N)C(=O)O)c3c2)C1

>  <score_type>  (14) 
oracle

>  <origin>  (14) 
adg

>  <m_score__min__energy>  (14) 
-8.6999999999999993

>  <m_primary>  (14) 
energy

$$$$
14:0
     RDKit          3D

 30 31  0  0  0  0  0  0  0  0999 V2000
  145.9410  162.7290  134.8420 N   0  0  0  0  0  0  0  0  0  0  0  0
  145.2370  161.7300  134.1050 C   0  0  0  0  0  0  0  0  0  0  0  0
  144.0240  161.9130  133.8230 O   0  0  0  0  0  0  0  0  0  0  0  0
  145.9240  160.4800  133.7210 C   0  0  0  0  0  0  0  0  0  0  0  0
  147.2920  160.4020  133.4700 C   0  0  0  0  0  0  0  0  0  0  0  0
  147.5470  159.0700  133.2440 C   0  0  0  0  0  0  0  0  0  0  0  0
  148.7440  158.4280  132.9420 C   0  0  0  0  0  0  0  0  0  0  0  0
  148.7120  157.0380  132.7400 C   0  0  0  0  0  0  0  0  0  0  0  0
  147.4920  156.3230  132.8310 C   0  0  0  0  0  0  0  0  0  0  0  0
  147.4780  154.8300  132.6260 C   0  0  0  0  0  0  0  0  0  0  0  0
  148.0790  154.0760  133.8190 C   0  0  0  0  0  0  0  0  0  0  0  0
  147.3380  154.5540  135.3760 S   0  0  0  0  0  0  0  0  0  0  0  0
  147.3850  153.4050  136.3430 O   0  0  0  0  0  0  0  0  0  0  0  0
  148.0680  155.7310  135.9590 O   0  0  0  0  0  0  0  0  0  0  0  0
  145.7400  154.9770  135.1090 F   0  0  0  0  0  0  0  0  0  0  0  0
  146.2970  157.0100  133.1380 C   0  0  0  0  0  0  0  0  0  0  0  0
  146.3620  158.3910  133.3560 C   0  0  0  0  0  0  0  0  0  0  0  0
  145.3530  159.2430  133.6470 N   0  0  0  0  0  0  0  0  0  0  0  0
  143.9620  158.9080  133.7770 C   0  0  0  0  0  0  0  0  0  0  0  0
  143.3290  159.2090  134.8220 O   0  0  0  0  0  0  0  0  0  0  0  0
  143.3080  158.2220  132.7600 O   0  0  0  0  0  0  0  0  0  0  0  0
  146.9840  162.7350  134.8740 H   0  0  0  0  0  0  0  0  0  0  0  0
  148.0152  161.2307  133.4557 H   0  0  0  0  0  0  0  0  0  0  0  0
  149.6857  158.9911  132.8639 H   0  0  0  0  0  0  0  0  0  0  0  0
  149.6430  156.4996  132.5090 H   0  0  0  0  0  0  0  0  0  0  0  0
  146.4375  154.5012  132.4868 H   0  0  0  0  0  0  0  0  0  0  0  0
  148.0907  154.6048  131.7406 H   0  0  0  0  0  0  0  0  0  0  0  0
  147.9219  152.9975  133.6700 H   0  0  0  0  0  0  0  0  0  0  0  0
  149.1491  154.3261  133.8676 H   0  0  0  0  0  0  0  0  0  0  0  0
  145.3391  156.4732  133.2041 H   0  0  0  0  0  0  0  0  0  0  0  0
  1  2  1  0
  2  3  2  0
  2  4  1  0
  4  5  2  0
  5  6  1  0
  6  7  2  0
  7  8  1  0
  8  9  2  0
  9 10  1  0
 10 11  1  0
 11 12  1  0
 12 13  2  0
 12 14  2  0
 12 15  1  0
  9 16  1  0
 16 17  2  0
 17 18  1  0
 18 19  1  0
 19 20  2  0
 19 21  1  0
 18  4  1  0
 17  6  1  0
  1 22  1  0
  5 23  1  0
  7 24  1  0
  8 25  1  0
 10 26  1  0
 10 27  1  0
 11 28  1  0
 11 29  1  0
 16 30  1  0
M  CHG  2   1  -1  21  -1
M  END
>  <UniqueID>  (15) 
15

>  <SMILES>  (15) 
[NH-]C(=O)c1cc2ccc(CCS(=O)(=O)F)cc2n1C(=O)[O-]

>  <Energy>  (15) 
63.61830626025329

>  <Genealogy>  (15) 
[NH-]C(=O)c1cc2ccc(CCS(=O)(=O)F)cc2n1C(=O)[O-] (protonated)
[NH-]C(=O)c1cc2ccc(CCS(=O)(=O)F)cc2n1C(=O)[O-] (3D coordinates assigned)
[NH-]C(=O)c1cc2ccc(CCS(=O)(=O)F)cc2n1C(=O)[O-] (optimized conformer: 63.61830626025329 kcal/mol)

>  <smiles>  (15) 
NC(=O)c1cc2ccc(CCS(=O)(=O)F)cc2n1C(=O)O

>  <score_type>  (15) 
oracle

>  <origin>  (15) 
adg

>  <m_score__min__energy>  (15) 
-7.4699999999999998

>  <m_primary>  (15) 
energy

$$$$
15:0
     RDKit          3D

 38 40  0  0  0  0  0  0  0  0999 V2000
  140.8880  160.0230  132.7680 N   0  0  0  0  0  0  0  0  0  0  0  0
  141.7300  159.8790  133.9090 C   0  0  0  0  0  0  0  0  0  0  0  0
  141.2760  160.1650  135.0490 O   0  0  0  0  0  0  0  0  0  0  0  0
  143.1020  159.3470  133.7810 C   0  0  0  0  0  0  0  0  0  0  0  0
  143.3890  157.9870  133.6800 C   0  0  0  0  0  0  0  0  0  0  0  0
  144.7480  157.9120  133.4880 C   0  0  0  0  0  0  0  0  0  0  0  0
  145.5700  156.8010  133.3270 C   0  0  0  0  0  0  0  0  0  0  0  0
  146.9490  157.0180  133.1690 C   0  0  0  0  0  0  0  0  0  0  0  0
  147.4800  158.3310  133.1920 C   0  0  0  0  0  0  0  0  0  0  0  0
  148.9560  158.5520  132.9980 C   0  0  0  0  0  0  0  0  0  0  0  0
  149.2180  159.9750  132.4650 C   0  0  0  0  0  0  0  0  0  0  0  0
  148.7880  160.2480  130.9980 C   0  0  0  0  0  0  0  0  0  0  0  0
  147.4020  160.4630  130.9040 O   0  0  0  0  0  0  0  0  0  0  0  0
  149.5830  161.3060  130.2200 C   0  0  0  0  0  0  0  0  0  0  0  0
  150.0500  160.2300  129.2460 C   0  0  0  0  0  0  0  0  0  0  0  0
  149.2300  159.1820  129.9910 C   0  0  0  0  0  0  0  0  0  0  0  0
  146.6130  159.4360  133.3460 C   0  0  0  0  0  0  0  0  0  0  0  0
  145.2420  159.1920  133.4820 C   0  0  0  0  0  0  0  0  0  0  0  0
  144.2430  160.0850  133.6630 N   0  0  0  0  0  0  0  0  0  0  0  0
  144.3900  161.5080  133.7940 C   0  0  0  0  0  0  0  0  0  0  0  0
  145.4420  161.9980  134.2820 O   0  0  0  0  0  0  0  0  0  0  0  0
  143.3830  162.3600  133.3580 O   0  0  0  0  0  0  0  0  0  0  0  0
  141.2460  159.8240  131.8080 H   0  0  0  0  0  0  0  0  0  0  0  0
  142.6779  157.1500  133.7410 H   0  0  0  0  0  0  0  0  0  0  0  0
  145.1526  155.7833  133.3235 H   0  0  0  0  0  0  0  0  0  0  0  0
  147.6227  156.1603  133.0261 H   0  0  0  0  0  0  0  0  0  0  0  0
  149.4718  158.4245  133.9612 H   0  0  0  0  0  0  0  0  0  0  0  0
  149.3346  157.8210  132.2684 H   0  0  0  0  0  0  0  0  0  0  0  0
  148.6746  160.6805  133.1107 H   0  0  0  0  0  0  0  0  0  0  0  0
  150.3110  160.0978  132.4789 H   0  0  0  0  0  0  0  0  0  0  0  0
  147.1540  161.0640  131.6550 H   0  0  0  0  0  0  0  0  0  0  0  0
  148.9611  162.0889  129.7613 H   0  0  0  0  0  0  0  0  0  0  0  0
  150.3126  161.9477  130.7356 H   0  0  0  0  0  0  0  0  0  0  0  0
  149.7266  160.3958  128.2078 H   0  0  0  0  0  0  0  0  0  0  0  0
  151.1245  160.0702  129.0728 H   0  0  0  0  0  0  0  0  0  0  0  0
  148.4071  158.7523  129.4009 H   0  0  0  0  0  0  0  0  0  0  0  0
  149.6991  158.2489  130.3364 H   0  0  0  0  0  0  0  0  0  0  0  0
  147.0064  160.4632  133.3586 H   0  0  0  0  0  0  0  0  0  0  0  0
  1  2  1  0
  2  3  2  0
  2  4  1  0
  4  5  2  0
  5  6  1  0
  6  7  2  0
  7  8  1  0
  8  9  2  0
  9 10  1  0
 10 11  1  0
 11 12  1  0
 12 13  1  0
 12 14  1  0
 14 15  1  0
 15 16  1  0
  9 17  1  0
 17 18  2  0
 18 19  1  0
 19 20  1  0
 20 21  2  0
 20 22  1  0
 19  4  1  0
 18  6  1  0
 16 12  1  0
  1 23  1  0
  5 24  1  0
  7 25  1  0
  8 26  1  0
 10 27  1  0
 10 28  1  0
 11 29  1  0
 11 30  1  0
 13 31  1  0
 14 32  1  0
 14 33  1  0
 15 34  1  0
 15 35  1  0
 16 36  1  0
 16 37  1  0
 17 38  1  0
M  CHG  2   1  -1  22  -1
M  END
>  <UniqueID>  (16) 
16

>  <SMILES>  (16) 
[NH-]C(=O)c1cc2ccc(CCC3(O)CCC3)cc2n1C(=O)[O-]

>  <Energy>  (16) 
139.8921221899069

>  <Genealogy>  (16) 
[NH-]C(=O)c1cc2ccc(CCC3(O)CCC3)cc2n1C(=O)[O-] (protonated)
[NH-]C(=O)c1cc2ccc(CCC3(O)CCC3)cc2n1C(=O)[O-] (3D coordinates assigned)
[NH-]C(=O)c1cc2ccc(CCC3(O)CCC3)cc2n1C(=O)[O-] (nonaromatic ring conformer: 139.8921221899069 kcal/mol)

>  <smiles>  (16) 
NC(=O)c1cc2ccc(CCC3(O)CCC3)cc2n1C(=O)O

>  <score_type>  (16) 
oracle

>  <origin>  (16) 
adg

>  <m_score__min__energy>  (16) 
-8.2400000000000002

>  <m_primary>  (16) 
energy

$$$$
16:0
     RDKit          3D

 39 41  0  0  0  0  0  0  0  0999 V2000
  140.9340  151.1200  140.3730 C   0  0  0  0  0  0  0  0  0  0  0  0
  140.2770  150.8730  139.1350 O   0  0  0  0  0  0  0  0  0  0  0  0
  140.7430  151.3830  137.9200 C   0  0  0  0  0  0  0  0  0  0  0  0
  140.6230  150.7150  136.8560 O   0  0  0  0  0  0  0  0  0  0  0  0
  141.3760  152.7070  137.8850 C   0  0  0  0  0  0  0  0  0  0  0  0
  142.6120  153.0090  137.3400 C   0  0  0  0  0  0  0  0  0  0  0  0
  142.8040  154.3600  137.5490 C   0  0  0  0  0  0  0  0  0  0  0  0
  141.7340  154.8830  138.1820 N   0  0  0  0  0  0  0  0  0  0  0  0
  141.5950  156.2600  138.6450 C   0  0  0  0  0  0  0  0  0  0  0  0
  141.2430  157.1540  137.4890 C   0  0  0  0  0  0  0  0  0  0  0  0
  141.3110  158.5620  137.6340 C   0  0  0  0  0  0  0  0  0  0  0  0
  141.0140  159.4060  136.5510 C   0  0  0  0  0  0  0  0  0  0  0  0
  140.6760  158.8170  135.3370 C   0  0  0  0  0  0  0  0  0  0  0  0
  140.3200  159.3990  134.1420 C   0  0  0  0  0  0  0  0  0  0  0  0
  140.0840  158.3380  133.2730 C   0  0  0  0  0  0  0  0  0  0  0  0
  139.7380  158.5190  131.8500 C   0  0  0  0  0  0  0  0  0  0  0  0
  138.6140  157.8510  131.2720 N   0  0  0  0  0  0  0  0  0  0  0  0
  140.4770  159.2270  131.1170 O   0  0  0  0  0  0  0  0  0  0  0  0
  140.2720  157.1450  133.9050 N   0  0  0  0  0  0  0  0  0  0  0  0
  140.0110  155.8320  133.3800 C   0  0  0  0  0  0  0  0  0  0  0  0
  140.9400  154.9860  133.2810 O   0  0  0  0  0  0  0  0  0  0  0  0
  138.7280  155.4790  132.9800 O   0  0  0  0  0  0  0  0  0  0  0  0
  140.6370  157.4560  135.1700 C   0  0  0  0  0  0  0  0  0  0  0  0
  140.9070  156.5910  136.2390 C   0  0  0  0  0  0  0  0  0  0  0  0
  140.8620  153.8800  138.4020 C   0  0  0  0  0  0  0  0  0  0  0  0
  140.2588  150.8662  141.2035 H   0  0  0  0  0  0  0  0  0  0  0  0
  141.8416  150.5017  140.4362 H   0  0  0  0  0  0  0  0  0  0  0  0
  141.2095  152.1831  140.4362 H   0  0  0  0  0  0  0  0  0  0  0  0
  143.3021  152.3128  136.8409 H   0  0  0  0  0  0  0  0  0  0  0  0
  143.6968  154.9258  137.2446 H   0  0  0  0  0  0  0  0  0  0  0  0
  140.7987  156.3118  139.4021 H   0  0  0  0  0  0  0  0  0  0  0  0
  142.5470  156.5928  139.0841 H   0  0  0  0  0  0  0  0  0  0  0  0
  141.5986  158.9975  138.6023 H   0  0  0  0  0  0  0  0  0  0  0  0
  141.0477  160.5001  136.6597 H   0  0  0  0  0  0  0  0  0  0  0  0
  140.2392  160.4735  133.9208 H   0  0  0  0  0  0  0  0  0  0  0  0
  138.0820  157.1300  131.8080 H   0  0  0  0  0  0  0  0  0  0  0  0
  138.3630  158.0180  130.2730 H   0  0  0  0  0  0  0  0  0  0  0  0
  140.8583  155.5000  136.1072 H   0  0  0  0  0  0  0  0  0  0  0  0
  139.8930  153.9796  138.9130 H   0  0  0  0  0  0  0  0  0  0  0  0
  1  2  1  0
  2  3  1  0
  3  4  2  0
  3  5  1  0
  5  6  1  0
  6  7  2  0
  7  8  1  0
  8  9  1  0
  9 10  1  0
 10 11  2  0
 11 12  1  0
 12 13  2  0
 13 14  1  0
 14 15  2  0
 15 16  1  0
 16 17  1  0
 16 18  2  0
 15 19  1  0
 19 20  1  0
 20 21  2  0
 20 22  1  0
 19 23  1  0
 23 24  2  0
  8 25  1  0
 25  5  2  0
 24 10  1  0
 23 13  1  0
  1 26  1  0
  1 27  1  0
  1 28  1  0
  6 29  1  0
  7 30  1  0
  9 31  1  0
  9 32  1  0
 11 33  1  0
 12 34  1  0
 14 35  1  0
 17 36  1  0
 17 37  1  0
 24 38  1  0
 25 39  1  0
M  CHG  1  22  -1
M  END
>  <UniqueID>  (17) 
17

>  <SMILES>  (17) 
COC(=O)c1ccn(Cc2ccc3cc(C(N)=O)n(C(=O)[O-])c3c2)c1

>  <Energy>  (17) 
102.16920128229502

>  <Genealogy>  (17) 
COC(=O)c1ccn(Cc2ccc3cc(C(N)=O)n(C(=O)[O-])c3c2)c1 (protonated)
COC(=O)c1ccn(Cc2ccc3cc(C(N)=O)n(C(=O)[O-])c3c2)c1 (3D coordinates assigned)
COC(=O)c1ccn(Cc2ccc3cc(C(N)=O)n(C(=O)[O-])c3c2)c1 (optimized conformer: 102.16920128229502 kcal/mol)

>  <smiles>  (17) 
COC(=O)c1ccn(Cc2ccc3cc(C(N)=O)n(C(=O)O)c3c2)c1

>  <score_type>  (17) 
oracle

>  <origin>  (17) 
adg

>  <m_score__min__energy>  (17) 
-7.3600000000000003

>  <m_primary>  (17) 
energy

$$$$
17:0
     RDKit          3D

 44 46  0  0  0  0  0  0  0  0999 V2000
  138.7970  160.0890  131.8260 C   0  0  0  0  0  0  0  0  0  0  0  0
  140.2830  159.7360  131.8990 C   0  0  2  0  0  0  0  0  0  0  0  0
  140.5580  158.7910  130.9250 F   0  0  0  0  0  0  0  0  0  0  0  0
  140.6840  159.1930  133.2480 C   0  0  0  0  0  0  0  0  0  0  0  0
  140.1980  159.7160  134.2870 O   0  0  0  0  0  0  0  0  0  0  0  0
  141.5980  158.0900  133.3820 N   0  0  0  0  0  0  0  0  0  0  0  0
  141.2850  156.7640  133.3860 C   0  0  0  0  0  0  0  0  0  0  0  0
  139.9200  156.1940  133.3680 C   0  0  0  0  0  0  0  0  0  0  0  0
  138.7620  157.0130  133.5340 N   0  0  0  0  0  0  0  0  0  0  0  0
  139.7760  154.9490  133.2420 O   0  0  0  0  0  0  0  0  0  0  0  0
  142.4400  155.9880  133.3850 C   0  0  0  0  0  0  0  0  0  0  0  0
  143.4820  156.8860  133.3740 C   0  0  0  0  0  0  0  0  0  0  0  0
  144.8530  156.6630  133.3330 C   0  0  0  0  0  0  0  0  0  0  0  0
  145.7040  157.7790  133.2680 C   0  0  0  0  0  0  0  0  0  0  0  0
  145.1730  159.0990  133.2280 C   0  0  0  0  0  0  0  0  0  0  0  0
  146.0100  160.2770  133.1420 N   0  0  0  0  0  0  0  0  0  0  0  0
  147.4650  160.3420  132.9190 C   0  0  1  0  0  0  0  0  0  0  0  0
  148.2300  159.3300  133.7350 C   0  0  0  0  0  0  0  0  0  0  0  0
  149.2660  158.8160  132.7580 C   0  0  0  0  0  0  0  0  0  0  0  0
  148.7970  159.0000  131.4420 O   0  0  0  0  0  0  0  0  0  0  0  0
  147.8690  160.0640  131.4640 C   0  0  2  0  0  0  0  0  0  0  0  0
  148.4880  161.2920  130.7910 C   0  0  0  0  0  0  0  0  0  0  0  0
  143.7710  159.2750  133.2650 C   0  0  0  0  0  0  0  0  0  0  0  0
  142.9490  158.1470  133.3610 C   0  0  0  0  0  0  0  0  0  0  0  0
  138.3925  160.1851  132.8444 H   0  0  0  0  0  0  0  0  0  0  0  0
  138.6723  161.0418  131.2905 H   0  0  0  0  0  0  0  0  0  0  0  0
  138.2572  159.2941  131.2905 H   0  0  0  0  0  0  0  0  0  0  0  0
  140.8597  160.6585  131.7363 H   0  0  0  0  0  0  0  0  0  0  0  0
  138.8380  158.0080  133.8380 H   0  0  0  0  0  0  0  0  0  0  0  0
  137.8100  156.5920  133.4540 H   0  0  0  0  0  0  0  0  0  0  0  0
  142.5058  154.8900  133.3916 H   0  0  0  0  0  0  0  0  0  0  0  0
  145.2605  155.6414  133.3509 H   0  0  0  0  0  0  0  0  0  0  0  0
  146.7938  157.6309  133.2478 H   0  0  0  0  0  0  0  0  0  0  0  0
  145.5360  161.2030  133.2450 H   0  0  0  0  0  0  0  0  0  0  0  0
  147.7147  161.3723  133.2125 H   0  0  0  0  0  0  0  0  0  0  0  0
  148.7081  159.8039  134.6050 H   0  0  0  0  0  0  0  0  0  0  0  0
  147.5917  158.5348  134.1476 H   0  0  0  0  0  0  0  0  0  0  0  0
  150.2062  159.3706  132.8939 H   0  0  0  0  0  0  0  0  0  0  0  0
  149.4444  157.7458  132.9393 H   0  0  0  0  0  0  0  0  0  0  0  0
  146.9596  159.8025  130.9031 H   0  0  0  0  0  0  0  0  0  0  0  0
  148.8414  161.9932  131.5614 H   0  0  0  0  0  0  0  0  0  0  0  0
  149.3357  160.9783  130.1641 H   0  0  0  0  0  0  0  0  0  0  0  0
  147.7316  161.7868  130.1641 H   0  0  0  0  0  0  0  0  0  0  0  0
  143.3331  160.2830  133.2190 H   0  0  0  0  0  0  0  0  0  0  0  0
  1  2  1  0
  2  3  1  0
  2  4  1  0
  4  5  2  0
  4  6  1  0
  6  7  1  0
  7  8  1  0
  8  9  1  0
  8 10  2  0
  7 11  2  0
 11 12  1  0
 12 13  2  0
 13 14  1  0
 14 15  2  0
 15 16  1  0
 16 17  1  0
 17 18  1  0
 18 19  1  0
 19 20  1  0
 20 21  1  0
 21 22  1  0
 15 23  1  0
 23 24  2  0
 24  6  1  0
 24 12  1  0
 21 17  1  0
  1 25  1  0
  1 26  1  0
  1 27  1  0
  2 28  1  6
  9 29  1  0
  9 30  1  0
 11 31  1  0
 13 32  1  0
 14 33  1  0
 16 34  1  0
 17 35  1  1
 18 36  1  0
 18 37  1  0
 19 38  1  0
 19 39  1  0
 21 40  1  6
 22 41  1  0
 22 42  1  0
 22 43  1  0
 23 44  1  0
M  END
>  <UniqueID>  (18) 
18

>  <SMILES>  (18) 
CC1OCC[C@@H]1Nc1ccc2cc(C(N)=O)n(C(=O)[C@H](C)F)c2c1

>  <Energy>  (18) 
86.05099812042782

>  <Genealogy>  (18) 
CC1OCC[C@@H]1Nc1ccc2cc(C(N)=O)n(C(=O)[C@H](C)F)c2c1 (chirality)
CC1OCC[C@@H]1Nc1ccc2cc(C(N)=O)n(C(=O)[C@H](C)F)c2c1 (3D coordinates assigned)
CC1OCC[C@@H]1Nc1ccc2cc(C(N)=O)n(C(=O)[C@H](C)F)c2c1 (nonaromatic ring conformer: 86.05099812042782 kcal/mol)

>  <smiles>  (18) 
CC(F)C(=O)n1c(C(N)=O)cc2ccc(NC3CCOC3C)cc21

>  <score_type>  (18) 
oracle

>  <origin>  (18) 
adg

>  <m_score__min__energy>  (18) 
-8.3200000000000003

>  <m_primary>  (18) 
energy

$$$$
18:0
     RDKit          3D

 34 36  0  0  0  0  0  0  0  0999 V2000
  147.3200  153.3580  135.9660 N   0  0  0  0  0  0  0  0  0  0  0  0
  146.5230  154.1410  135.0830 C   0  0  0  0  0  0  0  0  0  0  0  0
  145.3560  153.7590  134.8010 O   0  0  0  0  0  0  0  0  0  0  0  0
  147.0670  155.3590  134.4480 C   0  0  0  0  0  0  0  0  0  0  0  0
  146.5760  156.6380  134.7020 C   0  0  0  0  0  0  0  0  0  0  0  0
  147.2800  157.4720  133.8640 C   0  0  0  0  0  0  0  0  0  0  0  0
  147.2100  158.8540  133.7140 C   0  0  0  0  0  0  0  0  0  0  0  0
  148.0850  159.4610  132.7980 C   0  0  0  0  0  0  0  0  0  0  0  0
  149.0040  158.6810  132.0520 C   0  0  0  0  0  0  0  0  0  0  0  0
  149.9670  159.3490  131.1100 C   0  0  0  0  0  0  0  0  0  0  0  0
  149.2680  160.4190  130.3350 C   0  0  0  0  0  0  0  0  0  0  0  0
  149.6350  161.6190  130.4390 O   0  0  0  0  0  0  0  0  0  0  0  0
  148.1790  160.0980  129.5340 O   0  0  0  0  0  0  0  0  0  0  0  0
  149.0540  157.2820  132.2400 C   0  0  0  0  0  0  0  0  0  0  0  0
  148.1580  156.7010  133.1460 C   0  0  0  0  0  0  0  0  0  0  0  0
  148.0410  155.4000  133.4950 N   0  0  0  0  0  0  0  0  0  0  0  0
  148.8640  154.3160  133.0340 C   0  0  0  0  0  0  0  0  0  0  0  0
  149.8120  154.5400  132.2320 O   0  0  0  0  0  0  0  0  0  0  0  0
  148.6270  153.0180  133.4950 O   0  0  0  0  0  0  0  0  0  0  0  0
  149.5260  151.9450  133.2400 C   0  0  0  0  0  0  0  0  0  0  0  0
  148.8200  150.6930  132.7580 C   0  0  0  0  0  0  0  0  0  0  0  0
  149.6120  151.5480  131.7790 C   0  0  0  0  0  0  0  0  0  0  0  0
  148.1370  152.8140  135.6120 H   0  0  0  0  0  0  0  0  0  0  0  0
  145.7921  156.9209  135.4199 H   0  0  0  0  0  0  0  0  0  0  0  0
  146.4921  159.4520  134.2945 H   0  0  0  0  0  0  0  0  0  0  0  0
  148.0568  160.5517  132.6583 H   0  0  0  0  0  0  0  0  0  0  0  0
  150.7897  159.7962  131.6873 H   0  0  0  0  0  0  0  0  0  0  0  0
  150.3652  158.5993  130.4105 H   0  0  0  0  0  0  0  0  0  0  0  0
  149.7784  156.6645  131.6887 H   0  0  0  0  0  0  0  0  0  0  0  0
  150.2636  152.1814  134.0211 H   0  0  0  0  0  0  0  0  0  0  0  0
  149.1956  149.7017  133.0518 H   0  0  0  0  0  0  0  0  0  0  0  0
  147.7880  150.3148  132.8032 H   0  0  0  0  0  0  0  0  0  0  0  0
  150.5604  151.1751  131.3649 H   0  0  0  0  0  0  0  0  0  0  0  0
  149.3904  152.0446  130.8228 H   0  0  0  0  0  0  0  0  0  0  0  0
  1  2  1  0
  2  3  2  0
  2  4  1  0
  4  5  2  0
  5  6  1  0
  6  7  2  0
  7  8  1  0
  8  9  2  0
  9 10  1  0
 10 11  1  0
 11 12  2  0
 11 13  1  0
  9 14  1  0
 14 15  2  0
 15 16  1  0
 16 17  1  0
 17 18  2  0
 17 19  1  0
 19 20  1  0
 20 21  1  0
 21 22  1  0
 16  4  1  0
 22 20  1  0
 15  6  1  0
  1 23  1  0
  5 24  1  0
  7 25  1  0
  8 26  1  0
 10 27  1  0
 10 28  1  0
 14 29  1  0
 20 30  1  0
 21 31  1  0
 21 32  1  0
 22 33  1  0
 22 34  1  0
M  CHG  2   1  -1  13  -1
M  END
>  <UniqueID>  (19) 
19

>  <SMILES>  (19) 
[NH-]C(=O)c1cc2ccc(CC(=O)[O-])cc2n1C(=O)OC1CC1

>  <Energy>  (19) 
335.3384881327031

>  <Genealogy>  (19) 
[NH-]C(=O)c1cc2ccc(CC(=O)[O-])cc2n1C(=O)OC1CC1 (protonated)
[NH-]C(=O)c1cc2ccc(CC(=O)[O-])cc2n1C(=O)OC1CC1 (3D coordinates assigned)
[NH-]C(=O)c1cc2ccc(CC(=O)[O-])cc2n1C(=O)OC1CC1 (nonaromatic ring conformer: 335.3384881327031 kcal/mol)

>  <smiles>  (19) 
NC(=O)c1cc2ccc(CC(=O)O)cc2n1C(=O)OC1CC1

>  <score_type>  (19) 
oracle

>  <origin>  (19) 
adg

>  <m_score__min__energy>  (19) 
-6.8200000000000003

>  <m_primary>  (19) 
energy

$$$$
19:0
     RDKit          3D

 56 57  0  0  0  0  0  0  0  0999 V2000
  141.1170  158.4860  132.8100 C   0  0  0  0  0  0  0  0  0  0  0  0
  142.0380  157.2780  132.9390 C   0  0  0  0  0  0  0  0  0  0  0  0
  143.4040  157.6860  132.9310 O   0  0  0  0  0  0  0  0  0  0  0  0
  143.9410  158.5990  133.8480 C   0  0  0  0  0  0  0  0  0  0  0  0
  143.2770  158.9540  134.8610 O   0  0  0  0  0  0  0  0  0  0  0  0
  145.2630  159.1260  133.6410 N   0  0  0  0  0  0  0  0  0  0  0  0
  145.6540  160.4320  133.6830 C   0  0  0  0  0  0  0  0  0  0  0  0
  144.8210  161.5770  134.1040 C   0  0  0  0  0  0  0  0  0  0  0  0
  143.4410  161.6480  133.7480 N   0  0  0  0  0  0  0  0  0  0  0  0
  145.3180  162.4750  134.8310 O   0  0  0  0  0  0  0  0  0  0  0  0
  147.0090  160.5480  133.3670 C   0  0  0  0  0  0  0  0  0  0  0  0
  147.4420  159.2620  133.1430 C   0  0  0  0  0  0  0  0  0  0  0  0
  148.7110  158.7890  132.8190 C   0  0  0  0  0  0  0  0  0  0  0  0
  148.8740  157.4040  132.6510 C   0  0  0  0  0  0  0  0  0  0  0  0
  147.7700  156.5250  132.7900 C   0  0  0  0  0  0  0  0  0  0  0  0
  147.9590  155.0390  132.6350 C   0  0  0  0  0  0  0  0  0  0  0  0
  147.5910  154.3100  133.9310 C   0  0  0  0  0  0  0  0  0  0  0  0
  146.2440  153.6410  133.8090 C   0  0  0  0  0  0  0  0  0  0  0  0
  145.4520  153.7350  134.7380 O   0  0  0  0  0  0  0  0  0  0  0  0
  145.8780  152.9370  132.5900 N   0  0  1  0  0  0  0  0  0  0  0  0
  146.7760  151.8010  132.3080 C   0  0  0  0  0  0  0  0  0  0  0  0
  144.4380  152.5700  132.5720 C   0  0  0  0  0  0  0  0  0  0  0  0
  143.4470  153.7450  132.3860 C   0  0  0  0  0  0  0  0  0  0  0  0
  142.0690  153.3930  132.7900 N   0  0  0  0  0  0  0  0  0  0  0  0
  141.9370  151.9310  132.9110 C   0  0  0  0  0  0  0  0  0  0  0  0
  141.7090  154.0260  134.0750 C   0  0  0  0  0  0  0  0  0  0  0  0
  146.4960  157.0420  133.1180 C   0  0  0  0  0  0  0  0  0  0  0  0
  146.3700  158.4230  133.3090 C   0  0  0  0  0  0  0  0  0  0  0  0
  140.8423  158.8463  133.8123 H   0  0  0  0  0  0  0  0  0  0  0  0
  141.6363  159.2862  132.2623 H   0  0  0  0  0  0  0  0  0  0  0  0
  140.2079  158.1971  132.2623 H   0  0  0  0  0  0  0  0  0  0  0  0
  141.8216  156.7575  133.8836 H   0  0  0  0  0  0  0  0  0  0  0  0
  141.8634  156.6059  132.0859 H   0  0  0  0  0  0  0  0  0  0  0  0
  142.8010  160.8350  133.9060 H   0  0  0  0  0  0  0  0  0  0  0  0
  147.6038  161.4716  133.3094 H   0  0  0  0  0  0  0  0  0  0  0  0
  149.5595  159.4786  132.6984 H   0  0  0  0  0  0  0  0  0  0  0  0
  149.8672  156.9975  132.4094 H   0  0  0  0  0  0  0  0  0  0  0  0
  147.3149  154.6758  131.8206 H   0  0  0  0  0  0  0  0  0  0  0  0
  149.0154  154.8384  132.4033 H   0  0  0  0  0  0  0  0  0  0  0  0
  148.3541  153.5469  134.1440 H   0  0  0  0  0  0  0  0  0  0  0  0
  147.5451  155.0460  134.7472 H   0  0  0  0  0  0  0  0  0  0  0  0
  146.0170  153.6020  131.7920 H   0  0  0  0  0  0  0  0  0  0  0  0
  147.1221  151.3631  133.2559 H   0  0  0  0  0  0  0  0  0  0  0  0
  146.2331  151.0394  131.7289 H   0  0  0  0  0  0  0  0  0  0  0  0
  147.6423  152.1534  131.7289 H   0  0  0  0  0  0  0  0  0  0  0  0
  144.2804  151.8612  131.7458 H   0  0  0  0  0  0  0  0  0  0  0  0
  144.2232  152.1517  133.5664 H   0  0  0  0  0  0  0  0  0  0  0  0
  143.7877  154.5939  132.9970 H   0  0  0  0  0  0  0  0  0  0  0  0
  143.4269  153.9990  131.3159 H   0  0  0  0  0  0  0  0  0  0  0  0
  141.9118  151.6519  133.9747 H   0  0  0  0  0  0  0  0  0  0  0  0
  141.0058  151.6054  132.4243 H   0  0  0  0  0  0  0  0  0  0  0  0
  142.7948  151.4439  132.4243 H   0  0  0  0  0  0  0  0  0  0  0  0
  142.0657  153.3988  134.9053 H   0  0  0  0  0  0  0  0  0  0  0  0
  142.1773  155.0193  134.1383 H   0  0  0  0  0  0  0  0  0  0  0  0
  140.6159  154.1313  134.1383 H   0  0  0  0  0  0  0  0  0  0  0  0
  145.6262  156.3765  133.2205 H   0  0  0  0  0  0  0  0  0  0  0  0
  1  2  1  0
  2  3  1  0
  3  4  1  0
  4  5  2  0
  4  6  1  0
  6  7  1  0
  7  8  1  0
  8  9  1  0
  8 10  2  0
  7 11  2  0
 11 12  1  0
 12 13  2  0
 13 14  1  0
 14 15  2  0
 15 16  1  0
 16 17  1  0
 17 18  1  0
 18 19  2  0
 18 20  1  0
 20 21  1  0
 20 22  1  0
 22 23  1  0
 23 24  1  0
 24 25  1  0
 24 26  1  0
 15 27  1  0
 27 28  2  0
 28  6  1  0
 28 12  1  0
  1 29  1  0
  1 30  1  0
  1 31  1  0
  2 32  1  0
  2 33  1  0
  9 34  1  0
 11 35  1  0
 13 36  1  0
 14 37  1  0
 16 38  1  0
 16 39  1  0
 17 40  1  0
 17 41  1  0
 20 42  1  6
 21 43  1  0
 21 44  1  0
 21 45  1  0
 22 46  1  0
 22 47  1  0
 23 48  1  0
 23 49  1  0
 25 50  1  0
 25 51  1  0
 25 52  1  0
 26 53  1  0
 26 54  1  0
 26 55  1  0
 27 56  1  0
M  CHG  2   9  -1  20   1
M  END
>  <UniqueID>  (20) 
20

>  <SMILES>  (20) 
CCOC(=O)n1c(C([NH-])=O)cc2ccc(CCC(=O)[N@@H+](C)CCN(C)C)cc21

>  <Energy>  (20) 
91.86208252662692

>  <Genealogy>  (20) 
CCOC(=O)n1c(C([NH-])=O)cc2ccc(CCC(=O)[NH+](C)CCN(C)C)cc21 (protonated)
CCOC(=O)n1c(C([NH-])=O)cc2ccc(CCC(=O)[N@@H+](C)CCN(C)C)cc21 (chirality)
CCOC(=O)n1c(C([NH-])=O)cc2ccc(CCC(=O)[N@@H+](C)CCN(C)C)cc21 (3D coordinates assigned)
CCOC(=O)n1c(C([NH-])=O)cc2ccc(CCC(=O)[N@@H+](C)CCN(C)C)cc21 (optimized conformer: 91.86208252662692 kcal/mol)

>  <smiles>  (20) 
CCOC(=O)n1c(C(N)=O)cc2ccc(CCC(=O)N(C)CCN(C)C)cc21

>  <score_type>  (20) 
oracle

>  <origin>  (20) 
adg

>  <m_score__min__energy>  (20) 
-6.9500000000000002

>  <m_primary>  (20) 
energy

$$$$
20:0
     RDKit          3D

 52 53  0  0  0  0  0  0  0  0999 V2000
  140.9020  149.5280  132.6320 C   0  0  0  0  0  0  0  0  0  0  0  0
  140.2850  150.9200  132.5660 C   0  0  0  0  0  0  0  0  0  0  0  0
  141.0660  151.8520  133.3120 O   0  0  0  0  0  0  0  0  0  0  0  0
  141.4470  153.1070  132.8190 C   0  0  0  0  0  0  0  0  0  0  0  0
  140.5900  154.0260  132.6840 O   0  0  0  0  0  0  0  0  0  0  0  0
  142.8250  153.3390  132.4610 N   0  0  2  0  0  0  0  0  0  0  0  0
  143.6580  152.2390  132.9790 C   0  0  0  0  0  0  0  0  0  0  0  0
  143.2570  154.6600  132.9740 C   0  0  0  0  0  0  0  0  0  0  0  0
  144.7770  154.7320  133.2050 C   0  0  0  0  0  0  0  0  0  0  0  0
  145.2390  156.1640  133.2310 C   0  0  0  0  0  0  0  0  0  0  0  0
  146.5930  156.4800  132.9560 C   0  0  0  0  0  0  0  0  0  0  0  0
  147.0400  157.8100  133.0000 C   0  0  0  0  0  0  0  0  0  0  0  0
  146.1190  158.7970  133.3390 C   0  0  0  0  0  0  0  0  0  0  0  0
  146.2790  160.1610  133.4330 C   0  0  0  0  0  0  0  0  0  0  0  0
  145.0300  160.6530  133.8040 C   0  0  0  0  0  0  0  0  0  0  0  0
  144.7750  162.0780  134.1000 C   0  0  0  0  0  0  0  0  0  0  0  0
  143.7190  162.7830  133.4540 N   0  0  0  0  0  0  0  0  0  0  0  0
  145.4670  162.6680  134.9720 O   0  0  0  0  0  0  0  0  0  0  0  0
  144.1300  159.6370  133.9260 N   0  0  0  0  0  0  0  0  0  0  0  0
  142.7220  159.7390  134.1920 C   0  0  0  0  0  0  0  0  0  0  0  0
  141.9720  160.3500  133.3830 O   0  0  0  0  0  0  0  0  0  0  0  0
  142.1960  159.1890  135.3670 O   0  0  0  0  0  0  0  0  0  0  0  0
  140.7980  159.0840  135.6350 C   0  0  0  0  0  0  0  0  0  0  0  0
  140.6040  158.6610  137.0890 C   0  0  0  0  0  0  0  0  0  0  0  0
  140.1500  158.0670  134.6900 C   0  0  0  0  0  0  0  0  0  0  0  0
  144.8140  158.5060  133.6390 C   0  0  0  0  0  0  0  0  0  0  0  0
  144.3350  157.1910  133.5830 C   0  0  0  0  0  0  0  0  0  0  0  0
  141.0322  149.2342  133.6840 H   0  0  0  0  0  0  0  0  0  0  0  0
  140.2384  148.8086  132.1298 H   0  0  0  0  0  0  0  0  0  0  0  0
  141.8806  149.5365  132.1298 H   0  0  0  0  0  0  0  0  0  0  0  0
  140.2391  151.2455  131.5163 H   0  0  0  0  0  0  0  0  0  0  0  0
  139.2737  150.8801  132.9970 H   0  0  0  0  0  0  0  0  0  0  0  0
  142.8910  153.3390  131.4150 H   0  0  0  0  0  0  0  0  0  0  0  0
  143.6452  152.2559  134.0788 H   0  0  0  0  0  0  0  0  0  0  0  0
  143.2593  151.2778  132.6224 H   0  0  0  0  0  0  0  0  0  0  0  0
  144.6913  152.3623  132.6224 H   0  0  0  0  0  0  0  0  0  0  0  0
  142.9738  155.4323  132.2436 H   0  0  0  0  0  0  0  0  0  0  0  0
  142.7627  154.8210  133.9434 H   0  0  0  0  0  0  0  0  0  0  0  0
  145.0200  154.2557  134.1663 H   0  0  0  0  0  0  0  0  0  0  0  0
  145.2869  154.2086  132.3828 H   0  0  0  0  0  0  0  0  0  0  0  0
  147.3002  155.6755  132.7057 H   0  0  0  0  0  0  0  0  0  0  0  0
  148.0860  158.0643  132.7735 H   0  0  0  0  0  0  0  0  0  0  0  0
  147.1975  160.7391  133.2534 H   0  0  0  0  0  0  0  0  0  0  0  0
  142.8800  162.2800  133.0900 H   0  0  0  0  0  0  0  0  0  0  0  0
  140.3155  160.0585  135.4689 H   0  0  0  0  0  0  0  0  0  0  0  0
  140.9692  159.4572  137.7544 H   0  0  0  0  0  0  0  0  0  0  0  0
  139.5351  158.4849  137.2802 H   0  0  0  0  0  0  0  0  0  0  0  0
  141.1679  157.7361  137.2802 H   0  0  0  0  0  0  0  0  0  0  0  0
  139.6512  157.2841  135.2801 H   0  0  0  0  0  0  0  0  0  0  0  0
  139.4093  158.5760  134.0557 H   0  0  0  0  0  0  0  0  0  0  0  0
  140.9242  157.6107  134.0557 H   0  0  0  0  0  0  0  0  0  0  0  0
  143.2823  156.9638  133.8072 H   0  0  0  0  0  0  0  0  0  0  0  0
  1  2  1  0
  2  3  1  0
  3  4  1  0
  4  5  2  0
  4  6  1  0
  6  7  1  0
  6  8  1  0
  8  9  1  0
  9 10  1  0
 10 11  2  0
 11 12  1  0
 12 13  2  0
 13 14  1  0
 14 15  2  0
 15 16  1  0
 16 17  1  0
 16 18  2  0
 15 19  1  0
 19 20  1  0
 20 21  2  0
 20 22  1  0
 22 23  1  0
 23 24  1  0
 23 25  1  0
 19 26  1  0
 26 27  2  0
 27 10  1  0
 26 13  1  0
  1 28  1  0
  1 29  1  0
  1 30  1  0
  2 31  1  0
  2 32  1  0
  6 33  1  6
  7 34  1  0
  7 35  1  0
  7 36  1  0
  8 37  1  0
  8 38  1  0
  9 39  1  0
  9 40  1  0
 11 41  1  0
 12 42  1  0
 14 43  1  0
 17 44  1  0
 23 45  1  0
 24 46  1  0
 24 47  1  0
 24 48  1  0
 25 49  1  0
 25 50  1  0
 25 51  1  0
 27 52  1  0
M  CHG  2   6   1  17  -1
M  END
>  <UniqueID>  (21) 
21

>  <SMILES>  (21) 
CCOC(=O)[N@H+](C)CCc1ccc2cc(C([NH-])=O)n(C(=O)OC(C)C)c2c1

>  <Energy>  (21) 
80.32315998795794

>  <Genealogy>  (21) 
CCOC(=O)[NH+](C)CCc1ccc2cc(C([NH-])=O)n(C(=O)OC(C)C)c2c1 (protonated)
CCOC(=O)[N@H+](C)CCc1ccc2cc(C([NH-])=O)n(C(=O)OC(C)C)c2c1 (chirality)
CCOC(=O)[N@H+](C)CCc1ccc2cc(C([NH-])=O)n(C(=O)OC(C)C)c2c1 (3D coordinates assigned)
CCOC(=O)[N@H+](C)CCc1ccc2cc(C([NH-])=O)n(C(=O)OC(C)C)c2c1 (optimized conformer: 80.32315998795794 kcal/mol)

>  <smiles>  (21) 
CCOC(=O)N(C)CCc1ccc2cc(C(N)=O)n(C(=O)OC(C)C)c2c1

>  <score_type>  (21) 
oracle

>  <origin>  (21) 
adg

>  <m_score__min__energy>  (21) 
-7.1100000000000003

>  <m_primary>  (21) 
energy

$$$$
21:0
     RDKit          3D

 34 36  0  0  0  0  0  0  0  0999 V2000
  148.2880  158.2160  134.1120 N   0  0  0  0  0  0  0  0  0  0  0  0
  147.5070  159.1860  133.4100 C   0  0  0  0  0  0  0  0  0  0  0  0
  148.0870  160.0120  132.6570 O   0  0  0  0  0  0  0  0  0  0  0  0
  146.0400  159.2480  133.5910 C   0  0  0  0  0  0  0  0  0  0  0  0
  145.3060  160.4330  133.5790 C   0  0  0  0  0  0  0  0  0  0  0  0
  143.9900  160.0480  133.6780 C   0  0  0  0  0  0  0  0  0  0  0  0
  142.8340  160.8220  133.7290 C   0  0  0  0  0  0  0  0  0  0  0  0
  141.6020  160.1600  133.8640 C   0  0  0  0  0  0  0  0  0  0  0  0
  141.5500  158.7450  133.9440 C   0  0  0  0  0  0  0  0  0  0  0  0
  140.2270  158.0480  134.1380 C   0  0  0  0  0  0  0  0  0  0  0  0
  139.6040  157.6230  132.8310 C   0  0  0  0  0  0  0  0  0  0  0  0
  139.4660  156.3970  132.5650 O   0  0  0  0  0  0  0  0  0  0  0  0
  139.1330  158.6060  131.8940 N   0  0  0  0  0  0  0  0  0  0  0  0
  137.8570  158.9830  131.7040 C   0  0  0  0  0  0  0  0  0  0  0  0
  137.8430  159.9500  130.7240 C   0  0  0  0  0  0  0  0  0  0  0  0
  139.1010  160.1840  130.3000 N   0  0  0  0  0  0  0  0  0  0  0  0
  139.8630  159.3460  131.0350 C   0  0  0  0  0  0  0  0  0  0  0  0
  142.7440  157.9930  133.9000 C   0  0  0  0  0  0  0  0  0  0  0  0
  143.9560  158.6790  133.7470 C   0  0  0  0  0  0  0  0  0  0  0  0
  145.2080  158.1720  133.6940 N   0  0  0  0  0  0  0  0  0  0  0  0
  145.5810  156.7880  133.8090 C   0  0  0  0  0  0  0  0  0  0  0  0
  145.1410  155.9400  132.9890 O   0  0  0  0  0  0  0  0  0  0  0  0
  146.4160  156.3680  134.8370 O   0  0  0  0  0  0  0  0  0  0  0  0
  149.3270  158.2060  134.0080 H   0  0  0  0  0  0  0  0  0  0  0  0
  147.8390  157.4830  134.7020 H   0  0  0  0  0  0  0  0  0  0  0  0
  145.6969  161.4586  133.5058 H   0  0  0  0  0  0  0  0  0  0  0  0
  142.8836  161.9191  133.6655 H   0  0  0  0  0  0  0  0  0  0  0  0
  140.6707  160.7437  133.9080 H   0  0  0  0  0  0  0  0  0  0  0  0
  140.3860  157.1551  134.7605 H   0  0  0  0  0  0  0  0  0  0  0  0
  139.5408  158.7591  134.6212 H   0  0  0  0  0  0  0  0  0  0  0  0
  136.9793  158.5888  132.2371 H   0  0  0  0  0  0  0  0  0  0  0  0
  136.9423  160.4548  130.3447 H   0  0  0  0  0  0  0  0  0  0  0  0
  140.9569  159.2749  130.9433 H   0  0  0  0  0  0  0  0  0  0  0  0
  142.7233  156.8964  133.9837 H   0  0  0  0  0  0  0  0  0  0  0  0
  1  2  1  0
  2  3  2  0
  2  4  1  0
  4  5  2  0
  5  6  1  0
  6  7  2  0
  7  8  1  0
  8  9  2  0
  9 10  1  0
 10 11  1  0
 11 12  2  0
 11 13  1  0
 13 14  1  0
 14 15  2  0
 15 16  1  0
 16 17  2  0
  9 18  1  0
 18 19  2  0
 19 20  1  0
 20 21  1  0
 21 22  2  0
 21 23  1  0
 20  4  1  0
 19  6  1  0
 17 13  1  0
  1 24  1  0
  1 25  1  0
  5 26  1  0
  7 27  1  0
  8 28  1  0
 10 29  1  0
 10 30  1  0
 14 31  1  0
 15 32  1  0
 17 33  1  0
 18 34  1  0
M  CHG  1  23  -1
M  END
>  <UniqueID>  (22) 
22

>  <SMILES>  (22) 
NC(=O)c1cc2ccc(CC(=O)n3ccnc3)cc2n1C(=O)[O-]

>  <Energy>  (22) 
105.10607182697626

>  <Genealogy>  (22) 
NC(=O)c1cc2ccc(CC(=O)n3ccnc3)cc2n1C(=O)[O-] (protonated)
NC(=O)c1cc2ccc(CC(=O)n3ccnc3)cc2n1C(=O)[O-] (3D coordinates assigned)
NC(=O)c1cc2ccc(CC(=O)n3ccnc3)cc2n1C(=O)[O-] (optimized conformer: 105.10607182697626 kcal/mol)

>  <smiles>  (22) 
NC(=O)c1cc2ccc(CC(=O)n3ccnc3)cc2n1C(=O)O

>  <score_type>  (22) 
oracle

>  <origin>  (22) 
adg

>  <m_score__min__energy>  (22) 
-7.0999999999999996

>  <m_primary>  (22) 
energy

$$$$
22:0
     RDKit          3D

 52 54  0  0  0  0  0  0  0  0999 V2000
  148.3260  152.2890  139.3980 C   0  0  0  0  0  0  0  0  0  0  0  0
  147.9210  152.9840  138.1400 C   0  0  0  0  0  0  0  0  0  0  0  0
  146.9130  152.6160  137.3800 O   0  0  0  0  0  0  0  0  0  0  0  0
  146.7670  153.4220  136.3670 N   0  0  0  0  0  0  0  0  0  0  0  0
  147.7400  154.3470  136.4630 C   0  0  0  0  0  0  0  0  0  0  0  0
  147.8510  155.4580  135.5680 N   0  0  0  0  0  0  0  0  0  0  0  0
  148.0320  155.3650  134.1510 C   0  0  0  0  0  0  0  0  0  0  0  0
  147.9470  154.2300  133.6070 O   0  0  0  0  0  0  0  0  0  0  0  0
  148.4820  156.5530  133.3360 C   0  0  0  0  0  0  0  0  0  0  0  0
  147.4650  157.6650  133.3510 C   0  0  0  0  0  0  0  0  0  0  0  0
  147.8880  159.0160  133.4030 C   0  0  0  0  0  0  0  0  0  0  0  0
  146.9480  160.0590  133.4630 C   0  0  0  0  0  0  0  0  0  0  0  0
  145.5980  159.7220  133.4700 C   0  0  0  0  0  0  0  0  0  0  0  0
  144.4860  160.5250  133.5590 C   0  0  0  0  0  0  0  0  0  0  0  0
  143.3980  159.6540  133.5460 C   0  0  0  0  0  0  0  0  0  0  0  0
  141.9920  160.1100  133.5440 C   0  0  0  0  0  0  0  0  0  0  0  0
  141.1100  159.7540  132.4840 N   0  0  0  0  0  0  0  0  0  0  0  0
  141.5790  160.8630  134.4640 O   0  0  0  0  0  0  0  0  0  0  0  0
  143.8220  158.3610  133.4600 N   0  0  0  0  0  0  0  0  0  0  0  0
  143.0210  157.1710  133.5250 C   0  0  0  0  0  0  0  0  0  0  0  0
  143.4220  156.1850  134.1990 O   0  0  0  0  0  0  0  0  0  0  0  0
  141.7880  157.1330  132.8560 O   0  0  0  0  0  0  0  0  0  0  0  0
  140.5380  156.6860  133.3990 C   0  0  0  0  0  0  0  0  0  0  0  0
  139.3550  157.3040  132.6290 C   0  0  0  0  0  0  0  0  0  0  0  0
  140.4580  155.1470  133.3730 C   0  0  0  0  0  0  0  0  0  0  0  0
  140.4830  157.1610  134.8590 C   0  0  0  0  0  0  0  0  0  0  0  0
  145.1710  158.4190  133.4120 C   0  0  0  0  0  0  0  0  0  0  0  0
  146.0860  157.3610  133.3710 C   0  0  0  0  0  0  0  0  0  0  0  0
  148.4900  154.1220  137.6020 C   0  0  0  0  0  0  0  0  0  0  0  0
  149.5880  154.9510  138.1910 C   0  0  0  0  0  0  0  0  0  0  0  0
  147.9855  152.8733  140.2656 H   0  0  0  0  0  0  0  0  0  0  0  0
  147.8694  151.2887  139.4276 H   0  0  0  0  0  0  0  0  0  0  0  0
  149.4214  152.1931  139.4276 H   0  0  0  0  0  0  0  0  0  0  0  0
  149.4278  156.9310  133.7513 H   0  0  0  0  0  0  0  0  0  0  0  0
  148.6090  156.2224  132.2946 H   0  0  0  0  0  0  0  0  0  0  0  0
  148.9626  159.2509  133.3964 H   0  0  0  0  0  0  0  0  0  0  0  0
  147.2698  161.1101  133.5032 H   0  0  0  0  0  0  0  0  0  0  0  0
  144.4602  161.6226  133.6263 H   0  0  0  0  0  0  0  0  0  0  0  0
  141.3610  159.0020  131.8040 H   0  0  0  0  0  0  0  0  0  0  0  0
  138.6141  157.6910  133.3441 H   0  0  0  0  0  0  0  0  0  0  0  0
  139.7190  158.1271  131.9966 H   0  0  0  0  0  0  0  0  0  0  0  0
  138.8873  156.5350  131.9966 H   0  0  0  0  0  0  0  0  0  0  0  0
  140.4381  154.7634  134.4038 H   0  0  0  0  0  0  0  0  0  0  0  0
  139.5425  154.8362  132.8483 H   0  0  0  0  0  0  0  0  0  0  0  0
  141.3363  154.7430  132.8483 H   0  0  0  0  0  0  0  0  0  0  0  0
  140.5832  156.2953  135.5302 H   0  0  0  0  0  0  0  0  0  0  0  0
  141.3054  157.8672  135.0461 H   0  0  0  0  0  0  0  0  0  0  0  0
  139.5210  157.6606  135.0461 H   0  0  0  0  0  0  0  0  0  0  0  0
  145.7393  156.3172  133.3547 H   0  0  0  0  0  0  0  0  0  0  0  0
  149.5313  154.9082  139.2887 H   0  0  0  0  0  0  0  0  0  0  0  0
  150.5611  154.5603  137.8586 H   0  0  0  0  0  0  0  0  0  0  0  0
  149.4787  155.9939  137.8586 H   0  0  0  0  0  0  0  0  0  0  0  0
  1  2  1  0
  2  3  1  0
  3  4  1  0
  4  5  2  0
  5  6  1  0
  6  7  1  0
  7  8  2  0
  7  9  1  0
  9 10  1  0
 10 11  2  0
 11 12  1  0
 12 13  2  0
 13 14  1  0
 14 15  2  0
 15 16  1  0
 16 17  1  0
 16 18  2  0
 15 19  1  0
 19 20  1  0
 20 21  2  0
 20 22  1  0
 22 23  1  0
 23 24  1  0
 23 25  1  0
 23 26  1  0
 19 27  1  0
 27 28  2  0
  5 29  1  0
 29 30  1  0
 29  2  2  0
 28 10  1  0
 27 13  1  0
  1 31  1  0
  1 32  1  0
  1 33  1  0
  9 34  1  0
  9 35  1  0
 11 36  1  0
 12 37  1  0
 14 38  1  0
 17 39  1  0
 24 40  1  0
 24 41  1  0
 24 42  1  0
 25 43  1  0
 25 44  1  0
 25 45  1  0
 26 46  1  0
 26 47  1  0
 26 48  1  0
 28 49  1  0
 30 50  1  0
 30 51  1  0
 30 52  1  0
M  CHG  2   6  -1  17  -1
M  END
>  <UniqueID>  (23) 
23

>  <SMILES>  (23) 
Cc1onc([N-]C(=O)Cc2ccc3cc(C([NH-])=O)n(C(=O)OC(C)(C)C)c3c2)c1C

>  <Energy>  (23) 
123.00106100804352

>  <Genealogy>  (23) 
Cc1onc([N-]C(=O)Cc2ccc3cc(C([NH-])=O)n(C(=O)OC(C)(C)C)c3c2)c1C (protonated)
Cc1onc([N-]C(=O)Cc2ccc3cc(C([NH-])=O)n(C(=O)OC(C)(C)C)c3c2)c1C (3D coordinates assigned)
Cc1onc([N-]C(=O)Cc2ccc3cc(C([NH-])=O)n(C(=O)OC(C)(C)C)c3c2)c1C (optimized conformer: 123.00106100804352 kcal/mol)

>  <smiles>  (23) 
Cc1onc(NC(=O)Cc2ccc3cc(C(N)=O)n(C(=O)OC(C)(C)C)c3c2)c1C

>  <score_type>  (23) 
oracle

>  <origin>  (23) 
adg

>  <m_score__min__energy>  (23) 
-8.8800000000000008

>  <m_primary>  (23) 
energy

$$$$
23:0
     RDKit          3D

 54 55  0  0  0  0  0  0  0  0999 V2000
  149.2390  154.4130  132.6180 C   0  0  0  0  0  0  0  0  0  0  0  0
  147.7290  154.5590  132.7200 C   0  0  0  0  0  0  0  0  0  0  0  0
  147.3720  155.9260  132.5500 O   0  0  0  0  0  0  0  0  0  0  0  0
  147.2800  156.8270  133.6150 C   0  0  0  0  0  0  0  0  0  0  0  0
  147.9090  156.6060  134.6860 O   0  0  0  0  0  0  0  0  0  0  0  0
  146.4860  158.0210  133.4810 N   0  0  0  0  0  0  0  0  0  0  0  0
  146.8880  159.2360  133.0130 C   0  0  0  0  0  0  0  0  0  0  0  0
  148.2760  159.6260  132.6970 C   0  0  0  0  0  0  0  0  0  0  0  0
  149.3860  158.8710  133.1870 N   0  0  0  0  0  0  0  0  0  0  0  0
  148.4880  160.6750  132.0330 O   0  0  0  0  0  0  0  0  0  0  0  0
  145.8110  160.1140  132.9250 C   0  0  0  0  0  0  0  0  0  0  0  0
  144.7240  159.4000  133.3760 C   0  0  0  0  0  0  0  0  0  0  0  0
  143.3950  159.7880  133.5130 C   0  0  0  0  0  0  0  0  0  0  0  0
  142.4770  158.8410  133.9950 C   0  0  0  0  0  0  0  0  0  0  0  0
  142.9000  157.5280  134.3160 C   0  0  0  0  0  0  0  0  0  0  0  0
  141.9170  156.5300  134.8740 C   0  0  0  0  0  0  0  0  0  0  0  0
  142.4480  155.8380  136.1420 C   0  0  0  0  0  0  0  0  0  0  0  0
  142.8050  154.3570  135.9370 C   0  0  0  0  0  0  0  0  0  0  0  0
  144.2220  154.1080  136.1860 N   0  0  0  0  0  0  0  0  0  0  0  0
  145.1950  153.9410  135.1530 C   0  0  0  0  0  0  0  0  0  0  0  0
  146.3270  153.4560  135.4200 O   0  0  0  0  0  0  0  0  0  0  0  0
  144.8610  154.3290  133.8480 O   0  0  0  0  0  0  0  0  0  0  0  0
  144.4010  153.4720  132.7940 C   0  0  0  0  0  0  0  0  0  0  0  0
  144.3540  154.3180  131.5120 C   0  0  0  0  0  0  0  0  0  0  0  0
  145.3810  152.3020  132.5830 C   0  0  0  0  0  0  0  0  0  0  0  0
  142.9850  152.9470  133.0980 C   0  0  0  0  0  0  0  0  0  0  0  0
  144.2570  157.1680  134.1570 C   0  0  0  0  0  0  0  0  0  0  0  0
  145.1560  158.1390  133.7020 C   0  0  0  0  0  0  0  0  0  0  0  0
  149.6724  154.3711  133.6282 H   0  0  0  0  0  0  0  0  0  0  0  0
  149.4821  153.4872  132.0760 H   0  0  0  0  0  0  0  0  0  0  0  0
  149.6550  155.2751  132.0760 H   0  0  0  0  0  0  0  0  0  0  0  0
  147.2484  153.9544  131.9367 H   0  0  0  0  0  0  0  0  0  0  0  0
  147.3931  154.2125  133.7085 H   0  0  0  0  0  0  0  0  0  0  0  0
  150.3600  159.1420  132.9270 H   0  0  0  0  0  0  0  0  0  0  0  0
  149.2500  158.0950  133.8720 H   0  0  0  0  0  0  0  0  0  0  0  0
  145.8256  161.1553  132.5709 H   0  0  0  0  0  0  0  0  0  0  0  0
  143.0728  160.8067  133.2514 H   0  0  0  0  0  0  0  0  0  0  0  0
  141.4212  159.1211  134.1243 H   0  0  0  0  0  0  0  0  0  0  0  0
  140.9820  157.0540  135.1215 H   0  0  0  0  0  0  0  0  0  0  0  0
  141.7517  155.7555  134.1105 H   0  0  0  0  0  0  0  0  0  0  0  0
  143.3516  156.3697  136.4748 H   0  0  0  0  0  0  0  0  0  0  0  0
  141.6404  155.8727  136.8881 H   0  0  0  0  0  0  0  0  0  0  0  0
  142.2077  153.7462  136.6300 H   0  0  0  0  0  0  0  0  0  0  0  0
  142.5865  154.0911  134.8922 H   0  0  0  0  0  0  0  0  0  0  0  0
  144.2948  155.3837  131.7779 H   0  0  0  0  0  0  0  0  0  0  0  0
  145.2635  154.1377  130.9202 H   0  0  0  0  0  0  0  0  0  0  0  0
  143.4700  154.0381  130.9202 H   0  0  0  0  0  0  0  0  0  0  0  0
  145.7054  151.9147  133.5601 H   0  0  0  0  0  0  0  0  0  0  0  0
  144.8801  151.5013  132.0191 H   0  0  0  0  0  0  0  0  0  0  0  0
  146.2571  152.6547  132.0191 H   0  0  0  0  0  0  0  0  0  0  0  0
  142.8399  152.8932  134.1871 H   0  0  0  0  0  0  0  0  0  0  0  0
  142.2398  153.6286  132.6620 H   0  0  0  0  0  0  0  0  0  0  0  0
  142.8642  151.9443  132.6620 H   0  0  0  0  0  0  0  0  0  0  0  0
  144.5989  156.1478  134.3857 H   0  0  0  0  0  0  0  0  0  0  0  0
  1  2  1  0
  2  3  1  0
  3  4  1  0
  4  5  2  0
  4  6  1  0
  6  7  1  0
  7  8  1  0
  8  9  1  0
  8 10  2  0
  7 11  2  0
 11 12  1  0
 12 13  2  0
 13 14  1  0
 14 15  2  0
 15 16  1  0
 16 17  1  0
 17 18  1  0
 18 19  1  0
 19 20  1  0
 20 21  2  0
 20 22  1  0
 22 23  1  0
 23 24  1  0
 23 25  1  0
 23 26  1  0
 15 27  1  0
 27 28  2  0
 28  6  1  0
 28 12  1  0
  1 29  1  0
  1 30  1  0
  1 31  1  0
  2 32  1  0
  2 33  1  0
  9 34  1  0
  9 35  1  0
 11 36  1  0
 13 37  1  0
 14 38  1  0
 16 39  1  0
 16 40  1  0
 17 41  1  0
 17 42  1  0
 18 43  1  0
 18 44  1  0
 24 45  1  0
 24 46  1  0
 24 47  1  0
 25 48  1  0
 25 49  1  0
 25 50  1  0
 26 51  1  0
 26 52  1  0
 26 53  1  0
 27 54  1  0
M  CHG  1  19  -1
M  END
>  <UniqueID>  (24) 
24

>  <SMILES>  (24) 
CCOC(=O)n1c(C(N)=O)cc2ccc(CCC[N-]C(=O)OC(C)(C)C)cc21

>  <Energy>  (24) 
75.48316408841697

>  <Genealogy>  (24) 
CCOC(=O)n1c(C(N)=O)cc2ccc(CCC[N-]C(=O)OC(C)(C)C)cc21 (protonated)
CCOC(=O)n1c(C(N)=O)cc2ccc(CCC[N-]C(=O)OC(C)(C)C)cc21 (3D coordinates assigned)
CCOC(=O)n1c(C(N)=O)cc2ccc(CCC[N-]C(=O)OC(C)(C)C)cc21 (optimized conformer: 75.48316408841697 kcal/mol)

>  <smiles>  (24) 
CCOC(=O)n1c(C(N)=O)cc2ccc(CCCNC(=O)OC(C)(C)C)cc21

>  <score_type>  (24) 
oracle

>  <origin>  (24) 
adg

>  <m_score__min__energy>  (24) 
-7.6500000000000004

>  <m_primary>  (24) 
energy

$$$$
24:0
     RDKit          3D

 46 47  0  0  0  0  0  0  0  0999 V2000
  143.1310  153.1570  137.8080 C   0  0  0  0  0  0  0  0  0  0  0  0
  141.6880  153.0480  138.3050 C   0  0  2  0  0  0  0  0  0  0  0  0
  141.3960  154.1110  139.2080 O   0  0  0  0  0  0  0  0  0  0  0  0
  140.9180  155.3630  138.8040 C   0  0  0  0  0  0  0  0  0  0  0  0
  139.6910  155.5460  138.5800 O   0  0  0  0  0  0  0  0  0  0  0  0
  141.8920  156.4740  138.5860 C   0  0  0  0  0  0  0  0  0  0  0  0
  141.4290  157.3280  137.4400 C   0  0  0  0  0  0  0  0  0  0  0  0
  141.3830  158.7370  137.5810 C   0  0  0  0  0  0  0  0  0  0  0  0
  140.9870  159.5500  136.5060 C   0  0  0  0  0  0  0  0  0  0  0  0
  140.6630  158.9300  135.3030 C   0  0  0  0  0  0  0  0  0  0  0  0
  140.2270  159.4760  134.1180 C   0  0  0  0  0  0  0  0  0  0  0  0
  140.0550  158.3950  133.2580 C   0  0  0  0  0  0  0  0  0  0  0  0
  139.6480  158.5400  131.8450 C   0  0  0  0  0  0  0  0  0  0  0  0
  138.4960  157.8670  131.3350 N   0  0  0  0  0  0  0  0  0  0  0  0
  140.3600  159.2250  131.0640 O   0  0  0  0  0  0  0  0  0  0  0  0
  140.3590  157.2230  133.8860 N   0  0  0  0  0  0  0  0  0  0  0  0
  140.2040  155.8890  133.3720 C   0  0  0  0  0  0  0  0  0  0  0  0
  141.1050  155.0280  133.5560 O   0  0  0  0  0  0  0  0  0  0  0  0
  139.0610  155.5330  132.6680 O   0  0  0  0  0  0  0  0  0  0  0  0
  140.7330  157.5690  135.1390 C   0  0  0  0  0  0  0  0  0  0  0  0
  141.1020  156.7330  136.2000 C   0  0  0  0  0  0  0  0  0  0  0  0
  141.4070  151.4250  139.2020 Si  0  0  0  0  0  4  0  0  0  0  0  0
  140.6450  151.7400  140.8800 C   0  0  0  0  0  0  0  0  0  0  0  0
  143.0220  150.5080  139.4150 C   0  0  0  0  0  0  0  0  0  0  0  0
  140.2430  150.3750  138.1900 C   0  0  0  0  0  0  0  0  0  0  0  0
  143.8127  153.2085  138.6698 H   0  0  0  0  0  0  0  0  0  0  0  0
  143.3765  152.2748  137.1985 H   0  0  0  0  0  0  0  0  0  0  0  0
  143.2412  154.0660  137.1985 H   0  0  0  0  0  0  0  0  0  0  0  0
  141.0302  153.1018  137.4250 H   0  0  0  0  0  0  0  0  0  0  0  0
  141.9586  157.0872  139.4968 H   0  0  0  0  0  0  0  0  0  0  0  0
  142.8817  156.0538  138.3538 H   0  0  0  0  0  0  0  0  0  0  0  0
  141.6597  159.1983  138.5405 H   0  0  0  0  0  0  0  0  0  0  0  0
  140.9346  160.6436  136.6119 H   0  0  0  0  0  0  0  0  0  0  0  0
  140.0518  160.5393  133.8973 H   0  0  0  0  0  0  0  0  0  0  0  0
  138.1880  158.0280  130.3500 H   0  0  0  0  0  0  0  0  0  0  0  0
  137.9840  157.1630  131.9100 H   0  0  0  0  0  0  0  0  0  0  0  0
  141.1366  155.6410  136.0719 H   0  0  0  0  0  0  0  0  0  0  0  0
  141.3558  151.4462  141.6665 H   0  0  0  0  0  0  0  0  0  0  0  0
  140.4086  152.8096  140.9804 H   0  0  0  0  0  0  0  0  0  0  0  0
  139.7223  151.1496  140.9804 H   0  0  0  0  0  0  0  0  0  0  0  0
  143.2360  150.3865  140.4871 H   0  0  0  0  0  0  0  0  0  0  0  0
  142.9467  149.5179  138.9416 H   0  0  0  0  0  0  0  0  0  0  0  0
  143.8336  151.0800  138.9416 H   0  0  0  0  0  0  0  0  0  0  0  0
  139.5966  149.7919  138.8624 H   0  0  0  0  0  0  0  0  0  0  0  0
  139.6215  151.0239  137.5555 H   0  0  0  0  0  0  0  0  0  0  0  0
  140.8247  149.6901  137.5555 H   0  0  0  0  0  0  0  0  0  0  0  0
  1  2  1  0
  2  3  1  0
  3  4  1  0
  4  5  2  0
  4  6  1  0
  6  7  1  0
  7  8  2  0
  8  9  1  0
  9 10  2  0
 10 11  1  0
 11 12  2  0
 12 13  1  0
 13 14  1  0
 13 15  2  0
 12 16  1  0
 16 17  1  0
 17 18  2  0
 17 19  1  0
 16 20  1  0
 20 21  2  0
  2 22  1  0
 22 23  1  0
 22 24  1  0
 22 25  1  0
 21  7  1  0
 20 10  1  0
  1 26  1  0
  1 27  1  0
  1 28  1  0
  2 29  1  6
  6 30  1  0
  6 31  1  0
  8 32  1  0
  9 33  1  0
 11 34  1  0
 14 35  1  0
 14 36  1  0
 21 37  1  0
 23 38  1  0
 23 39  1  0
 23 40  1  0
 24 41  1  0
 24 42  1  0
 24 43  1  0
 25 44  1  0
 25 45  1  0
 25 46  1  0
M  CHG  1  19  -1
M  END
>  <UniqueID>  (25) 
25

>  <SMILES>  (25) 
C[C@H](OC(=O)Cc1ccc2cc(C(N)=O)n(C(=O)[O-])c2c1)[Si](C)(C)C

>  <Energy>  (25) 
63.66267176730321

>  <Genealogy>  (25) 
CC(OC(=O)Cc1ccc2cc(C(N)=O)n(C(=O)[O-])c2c1)[Si](C)(C)C (protonated)
C[C@H](OC(=O)Cc1ccc2cc(C(N)=O)n(C(=O)[O-])c2c1)[Si](C)(C)C (chirality)
C[C@H](OC(=O)Cc1ccc2cc(C(N)=O)n(C(=O)[O-])c2c1)[Si](C)(C)C (3D coordinates assigned)
C[C@H](OC(=O)Cc1ccc2cc(C(N)=O)n(C(=O)[O-])c2c1)[Si](C)(C)C (optimized conformer: 63.66267176730321 kcal/mol)

>  <smiles>  (25) 
CC(OC(=O)Cc1ccc2cc(C(N)=O)n(C(=O)O)c2c1)[Si](C)(C)C

>  <score_type>  (25) 
oracle

>  <origin>  (25) 
adg

>  <m_score__min__energy>  (25) 
-7.1399999999999997

>  <m_primary>  (25) 
energy

$$$$
25:0
     RDKit          3D

 41 42  0  0  0  0  0  0  0  0999 V2000
  139.5680  150.9550  132.2300 C   0  0  0  0  0  0  0  0  0  0  0  0
  140.5730  149.9880  131.6090 C   0  0  2  0  0  0  0  0  0  0  0  0
  139.9980  148.6980  131.5750 O   0  0  0  0  0  0  0  0  0  0  0  0
  139.1080  148.5020  130.1310 P   0  0  0  0  0  0  0  0  0  0  0  0
  139.8260  149.2150  129.0080 O   0  0  0  0  0  0  0  0  0  0  0  0
  138.9870  146.8570  129.7510 O   0  0  0  0  0  0  0  0  0  0  0  0
  137.5560  149.1570  130.2960 O   0  0  0  0  0  0  0  0  0  0  0  0
  141.8260  149.9800  132.4380 C   0  0  0  0  0  0  0  0  0  0  0  0
  142.7510  149.1620  132.1770 O   0  0  0  0  0  0  0  0  0  0  0  0
  141.9350  150.8540  133.5240 O   0  0  0  0  0  0  0  0  0  0  0  0
  142.8210  151.9670  133.5330 C   0  0  0  0  0  0  0  0  0  0  0  0
  142.7210  152.6440  134.7820 O   0  0  0  0  0  0  0  0  0  0  0  0
  141.7760  153.6430  135.0320 C   0  0  0  0  0  0  0  0  0  0  0  0
  141.0960  154.1260  134.0850 O   0  0  0  0  0  0  0  0  0  0  0  0
  141.5610  154.0980  136.3780 N   0  0  0  0  0  0  0  0  0  0  0  0
  141.4510  153.3430  137.5090 C   0  0  0  0  0  0  0  0  0  0  0  0
  141.3690  151.8680  137.5680 C   0  0  0  0  0  0  0  0  0  0  0  0
  140.8470  151.1180  136.4740 N   0  0  0  0  0  0  0  0  0  0  0  0
  141.7150  151.2670  138.6190 O   0  0  0  0  0  0  0  0  0  0  0  0
  141.3310  154.1590  138.6310 C   0  0  0  0  0  0  0  0  0  0  0  0
  141.3580  155.4480  138.1500 C   0  0  0  0  0  0  0  0  0  0  0  0
  141.2640  156.6580  138.8290 C   0  0  0  0  0  0  0  0  0  0  0  0
  141.3330  157.8430  138.0780 C   0  0  0  0  0  0  0  0  0  0  0  0
  141.5180  157.8010  136.6720 C   0  0  0  0  0  0  0  0  0  0  0  0
  141.5480  159.0780  135.8710 C   0  0  0  0  0  0  0  0  0  0  0  0
  142.8630  159.4300  135.6250 F   0  0  0  0  0  0  0  0  0  0  0  0
  140.9300  160.1050  136.5650 F   0  0  0  0  0  0  0  0  0  0  0  0
  140.8910  158.9150  134.6640 F   0  0  0  0  0  0  0  0  0  0  0  0
  141.5880  156.5500  136.0160 C   0  0  0  0  0  0  0  0  0  0  0  0
  141.4980  155.3840  136.7870 C   0  0  0  0  0  0  0  0  0  0  0  0
  139.6306  150.8948  133.3266 H   0  0  0  0  0  0  0  0  0  0  0  0
  139.7974  151.9807  131.9054 H   0  0  0  0  0  0  0  0  0  0  0  0
  138.5519  150.6863  131.9054 H   0  0  0  0  0  0  0  0  0  0  0  0
  140.8264  150.3003  130.5852 H   0  0  0  0  0  0  0  0  0  0  0  0
  143.8531  151.6151  133.3884 H   0  0  0  0  0  0  0  0  0  0  0  0
  142.5512  152.6567  132.7197 H   0  0  0  0  0  0  0  0  0  0  0  0
  141.1680  151.2990  135.4980 H   0  0  0  0  0  0  0  0  0  0  0  0
  141.2350  153.8407  139.6795 H   0  0  0  0  0  0  0  0  0  0  0  0
  141.1394  156.6862  139.9215 H   0  0  0  0  0  0  0  0  0  0  0  0
  141.2425  158.8146  138.5858 H   0  0  0  0  0  0  0  0  0  0  0  0
  141.7104  156.4939  134.9243 H   0  0  0  0  0  0  0  0  0  0  0  0
  1  2  1  0
  2  3  1  0
  3  4  1  0
  4  5  2  0
  4  6  1  0
  4  7  1  0
  2  8  1  0
  8  9  2  0
  8 10  1  0
 10 11  1  0
 11 12  1  0
 12 13  1  0
 13 14  2  0
 13 15  1  0
 15 16  1  0
 16 17  1  0
 17 18  1  0
 17 19  2  0
 16 20  2  0
 20 21  1  0
 21 22  2  0
 22 23  1  0
 23 24  2  0
 24 25  1  0
 25 26  1  0
 25 27  1  0
 25 28  1  0
 24 29  1  0
 29 30  2  0
 30 15  1  0
 30 21  1  0
  1 31  1  0
  1 32  1  0
  1 33  1  0
  2 34  1  6
 11 35  1  0
 11 36  1  0
 18 37  1  0
 20 38  1  0
 22 39  1  0
 23 40  1  0
 29 41  1  0
M  CHG  3   6  -1   7  -1  18  -1
M  END
>  <UniqueID>  (26) 
26

>  <SMILES>  (26) 
C[C@H](OP(=O)([O-])[O-])C(=O)OCOC(=O)n1c(C([NH-])=O)cc2ccc(C(F)(F)F)cc21

>  <Energy>  (26) 
74.33333776766545

>  <Genealogy>  (26) 
C[C@H](OP(=O)([O-])[O-])C(=O)OCOC(=O)n1c(C([NH-])=O)cc2ccc(C(F)(F)F)cc21 (protonated)
C[C@H](OP(=O)([O-])[O-])C(=O)OCOC(=O)n1c(C([NH-])=O)cc2ccc(C(F)(F)F)cc21 (3D coordinates assigned)
C[C@H](OP(=O)([O-])[O-])C(=O)OCOC(=O)n1c(C([NH-])=O)cc2ccc(C(F)(F)F)cc21 (optimized conformer: 74.33333776766545 kcal/mol)

>  <smiles>  (26) 
C[C@H](OP(=O)(O)O)C(=O)OCOC(=O)n1c(C(N)=O)cc2ccc(C(F)(F)F)cc21

>  <score_type>  (26) 
oracle

>  <origin>  (26) 
adg

>  <m_score__min__energy>  (26) 
-6.5199999999999996

>  <m_primary>  (26) 
energy

$$$$
26:0
     RDKit          3D

 46 48  0  0  0  0  0  0  0  0999 V2000
  141.2850  158.5530  136.0720 N   0  0  0  0  0  0  0  0  0  0  0  0
  141.2990  158.2910  137.4730 C   0  0  0  0  0  0  0  0  0  0  0  0
  141.3570  159.2560  138.2790 O   0  0  0  0  0  0  0  0  0  0  0  0
  141.2020  156.8980  137.9600 C   0  0  0  0  0  0  0  0  0  0  0  0
  140.9890  156.5680  139.2970 C   0  0  0  0  0  0  0  0  0  0  0  0
  141.0680  155.1960  139.3520 C   0  0  0  0  0  0  0  0  0  0  0  0
  140.9260  154.3340  140.4350 C   0  0  0  0  0  0  0  0  0  0  0  0
  141.0360  152.9540  140.1990 C   0  0  0  0  0  0  0  0  0  0  0  0
  141.2880  152.4630  138.8940 C   0  0  0  0  0  0  0  0  0  0  0  0
  141.3620  150.9830  138.6450 C   0  0  0  0  0  0  0  0  0  0  0  0
  140.3000  150.5720  137.6770 C   0  0  0  0  0  0  0  0  0  0  0  0
  139.1320  150.3350  138.0820 O   0  0  0  0  0  0  0  0  0  0  0  0
  140.6110  150.3980  136.3350 O   0  0  0  0  0  0  0  0  0  0  0  0
  141.4130  153.3680  137.8160 C   0  0  0  0  0  0  0  0  0  0  0  0
  141.3160  154.7390  138.0830 C   0  0  0  0  0  0  0  0  0  0  0  0
  141.3960  155.7720  137.2150 N   0  0  0  0  0  0  0  0  0  0  0  0
  141.5950  155.6730  135.7950 C   0  0  0  0  0  0  0  0  0  0  0  0
  140.6370  155.8900  135.0060 O   0  0  0  0  0  0  0  0  0  0  0  0
  142.8500  155.3110  135.2960 O   0  0  0  0  0  0  0  0  0  0  0  0
  143.0870  155.0560  133.9160 C   0  0  0  0  0  0  0  0  0  0  0  0
  143.3440  156.3850  133.1690 C   0  0  0  0  0  0  0  0  0  0  0  0
  142.7130  157.5810  133.7800 N   0  0  0  0  0  0  0  0  0  0  0  0
  143.6710  158.6630  134.0950 C   0  0  0  0  0  0  0  0  0  0  0  0
  143.1790  159.9290  133.4100 C   0  0  0  0  0  0  0  0  0  0  0  0
  141.7140  159.6740  133.1440 C   0  0  0  0  0  0  0  0  0  0  0  0
  141.6240  158.1690  132.9780 C   0  0  0  0  0  0  0  0  0  0  0  0
  141.3170  157.7720  135.3800 H   0  0  0  0  0  0  0  0  0  0  0  0
  140.7981  157.2586  140.1317 H   0  0  0  0  0  0  0  0  0  0  0  0
  140.7333  154.7220  141.4461 H   0  0  0  0  0  0  0  0  0  0  0  0
  140.9255  152.2477  141.0350 H   0  0  0  0  0  0  0  0  0  0  0  0
  142.3494  150.7327  138.2299 H   0  0  0  0  0  0  0  0  0  0  0  0
  141.2096  150.4497  139.5950 H   0  0  0  0  0  0  0  0  0  0  0  0
  141.5824  153.0042  136.7918 H   0  0  0  0  0  0  0  0  0  0  0  0
  143.9666  154.4037  133.8119 H   0  0  0  0  0  0  0  0  0  0  0  0
  142.2039  154.5635  133.4830 H   0  0  0  0  0  0  0  0  0  0  0  0
  144.4306  156.5525  133.1350 H   0  0  0  0  0  0  0  0  0  0  0  0
  142.8878  156.2714  132.1746 H   0  0  0  0  0  0  0  0  0  0  0  0
  142.2920  157.2620  134.6870 H   0  0  0  0  0  0  0  0  0  0  0  0
  143.7160  158.8188  135.1830 H   0  0  0  0  0  0  0  0  0  0  0  0
  144.6791  158.4004  133.7419 H   0  0  0  0  0  0  0  0  0  0  0  0
  143.3081  160.8014  134.0674 H   0  0  0  0  0  0  0  0  0  0  0  0
  143.7381  160.1488  132.4885 H   0  0  0  0  0  0  0  0  0  0  0  0
  141.0990  160.0107  133.9915 H   0  0  0  0  0  0  0  0  0  0  0  0
  141.3442  160.2186  132.2627 H   0  0  0  0  0  0  0  0  0  0  0  0
  140.6504  157.8066  133.3396 H   0  0  0  0  0  0  0  0  0  0  0  0
  141.7181  157.8844  131.9196 H   0  0  0  0  0  0  0  0  0  0  0  0
  1  2  1  0
  2  3  2  0
  2  4  1  0
  4  5  2  0
  5  6  1  0
  6  7  2  0
  7  8  1  0
  8  9  2  0
  9 10  1  0
 10 11  1  0
 11 12  2  0
 11 13  1  0
  9 14  1  0
 14 15  2  0
 15 16  1  0
 16 17  1  0
 17 18  2  0
 17 19  1  0
 19 20  1  0
 20 21  1  0
 21 22  1  0
 22 23  1  0
 23 24  1  0
 24 25  1  0
 25 26  1  0
 16  4  1  0
 26 22  1  0
 15  6  1  0
  1 27  1  0
  5 28  1  0
  7 29  1  0
  8 30  1  0
 10 31  1  0
 10 32  1  0
 14 33  1  0
 20 34  1  0
 20 35  1  0
 21 36  1  0
 21 37  1  0
 22 38  1  0
 23 39  1  0
 23 40  1  0
 24 41  1  0
 24 42  1  0
 25 43  1  0
 25 44  1  0
 26 45  1  0
 26 46  1  0
M  CHG  3   1  -1  13  -1  22   1
M  END
>  <UniqueID>  (27) 
27

>  <SMILES>  (27) 
[NH-]C(=O)c1cc2ccc(CC(=O)[O-])cc2n1C(=O)OCC[NH+]1CCCC1

>  <Energy>  (27) 
88.55393193752576

>  <Genealogy>  (27) 
[NH-]C(=O)c1cc2ccc(CC(=O)[O-])cc2n1C(=O)OCC[NH+]1CCCC1 (protonated)
[NH-]C(=O)c1cc2ccc(CC(=O)[O-])cc2n1C(=O)OCC[NH+]1CCCC1 (3D coordinates assigned)
[NH-]C(=O)c1cc2ccc(CC(=O)[O-])cc2n1C(=O)OCC[NH+]1CCCC1 (nonaromatic ring conformer: 88.55393193752576 kcal/mol)

>  <smiles>  (27) 
NC(=O)c1cc2ccc(CC(=O)O)cc2n1C(=O)OCCN1CCCC1

>  <score_type>  (27) 
oracle

>  <origin>  (27) 
adg

>  <m_score__min__energy>  (27) 
-5.9400000000000004

>  <m_primary>  (27) 
energy

$$$$
27:0
     RDKit          3D

 42 43  0  0  0  0  0  0  0  0999 V2000
  149.9520  160.1780  129.6520 C   0  0  0  0  0  0  0  0  0  0  0  0
  148.9230  160.4350  130.7470 C   0  0  0  0  0  0  0  0  0  0  0  0
  148.7020  159.2550  131.5150 O   0  0  0  0  0  0  0  0  0  0  0  0
  148.0730  159.2540  132.7660 C   0  0  0  0  0  0  0  0  0  0  0  0
  148.3990  160.0970  133.6450 O   0  0  0  0  0  0  0  0  0  0  0  0
  147.0730  158.2660  133.0560 N   0  0  0  0  0  0  0  0  0  0  0  0
  145.7750  158.4690  133.4250 C   0  0  0  0  0  0  0  0  0  0  0  0
  145.0750  159.7700  133.4600 C   0  0  0  0  0  0  0  0  0  0  0  0
  145.7800  160.9760  133.7410 N   0  0  0  0  0  0  0  0  0  0  0  0
  143.8460  159.8230  133.1900 O   0  0  0  0  0  0  0  0  0  0  0  0
  145.1470  157.2540  133.6860 C   0  0  0  0  0  0  0  0  0  0  0  0
  146.1030  156.2910  133.4550 C   0  0  0  0  0  0  0  0  0  0  0  0
  146.0240  154.9060  133.5660 C   0  0  0  0  0  0  0  0  0  0  0  0
  147.1770  154.1560  133.2810 C   0  0  0  0  0  0  0  0  0  0  0  0
  148.3810  154.7990  132.8960 C   0  0  0  0  0  0  0  0  0  0  0  0
  149.6130  153.9840  132.5990 C   0  0  0  0  0  0  0  0  0  0  0  0
  149.4730  152.4910  132.9790 C   0  0  0  0  0  0  0  0  0  0  0  0
  149.1730  151.5640  131.8620 N   0  0  0  0  0  0  0  0  0  0  0  0
  147.9550  150.7630  132.0620 C   0  0  0  0  0  0  0  0  0  0  0  0
  150.3130  150.7290  131.4540 C   0  0  0  0  0  0  0  0  0  0  0  0
  148.4260  156.2090  132.8140 C   0  0  0  0  0  0  0  0  0  0  0  0
  147.2560  156.9280  133.0790 C   0  0  0  0  0  0  0  0  0  0  0  0
  150.9222  159.9357  130.1102 H   0  0  0  0  0  0  0  0  0  0  0  0
  149.6205  159.3351  129.0278 H   0  0  0  0  0  0  0  0  0  0  0  0
  150.0558  161.0778  129.0278 H   0  0  0  0  0  0  0  0  0  0  0  0
  149.2908  161.2332  131.4085 H   0  0  0  0  0  0  0  0  0  0  0  0
  147.9744  160.7358  130.2784 H   0  0  0  0  0  0  0  0  0  0  0  0
  146.6080  161.2600  133.1720 H   0  0  0  0  0  0  0  0  0  0  0  0
  144.1071  157.0970  134.0085 H   0  0  0  0  0  0  0  0  0  0  0  0
  145.0876  154.4138  133.8676 H   0  0  0  0  0  0  0  0  0  0  0  0
  147.1457  153.0591  133.3572 H   0  0  0  0  0  0  0  0  0  0  0  0
  149.8228  154.0505  131.5212 H   0  0  0  0  0  0  0  0  0  0  0  0
  150.4290  154.3977  133.2098 H   0  0  0  0  0  0  0  0  0  0  0  0
  150.4195  152.1700  133.4384 H   0  0  0  0  0  0  0  0  0  0  0  0
  148.6055  152.4355  133.6530 H   0  0  0  0  0  0  0  0  0  0  0  0
  147.7693  150.6409  133.1393 H   0  0  0  0  0  0  0  0  0  0  0  0
  147.0991  151.2751  131.5981 H   0  0  0  0  0  0  0  0  0  0  0  0
  148.0861  149.7743  131.5981 H   0  0  0  0  0  0  0  0  0  0  0  0
  150.8293  150.3508  132.3487 H   0  0  0  0  0  0  0  0  0  0  0  0
  149.9504  149.8813  130.8541 H   0  0  0  0  0  0  0  0  0  0  0  0
  151.0119  151.3304  130.8541 H   0  0  0  0  0  0  0  0  0  0  0  0
  149.3585  156.7284  132.5482 H   0  0  0  0  0  0  0  0  0  0  0  0
  1  2  1  0
  2  3  1  0
  3  4  1  0
  4  5  2  0
  4  6  1  0
  6  7  1  0
  7  8  1  0
  8  9  1  0
  8 10  2  0
  7 11  2  0
 11 12  1  0
 12 13  2  0
 13 14  1  0
 14 15  2  0
 15 16  1  0
 16 17  1  0
 17 18  1  0
 18 19  1  0
 18 20  1  0
 15 21  1  0
 21 22  2  0
 22  6  1  0
 22 12  1  0
  1 23  1  0
  1 24  1  0
  1 25  1  0
  2 26  1  0
  2 27  1  0
  9 28  1  0
 11 29  1  0
 13 30  1  0
 14 31  1  0
 16 32  1  0
 16 33  1  0
 17 34  1  0
 17 35  1  0
 19 36  1  0
 19 37  1  0
 19 38  1  0
 20 39  1  0
 20 40  1  0
 20 41  1  0
 21 42  1  0
M  CHG  1   9  -1
M  END
>  <UniqueID>  (28) 
28

>  <SMILES>  (28) 
CCOC(=O)n1c(C([NH-])=O)cc2ccc(CCN(C)C)cc21

>  <Energy>  (28) 
79.41612316439209

>  <Genealogy>  (28) 
CCOC(=O)n1c(C([NH-])=O)cc2ccc(CCN(C)C)cc21 (protonated)
CCOC(=O)n1c(C([NH-])=O)cc2ccc(CCN(C)C)cc21 (3D coordinates assigned)
CCOC(=O)n1c(C([NH-])=O)cc2ccc(CCN(C)C)cc21 (optimized conformer: 79.41612316439209 kcal/mol)

>  <smiles>  (28) 
CCOC(=O)n1c(C(N)=O)cc2ccc(CCN(C)C)cc21

>  <score_type>  (28) 
oracle

>  <origin>  (28) 
adg

>  <m_score__min__energy>  (28) 
-6.6399999999999997

>  <m_primary>  (28) 
energy

$$$$
28:0
     RDKit          3D

 41 43  0  0  0  0  0  0  0  0999 V2000
  150.2500  159.7420  130.5410 C   0  0  0  0  0  0  0  0  0  0  0  0
  148.8730  159.3590  130.9180 N   0  0  0  0  0  0  0  0  0  0  0  0
  147.9800  160.4910  130.5990 C   0  0  0  0  0  0  0  0  0  0  0  0
  148.8320  158.9550  132.3560 C   0  0  1  0  0  0  0  0  0  0  0  0
  148.4090  160.0810  133.3290 C   0  0  0  0  0  0  0  0  0  0  0  0
  146.9020  159.9770  133.4530 C   0  0  0  0  0  0  0  0  0  0  0  0
  146.5870  158.5970  133.1250 N   0  0  0  0  0  0  0  0  0  0  0  0
  145.2830  157.9990  133.3080 C   0  0  0  0  0  0  0  0  0  0  0  0
  145.0830  156.6140  133.0610 C   0  0  0  0  0  0  0  0  0  0  0  0
  143.8180  156.0250  133.2250 C   0  0  0  0  0  0  0  0  0  0  0  0
  142.7710  156.8360  133.6460 C   0  0  0  0  0  0  0  0  0  0  0  0
  141.4470  156.5290  133.8600 C   0  0  0  0  0  0  0  0  0  0  0  0
  140.8510  157.7240  134.2610 C   0  0  0  0  0  0  0  0  0  0  0  0
  139.4350  157.8260  134.6760 C   0  0  0  0  0  0  0  0  0  0  0  0
  139.1150  158.2230  136.0070 N   0  0  0  0  0  0  0  0  0  0  0  0
  138.5050  157.6020  133.8580 O   0  0  0  0  0  0  0  0  0  0  0  0
  141.7700  158.7310  134.2860 N   0  0  0  0  0  0  0  0  0  0  0  0
  141.5500  160.1190  134.5850 C   0  0  0  0  0  0  0  0  0  0  0  0
  140.9840  160.4580  135.6580 O   0  0  0  0  0  0  0  0  0  0  0  0
  141.9390  161.1010  133.6830 O   0  0  0  0  0  0  0  0  0  0  0  0
  142.9410  158.1690  133.9100 C   0  0  0  0  0  0  0  0  0  0  0  0
  144.1840  158.7870  133.7350 C   0  0  0  0  0  0  0  0  0  0  0  0
  147.7370  157.8930  132.5730 C   0  0  0  0  0  0  0  0  0  0  0  0
  150.8464  159.9079  131.4503 H   0  0  0  0  0  0  0  0  0  0  0  0
  150.7048  158.9363  129.9461 H   0  0  0  0  0  0  0  0  0  0  0  0
  150.2235  160.6669  129.9461 H   0  0  0  0  0  0  0  0  0  0  0  0
  147.6195  160.9480  131.5324 H   0  0  0  0  0  0  0  0  0  0  0  0
  148.5328  161.2404  130.0135 H   0  0  0  0  0  0  0  0  0  0  0  0
  147.1225  160.1279  130.0135 H   0  0  0  0  0  0  0  0  0  0  0  0
  149.8601  158.6230  132.5630 H   0  0  0  0  0  0  0  0  0  0  0  0
  148.8847  159.9376  134.3104 H   0  0  0  0  0  0  0  0  0  0  0  0
  148.7170  161.0706  132.9605 H   0  0  0  0  0  0  0  0  0  0  0  0
  146.5822  160.2123  134.4789 H   0  0  0  0  0  0  0  0  0  0  0  0
  146.3850  160.6856  132.7892 H   0  0  0  0  0  0  0  0  0  0  0  0
  145.9314  155.9936  132.7365 H   0  0  0  0  0  0  0  0  0  0  0  0
  143.6611  154.9545  133.0262 H   0  0  0  0  0  0  0  0  0  0  0  0
  140.9618  155.5491  133.7402 H   0  0  0  0  0  0  0  0  0  0  0  0
  139.3780  159.1680  136.3640 H   0  0  0  0  0  0  0  0  0  0  0  0
  144.3064  159.8635  133.9250 H   0  0  0  0  0  0  0  0  0  0  0  0
  148.0867  157.1240  133.2775 H   0  0  0  0  0  0  0  0  0  0  0  0
  147.4805  157.3856  131.6313 H   0  0  0  0  0  0  0  0  0  0  0  0
  1  2  1  0
  2  3  1  0
  2  4  1  0
  4  5  1  0
  5  6  1  0
  6  7  1  0
  7  8  1  0
  8  9  2  0
  9 10  1  0
 10 11  2  0
 11 12  1  0
 12 13  2  0
 13 14  1  0
 14 15  1  0
 14 16  2  0
 13 17  1  0
 17 18  1  0
 18 19  2  0
 18 20  1  0
 17 21  1  0
 21 22  2  0
  7 23  1  0
 23  4  1  0
 22  8  1  0
 21 11  1  0
  1 24  1  0
  1 25  1  0
  1 26  1  0
  3 27  1  0
  3 28  1  0
  3 29  1  0
  4 30  1  1
  5 31  1  0
  5 32  1  0
  6 33  1  0
  6 34  1  0
  9 35  1  0
 10 36  1  0
 12 37  1  0
 15 38  1  0
 22 39  1  0
 23 40  1  0
 23 41  1  0
M  CHG  2  15  -1  20  -1
M  END
>  <UniqueID>  (29) 
29

>  <SMILES>  (29) 
CN(C)[C@H]1CCN(c2ccc3cc(C([NH-])=O)n(C(=O)[O-])c3c2)C1

>  <Energy>  (29) 
92.05107201506245

>  <Genealogy>  (29) 
CN(C)C1CCN(c2ccc3cc(C([NH-])=O)n(C(=O)[O-])c3c2)C1 (protonated)
CN(C)[C@H]1CCN(c2ccc3cc(C([NH-])=O)n(C(=O)[O-])c3c2)C1 (chirality)
CN(C)[C@H]1CCN(c2ccc3cc(C([NH-])=O)n(C(=O)[O-])c3c2)C1 (3D coordinates assigned)
CN(C)[C@H]1CCN(c2ccc3cc(C([NH-])=O)n(C(=O)[O-])c3c2)C1 (nonaromatic ring conformer: 92.05107201506245 kcal/mol)

>  <smiles>  (29) 
CN(C)C1CCN(c2ccc3cc(C(N)=O)n(C(=O)O)c3c2)C1

>  <score_type>  (29) 
oracle

>  <origin>  (29) 
adg

>  <m_score__min__energy>  (29) 
-7.0899999999999999

>  <m_primary>  (29) 
energy

$$$$
29:0
     RDKit          3D

 56 58  0  0  0  0  0  0  0  0999 V2000
  141.0270  159.9770  134.8230 N   0  0  0  0  0  0  0  0  0  0  0  0
  141.9890  160.7340  134.0920 C   0  0  0  0  0  0  0  0  0  0  0  0
  141.7160  161.9120  133.7390 O   0  0  0  0  0  0  0  0  0  0  0  0
  143.3370  160.1930  133.8460 C   0  0  0  0  0  0  0  0  0  0  0  0
  144.4410  161.0120  133.6500 C   0  0  0  0  0  0  0  0  0  0  0  0
  145.5110  160.1590  133.5510 C   0  0  0  0  0  0  0  0  0  0  0  0
  146.8600  160.4490  133.3690 C   0  0  0  0  0  0  0  0  0  0  0  0
  147.7650  159.3780  133.3360 C   0  0  0  0  0  0  0  0  0  0  0  0
  147.3120  158.0460  133.4940 C   0  0  0  0  0  0  0  0  0  0  0  0
  148.3020  156.9070  133.5120 C   0  0  0  0  0  0  0  0  0  0  0  0
  147.6320  155.5460  133.7480 C   0  0  0  0  0  0  0  0  0  0  0  0
  146.8340  155.0640  132.5570 C   0  0  0  0  0  0  0  0  0  0  0  0
  146.8650  155.7140  131.5200 O   0  0  0  0  0  0  0  0  0  0  0  0
  146.0670  153.8280  132.6380 N   0  0  2  0  0  0  0  0  0  0  0  0
  144.8080  153.8620  131.8540 C   0  0  0  0  0  0  0  0  0  0  0  0
  143.6630  154.6720  132.4940 C   0  0  0  0  0  0  0  0  0  0  0  0
  142.8760  153.8430  133.5270 C   0  0  0  0  0  0  0  0  0  0  0  0
  143.5320  153.6170  134.7640 O   0  0  0  0  0  0  0  0  0  0  0  0
  144.8530  154.1310  134.8450 C   0  0  0  0  0  0  0  0  0  0  0  0
  145.9100  153.3490  134.0310 C   0  0  0  0  0  0  0  0  0  0  0  0
  145.9340  157.7870  133.6620 C   0  0  0  0  0  0  0  0  0  0  0  0
  145.0430  158.8740  133.6750 C   0  0  0  0  0  0  0  0  0  0  0  0
  143.6930  158.8730  133.8410 N   0  0  0  0  0  0  0  0  0  0  0  0
  142.8040  157.7310  133.8290 C   0  0  0  0  0  0  0  0  0  0  0  0
  143.0680  156.7110  134.5240 O   0  0  0  0  0  0  0  0  0  0  0  0
  141.6470  157.7450  133.0430 O   0  0  0  0  0  0  0  0  0  0  0  0
  140.3830  157.3490  133.4920 C   0  0  0  0  0  0  0  0  0  0  0  0
  140.2030  156.9840  134.6850 O   0  0  0  0  0  0  0  0  0  0  0  0
  139.2210  157.3950  132.5450 C   0  0  0  0  0  0  0  0  0  0  0  0
  138.7010  158.8290  132.3920 C   0  0  0  0  0  0  0  0  0  0  0  0
  139.7630  159.7460  132.4070 O   0  0  0  0  0  0  0  0  0  0  0  0
  140.5740  159.1330  134.4020 H   0  0  0  0  0  0  0  0  0  0  0  0
  144.4548  162.1101  133.5875 H   0  0  0  0  0  0  0  0  0  0  0  0
  147.2060  161.4869  133.2545 H   0  0  0  0  0  0  0  0  0  0  0  0
  148.8368  159.5748  133.1859 H   0  0  0  0  0  0  0  0  0  0  0  0
  148.8247  156.8793  132.5445 H   0  0  0  0  0  0  0  0  0  0  0  0
  148.9986  157.0842  134.3447 H   0  0  0  0  0  0  0  0  0  0  0  0
  148.4138  154.8044  133.9691 H   0  0  0  0  0  0  0  0  0  0  0  0
  146.9302  155.6665  134.5865 H   0  0  0  0  0  0  0  0  0  0  0  0
  146.6540  153.1040  132.1600 H   0  0  0  0  0  0  0  0  0  0  0  0
  145.0300  154.3032  130.8711 H   0  0  0  0  0  0  0  0  0  0  0  0
  144.4538  152.8222  131.7964 H   0  0  0  0  0  0  0  0  0  0  0  0
  144.0890  155.5531  132.9962 H   0  0  0  0  0  0  0  0  0  0  0  0
  142.9675  154.9668  131.6944 H   0  0  0  0  0  0  0  0  0  0  0  0
  141.9335  154.3703  133.7359 H   0  0  0  0  0  0  0  0  0  0  0  0
  142.7412  152.8498  133.0738 H   0  0  0  0  0  0  0  0  0  0  0  0
  144.8387  155.1680  134.4783 H   0  0  0  0  0  0  0  0  0  0  0  0
  145.1521  154.0447  135.9000 H   0  0  0  0  0  0  0  0  0  0  0  0
  146.8799  153.4431  134.5414 H   0  0  0  0  0  0  0  0  0  0  0  0
  145.5633  152.3066  133.9740 H   0  0  0  0  0  0  0  0  0  0  0  0
  145.5660  156.7571  133.7801 H   0  0  0  0  0  0  0  0  0  0  0  0
  139.5419  157.0208  131.5617 H   0  0  0  0  0  0  0  0  0  0  0  0
  138.4123  156.7674  132.9478 H   0  0  0  0  0  0  0  0  0  0  0  0
  138.1611  158.9174  131.4377 H   0  0  0  0  0  0  0  0  0  0  0  0
  138.0285  159.0529  133.2332 H   0  0  0  0  0  0  0  0  0  0  0  0
  140.3620  159.4930  133.1660 H   0  0  0  0  0  0  0  0  0  0  0  0
  1  2  1  0
  2  3  2  0
  2  4  1  0
  4  5  2  0
  5  6  1  0
  6  7  2  0
  7  8  1  0
  8  9  2  0
  9 10  1  0
 10 11  1  0
 11 12  1  0
 12 13  2  0
 12 14  1  0
 14 15  1  0
 15 16  1  0
 16 17  1  0
 17 18  1  0
 18 19  1  0
 19 20  1  0
  9 21  1  0
 21 22  2  0
 22 23  1  0
 23 24  1  0
 24 25  2  0
 24 26  1  0
 26 27  1  0
 27 28  2  0
 27 29  1  0
 29 30  1  0
 30 31  1  0
 23  4  1  0
 22  6  1  0
 20 14  1  0
  1 32  1  0
  5 33  1  0
  7 34  1  0
  8 35  1  0
 10 36  1  0
 10 37  1  0
 11 38  1  0
 11 39  1  0
 14 40  1  6
 15 41  1  0
 15 42  1  0
 16 43  1  0
 16 44  1  0
 17 45  1  0
 17 46  1  0
 19 47  1  0
 19 48  1  0
 20 49  1  0
 20 50  1  0
 21 51  1  0
 29 52  1  0
 29 53  1  0
 30 54  1  0
 30 55  1  0
 31 56  1  0
M  CHG  2   1  -1  14   1
M  END
>  <UniqueID>  (30) 
30

>  <SMILES>  (30) 
[NH-]C(=O)c1cc2ccc(CCC(=O)[N@@H+]3CCCOCC3)cc2n1C(=O)OC(=O)CCO

>  <Energy>  (30) 
112.70334633528597

>  <Genealogy>  (30) 
[NH-]C(=O)c1cc2ccc(CCC(=O)[NH+]3CCCOCC3)cc2n1C(=O)OC(=O)CCO (protonated)
[NH-]C(=O)c1cc2ccc(CCC(=O)[N@@H+]3CCCOCC3)cc2n1C(=O)OC(=O)CCO (chirality)
[NH-]C(=O)c1cc2ccc(CCC(=O)[N@@H+]3CCCOCC3)cc2n1C(=O)OC(=O)CCO (3D coordinates assigned)
[NH-]C(=O)c1cc2ccc(CCC(=O)[N@@H+]3CCCOCC3)cc2n1C(=O)OC(=O)CCO (nonaromatic ring conformer: 112.70334633528597 kcal/mol)

>  <smiles>  (30) 
NC(=O)c1cc2ccc(CCC(=O)N3CCCOCC3)cc2n1C(=O)OC(=O)CCO

>  <score_type>  (30) 
oracle

>  <origin>  (30) 
adg

>  <m_score__min__energy>  (30) 
-5.3499999999999996

>  <m_primary>  (30) 
energy

$$$$
30:0
     RDKit          3D

 46 47  0  0  0  0  0  0  0  0999 V2000
  147.7030  154.5160  133.5970 C   0  0  0  0  0  0  0  0  0  0  0  0
  147.3450  155.8970  133.9260 N   0  0  0  0  0  0  0  0  0  0  0  0
  148.0530  156.5860  135.0090 C   0  0  0  0  0  0  0  0  0  0  0  0
  146.3220  156.5630  133.1600 C   0  0  0  0  0  0  0  0  0  0  0  0
  145.4820  155.8840  132.5080 O   0  0  0  0  0  0  0  0  0  0  0  0
  146.2360  157.9960  133.1330 N   0  0  0  0  0  0  0  0  0  0  0  0
  147.2450  158.8840  132.9080 C   0  0  0  0  0  0  0  0  0  0  0  0
  148.6270  158.5420  132.5110 C   0  0  0  0  0  0  0  0  0  0  0  0
  148.9330  157.3070  131.8590 N   0  0  0  0  0  0  0  0  0  0  0  0
  149.5500  159.3770  132.7090 O   0  0  0  0  0  0  0  0  0  0  0  0
  146.7960  160.1900  133.0920 C   0  0  0  0  0  0  0  0  0  0  0  0
  145.4670  160.0730  133.4360 C   0  0  0  0  0  0  0  0  0  0  0  0
  144.5300  161.0550  133.7450 C   0  0  0  0  0  0  0  0  0  0  0  0
  143.2350  160.6400  134.1020 C   0  0  0  0  0  0  0  0  0  0  0  0
  142.9130  159.2610  134.1730 C   0  0  0  0  0  0  0  0  0  0  0  0
  141.5130  158.8270  134.5270 C   0  0  0  0  0  0  0  0  0  0  0  0
  140.5100  159.2480  133.4790 C   0  0  0  0  0  0  0  0  0  0  0  0
  140.5060  160.4470  133.0770 O   0  0  0  0  0  0  0  0  0  0  0  0
  139.6090  158.2910  132.8740 N   0  0  0  0  0  0  0  0  0  0  0  0
  139.9250  156.8580  132.8840 C   0  0  0  0  0  0  0  0  0  0  0  0
  138.4330  158.7540  132.1260 C   0  0  0  0  0  0  0  0  0  0  0  0
  138.8580  159.4240  130.8570 C   0  0  0  0  0  0  0  0  0  0  0  0
  140.2220  159.3640  130.4390 N   0  0  0  0  0  0  0  0  0  0  0  0
  138.0130  160.0430  130.1570 O   0  0  0  0  0  0  0  0  0  0  0  0
  143.8910  158.2940  133.8530 C   0  0  0  0  0  0  0  0  0  0  0  0
  145.1590  158.7370  133.4660 C   0  0  0  0  0  0  0  0  0  0  0  0
  147.8511  153.9446  134.5252 H   0  0  0  0  0  0  0  0  0  0  0  0
  146.8940  154.0576  133.0093 H   0  0  0  0  0  0  0  0  0  0  0  0
  148.6328  154.5083  133.0093 H   0  0  0  0  0  0  0  0  0  0  0  0
  147.6810  156.2240  135.9788 H   0  0  0  0  0  0  0  0  0  0  0  0
  149.1310  156.3819  134.9304 H   0  0  0  0  0  0  0  0  0  0  0  0
  147.8782  157.6692  134.9304 H   0  0  0  0  0  0  0  0  0  0  0  0
  149.9210  157.0780  131.6150 H   0  0  0  0  0  0  0  0  0  0  0  0
  148.1780  156.6740  131.5150 H   0  0  0  0  0  0  0  0  0  0  0  0
  147.3785  161.1170  132.9853 H   0  0  0  0  0  0  0  0  0  0  0  0
  144.7945  162.1222  133.7109 H   0  0  0  0  0  0  0  0  0  0  0  0
  142.4647  161.3919  134.3283 H   0  0  0  0  0  0  0  0  0  0  0  0
  141.4930  157.7310  134.6182 H   0  0  0  0  0  0  0  0  0  0  0  0
  141.2366  159.3094  135.4761 H   0  0  0  0  0  0  0  0  0  0  0  0
  140.0024  156.5069  133.9236 H   0  0  0  0  0  0  0  0  0  0  0  0
  139.1277  156.3031  132.3680 H   0  0  0  0  0  0  0  0  0  0  0  0
  140.8818  156.6899  132.3680 H   0  0  0  0  0  0  0  0  0  0  0  0
  137.7932  157.8922  131.8852 H   0  0  0  0  0  0  0  0  0  0  0  0
  137.8762  159.4745  132.7431 H   0  0  0  0  0  0  0  0  0  0  0  0
  140.9960  159.6100  131.0960 H   0  0  0  0  0  0  0  0  0  0  0  0
  143.6609  157.2197  133.9069 H   0  0  0  0  0  0  0  0  0  0  0  0
  1  2  1  0
  2  3  1  0
  2  4  1  0
  4  5  2  0
  4  6  1  0
  6  7  1  0
  7  8  1  0
  8  9  1  0
  8 10  2  0
  7 11  2  0
 11 12  1  0
 12 13  2  0
 13 14  1  0
 14 15  2  0
 15 16  1  0
 16 17  1  0
 17 18  2  0
 17 19  1  0
 19 20  1  0
 19 21  1  0
 21 22  1  0
 22 23  1  0
 22 24  2  0
 15 25  1  0
 25 26  2  0
 26  6  1  0
 26 12  1  0
  1 27  1  0
  1 28  1  0
  1 29  1  0
  3 30  1  0
  3 31  1  0
  3 32  1  0
  9 33  1  0
  9 34  1  0
 11 35  1  0
 13 36  1  0
 14 37  1  0
 16 38  1  0
 16 39  1  0
 20 40  1  0
 20 41  1  0
 20 42  1  0
 21 43  1  0
 21 44  1  0
 23 45  1  0
 25 46  1  0
M  CHG  1  23  -1
M  END
>  <UniqueID>  (31) 
31

>  <SMILES>  (31) 
CN(C)C(=O)n1c(C(N)=O)cc2ccc(CC(=O)N(C)CC([NH-])=O)cc21

>  <Energy>  (31) 
80.54432403849115

>  <Genealogy>  (31) 
CN(C)C(=O)n1c(C(N)=O)cc2ccc(CC(=O)N(C)CC([NH-])=O)cc21 (protonated)
CN(C)C(=O)n1c(C(N)=O)cc2ccc(CC(=O)N(C)CC([NH-])=O)cc21 (3D coordinates assigned)
CN(C)C(=O)n1c(C(N)=O)cc2ccc(CC(=O)N(C)CC([NH-])=O)cc21 (optimized conformer: 80.54432403849115 kcal/mol)

>  <smiles>  (31) 
CN(C)C(=O)n1c(C(N)=O)cc2ccc(CC(=O)N(C)CC(N)=O)cc21

>  <score_type>  (31) 
oracle

>  <origin>  (31) 
adg

>  <m_score__min__energy>  (31) 
-7.5300000000000002

>  <m_primary>  (31) 
energy

$$$$
31:0
     RDKit          3D

 36 38  0  0  0  0  0  0  0  0999 V2000
  144.9240  154.4630  135.5790 C   0  0  0  0  0  0  0  0  0  0  0  0
  146.2420  153.7520  135.3930 C   0  0  0  0  0  0  0  0  0  0  0  0
  146.8270  153.3650  136.3940 O   0  0  0  0  0  0  0  0  0  0  0  0
  146.8390  153.5080  134.0910 N   0  0  1  0  0  0  0  0  0  0  0  0
  146.2180  154.2440  132.9830 C   0  0  0  0  0  0  0  0  0  0  0  0
  147.5150  154.9910  132.6530 C   0  0  1  0  0  0  0  0  0  0  0  0
  147.4590  156.4990  132.8010 C   0  0  0  0  0  0  0  0  0  0  0  0
  148.6440  157.2730  132.6980 C   0  0  0  0  0  0  0  0  0  0  0  0
  148.6150  158.6650  132.8790 C   0  0  0  0  0  0  0  0  0  0  0  0
  147.3980  159.2550  133.2030 C   0  0  0  0  0  0  0  0  0  0  0  0
  147.0860  160.5770  133.4210 C   0  0  0  0  0  0  0  0  0  0  0  0
  145.7270  160.5900  133.7270 C   0  0  0  0  0  0  0  0  0  0  0  0
  144.9940  161.8130  134.1150 C   0  0  0  0  0  0  0  0  0  0  0  0
  143.6340  161.9800  133.7200 N   0  0  0  0  0  0  0  0  0  0  0  0
  145.5640  162.7320  134.7620 O   0  0  0  0  0  0  0  0  0  0  0  0
  145.2170  159.3260  133.6940 N   0  0  0  0  0  0  0  0  0  0  0  0
  143.8520  158.9190  133.8900 C   0  0  0  0  0  0  0  0  0  0  0  0
  143.2050  159.3240  134.8910 O   0  0  0  0  0  0  0  0  0  0  0  0
  143.2270  158.0920  132.9650 O   0  0  0  0  0  0  0  0  0  0  0  0
  146.2540  158.5200  133.3730 C   0  0  0  0  0  0  0  0  0  0  0  0
  146.2520  157.1330  133.1830 C   0  0  0  0  0  0  0  0  0  0  0  0
  148.0960  154.2270  133.8480 C   0  0  0  0  0  0  0  0  0  0  0  0
  144.7162  154.5751  136.6534 H   0  0  0  0  0  0  0  0  0  0  0  0
  144.9739  155.4566  135.1096 H   0  0  0  0  0  0  0  0  0  0  0  0
  144.1211  153.8756  135.1096 H   0  0  0  0  0  0  0  0  0  0  0  0
  146.9310  152.4860  133.8720 H   0  0  0  0  0  0  0  0  0  0  0  0
  145.3998  154.9067  133.3015 H   0  0  0  0  0  0  0  0  0  0  0  0
  145.7129  153.6784  132.1862 H   0  0  0  0  0  0  0  0  0  0  0  0
  147.9758  154.9830  131.6542 H   0  0  0  0  0  0  0  0  0  0  0  0
  149.5988  156.7753  132.4732 H   0  0  0  0  0  0  0  0  0  0  0  0
  149.5268  159.2703  132.7680 H   0  0  0  0  0  0  0  0  0  0  0  0
  147.7653  161.4404  133.3655 H   0  0  0  0  0  0  0  0  0  0  0  0
  142.9410  161.2100  133.8420 H   0  0  0  0  0  0  0  0  0  0  0  0
  145.3318  156.5479  133.3275 H   0  0  0  0  0  0  0  0  0  0  0  0
  148.3955  154.8795  134.6814 H   0  0  0  0  0  0  0  0  0  0  0  0
  149.0213  153.6484  133.7102 H   0  0  0  0  0  0  0  0  0  0  0  0
  1  2  1  0
  2  3  2  0
  2  4  1  0
  4  5  1  0
  5  6  1  0
  6  7  1  0
  7  8  2  0
  8  9  1  0
  9 10  2  0
 10 11  1  0
 11 12  2  0
 12 13  1  0
 13 14  1  0
 13 15  2  0
 12 16  1  0
 16 17  1  0
 17 18  2  0
 17 19  1  0
 16 20  1  0
 20 21  2  0
  6 22  1  0
 22  4  1  0
 21  7  1  0
 20 10  1  0
  1 23  1  0
  1 24  1  0
  1 25  1  0
  4 26  1  6
  5 27  1  0
  5 28  1  0
  6 29  1  6
  8 30  1  0
  9 31  1  0
 11 32  1  0
 14 33  1  0
 21 34  1  0
 22 35  1  0
 22 36  1  0
M  CHG  3   4   1  14  -1  19  -1
M  END
>  <UniqueID>  (32) 
32

>  <SMILES>  (32) 
CC(=O)[NH+]1CC(c2ccc3cc(C([NH-])=O)n(C(=O)[O-])c3c2)C1

>  <Energy>  (32) 
152.87740295616976

>  <Genealogy>  (32) 
CC(=O)[NH+]1CC(c2ccc3cc(C([NH-])=O)n(C(=O)[O-])c3c2)C1 (protonated)
CC(=O)[NH+]1CC(c2ccc3cc(C([NH-])=O)n(C(=O)[O-])c3c2)C1 (3D coordinates assigned)
CC(=O)[NH+]1CC(c2ccc3cc(C([NH-])=O)n(C(=O)[O-])c3c2)C1 (nonaromatic ring conformer: 152.87740295616976 kcal/mol)

>  <smiles>  (32) 
CC(=O)N1CC(c2ccc3cc(C(N)=O)n(C(=O)O)c3c2)C1

>  <score_type>  (32) 
oracle

>  <origin>  (32) 
adg

>  <m_score__min__energy>  (32) 
-7.0599999999999996

>  <m_primary>  (32) 
energy

$$$$
32:0
     RDKit          3D

 46 47  0  0  0  0  0  0  0  0999 V2000
  145.4950  155.2350  132.0170 C   0  0  0  0  0  0  0  0  0  0  0  0
  146.1950  155.3740  133.3140 N   0  0  2  0  0  0  0  0  0  0  0  0
  147.3620  156.2290  133.1350 C   0  0  0  0  0  0  0  0  0  0  0  0
  148.1710  155.9930  132.2470 O   0  0  0  0  0  0  0  0  0  0  0  0
  147.5630  157.4640  133.9830 C   0  0  0  0  0  0  0  0  0  0  0  0
  147.2000  158.7350  133.2090 C   0  0  0  0  0  0  0  0  0  0  0  0
  145.7830  159.1470  133.5060 C   0  0  0  0  0  0  0  0  0  0  0  0
  145.4680  160.5160  133.6950 C   0  0  0  0  0  0  0  0  0  0  0  0
  144.1530  160.9120  133.9940 C   0  0  0  0  0  0  0  0  0  0  0  0
  143.1850  159.9190  134.1150 C   0  0  0  0  0  0  0  0  0  0  0  0
  141.8390  160.0250  134.3740 C   0  0  0  0  0  0  0  0  0  0  0  0
  141.3580  158.7170  134.3790 C   0  0  0  0  0  0  0  0  0  0  0  0
  139.9600  158.3680  134.7080 C   0  0  0  0  0  0  0  0  0  0  0  0
  139.5370  158.2290  136.0620 N   0  0  0  0  0  0  0  0  0  0  0  0
  139.1160  158.2370  133.7820 O   0  0  0  0  0  0  0  0  0  0  0  0
  142.3680  157.8370  134.1240 N   0  0  0  0  0  0  0  0  0  0  0  0
  142.2760  156.4110  133.9620 C   0  0  0  0  0  0  0  0  0  0  0  0
  141.1810  155.8760  133.6440 O   0  0  0  0  0  0  0  0  0  0  0  0
  143.4000  155.6120  134.1300 O   0  0  0  0  0  0  0  0  0  0  0  0
  143.4800  158.5880  133.9670 C   0  0  0  0  0  0  0  0  0  0  0  0
  144.7760  158.1670  133.6490 C   0  0  0  0  0  0  0  0  0  0  0  0
  146.5180  154.0720  134.0000 C   0  0  0  0  0  0  0  0  0  0  0  0
  147.9540  153.5630  133.6870 C   0  0  0  0  0  0  0  0  0  0  0  0
  145.5260  152.9620  133.5670 C   0  0  0  0  0  0  0  0  0  0  0  0
  146.3400  154.2360  135.5060 C   0  0  0  0  0  0  0  0  0  0  0  0
  145.6310  155.1620  135.9860 O   0  0  0  0  0  0  0  0  0  0  0  0
  146.9770  153.3590  136.3760 O   0  0  0  0  0  0  0  0  0  0  0  0
  144.4304  155.0236  132.1957 H   0  0  0  0  0  0  0  0  0  0  0  0
  145.5923  156.1700  131.4458 H   0  0  0  0  0  0  0  0  0  0  0  0
  145.9421  154.4081  131.4458 H   0  0  0  0  0  0  0  0  0  0  0  0
  145.5190  155.8840  133.9300 H   0  0  0  0  0  0  0  0  0  0  0  0
  146.9245  157.3935  134.8760 H   0  0  0  0  0  0  0  0  0  0  0  0
  148.6241  157.5214  134.2672 H   0  0  0  0  0  0  0  0  0  0  0  0
  147.8821  159.5458  133.5043 H   0  0  0  0  0  0  0  0  0  0  0  0
  147.2935  158.5341  132.1316 H   0  0  0  0  0  0  0  0  0  0  0  0
  146.2594  161.2749  133.6069 H   0  0  0  0  0  0  0  0  0  0  0  0
  143.8968  161.9733  134.1282 H   0  0  0  0  0  0  0  0  0  0  0  0
  141.2634  160.9472  134.5418 H   0  0  0  0  0  0  0  0  0  0  0  0
  139.4700  159.0590  136.6920 H   0  0  0  0  0  0  0  0  0  0  0  0
  145.0048  157.0996  133.5138 H   0  0  0  0  0  0  0  0  0  0  0  0
  148.4892  153.3733  134.6291 H   0  0  0  0  0  0  0  0  0  0  0  0
  147.8941  152.6313  133.1053 H   0  0  0  0  0  0  0  0  0  0  0  0
  148.4942  154.3244  133.1053 H   0  0  0  0  0  0  0  0  0  0  0  0
  145.0984  152.4835  134.4604 H   0  0  0  0  0  0  0  0  0  0  0  0
  144.7182  153.4060  132.9667 H   0  0  0  0  0  0  0  0  0  0  0  0
  146.0576  152.2090  132.9667 H   0  0  0  0  0  0  0  0  0  0  0  0
  1  2  1  0
  2  3  1  0
  3  4  2  0
  3  5  1  0
  5  6  1  0
  6  7  1  0
  7  8  2  0
  8  9  1  0
  9 10  2  0
 10 11  1  0
 11 12  2  0
 12 13  1  0
 13 14  1  0
 13 15  2  0
 12 16  1  0
 16 17  1  0
 17 18  2  0
 17 19  1  0
 16 20  1  0
 20 21  2  0
  2 22  1  0
 22 23  1  0
 22 24  1  0
 22 25  1  0
 25 26  2  0
 25 27  1  0
 21  7  1  0
 20 10  1  0
  1 28  1  0
  1 29  1  0
  1 30  1  0
  2 31  1  1
  5 32  1  0
  5 33  1  0
  6 34  1  0
  6 35  1  0
  8 36  1  0
  9 37  1  0
 11 38  1  0
 14 39  1  0
 21 40  1  0
 23 41  1  0
 23 42  1  0
 23 43  1  0
 24 44  1  0
 24 45  1  0
 24 46  1  0
M  CHG  4   2   1  14  -1  19  -1  27  -1
M  END
>  <UniqueID>  (33) 
33

>  <SMILES>  (33) 
C[N@H+](C(=O)CCc1ccc2cc(C([NH-])=O)n(C(=O)[O-])c2c1)C(C)(C)C(=O)[O-]

>  <Energy>  (33) 
90.69944502374999

>  <Genealogy>  (33) 
C[NH+](C(=O)CCc1ccc2cc(C([NH-])=O)n(C(=O)[O-])c2c1)C(C)(C)C(=O)[O-] (protonated)
C[N@H+](C(=O)CCc1ccc2cc(C([NH-])=O)n(C(=O)[O-])c2c1)C(C)(C)C(=O)[O-] (chirality)
C[N@H+](C(=O)CCc1ccc2cc(C([NH-])=O)n(C(=O)[O-])c2c1)C(C)(C)C(=O)[O-] (3D coordinates assigned)
C[N@H+](C(=O)CCc1ccc2cc(C([NH-])=O)n(C(=O)[O-])c2c1)C(C)(C)C(=O)[O-] (optimized conformer: 90.69944502374999 kcal/mol)

>  <smiles>  (33) 
CN(C(=O)CCc1ccc2cc(C(N)=O)n(C(=O)O)c2c1)C(C)(C)C(=O)O

>  <score_type>  (33) 
oracle

>  <origin>  (33) 
adg

>  <m_score__min__energy>  (33) 
-7.3200000000000003

>  <m_primary>  (33) 
energy

$$$$
33:0
     RDKit          3D

 42 43  0  0  0  0  0  0  0  0999 V2000
  143.1180  154.4800  135.4750 C   0  0  0  0  0  0  0  0  0  0  0  0
  142.6030  155.2560  134.3430 N   0  0  0  0  0  0  0  0  0  0  0  0
  143.1730  155.0530  132.9990 C   0  0  0  0  0  0  0  0  0  0  0  0
  144.7060  155.0450  133.0410 C   0  0  0  0  0  0  0  0  0  0  0  0
  145.2600  156.4340  133.2160 C   0  0  0  0  0  0  0  0  0  0  0  0
  146.6420  156.6790  133.0150 C   0  0  0  0  0  0  0  0  0  0  0  0
  147.1630  157.9770  133.1400 C   0  0  0  0  0  0  0  0  0  0  0  0
  146.2800  159.0080  133.4510 C   0  0  0  0  0  0  0  0  0  0  0  0
  146.5190  160.3480  133.6450 C   0  0  0  0  0  0  0  0  0  0  0  0
  145.2760  160.9080  133.9320 C   0  0  0  0  0  0  0  0  0  0  0  0
  145.0630  162.3580  134.1260 C   0  0  0  0  0  0  0  0  0  0  0  0
  145.9730  163.1070  134.9290 N   0  0  0  0  0  0  0  0  0  0  0  0
  144.1070  162.9520  133.5620 O   0  0  0  0  0  0  0  0  0  0  0  0
  144.3060  159.9490  133.9220 N   0  0  0  0  0  0  0  0  0  0  0  0
  142.9090  160.1020  134.2240 C   0  0  0  0  0  0  0  0  0  0  0  0
  142.1750  160.8250  133.4970 O   0  0  0  0  0  0  0  0  0  0  0  0
  142.3580  159.4740  135.3330 O   0  0  0  0  0  0  0  0  0  0  0  0
  144.9370  158.7910  133.6240 C   0  0  0  0  0  0  0  0  0  0  0  0
  144.3930  157.5050  133.5250 C   0  0  0  0  0  0  0  0  0  0  0  0
  141.6010  156.2620  134.5960 C   0  0  0  0  0  0  0  0  0  0  0  0
  141.3390  156.5840  135.7880 O   0  0  0  0  0  0  0  0  0  0  0  0
  140.8710  156.9570  133.4650 C   0  0  2  0  0  0  0  0  0  0  0  0
  141.7330  157.8390  132.7920 O   0  0  0  0  0  0  0  0  0  0  0  0
  139.6130  157.6960  133.9570 C   0  0  0  0  0  0  0  0  0  0  0  0
  139.7610  159.0800  133.7850 O   0  0  0  0  0  0  0  0  0  0  0  0
  142.8040  154.9532  136.4171 H   0  0  0  0  0  0  0  0  0  0  0  0
  142.7199  153.4556  135.4287 H   0  0  0  0  0  0  0  0  0  0  0  0
  144.2166  154.4489  135.4287 H   0  0  0  0  0  0  0  0  0  0  0  0
  142.8201  154.0899  132.6015 H   0  0  0  0  0  0  0  0  0  0  0  0
  142.8470  155.8823  132.3540 H   0  0  0  0  0  0  0  0  0  0  0  0
  145.0373  154.4193  133.8828 H   0  0  0  0  0  0  0  0  0  0  0  0
  145.0755  154.6436  132.0858 H   0  0  0  0  0  0  0  0  0  0  0  0
  147.3119  155.8450  132.7589 H   0  0  0  0  0  0  0  0  0  0  0  0
  148.2358  158.1734  132.9966 H   0  0  0  0  0  0  0  0  0  0  0  0
  147.4866  160.8678  133.5861 H   0  0  0  0  0  0  0  0  0  0  0  0
  147.0020  163.0550  134.7650 H   0  0  0  0  0  0  0  0  0  0  0  0
  143.3182  157.3332  133.6838 H   0  0  0  0  0  0  0  0  0  0  0  0
  140.5376  156.1796  132.7618 H   0  0  0  0  0  0  0  0  0  0  0  0
  141.8260  158.6540  133.3530 H   0  0  0  0  0  0  0  0  0  0  0  0
  138.7413  157.3504  133.3819 H   0  0  0  0  0  0  0  0  0  0  0  0
  139.4688  157.4825  135.0264 H   0  0  0  0  0  0  0  0  0  0  0  0
  140.7020  159.2980  134.0140 H   0  0  0  0  0  0  0  0  0  0  0  0
  1  2  1  0
  2  3  1  0
  3  4  1  0
  4  5  1  0
  5  6  2  0
  6  7  1  0
  7  8  2  0
  8  9  1  0
  9 10  2  0
 10 11  1  0
 11 12  1  0
 11 13  2  0
 10 14  1  0
 14 15  1  0
 15 16  2  0
 15 17  1  0
 14 18  1  0
 18 19  2  0
  2 20  1  0
 20 21  2  0
 20 22  1  0
 22 23  1  0
 22 24  1  0
 24 25  1  0
 19  5  1  0
 18  8  1  0
  1 26  1  0
  1 27  1  0
  1 28  1  0
  3 29  1  0
  3 30  1  0
  4 31  1  0
  4 32  1  0
  6 33  1  0
  7 34  1  0
  9 35  1  0
 12 36  1  0
 19 37  1  0
 22 38  1  6
 23 39  1  0
 24 40  1  0
 24 41  1  0
 25 42  1  0
M  CHG  2  12  -1  17  -1
M  END
>  <UniqueID>  (34) 
34

>  <SMILES>  (34) 
CN(CCc1ccc2cc(C([NH-])=O)n(C(=O)[O-])c2c1)C(=O)[C@H](O)CO

>  <Energy>  (34) 
76.58820506210826

>  <Genealogy>  (34) 
CN(CCc1ccc2cc(C([NH-])=O)n(C(=O)[O-])c2c1)C(=O)C(O)CO (protonated)
CN(CCc1ccc2cc(C([NH-])=O)n(C(=O)[O-])c2c1)C(=O)[C@H](O)CO (chirality)
CN(CCc1ccc2cc(C([NH-])=O)n(C(=O)[O-])c2c1)C(=O)[C@H](O)CO (3D coordinates assigned)
CN(CCc1ccc2cc(C([NH-])=O)n(C(=O)[O-])c2c1)C(=O)[C@H](O)CO (optimized conformer: 76.58820506210826 kcal/mol)

>  <smiles>  (34) 
CN(CCc1ccc2cc(C(N)=O)n(C(=O)O)c2c1)C(=O)C(O)CO

>  <score_type>  (34) 
oracle

>  <origin>  (34) 
adg

>  <m_score__min__energy>  (34) 
-5.0199999999999996

>  <m_primary>  (34) 
energy

$$$$
34:0
     RDKit          3D

 30 31  0  0  0  0  0  0  0  0999 V2000
  144.5290  160.4680  133.7270 C   0  0  0  0  0  0  0  0  0  0  0  0
  145.4500  159.8430  132.9960 C   0  0  0  0  0  0  0  0  0  0  0  0
  146.8960  160.0440  133.2010 C   0  0  0  0  0  0  0  0  0  0  0  0
  147.3260  161.1080  133.7260 O   0  0  0  0  0  0  0  0  0  0  0  0
  147.8270  159.0240  132.8060 N   0  0  0  0  0  0  0  0  0  0  0  0
  148.8330  159.1230  131.8930 C   0  0  0  0  0  0  0  0  0  0  0  0
  149.2620  160.3600  131.2050 C   0  0  0  0  0  0  0  0  0  0  0  0
  148.4730  161.5460  131.2650 N   0  0  0  0  0  0  0  0  0  0  0  0
  150.3580  160.3800  130.5840 O   0  0  0  0  0  0  0  0  0  0  0  0
  149.4630  157.8910  131.7260 C   0  0  0  0  0  0  0  0  0  0  0  0
  148.8050  157.0270  132.5720 C   0  0  0  0  0  0  0  0  0  0  0  0
  149.0010  155.6670  132.7920 C   0  0  0  0  0  0  0  0  0  0  0  0
  148.1450  155.0170  133.6970 C   0  0  0  0  0  0  0  0  0  0  0  0
  147.1180  155.7330  134.3610 C   0  0  0  0  0  0  0  0  0  0  0  0
  146.1800  155.0170  135.2920 C   0  0  0  0  0  0  0  0  0  0  0  0
  146.9560  154.2120  136.2840 C   0  0  0  0  0  0  0  0  0  0  0  0
  148.0480  154.6460  136.7360 O   0  0  0  0  0  0  0  0  0  0  0  0
  146.4520  153.0020  136.7450 O   0  0  0  0  0  0  0  0  0  0  0  0
  146.9430  157.1100  134.1020 C   0  0  0  0  0  0  0  0  0  0  0  0
  147.8210  157.7350  133.2100 C   0  0  0  0  0  0  0  0  0  0  0  0
  143.4607  160.2866  133.5380 H   0  0  0  0  0  0  0  0  0  0  0  0
  144.8366  161.1657  134.5199 H   0  0  0  0  0  0  0  0  0  0  0  0
  145.1190  159.1498  132.2086 H   0  0  0  0  0  0  0  0  0  0  0  0
  148.1130  161.9060  132.1760 H   0  0  0  0  0  0  0  0  0  0  0  0
  150.3068  157.6584  131.0597 H   0  0  0  0  0  0  0  0  0  0  0  0
  149.8010  155.1180  132.2737 H   0  0  0  0  0  0  0  0  0  0  0  0
  148.2733  153.9420  133.8920 H   0  0  0  0  0  0  0  0  0  0  0  0
  145.5630  155.7551  135.8254 H   0  0  0  0  0  0  0  0  0  0  0  0
  145.5362  154.3439  134.7069 H   0  0  0  0  0  0  0  0  0  0  0  0
  146.1364  157.6772  134.5895 H   0  0  0  0  0  0  0  0  0  0  0  0
  1  2  2  0
  2  3  1  0
  3  4  2  0
  3  5  1  0
  5  6  1  0
  6  7  1  0
  7  8  1  0
  7  9  2  0
  6 10  2  0
 10 11  1  0
 11 12  2  0
 12 13  1  0
 13 14  2  0
 14 15  1  0
 15 16  1  0
 16 17  2  0
 16 18  1  0
 14 19  1  0
 19 20  2  0
 20  5  1  0
 20 11  1  0
  1 21  1  0
  1 22  1  0
  2 23  1  0
  8 24  1  0
 10 25  1  0
 12 26  1  0
 13 27  1  0
 15 28  1  0
 15 29  1  0
 19 30  1  0
M  CHG  2   8  -1  18  -1
M  END
>  <UniqueID>  (35) 
35

>  <SMILES>  (35) 
C=CC(=O)n1c(C([NH-])=O)cc2ccc(CC(=O)[O-])cc21

>  <Energy>  (35) 
67.10106680113394

>  <Genealogy>  (35) 
C=CC(=O)n1c(C([NH-])=O)cc2ccc(CC(=O)[O-])cc21 (protonated)
C=CC(=O)n1c(C([NH-])=O)cc2ccc(CC(=O)[O-])cc21 (3D coordinates assigned)
C=CC(=O)n1c(C([NH-])=O)cc2ccc(CC(=O)[O-])cc21 (optimized conformer: 67.10106680113394 kcal/mol)

>  <smiles>  (35) 
C=CC(=O)n1c(C(N)=O)cc2ccc(CC(=O)O)cc21

>  <score_type>  (35) 
oracle

>  <origin>  (35) 
adg

>  <m_score__min__energy>  (35) 
-6.7599999999999998

>  <m_primary>  (35) 
energy

$$$$
35:0
     RDKit          3D

 49 51  0  0  0  0  0  0  0  0999 V2000
  139.1080  146.8130  129.9410 C   0  0  0  0  0  0  0  0  0  0  0  0
  138.7780  147.8080  130.8840 O   0  0  0  0  0  0  0  0  0  0  0  0
  139.4700  148.9980  130.5700 C   0  0  0  0  0  0  0  0  0  0  0  0
  140.6500  149.1740  131.5280 C   0  0  0  0  0  0  0  0  0  0  0  0
  140.2670  150.0200  132.7500 C   0  0  0  0  0  0  0  0  0  0  0  0
  141.1760  151.2150  132.8680 C   0  0  0  0  0  0  0  0  0  0  0  0
  142.5800  151.0380  132.9240 C   0  0  0  0  0  0  0  0  0  0  0  0
  143.4350  152.1420  133.0830 C   0  0  0  0  0  0  0  0  0  0  0  0
  142.8570  153.4050  133.1850 C   0  0  0  0  0  0  0  0  0  0  0  0
  143.4440  154.6330  133.3830 C   0  0  0  0  0  0  0  0  0  0  0  0
  142.3890  155.5420  133.4380 C   0  0  0  0  0  0  0  0  0  0  0  0
  142.5740  157.0030  133.5690 C   0  0  0  0  0  0  0  0  0  0  0  0
  142.2320  157.6540  134.7890 N   0  0  0  0  0  0  0  0  0  0  0  0
  143.0640  157.6770  132.6260 O   0  0  0  0  0  0  0  0  0  0  0  0
  141.1970  154.9000  133.2810 N   0  0  0  0  0  0  0  0  0  0  0  0
  139.8780  155.4610  133.3590 C   0  0  0  0  0  0  0  0  0  0  0  0
  138.9220  154.9020  132.7550 O   0  0  0  0  0  0  0  0  0  0  0  0
  139.6590  156.6100  134.1300 O   0  0  0  0  0  0  0  0  0  0  0  0
  139.0190  157.7890  133.6420 C   0  0  0  0  0  0  0  0  0  0  0  0
  139.6920  158.2700  132.3400 C   0  0  1  0  0  0  0  0  0  0  0  0
  138.7130  158.3060  131.1940 C   0  0  0  0  0  0  0  0  0  0  0  0
  138.2100  159.7380  131.2040 C   0  0  0  0  0  0  0  0  0  0  0  0
  139.0870  160.5450  131.9570 O   0  0  0  0  0  0  0  0  0  0  0  0
  140.1380  159.7220  132.4080 C   0  0  0  0  0  0  0  0  0  0  0  0
  141.5000  153.5920  133.1270 C   0  0  0  0  0  0  0  0  0  0  0  0
  140.6250  152.5090  132.9860 C   0  0  0  0  0  0  0  0  0  0  0  0
  139.4122  145.8959  130.4668 H   0  0  0  0  0  0  0  0  0  0  0  0
  138.2322  146.6007  129.3103 H   0  0  0  0  0  0  0  0  0  0  0  0
  139.9371  147.1662  129.3103 H   0  0  0  0  0  0  0  0  0  0  0  0
  139.8427  148.9429  129.5365 H   0  0  0  0  0  0  0  0  0  0  0  0
  138.7873  149.8547  130.6703 H   0  0  0  0  0  0  0  0  0  0  0  0
  140.9822  148.1828  131.8704 H   0  0  0  0  0  0  0  0  0  0  0  0
  141.4551  149.6947  130.9888 H   0  0  0  0  0  0  0  0  0  0  0  0
  139.2280  150.3645  132.6409 H   0  0  0  0  0  0  0  0  0  0  0  0
  140.3684  149.4042  133.6558 H   0  0  0  0  0  0  0  0  0  0  0  0
  143.0053  150.0268  132.8423 H   0  0  0  0  0  0  0  0  0  0  0  0
  144.5265  152.0126  133.1255 H   0  0  0  0  0  0  0  0  0  0  0  0
  144.5180  154.8513  133.4778 H   0  0  0  0  0  0  0  0  0  0  0  0
  141.2350  157.7470  135.0870 H   0  0  0  0  0  0  0  0  0  0  0  0
  137.9598  157.5695  133.4422 H   0  0  0  0  0  0  0  0  0  0  0  0
  139.1059  158.5807  134.4007 H   0  0  0  0  0  0  0  0  0  0  0  0
  140.5271  157.5670  132.2044 H   0  0  0  0  0  0  0  0  0  0  0  0
  139.2124  158.0711  130.2425 H   0  0  0  0  0  0  0  0  0  0  0  0
  137.9049  157.5669  131.2969 H   0  0  0  0  0  0  0  0  0  0  0  0
  138.1612  160.1155  130.1720 H   0  0  0  0  0  0  0  0  0  0  0  0
  137.2079  159.7687  131.6567 H   0  0  0  0  0  0  0  0  0  0  0  0
  141.0210  159.8672  131.7683 H   0  0  0  0  0  0  0  0  0  0  0  0
  140.3971  159.9836  133.4446 H   0  0  0  0  0  0  0  0  0  0  0  0
  139.5359  152.6623  132.9676 H   0  0  0  0  0  0  0  0  0  0  0  0
  1  2  1  0
  2  3  1  0
  3  4  1  0
  4  5  1  0
  5  6  1  0
  6  7  2  0
  7  8  1  0
  8  9  2  0
  9 10  1  0
 10 11  2  0
 11 12  1  0
 12 13  1  0
 12 14  2  0
 11 15  1  0
 15 16  1  0
 16 17  2  0
 16 18  1  0
 18 19  1  0
 19 20  1  0
 20 21  1  0
 21 22  1  0
 22 23  1  0
 23 24  1  0
 15 25  1  0
 25 26  2  0
 26  6  1  0
 25  9  1  0
 24 20  1  0
  1 27  1  0
  1 28  1  0
  1 29  1  0
  3 30  1  0
  3 31  1  0
  4 32  1  0
  4 33  1  0
  5 34  1  0
  5 35  1  0
  7 36  1  0
  8 37  1  0
 10 38  1  0
 13 39  1  0
 19 40  1  0
 19 41  1  0
 20 42  1  6
 21 43  1  0
 21 44  1  0
 22 45  1  0
 22 46  1  0
 24 47  1  0
 24 48  1  0
 26 49  1  0
M  CHG  1  13  -1
M  END
>  <UniqueID>  (36) 
36

>  <SMILES>  (36) 
COCCCc1ccc2cc(C([NH-])=O)n(C(=O)OC[C@H]3CCOC3)c2c1

>  <Energy>  (36) 
84.11019813149925

>  <Genealogy>  (36) 
COCCCc1ccc2cc(C([NH-])=O)n(C(=O)OCC3CCOC3)c2c1 (protonated)
COCCCc1ccc2cc(C([NH-])=O)n(C(=O)OC[C@H]3CCOC3)c2c1 (chirality)
COCCCc1ccc2cc(C([NH-])=O)n(C(=O)OC[C@H]3CCOC3)c2c1 (3D coordinates assigned)
COCCCc1ccc2cc(C([NH-])=O)n(C(=O)OC[C@H]3CCOC3)c2c1 (nonaromatic ring conformer: 84.11019813149925 kcal/mol)

>  <smiles>  (36) 
COCCCc1ccc2cc(C(N)=O)n(C(=O)OCC3CCOC3)c2c1

>  <score_type>  (36) 
oracle

>  <origin>  (36) 
adg

>  <m_score__min__energy>  (36) 
-7.2699999999999996

>  <m_primary>  (36) 
energy

$$$$
36:0
     RDKit          3D

 51 54  0  0  0  0  0  0  0  0999 V2000
  147.3150  159.1130  132.7200 C   0  0  0  0  0  0  0  0  0  0  0  0
  145.9080  159.2010  132.5320 O   0  0  0  0  0  0  0  0  0  0  0  0
  144.9880  158.6670  133.4390 C   0  0  0  0  0  0  0  0  0  0  0  0
  145.3140  157.7000  134.1810 O   0  0  0  0  0  0  0  0  0  0  0  0
  143.6690  159.2310  133.5330 N   0  0  0  0  0  0  0  0  0  0  0  0
  143.3400  160.5390  133.7290 C   0  0  0  0  0  0  0  0  0  0  0  0
  144.2780  161.6820  133.7190 C   0  0  0  0  0  0  0  0  0  0  0  0
  145.6600  161.4670  133.9950 N   0  0  0  0  0  0  0  0  0  0  0  0
  143.8640  162.8530  133.5100 O   0  0  0  0  0  0  0  0  0  0  0  0
  141.9610  160.6840  133.8570 C   0  0  0  0  0  0  0  0  0  0  0  0
  141.4480  159.4150  133.7210 C   0  0  0  0  0  0  0  0  0  0  0  0
  140.1300  158.9760  133.7720 C   0  0  0  0  0  0  0  0  0  0  0  0
  139.8860  157.6010  133.6240 C   0  0  0  0  0  0  0  0  0  0  0  0
  140.9580  156.6910  133.4360 C   0  0  0  0  0  0  0  0  0  0  0  0
  140.6870  155.2450  133.2920 C   0  0  0  0  0  0  0  0  0  0  0  0
  139.5580  154.7430  132.7540 N   0  0  0  0  0  0  0  0  0  0  0  0
  139.7030  153.4550  132.8130 O   0  0  0  0  0  0  0  0  0  0  0  0
  140.8570  153.1620  133.3620 C   0  0  0  0  0  0  0  0  0  0  0  0
  141.3290  151.7790  133.5670 C   0  0  0  0  0  0  0  0  0  0  0  0
  141.4400  151.3590  134.7480 O   0  0  0  0  0  0  0  0  0  0  0  0
  141.6590  150.8840  132.4940 N   0  0  0  0  0  0  0  0  0  0  0  0
  140.7430  150.2490  131.5470 C   0  0  0  0  0  0  0  0  0  0  0  0
  141.2940  148.8760  131.0940 C   0  0  0  0  0  0  0  0  0  0  0  0
  140.1940  147.8070  130.9230 C   0  0  0  0  0  0  0  0  0  0  0  0
  138.9330  148.3690  130.3980 N   0  0  0  0  0  0  0  0  0  0  0  0
  139.0560  148.7720  128.9880 C   0  0  0  0  0  0  0  0  0  0  0  0
  138.3600  149.4470  131.2470 C   0  0  0  0  0  0  0  0  0  0  0  0
  139.3740  150.0920  132.2140 C   0  0  0  0  0  0  0  0  0  0  0  0
  141.5390  154.2760  133.6870 N   0  0  0  0  0  0  0  0  0  0  0  0
  142.2870  157.1770  133.3930 C   0  0  0  0  0  0  0  0  0  0  0  0
  142.4980  158.5560  133.5260 C   0  0  0  0  0  0  0  0  0  0  0  0
  147.5409  159.0989  133.7965 H   0  0  0  0  0  0  0  0  0  0  0  0
  147.6901  158.1896  132.2545 H   0  0  0  0  0  0  0  0  0  0  0  0
  147.8022  159.9824  132.2545 H   0  0  0  0  0  0  0  0  0  0  0  0
  146.3270  161.2210  133.2310 H   0  0  0  0  0  0  0  0  0  0  0  0
  141.4012  161.6150  134.0300 H   0  0  0  0  0  0  0  0  0  0  0  0
  139.3026  159.6848  133.9238 H   0  0  0  0  0  0  0  0  0  0  0  0
  138.8525  157.2255  133.6541 H   0  0  0  0  0  0  0  0  0  0  0  0
  140.6430  150.8791  130.6509 H   0  0  0  0  0  0  0  0  0  0  0  0
  141.8082  149.0061  130.1303 H   0  0  0  0  0  0  0  0  0  0  0  0
  141.9758  148.5211  131.8809 H   0  0  0  0  0  0  0  0  0  0  0  0
  140.5552  147.0384  130.2239 H   0  0  0  0  0  0  0  0  0  0  0  0
  139.9825  147.3845  131.9164 H   0  0  0  0  0  0  0  0  0  0  0  0
  139.3767  149.8228  128.9336 H   0  0  0  0  0  0  0  0  0  0  0  0
  139.8006  148.1350  128.4882 H   0  0  0  0  0  0  0  0  0  0  0  0
  138.0826  148.6594  128.4882 H   0  0  0  0  0  0  0  0  0  0  0  0
  137.9638  150.2328  130.5871 H   0  0  0  0  0  0  0  0  0  0  0  0
  137.5806  148.9815  131.8682 H   0  0  0  0  0  0  0  0  0  0  0  0
  139.0042  151.0834  132.5146 H   0  0  0  0  0  0  0  0  0  0  0  0
  139.4845  149.4398  133.0929 H   0  0  0  0  0  0  0  0  0  0  0  0
  143.1341  156.4883  133.2584 H   0  0  0  0  0  0  0  0  0  0  0  0
  1  2  1  0
  2  3  1  0
  3  4  2  0
  3  5  1  0
  5  6  1  0
  6  7  1  0
  7  8  1  0
  7  9  2  0
  6 10  2  0
 10 11  1  0
 11 12  2  0
 12 13  1  0
 13 14  2  0
 14 15  1  0
 15 16  2  0
 16 17  1  0
 17 18  1  0
 18 19  1  0
 19 20  2  0
 19 21  1  0
 21 22  1  0
 22 23  1  0
 23 24  1  0
 24 25  1  0
 25 26  1  0
 25 27  1  0
 27 28  1  0
 18 29  2  0
 14 30  1  0
 30 31  2  0
 31  5  1  0
 31 11  1  0
 29 15  1  0
 28 22  1  0
  1 32  1  0
  1 33  1  0
  1 34  1  0
  8 35  1  0
 10 36  1  0
 12 37  1  0
 13 38  1  0
 22 39  1  0
 23 40  1  0
 23 41  1  0
 24 42  1  0
 24 43  1  0
 26 44  1  0
 26 45  1  0
 26 46  1  0
 27 47  1  0
 27 48  1  0
 28 49  1  0
 28 50  1  0
 30 51  1  0
M  CHG  2   8  -1  21  -1
M  END
>  <UniqueID>  (37) 
37

>  <SMILES>  (37) 
COC(=O)n1c(C([NH-])=O)cc2ccc(-c3noc(C(=O)[N-]C4CCN(C)CC4)n3)cc21

>  <Energy>  (37) 
130.05048964621562

>  <Genealogy>  (37) 
COC(=O)n1c(C([NH-])=O)cc2ccc(-c3noc(C(=O)[N-]C4CCN(C)CC4)n3)cc21 (protonated)
COC(=O)n1c(C([NH-])=O)cc2ccc(-c3noc(C(=O)[N-]C4CCN(C)CC4)n3)cc21 (3D coordinates assigned)
COC(=O)n1c(C([NH-])=O)cc2ccc(-c3noc(C(=O)[N-]C4CCN(C)CC4)n3)cc21 (nonaromatic ring conformer: 130.05048964621562 kcal/mol)

>  <smiles>  (37) 
COC(=O)n1c(C(N)=O)cc2ccc(-c3noc(C(=O)NC4CCN(C)CC4)n3)cc21

>  <score_type>  (37) 
oracle

>  <origin>  (37) 
adg

>  <m_score__min__energy>  (37) 
-9.4299999999999997

>  <m_primary>  (37) 
energy

$$$$
37:0
     RDKit          3D

 51 52  0  0  0  0  0  0  0  0999 V2000
  140.6280  158.4370  136.5830 C   0  0  0  0  0  0  0  0  0  0  0  0
  140.8160  159.3320  135.3590 C   0  0  0  0  0  0  0  0  0  0  0  0
  139.8310  158.9940  134.3050 N   0  0  0  0  0  0  0  0  0  0  0  0
  140.3850  159.2620  132.9570 C   0  0  0  0  0  0  0  0  0  0  0  0
  139.4270  160.1340  132.1550 C   0  0  0  0  0  0  0  0  0  0  0  0
  139.3780  157.5870  134.4210 C   0  0  0  0  0  0  0  0  0  0  0  0
  139.1780  156.9610  133.0330 C   0  0  0  0  0  0  0  0  0  0  0  0
  139.6350  155.4990  132.9700 C   0  0  0  0  0  0  0  0  0  0  0  0
  140.5060  155.1800  134.0940 N   0  0  0  0  0  0  0  0  0  0  0  0
  141.8240  154.6510  133.9170 C   0  0  0  0  0  0  0  0  0  0  0  0
  142.0760  153.8840  132.9480 O   0  0  0  0  0  0  0  0  0  0  0  0
  142.9190  155.0370  134.8620 C   0  0  0  0  0  0  0  0  0  0  0  0
  143.6320  156.2640  134.3620 C   0  0  0  0  0  0  0  0  0  0  0  0
  142.8920  157.3910  133.9270 C   0  0  0  0  0  0  0  0  0  0  0  0
  143.5470  158.5200  133.4080 C   0  0  0  0  0  0  0  0  0  0  0  0
  144.9360  158.4920  133.3340 C   0  0  0  0  0  0  0  0  0  0  0  0
  145.8150  159.4500  132.8850 C   0  0  0  0  0  0  0  0  0  0  0  0
  147.0790  158.8870  133.0350 C   0  0  0  0  0  0  0  0  0  0  0  0
  148.3210  159.5560  132.6030 C   0  0  0  0  0  0  0  0  0  0  0  0
  149.6030  159.0140  132.9210 N   0  0  0  0  0  0  0  0  0  0  0  0
  148.2490  160.5920  131.8880 O   0  0  0  0  0  0  0  0  0  0  0  0
  146.9910  157.6370  133.5700 N   0  0  0  0  0  0  0  0  0  0  0  0
  148.0750  156.7840  133.9740 C   0  0  0  0  0  0  0  0  0  0  0  0
  148.3540  156.6360  135.1930 O   0  0  0  0  0  0  0  0  0  0  0  0
  148.8340  156.1150  133.0200 O   0  0  0  0  0  0  0  0  0  0  0  0
  145.6690  157.4080  133.7460 C   0  0  0  0  0  0  0  0  0  0  0  0
  145.0420  156.2780  134.2890 C   0  0  0  0  0  0  0  0  0  0  0  0
  140.7537  159.0353  137.4975 H   0  0  0  0  0  0  0  0  0  0  0  0
  139.6185  158.0003  136.5664 H   0  0  0  0  0  0  0  0  0  0  0  0
  141.3765  157.6311  136.5664 H   0  0  0  0  0  0  0  0  0  0  0  0
  140.6806  160.3825  135.6559 H   0  0  0  0  0  0  0  0  0  0  0  0
  141.8287  159.1751  134.9592 H   0  0  0  0  0  0  0  0  0  0  0  0
  141.3498  159.7807  133.0578 H   0  0  0  0  0  0  0  0  0  0  0  0
  140.5241  158.3060  132.4309 H   0  0  0  0  0  0  0  0  0  0  0  0
  138.7927  160.7113  132.8438 H   0  0  0  0  0  0  0  0  0  0  0  0
  140.0029  160.8243  131.5211 H   0  0  0  0  0  0  0  0  0  0  0  0
  138.7937  159.4959  131.5211 H   0  0  0  0  0  0  0  0  0  0  0  0
  140.1349  157.0089  134.9714 H   0  0  0  0  0  0  0  0  0  0  0  0
  138.4175  157.5694  134.9569 H   0  0  0  0  0  0  0  0  0  0  0  0
  138.1090  157.0065  132.7775 H   0  0  0  0  0  0  0  0  0  0  0  0
  139.7921  157.5313  132.3205 H   0  0  0  0  0  0  0  0  0  0  0  0
  138.7521  154.8436  133.0006 H   0  0  0  0  0  0  0  0  0  0  0  0
  140.1944  155.3445  132.0356 H   0  0  0  0  0  0  0  0  0  0  0  0
  142.4871  155.2463  135.8518 H   0  0  0  0  0  0  0  0  0  0  0  0
  143.6392  154.2086  134.9326 H   0  0  0  0  0  0  0  0  0  0  0  0
  141.7942  157.3819  133.9963 H   0  0  0  0  0  0  0  0  0  0  0  0
  142.9790  159.3995  133.0704 H   0  0  0  0  0  0  0  0  0  0  0  0
  145.5711  160.4478  132.4915 H   0  0  0  0  0  0  0  0  0  0  0  0
  150.4710  159.5200  132.6370 H   0  0  0  0  0  0  0  0  0  0  0  0
  149.6950  158.0750  133.3660 H   0  0  0  0  0  0  0  0  0  0  0  0
  145.6337  155.4235  134.6492 H   0  0  0  0  0  0  0  0  0  0  0  0
  1  2  1  0
  2  3  1  0
  3  4  1  0
  4  5  1  0
  3  6  1  0
  6  7  1  0
  7  8  1  0
  8  9  1  0
  9 10  1  0
 10 11  2  0
 10 12  1  0
 12 13  1  0
 13 14  2  0
 14 15  1  0
 15 16  2  0
 16 17  1  0
 17 18  2  0
 18 19  1  0
 19 20  1  0
 19 21  2  0
 18 22  1  0
 22 23  1  0
 23 24  2  0
 23 25  1  0
 22 26  1  0
 26 27  2  0
 27 13  1  0
 26 16  1  0
  1 28  1  0
  1 29  1  0
  1 30  1  0
  2 31  1  0
  2 32  1  0
  4 33  1  0
  4 34  1  0
  5 35  1  0
  5 36  1  0
  5 37  1  0
  6 38  1  0
  6 39  1  0
  7 40  1  0
  7 41  1  0
  8 42  1  0
  8 43  1  0
 12 44  1  0
 12 45  1  0
 14 46  1  0
 15 47  1  0
 17 48  1  0
 20 49  1  0
 20 50  1  0
 27 51  1  0
M  CHG  2   9  -1  25  -1
M  END
>  <UniqueID>  (38) 
38

>  <SMILES>  (38) 
CCN(CC)CCC[N-]C(=O)Cc1ccc2cc(C(N)=O)n(C(=O)[O-])c2c1

>  <Energy>  (38) 
77.03916475055777

>  <Genealogy>  (38) 
CCN(CC)CCC[N-]C(=O)Cc1ccc2cc(C(N)=O)n(C(=O)[O-])c2c1 (protonated)
CCN(CC)CCC[N-]C(=O)Cc1ccc2cc(C(N)=O)n(C(=O)[O-])c2c1 (3D coordinates assigned)
CCN(CC)CCC[N-]C(=O)Cc1ccc2cc(C(N)=O)n(C(=O)[O-])c2c1 (optimized conformer: 77.03916475055777 kcal/mol)

>  <smiles>  (38) 
CCN(CC)CCCNC(=O)Cc1ccc2cc(C(N)=O)n(C(=O)O)c2c1

>  <score_type>  (38) 
oracle

>  <origin>  (38) 
adg

>  <m_score__min__energy>  (38) 
-7.8799999999999999

>  <m_primary>  (38) 
energy

$$$$
38:0
     RDKit          3D

 31 32  0  0  0  0  0  0  0  0999 V2000
  146.6380  152.8500  133.3390 N   0  0  0  0  0  0  0  0  0  0  0  0
  147.8420  153.6130  133.2720 C   0  0  0  0  0  0  0  0  0  0  0  0
  148.9520  153.0260  133.3770 O   0  0  0  0  0  0  0  0  0  0  0  0
  147.8090  155.0840  133.1500 C   0  0  0  0  0  0  0  0  0  0  0  0
  148.8500  155.8310  132.6050 C   0  0  0  0  0  0  0  0  0  0  0  0
  148.4630  157.1440  132.7360 C   0  0  0  0  0  0  0  0  0  0  0  0
  149.1130  158.3080  132.3460 C   0  0  0  0  0  0  0  0  0  0  0  0
  148.4630  159.5320  132.5690 C   0  0  0  0  0  0  0  0  0  0  0  0
  147.1790  159.5780  133.1660 C   0  0  0  0  0  0  0  0  0  0  0  0
  146.5460  160.8590  133.3590 N   0  0  0  0  0  0  0  0  0  0  0  0
  145.2550  161.0620  134.0180 C   0  0  0  0  0  0  0  0  0  0  0  0
  145.1140  162.5090  134.4960 C   0  0  0  0  0  0  0  0  0  0  0  0
  146.3330  163.1860  134.3570 O   0  0  0  0  0  0  0  0  0  0  0  0
  146.5450  158.3660  133.5400 C   0  0  0  0  0  0  0  0  0  0  0  0
  147.2270  157.1610  133.3280 C   0  0  0  0  0  0  0  0  0  0  0  0
  146.8090  155.9000  133.5870 N   0  0  0  0  0  0  0  0  0  0  0  0
  145.5240  155.5030  134.0980 C   0  0  0  0  0  0  0  0  0  0  0  0
  145.2920  155.5310  135.3350 O   0  0  0  0  0  0  0  0  0  0  0  0
  144.5220  155.0900  133.2290 O   0  0  0  0  0  0  0  0  0  0  0  0
  146.6800  151.8070  133.3900 H   0  0  0  0  0  0  0  0  0  0  0  0
  145.7080  153.3170  133.4230 H   0  0  0  0  0  0  0  0  0  0  0  0
  149.7834  155.4516  132.1636 H   0  0  0  0  0  0  0  0  0  0  0  0
  150.1071  158.2717  131.8766 H   0  0  0  0  0  0  0  0  0  0  0  0
  148.9580  160.4696  132.2758 H   0  0  0  0  0  0  0  0  0  0  0  0
  147.0320  161.7100  132.9960 H   0  0  0  0  0  0  0  0  0  0  0  0
  144.4469  160.8362  133.3067 H   0  0  0  0  0  0  0  0  0  0  0  0
  145.1936  160.3938  134.8896 H   0  0  0  0  0  0  0  0  0  0  0  0
  144.3457  163.0170  133.8946 H   0  0  0  0  0  0  0  0  0  0  0  0
  144.8222  162.5096  135.5566 H   0  0  0  0  0  0  0  0  0  0  0  0
  147.0150  162.6450  134.8350 H   0  0  0  0  0  0  0  0  0  0  0  0
  145.5398  158.3720  133.9867 H   0  0  0  0  0  0  0  0  0  0  0  0
  1  2  1  0
  2  3  2  0
  2  4  1  0
  4  5  2  0
  5  6  1  0
  6  7  2  0
  7  8  1  0
  8  9  2  0
  9 10  1  0
 10 11  1  0
 11 12  1  0
 12 13  1  0
  9 14  1  0
 14 15  2  0
 15 16  1  0
 16 17  1  0
 17 18  2  0
 17 19  1  0
 16  4  1  0
 15  6  1  0
  1 20  1  0
  1 21  1  0
  5 22  1  0
  7 23  1  0
  8 24  1  0
 10 25  1  0
 11 26  1  0
 11 27  1  0
 12 28  1  0
 12 29  1  0
 13 30  1  0
 14 31  1  0
M  CHG  1  19  -1
M  END
>  <UniqueID>  (39) 
39

>  <SMILES>  (39) 
NC(=O)c1cc2ccc(NCCO)cc2n1C(=O)[O-]

>  <Energy>  (39) 
68.75114107916238

>  <Genealogy>  (39) 
NC(=O)c1cc2ccc(NCCO)cc2n1C(=O)[O-] (protonated)
NC(=O)c1cc2ccc(NCCO)cc2n1C(=O)[O-] (3D coordinates assigned)
NC(=O)c1cc2ccc(NCCO)cc2n1C(=O)[O-] (optimized conformer: 68.75114107916238 kcal/mol)

>  <smiles>  (39) 
NC(=O)c1cc2ccc(NCCO)cc2n1C(=O)O

>  <score_type>  (39) 
oracle

>  <origin>  (39) 
adg

>  <m_score__min__energy>  (39) 
-5.7000000000000002

>  <m_primary>  (39) 
energy

$$$$
39:0
     RDKit          3D

 31 32  0  0  0  0  0  0  0  0999 V2000
  149.8000  157.2320  132.2370 N   0  0  0  0  0  0  0  0  0  0  0  0
  148.7400  156.3700  132.6380 C   0  0  0  0  0  0  0  0  0  0  0  0
  148.9550  155.1310  132.7260 O   0  0  0  0  0  0  0  0  0  0  0  0
  147.3900  156.8990  132.9290 C   0  0  0  0  0  0  0  0  0  0  0  0
  146.2920  156.0930  133.2270 C   0  0  0  0  0  0  0  0  0  0  0  0
  145.2350  156.9600  133.3900 C   0  0  0  0  0  0  0  0  0  0  0  0
  143.9100  156.7040  133.7260 C   0  0  0  0  0  0  0  0  0  0  0  0
  143.0410  157.8000  133.8650 C   0  0  0  0  0  0  0  0  0  0  0  0
  143.5070  159.1260  133.6590 C   0  0  0  0  0  0  0  0  0  0  0  0
  142.5810  160.2970  133.8720 C   0  0  0  0  0  0  0  0  0  0  0  0
  142.0260  160.2550  135.1400 F   0  0  0  0  0  0  0  0  0  0  0  0
  141.5520  160.2810  132.9480 F   0  0  0  0  0  0  0  0  0  0  0  0
  143.2950  161.4720  133.7330 F   0  0  0  0  0  0  0  0  0  0  0  0
  144.8680  159.3440  133.3450 C   0  0  0  0  0  0  0  0  0  0  0  0
  145.7020  158.2320  133.1950 C   0  0  0  0  0  0  0  0  0  0  0  0
  147.0210  158.2110  132.9080 N   0  0  0  0  0  0  0  0  0  0  0  0
  147.8550  159.3550  132.6770 C   0  0  0  0  0  0  0  0  0  0  0  0
  148.7360  159.6700  133.5220 O   0  0  0  0  0  0  0  0  0  0  0  0
  147.7310  160.1430  131.4070 C   0  0  0  0  0  0  0  0  0  0  0  0
  149.0650  160.7060  131.0280 C   0  0  0  0  0  0  0  0  0  0  0  0
  150.2660  160.0630  131.4510 N   0  0  0  0  0  0  0  0  0  0  0  0
  149.1280  161.7740  130.3630 O   0  0  0  0  0  0  0  0  0  0  0  0
  150.0390  158.0850  132.7890 H   0  0  0  0  0  0  0  0  0  0  0  0
  146.2741  154.9966  133.3136 H   0  0  0  0  0  0  0  0  0  0  0  0
  143.5528  155.6748  133.8784 H   0  0  0  0  0  0  0  0  0  0  0  0
  141.9888  157.6291  134.1362 H   0  0  0  0  0  0  0  0  0  0  0  0
  145.2613  160.3638  133.2217 H   0  0  0  0  0  0  0  0  0  0  0  0
  147.3703  159.4851  130.6026 H   0  0  0  0  0  0  0  0  0  0  0  0
  147.0185  160.9672  131.5588 H   0  0  0  0  0  0  0  0  0  0  0  0
  150.2280  159.1910  132.0260 H   0  0  0  0  0  0  0  0  0  0  0  0
  151.1960  160.4650  131.2010 H   0  0  0  0  0  0  0  0  0  0  0  0
  1  2  1  0
  2  3  2  0
  2  4  1  0
  4  5  2  0
  5  6  1  0
  6  7  2  0
  7  8  1  0
  8  9  2  0
  9 10  1  0
 10 11  1  0
 10 12  1  0
 10 13  1  0
  9 14  1  0
 14 15  2  0
 15 16  1  0
 16 17  1  0
 17 18  2  0
 17 19  1  0
 19 20  1  0
 20 21  1  0
 20 22  2  0
 16  4  1  0
 15  6  1  0
  1 23  1  0
  5 24  1  0
  7 25  1  0
  8 26  1  0
 14 27  1  0
 19 28  1  0
 19 29  1  0
 21 30  1  0
 21 31  1  0
M  CHG  1   1  -1
M  END
>  <UniqueID>  (40) 
40

>  <SMILES>  (40) 
[NH-]C(=O)c1cc2ccc(C(F)(F)F)cc2n1C(=O)CC(N)=O

>  <Energy>  (40) 
67.66968133774584

>  <Genealogy>  (40) 
[NH-]C(=O)c1cc2ccc(C(F)(F)F)cc2n1C(=O)CC(N)=O (protonated)
[NH-]C(=O)c1cc2ccc(C(F)(F)F)cc2n1C(=O)CC(N)=O (3D coordinates assigned)
[NH-]C(=O)c1cc2ccc(C(F)(F)F)cc2n1C(=O)CC(N)=O (optimized conformer: 67.66968133774584 kcal/mol)

>  <smiles>  (40) 
NC(=O)CC(=O)n1c(C(N)=O)cc2ccc(C(F)(F)F)cc21

>  <score_type>  (40) 
oracle

>  <origin>  (40) 
adg

>  <m_score__min__energy>  (40) 
-6.1799999999999997

>  <m_primary>  (40) 
energy

$$$$
40:0
     RDKit          3D

 60 61  0  0  0  0  0  0  0  0999 V2000
  147.8360  152.0910  138.7460 C   0  0  0  0  0  0  0  0  0  0  0  0
  148.3690  152.8630  137.5250 C   0  0  0  0  0  0  0  0  0  0  0  0
  149.2480  151.9220  136.6860 C   0  0  0  0  0  0  0  0  0  0  0  0
  149.2180  154.0680  137.9710 C   0  0  0  0  0  0  0  0  0  0  0  0
  147.2840  153.2880  136.6860 O   0  0  0  0  0  0  0  0  0  0  0  0
  147.3850  154.1090  135.5530 C   0  0  0  0  0  0  0  0  0  0  0  0
  147.4030  155.3650  135.6580 O   0  0  0  0  0  0  0  0  0  0  0  0
  147.4640  153.4950  134.2610 N   0  0  0  0  0  0  0  0  0  0  0  0
  147.4310  154.2610  133.0150 C   0  0  0  0  0  0  0  0  0  0  0  0
  148.5420  155.3180  132.9800 C   0  0  0  0  0  0  0  0  0  0  0  0
  147.9790  156.7130  133.0760 C   0  0  0  0  0  0  0  0  0  0  0  0
  148.8480  157.8310  133.1310 C   0  0  0  0  0  0  0  0  0  0  0  0
  148.3320  159.1320  133.2500 C   0  0  0  0  0  0  0  0  0  0  0  0
  146.9500  159.2810  133.3300 C   0  0  0  0  0  0  0  0  0  0  0  0
  146.1880  160.4210  133.4470 C   0  0  0  0  0  0  0  0  0  0  0  0
  144.8670  159.9790  133.5000 C   0  0  0  0  0  0  0  0  0  0  0  0
  143.7190  160.8820  133.7270 C   0  0  0  0  0  0  0  0  0  0  0  0
  142.4050  160.3410  133.8460 N   0  0  0  0  0  0  0  0  0  0  0  0
  143.8780  162.1290  133.7790 O   0  0  0  0  0  0  0  0  0  0  0  0
  144.8130  158.6190  133.4090 N   0  0  0  0  0  0  0  0  0  0  0  0
  143.6500  157.7760  133.3950 C   0  0  0  0  0  0  0  0  0  0  0  0
  143.1450  157.4100  132.2990 O   0  0  0  0  0  0  0  0  0  0  0  0
  143.0980  157.3450  134.6050 O   0  0  0  0  0  0  0  0  0  0  0  0
  141.9600  156.4930  134.6860 C   0  0  1  0  0  0  0  0  0  0  0  0
  141.9180  155.9000  135.9380 F   0  0  0  0  0  0  0  0  0  0  0  0
  140.6770  157.3110  134.4740 C   0  0  2  0  0  0  0  0  0  0  0  0
  140.7730  158.0060  133.2560 O   0  0  0  0  0  0  0  0  0  0  0  0
  140.3750  158.2900  135.6380 C   0  0  2  0  0  0  0  0  0  0  0  0
  140.2430  159.5870  135.1100 O   0  0  0  0  0  0  0  0  0  0  0  0
  141.4670  158.2840  136.7220 C   0  0  0  0  0  0  0  0  0  0  0  0
  142.4790  159.1890  136.3800 O   0  0  0  0  0  0  0  0  0  0  0  0
  146.0970  158.2080  133.3080 C   0  0  0  0  0  0  0  0  0  0  0  0
  146.5830  156.9020  133.1660 C   0  0  0  0  0  0  0  0  0  0  0  0
  148.1763  152.5839  139.6686 H   0  0  0  0  0  0  0  0  0  0  0  0
  146.7364  152.0791  138.7208 H   0  0  0  0  0  0  0  0  0  0  0  0
  148.2146  151.0585  138.7208 H   0  0  0  0  0  0  0  0  0  0  0  0
  149.8442  151.2838  137.3548 H   0  0  0  0  0  0  0  0  0  0  0  0
  148.6081  151.2913  136.0514 H   0  0  0  0  0  0  0  0  0  0  0  0
  149.9208  152.5174  136.0514 H   0  0  0  0  0  0  0  0  0  0  0  0
  149.2471  154.1094  139.0698 H   0  0  0  0  0  0  0  0  0  0  0  0
  150.2408  153.9603  137.5809 H   0  0  0  0  0  0  0  0  0  0  0  0
  148.7724  154.9950  137.5809 H   0  0  0  0  0  0  0  0  0  0  0  0
  147.5440  152.4550  134.2090 H   0  0  0  0  0  0  0  0  0  0  0  0
  147.5649  153.5725  132.1676 H   0  0  0  0  0  0  0  0  0  0  0  0
  146.4608  154.7753  132.9496 H   0  0  0  0  0  0  0  0  0  0  0  0
  149.2238  155.1484  133.8264 H   0  0  0  0  0  0  0  0  0  0  0  0
  149.0765  155.2261  132.0230 H   0  0  0  0  0  0  0  0  0  0  0  0
  149.9362  157.6787  133.0800 H   0  0  0  0  0  0  0  0  0  0  0  0
  148.9992  160.0061  133.2791 H   0  0  0  0  0  0  0  0  0  0  0  0
  146.5455  161.4604  133.4897 H   0  0  0  0  0  0  0  0  0  0  0  0
  142.2550  159.3570  134.1620 H   0  0  0  0  0  0  0  0  0  0  0  0
  142.0328  155.7199  133.9069 H   0  0  0  0  0  0  0  0  0  0  0  0
  139.8338  156.6051  134.4477 H   0  0  0  0  0  0  0  0  0  0  0  0
  141.5880  158.5700  133.3080 H   0  0  0  0  0  0  0  0  0  0  0  0
  139.4439  157.9605  136.1222 H   0  0  0  0  0  0  0  0  0  0  0  0
  141.0640  159.7730  134.5820 H   0  0  0  0  0  0  0  0  0  0  0  0
  141.0260  158.5765  137.6864 H   0  0  0  0  0  0  0  0  0  0  0  0
  141.8946  157.2736  136.8015 H   0  0  0  0  0  0  0  0  0  0  0  0
  142.4240  159.3070  135.3960 H   0  0  0  0  0  0  0  0  0  0  0  0
  145.8942  156.0453  133.1256 H   0  0  0  0  0  0  0  0  0  0  0  0
  1  2  1  0
  2  3  1  0
  2  4  1  0
  2  5  1  0
  5  6  1  0
  6  7  2  0
  6  8  1  0
  8  9  1  0
  9 10  1  0
 10 11  1  0
 11 12  2  0
 12 13  1  0
 13 14  2  0
 14 15  1  0
 15 16  2  0
 16 17  1  0
 17 18  1  0
 17 19  2  0
 16 20  1  0
 20 21  1  0
 21 22  2  0
 21 23  1  0
 23 24  1  0
 24 25  1  0
 24 26  1  0
 26 27  1  0
 26 28  1  0
 28 29  1  0
 28 30  1  0
 30 31  1  0
 20 32  1  0
 32 33  2  0
 33 11  1  0
 32 14  1  0
  1 34  1  0
  1 35  1  0
  1 36  1  0
  3 37  1  0
  3 38  1  0
  3 39  1  0
  4 40  1  0
  4 41  1  0
  4 42  1  0
  8 43  1  0
  9 44  1  0
  9 45  1  0
 10 46  1  0
 10 47  1  0
 12 48  1  0
 13 49  1  0
 15 50  1  0
 18 51  1  0
 24 52  1  6
 26 53  1  6
 27 54  1  0
 28 55  1  1
 29 56  1  0
 30 57  1  0
 30 58  1  0
 31 59  1  0
 33 60  1  0
M  CHG  1  18  -1
M  END
>  <UniqueID>  (41) 
41

>  <SMILES>  (41) 
CC(C)(C)OC(=O)NCCc1ccc2cc(C([NH-])=O)n(C(=O)O[C@@H](F)[C@H](O)C(O)CO)c2c1

>  <Energy>  (41) 
82.2001020583639

>  <Genealogy>  (41) 
CC(C)(C)OC(=O)NCCc1ccc2cc(C([NH-])=O)n(C(=O)OC(F)C(O)C(O)CO)c2c1 (protonated)
CC(C)(C)OC(=O)NCCc1ccc2cc(C([NH-])=O)n(C(=O)O[C@@H](F)[C@H](O)C(O)CO)c2c1 (chirality)
CC(C)(C)OC(=O)NCCc1ccc2cc(C([NH-])=O)n(C(=O)O[C@@H](F)[C@H](O)C(O)CO)c2c1 (3D coordinates assigned)
CC(C)(C)OC(=O)NCCc1ccc2cc(C([NH-])=O)n(C(=O)O[C@@H](F)[C@H](O)C(O)CO)c2c1 (optimized conformer: 82.2001020583639 kcal/mol)

>  <smiles>  (41) 
CC(C)(C)OC(=O)NCCc1ccc2cc(C(N)=O)n(C(=O)OC(F)C(O)C(O)CO)c2c1

>  <score_type>  (41) 
oracle

>  <origin>  (41) 
adg

>  <m_score__min__energy>  (41) 
-6.25

>  <m_primary>  (41) 
energy

$$$$
41:0
     RDKit          3D

 36 39  0  0  1  0  0  0  0  0999 V2000
  149.3010  157.2040  132.2890 N   0  0  0  0  0  0  0  0  0  0  0  0
  148.5640  158.3880  132.1080 C   0  0  0  0  0  0  0  0  0  0  0  0
  149.1290  159.2780  131.3940 O   0  0  0  0  0  0  0  0  0  0  0  0
  147.2590  158.7030  132.6320 C   0  0  0  0  0  0  0  0  0  0  0  0
  146.8460  160.0290  132.8240 C   0  0  0  0  0  0  0  0  0  0  0  0
  145.5650  160.0430  133.3330 C   0  0  0  0  0  0  0  0  0  0  0  0
  144.7320  161.0850  133.6860 C   0  0  0  0  0  0  0  0  0  0  0  0
  143.4720  160.8080  134.1780 C   0  0  0  0  0  0  0  0  0  0  0  0
  143.0700  159.4940  134.3080 C   0  0  0  0  0  0  0  0  0  0  0  0
  141.7330  159.2120  134.8320 C   0  0  1  0  0  0  0  0  0  0  0  0
  140.9190  158.1750  134.1650 C   0  0  2  0  0  0  0  0  0  0  0  0
  139.4500  158.0550  134.4060 C   0  0  0  0  0  0  0  0  0  0  0  0
  139.2260  158.2330  135.8230 N   0  0  0  0  0  0  0  0  0  0  0  0
  140.4000  157.6790  136.4460 C   0  0  0  0  0  0  0  0  0  0  0  0
  141.5400  157.8810  135.4580 C   0  0  2  0  0  0  0  0  0  0  0  0
  143.9400  158.4670  133.9400 C   0  0  0  0  0  0  0  0  0  0  0  0
  145.2060  158.7180  133.4450 C   0  0  0  0  0  0  0  0  0  0  0  0
  146.2350  157.9250  133.0190 N   0  0  0  0  0  0  0  0  0  0  0  0
  146.1820  156.5100  133.0090 C   0  0  0  0  0  0  0  0  0  0  0  0
  145.3270  155.8030  133.5720 O   0  0  0  0  0  0  0  0  0  0  0  0
  147.1700  155.7840  132.3090 O   0  0  0  0  0  0  0  0  0  0  0  0
  149.1860  156.4040  131.5990 H   0  0  0  0  0  0  0  0  0  0  0  0
  149.9570  157.1440  133.1060 H   0  0  0  0  0  0  0  0  0  0  0  0
  147.4509  160.9207  132.6026 H   0  0  0  0  0  0  0  0  0  0  0  0
  145.0686  162.1265  133.5765 H   0  0  0  0  0  0  0  0  0  0  0  0
  142.7951  161.6266  134.4636 H   0  0  0  0  0  0  0  0  0  0  0  0
  141.5598  160.2593  135.1206 H   0  0  0  0  0  0  0  0  0  0  0  0
  140.9251  157.8772  133.1061 H   0  0  0  0  0  0  0  0  0  0  0  0
  138.9121  158.8301  133.8405 H   0  0  0  0  0  0  0  0  0  0  0  0
  139.0824  157.0721  134.0762 H   0  0  0  0  0  0  0  0  0  0  0  0
  139.1140  159.2510  136.0110 H   0  0  0  0  0  0  0  0  0  0  0  0
  140.6149  158.2034  137.3887 H   0  0  0  0  0  0  0  0  0  0  0  0
  140.2618  156.6146  136.6866 H   0  0  0  0  0  0  0  0  0  0  0  0
  142.2730  157.2026  135.9190 H   0  0  0  0  0  0  0  0  0  0  0  0
  143.6076  157.4239  134.0473 H   0  0  0  0  0  0  0  0  0  0  0  0
  146.8950  155.2300  131.4850 H   0  0  0  0  0  0  0  0  0  0  0  0
  1  2  1  0
  2  3  2  0
  2  4  1  0
  4  5  2  0
  5  6  1  0
  6  7  2  0
  7  8  1  0
  8  9  2  0
  9 10  1  0
 10 11  1  0
 11 12  1  0
 12 13  1  0
 13 14  1  0
 14 15  1  0
  9 16  1  0
 16 17  2  0
 17 18  1  0
 18 19  1  0
 19 20  2  0
 19 21  1  0
 18  4  1  0
 17  6  1  0
 15 10  1  0
 15 11  1  0
  1 22  1  0
  1 23  1  0
  5 24  1  0
  7 25  1  0
  8 26  1  0
 10 27  1  1
 11 28  1  6
 12 29  1  0
 12 30  1  0
 13 31  1  0
 14 32  1  0
 14 33  1  0
 15 34  1  6
 16 35  1  0
 21 36  1  0
M  END
>  <smiles>  (42) 
NC(=O)c1cc2ccc(C3C4CNCC43)cc2n1C(=O)O

>  <score_type>  (42) 
oracle

>  <origin>  (42) 
adg

>  <m_score__min__energy>  (42) 
-8.1899999999999995

>  <m_primary>  (42) 
energy

$$$$
42:0
     RDKit          3D

 38 40  0  0  0  0  0  0  0  0999 V2000
  147.0690  154.6040  134.4700 C   0  0  0  0  0  0  0  0  0  0  0  0
  147.2900  156.0380  134.5830 N   0  0  0  0  0  0  0  0  0  0  0  0
  147.4770  156.8880  133.4480 C   0  0  0  0  0  0  0  0  0  0  0  0
  148.3690  156.6060  132.6040 O   0  0  0  0  0  0  0  0  0  0  0  0
  146.6770  158.0780  133.2900 N   0  0  0  0  0  0  0  0  0  0  0  0
  147.1070  159.3200  132.9270 C   0  0  0  0  0  0  0  0  0  0  0  0
  148.4720  159.6710  132.5050 C   0  0  0  0  0  0  0  0  0  0  0  0
  149.6000  158.9680  133.0260 N   0  0  0  0  0  0  0  0  0  0  0  0
  148.6430  160.5500  131.6200 O   0  0  0  0  0  0  0  0  0  0  0  0
  146.0900  160.2580  133.0560 C   0  0  0  0  0  0  0  0  0  0  0  0
  144.9950  159.5480  133.4860 C   0  0  0  0  0  0  0  0  0  0  0  0
  143.7030  159.9820  133.7630 C   0  0  0  0  0  0  0  0  0  0  0  0
  142.7610  159.0270  134.1760 C   0  0  0  0  0  0  0  0  0  0  0  0
  143.1170  157.6600  134.2840 C   0  0  0  0  0  0  0  0  0  0  0  0
  142.0960  156.6460  134.7370 C   0  0  0  0  0  0  0  0  0  0  0  0
  140.7650  156.9750  134.2250 N   0  0  0  0  0  0  0  0  0  0  0  0
  140.3410  156.5690  133.0380 N   0  0  0  0  0  0  0  0  0  0  0  0
  139.1150  157.0890  132.8310 C   0  0  0  0  0  0  0  0  0  0  0  0
  138.7460  157.8600  133.9150 C   0  0  0  0  0  0  0  0  0  0  0  0
  139.8160  157.7640  134.7820 C   0  0  0  0  0  0  0  0  0  0  0  0
  139.8990  158.4180  136.0590 N   0  0  0  0  0  0  0  0  0  0  0  0
  139.4710  157.8390  137.0790 O   0  0  0  0  0  0  0  0  0  0  0  0
  140.5100  159.6400  136.2000 O   0  0  0  0  0  0  0  0  0  0  0  0
  144.4450  157.2590  134.0130 C   0  0  0  0  0  0  0  0  0  0  0  0
  145.3720  158.2340  133.6200 C   0  0  0  0  0  0  0  0  0  0  0  0
  147.0011  154.1631  135.4755 H   0  0  0  0  0  0  0  0  0  0  0  0
  146.1318  154.4193  133.9246 H   0  0  0  0  0  0  0  0  0  0  0  0
  147.9071  154.1457  133.9246 H   0  0  0  0  0  0  0  0  0  0  0  0
  149.4710  158.1460  133.6580 H   0  0  0  0  0  0  0  0  0  0  0  0
  150.5670  159.2320  132.7340 H   0  0  0  0  0  0  0  0  0  0  0  0
  146.1489  161.3381  132.8565 H   0  0  0  0  0  0  0  0  0  0  0  0
  143.4276  161.0421  133.6614 H   0  0  0  0  0  0  0  0  0  0  0  0
  141.7357  159.3432  134.4183 H   0  0  0  0  0  0  0  0  0  0  0  0
  142.3879  155.6521  134.3670 H   0  0  0  0  0  0  0  0  0  0  0  0
  142.0596  156.6534  135.8364 H   0  0  0  0  0  0  0  0  0  0  0  0
  138.5009  156.9239  131.9334 H   0  0  0  0  0  0  0  0  0  0  0  0
  137.8116  158.4230  134.0559 H   0  0  0  0  0  0  0  0  0  0  0  0
  144.7444  156.2048  134.1085 H   0  0  0  0  0  0  0  0  0  0  0  0
  1  2  1  0
  2  3  1  0
  3  4  2  0
  3  5  1  0
  5  6  1  0
  6  7  1  0
  7  8  1  0
  7  9  2  0
  6 10  2  0
 10 11  1  0
 11 12  2  0
 12 13  1  0
 13 14  2  0
 14 15  1  0
 15 16  1  0
 16 17  1  0
 17 18  2  0
 18 19  1  0
 19 20  2  0
 20 21  1  0
 21 22  2  0
 21 23  1  0
 14 24  1  0
 24 25  2  0
 25  5  1  0
 25 11  1  0
 20 16  1  0
  1 26  1  0
  1 27  1  0
  1 28  1  0
  8 29  1  0
  8 30  1  0
 10 31  1  0
 12 32  1  0
 13 33  1  0
 15 34  1  0
 15 35  1  0
 18 36  1  0
 19 37  1  0
 24 38  1  0
M  CHG  3   2  -1  21   1  23  -1
M  END
>  <UniqueID>  (43) 
42

>  <SMILES>  (43) 
C[N-]C(=O)n1c(C(N)=O)cc2ccc(Cn3nccc3[N+](=O)[O-])cc21

>  <Energy>  (43) 
112.02487702103349

>  <Genealogy>  (43) 
C[N-]C(=O)n1c(C(N)=O)cc2ccc(Cn3nccc3[N+](=O)[O-])cc21 (protonated)
C[N-]C(=O)n1c(C(N)=O)cc2ccc(Cn3nccc3[N+](=O)[O-])cc21 (3D coordinates assigned)
C[N-]C(=O)n1c(C(N)=O)cc2ccc(Cn3nccc3[N+](=O)[O-])cc21 (optimized conformer: 112.02487702103349 kcal/mol)

>  <smiles>  (43) 
CNC(=O)n1c(C(N)=O)cc2ccc(Cn3nccc3[N+](=O)[O-])cc21

>  <score_type>  (43) 
oracle

>  <origin>  (43) 
adg

>  <m_score__min__energy>  (43) 
-7.6500000000000004

>  <m_primary>  (43) 
energy

$$$$
43:0
     RDKit          3D

 35 36  0  0  0  0  0  0  0  0999 V2000
  141.0770  151.6640  139.9120 C   0  0  0  0  0  0  0  0  0  0  0  0
  141.3830  151.7340  138.4100 C   0  0  1  0  0  0  0  0  0  0  0  0
  140.4290  150.8950  137.6040 C   0  0  0  0  0  0  0  0  0  0  0  0
  140.6150  150.7030  136.3730 O   0  0  0  0  0  0  0  0  0  0  0  0
  139.3560  150.2760  138.2350 O   0  0  0  0  0  0  0  0  0  0  0  0
  141.3830  153.1670  137.9170 C   0  0  0  0  0  0  0  0  0  0  0  0
  141.0540  154.2390  138.7900 C   0  0  0  0  0  0  0  0  0  0  0  0
  141.0720  155.5670  138.3370 C   0  0  0  0  0  0  0  0  0  0  0  0
  141.4120  155.7990  137.0080 C   0  0  0  0  0  0  0  0  0  0  0  0
  141.5400  156.9860  136.3240 C   0  0  0  0  0  0  0  0  0  0  0  0
  141.9160  156.6260  135.0330 C   0  0  0  0  0  0  0  0  0  0  0  0
  142.1030  157.6010  133.9410 C   0  0  0  0  0  0  0  0  0  0  0  0
  142.3520  157.1730  132.6000 N   0  0  0  0  0  0  0  0  0  0  0  0
  141.9890  158.8330  134.1840 O   0  0  0  0  0  0  0  0  0  0  0  0
  142.0300  155.2730  134.9240 N   0  0  0  0  0  0  0  0  0  0  0  0
  142.5000  154.5240  133.7920 C   0  0  0  0  0  0  0  0  0  0  0  0
  141.7040  154.2260  132.8590 O   0  0  0  0  0  0  0  0  0  0  0  0
  143.8400  154.1260  133.7270 O   0  0  0  0  0  0  0  0  0  0  0  0
  144.6230  154.2250  132.5400 C   0  0  0  0  0  0  0  0  0  0  0  0
  144.1220  155.2370  131.7100 O   0  0  0  0  0  0  0  0  0  0  0  0
  141.7150  154.7800  136.1430 C   0  0  0  0  0  0  0  0  0  0  0  0
  141.7270  153.4470  136.5730 C   0  0  0  0  0  0  0  0  0  0  0  0
  141.9935  151.8736  140.4831 H   0  0  0  0  0  0  0  0  0  0  0  0
  140.3088  152.4096  140.1648 H   0  0  0  0  0  0  0  0  0  0  0  0
  140.7093  150.6586  140.1648 H   0  0  0  0  0  0  0  0  0  0  0  0
  142.3919  151.3196  138.2674 H   0  0  0  0  0  0  0  0  0  0  0  0
  140.7818  154.0250  139.8341 H   0  0  0  0  0  0  0  0  0  0  0  0
  140.8248  156.3994  139.0123 H   0  0  0  0  0  0  0  0  0  0  0  0
  141.3795  158.0020  136.7139 H   0  0  0  0  0  0  0  0  0  0  0  0
  142.2820  156.1670  132.3340 H   0  0  0  0  0  0  0  0  0  0  0  0
  142.5230  157.8790  131.8500 H   0  0  0  0  0  0  0  0  0  0  0  0
  145.6634  154.4589  132.8100 H   0  0  0  0  0  0  0  0  0  0  0  0
  144.5798  153.2666  132.0018 H   0  0  0  0  0  0  0  0  0  0  0  0
  143.1930  154.9740  131.4830 H   0  0  0  0  0  0  0  0  0  0  0  0
  141.9978  152.6357  135.8813 H   0  0  0  0  0  0  0  0  0  0  0  0
  1  2  1  0
  2  3  1  0
  3  4  2  0
  3  5  1  0
  2  6  1  0
  6  7  2  0
  7  8  1  0
  8  9  2  0
  9 10  1  0
 10 11  2  0
 11 12  1  0
 12 13  1  0
 12 14  2  0
 11 15  1  0
 15 16  1  0
 16 17  2  0
 16 18  1  0
 18 19  1  0
 19 20  1  0
 15 21  1  0
 21 22  2  0
 22  6  1  0
 21  9  1  0
  1 23  1  0
  1 24  1  0
  1 25  1  0
  2 26  1  1
  7 27  1  0
  8 28  1  0
 10 29  1  0
 13 30  1  0
 13 31  1  0
 19 32  1  0
 19 33  1  0
 20 34  1  0
 22 35  1  0
M  CHG  1   5  -1
M  END
>  <UniqueID>  (44) 
43

>  <SMILES>  (44) 
C[C@@H](C(=O)[O-])c1ccc2cc(C(N)=O)n(C(=O)OCO)c2c1

>  <Energy>  (44) 
71.50396845792766

>  <Genealogy>  (44) 
CC(C(=O)[O-])c1ccc2cc(C(N)=O)n(C(=O)OCO)c2c1 (protonated)
C[C@@H](C(=O)[O-])c1ccc2cc(C(N)=O)n(C(=O)OCO)c2c1 (chirality)
C[C@@H](C(=O)[O-])c1ccc2cc(C(N)=O)n(C(=O)OCO)c2c1 (3D coordinates assigned)
C[C@@H](C(=O)[O-])c1ccc2cc(C(N)=O)n(C(=O)OCO)c2c1 (optimized conformer: 71.50396845792766 kcal/mol)

>  <smiles>  (44) 
CC(C(=O)O)c1ccc2cc(C(N)=O)n(C(=O)OCO)c2c1

>  <score_type>  (44) 
oracle

>  <origin>  (44) 
adg

>  <m_score__min__energy>  (44) 
-6.46

>  <m_primary>  (44) 
energy

$$$$
44:0
     RDKit          3D

 43 45  0  0  0  0  0  0  0  0999 V2000
  138.6990  159.8980  131.0510 C   0  0  0  0  0  0  0  0  0  0  0  0
  139.4900  159.8670  132.3230 C   0  0  0  0  0  0  0  0  0  0  0  0
  140.2070  160.8650  132.6090 O   0  0  0  0  0  0  0  0  0  0  0  0
  139.4610  158.7280  133.2120 N   0  0  0  0  0  0  0  0  0  0  0  0
  140.0500  158.8640  134.5530 C   0  0  0  0  0  0  0  0  0  0  0  0
  140.1960  157.5040  135.2560 C   0  0  0  0  0  0  0  0  0  0  0  0
  140.6950  156.4010  134.2970 C   0  0  2  0  0  0  0  0  0  0  0  0
  142.1810  156.5710  134.0000 C   0  0  0  0  0  0  0  0  0  0  0  0
  142.9840  155.4200  133.7870 C   0  0  0  0  0  0  0  0  0  0  0  0
  144.3610  155.5350  133.5380 C   0  0  0  0  0  0  0  0  0  0  0  0
  144.9180  156.8100  133.5250 C   0  0  0  0  0  0  0  0  0  0  0  0
  146.2150  157.2060  133.2940 C   0  0  0  0  0  0  0  0  0  0  0  0
  146.2020  158.5950  133.4040 C   0  0  0  0  0  0  0  0  0  0  0  0
  147.4150  159.4400  133.3190 C   0  0  0  0  0  0  0  0  0  0  0  0
  147.3350  160.7860  132.8480 N   0  0  0  0  0  0  0  0  0  0  0  0
  148.5380  158.9660  133.6320 O   0  0  0  0  0  0  0  0  0  0  0  0
  144.9450  159.0400  133.6920 N   0  0  0  0  0  0  0  0  0  0  0  0
  144.5040  160.4020  133.8310 C   0  0  0  0  0  0  0  0  0  0  0  0
  143.3830  160.7560  133.3810 O   0  0  0  0  0  0  0  0  0  0  0  0
  145.3030  161.3370  134.4750 O   0  0  0  0  0  0  0  0  0  0  0  0
  144.1710  157.9330  133.7610 C   0  0  0  0  0  0  0  0  0  0  0  0
  142.7940  157.8490  133.9900 C   0  0  0  0  0  0  0  0  0  0  0  0
  139.8160  156.2860  133.0040 C   0  0  1  0  0  0  0  0  0  0  0  0
  139.1210  155.0650  132.9800 O   0  0  0  0  0  0  0  0  0  0  0  0
  138.8250  157.4570  132.8380 C   0  0  0  0  0  0  0  0  0  0  0  0
  137.6256  159.9401  131.2877 H   0  0  0  0  0  0  0  0  0  0  0  0
  138.9805  160.7858  130.4657 H   0  0  0  0  0  0  0  0  0  0  0  0
  138.9102  158.9909  130.4657 H   0  0  0  0  0  0  0  0  0  0  0  0
  141.0446  159.3245  134.4595 H   0  0  0  0  0  0  0  0  0  0  0  0
  139.3782  159.4903  135.1584 H   0  0  0  0  0  0  0  0  0  0  0  0
  140.9156  157.6076  136.0815 H   0  0  0  0  0  0  0  0  0  0  0  0
  139.2032  157.2066  135.6246 H   0  0  0  0  0  0  0  0  0  0  0  0
  140.5785  155.4345  134.8091 H   0  0  0  0  0  0  0  0  0  0  0  0
  142.5204  154.4229  133.8175 H   0  0  0  0  0  0  0  0  0  0  0  0
  144.9807  154.6441  133.3586 H   0  0  0  0  0  0  0  0  0  0  0  0
  147.0788  156.5628  133.0701 H   0  0  0  0  0  0  0  0  0  0  0  0
  148.2010  161.3610  132.7540 H   0  0  0  0  0  0  0  0  0  0  0  0
  146.4160  161.2320  132.6310 H   0  0  0  0  0  0  0  0  0  0  0  0
  142.1977  158.7577  134.1592 H   0  0  0  0  0  0  0  0  0  0  0  0
  140.5144  156.3305  132.1553 H   0  0  0  0  0  0  0  0  0  0  0  0
  138.2180  155.2400  132.6040 H   0  0  0  0  0  0  0  0  0  0  0  0
  138.5002  157.5101  131.7884 H   0  0  0  0  0  0  0  0  0  0  0  0
  137.9596  157.2859  133.4951 H   0  0  0  0  0  0  0  0  0  0  0  0
  1  2  1  0
  2  3  2  0
  2  4  1  0
  4  5  1  0
  5  6  1  0
  6  7  1  0
  7  8  1  0
  8  9  2  0
  9 10  1  0
 10 11  2  0
 11 12  1  0
 12 13  2  0
 13 14  1  0
 14 15  1  0
 14 16  2  0
 13 17  1  0
 17 18  1  0
 18 19  2  0
 18 20  1  0
 17 21  1  0
 21 22  2  0
  7 23  1  0
 23 24  1  0
 23 25  1  0
 25  4  1  0
 22  8  1  0
 21 11  1  0
  1 26  1  0
  1 27  1  0
  1 28  1  0
  5 29  1  0
  5 30  1  0
  6 31  1  0
  6 32  1  0
  7 33  1  1
  9 34  1  0
 10 35  1  0
 12 36  1  0
 15 37  1  0
 15 38  1  0
 22 39  1  0
 23 40  1  6
 24 41  1  0
 25 42  1  0
 25 43  1  0
M  CHG  1  20  -1
M  END
>  <UniqueID>  (45) 
44

>  <SMILES>  (45) 
CC(=O)N1CC[C@H](c2ccc3cc(C(N)=O)n(C(=O)[O-])c3c2)[C@@H](O)C1

>  <Energy>  (45) 
88.92068763500029

>  <Genealogy>  (45) 
CC(=O)N1CCC(c2ccc3cc(C(N)=O)n(C(=O)[O-])c3c2)C(O)C1 (protonated)
CC(=O)N1CC[C@H](c2ccc3cc(C(N)=O)n(C(=O)[O-])c3c2)[C@@H](O)C1 (chirality)
CC(=O)N1CC[C@H](c2ccc3cc(C(N)=O)n(C(=O)[O-])c3c2)[C@@H](O)C1 (3D coordinates assigned)
CC(=O)N1CC[C@H](c2ccc3cc(C(N)=O)n(C(=O)[O-])c3c2)[C@@H](O)C1 (nonaromatic ring conformer: 88.92068763500029 kcal/mol)

>  <smiles>  (45) 
CC(=O)N1CCC(c2ccc3cc(C(N)=O)n(C(=O)O)c3c2)C(O)C1

>  <score_type>  (45) 
oracle

>  <origin>  (45) 
adg

>  <m_score__min__energy>  (45) 
-8.0800000000000001

>  <m_primary>  (45) 
energy

$$$$
45:0
     RDKit          3D

 55 58  0  0  0  0  0  0  0  0999 V2000
  140.1120  158.9960  131.4710 C   0  0  0  0  0  0  0  0  0  0  0  0
  140.9390  158.4080  132.4700 O   0  0  0  0  0  0  0  0  0  0  0  0
  140.6730  158.4400  133.8490 C   0  0  0  0  0  0  0  0  0  0  0  0
  139.3790  158.2070  134.3590 C   0  0  0  0  0  0  0  0  0  0  0  0
  139.1480  158.2150  135.7350 C   0  0  0  0  0  0  0  0  0  0  0  0
  140.1990  158.4540  136.6190 C   0  0  0  0  0  0  0  0  0  0  0  0
  141.4870  158.6920  136.1330 C   0  0  0  0  0  0  0  0  0  0  0  0
  142.4850  158.9520  137.0150 F   0  0  0  0  0  0  0  0  0  0  0  0
  141.7340  158.6930  134.7460 C   0  0  0  0  0  0  0  0  0  0  0  0
  143.1000  158.9640  134.2400 C   0  0  0  0  0  0  0  0  0  0  0  0
  143.4700  160.2770  133.8560 C   0  0  0  0  0  0  0  0  0  0  0  0
  144.7600  160.5430  133.3660 C   0  0  0  0  0  0  0  0  0  0  0  0
  145.6580  159.4840  133.2820 C   0  0  0  0  0  0  0  0  0  0  0  0
  146.9540  159.4590  132.8230 C   0  0  0  0  0  0  0  0  0  0  0  0
  147.3700  158.1370  132.9610 C   0  0  0  0  0  0  0  0  0  0  0  0
  148.7440  157.6850  132.6630 C   0  0  0  0  0  0  0  0  0  0  0  0
  149.0830  156.3010  132.7040 N   0  0  0  0  0  0  0  0  0  0  0  0
  149.6430  158.5350  132.4240 O   0  0  0  0  0  0  0  0  0  0  0  0
  146.3660  157.3710  133.4760 N   0  0  0  0  0  0  0  0  0  0  0  0
  146.3650  155.9460  133.6690 C   0  0  0  0  0  0  0  0  0  0  0  0
  146.8840  155.4480  134.7040 O   0  0  0  0  0  0  0  0  0  0  0  0
  145.7730  155.1180  132.7110 O   0  0  0  0  0  0  0  0  0  0  0  0
  145.4700  153.7480  132.9540 C   0  0  0  0  0  0  0  0  0  0  0  0
  146.6790  152.8730  132.5970 C   0  0  0  0  0  0  0  0  0  0  0  0
  147.9720  153.5280  132.9260 N   0  0  0  0  0  0  0  0  0  0  0  0
  149.0260  153.1950  131.9470 C   0  0  0  0  0  0  0  0  0  0  0  0
  149.8500  152.0400  132.5140 C   0  0  0  0  0  0  0  0  0  0  0  0
  149.3580  151.8400  133.9350 C   0  0  0  0  0  0  0  0  0  0  0  0
  148.4920  153.0550  134.2180 C   0  0  0  0  0  0  0  0  0  0  0  0
  145.3250  158.2110  133.6690 C   0  0  0  0  0  0  0  0  0  0  0  0
  144.0400  157.9130  134.1410 C   0  0  0  0  0  0  0  0  0  0  0  0
  139.3061  159.5690  131.9528 H   0  0  0  0  0  0  0  0  0  0  0  0
  140.7160  159.6686  130.8442 H   0  0  0  0  0  0  0  0  0  0  0  0
  139.6751  158.2046  130.8442 H   0  0  0  0  0  0  0  0  0  0  0  0
  138.5454  158.0175  133.6667 H   0  0  0  0  0  0  0  0  0  0  0  0
  138.1350  158.0324  136.1228 H   0  0  0  0  0  0  0  0  0  0  0  0
  140.0135  158.4552  137.7033 H   0  0  0  0  0  0  0  0  0  0  0  0
  142.7405  161.0958  133.9423 H   0  0  0  0  0  0  0  0  0  0  0  0
  145.0509  161.5582  133.0581 H   0  0  0  0  0  0  0  0  0  0  0  0
  147.5383  160.3041  132.4301 H   0  0  0  0  0  0  0  0  0  0  0  0
  148.5400  155.6320  133.2910 H   0  0  0  0  0  0  0  0  0  0  0  0
  145.2232  153.6123  134.0173 H   0  0  0  0  0  0  0  0  0  0  0  0
  144.6127  153.4514  132.3318 H   0  0  0  0  0  0  0  0  0  0  0  0
  146.6091  151.9290  133.1573 H   0  0  0  0  0  0  0  0  0  0  0  0
  146.6582  152.7008  131.5108 H   0  0  0  0  0  0  0  0  0  0  0  0
  147.8430  154.5670  132.9760 H   0  0  0  0  0  0  0  0  0  0  0  0
  148.5679  152.8937  130.9934 H   0  0  0  0  0  0  0  0  0  0  0  0
  149.6684  154.0693  131.7653 H   0  0  0  0  0  0  0  0  0  0  0  0
  149.6894  151.1275  131.9210 H   0  0  0  0  0  0  0  0  0  0  0  0
  150.9276  152.2592  132.4857 H   0  0  0  0  0  0  0  0  0  0  0  0
  148.7671  150.9156  134.0144 H   0  0  0  0  0  0  0  0  0  0  0  0
  150.1863  151.7432  134.6523 H   0  0  0  0  0  0  0  0  0  0  0  0
  147.6591  152.7781  134.8811 H   0  0  0  0  0  0  0  0  0  0  0  0
  149.0753  153.8431  134.7166 H   0  0  0  0  0  0  0  0  0  0  0  0
  143.7692  156.8861  134.4276 H   0  0  0  0  0  0  0  0  0  0  0  0
  1  2  1  0
  2  3  1  0
  3  4  2  0
  4  5  1  0
  5  6  2  0
  6  7  1  0
  7  8  1  0
  7  9  2  0
  9 10  1  0
 10 11  2  0
 11 12  1  0
 12 13  2  0
 13 14  1  0
 14 15  2  0
 15 16  1  0
 16 17  1  0
 16 18  2  0
 15 19  1  0
 19 20  1  0
 20 21  2  0
 20 22  1  0
 22 23  1  0
 23 24  1  0
 24 25  1  0
 25 26  1  0
 26 27  1  0
 27 28  1  0
 28 29  1  0
 19 30  1  0
 30 31  2  0
  9  3  1  0
 31 10  1  0
 30 13  1  0
 29 25  1  0
  1 32  1  0
  1 33  1  0
  1 34  1  0
  4 35  1  0
  5 36  1  0
  6 37  1  0
 11 38  1  0
 12 39  1  0
 14 40  1  0
 17 41  1  0
 23 42  1  0
 23 43  1  0
 24 44  1  0
 24 45  1  0
 25 46  1  0
 26 47  1  0
 26 48  1  0
 27 49  1  0
 27 50  1  0
 28 51  1  0
 28 52  1  0
 29 53  1  0
 29 54  1  0
 31 55  1  0
M  CHG  2  17  -1  25   1
M  END
>  <UniqueID>  (46) 
45

>  <SMILES>  (46) 
COc1cccc(F)c1-c1ccc2cc(C([NH-])=O)n(C(=O)OCC[NH+]3CCCC3)c2c1

>  <Energy>  (46) 
104.8137437907549

>  <Genealogy>  (46) 
COc1cccc(F)c1-c1ccc2cc(C([NH-])=O)n(C(=O)OCC[NH+]3CCCC3)c2c1 (protonated)
COc1cccc(F)c1-c1ccc2cc(C([NH-])=O)n(C(=O)OCC[NH+]3CCCC3)c2c1 (3D coordinates assigned)
COc1cccc(F)c1-c1ccc2cc(C([NH-])=O)n(C(=O)OCC[NH+]3CCCC3)c2c1 (nonaromatic ring conformer: 104.8137437907549 kcal/mol)

>  <smiles>  (46) 
COc1cccc(F)c1-c1ccc2cc(C(N)=O)n(C(=O)OCCN3CCCC3)c2c1

>  <score_type>  (46) 
oracle

>  <origin>  (46) 
adg

>  <m_score__min__energy>  (46) 
-8.0800000000000001

>  <m_primary>  (46) 
energy

$$$$
46:0
     RDKit          3D

 44 45  0  0  0  0  0  0  0  0999 V2000
  139.1220  156.6000  133.3260 C   0  0  0  0  0  0  0  0  0  0  0  0
  139.2230  157.9020  133.6360 C   0  0  0  0  0  0  0  0  0  0  0  0
  138.4250  158.9050  133.0460 O   0  0  0  0  0  0  0  0  0  0  0  0
  138.5000  159.5390  131.7570 C   0  0  0  0  0  0  0  0  0  0  0  0
  139.4280  158.6570  130.9030 C   0  0  0  0  0  0  0  0  0  0  0  0
  137.1200  159.5810  131.0680 C   0  0  0  0  0  0  0  0  0  0  0  0
  139.1350  160.9400  131.8550 C   0  0  0  0  0  0  0  0  0  0  0  0
  140.1740  158.3160  134.6410 N   0  0  0  0  0  0  0  0  0  0  0  0
  139.7890  158.2300  136.0530 C   0  0  0  0  0  0  0  0  0  0  0  0
  141.5010  158.7630  134.2880 C   0  0  0  0  0  0  0  0  0  0  0  0
  141.7700  160.1430  134.1020 C   0  0  0  0  0  0  0  0  0  0  0  0
  143.0550  160.5840  133.7490 C   0  0  0  0  0  0  0  0  0  0  0  0
  144.0530  159.6280  133.5950 C   0  0  0  0  0  0  0  0  0  0  0  0
  145.3700  159.7790  133.2290 C   0  0  0  0  0  0  0  0  0  0  0  0
  145.8990  158.4900  133.2210 C   0  0  0  0  0  0  0  0  0  0  0  0
  147.3190  158.1990  132.9440 C   0  0  0  0  0  0  0  0  0  0  0  0
  147.6990  157.2680  131.9300 N   0  0  0  0  0  0  0  0  0  0  0  0
  148.2100  158.7350  133.6550 O   0  0  0  0  0  0  0  0  0  0  0  0
  144.9450  157.5750  133.5560 N   0  0  0  0  0  0  0  0  0  0  0  0
  145.0710  156.1430  133.5410 C   0  0  0  0  0  0  0  0  0  0  0  0
  144.7410  155.4620  134.5470 O   0  0  0  0  0  0  0  0  0  0  0  0
  145.5530  155.4930  132.4110 O   0  0  0  0  0  0  0  0  0  0  0  0
  143.8200  158.2890  133.7860 C   0  0  0  0  0  0  0  0  0  0  0  0
  142.5430  157.8220  134.1160 C   0  0  0  0  0  0  0  0  0  0  0  0
  139.7732  155.8646  133.8211 H   0  0  0  0  0  0  0  0  0  0  0  0
  138.3880  156.2683  132.5768 H   0  0  0  0  0  0  0  0  0  0  0  0
  140.0662  158.0504  131.5623 H   0  0  0  0  0  0  0  0  0  0  0  0
  138.8218  157.9941  130.2681 H   0  0  0  0  0  0  0  0  0  0  0  0
  140.0593  159.2961  130.2681 H   0  0  0  0  0  0  0  0  0  0  0  0
  136.3292  159.6051  131.8322 H   0  0  0  0  0  0  0  0  0  0  0  0
  137.0508  160.4817  130.4403 H   0  0  0  0  0  0  0  0  0  0  0  0
  136.9962  158.6862  130.4403 H   0  0  0  0  0  0  0  0  0  0  0  0
  139.2588  161.2132  132.9133 H   0  0  0  0  0  0  0  0  0  0  0  0
  140.1177  160.9325  131.3608 H   0  0  0  0  0  0  0  0  0  0  0  0
  138.4816  161.6741  131.3608 H   0  0  0  0  0  0  0  0  0  0  0  0
  140.6675  158.4262  136.6852 H   0  0  0  0  0  0  0  0  0  0  0  0
  139.0095  158.9762  136.2666 H   0  0  0  0  0  0  0  0  0  0  0  0
  139.4011  157.2231  136.2666 H   0  0  0  0  0  0  0  0  0  0  0  0
  140.9616  160.8769  134.2361 H   0  0  0  0  0  0  0  0  0  0  0  0
  143.2660  161.6531  133.5988 H   0  0  0  0  0  0  0  0  0  0  0  0
  145.8939  160.7170  132.9930 H   0  0  0  0  0  0  0  0  0  0  0  0
  146.9860  156.6880  131.4360 H   0  0  0  0  0  0  0  0  0  0  0  0
  148.7090  157.1000  131.7260 H   0  0  0  0  0  0  0  0  0  0  0  0
  142.3533  156.7455  134.2391 H   0  0  0  0  0  0  0  0  0  0  0  0
  1  2  2  0
  2  3  1  0
  3  4  1  0
  4  5  1  0
  4  6  1  0
  4  7  1  0
  2  8  1  0
  8  9  1  0
  8 10  1  0
 10 11  2  0
 11 12  1  0
 12 13  2  0
 13 14  1  0
 14 15  2  0
 15 16  1  0
 16 17  1  0
 16 18  2  0
 15 19  1  0
 19 20  1  0
 20 21  2  0
 20 22  1  0
 19 23  1  0
 23 24  2  0
 24 10  1  0
 23 13  1  0
  1 25  1  0
  1 26  1  0
  5 27  1  0
  5 28  1  0
  5 29  1  0
  6 30  1  0
  6 31  1  0
  6 32  1  0
  7 33  1  0
  7 34  1  0
  7 35  1  0
  9 36  1  0
  9 37  1  0
  9 38  1  0
 11 39  1  0
 12 40  1  0
 14 41  1  0
 17 42  1  0
 17 43  1  0
 24 44  1  0
M  CHG  1  22  -1
M  END
>  <UniqueID>  (47) 
46

>  <SMILES>  (47) 
C=C(OC(C)(C)C)N(C)c1ccc2cc(C(N)=O)n(C(=O)[O-])c2c1

>  <Energy>  (47) 
91.95354118232369

>  <Genealogy>  (47) 
C=C(OC(C)(C)C)N(C)c1ccc2cc(C(N)=O)n(C(=O)[O-])c2c1 (protonated)
C=C(OC(C)(C)C)N(C)c1ccc2cc(C(N)=O)n(C(=O)[O-])c2c1 (3D coordinates assigned)
C=C(OC(C)(C)C)N(C)c1ccc2cc(C(N)=O)n(C(=O)[O-])c2c1 (optimized conformer: 91.95354118232369 kcal/mol)

>  <smiles>  (47) 
C=C(OC(C)(C)C)N(C)c1ccc2cc(C(N)=O)n(C(=O)O)c2c1

>  <score_type>  (47) 
oracle

>  <origin>  (47) 
adg

>  <m_score__min__energy>  (47) 
-7.3099999999999996

>  <m_primary>  (47) 
energy

$$$$
47:0
     RDKit          3D

 37 38  0  0  0  0  0  0  0  0999 V2000
  147.4950  156.0250  134.1230 C   0  0  0  0  0  0  0  0  0  0  0  0
  147.0880  156.7850  132.9030 C   0  0  0  0  0  0  0  0  0  0  0  0
  146.9870  156.1770  131.8030 O   0  0  0  0  0  0  0  0  0  0  0  0
  146.8270  158.1960  132.9650 N   0  0  0  0  0  0  0  0  0  0  0  0
  147.7050  159.2120  132.7290 C   0  0  0  0  0  0  0  0  0  0  0  0
  149.0890  159.0650  132.2330 C   0  0  0  0  0  0  0  0  0  0  0  0
  149.6060  157.7880  131.8660 N   0  0  0  0  0  0  0  0  0  0  0  0
  149.8170  160.0860  132.1030 O   0  0  0  0  0  0  0  0  0  0  0  0
  147.1010  160.4440  132.9680 C   0  0  0  0  0  0  0  0  0  0  0  0
  145.8140  160.1490  133.3600 C   0  0  0  0  0  0  0  0  0  0  0  0
  144.7740  160.9980  133.7300 C   0  0  0  0  0  0  0  0  0  0  0  0
  143.5560  160.4160  134.1180 C   0  0  0  0  0  0  0  0  0  0  0  0
  143.4080  159.0070  134.1510 C   0  0  0  0  0  0  0  0  0  0  0  0
  142.0940  158.3920  134.5470 C   0  0  0  0  0  0  0  0  0  0  0  0
  141.9610  157.0380  133.9310 C   0  0  0  0  0  0  0  0  0  0  0  0
  141.5020  156.9240  132.7620 O   0  0  0  0  0  0  0  0  0  0  0  0
  142.3950  155.9140  134.6430 O   0  0  0  0  0  0  0  0  0  0  0  0
  142.7190  154.6730  134.0260 C   0  0  0  0  0  0  0  0  0  0  0  0
  143.9930  154.7990  133.2470 C   0  0  0  0  0  0  0  0  0  0  0  0
  144.0460  155.5880  132.0570 N   0  0  0  0  0  0  0  0  0  0  0  0
  145.0370  154.2330  133.6680 O   0  0  0  0  0  0  0  0  0  0  0  0
  144.4840  158.1780  133.7640 C   0  0  0  0  0  0  0  0  0  0  0  0
  145.6760  158.7850  133.3560 C   0  0  0  0  0  0  0  0  0  0  0  0
  147.1951  156.5851  135.0210 H   0  0  0  0  0  0  0  0  0  0  0  0
  147.0030  155.0411  134.1232 H   0  0  0  0  0  0  0  0  0  0  0  0
  148.5866  155.8891  134.1232 H   0  0  0  0  0  0  0  0  0  0  0  0
  148.9820  157.0390  131.4910 H   0  0  0  0  0  0  0  0  0  0  0  0
  147.5552  161.4406  132.8655 H   0  0  0  0  0  0  0  0  0  0  0  0
  144.9024  162.0904  133.7187 H   0  0  0  0  0  0  0  0  0  0  0  0
  142.7093  161.0597  134.3988 H   0  0  0  0  0  0  0  0  0  0  0  0
  142.0493  158.3005  135.6423 H   0  0  0  0  0  0  0  0  0  0  0  0
  141.2728  159.0330  134.1939 H   0  0  0  0  0  0  0  0  0  0  0  0
  142.8421  153.9028  134.8017 H   0  0  0  0  0  0  0  0  0  0  0  0
  141.9062  154.3898  133.3411 H   0  0  0  0  0  0  0  0  0  0  0  0
  143.1950  156.0780  131.6990 H   0  0  0  0  0  0  0  0  0  0  0  0
  144.9400  155.6660  131.5210 H   0  0  0  0  0  0  0  0  0  0  0  0
  144.3869  157.0825  133.7830 H   0  0  0  0  0  0  0  0  0  0  0  0
  1  2  1  0
  2  3  2  0
  2  4  1  0
  4  5  1  0
  5  6  1  0
  6  7  1  0
  6  8  2  0
  5  9  2  0
  9 10  1  0
 10 11  2  0
 11 12  1  0
 12 13  2  0
 13 14  1  0
 14 15  1  0
 15 16  2  0
 15 17  1  0
 17 18  1  0
 18 19  1  0
 19 20  1  0
 19 21  2  0
 13 22  1  0
 22 23  2  0
 23  4  1  0
 23 10  1  0
  1 24  1  0
  1 25  1  0
  1 26  1  0
  7 27  1  0
  9 28  1  0
 11 29  1  0
 12 30  1  0
 14 31  1  0
 14 32  1  0
 18 33  1  0
 18 34  1  0
 20 35  1  0
 20 36  1  0
 22 37  1  0
M  CHG  1   7  -1
M  END
>  <UniqueID>  (48) 
47

>  <SMILES>  (48) 
CC(=O)n1c(C([NH-])=O)cc2ccc(CC(=O)OCC(N)=O)cc21

>  <Energy>  (48) 
69.24166129468122

>  <Genealogy>  (48) 
CC(=O)n1c(C([NH-])=O)cc2ccc(CC(=O)OCC(N)=O)cc21 (protonated)
CC(=O)n1c(C([NH-])=O)cc2ccc(CC(=O)OCC(N)=O)cc21 (3D coordinates assigned)
CC(=O)n1c(C([NH-])=O)cc2ccc(CC(=O)OCC(N)=O)cc21 (optimized conformer: 69.24166129468122 kcal/mol)

>  <smiles>  (48) 
CC(=O)n1c(C(N)=O)cc2ccc(CC(=O)OCC(N)=O)cc21

>  <score_type>  (48) 
oracle

>  <origin>  (48) 
adg

>  <m_score__min__energy>  (48) 
-6.5499999999999998

>  <m_primary>  (48) 
energy

$$$$
48:0
     RDKit          3D

 46 48  0  0  0  0  0  0  0  0999 V2000
  150.3170  150.7160  129.9900 C   0  0  0  0  0  0  0  0  0  0  0  0
  150.1460  150.8090  131.5030 C   0  0  0  0  0  0  0  0  0  0  0  0
  149.0280  151.7250  131.8290 N   0  0  0  0  0  0  0  0  0  0  0  0
  147.7860  150.9830  132.1720 C   0  0  0  0  0  0  0  0  0  0  0  0
  148.0140  149.5260  132.6040 C   0  0  0  0  0  0  0  0  0  0  0  0
  149.4220  152.7220  132.8490 C   0  0  0  0  0  0  0  0  0  0  0  0
  148.2730  153.4990  133.4280 C   0  0  0  0  0  0  0  0  0  0  0  0
  148.6550  154.8020  132.8540 N   0  0  0  0  0  0  0  0  0  0  0  0
  148.1730  156.1450  132.8780 C   0  0  0  0  0  0  0  0  0  0  0  0
  149.0530  157.2160  132.5920 C   0  0  0  0  0  0  0  0  0  0  0  0
  148.5920  158.5430  132.6160 C   0  0  0  0  0  0  0  0  0  0  0  0
  147.2560  158.7640  132.9330 C   0  0  0  0  0  0  0  0  0  0  0  0
  146.5510  159.9430  133.0250 C   0  0  0  0  0  0  0  0  0  0  0  0
  145.2550  159.5730  133.3770 C   0  0  0  0  0  0  0  0  0  0  0  0
  144.1810  160.5400  133.6990 C   0  0  0  0  0  0  0  0  0  0  0  0
  142.8630  160.3730  133.1720 N   0  0  0  0  0  0  0  0  0  0  0  0
  144.4300  161.5450  134.4170 O   0  0  0  0  0  0  0  0  0  0  0  0
  145.1610  158.2170  133.4950 N   0  0  0  0  0  0  0  0  0  0  0  0
  143.9880  157.4380  133.7850 C   0  0  0  0  0  0  0  0  0  0  0  0
  142.8770  157.4520  132.8910 N   0  0  0  0  0  0  0  0  0  0  0  0
  143.9430  156.7230  134.8210 O   0  0  0  0  0  0  0  0  0  0  0  0
  146.3950  157.7380  133.2240 C   0  0  0  0  0  0  0  0  0  0  0  0
  146.8240  156.4050  133.1890 C   0  0  0  0  0  0  0  0  0  0  0  0
  149.7730  154.0550  132.2520 C   0  0  0  0  0  0  0  0  0  0  0  0
  151.2617  150.2022  129.7587 H   0  0  0  0  0  0  0  0  0  0  0  0
  149.4772  150.1504  129.5602 H   0  0  0  0  0  0  0  0  0  0  0  0
  150.3354  151.7284  129.5602 H   0  0  0  0  0  0  0  0  0  0  0  0
  149.9284  149.8095  131.9075 H   0  0  0  0  0  0  0  0  0  0  0  0
  151.0737  151.1969  131.9491 H   0  0  0  0  0  0  0  0  0  0  0  0
  147.2863  151.5119  132.9969 H   0  0  0  0  0  0  0  0  0  0  0  0
  147.1795  150.9466  131.2550 H   0  0  0  0  0  0  0  0  0  0  0  0
  148.0233  149.4664  133.7023 H   0  0  0  0  0  0  0  0  0  0  0  0
  147.2036  148.8955  132.2095 H   0  0  0  0  0  0  0  0  0  0  0  0
  148.9783  149.1732  132.2095 H   0  0  0  0  0  0  0  0  0  0  0  0
  150.1023  152.0985  133.4477 H   0  0  0  0  0  0  0  0  0  0  0  0
  147.2966  153.1457  133.0649 H   0  0  0  0  0  0  0  0  0  0  0  0
  148.1388  153.4538  134.5188 H   0  0  0  0  0  0  0  0  0  0  0  0
  150.1055  157.0079  132.3492 H   0  0  0  0  0  0  0  0  0  0  0  0
  149.2673  159.3817  132.3909 H   0  0  0  0  0  0  0  0  0  0  0  0
  146.9307  160.9615  132.8563 H   0  0  0  0  0  0  0  0  0  0  0  0
  142.1310  161.0920  133.3600 H   0  0  0  0  0  0  0  0  0  0  0  0
  142.6040  159.5370  132.6040 H   0  0  0  0  0  0  0  0  0  0  0  0
  142.7640  158.2170  132.1900 H   0  0  0  0  0  0  0  0  0  0  0  0
  146.1250  155.5820  133.3991 H   0  0  0  0  0  0  0  0  0  0  0  0
  149.7357  154.0498  131.1526 H   0  0  0  0  0  0  0  0  0  0  0  0
  150.7873  154.4355  132.4431 H   0  0  0  0  0  0  0  0  0  0  0  0
  1  2  1  0
  2  3  1  0
  3  4  1  0
  4  5  1  0
  3  6  1  0
  6  7  1  0
  7  8  1  0
  8  9  1  0
  9 10  2  0
 10 11  1  0
 11 12  2  0
 12 13  1  0
 13 14  2  0
 14 15  1  0
 15 16  1  0
 15 17  2  0
 14 18  1  0
 18 19  1  0
 19 20  1  0
 19 21  2  0
 18 22  1  0
 22 23  2  0
  8 24  1  0
 24  6  1  0
 23  9  1  0
 22 12  1  0
  1 25  1  0
  1 26  1  0
  1 27  1  0
  2 28  1  0
  2 29  1  0
  4 30  1  0
  4 31  1  0
  5 32  1  0
  5 33  1  0
  5 34  1  0
  6 35  1  0
  7 36  1  0
  7 37  1  0
 10 38  1  0
 11 39  1  0
 13 40  1  0
 16 41  1  0
 16 42  1  0
 20 43  1  0
 23 44  1  0
 24 45  1  0
 24 46  1  0
M  CHG  1  20  -1
M  END
>  <UniqueID>  (49) 
48

>  <SMILES>  (49) 
CCN(CC)C1CN(c2ccc3cc(C(N)=O)n(C([NH-])=O)c3c2)C1

>  <Energy>  (49) 
131.89488181460138

>  <Genealogy>  (49) 
CCN(CC)C1CN(c2ccc3cc(C(N)=O)n(C([NH-])=O)c3c2)C1 (protonated)
CCN(CC)C1CN(c2ccc3cc(C(N)=O)n(C([NH-])=O)c3c2)C1 (3D coordinates assigned)
CCN(CC)C1CN(c2ccc3cc(C(N)=O)n(C([NH-])=O)c3c2)C1 (nonaromatic ring conformer: 131.89488181460138 kcal/mol)

>  <smiles>  (49) 
CCN(CC)C1CN(c2ccc3cc(C(N)=O)n(C(N)=O)c3c2)C1

>  <score_type>  (49) 
oracle

>  <origin>  (49) 
adg

>  <m_score__min__energy>  (49) 
-7.8300000000000001

>  <m_primary>  (49) 
energy

$$$$
49:0
     RDKit          3D

 57 59  0  0  0  0  0  0  0  0999 V2000
  140.0810  159.3700  130.9830 N   0  0  0  0  0  0  0  0  0  0  0  0
  139.8790  160.0820  132.1990 C   0  0  0  0  0  0  0  0  0  0  0  0
  139.3330  161.2170  132.1680 O   0  0  0  0  0  0  0  0  0  0  0  0
  140.2440  159.4800  133.4950 C   0  0  0  0  0  0  0  0  0  0  0  0
  141.1660  160.0460  134.3730 C   0  0  0  0  0  0  0  0  0  0  0  0
  141.1540  159.2380  135.4860 C   0  0  0  0  0  0  0  0  0  0  0  0
  141.8920  159.3250  136.6640 C   0  0  0  0  0  0  0  0  0  0  0  0
  141.7100  158.3220  137.6300 C   0  0  0  0  0  0  0  0  0  0  0  0
  140.8040  157.2580  137.4020 C   0  0  0  0  0  0  0  0  0  0  0  0
  140.6900  156.1470  138.4080 C   0  0  0  0  0  0  0  0  0  0  0  0
  141.4530  154.9880  137.9510 N   0  0  0  0  0  0  0  0  0  0  0  0
  141.2980  153.7100  138.3500 C   0  0  0  0  0  0  0  0  0  0  0  0
  142.1400  152.9230  137.5920 C   0  0  0  0  0  0  0  0  0  0  0  0
  142.8030  153.7110  136.7230 N   0  0  0  0  0  0  0  0  0  0  0  0
  142.3610  154.9610  136.9550 C   0  0  0  0  0  0  0  0  0  0  0  0
  140.0750  157.1990  136.1930 C   0  0  0  0  0  0  0  0  0  0  0  0
  140.2580  158.2240  135.2590 C   0  0  0  0  0  0  0  0  0  0  0  0
  139.6900  158.3600  134.0390 N   0  0  0  0  0  0  0  0  0  0  0  0
  138.7580  157.4600  133.4200 C   0  0  0  0  0  0  0  0  0  0  0  0
  137.6230  157.8780  133.0620 O   0  0  0  0  0  0  0  0  0  0  0  0
  139.1170  156.1200  133.2260 O   0  0  0  0  0  0  0  0  0  0  0  0
  140.4680  155.6700  133.1920 C   0  0  0  0  0  0  0  0  0  0  0  0
  140.5040  154.2780  133.3860 O   0  0  0  0  0  0  0  0  0  0  0  0
  142.1250  153.8250  133.6460 P   0  0  1  0  0  0  0  0  0  0  0  0
  142.8460  154.9390  134.3730 O   0  0  0  0  0  0  0  0  0  0  0  0
  142.1860  152.4270  134.5960 O   0  0  0  0  0  0  0  0  0  0  0  0
  142.8860  153.5070  132.1550 O   0  0  0  0  0  0  0  0  0  0  0  0
  144.1500  154.1310  132.1460 C   0  0  0  0  0  0  0  0  0  0  0  0
  145.1640  153.2480  132.8780 C   0  0  2  0  0  0  0  0  0  0  0  0
  145.1660  151.8040  132.3470 C   0  0  0  0  0  0  0  0  0  0  0  0
  144.0250  151.1080  132.7740 O   0  0  0  0  0  0  0  0  0  0  0  0
  144.8670  153.2590  134.2750 O   0  0  0  0  0  0  0  0  0  0  0  0
  145.7310  153.7900  135.2400 C   0  0  0  0  0  0  0  0  0  0  0  0
  145.6510  153.4260  136.4430 O   0  0  0  0  0  0  0  0  0  0  0  0
  146.7160  154.8450  134.8480 C   0  0  0  0  0  0  0  0  0  0  0  0
  147.4410  155.2550  135.9540 F   0  0  0  0  0  0  0  0  0  0  0  0
  146.0370  155.9300  134.3240 F   0  0  0  0  0  0  0  0  0  0  0  0
  147.5910  154.3490  133.8970 F   0  0  0  0  0  0  0  0  0  0  0  0
  141.0140  158.9730  130.7380 H   0  0  0  0  0  0  0  0  0  0  0  0
  141.7745  160.9479  134.2105 H   0  0  0  0  0  0  0  0  0  0  0  0
  142.5956  160.1536  136.8325 H   0  0  0  0  0  0  0  0  0  0  0  0
  142.2763  158.3633  138.5721 H   0  0  0  0  0  0  0  0  0  0  0  0
  141.0872  156.4878  139.3755 H   0  0  0  0  0  0  0  0  0  0  0  0
  139.6327  155.8653  138.5210 H   0  0  0  0  0  0  0  0  0  0  0  0
  140.6197  153.3568  139.1407 H   0  0  0  0  0  0  0  0  0  0  0  0
  142.2517  151.8324  137.6821 H   0  0  0  0  0  0  0  0  0  0  0  0
  143.5020  153.4150  136.0080 H   0  0  0  0  0  0  0  0  0  0  0  0
  142.6985  155.8494  136.4011 H   0  0  0  0  0  0  0  0  0  0  0  0
  139.3819  156.3689  135.9916 H   0  0  0  0  0  0  0  0  0  0  0  0
  140.9117  155.9156  132.2159 H   0  0  0  0  0  0  0  0  0  0  0  0
  141.0396  156.1661  133.9902 H   0  0  0  0  0  0  0  0  0  0  0  0
  144.4774  154.2798  131.1064 H   0  0  0  0  0  0  0  0  0  0  0  0
  144.0803  155.1046  132.6531 H   0  0  0  0  0  0  0  0  0  0  0  0
  146.1691  153.6575  132.6989 H   0  0  0  0  0  0  0  0  0  0  0  0
  145.1833  151.8255  131.2473 H   0  0  0  0  0  0  0  0  0  0  0  0
  146.0562  151.2891  132.7373 H   0  0  0  0  0  0  0  0  0  0  0  0
  143.4830  151.7450  133.3110 H   0  0  0  0  0  0  0  0  0  0  0  0
  1  2  1  0
  2  3  2  0
  2  4  1  0
  4  5  2  0
  5  6  1  0
  6  7  2  0
  7  8  1  0
  8  9  2  0
  9 10  1  0
 10 11  1  0
 11 12  1  0
 12 13  2  0
 13 14  1  0
 14 15  2  0
  9 16  1  0
 16 17  2  0
 17 18  1  0
 18 19  1  0
 19 20  2  0
 19 21  1  0
 21 22  1  0
 22 23  1  0
 23 24  1  0
 24 25  2  0
 24 26  1  1
 24 27  1  0
 27 28  1  0
 28 29  1  0
 29 30  1  0
 30 31  1  0
 29 32  1  0
 32 33  1  0
 33 34  2  0
 33 35  1  0
 35 36  1  0
 35 37  1  0
 35 38  1  0
 18  4  1  0
 17  6  1  0
 15 11  1  0
  1 39  1  0
  5 40  1  0
  7 41  1  0
  8 42  1  0
 10 43  1  0
 10 44  1  0
 12 45  1  0
 13 46  1  0
 14 47  1  0
 15 48  1  0
 16 49  1  0
 22 50  1  0
 22 51  1  0
 28 52  1  0
 28 53  1  0
 29 54  1  1
 30 55  1  0
 30 56  1  0
 31 57  1  0
M  CHG  3   1  -1  14   1  26  -1
M  END
>  <UniqueID>  (50) 
49

>  <SMILES>  (50) 
[NH-]C(=O)c1cc2ccc(Cn3cc[nH+]c3)cc2n1C(=O)OCO[P@@](=O)([O-])OC[C@H](CO)OC(=O)C(F)(F)F

>  <Energy>  (50) 
117.69404998166577

>  <Genealogy>  (50) 
[NH-]C(=O)c1cc2ccc(Cn3cc[nH+]c3)cc2n1C(=O)OCOP(=O)([O-])OC[C@H](CO)OC(=O)C(F)(F)F (protonated)
[NH-]C(=O)c1cc2ccc(Cn3cc[nH+]c3)cc2n1C(=O)OCO[P@@](=O)([O-])OC[C@H](CO)OC(=O)C(F)(F)F (chirality)
[NH-]C(=O)c1cc2ccc(Cn3cc[nH+]c3)cc2n1C(=O)OCO[P@@](=O)([O-])OC[C@H](CO)OC(=O)C(F)(F)F (3D coordinates assigned)
[NH-]C(=O)c1cc2ccc(Cn3cc[nH+]c3)cc2n1C(=O)OCO[P@@](=O)([O-])OC[C@H](CO)OC(=O)C(F)(F)F (optimized conformer: 117.69404998166577 kcal/mol)

>  <smiles>  (50) 
NC(=O)c1cc2ccc(Cn3ccnc3)cc2n1C(=O)OCOP(=O)(O)OC[C@H](CO)OC(=O)C(F)(F)F

>  <score_type>  (50) 
oracle

>  <origin>  (50) 
adg

>  <m_score__min__energy>  (50) 
-6.1200000000000001

>  <m_primary>  (50) 
energy

$$$$
50:0
     RDKit          3D

 39 41  0  0  0  0  0  0  0  0999 V2000
  140.2560  151.6800  140.8290 N   0  0  0  0  0  0  0  0  0  0  0  0
  141.5690  151.4890  140.3060 C   0  0  0  0  0  0  0  0  0  0  0  0
  142.3900  150.7820  140.9470 O   0  0  0  0  0  0  0  0  0  0  0  0
  141.9360  152.0840  139.0050 C   0  0  0  0  0  0  0  0  0  0  0  0
  142.8560  153.1230  138.8690 C   0  0  0  0  0  0  0  0  0  0  0  0
  142.8460  153.4460  137.5330 C   0  0  0  0  0  0  0  0  0  0  0  0
  143.5740  154.4110  136.8410 C   0  0  0  0  0  0  0  0  0  0  0  0
  143.3790  154.5120  135.4540 C   0  0  0  0  0  0  0  0  0  0  0  0
  142.4790  153.6450  134.7850 C   0  0  0  0  0  0  0  0  0  0  0  0
  142.2620  153.7820  133.3030 C   0  0  0  0  0  0  0  0  0  0  0  0
  140.7690  153.7200  132.9700 C   0  0  0  0  0  0  0  0  0  0  0  0
  140.2420  152.4250  133.2590 O   0  0  0  0  0  0  0  0  0  0  0  0
  140.6140  151.2330  132.6150 C   0  0  0  0  0  0  0  0  0  0  0  0
  141.9200  150.7140  132.6570 C   0  0  0  0  0  0  0  0  0  0  0  0
  142.2130  149.5550  132.0110 N   0  0  0  0  0  0  0  0  0  0  0  0
  141.2780  148.8660  131.3080 C   0  0  0  0  0  0  0  0  0  0  0  0
  139.9600  149.3400  131.2310 C   0  0  0  0  0  0  0  0  0  0  0  0
  138.9350  148.5960  130.4670 C   0  0  0  0  0  0  0  0  0  0  0  0
  138.8540  147.3410  130.5580 O   0  0  0  0  0  0  0  0  0  0  0  0
  138.0460  149.2710  129.6380 O   0  0  0  0  0  0  0  0  0  0  0  0
  139.6400  150.5370  131.8930 C   0  0  0  0  0  0  0  0  0  0  0  0
  141.7480  152.6860  135.5220 C   0  0  0  0  0  0  0  0  0  0  0  0
  141.9500  152.6190  136.9060 C   0  0  0  0  0  0  0  0  0  0  0  0
  141.3840  151.7740  137.7970 N   0  0  0  0  0  0  0  0  0  0  0  0
  140.4520  150.7200  137.5030 C   0  0  0  0  0  0  0  0  0  0  0  0
  140.5150  150.1040  136.4060 O   0  0  0  0  0  0  0  0  0  0  0  0
  139.4910  150.3500  138.4350 O   0  0  0  0  0  0  0  0  0  0  0  0
  139.4540  151.1040  140.4900 H   0  0  0  0  0  0  0  0  0  0  0  0
  143.4612  153.5858  139.6624 H   0  0  0  0  0  0  0  0  0  0  0  0
  144.2794  155.0731  137.3645 H   0  0  0  0  0  0  0  0  0  0  0  0
  143.9304  155.2718  134.8807 H   0  0  0  0  0  0  0  0  0  0  0  0
  142.6680  154.7471  132.9657 H   0  0  0  0  0  0  0  0  0  0  0  0
  142.7746  152.9542  132.7911 H   0  0  0  0  0  0  0  0  0  0  0  0
  140.2335  154.4702  133.5703 H   0  0  0  0  0  0  0  0  0  0  0  0
  140.6366  153.9250  131.8974 H   0  0  0  0  0  0  0  0  0  0  0  0
  142.7053  151.2467  133.2133 H   0  0  0  0  0  0  0  0  0  0  0  0
  141.5551  147.9323  130.7967 H   0  0  0  0  0  0  0  0  0  0  0  0
  138.6139  150.9302  131.8428 H   0  0  0  0  0  0  0  0  0  0  0  0
  141.0390  152.0100  135.0216 H   0  0  0  0  0  0  0  0  0  0  0  0
  1  2  1  0
  2  3  2  0
  2  4  1  0
  4  5  2  0
  5  6  1  0
  6  7  2  0
  7  8  1  0
  8  9  2  0
  9 10  1  0
 10 11  1  0
 11 12  1  0
 12 13  1  0
 13 14  2  0
 14 15  1  0
 15 16  2  0
 16 17  1  0
 17 18  1  0
 18 19  2  0
 18 20  1  0
 17 21  2  0
  9 22  1  0
 22 23  2  0
 23 24  1  0
 24 25  1  0
 25 26  2  0
 25 27  1  0
 24  4  1  0
 23  6  1  0
 21 13  1  0
  1 28  1  0
  5 29  1  0
  7 30  1  0
  8 31  1  0
 10 32  1  0
 10 33  1  0
 11 34  1  0
 11 35  1  0
 14 36  1  0
 16 37  1  0
 21 38  1  0
 22 39  1  0
M  CHG  3   1  -1  20  -1  27  -1
M  END
>  <UniqueID>  (51) 
50

>  <SMILES>  (51) 
[NH-]C(=O)c1cc2ccc(CCOc3cncc(C(=O)[O-])c3)cc2n1C(=O)[O-]

>  <Energy>  (51) 
80.44743180422388

>  <Genealogy>  (51) 
[NH-]C(=O)c1cc2ccc(CCOc3cncc(C(=O)[O-])c3)cc2n1C(=O)[O-] (protonated)
[NH-]C(=O)c1cc2ccc(CCOc3cncc(C(=O)[O-])c3)cc2n1C(=O)[O-] (3D coordinates assigned)
[NH-]C(=O)c1cc2ccc(CCOc3cncc(C(=O)[O-])c3)cc2n1C(=O)[O-] (optimized conformer: 80.44743180422388 kcal/mol)

>  <smiles>  (51) 
NC(=O)c1cc2ccc(CCOc3cncc(C(=O)O)c3)cc2n1C(=O)O

>  <score_type>  (51) 
oracle

>  <origin>  (51) 
adg

>  <m_score__min__energy>  (51) 
-7.8200000000000003

>  <m_primary>  (51) 
energy

$$$$
51:0
     RDKit          3D

 44 45  0  0  0  0  0  0  0  0999 V2000
  145.1490  155.7010  132.7200 C   0  0  0  0  0  0  0  0  0  0  0  0
  145.6760  156.6330  133.7640 C   0  0  0  0  0  0  0  0  0  0  0  0
  146.3670  156.1700  134.7100 O   0  0  0  0  0  0  0  0  0  0  0  0
  145.4040  158.0440  133.7010 N   0  0  0  0  0  0  0  0  0  0  0  0
  146.3130  159.0590  133.6660 C   0  0  0  0  0  0  0  0  0  0  0  0
  147.7820  158.8890  133.5730 C   0  0  0  0  0  0  0  0  0  0  0  0
  148.4680  157.9630  134.4190 N   0  0  0  0  0  0  0  0  0  0  0  0
  148.4480  159.5780  132.7570 O   0  0  0  0  0  0  0  0  0  0  0  0
  145.6620  160.2920  133.6610 C   0  0  0  0  0  0  0  0  0  0  0  0
  144.3180  159.9980  133.7010 C   0  0  0  0  0  0  0  0  0  0  0  0
  143.2160  160.8470  133.7320 C   0  0  0  0  0  0  0  0  0  0  0  0
  141.9400  160.2670  133.8130 C   0  0  0  0  0  0  0  0  0  0  0  0
  141.7880  158.8590  133.8810 C   0  0  0  0  0  0  0  0  0  0  0  0
  140.4140  158.2490  133.9920 C   0  0  0  0  0  0  0  0  0  0  0  0
  139.9760  158.1180  135.4290 C   0  0  0  0  0  0  0  0  0  0  0  0
  138.7460  157.9450  135.6570 O   0  0  0  0  0  0  0  0  0  0  0  0
  140.9060  158.1480  136.5390 N   0  0  0  0  0  0  0  0  0  0  0  0
  141.0660  159.4210  137.2550 C   0  0  0  0  0  0  0  0  0  0  0  0
  141.6870  156.9590  136.9420 C   0  0  0  0  0  0  0  0  0  0  0  0
  141.3620  156.5520  138.3840 C   0  0  0  0  0  0  0  0  0  0  0  0
  141.4620  155.7960  135.9660 C   0  0  0  0  0  0  0  0  0  0  0  0
  142.9310  158.0280  133.8280 C   0  0  0  0  0  0  0  0  0  0  0  0
  144.1880  158.6340  133.7280 C   0  0  0  0  0  0  0  0  0  0  0  0
  144.6634  154.8422  133.2065 H   0  0  0  0  0  0  0  0  0  0  0  0
  144.4162  156.2297  132.0928 H   0  0  0  0  0  0  0  0  0  0  0  0
  145.9798  155.3455  132.0928 H   0  0  0  0  0  0  0  0  0  0  0  0
  149.5070  157.8750  134.3610 H   0  0  0  0  0  0  0  0  0  0  0  0
  147.9540  157.3350  135.0740 H   0  0  0  0  0  0  0  0  0  0  0  0
  146.1249  161.2894  133.6313 H   0  0  0  0  0  0  0  0  0  0  0  0
  143.3408  161.9392  133.6942 H   0  0  0  0  0  0  0  0  0  0  0  0
  141.0488  160.9117  133.8238 H   0  0  0  0  0  0  0  0  0  0  0  0
  139.6960  158.8882  133.4574 H   0  0  0  0  0  0  0  0  0  0  0  0
  140.4495  157.2417  133.5513 H   0  0  0  0  0  0  0  0  0  0  0  0
  141.0429  159.2372  138.3393 H   0  0  0  0  0  0  0  0  0  0  0  0
  142.0286  159.8774  136.9809 H   0  0  0  0  0  0  0  0  0  0  0  0
  140.2463  160.1014  136.9809 H   0  0  0  0  0  0  0  0  0  0  0  0
  142.7543  157.2226  136.9034 H   0  0  0  0  0  0  0  0  0  0  0  0
  141.8929  157.2169  139.0812 H   0  0  0  0  0  0  0  0  0  0  0  0
  140.2781  156.6340  138.5527 H   0  0  0  0  0  0  0  0  0  0  0  0
  141.6818  155.5131  138.5527 H   0  0  0  0  0  0  0  0  0  0  0  0
  141.2830  154.8707  136.5332 H   0  0  0  0  0  0  0  0  0  0  0  0
  140.5891  156.0125  135.3326 H   0  0  0  0  0  0  0  0  0  0  0  0
  142.3527  155.6713  135.3326 H   0  0  0  0  0  0  0  0  0  0  0  0
  142.8342  156.9329  133.8645 H   0  0  0  0  0  0  0  0  0  0  0  0
  1  2  1  0
  2  3  2  0
  2  4  1  0
  4  5  1  0
  5  6  1  0
  6  7  1  0
  6  8  2  0
  5  9  2  0
  9 10  1  0
 10 11  2  0
 11 12  1  0
 12 13  2  0
 13 14  1  0
 14 15  1  0
 15 16  2  0
 15 17  1  0
 17 18  1  0
 17 19  1  0
 19 20  1  0
 19 21  1  0
 13 22  1  0
 22 23  2  0
 23  4  1  0
 23 10  1  0
  1 24  1  0
  1 25  1  0
  1 26  1  0
  7 27  1  0
  7 28  1  0
  9 29  1  0
 11 30  1  0
 12 31  1  0
 14 32  1  0
 14 33  1  0
 18 34  1  0
 18 35  1  0
 18 36  1  0
 19 37  1  0
 20 38  1  0
 20 39  1  0
 20 40  1  0
 21 41  1  0
 21 42  1  0
 21 43  1  0
 22 44  1  0
M  END
>  <UniqueID>  (52) 
51

>  <SMILES>  (52) 
CC(=O)n1c(C(N)=O)cc2ccc(CC(=O)N(C)C(C)C)cc21

>  <Energy>  (52) 
76.83863705357071

>  <Genealogy>  (52) 
CC(=O)n1c(C(N)=O)cc2ccc(CC(=O)N(C)C(C)C)cc21 (3D coordinates assigned)
CC(=O)n1c(C(N)=O)cc2ccc(CC(=O)N(C)C(C)C)cc21 (optimized conformer: 76.83863705357071 kcal/mol)

>  <smiles>  (52) 
CC(=O)n1c(C(N)=O)cc2ccc(CC(=O)N(C)C(C)C)cc21

>  <score_type>  (52) 
oracle

>  <origin>  (52) 
adg

>  <m_score__min__energy>  (52) 
-7.6399999999999997

>  <m_primary>  (52) 
energy

$$$$
52:0
     RDKit          3D

 39 40  0  0  0  0  0  0  0  0999 V2000
  149.2430  161.5170  130.6850 C   0  0  0  0  0  0  0  0  0  0  0  0
  148.8940  160.0320  130.6200 C   0  0  0  0  0  0  0  0  0  0  0  0
  149.9580  159.1990  131.3390 C   0  0  0  0  0  0  0  0  0  0  0  0
  147.6170  159.8310  131.2240 O   0  0  0  0  0  0  0  0  0  0  0  0
  147.4290  159.6490  132.6000 C   0  0  0  0  0  0  0  0  0  0  0  0
  148.0800  160.3420  133.4290 O   0  0  0  0  0  0  0  0  0  0  0  0
  146.5140  158.6440  133.0670 N   0  0  0  0  0  0  0  0  0  0  0  0
  145.2200  158.8150  133.4610 C   0  0  0  0  0  0  0  0  0  0  0  0
  144.5320  160.1100  133.6390 C   0  0  0  0  0  0  0  0  0  0  0  0
  145.2960  161.2960  133.8430 N   0  0  0  0  0  0  0  0  0  0  0  0
  143.2770  160.1880  133.5770 O   0  0  0  0  0  0  0  0  0  0  0  0
  144.6360  157.5870  133.7640 C   0  0  0  0  0  0  0  0  0  0  0  0
  145.6200  156.6510  133.5490 C   0  0  0  0  0  0  0  0  0  0  0  0
  145.5840  155.2670  133.6890 C   0  0  0  0  0  0  0  0  0  0  0  0
  146.7460  154.5430  133.3740 C   0  0  0  0  0  0  0  0  0  0  0  0
  147.9090  155.2090  132.9130 C   0  0  0  0  0  0  0  0  0  0  0  0
  149.1570  154.4240  132.5960 C   0  0  0  0  0  0  0  0  0  0  0  0
  148.8340  152.9760  132.2100 C   0  0  0  0  0  0  0  0  0  0  0  0
  149.7180  152.0030  132.9300 C   0  0  0  0  0  0  0  0  0  0  0  0
  149.5990  151.8360  134.1730 O   0  0  0  0  0  0  0  0  0  0  0  0
  150.6460  151.2500  132.2200 O   0  0  0  0  0  0  0  0  0  0  0  0
  147.9100  156.6160  132.7890 C   0  0  0  0  0  0  0  0  0  0  0  0
  146.7450  157.3130  133.1280 C   0  0  0  0  0  0  0  0  0  0  0  0
  149.3167  161.8306  131.7368 H   0  0  0  0  0  0  0  0  0  0  0  0
  150.2062  161.6896  130.1825 H   0  0  0  0  0  0  0  0  0  0  0  0
  148.4575  162.1006  130.1825 H   0  0  0  0  0  0  0  0  0  0  0  0
  148.8617  159.7090  129.5690 H   0  0  0  0  0  0  0  0  0  0  0  0
  149.8293  159.2998  132.4268 H   0  0  0  0  0  0  0  0  0  0  0  0
  149.8510  158.1421  131.0535 H   0  0  0  0  0  0  0  0  0  0  0  0
  150.9583  159.5565  131.0535 H   0  0  0  0  0  0  0  0  0  0  0  0
  146.2100  161.4360  133.3580 H   0  0  0  0  0  0  0  0  0  0  0  0
  143.6057  157.4048  134.1035 H   0  0  0  0  0  0  0  0  0  0  0  0
  144.6738  154.7556  134.0356 H   0  0  0  0  0  0  0  0  0  0  0  0
  146.7533  153.4488  133.4862 H   0  0  0  0  0  0  0  0  0  0  0  0
  149.6793  154.9082  131.7577 H   0  0  0  0  0  0  0  0  0  0  0  0
  149.7884  154.4059  133.4966 H   0  0  0  0  0  0  0  0  0  0  0  0
  147.7857  152.7635  132.4667 H   0  0  0  0  0  0  0  0  0  0  0  0
  149.0047  152.8616  131.1294 H   0  0  0  0  0  0  0  0  0  0  0  0
  148.8040  157.1503  132.4349 H   0  0  0  0  0  0  0  0  0  0  0  0
  1  2  1  0
  2  3  1  0
  2  4  1  0
  4  5  1  0
  5  6  2  0
  5  7  1  0
  7  8  1  0
  8  9  1  0
  9 10  1  0
  9 11  2  0
  8 12  2  0
 12 13  1  0
 13 14  2  0
 14 15  1  0
 15 16  2  0
 16 17  1  0
 17 18  1  0
 18 19  1  0
 19 20  2  0
 19 21  1  0
 16 22  1  0
 22 23  2  0
 23  7  1  0
 23 13  1  0
  1 24  1  0
  1 25  1  0
  1 26  1  0
  2 27  1  0
  3 28  1  0
  3 29  1  0
  3 30  1  0
 10 31  1  0
 12 32  1  0
 14 33  1  0
 15 34  1  0
 17 35  1  0
 17 36  1  0
 18 37  1  0
 18 38  1  0
 22 39  1  0
M  CHG  2  10  -1  21  -1
M  END
>  <UniqueID>  (53) 
52

>  <SMILES>  (53) 
CC(C)OC(=O)n1c(C([NH-])=O)cc2ccc(CCC(=O)[O-])cc21

>  <Energy>  (53) 
68.00967788044451

>  <Genealogy>  (53) 
CC(C)OC(=O)n1c(C([NH-])=O)cc2ccc(CCC(=O)[O-])cc21 (protonated)
CC(C)OC(=O)n1c(C([NH-])=O)cc2ccc(CCC(=O)[O-])cc21 (3D coordinates assigned)
CC(C)OC(=O)n1c(C([NH-])=O)cc2ccc(CCC(=O)[O-])cc21 (optimized conformer: 68.00967788044451 kcal/mol)

>  <smiles>  (53) 
CC(C)OC(=O)n1c(C(N)=O)cc2ccc(CCC(=O)O)cc21

>  <score_type>  (53) 
oracle

>  <origin>  (53) 
adg

>  <m_score__min__energy>  (53) 
-6.8399999999999999

>  <m_primary>  (53) 
energy

$$$$
53:0
     RDKit          3D

 52 53  0  0  0  0  0  0  0  0999 V2000
  139.0960  160.1340  131.0350 C   0  0  0  0  0  0  0  0  0  0  0  0
  140.2290  159.3380  131.3060 O   0  0  0  0  0  0  0  0  0  0  0  0
  140.4560  159.2580  132.7000 C   0  0  0  0  0  0  0  0  0  0  0  0
  139.3670  157.9890  133.4330 P   0  0  1  0  0  0  0  0  0  0  0  0
  137.9510  158.2470  132.9680 O   0  0  0  0  0  0  0  0  0  0  0  0
  139.8530  156.3160  132.8820 C   0  0  0  0  0  0  0  0  0  0  0  0
  140.6010  155.5300  133.9810 C   0  0  0  0  0  0  0  0  0  0  0  0
  141.6360  154.5420  133.4150 C   0  0  0  0  0  0  0  0  0  0  0  0
  143.0260  155.1250  133.4340 C   0  0  0  0  0  0  0  0  0  0  0  0
  144.1480  154.2790  133.2420 C   0  0  0  0  0  0  0  0  0  0  0  0
  145.4470  154.8120  133.2030 C   0  0  0  0  0  0  0  0  0  0  0  0
  145.5910  156.1890  133.3440 C   0  0  0  0  0  0  0  0  0  0  0  0
  146.7280  156.9640  133.3380 C   0  0  0  0  0  0  0  0  0  0  0  0
  146.2840  158.2750  133.5020 C   0  0  0  0  0  0  0  0  0  0  0  0
  147.1730  159.4570  133.4540 C   0  0  0  0  0  0  0  0  0  0  0  0
  146.6830  160.7190  132.9950 N   0  0  0  0  0  0  0  0  0  0  0  0
  148.3650  159.3690  133.8470 O   0  0  0  0  0  0  0  0  0  0  0  0
  144.9250  158.3080  133.6090 N   0  0  0  0  0  0  0  0  0  0  0  0
  144.0870  159.4570  133.8200 C   0  0  0  0  0  0  0  0  0  0  0  0
  144.1390  160.4360  133.0300 O   0  0  0  0  0  0  0  0  0  0  0  0
  143.2210  159.5060  134.9060 O   0  0  0  0  0  0  0  0  0  0  0  0
  144.5170  157.0230  133.5140 C   0  0  0  0  0  0  0  0  0  0  0  0
  143.2140  156.5160  133.5870 C   0  0  0  0  0  0  0  0  0  0  0  0
  139.3820  158.0500  135.1410 O   0  0  0  0  0  0  0  0  0  0  0  0
  140.5090  158.7750  135.5750 C   0  0  0  0  0  0  0  0  0  0  0  0
  140.8050  158.4190  136.9210 O   0  0  0  0  0  0  0  0  0  0  0  0
  141.3370  157.1750  137.2750 C   0  0  0  0  0  0  0  0  0  0  0  0
  142.1480  156.5830  136.5110 O   0  0  0  0  0  0  0  0  0  0  0  0
  140.9570  156.5980  138.4890 O   0  0  0  0  0  0  0  0  0  0  0  0
  140.6590  155.2130  138.6190 C   0  0  0  0  0  0  0  0  0  0  0  0
  138.6386  160.4554  131.9824 H   0  0  0  0  0  0  0  0  0  0  0  0
  139.3994  161.0185  130.4557 H   0  0  0  0  0  0  0  0  0  0  0  0
  138.3667  159.5487  130.4557 H   0  0  0  0  0  0  0  0  0  0  0  0
  141.5064  158.9881  132.8839 H   0  0  0  0  0  0  0  0  0  0  0  0
  140.2376  160.2331  133.1598 H   0  0  0  0  0  0  0  0  0  0  0  0
  138.9467  155.7584  132.6033 H   0  0  0  0  0  0  0  0  0  0  0  0
  140.5350  156.4289  132.0263 H   0  0  0  0  0  0  0  0  0  0  0  0
  141.1212  156.2475  134.6327 H   0  0  0  0  0  0  0  0  0  0  0  0
  139.8524  154.9422  134.5325 H   0  0  0  0  0  0  0  0  0  0  0  0
  141.6247  153.6255  134.0231 H   0  0  0  0  0  0  0  0  0  0  0  0
  141.3684  154.3232  132.3707 H   0  0  0  0  0  0  0  0  0  0  0  0
  143.9996  153.1956  133.1225 H   0  0  0  0  0  0  0  0  0  0  0  0
  146.3231  154.1613  133.0653 H   0  0  0  0  0  0  0  0  0  0  0  0
  147.7674  156.6214  133.2272 H   0  0  0  0  0  0  0  0  0  0  0  0
  147.3060  161.5570  133.0020 H   0  0  0  0  0  0  0  0  0  0  0  0
  145.7180  160.8190  132.6110 H   0  0  0  0  0  0  0  0  0  0  0  0
  142.3579  157.1848  133.7593 H   0  0  0  0  0  0  0  0  0  0  0  0
  141.3698  158.5356  134.9334 H   0  0  0  0  0  0  0  0  0  0  0  0
  140.3000  159.8533  135.5155 H   0  0  0  0  0  0  0  0  0  0  0  0
  140.6021  154.9487  139.6853 H   0  0  0  0  0  0  0  0  0  0  0  0
  139.6942  154.9986  138.1361 H   0  0  0  0  0  0  0  0  0  0  0  0
  141.4503  154.6208  138.1361 H   0  0  0  0  0  0  0  0  0  0  0  0
  1  2  1  0
  2  3  1  0
  3  4  1  0
  4  5  2  0
  4  6  1  0
  6  7  1  0
  7  8  1  0
  8  9  1  0
  9 10  2  0
 10 11  1  0
 11 12  2  0
 12 13  1  0
 13 14  2  0
 14 15  1  0
 15 16  1  0
 15 17  2  0
 14 18  1  0
 18 19  1  0
 19 20  2  0
 19 21  1  0
 18 22  1  0
 22 23  2  0
  4 24  1  1
 24 25  1  0
 25 26  1  0
 26 27  1  0
 27 28  2  0
 27 29  1  0
 29 30  1  0
 23  9  1  0
 22 12  1  0
  1 31  1  0
  1 32  1  0
  1 33  1  0
  3 34  1  0
  3 35  1  0
  6 36  1  0
  6 37  1  0
  7 38  1  0
  7 39  1  0
  8 40  1  0
  8 41  1  0
 10 42  1  0
 11 43  1  0
 13 44  1  0
 16 45  1  0
 16 46  1  0
 23 47  1  0
 25 48  1  0
 25 49  1  0
 30 50  1  0
 30 51  1  0
 30 52  1  0
M  CHG  1  21  -1
M  END
>  <UniqueID>  (54) 
53

>  <SMILES>  (54) 
COC[P@@](=O)(CCCc1ccc2cc(C(N)=O)n(C(=O)[O-])c2c1)OCOC(=O)OC

>  <Energy>  (54) 
78.36255439558181

>  <Genealogy>  (54) 
COCP(=O)(CCCc1ccc2cc(C(N)=O)n(C(=O)[O-])c2c1)OCOC(=O)OC (protonated)
COC[P@@](=O)(CCCc1ccc2cc(C(N)=O)n(C(=O)[O-])c2c1)OCOC(=O)OC (chirality)
COC[P@@](=O)(CCCc1ccc2cc(C(N)=O)n(C(=O)[O-])c2c1)OCOC(=O)OC (3D coordinates assigned)
COC[P@@](=O)(CCCc1ccc2cc(C(N)=O)n(C(=O)[O-])c2c1)OCOC(=O)OC (optimized conformer: 78.36255439558181 kcal/mol)

>  <smiles>  (54) 
COCP(=O)(CCCc1ccc2cc(C(N)=O)n(C(=O)O)c2c1)OCOC(=O)OC

>  <score_type>  (54) 
oracle

>  <origin>  (54) 
adg

>  <m_score__min__energy>  (54) 
-6.5300000000000002

>  <m_primary>  (54) 
energy

$$$$
54:0
     RDKit          3D

 26 27  0  0  0  0  0  0  0  0999 V2000
  138.8950  146.9700  129.9340 N   0  0  0  0  0  0  0  0  0  0  0  0
  138.7390  147.8980  130.6050 C   0  0  0  0  0  0  0  0  0  0  0  0
  138.5430  149.0750  131.4580 C   0  0  0  0  0  0  0  0  0  0  0  0
  139.8710  149.6760  131.8180 C   0  0  0  0  0  0  0  0  0  0  0  0
  141.0310  148.8620  131.8640 C   0  0  0  0  0  0  0  0  0  0  0  0
  142.2710  149.4030  132.2390 C   0  0  0  0  0  0  0  0  0  0  0  0
  142.3210  150.7570  132.5630 C   0  0  0  0  0  0  0  0  0  0  0  0
  143.3810  151.5200  132.9930 C   0  0  0  0  0  0  0  0  0  0  0  0
  142.8580  152.7960  133.1870 C   0  0  0  0  0  0  0  0  0  0  0  0
  143.6770  153.9560  133.5920 C   0  0  0  0  0  0  0  0  0  0  0  0
  143.4920  155.2380  132.9900 N   0  0  0  0  0  0  0  0  0  0  0  0
  144.5940  153.7980  134.4420 O   0  0  0  0  0  0  0  0  0  0  0  0
  141.5250  152.8200  132.9020 N   0  0  0  0  0  0  0  0  0  0  0  0
  140.6130  153.9160  133.0960 C   0  0  0  0  0  0  0  0  0  0  0  0
  139.3720  153.7430  132.9760 O   0  0  0  0  0  0  0  0  0  0  0  0
  141.0930  155.1770  133.4260 O   0  0  0  0  0  0  0  0  0  0  0  0
  141.2110  151.5620  132.5170 C   0  0  0  0  0  0  0  0  0  0  0  0
  139.9590  151.0430  132.1650 C   0  0  0  0  0  0  0  0  0  0  0  0
  137.9406  149.8201  130.9177 H   0  0  0  0  0  0  0  0  0  0  0  0
  138.0231  148.7709  132.3785 H   0  0  0  0  0  0  0  0  0  0  0  0
  140.9586  147.7958  131.6032 H   0  0  0  0  0  0  0  0  0  0  0  0
  143.1749  148.7773  132.2758 H   0  0  0  0  0  0  0  0  0  0  0  0
  144.4194  151.1927  133.1501 H   0  0  0  0  0  0  0  0  0  0  0  0
  142.8570  155.3630  132.1710 H   0  0  0  0  0  0  0  0  0  0  0  0
  144.0560  156.0540  133.3150 H   0  0  0  0  0  0  0  0  0  0  0  0
  139.0652  151.6842  132.1587 H   0  0  0  0  0  0  0  0  0  0  0  0
  1  2  3  0
  2  3  1  0
  3  4  1  0
  4  5  2  0
  5  6  1  0
  6  7  2  0
  7  8  1  0
  8  9  2  0
  9 10  1  0
 10 11  1  0
 10 12  2  0
  9 13  1  0
 13 14  1  0
 14 15  2  0
 14 16  1  0
 13 17  1  0
 17 18  2  0
 18  4  1  0
 17  7  1  0
  3 19  1  0
  3 20  1  0
  5 21  1  0
  6 22  1  0
  8 23  1  0
 11 24  1  0
 11 25  1  0
 18 26  1  0
M  CHG  1  16  -1
M  END
>  <UniqueID>  (55) 
54

>  <SMILES>  (55) 
N#CCc1ccc2cc(C(N)=O)n(C(=O)[O-])c2c1

>  <Energy>  (55) 
64.66478720573943

>  <Genealogy>  (55) 
N#CCc1ccc2cc(C(N)=O)n(C(=O)[O-])c2c1 (protonated)
N#CCc1ccc2cc(C(N)=O)n(C(=O)[O-])c2c1 (3D coordinates assigned)
N#CCc1ccc2cc(C(N)=O)n(C(=O)[O-])c2c1 (optimized conformer: 64.66478720573943 kcal/mol)

>  <smiles>  (55) 
N#CCc1ccc2cc(C(N)=O)n(C(=O)O)c2c1

>  <score_type>  (55) 
oracle

>  <origin>  (55) 
adg

>  <m_score__min__energy>  (55) 
-6.4199999999999999

>  <m_primary>  (55) 
energy

$$$$
55:0
     RDKit          3D

 34 35  0  0  0  0  0  0  0  0999 V2000
  139.3800  155.6970  133.0480 N   0  0  0  0  0  0  0  0  0  0  0  0
  139.9410  156.7670  133.8030 C   0  0  0  0  0  0  0  0  0  0  0  0
  139.2080  157.4060  134.6050 O   0  0  0  0  0  0  0  0  0  0  0  0
  141.3500  157.1730  133.6180 C   0  0  0  0  0  0  0  0  0  0  0  0
  142.4010  156.2640  133.5260 C   0  0  0  0  0  0  0  0  0  0  0  0
  143.5420  157.0300  133.4540 C   0  0  0  0  0  0  0  0  0  0  0  0
  144.8740  156.6430  133.3470 C   0  0  0  0  0  0  0  0  0  0  0  0
  145.8480  157.6510  133.2690 C   0  0  0  0  0  0  0  0  0  0  0  0
  145.4750  159.0190  133.2890 C   0  0  0  0  0  0  0  0  0  0  0  0
  146.5300  160.0930  133.2420 C   0  0  0  0  0  0  0  0  0  0  0  0
  147.9540  159.5210  133.3500 C   0  0  0  0  0  0  0  0  0  0  0  0
  148.7490  159.6180  132.0360 C   0  0  0  0  0  0  0  0  0  0  0  0
  148.7330  160.9770  131.4910 N   0  0  0  0  0  0  0  0  0  0  0  0
  149.5710  161.3560  130.3960 C   0  0  0  0  0  0  0  0  0  0  0  0
  150.3460  160.5180  129.8600 O   0  0  0  0  0  0  0  0  0  0  0  0
  149.5340  162.6580  129.9170 O   0  0  0  0  0  0  0  0  0  0  0  0
  144.1120  159.3740  133.3990 C   0  0  0  0  0  0  0  0  0  0  0  0
  143.1650  158.3480  133.4960 C   0  0  0  0  0  0  0  0  0  0  0  0
  141.8200  158.4540  133.5940 N   0  0  0  0  0  0  0  0  0  0  0  0
  141.0610  159.6730  133.5830 C   0  0  0  0  0  0  0  0  0  0  0  0
  140.4040  160.0050  132.5610 O   0  0  0  0  0  0  0  0  0  0  0  0
  141.0640  160.5110  134.6910 O   0  0  0  0  0  0  0  0  0  0  0  0
  138.3490  155.6240  132.9050 H   0  0  0  0  0  0  0  0  0  0  0  0
  142.3334  155.1662  133.5135 H   0  0  0  0  0  0  0  0  0  0  0  0
  145.1554  155.5798  133.3242 H   0  0  0  0  0  0  0  0  0  0  0  0
  146.9105  157.3771  133.1916 H   0  0  0  0  0  0  0  0  0  0  0  0
  146.4388  160.6364  132.2900 H   0  0  0  0  0  0  0  0  0  0  0  0
  146.3697  160.7587  134.1029 H   0  0  0  0  0  0  0  0  0  0  0  0
  148.4962  160.0781  134.1283 H   0  0  0  0  0  0  0  0  0  0  0  0
  147.8589  158.4530  133.5957 H   0  0  0  0  0  0  0  0  0  0  0  0
  149.7913  159.3233  132.2276 H   0  0  0  0  0  0  0  0  0  0  0  0
  148.2782  158.9487  131.3008 H   0  0  0  0  0  0  0  0  0  0  0  0
  148.0930  161.7010  131.8890 H   0  0  0  0  0  0  0  0  0  0  0  0
  143.8030  160.4297  133.4082 H   0  0  0  0  0  0  0  0  0  0  0  0
  1  2  1  0
  2  3  2  0
  2  4  1  0
  4  5  2  0
  5  6  1  0
  6  7  2  0
  7  8  1  0
  8  9  2  0
  9 10  1  0
 10 11  1  0
 11 12  1  0
 12 13  1  0
 13 14  1  0
 14 15  2  0
 14 16  1  0
  9 17  1  0
 17 18  2  0
 18 19  1  0
 19 20  1  0
 20 21  2  0
 20 22  1  0
 19  4  1  0
 18  6  1  0
  1 23  1  0
  5 24  1  0
  7 25  1  0
  8 26  1  0
 10 27  1  0
 10 28  1  0
 11 29  1  0
 11 30  1  0
 12 31  1  0
 12 32  1  0
 13 33  1  0
 17 34  1  0
M  CHG  3   1  -1  16  -1  22  -1
M  END
>  <UniqueID>  (56) 
55

>  <SMILES>  (56) 
[NH-]C(=O)c1cc2ccc(CCCNC(=O)[O-])cc2n1C(=O)[O-]

>  <Energy>  (56) 
67.69776298945278

>  <Genealogy>  (56) 
[NH-]C(=O)c1cc2ccc(CCCNC(=O)[O-])cc2n1C(=O)[O-] (protonated)
[NH-]C(=O)c1cc2ccc(CCCNC(=O)[O-])cc2n1C(=O)[O-] (3D coordinates assigned)
[NH-]C(=O)c1cc2ccc(CCCNC(=O)[O-])cc2n1C(=O)[O-] (optimized conformer: 67.69776298945278 kcal/mol)

>  <smiles>  (56) 
NC(=O)c1cc2ccc(CCCNC(=O)O)cc2n1C(=O)O

>  <score_type>  (56) 
oracle

>  <origin>  (56) 
adg

>  <m_score__min__energy>  (56) 
-7

>  <m_primary>  (56) 
energy

$$$$
56:0
     RDKit          3D

 50 52  0  0  0  0  0  0  0  0999 V2000
  144.2010  154.3030  135.4960 C   0  0  0  0  0  0  0  0  0  0  0  0
  144.1080  154.7280  134.0670 C   0  0  0  0  0  0  0  0  0  0  0  0
  144.6530  154.0850  133.0620 O   0  0  0  0  0  0  0  0  0  0  0  0
  144.3300  154.7650  131.9840 C   0  0  0  0  0  0  0  0  0  0  0  0
  144.6870  154.4410  130.8220 O   0  0  0  0  0  0  0  0  0  0  0  0
  143.5940  155.8190  132.2530 O   0  0  0  0  0  0  0  0  0  0  0  0
  143.4310  155.8210  133.5560 C   0  0  0  0  0  0  0  0  0  0  0  0
  142.6770  156.8640  134.3130 C   0  0  0  0  0  0  0  0  0  0  0  0
  143.5830  157.8750  134.7370 O   0  0  0  0  0  0  0  0  0  0  0  0
  143.9190  158.9730  133.9390 C   0  0  0  0  0  0  0  0  0  0  0  0
  143.0140  159.7200  133.4760 O   0  0  0  0  0  0  0  0  0  0  0  0
  145.3020  159.2450  133.6480 N   0  0  0  0  0  0  0  0  0  0  0  0
  145.9530  160.4340  133.7900 C   0  0  0  0  0  0  0  0  0  0  0  0
  145.3250  161.7340  134.0990 C   0  0  0  0  0  0  0  0  0  0  0  0
  143.9850  162.0230  133.6990 N   0  0  0  0  0  0  0  0  0  0  0  0
  146.0030  162.6260  134.6760 O   0  0  0  0  0  0  0  0  0  0  0  0
  147.3160  160.2800  133.5540 C   0  0  0  0  0  0  0  0  0  0  0  0
  147.4830  158.9510  133.2490 C   0  0  0  0  0  0  0  0  0  0  0  0
  148.6410  158.2470  132.9360 C   0  0  0  0  0  0  0  0  0  0  0  0
  148.5270  156.8670  132.6990 C   0  0  0  0  0  0  0  0  0  0  0  0
  147.2760  156.2110  132.7980 C   0  0  0  0  0  0  0  0  0  0  0  0
  147.2140  154.7950  132.5370 N   0  0  0  0  0  0  0  0  0  0  0  0
  148.1150  153.7610  133.0950 C   0  0  0  0  0  0  0  0  0  0  0  0
  149.5520  154.0420  132.6000 C   0  0  0  0  0  0  0  0  0  0  0  0
  148.1310  153.8080  134.6380 C   0  0  0  0  0  0  0  0  0  0  0  0
  147.6910  152.3560  132.6070 C   0  0  0  0  0  0  0  0  0  0  0  0
  146.3310  152.3470  132.2660 O   0  0  0  0  0  0  0  0  0  0  0  0
  146.1190  156.9670  133.0990 C   0  0  0  0  0  0  0  0  0  0  0  0
  146.2550  158.3450  133.3140 C   0  0  0  0  0  0  0  0  0  0  0  0
  144.0117  155.1679  136.1488 H   0  0  0  0  0  0  0  0  0  0  0  0
  143.4525  153.5221  135.6957 H   0  0  0  0  0  0  0  0  0  0  0  0
  145.2073  153.9061  135.6957 H   0  0  0  0  0  0  0  0  0  0  0  0
  141.9078  157.3071  133.6635 H   0  0  0  0  0  0  0  0  0  0  0  0
  142.1918  156.4090  135.1891 H   0  0  0  0  0  0  0  0  0  0  0  0
  143.4530  161.3680  133.0860 H   0  0  0  0  0  0  0  0  0  0  0  0
  143.5480  162.9360  133.9550 H   0  0  0  0  0  0  0  0  0  0  0  0
  148.0935  161.0567  133.6016 H   0  0  0  0  0  0  0  0  0  0  0  0
  149.6150  158.7546  132.8760 H   0  0  0  0  0  0  0  0  0  0  0  0
  149.4230  156.2873  132.4325 H   0  0  0  0  0  0  0  0  0  0  0  0
  146.6120  154.5180  131.7260 H   0  0  0  0  0  0  0  0  0  0  0  0
  150.2189  154.1724  133.4650 H   0  0  0  0  0  0  0  0  0  0  0  0
  149.9023  153.1953  131.9913 H   0  0  0  0  0  0  0  0  0  0  0  0
  149.5576  154.9582  131.9913 H   0  0  0  0  0  0  0  0  0  0  0  0
  147.8009  152.8379  135.0378 H   0  0  0  0  0  0  0  0  0  0  0  0
  149.1520  154.0205  134.9878 H   0  0  0  0  0  0  0  0  0  0  0  0
  147.4515  154.5991  134.9878 H   0  0  0  0  0  0  0  0  0  0  0  0
  148.2879  152.0835  131.7241 H   0  0  0  0  0  0  0  0  0  0  0  0
  147.8608  151.6308  133.4164 H   0  0  0  0  0  0  0  0  0  0  0  0
  146.1710  153.1780  131.7470 H   0  0  0  0  0  0  0  0  0  0  0  0
  145.1331  156.4833  133.1630 H   0  0  0  0  0  0  0  0  0  0  0  0
  1  2  1  0
  2  3  1  0
  3  4  1  0
  4  5  2  0
  4  6  1  0
  6  7  1  0
  7  8  1  0
  8  9  1  0
  9 10  1  0
 10 11  2  0
 10 12  1  0
 12 13  1  0
 13 14  1  0
 14 15  1  0
 14 16  2  0
 13 17  2  0
 17 18  1  0
 18 19  2  0
 19 20  1  0
 20 21  2  0
 21 22  1  0
 22 23  1  0
 23 24  1  0
 23 25  1  0
 23 26  1  0
 26 27  1  0
 21 28  1  0
 28 29  2  0
  7  2  2  0
 29 12  1  0
 29 18  1  0
  1 30  1  0
  1 31  1  0
  1 32  1  0
  8 33  1  0
  8 34  1  0
 15 35  1  0
 15 36  1  0
 17 37  1  0
 19 38  1  0
 20 39  1  0
 22 40  1  0
 24 41  1  0
 24 42  1  0
 24 43  1  0
 25 44  1  0
 25 45  1  0
 25 46  1  0
 26 47  1  0
 26 48  1  0
 27 49  1  0
 28 50  1  0
M  END
>  <UniqueID>  (57) 
56

>  <SMILES>  (57) 
Cc1oc(=O)oc1COC(=O)n1c(C(N)=O)cc2ccc(NC(C)(C)CO)cc21

>  <Energy>  (57) 
121.42033619527554

>  <Genealogy>  (57) 
Cc1oc(=O)oc1COC(=O)n1c(C(N)=O)cc2ccc(NC(C)(C)CO)cc21 (3D coordinates assigned)
Cc1oc(=O)oc1COC(=O)n1c(C(N)=O)cc2ccc(NC(C)(C)CO)cc21 (optimized conformer: 121.42033619527554 kcal/mol)

>  <smiles>  (57) 
Cc1oc(=O)oc1COC(=O)n1c(C(N)=O)cc2ccc(NC(C)(C)CO)cc21

>  <score_type>  (57) 
oracle

>  <origin>  (57) 
adg

>  <m_score__min__energy>  (57) 
-7.4900000000000002

>  <m_primary>  (57) 
energy

$$$$
57:0
     RDKit          3D

 31 32  0  0  0  0  0  0  0  0999 V2000
  147.8200  152.9460  133.7650 N   0  0  0  0  0  0  0  0  0  0  0  0
  148.4910  153.9180  132.9600 C   0  0  0  0  0  0  0  0  0  0  0  0
  149.4630  153.5560  132.2460 O   0  0  0  0  0  0  0  0  0  0  0  0
  148.0320  155.3250  132.9350 C   0  0  0  0  0  0  0  0  0  0  0  0
  148.8540  156.4040  132.6130 C   0  0  0  0  0  0  0  0  0  0  0  0
  148.0800  157.5230  132.8020 C   0  0  0  0  0  0  0  0  0  0  0  0
  148.3910  158.8680  132.6200 C   0  0  0  0  0  0  0  0  0  0  0  0
  147.3840  159.8160  132.8660 C   0  0  0  0  0  0  0  0  0  0  0  0
  146.0920  159.4080  133.2810 C   0  0  0  0  0  0  0  0  0  0  0  0
  145.0260  160.4370  133.5210 C   0  0  0  0  0  0  0  0  0  0  0  0
  145.5110  161.4200  134.3640 F   0  0  0  0  0  0  0  0  0  0  0  0
  143.9230  159.8400  134.1040 F   0  0  0  0  0  0  0  0  0  0  0  0
  145.8120  158.0330  133.4530 C   0  0  0  0  0  0  0  0  0  0  0  0
  146.8400  157.1110  133.2190 C   0  0  0  0  0  0  0  0  0  0  0  0
  146.7950  155.7630  133.3060 N   0  0  0  0  0  0  0  0  0  0  0  0
  145.6500  154.9670  133.6570 C   0  0  0  0  0  0  0  0  0  0  0  0
  145.3340  153.9710  132.9500 O   0  0  0  0  0  0  0  0  0  0  0  0
  144.8810  155.3110  134.7730 O   0  0  0  0  0  0  0  0  0  0  0  0
  144.9980  154.6440  136.0220 C   0  0  0  0  0  0  0  0  0  0  0  0
  146.3900  154.1300  136.1770 C   0  0  0  0  0  0  0  0  0  0  0  0
  146.5920  152.9910  136.6740 O   0  0  0  0  0  0  0  0  0  0  0  0
  147.4690  154.9290  135.8250 O   0  0  0  0  0  0  0  0  0  0  0  0
  147.0470  153.2170  134.4120 H   0  0  0  0  0  0  0  0  0  0  0  0
  148.1270  151.9490  133.7460 H   0  0  0  0  0  0  0  0  0  0  0  0
  149.9012  156.3671  132.2783 H   0  0  0  0  0  0  0  0  0  0  0  0
  149.3945  159.1787  132.2936 H   0  0  0  0  0  0  0  0  0  0  0  0
  147.6007  160.8865  132.7351 H   0  0  0  0  0  0  0  0  0  0  0  0
  144.7353  160.8854  132.5595 H   0  0  0  0  0  0  0  0  0  0  0  0
  144.8119  157.6957  133.7628 H   0  0  0  0  0  0  0  0  0  0  0  0
  144.7731  155.3477  136.8370 H   0  0  0  0  0  0  0  0  0  0  0  0
  144.2884  153.8043  136.0597 H   0  0  0  0  0  0  0  0  0  0  0  0
  1  2  1  0
  2  3  2  0
  2  4  1  0
  4  5  2  0
  5  6  1  0
  6  7  2  0
  7  8  1  0
  8  9  2  0
  9 10  1  0
 10 11  1  0
 10 12  1  0
  9 13  1  0
 13 14  2  0
 14 15  1  0
 15 16  1  0
 16 17  2  0
 16 18  1  0
 18 19  1  0
 19 20  1  0
 20 21  2  0
 20 22  1  0
 15  4  1  0
 14  6  1  0
  1 23  1  0
  1 24  1  0
  5 25  1  0
  7 26  1  0
  8 27  1  0
 10 28  1  0
 13 29  1  0
 19 30  1  0
 19 31  1  0
M  CHG  1  22  -1
M  END
>  <UniqueID>  (58) 
57

>  <SMILES>  (58) 
NC(=O)c1cc2ccc(C(F)F)cc2n1C(=O)OCC(=O)[O-]

>  <Energy>  (58) 
66.36447130822438

>  <Genealogy>  (58) 
NC(=O)c1cc2ccc(C(F)F)cc2n1C(=O)OCC(=O)[O-] (protonated)
NC(=O)c1cc2ccc(C(F)F)cc2n1C(=O)OCC(=O)[O-] (3D coordinates assigned)
NC(=O)c1cc2ccc(C(F)F)cc2n1C(=O)OCC(=O)[O-] (optimized conformer: 66.36447130822438 kcal/mol)

>  <smiles>  (58) 
NC(=O)c1cc2ccc(C(F)F)cc2n1C(=O)OCC(=O)O

>  <score_type>  (58) 
oracle

>  <origin>  (58) 
adg

>  <m_score__min__energy>  (58) 
-5.8399999999999999

>  <m_primary>  (58) 
energy

$$$$
58:0
     RDKit          3D

 47 49  0  0  0  0  0  0  0  0999 V2000
  140.2520  150.3550  137.0710 N   0  0  0  0  0  0  0  0  0  0  0  0
  140.9480  151.1120  138.0600 C   0  0  0  0  0  0  0  0  0  0  0  0
  141.4530  150.5150  139.0480 O   0  0  0  0  0  0  0  0  0  0  0  0
  141.0520  152.5820  137.9230 C   0  0  0  0  0  0  0  0  0  0  0  0
  140.6070  153.4770  138.8940 C   0  0  0  0  0  0  0  0  0  0  0  0
  140.8920  154.7270  138.3980 C   0  0  0  0  0  0  0  0  0  0  0  0
  140.6200  155.9840  138.9310 C   0  0  0  0  0  0  0  0  0  0  0  0
  140.9710  157.1110  138.1700 C   0  0  0  0  0  0  0  0  0  0  0  0
  141.5790  156.9640  136.8980 C   0  0  0  0  0  0  0  0  0  0  0  0
  141.9080  158.1820  136.0740 C   0  0  0  0  0  0  0  0  0  0  0  0
  140.9890  158.2920  134.8470 C   0  0  1  0  0  0  0  0  0  0  0  0
  141.7140  157.7770  133.5690 C   0  0  0  0  0  0  0  0  0  0  0  0
  141.1710  156.4800  133.1480 N   0  0  0  0  0  0  0  0  0  0  0  0
  139.7210  156.5660  132.8980 C   0  0  0  0  0  0  0  0  0  0  0  0
  139.0170  157.4640  133.9330 C   0  0  0  0  0  0  0  0  0  0  0  0
  139.7940  157.5680  135.1080 O   0  0  0  0  0  0  0  0  0  0  0  0
  141.8250  155.6720  136.3840 C   0  0  0  0  0  0  0  0  0  0  0  0
  141.4900  154.5660  137.1740 C   0  0  0  0  0  0  0  0  0  0  0  0
  141.6050  153.2530  136.8720 N   0  0  0  0  0  0  0  0  0  0  0  0
  142.1310  152.6970  135.6560 C   0  0  0  0  0  0  0  0  0  0  0  0
  141.4230  151.9080  134.9740 O   0  0  0  0  0  0  0  0  0  0  0  0
  143.5110  153.0480  135.1720 C   0  0  0  0  0  0  0  0  0  0  0  0
  143.6740  152.7950  133.6670 C   0  0  0  0  0  0  0  0  0  0  0  0
  143.0490  154.1530  132.6830 S   0  0  0  0  0  0  0  0  0  0  0  0
  143.4160  155.4590  133.3300 O   0  0  0  0  0  0  0  0  0  0  0  0
  143.6240  154.1070  131.2970 O   0  0  0  0  0  0  0  0  0  0  0  0
  141.3760  154.0340  132.5900 O   0  0  0  0  0  0  0  0  0  0  0  0
  140.6180  150.2820  136.0960 H   0  0  0  0  0  0  0  0  0  0  0  0
  140.1287  153.2345  139.8544 H   0  0  0  0  0  0  0  0  0  0  0  0
  140.1450  156.0911  139.9174 H   0  0  0  0  0  0  0  0  0  0  0  0
  140.7720  158.1181  138.5651 H   0  0  0  0  0  0  0  0  0  0  0  0
  141.7831  159.0801  136.6967 H   0  0  0  0  0  0  0  0  0  0  0  0
  142.9466  158.0929  135.7226 H   0  0  0  0  0  0  0  0  0  0  0  0
  140.7316  159.3451  134.6609 H   0  0  0  0  0  0  0  0  0  0  0  0
  141.5756  158.5064  132.7573 H   0  0  0  0  0  0  0  0  0  0  0  0
  142.7834  157.6544  133.7958 H   0  0  0  0  0  0  0  0  0  0  0  0
  141.3590  155.7680  133.8940 H   0  0  0  0  0  0  0  0  0  0  0  0
  141.6540  156.1730  132.2720 H   0  0  0  0  0  0  0  0  0  0  0  0
  139.5565  156.9831  131.8935 H   0  0  0  0  0  0  0  0  0  0  0  0
  139.2984  155.5536  132.9783 H   0  0  0  0  0  0  0  0  0  0  0  0
  138.8734  158.4667  133.5041 H   0  0  0  0  0  0  0  0  0  0  0  0
  138.0445  157.0177  134.1881 H   0  0  0  0  0  0  0  0  0  0  0  0
  142.2692  155.5378  135.3867 H   0  0  0  0  0  0  0  0  0  0  0  0
  143.6987  154.1126  135.3755 H   0  0  0  0  0  0  0  0  0  0  0  0
  144.2306  152.4084  135.7040 H   0  0  0  0  0  0  0  0  0  0  0  0
  144.7425  152.6582  133.4442 H   0  0  0  0  0  0  0  0  0  0  0  0
  143.0939  151.8963  133.4104 H   0  0  0  0  0  0  0  0  0  0  0  0
  1  2  1  0
  2  3  2  0
  2  4  1  0
  4  5  2  0
  5  6  1  0
  6  7  2  0
  7  8  1  0
  8  9  2  0
  9 10  1  0
 10 11  1  0
 11 12  1  0
 12 13  1  0
 13 14  1  0
 14 15  1  0
 15 16  1  0
  9 17  1  0
 17 18  2  0
 18 19  1  0
 19 20  1  0
 20 21  2  0
 20 22  1  0
 22 23  1  0
 23 24  1  0
 24 25  2  0
 24 26  2  0
 24 27  1  0
 19  4  1  0
 18  6  1  0
 16 11  1  0
  1 28  1  0
  5 29  1  0
  7 30  1  0
  8 31  1  0
 10 32  1  0
 10 33  1  0
 11 34  1  6
 12 35  1  0
 12 36  1  0
 13 37  1  0
 13 38  1  0
 14 39  1  0
 14 40  1  0
 15 41  1  0
 15 42  1  0
 17 43  1  0
 22 44  1  0
 22 45  1  0
 23 46  1  0
 23 47  1  0
M  CHG  3   1  -1  13   1  27  -1
M  END
>  <UniqueID>  (59) 
58

>  <SMILES>  (59) 
[NH-]C(=O)c1cc2ccc(C[C@H]3C[NH2+]CCO3)cc2n1C(=O)CCS(=O)(=O)[O-]

>  <Energy>  (59) 
87.74786092900112

>  <Genealogy>  (59) 
[NH-]C(=O)c1cc2ccc(CC3C[NH2+]CCO3)cc2n1C(=O)CCS(=O)(=O)[O-] (protonated)
[NH-]C(=O)c1cc2ccc(C[C@H]3C[NH2+]CCO3)cc2n1C(=O)CCS(=O)(=O)[O-] (chirality)
[NH-]C(=O)c1cc2ccc(C[C@H]3C[NH2+]CCO3)cc2n1C(=O)CCS(=O)(=O)[O-] (3D coordinates assigned)
[NH-]C(=O)c1cc2ccc(C[C@H]3C[NH2+]CCO3)cc2n1C(=O)CCS(=O)(=O)[O-] (nonaromatic ring conformer: 87.74786092900112 kcal/mol)

>  <smiles>  (59) 
NC(=O)c1cc2ccc(CC3CNCCO3)cc2n1C(=O)CCS(=O)(=O)O

>  <score_type>  (59) 
oracle

>  <origin>  (59) 
adg

>  <m_score__min__energy>  (59) 
-7

>  <m_primary>  (59) 
energy

$$$$
59:0
     RDKit          3D

 50 53  0  0  0  0  0  0  0  0999 V2000
  138.3400  160.3920  131.4920 N   0  0  0  0  0  0  0  0  0  0  0  0
  139.4840  160.1110  132.2970 C   0  0  0  0  0  0  0  0  0  0  0  0
  140.2440  161.0530  132.6390 O   0  0  0  0  0  0  0  0  0  0  0  0
  139.7810  158.7190  132.6910 C   0  0  0  0  0  0  0  0  0  0  0  0
  139.1000  157.6110  132.1890 C   0  0  0  0  0  0  0  0  0  0  0  0
  139.7120  156.5190  132.7580 C   0  0  0  0  0  0  0  0  0  0  0  0
  139.4390  155.1620  132.6120 C   0  0  0  0  0  0  0  0  0  0  0  0
  140.2230  154.2510  133.3410 C   0  0  0  0  0  0  0  0  0  0  0  0
  141.2420  154.7100  134.2130 C   0  0  0  0  0  0  0  0  0  0  0  0
  142.0850  153.7230  134.9790 C   0  0  0  0  0  0  0  0  0  0  0  0
  141.7800  152.3030  134.6040 C   0  0  0  0  0  0  0  0  0  0  0  0
  141.3350  151.4910  135.4620 O   0  0  0  0  0  0  0  0  0  0  0  0
  142.0680  151.8740  133.3040 O   0  0  0  0  0  0  0  0  0  0  0  0
  142.4460  150.5350  132.9850 C   0  0  0  0  0  0  0  0  0  0  0  0
  141.2040  149.6700  132.7430 C   0  0  0  0  0  0  0  0  0  0  0  0
  140.6010  149.9840  131.4290 N   0  0  0  0  0  0  0  0  0  0  0  0
  139.1610  150.2640  131.5410 C   0  0  0  0  0  0  0  0  0  0  0  0
  138.4020  148.9670  131.2960 C   0  0  0  0  0  0  0  0  0  0  0  0
  139.4110  148.0140  130.6850 C   0  0  0  0  0  0  0  0  0  0  0  0
  140.6800  148.8340  130.5160 C   0  0  0  0  0  0  0  0  0  0  0  0
  141.4930  156.0950  134.3310 C   0  0  0  0  0  0  0  0  0  0  0  0
  140.7160  156.9760  133.5720 C   0  0  0  0  0  0  0  0  0  0  0  0
  140.7760  158.3250  133.5350 N   0  0  0  0  0  0  0  0  0  0  0  0
  141.6700  159.1630  134.2850 C   0  0  0  0  0  0  0  0  0  0  0  0
  141.2610  159.7380  135.3280 O   0  0  0  0  0  0  0  0  0  0  0  0
  143.0580  159.3660  133.8430 C   0  0  0  0  0  0  0  0  0  0  0  0
  143.6960  158.5420  132.9870 N   0  0  0  0  0  0  0  0  0  0  0  0
  144.8800  159.0530  132.8540 O   0  0  0  0  0  0  0  0  0  0  0  0
  144.9680  160.1300  133.5910 C   0  0  0  0  0  0  0  0  0  0  0  0
  146.0000  160.8470  133.6620 O   0  0  0  0  0  0  0  0  0  0  0  0
  143.8320  160.3930  134.2590 N   0  0  0  0  0  0  0  0  0  0  0  0
  137.9140  161.3450  131.4780 H   0  0  0  0  0  0  0  0  0  0  0  0
  138.2531  157.6104  131.4870 H   0  0  0  0  0  0  0  0  0  0  0  0
  138.6350  154.8134  131.9471 H   0  0  0  0  0  0  0  0  0  0  0  0
  140.0440  153.1710  133.2337 H   0  0  0  0  0  0  0  0  0  0  0  0
  143.1456  153.9247  134.7680 H   0  0  0  0  0  0  0  0  0  0  0  0
  141.8582  153.8450  136.0484 H   0  0  0  0  0  0  0  0  0  0  0  0
  143.0660  150.5406  132.0764 H   0  0  0  0  0  0  0  0  0  0  0  0
  143.0134  150.1149  133.8285 H   0  0  0  0  0  0  0  0  0  0  0  0
  141.4924  148.6087  132.7645 H   0  0  0  0  0  0  0  0  0  0  0  0
  140.4662  149.8789  133.5317 H   0  0  0  0  0  0  0  0  0  0  0  0
  138.9330  150.6440  132.5478 H   0  0  0  0  0  0  0  0  0  0  0  0
  138.8636  151.0228  130.8023 H   0  0  0  0  0  0  0  0  0  0  0  0
  138.0166  148.5626  132.2436 H   0  0  0  0  0  0  0  0  0  0  0  0
  137.5354  149.1206  130.6362 H   0  0  0  0  0  0  0  0  0  0  0  0
  139.5897  147.1598  131.3546 H   0  0  0  0  0  0  0  0  0  0  0  0
  139.0588  147.5988  129.7292 H   0  0  0  0  0  0  0  0  0  0  0  0
  141.5578  148.2194  130.7644 H   0  0  0  0  0  0  0  0  0  0  0  0
  140.7782  149.1773  129.4756 H   0  0  0  0  0  0  0  0  0  0  0  0
  142.2791  156.4709  135.0024 H   0  0  0  0  0  0  0  0  0  0  0  0
  1  2  1  0
  2  3  2  0
  2  4  1  0
  4  5  2  0
  5  6  1  0
  6  7  2  0
  7  8  1  0
  8  9  2  0
  9 10  1  0
 10 11  1  0
 11 12  2  0
 11 13  1  0
 13 14  1  0
 14 15  1  0
 15 16  1  0
 16 17  1  0
 17 18  1  0
 18 19  1  0
 19 20  1  0
  9 21  1  0
 21 22  2  0
 22 23  1  0
 23 24  1  0
 24 25  2  0
 24 26  1  0
 26 27  2  0
 27 28  1  0
 28 29  1  0
 29 30  2  0
 29 31  1  0
 23  4  1  0
 31 26  1  0
 22  6  1  0
 20 16  1  0
  1 32  1  0
  5 33  1  0
  7 34  1  0
  8 35  1  0
 10 36  1  0
 10 37  1  0
 14 38  1  0
 14 39  1  0
 15 40  1  0
 15 41  1  0
 17 42  1  0
 17 43  1  0
 18 44  1  0
 18 45  1  0
 19 46  1  0
 19 47  1  0
 20 48  1  0
 20 49  1  0
 21 50  1  0
M  CHG  2   1  -1  31  -1
M  END
>  <UniqueID>  (60) 
59

>  <SMILES>  (60) 
[NH-]C(=O)c1cc2ccc(CC(=O)OCCN3CCCC3)cc2n1C(=O)c1noc(=O)[n-]1

>  <Energy>  (60) 
124.95913151588897

>  <Genealogy>  (60) 
[NH-]C(=O)c1cc2ccc(CC(=O)OCCN3CCCC3)cc2n1C(=O)c1noc(=O)[n-]1 (protonated)
[NH-]C(=O)c1cc2ccc(CC(=O)OCCN3CCCC3)cc2n1C(=O)c1noc(=O)[n-]1 (3D coordinates assigned)
[NH-]C(=O)c1cc2ccc(CC(=O)OCCN3CCCC3)cc2n1C(=O)c1noc(=O)[n-]1 (nonaromatic ring conformer: 124.95913151588897 kcal/mol)

>  <smiles>  (60) 
NC(=O)c1cc2ccc(CC(=O)OCCN3CCCC3)cc2n1C(=O)c1noc(=O)[nH]1

>  <score_type>  (60) 
oracle

>  <origin>  (60) 
adg

>  <m_score__min__energy>  (60) 
-9.3599999999999994

>  <m_primary>  (60) 
energy

$$$$
60:0
     RDKit          3D

 43 44  0  0  0  0  0  0  0  0999 V2000
  139.1100  146.6070  129.8410 C   0  0  0  0  0  0  0  0  0  0  0  0
  138.4470  147.8970  129.9590 N   0  0  0  0  0  0  0  0  0  0  0  0
  139.1030  149.0620  130.4670 C   0  0  0  0  0  0  0  0  0  0  0  0
  139.6160  149.9010  129.6780 O   0  0  0  0  0  0  0  0  0  0  0  0
  139.1380  149.3080  131.9430 C   0  0  0  0  0  0  0  0  0  0  0  0
  140.3220  150.1640  132.3010 C   0  0  0  0  0  0  0  0  0  0  0  0
  141.6170  149.5960  132.3900 C   0  0  0  0  0  0  0  0  0  0  0  0
  142.7270  150.3910  132.7250 C   0  0  0  0  0  0  0  0  0  0  0  0
  142.5130  151.7500  132.9430 C   0  0  0  0  0  0  0  0  0  0  0  0
  143.4040  152.7430  133.2810 C   0  0  0  0  0  0  0  0  0  0  0  0
  142.6470  153.9120  133.3470 C   0  0  0  0  0  0  0  0  0  0  0  0
  143.2400  155.2470  133.5740 C   0  0  0  0  0  0  0  0  0  0  0  0
  142.8230  156.0580  134.6680 N   0  0  0  0  0  0  0  0  0  0  0  0
  144.0880  155.6990  132.7590 O   0  0  0  0  0  0  0  0  0  0  0  0
  141.3360  153.6480  133.0770 N   0  0  0  0  0  0  0  0  0  0  0  0
  140.2300  154.5650  133.0630 C   0  0  0  0  0  0  0  0  0  0  0  0
  139.0480  154.1330  132.9730 O   0  0  0  0  0  0  0  0  0  0  0  0
  140.4780  155.9370  133.1260 O   0  0  0  0  0  0  0  0  0  0  0  0
  139.4830  156.9260  132.8990 C   0  0  0  0  0  0  0  0  0  0  0  0
  140.1300  158.3090  132.8880 C   0  0  0  0  0  0  0  0  0  0  0  0
  139.3640  159.3990  131.6920 S   0  0  0  0  0  0  0  0  0  0  0  0
  137.6510  158.9810  131.4330 C   0  0  0  0  0  0  0  0  0  0  0  0
  140.0990  159.3080  130.3840 O   0  0  0  0  0  0  0  0  0  0  0  0
  139.4480  160.8090  132.2020 O   0  0  0  0  0  0  0  0  0  0  0  0
  141.2730  152.3220  132.8290 C   0  0  0  0  0  0  0  0  0  0  0  0
  140.1470  151.5470  132.5240 C   0  0  0  0  0  0  0  0  0  0  0  0
  139.3155  146.2072  130.8449 H   0  0  0  0  0  0  0  0  0  0  0  0
  138.4590  145.9088  129.2944 H   0  0  0  0  0  0  0  0  0  0  0  0
  140.0567  146.7299  129.2944 H   0  0  0  0  0  0  0  0  0  0  0  0
  138.2138  149.8210  132.2475 H   0  0  0  0  0  0  0  0  0  0  0  0
  139.2226  148.3434  132.4649 H   0  0  0  0  0  0  0  0  0  0  0  0
  141.7552  148.5223  132.1950 H   0  0  0  0  0  0  0  0  0  0  0  0
  143.7326  149.9537  132.8122 H   0  0  0  0  0  0  0  0  0  0  0  0
  144.4840  152.6369  133.4609 H   0  0  0  0  0  0  0  0  0  0  0  0
  141.8300  156.3660  134.7600 H   0  0  0  0  0  0  0  0  0  0  0  0
  138.9973  156.7411  131.9295 H   0  0  0  0  0  0  0  0  0  0  0  0
  138.7319  156.8800  133.7013 H   0  0  0  0  0  0  0  0  0  0  0  0
  140.0318  158.7549  133.8888 H   0  0  0  0  0  0  0  0  0  0  0  0
  141.1869  158.1872  132.6084 H   0  0  0  0  0  0  0  0  0  0  0  0
  137.1521  158.8593  132.4058 H   0  0  0  0  0  0  0  0  0  0  0  0
  137.1589  159.7854  130.8667 H   0  0  0  0  0  0  0  0  0  0  0  0
  137.5847  158.0403  130.8667 H   0  0  0  0  0  0  0  0  0  0  0  0
  139.1491  152.0054  132.4597 H   0  0  0  0  0  0  0  0  0  0  0  0
  1  2  1  0
  2  3  1  0
  3  4  2  0
  3  5  1  0
  5  6  1  0
  6  7  2  0
  7  8  1  0
  8  9  2  0
  9 10  1  0
 10 11  2  0
 11 12  1  0
 12 13  1  0
 12 14  2  0
 11 15  1  0
 15 16  1  0
 16 17  2  0
 16 18  1  0
 18 19  1  0
 19 20  1  0
 20 21  1  0
 21 22  1  0
 21 23  2  0
 21 24  2  0
 15 25  1  0
 25 26  2  0
 26  6  1  0
 25  9  1  0
  1 27  1  0
  1 28  1  0
  1 29  1  0
  5 30  1  0
  5 31  1  0
  7 32  1  0
  8 33  1  0
 10 34  1  0
 13 35  1  0
 19 36  1  0
 19 37  1  0
 20 38  1  0
 20 39  1  0
 22 40  1  0
 22 41  1  0
 22 42  1  0
 26 43  1  0
M  CHG  2   2  -1  13  -1
M  END
>  <UniqueID>  (61) 
60

>  <SMILES>  (61) 
C[N-]C(=O)Cc1ccc2cc(C([NH-])=O)n(C(=O)OCCS(C)(=O)=O)c2c1

>  <Energy>  (61) 
63.63395410983712

>  <Genealogy>  (61) 
C[N-]C(=O)Cc1ccc2cc(C([NH-])=O)n(C(=O)OCCS(C)(=O)=O)c2c1 (protonated)
C[N-]C(=O)Cc1ccc2cc(C([NH-])=O)n(C(=O)OCCS(C)(=O)=O)c2c1 (3D coordinates assigned)
C[N-]C(=O)Cc1ccc2cc(C([NH-])=O)n(C(=O)OCCS(C)(=O)=O)c2c1 (optimized conformer: 63.63395410983712 kcal/mol)

>  <smiles>  (61) 
CNC(=O)Cc1ccc2cc(C(N)=O)n(C(=O)OCCS(C)(=O)=O)c2c1

>  <score_type>  (61) 
oracle

>  <origin>  (61) 
adg

>  <m_score__min__energy>  (61) 
-7.4100000000000001

>  <m_primary>  (61) 
energy

$$$$
61:0
     RDKit          3D

 33 35  0  0  0  0  0  0  0  0999 V2000
  143.6990  153.3540  139.1580 N   0  0  0  0  0  0  0  0  0  0  0  0
  142.8140  154.0900  138.3180 C   0  0  0  0  0  0  0  0  0  0  0  0
  142.3540  155.1910  138.7210 O   0  0  0  0  0  0  0  0  0  0  0  0
  142.4770  153.6090  136.9620 C   0  0  0  0  0  0  0  0  0  0  0  0
  142.8450  154.2800  135.7990 C   0  0  0  0  0  0  0  0  0  0  0  0
  142.4320  153.4720  134.7650 C   0  0  0  0  0  0  0  0  0  0  0  0
  142.5330  153.6580  133.3900 C   0  0  0  0  0  0  0  0  0  0  0  0
  141.9910  152.6710  132.5500 C   0  0  0  0  0  0  0  0  0  0  0  0
  141.3570  151.5250  133.0940 C   0  0  0  0  0  0  0  0  0  0  0  0
  140.7690  150.4990  132.1990 C   0  0  0  0  0  0  0  0  0  0  0  0
  139.4040  150.5520  131.8720 C   0  0  0  0  0  0  0  0  0  0  0  0
  138.8370  149.5950  131.0260 C   0  0  0  0  0  0  0  0  0  0  0  0
  139.6250  148.5600  130.4930 C   0  0  0  0  0  0  0  0  0  0  0  0
  139.0290  147.5430  129.5970 C   0  0  0  0  0  0  0  0  0  0  0  0
  138.6420  147.8570  128.4400 O   0  0  0  0  0  0  0  0  0  0  0  0
  138.8860  146.2270  130.0210 O   0  0  0  0  0  0  0  0  0  0  0  0
  140.9880  148.5020  130.8250 C   0  0  0  0  0  0  0  0  0  0  0  0
  141.5570  149.4590  131.6710 C   0  0  0  0  0  0  0  0  0  0  0  0
  142.8690  149.3460  131.9990 F   0  0  0  0  0  0  0  0  0  0  0  0
  141.2690  151.3760  134.4980 C   0  0  0  0  0  0  0  0  0  0  0  0
  141.8340  152.3660  135.3100 C   0  0  0  0  0  0  0  0  0  0  0  0
  141.8510  152.4350  136.6600 N   0  0  0  0  0  0  0  0  0  0  0  0
  141.2380  151.5080  137.5710 C   0  0  0  0  0  0  0  0  0  0  0  0
  141.6360  151.4280  138.7620 O   0  0  0  0  0  0  0  0  0  0  0  0
  140.2160  150.6720  137.1370 O   0  0  0  0  0  0  0  0  0  0  0  0
  143.4950  152.3640  139.4170 H   0  0  0  0  0  0  0  0  0  0  0  0
  143.3573  155.2504  135.7230 H   0  0  0  0  0  0  0  0  0  0  0  0
  143.0223  154.5507  132.9732 H   0  0  0  0  0  0  0  0  0  0  0  0
  142.0591  152.7883  131.4584 H   0  0  0  0  0  0  0  0  0  0  0  0
  138.7754  151.3543  132.2857 H   0  0  0  0  0  0  0  0  0  0  0  0
  137.7674  149.6520  130.7756 H   0  0  0  0  0  0  0  0  0  0  0  0
  141.6144  147.6958  130.4156 H   0  0  0  0  0  0  0  0  0  0  0  0
  140.7683  150.5026  134.9411 H   0  0  0  0  0  0  0  0  0  0  0  0
  1  2  1  0
  2  3  2  0
  2  4  1  0
  4  5  2  0
  5  6  1  0
  6  7  2  0
  7  8  1  0
  8  9  2  0
  9 10  1  0
 10 11  2  0
 11 12  1  0
 12 13  2  0
 13 14  1  0
 14 15  2  0
 14 16  1  0
 13 17  1  0
 17 18  2  0
 18 19  1  0
  9 20  1  0
 20 21  2  0
 21 22  1  0
 22 23  1  0
 23 24  2  0
 23 25  1  0
 22  4  1  0
 21  6  1  0
 18 10  1  0
  1 26  1  0
  5 27  1  0
  7 28  1  0
  8 29  1  0
 11 30  1  0
 12 31  1  0
 17 32  1  0
 20 33  1  0
M  CHG  3   1  -1  16  -1  25  -1
M  END
>  <UniqueID>  (62) 
61

>  <SMILES>  (62) 
[NH-]C(=O)c1cc2ccc(-c3ccc(C(=O)[O-])cc3F)cc2n1C(=O)[O-]

>  <Energy>  (62) 
82.90444065661693

>  <Genealogy>  (62) 
[NH-]C(=O)c1cc2ccc(-c3ccc(C(=O)[O-])cc3F)cc2n1C(=O)[O-] (protonated)
[NH-]C(=O)c1cc2ccc(-c3ccc(C(=O)[O-])cc3F)cc2n1C(=O)[O-] (3D coordinates assigned)
[NH-]C(=O)c1cc2ccc(-c3ccc(C(=O)[O-])cc3F)cc2n1C(=O)[O-] (optimized conformer: 82.90444065661693 kcal/mol)

>  <smiles>  (62) 
NC(=O)c1cc2ccc(-c3ccc(C(=O)O)cc3F)cc2n1C(=O)O

>  <score_type>  (62) 
oracle

>  <origin>  (62) 
adg

>  <m_score__min__energy>  (62) 
-7.7699999999999996

>  <m_primary>  (62) 
energy

$$$$
62:0
     RDKit          3D

 47 48  0  0  0  0  0  0  0  0999 V2000
  148.9140  154.1340  132.5830 C   0  0  0  0  0  0  0  0  0  0  0  0
  148.0250  155.0480  132.9820 C   0  0  0  0  0  0  0  0  0  0  0  0
  147.2960  154.9190  134.2840 C   0  0  0  0  0  0  0  0  0  0  0  0
  146.6040  156.1300  134.5660 O   0  0  0  0  0  0  0  0  0  0  0  0
  145.5650  156.6150  133.7630 C   0  0  0  0  0  0  0  0  0  0  0  0
  144.8950  155.8230  133.0470 O   0  0  0  0  0  0  0  0  0  0  0  0
  145.2600  158.0200  133.7660 N   0  0  0  0  0  0  0  0  0  0  0  0
  146.0870  159.0440  133.4110 C   0  0  0  0  0  0  0  0  0  0  0  0
  147.5360  158.9360  133.1450 C   0  0  0  0  0  0  0  0  0  0  0  0
  148.3850  158.1430  133.9760 N   0  0  0  0  0  0  0  0  0  0  0  0
  148.0420  159.5930  132.1980 O   0  0  0  0  0  0  0  0  0  0  0  0
  145.3890  160.2480  133.3630 C   0  0  0  0  0  0  0  0  0  0  0  0
  144.0970  159.9330  133.7150 C   0  0  0  0  0  0  0  0  0  0  0  0
  142.9670  160.7440  133.7910 C   0  0  0  0  0  0  0  0  0  0  0  0
  141.7410  160.1400  134.1190 C   0  0  0  0  0  0  0  0  0  0  0  0
  141.6680  158.7470  134.3690 C   0  0  0  0  0  0  0  0  0  0  0  0
  140.3430  158.0940  134.6520 C   0  0  0  0  0  0  0  0  0  0  0  0
  139.6440  157.7940  133.3650 C   0  0  0  0  0  0  0  0  0  0  0  0
  138.7070  156.9480  133.3400 O   0  0  0  0  0  0  0  0  0  0  0  0
  140.0040  158.5170  132.1850 N   0  0  0  0  0  0  0  0  0  0  0  0
  139.1040  159.4230  131.4730 C   0  0  2  0  0  0  0  0  0  0  0  0
  139.4080  160.8700  131.8570 C   0  0  0  0  0  0  0  0  0  0  0  0
  137.7060  159.1150  131.8160 N   0  0  0  0  0  0  0  0  0  0  0  0
  136.7780  159.6510  130.8150 C   0  0  0  0  0  0  0  0  0  0  0  0
  142.8360  157.9560  134.2810 C   0  0  0  0  0  0  0  0  0  0  0  0
  144.0450  158.5840  133.9570 C   0  0  0  0  0  0  0  0  0  0  0  0
  149.4340  154.2557  131.6213 H   0  0  0  0  0  0  0  0  0  0  0  0
  149.1259  153.2598  133.2161 H   0  0  0  0  0  0  0  0  0  0  0  0
  147.8234  155.9169  132.3383 H   0  0  0  0  0  0  0  0  0  0  0  0
  146.5741  154.0916  134.2189 H   0  0  0  0  0  0  0  0  0  0  0  0
  148.0183  154.7153  135.0883 H   0  0  0  0  0  0  0  0  0  0  0  0
  149.3970  158.0340  133.7360 H   0  0  0  0  0  0  0  0  0  0  0  0
  148.0270  157.7110  134.8570 H   0  0  0  0  0  0  0  0  0  0  0  0
  145.7861  161.2395  133.0998 H   0  0  0  0  0  0  0  0  0  0  0  0
  143.0322  161.8253  133.5999 H   0  0  0  0  0  0  0  0  0  0  0  0
  140.8304  160.7538  134.1822 H   0  0  0  0  0  0  0  0  0  0  0  0
  140.5076  157.1578  135.2056 H   0  0  0  0  0  0  0  0  0  0  0  0
  139.7225  158.7746  135.2535 H   0  0  0  0  0  0  0  0  0  0  0  0
  139.2545  159.2912  130.3913 H   0  0  0  0  0  0  0  0  0  0  0  0
  139.4274  160.9622  132.9530 H   0  0  0  0  0  0  0  0  0  0  0  0
  140.3867  161.1602  131.4473 H   0  0  0  0  0  0  0  0  0  0  0  0
  138.6288  161.5295  131.4473 H   0  0  0  0  0  0  0  0  0  0  0  0
  137.5800  158.0740  131.8450 H   0  0  0  0  0  0  0  0  0  0  0  0
  135.9330  160.1391  131.3226 H   0  0  0  0  0  0  0  0  0  0  0  0
  137.3017  160.3857  130.1858 H   0  0  0  0  0  0  0  0  0  0  0  0
  136.4033  158.8303  130.1858 H   0  0  0  0  0  0  0  0  0  0  0  0
  142.7963  156.8719  134.4629 H   0  0  0  0  0  0  0  0  0  0  0  0
  1  2  2  0
  2  3  1  0
  3  4  1  0
  4  5  1  0
  5  6  2  0
  5  7  1  0
  7  8  1  0
  8  9  1  0
  9 10  1  0
  9 11  2  0
  8 12  2  0
 12 13  1  0
 13 14  2  0
 14 15  1  0
 15 16  2  0
 16 17  1  0
 17 18  1  0
 18 19  2  0
 18 20  1  0
 20 21  1  0
 21 22  1  0
 21 23  1  0
 23 24  1  0
 16 25  1  0
 25 26  2  0
 26  7  1  0
 26 13  1  0
  1 27  1  0
  1 28  1  0
  2 29  1  0
  3 30  1  0
  3 31  1  0
 10 32  1  0
 10 33  1  0
 12 34  1  0
 14 35  1  0
 15 36  1  0
 17 37  1  0
 17 38  1  0
 21 39  1  6
 22 40  1  0
 22 41  1  0
 22 42  1  0
 23 43  1  0
 24 44  1  0
 24 45  1  0
 24 46  1  0
 25 47  1  0
M  CHG  1  20  -1
M  END
>  <UniqueID>  (63) 
62

>  <SMILES>  (63) 
C=CCOC(=O)n1c(C(N)=O)cc2ccc(CC(=O)[N-][C@H](C)NC)cc21

>  <Energy>  (63) 
72.70888070303633

>  <Genealogy>  (63) 
C=CCOC(=O)n1c(C(N)=O)cc2ccc(CC(=O)[N-]C(C)NC)cc21 (protonated)
C=CCOC(=O)n1c(C(N)=O)cc2ccc(CC(=O)[N-][C@H](C)NC)cc21 (chirality)
C=CCOC(=O)n1c(C(N)=O)cc2ccc(CC(=O)[N-][C@H](C)NC)cc21 (3D coordinates assigned)
C=CCOC(=O)n1c(C(N)=O)cc2ccc(CC(=O)[N-][C@H](C)NC)cc21 (optimized conformer: 72.70888070303633 kcal/mol)

>  <smiles>  (63) 
C=CCOC(=O)n1c(C(N)=O)cc2ccc(CC(=O)NC(C)NC)cc21

>  <score_type>  (63) 
oracle

>  <origin>  (63) 
adg

>  <m_score__min__energy>  (63) 
-7.7199999999999998

>  <m_primary>  (63) 
energy

$$$$
63:0
     RDKit          3D

 44 46  0  0  0  0  0  0  0  0999 V2000
  149.2760  150.1900  135.9600 N   0  0  0  0  0  0  0  0  0  0  0  0
  149.7480  150.9170  134.8240 C   0  0  0  0  0  0  0  0  0  0  0  0
  150.6420  150.4110  134.0950 O   0  0  0  0  0  0  0  0  0  0  0  0
  149.1610  152.2200  134.4530 C   0  0  0  0  0  0  0  0  0  0  0  0
  149.1620  152.7160  133.1530 C   0  0  0  0  0  0  0  0  0  0  0  0
  148.4770  153.9070  133.2190 C   0  0  0  0  0  0  0  0  0  0  0  0
  148.1970  154.8320  132.2170 C   0  0  0  0  0  0  0  0  0  0  0  0
  147.5100  156.0030  132.5750 C   0  0  0  0  0  0  0  0  0  0  0  0
  147.1230  156.2300  133.9190 C   0  0  0  0  0  0  0  0  0  0  0  0
  146.4350  157.5160  134.2970 C   0  0  0  0  0  0  0  0  0  0  0  0
  146.3810  158.5060  133.1240 C   0  0  0  0  0  0  0  0  0  0  0  0
  147.2860  159.7370  133.3590 C   0  0  0  0  0  0  0  0  0  0  0  0
  148.2870  159.9750  132.2970 N   0  0  0  0  0  0  0  0  0  0  0  0
  149.2050  158.8470  132.0680 C   0  0  0  0  0  0  0  0  0  0  0  0
  150.3410  159.2880  131.1200 C   0  0  0  0  0  0  0  0  0  0  0  0
  150.0640  160.5190  130.4690 O   0  0  0  0  0  0  0  0  0  0  0  0
  148.7630  160.4960  129.9160 C   0  0  0  0  0  0  0  0  0  0  0  0
  147.7010  160.4610  131.0320 C   0  0  0  0  0  0  0  0  0  0  0  0
  147.4310  155.2710  134.9110 C   0  0  0  0  0  0  0  0  0  0  0  0
  148.0970  154.1020  134.5220 C   0  0  0  0  0  0  0  0  0  0  0  0
  148.5120  153.0730  135.2950 N   0  0  0  0  0  0  0  0  0  0  0  0
  148.3980  152.9720  136.7250 C   0  0  0  0  0  0  0  0  0  0  0  0
  147.4700  152.2940  137.2420 O   0  0  0  0  0  0  0  0  0  0  0  0
  149.3070  153.6170  137.5530 O   0  0  0  0  0  0  0  0  0  0  0  0
  148.4250  150.4960  136.4810 H   0  0  0  0  0  0  0  0  0  0  0  0
  149.7300  149.2900  136.2310 H   0  0  0  0  0  0  0  0  0  0  0  0
  149.6140  152.2543  132.2627 H   0  0  0  0  0  0  0  0  0  0  0  0
  148.5046  154.6510  131.1765 H   0  0  0  0  0  0  0  0  0  0  0  0
  147.2700  156.7510  131.8050 H   0  0  0  0  0  0  0  0  0  0  0  0
  145.4075  157.2883  134.6171 H   0  0  0  0  0  0  0  0  0  0  0  0
  147.0106  157.9832  135.1096 H   0  0  0  0  0  0  0  0  0  0  0  0
  146.7127  157.9914  132.2101 H   0  0  0  0  0  0  0  0  0  0  0  0
  145.3444  158.8613  133.0285 H   0  0  0  0  0  0  0  0  0  0  0  0
  146.6434  160.6269  133.4309 H   0  0  0  0  0  0  0  0  0  0  0  0
  147.8508  159.5380  134.2817 H   0  0  0  0  0  0  0  0  0  0  0  0
  149.6340  158.5235  133.0278 H   0  0  0  0  0  0  0  0  0  0  0  0
  148.6519  158.0126  131.6120 H   0  0  0  0  0  0  0  0  0  0  0  0
  151.2651  159.3999  131.7061 H   0  0  0  0  0  0  0  0  0  0  0  0
  150.4436  158.5165  130.3426 H   0  0  0  0  0  0  0  0  0  0  0  0
  148.6144  161.3975  129.3034 H   0  0  0  0  0  0  0  0  0  0  0  0
  148.6566  159.5935  129.2961 H   0  0  0  0  0  0  0  0  0  0  0  0
  147.3042  161.4756  131.1845 H   0  0  0  0  0  0  0  0  0  0  0  0
  146.8946  159.7763  130.7305 H   0  0  0  0  0  0  0  0  0  0  0  0
  147.1544  155.4388  135.9623 H   0  0  0  0  0  0  0  0  0  0  0  0
  1  2  1  0
  2  3  2  0
  2  4  1  0
  4  5  2  0
  5  6  1  0
  6  7  2  0
  7  8  1  0
  8  9  2  0
  9 10  1  0
 10 11  1  0
 11 12  1  0
 12 13  1  0
 13 14  1  0
 14 15  1  0
 15 16  1  0
 16 17  1  0
 17 18  1  0
  9 19  1  0
 19 20  2  0
 20 21  1  0
 21 22  1  0
 22 23  2  0
 22 24  1  0
 21  4  1  0
 20  6  1  0
 18 13  1  0
  1 25  1  0
  1 26  1  0
  5 27  1  0
  7 28  1  0
  8 29  1  0
 10 30  1  0
 10 31  1  0
 11 32  1  0
 11 33  1  0
 12 34  1  0
 12 35  1  0
 14 36  1  0
 14 37  1  0
 15 38  1  0
 15 39  1  0
 17 40  1  0
 17 41  1  0
 18 42  1  0
 18 43  1  0
 19 44  1  0
M  CHG  1  24  -1
M  END
>  <UniqueID>  (64) 
63

>  <SMILES>  (64) 
NC(=O)c1cc2ccc(CCCN3CCOCC3)cc2n1C(=O)[O-]

>  <Energy>  (64) 
94.05561205638833

>  <Genealogy>  (64) 
NC(=O)c1cc2ccc(CCCN3CCOCC3)cc2n1C(=O)[O-] (protonated)
NC(=O)c1cc2ccc(CCCN3CCOCC3)cc2n1C(=O)[O-] (3D coordinates assigned)
NC(=O)c1cc2ccc(CCCN3CCOCC3)cc2n1C(=O)[O-] (nonaromatic ring conformer: 94.05561205638833 kcal/mol)

>  <smiles>  (64) 
NC(=O)c1cc2ccc(CCCN3CCOCC3)cc2n1C(=O)O

>  <score_type>  (64) 
oracle

>  <origin>  (64) 
adg

>  <m_score__min__energy>  (64) 
-7.6399999999999997

>  <m_primary>  (64) 
energy

$$$$
64:0
     RDKit          3D

 46 48  0  0  0  0  0  0  0  0999 V2000
  147.5150  155.3880  134.3110 C   0  0  0  0  0  0  0  0  0  0  0  0
  146.4150  155.4460  133.2740 C   0  0  0  0  0  0  0  0  0  0  0  0
  145.1300  155.3670  133.8870 O   0  0  0  0  0  0  0  0  0  0  0  0
  143.9930  155.1080  133.1800 C   0  0  0  0  0  0  0  0  0  0  0  0
  143.9850  154.9410  131.9350 O   0  0  0  0  0  0  0  0  0  0  0  0
  142.6760  155.0060  133.8340 N   0  0  0  0  0  0  0  0  0  0  0  0
  142.5510  153.8170  134.6090 C   0  0  0  0  0  0  0  0  0  0  0  0
  141.8160  156.0600  133.5990 C   0  0  0  0  0  0  0  0  0  0  0  0
  140.7060  155.6680  132.9920 O   0  0  0  0  0  0  0  0  0  0  0  0
  141.8020  157.4370  133.8400 N   0  0  0  0  0  0  0  0  0  0  0  0
  140.6390  158.1230  134.0540 C   0  0  0  0  0  0  0  0  0  0  0  0
  139.2750  157.7040  134.2930 C   0  0  0  0  0  0  0  0  0  0  0  0
  138.3850  157.1050  133.3700 N   0  0  0  0  0  0  0  0  0  0  0  0
  138.7460  157.8600  135.4700 O   0  0  0  0  0  0  0  0  0  0  0  0
  140.9550  159.4990  134.1230 C   0  0  0  0  0  0  0  0  0  0  0  0
  142.2920  159.6390  133.9540 C   0  0  0  0  0  0  0  0  0  0  0  0
  143.0660  160.7790  133.9170 C   0  0  0  0  0  0  0  0  0  0  0  0
  144.4170  160.7040  133.6970 C   0  0  0  0  0  0  0  0  0  0  0  0
  144.9560  159.4500  133.5150 C   0  0  0  0  0  0  0  0  0  0  0  0
  146.3990  159.2660  133.2690 C   0  0  0  0  0  0  0  0  0  0  0  0
  147.0860  159.8890  132.2520 C   0  0  0  0  0  0  0  0  0  0  0  0
  148.3900  159.4510  132.3720 C   0  0  0  0  0  0  0  0  0  0  0  0
  149.5230  159.8190  131.5320 C   0  0  0  0  0  0  0  0  0  0  0  0
  150.3860  158.9760  131.2290 O   0  0  0  0  0  0  0  0  0  0  0  0
  149.6340  161.1190  131.0660 O   0  0  0  0  0  0  0  0  0  0  0  0
  148.4720  158.5970  133.4290 N   0  0  0  0  0  0  0  0  0  0  0  0
  147.2640  158.4940  133.9620 N   0  0  0  0  0  0  0  0  0  0  0  0
  144.1600  158.3120  133.5570 C   0  0  0  0  0  0  0  0  0  0  0  0
  142.7980  158.3620  133.7800 C   0  0  0  0  0  0  0  0  0  0  0  0
  147.0717  155.4114  135.3175 H   0  0  0  0  0  0  0  0  0  0  0  0
  148.0893  154.4583  134.1848 H   0  0  0  0  0  0  0  0  0  0  0  0
  148.1838  156.2521  134.1848 H   0  0  0  0  0  0  0  0  0  0  0  0
  146.4919  156.3936  132.7207 H   0  0  0  0  0  0  0  0  0  0  0  0
  146.5310  154.5908  132.5919 H   0  0  0  0  0  0  0  0  0  0  0  0
  142.5778  154.0720  135.6787 H   0  0  0  0  0  0  0  0  0  0  0  0
  141.5961  153.3244  134.3733 H   0  0  0  0  0  0  0  0  0  0  0  0
  143.3826  153.1366  134.3733 H   0  0  0  0  0  0  0  0  0  0  0  0
  137.4130  157.4930  133.1700 H   0  0  0  0  0  0  0  0  0  0  0  0
  138.6270  156.2250  132.8230 H   0  0  0  0  0  0  0  0  0  0  0  0
  140.2377  160.3168  134.2861 H   0  0  0  0  0  0  0  0  0  0  0  0
  142.5937  161.7612  134.0659 H   0  0  0  0  0  0  0  0  0  0  0  0
  145.0440  161.6073  133.6671 H   0  0  0  0  0  0  0  0  0  0  0  0
  146.6824  160.5868  131.5035 H   0  0  0  0  0  0  0  0  0  0  0  0
  150.5380  161.5550  130.8650 H   0  0  0  0  0  0  0  0  0  0  0  0
  149.3110  158.0910  133.7930 H   0  0  0  0  0  0  0  0  0  0  0  0
  144.6341  157.3309  133.4065 H   0  0  0  0  0  0  0  0  0  0  0  0
  1  2  1  0
  2  3  1  0
  3  4  1  0
  4  5  2  0
  4  6  1  0
  6  7  1  0
  6  8  1  0
  8  9  2  0
  8 10  1  0
 10 11  1  0
 11 12  1  0
 12 13  1  0
 12 14  2  0
 11 15  2  0
 15 16  1  0
 16 17  2  0
 17 18  1  0
 18 19  2  0
 19 20  1  0
 20 21  1  0
 21 22  2  0
 22 23  1  0
 23 24  2  0
 23 25  1  0
 22 26  1  0
 26 27  1  0
 19 28  1  0
 28 29  2  0
 29 10  1  0
 29 16  1  0
 27 20  2  0
  1 30  1  0
  1 31  1  0
  1 32  1  0
  2 33  1  0
  2 34  1  0
  7 35  1  0
  7 36  1  0
  7 37  1  0
 13 38  1  0
 13 39  1  0
 15 40  1  0
 17 41  1  0
 18 42  1  0
 21 43  1  0
 25 44  1  0
 26 45  1  0
 28 46  1  0
M  END
>  <smiles>  (65) 
CCOC(=O)N(C)C(=O)n1c(C(N)=O)cc2ccc(-c3cc(C(=O)O)[nH]n3)cc21

>  <score_type>  (65) 
oracle

>  <origin>  (65) 
adg

>  <m_score__min__energy>  (65) 
-8.3900000000000006

>  <m_primary>  (65) 
energy

$$$$
65:0
     RDKit          3D

 55 57  0  0  0  0  0  0  0  0999 V2000
  139.4890  149.9040  132.1730 C   0  0  0  0  0  0  0  0  0  0  0  0
  140.9060  149.8360  132.7290 C   0  0  0  0  0  0  0  0  0  0  0  0
  140.9940  150.5280  133.9720 O   0  0  0  0  0  0  0  0  0  0  0  0
  141.3680  151.8730  134.0780 C   0  0  0  0  0  0  0  0  0  0  0  0
  141.6810  152.3710  135.1920 O   0  0  0  0  0  0  0  0  0  0  0  0
  141.4130  152.7230  132.8480 C   0  0  0  0  0  0  0  0  0  0  0  0
  141.1620  154.1240  133.1820 N   0  0  0  0  0  0  0  0  0  0  0  0
  140.0000  154.7230  132.9990 N   0  0  0  0  0  0  0  0  0  0  0  0
  140.1660  155.9860  133.4410 C   0  0  0  0  0  0  0  0  0  0  0  0
  139.0760  157.0190  133.4480 C   0  0  0  0  0  0  0  0  0  0  0  0
  139.1800  157.9090  132.2080 C   0  0  0  0  0  0  0  0  0  0  0  0
  139.1350  157.8550  134.7300 C   0  0  0  0  0  0  0  0  0  0  0  0
  141.4090  156.2130  133.9200 N   0  0  0  0  0  0  0  0  0  0  0  0
  142.0090  155.0210  133.7320 C   0  0  0  0  0  0  0  0  0  0  0  0
  143.4100  154.7310  134.1860 C   0  0  0  0  0  0  0  0  0  0  0  0
  144.4060  155.0110  133.0570 C   0  0  0  0  0  0  0  0  0  0  0  0
  144.9990  156.3860  133.2020 C   0  0  0  0  0  0  0  0  0  0  0  0
  146.3800  156.5920  132.9630 C   0  0  0  0  0  0  0  0  0  0  0  0
  146.9370  157.8780  133.0520 C   0  0  0  0  0  0  0  0  0  0  0  0
  146.0920  158.9340  133.3800 C   0  0  0  0  0  0  0  0  0  0  0  0
  146.3630  160.2780  133.4980 C   0  0  0  0  0  0  0  0  0  0  0  0
  145.1470  160.8700  133.8250 C   0  0  0  0  0  0  0  0  0  0  0  0
  144.9990  162.3110  134.1100 C   0  0  0  0  0  0  0  0  0  0  0  0
  143.9400  163.0740  133.5280 N   0  0  0  0  0  0  0  0  0  0  0  0
  145.7840  162.8650  134.9240 O   0  0  0  0  0  0  0  0  0  0  0  0
  144.1570  159.9360  133.8940 N   0  0  0  0  0  0  0  0  0  0  0  0
  142.7510  160.1710  134.0850 C   0  0  0  0  0  0  0  0  0  0  0  0
  142.1350  160.9920  133.3570 O   0  0  0  0  0  0  0  0  0  0  0  0
  142.0570  159.4970  135.0830 O   0  0  0  0  0  0  0  0  0  0  0  0
  144.7530  158.7520  133.6220 C   0  0  0  0  0  0  0  0  0  0  0  0
  144.1690  157.4840  133.5200 C   0  0  0  0  0  0  0  0  0  0  0  0
  138.7700  149.9385  133.0048 H   0  0  0  0  0  0  0  0  0  0  0  0
  139.3801  150.8084  131.5564 H   0  0  0  0  0  0  0  0  0  0  0  0
  139.2939  149.0142  131.5564 H   0  0  0  0  0  0  0  0  0  0  0  0
  141.1836  148.7826  132.8819 H   0  0  0  0  0  0  0  0  0  0  0  0
  141.5905  150.3111  132.0109 H   0  0  0  0  0  0  0  0  0  0  0  0
  142.4061  152.6343  132.3833 H   0  0  0  0  0  0  0  0  0  0  0  0
  140.6348  152.3795  132.1506 H   0  0  0  0  0  0  0  0  0  0  0  0
  138.1036  156.5053  133.4225 H   0  0  0  0  0  0  0  0  0  0  0  0
  139.3025  158.9572  132.5182 H   0  0  0  0  0  0  0  0  0  0  0  0
  140.0482  157.6006  131.6071 H   0  0  0  0  0  0  0  0  0  0  0  0
  138.2641  157.8091  131.6071 H   0  0  0  0  0  0  0  0  0  0  0  0
  139.0880  157.1892  135.6044 H   0  0  0  0  0  0  0  0  0  0  0  0
  140.0756  158.4249  134.7532 H   0  0  0  0  0  0  0  0  0  0  0  0
  138.2837  158.5513  134.7532 H   0  0  0  0  0  0  0  0  0  0  0  0
  143.6510  155.3697  135.0485 H   0  0  0  0  0  0  0  0  0  0  0  0
  143.4809  153.6705  134.4693 H   0  0  0  0  0  0  0  0  0  0  0  0
  145.2126  154.2639  133.0931 H   0  0  0  0  0  0  0  0  0  0  0  0
  143.8762  154.9533  132.0947 H   0  0  0  0  0  0  0  0  0  0  0  0
  147.0220  155.7367  132.7053 H   0  0  0  0  0  0  0  0  0  0  0  0
  148.0085  158.0456  132.8681 H   0  0  0  0  0  0  0  0  0  0  0  0
  147.3336  160.7776  133.3627 H   0  0  0  0  0  0  0  0  0  0  0  0
  143.8690  164.0980  133.7150 H   0  0  0  0  0  0  0  0  0  0  0  0
  143.1800  162.6120  132.9820 H   0  0  0  0  0  0  0  0  0  0  0  0
  143.0900  157.3459  133.6835 H   0  0  0  0  0  0  0  0  0  0  0  0
  1  2  1  0
  2  3  1  0
  3  4  1  0
  4  5  2  0
  4  6  1  0
  6  7  1  0
  7  8  1  0
  8  9  2  0
  9 10  1  0
 10 11  1  0
 10 12  1  0
  9 13  1  0
 13 14  2  0
 14 15  1  0
 15 16  1  0
 16 17  1  0
 17 18  2  0
 18 19  1  0
 19 20  2  0
 20 21  1  0
 21 22  2  0
 22 23  1  0
 23 24  1  0
 23 25  2  0
 22 26  1  0
 26 27  1  0
 27 28  2  0
 27 29  1  0
 26 30  1  0
 30 31  2  0
 14  7  1  0
 31 17  1  0
 30 20  1  0
  1 32  1  0
  1 33  1  0
  1 34  1  0
  2 35  1  0
  2 36  1  0
  6 37  1  0
  6 38  1  0
 10 39  1  0
 11 40  1  0
 11 41  1  0
 11 42  1  0
 12 43  1  0
 12 44  1  0
 12 45  1  0
 15 46  1  0
 15 47  1  0
 16 48  1  0
 16 49  1  0
 18 50  1  0
 19 51  1  0
 21 52  1  0
 24 53  1  0
 24 54  1  0
 31 55  1  0
M  CHG  1  29  -1
M  END
>  <UniqueID>  (66) 
64

>  <SMILES>  (66) 
CCOC(=O)Cn1nc(C(C)C)nc1CCc1ccc2cc(C(N)=O)n(C(=O)[O-])c2c1

>  <Energy>  (66) 
113.13226450694872

>  <Genealogy>  (66) 
CCOC(=O)Cn1nc(C(C)C)nc1CCc1ccc2cc(C(N)=O)n(C(=O)[O-])c2c1 (protonated)
CCOC(=O)Cn1nc(C(C)C)nc1CCc1ccc2cc(C(N)=O)n(C(=O)[O-])c2c1 (3D coordinates assigned)
CCOC(=O)Cn1nc(C(C)C)nc1CCc1ccc2cc(C(N)=O)n(C(=O)[O-])c2c1 (optimized conformer: 113.13226450694872 kcal/mol)

>  <smiles>  (66) 
CCOC(=O)Cn1nc(C(C)C)nc1CCc1ccc2cc(C(N)=O)n(C(=O)O)c2c1

>  <score_type>  (66) 
oracle

>  <origin>  (66) 
adg

>  <m_score__min__energy>  (66) 
-8.8000000000000007

>  <m_primary>  (66) 
energy

$$$$
66:0
     RDKit          3D

 32 34  0  0  0  0  0  0  0  0999 V2000
  140.2530  158.7370  136.1040 N   0  0  0  0  0  0  0  0  0  0  0  0
  140.6760  158.6480  134.7450 C   0  0  0  0  0  0  0  0  0  0  0  0
  139.8190  158.7450  133.8260 O   0  0  0  0  0  0  0  0  0  0  0  0
  142.1050  158.5040  134.4010 C   0  0  0  0  0  0  0  0  0  0  0  0
  142.7950  157.2970  134.4900 C   0  0  0  0  0  0  0  0  0  0  0  0
  144.0530  157.5580  133.9990 C   0  0  0  0  0  0  0  0  0  0  0  0
  145.1540  156.7170  133.8640 C   0  0  0  0  0  0  0  0  0  0  0  0
  146.3420  157.2660  133.3530 C   0  0  0  0  0  0  0  0  0  0  0  0
  146.4070  158.6320  132.9960 C   0  0  0  0  0  0  0  0  0  0  0  0
  147.6240  159.1800  132.4870 N   0  0  0  0  0  0  0  0  0  0  0  0
  148.2950  160.4930  132.4470 C   0  0  0  0  0  0  0  0  0  0  0  0
  149.5080  160.0280  131.7010 C   0  0  0  0  0  0  0  0  0  0  0  0
  149.6380  160.6000  130.3160 C   0  0  0  0  0  0  0  0  0  0  0  0
  149.5750  161.8470  130.1490 O   0  0  0  0  0  0  0  0  0  0  0  0
  149.8270  159.7710  129.2160 O   0  0  0  0  0  0  0  0  0  0  0  0
  148.8120  158.7020  131.7540 C   0  0  0  0  0  0  0  0  0  0  0  0
  145.2730  159.4570  133.1450 C   0  0  0  0  0  0  0  0  0  0  0  0
  144.0970  158.8810  133.6410 C   0  0  0  0  0  0  0  0  0  0  0  0
  142.9080  159.4780  133.8850 N   0  0  0  0  0  0  0  0  0  0  0  0
  142.6050  160.8740  133.7260 C   0  0  0  0  0  0  0  0  0  0  0  0
  141.4150  161.2510  133.5590 O   0  0  0  0  0  0  0  0  0  0  0  0
  143.6240  161.8180  133.7270 O   0  0  0  0  0  0  0  0  0  0  0  0
  139.4750  159.3720  136.3840 H   0  0  0  0  0  0  0  0  0  0  0  0
  142.4143  156.3383  134.8721 H   0  0  0  0  0  0  0  0  0  0  0  0
  145.0957  155.6560  134.1484 H   0  0  0  0  0  0  0  0  0  0  0  0
  147.2291  156.6273  133.2297 H   0  0  0  0  0  0  0  0  0  0  0  0
  147.7186  161.2478  131.8921 H   0  0  0  0  0  0  0  0  0  0  0  0
  148.4618  161.0001  133.4088 H   0  0  0  0  0  0  0  0  0  0  0  0
  150.5414  160.1969  132.0381 H   0  0  0  0  0  0  0  0  0  0  0  0
  148.5663  158.3109  130.7557 H   0  0  0  0  0  0  0  0  0  0  0  0
  149.3680  157.8609  132.1938 H   0  0  0  0  0  0  0  0  0  0  0  0
  145.3112  160.5236  132.8789 H   0  0  0  0  0  0  0  0  0  0  0  0
  1  2  1  0
  2  3  2  0
  2  4  1  0
  4  5  2  0
  5  6  1  0
  6  7  2  0
  7  8  1  0
  8  9  2  0
  9 10  1  0
 10 11  1  0
 11 12  1  0
 12 13  1  0
 13 14  2  0
 13 15  1  0
 12 16  1  0
  9 17  1  0
 17 18  2  0
 18 19  1  0
 19 20  1  0
 20 21  2  0
 20 22  1  0
 19  4  1  0
 18  6  1  0
 16 10  1  0
  1 23  1  0
  5 24  1  0
  7 25  1  0
  8 26  1  0
 11 27  1  0
 11 28  1  0
 12 29  1  0
 16 30  1  0
 16 31  1  0
 17 32  1  0
M  CHG  3   1  -1  15  -1  22  -1
M  END
>  <UniqueID>  (67) 
65

>  <SMILES>  (67) 
[NH-]C(=O)c1cc2ccc(N3CC(C(=O)[O-])C3)cc2n1C(=O)[O-]

>  <Energy>  (67) 
118.1422538070526

>  <Genealogy>  (67) 
[NH-]C(=O)c1cc2ccc(N3CC(C(=O)[O-])C3)cc2n1C(=O)[O-] (protonated)
[NH-]C(=O)c1cc2ccc(N3CC(C(=O)[O-])C3)cc2n1C(=O)[O-] (3D coordinates assigned)
[NH-]C(=O)c1cc2ccc(N3CC(C(=O)[O-])C3)cc2n1C(=O)[O-] (nonaromatic ring conformer: 118.1422538070526 kcal/mol)

>  <smiles>  (67) 
NC(=O)c1cc2ccc(N3CC(C(=O)O)C3)cc2n1C(=O)O

>  <score_type>  (67) 
oracle

>  <origin>  (67) 
adg

>  <m_score__min__energy>  (67) 
-7.0999999999999996

>  <m_primary>  (67) 
energy

$$$$
67:0
     RDKit          3D

 43 45  0  0  0  0  0  0  0  0999 V2000
  136.9310  160.1150  130.5110 C   0  0  0  0  0  0  0  0  0  0  0  0
  138.4430  160.3840  130.5000 C   0  0  1  0  0  0  0  0  0  0  0  0
  138.8210  161.2180  131.5690 O   0  0  0  0  0  0  0  0  0  0  0  0
  139.2860  159.0910  130.4750 C   0  0  0  0  0  0  0  0  0  0  0  0
  139.4740  158.4670  131.8360 C   0  0  0  0  0  0  0  0  0  0  0  0
  138.3690  158.3130  132.7100 C   0  0  0  0  0  0  0  0  0  0  0  0
  138.5320  157.7300  133.9780 C   0  0  0  0  0  0  0  0  0  0  0  0
  139.8080  157.3090  134.3420 C   0  0  0  0  0  0  0  0  0  0  0  0
  140.2560  156.7400  135.5140 C   0  0  0  0  0  0  0  0  0  0  0  0
  141.6250  156.5460  135.3310 C   0  0  0  0  0  0  0  0  0  0  0  0
  142.5070  155.9150  136.3350 C   0  0  0  0  0  0  0  0  0  0  0  0
  143.7000  155.2390  135.9430 N   0  0  0  0  0  0  0  0  0  0  0  0
  142.1910  155.9500  137.5540 O   0  0  0  0  0  0  0  0  0  0  0  0
  142.0030  156.9750  134.0950 N   0  0  0  0  0  0  0  0  0  0  0  0
  143.3280  157.0210  133.5450 C   0  0  0  0  0  0  0  0  0  0  0  0
  143.7340  156.0570  132.8400 O   0  0  0  0  0  0  0  0  0  0  0  0
  144.1920  158.1470  133.7980 N   0  0  0  0  0  0  0  0  0  0  0  0
  143.6260  159.4200  134.2610 C   0  0  0  0  0  0  0  0  0  0  0  0
  144.3830  160.5770  133.6800 C   0  0  0  0  0  0  0  0  0  0  0  0
  143.8440  161.7140  133.6290 O   0  0  0  0  0  0  0  0  0  0  0  0
  145.7300  160.4070  133.2320 N   0  0  0  0  0  0  0  0  0  0  0  0
  146.3670  159.1290  133.2900 C   0  0  0  0  0  0  0  0  0  0  0  0
  147.5570  159.0040  132.8940 O   0  0  0  0  0  0  0  0  0  0  0  0
  145.6470  157.9500  133.8700 C   0  0  0  0  0  0  0  0  0  0  0  0
  140.8830  157.4410  133.5040 C   0  0  0  0  0  0  0  0  0  0  0  0
  140.7540  158.0280  132.2430 C   0  0  0  0  0  0  0  0  0  0  0  0
  136.5773  160.0521  131.5507 H   0  0  0  0  0  0  0  0  0  0  0  0
  136.4090  160.9344  129.9951 H   0  0  0  0  0  0  0  0  0  0  0  0
  136.7237  159.1659  129.9951 H   0  0  0  0  0  0  0  0  0  0  0  0
  138.6561  160.9112  129.5584 H   0  0  0  0  0  0  0  0  0  0  0  0
  137.9960  161.5080  132.0360 H   0  0  0  0  0  0  0  0  0  0  0  0
  138.7835  158.3606  129.8238 H   0  0  0  0  0  0  0  0  0  0  0  0
  140.2850  159.3639  130.1041 H   0  0  0  0  0  0  0  0  0  0  0  0
  137.3726  158.6537  132.3921 H   0  0  0  0  0  0  0  0  0  0  0  0
  137.6784  157.6100  134.6614 H   0  0  0  0  0  0  0  0  0  0  0  0
  139.6605  156.4915  136.4049 H   0  0  0  0  0  0  0  0  0  0  0  0
  144.0530  155.2970  134.9620 H   0  0  0  0  0  0  0  0  0  0  0  0
  142.5734  159.4828  133.9477 H   0  0  0  0  0  0  0  0  0  0  0  0
  143.7000  159.4628  135.3577 H   0  0  0  0  0  0  0  0  0  0  0  0
  146.2510  161.2270  132.8460 H   0  0  0  0  0  0  0  0  0  0  0  0
  145.9181  157.0464  133.3042 H   0  0  0  0  0  0  0  0  0  0  0  0
  145.9386  157.8396  134.9249 H   0  0  0  0  0  0  0  0  0  0  0  0
  141.6266  158.1455  131.5836 H   0  0  0  0  0  0  0  0  0  0  0  0
  1  2  1  0
  2  3  1  0
  2  4  1  0
  4  5  1  0
  5  6  2  0
  6  7  1  0
  7  8  2  0
  8  9  1  0
  9 10  2  0
 10 11  1  0
 11 12  1  0
 11 13  2  0
 10 14  1  0
 14 15  1  0
 15 16  2  0
 15 17  1  0
 17 18  1  0
 18 19  1  0
 19 20  2  0
 19 21  1  0
 21 22  1  0
 22 23  2  0
 22 24  1  0
 14 25  1  0
 25 26  2  0
 26  5  1  0
 25  8  1  0
 24 17  1  0
  1 27  1  0
  1 28  1  0
  1 29  1  0
  2 30  1  6
  3 31  1  0
  4 32  1  0
  4 33  1  0
  6 34  1  0
  7 35  1  0
  9 36  1  0
 12 37  1  0
 18 38  1  0
 18 39  1  0
 21 40  1  0
 24 41  1  0
 24 42  1  0
 26 43  1  0
M  CHG  1  12  -1
M  END
>  <UniqueID>  (68) 
66

>  <SMILES>  (68) 
C[C@@H](O)Cc1ccc2cc(C([NH-])=O)n(C(=O)N3CC(=O)NC(=O)C3)c2c1

>  <Energy>  (68) 
80.20024466114398

>  <Genealogy>  (68) 
C[C@@H](O)Cc1ccc2cc(C([NH-])=O)n(C(=O)N3CC(=O)NC(=O)C3)c2c1 (protonated)
C[C@@H](O)Cc1ccc2cc(C([NH-])=O)n(C(=O)N3CC(=O)NC(=O)C3)c2c1 (3D coordinates assigned)
C[C@@H](O)Cc1ccc2cc(C([NH-])=O)n(C(=O)N3CC(=O)NC(=O)C3)c2c1 (nonaromatic ring conformer: 80.20024466114398 kcal/mol)

>  <smiles>  (68) 
C[C@@H](O)Cc1ccc2cc(C(N)=O)n(C(=O)N3CC(=O)NC(=O)C3)c2c1

>  <score_type>  (68) 
oracle

>  <origin>  (68) 
adg

>  <m_score__min__energy>  (68) 
-8.0099999999999998

>  <m_primary>  (68) 
energy

$$$$
68:0
     RDKit          3D

 56 58  0  0  0  0  0  0  0  0999 V2000
  140.6440  154.8540  138.7060 C   0  0  0  0  0  0  0  0  0  0  0  0
  141.7480  154.7590  137.9580 C   0  0  0  0  0  0  0  0  0  0  0  0
  142.8370  153.7690  138.2720 C   0  0  0  0  0  0  0  0  0  0  0  0
  143.4490  153.1490  136.9880 C   0  0  1  0  0  0  0  0  0  0  0  0
  142.4200  153.1710  135.8130 C   0  0  0  0  0  0  0  0  0  0  0  0
  142.7760  154.1760  134.8030 N   0  0  0  0  0  0  0  0  0  0  0  0
  141.7790  155.0530  134.2350 C   0  0  0  0  0  0  0  0  0  0  0  0
  140.6100  154.5110  133.6340 C   0  0  0  0  0  0  0  0  0  0  0  0
  139.6730  155.3420  132.9970 C   0  0  0  0  0  0  0  0  0  0  0  0
  139.9220  156.7090  132.9770 C   0  0  0  0  0  0  0  0  0  0  0  0
  139.2100  157.7330  132.3900 C   0  0  0  0  0  0  0  0  0  0  0  0
  139.9380  158.8900  132.6610 C   0  0  0  0  0  0  0  0  0  0  0  0
  139.5370  160.2440  132.2270 C   0  0  0  0  0  0  0  0  0  0  0  0
  138.4160  160.4110  131.3620 N   0  0  0  0  0  0  0  0  0  0  0  0
  140.1740  161.2590  132.6180 O   0  0  0  0  0  0  0  0  0  0  0  0
  141.0490  158.5890  133.3860 N   0  0  0  0  0  0  0  0  0  0  0  0
  142.0340  159.4970  133.8870 C   0  0  0  0  0  0  0  0  0  0  0  0
  142.7680  160.1300  133.0800 O   0  0  0  0  0  0  0  0  0  0  0  0
  142.1440  159.6900  135.2680 O   0  0  0  0  0  0  0  0  0  0  0  0
  141.0550  159.5310  136.1760 C   0  0  0  0  0  0  0  0  0  0  0  0
  141.2710  158.3020  137.0570 C   0  0  0  0  0  0  0  0  0  0  0  0
  140.2540  157.3410  136.8410 O   0  0  0  0  0  0  0  0  0  0  0  0
  139.1870  157.9100  136.1150 C   0  0  0  0  0  0  0  0  0  0  0  0
  141.0290  157.2540  133.5720 C   0  0  0  0  0  0  0  0  0  0  0  0
  141.9850  156.4540  134.2080 C   0  0  0  0  0  0  0  0  0  0  0  0
  144.1410  154.1810  134.2610 C   0  0  0  0  0  0  0  0  0  0  0  0
  145.1270  153.5390  135.2440 C   0  0  0  0  0  0  0  0  0  0  0  0
  144.7250  153.8360  136.6320 N   0  0  2  0  0  0  0  0  0  0  0  0
  145.7950  153.4570  137.5280 C   0  0  0  0  0  0  0  0  0  0  0  0
  146.9670  153.2790  137.0960 O   0  0  0  0  0  0  0  0  0  0  0  0
  145.5420  153.3170  138.8900 O   0  0  0  0  0  0  0  0  0  0  0  0
  139.8669  155.5888  138.4487 H   0  0  0  0  0  0  0  0  0  0  0  0
  140.5128  154.1974  139.5787 H   0  0  0  0  0  0  0  0  0  0  0  0
  141.8636  155.4231  137.0887 H   0  0  0  0  0  0  0  0  0  0  0  0
  143.6325  154.2823  138.8321 H   0  0  0  0  0  0  0  0  0  0  0  0
  142.3944  152.9545  138.8641 H   0  0  0  0  0  0  0  0  0  0  0  0
  143.6882  152.0936  137.1852 H   0  0  0  0  0  0  0  0  0  0  0  0
  142.3989  152.1791  135.3380 H   0  0  0  0  0  0  0  0  0  0  0  0
  141.4331  153.4301  136.2240 H   0  0  0  0  0  0  0  0  0  0  0  0
  140.4366  153.4253  133.6682 H   0  0  0  0  0  0  0  0  0  0  0  0
  138.7701  154.9233  132.5285 H   0  0  0  0  0  0  0  0  0  0  0  0
  138.2680  157.6538  131.8276 H   0  0  0  0  0  0  0  0  0  0  0  0
  137.8190  161.2660  131.4170 H   0  0  0  0  0  0  0  0  0  0  0  0
  140.9807  160.4248  136.8128 H   0  0  0  0  0  0  0  0  0  0  0  0
  140.1270  159.3986  135.6004 H   0  0  0  0  0  0  0  0  0  0  0  0
  142.2467  157.8540  136.8174 H   0  0  0  0  0  0  0  0  0  0  0  0
  141.2407  158.6152  138.1110 H   0  0  0  0  0  0  0  0  0  0  0  0
  138.4386  158.3091  136.8154 H   0  0  0  0  0  0  0  0  0  0  0  0
  139.5677  158.7248  135.4817 H   0  0  0  0  0  0  0  0  0  0  0  0
  138.7225  157.1398  135.4817 H   0  0  0  0  0  0  0  0  0  0  0  0
  142.8743  156.9021  134.6753 H   0  0  0  0  0  0  0  0  0  0  0  0
  144.1550  153.6159  133.3174 H   0  0  0  0  0  0  0  0  0  0  0  0
  144.4459  155.2242  134.0912 H   0  0  0  0  0  0  0  0  0  0  0  0
  145.1343  152.4495  135.0926 H   0  0  0  0  0  0  0  0  0  0  0  0
  146.1321  153.9486  135.0648 H   0  0  0  0  0  0  0  0  0  0  0  0
  144.5930  154.8740  136.7170 H   0  0  0  0  0  0  0  0  0  0  0  0
  1  2  2  0
  2  3  1  0
  3  4  1  0
  4  5  1  0
  5  6  1  0
  6  7  1  0
  7  8  2  0
  8  9  1  0
  9 10  2  0
 10 11  1  0
 11 12  2  0
 12 13  1  0
 13 14  1  0
 13 15  2  0
 12 16  1  0
 16 17  1  0
 17 18  2  0
 17 19  1  0
 19 20  1  0
 20 21  1  0
 21 22  1  0
 22 23  1  0
 16 24  1  0
 24 25  2  0
  6 26  1  0
 26 27  1  0
 27 28  1  0
 28 29  1  0
 29 30  2  0
 29 31  1  0
 28  4  1  0
 25  7  1  0
 24 10  1  0
  1 32  1  0
  1 33  1  0
  2 34  1  0
  3 35  1  0
  3 36  1  0
  4 37  1  1
  5 38  1  0
  5 39  1  0
  8 40  1  0
  9 41  1  0
 11 42  1  0
 14 43  1  0
 20 44  1  0
 20 45  1  0
 21 46  1  0
 21 47  1  0
 23 48  1  0
 23 49  1  0
 23 50  1  0
 25 51  1  0
 26 52  1  0
 26 53  1  0
 27 54  1  0
 27 55  1  0
 28 56  1  6
M  CHG  3  14  -1  28   1  31  -1
M  END
>  <UniqueID>  (69) 
67

>  <SMILES>  (69) 
C=CC[C@H]1CN(c2ccc3cc(C([NH-])=O)n(C(=O)OCCOC)c3c2)CC[N@@H+]1C(=O)[O-]

>  <Energy>  (69) 
104.99563277482065

>  <Genealogy>  (69) 
C=CC[C@H]1CN(c2ccc3cc(C([NH-])=O)n(C(=O)OCCOC)c3c2)CC[NH+]1C(=O)[O-] (protonated)
C=CC[C@H]1CN(c2ccc3cc(C([NH-])=O)n(C(=O)OCCOC)c3c2)CC[N@@H+]1C(=O)[O-] (chirality)
C=CC[C@H]1CN(c2ccc3cc(C([NH-])=O)n(C(=O)OCCOC)c3c2)CC[N@@H+]1C(=O)[O-] (3D coordinates assigned)
C=CC[C@H]1CN(c2ccc3cc(C([NH-])=O)n(C(=O)OCCOC)c3c2)CC[N@@H+]1C(=O)[O-] (nonaromatic ring conformer: 104.99563277482065 kcal/mol)

>  <smiles>  (69) 
C=CC[C@H]1CN(c2ccc3cc(C(N)=O)n(C(=O)OCCOC)c3c2)CCN1C(=O)O

>  <score_type>  (69) 
oracle

>  <origin>  (69) 
adg

>  <m_score__min__energy>  (69) 
-7.0499999999999998

>  <m_primary>  (69) 
energy

$$$$
69:0
     RDKit          3D

 47 49  0  0  0  0  0  0  0  0999 V2000
  142.4840  154.7410  132.9620 N   0  0  0  0  0  0  0  0  0  0  0  0
  143.6300  155.1860  133.7520 C   0  0  0  0  0  0  0  0  0  0  0  0
  144.6750  155.8630  132.8610 C   0  0  0  0  0  0  0  0  0  0  0  0
  145.7050  156.5910  133.6770 C   0  0  0  0  0  0  0  0  0  0  0  0
  146.5150  155.9300  134.3810 O   0  0  0  0  0  0  0  0  0  0  0  0
  145.7300  158.0270  133.7230 N   0  0  0  0  0  0  0  0  0  0  0  0
  146.8080  158.8540  133.6180 C   0  0  0  0  0  0  0  0  0  0  0  0
  148.2240  158.4360  133.6040 C   0  0  0  0  0  0  0  0  0  0  0  0
  148.5950  157.0740  133.3830 N   0  0  0  0  0  0  0  0  0  0  0  0
  149.1220  159.2890  133.8370 O   0  0  0  0  0  0  0  0  0  0  0  0
  146.3990  160.1860  133.5730 C   0  0  0  0  0  0  0  0  0  0  0  0
  145.0270  160.1490  133.6720 C   0  0  0  0  0  0  0  0  0  0  0  0
  144.0990  161.1850  133.6610 C   0  0  0  0  0  0  0  0  0  0  0  0
  142.7360  160.8500  133.7400 C   0  0  0  0  0  0  0  0  0  0  0  0
  142.3260  159.4940  133.8290 C   0  0  0  0  0  0  0  0  0  0  0  0
  140.9250  159.1590  133.8760 N   0  0  0  0  0  0  0  0  0  0  0  0
  140.3500  158.5870  135.1040 C   0  0  0  0  0  0  0  0  0  0  0  0
  139.0170  157.8730  134.8230 C   0  0  0  0  0  0  0  0  0  0  0  0
  139.0540  157.0920  133.4930 C   0  0  0  0  0  0  0  0  0  0  0  0
  139.9510  155.8840  133.6080 C   0  0  0  0  0  0  0  0  0  0  0  0
  140.7480  155.7630  134.5760 O   0  0  0  0  0  0  0  0  0  0  0  0
  139.8690  154.8710  132.6620 O   0  0  0  0  0  0  0  0  0  0  0  0
  139.4440  157.9910  132.2850 C   0  0  0  0  0  0  0  0  0  0  0  0
  140.0640  159.3350  132.7000 C   0  0  0  0  0  0  0  0  0  0  0  0
  143.3010  158.4710  133.8320 C   0  0  0  0  0  0  0  0  0  0  0  0
  144.6490  158.8350  133.7650 C   0  0  0  0  0  0  0  0  0  0  0  0
  141.9420  155.5840  132.6650 H   0  0  0  0  0  0  0  0  0  0  0  0
  141.8530  154.1990  133.5960 H   0  0  0  0  0  0  0  0  0  0  0  0
  143.2869  155.9020  134.5133 H   0  0  0  0  0  0  0  0  0  0  0  0
  144.0900  154.3089  134.2307 H   0  0  0  0  0  0  0  0  0  0  0  0
  145.1772  155.0961  132.2530 H   0  0  0  0  0  0  0  0  0  0  0  0
  144.1609  156.5951  132.2209 H   0  0  0  0  0  0  0  0  0  0  0  0
  147.8810  156.3140  133.3680 H   0  0  0  0  0  0  0  0  0  0  0  0
  149.6030  156.8100  133.3260 H   0  0  0  0  0  0  0  0  0  0  0  0
  147.0372  161.0769  133.4785 H   0  0  0  0  0  0  0  0  0  0  0  0
  144.4217  162.2344  133.5926 H   0  0  0  0  0  0  0  0  0  0  0  0
  141.9786  161.6477  133.7328 H   0  0  0  0  0  0  0  0  0  0  0  0
  141.0611  157.8626  135.5278 H   0  0  0  0  0  0  0  0  0  0  0  0
  140.1593  159.4081  135.8107 H   0  0  0  0  0  0  0  0  0  0  0  0
  138.8101  157.1697  135.6431 H   0  0  0  0  0  0  0  0  0  0  0  0
  138.2291  158.6371  134.7488 H   0  0  0  0  0  0  0  0  0  0  0  0
  138.0318  156.7389  133.2917 H   0  0  0  0  0  0  0  0  0  0  0  0
  140.1728  157.4469  131.6663 H   0  0  0  0  0  0  0  0  0  0  0  0
  138.5182  158.2161  131.7352 H   0  0  0  0  0  0  0  0  0  0  0  0
  140.6641  159.7301  131.8671 H   0  0  0  0  0  0  0  0  0  0  0  0
  139.2565  160.0387  132.9506 H   0  0  0  0  0  0  0  0  0  0  0  0
  143.0060  157.4127  133.8858 H   0  0  0  0  0  0  0  0  0  0  0  0
  1  2  1  0
  2  3  1  0
  3  4  1  0
  4  5  2  0
  4  6  1  0
  6  7  1  0
  7  8  1  0
  8  9  1  0
  8 10  2  0
  7 11  2  0
 11 12  1  0
 12 13  2  0
 13 14  1  0
 14 15  2  0
 15 16  1  0
 16 17  1  0
 17 18  1  0
 18 19  1  0
 19 20  1  0
 20 21  2  0
 20 22  1  0
 19 23  1  0
 23 24  1  0
 15 25  1  0
 25 26  2  0
 26  6  1  0
 26 12  1  0
 24 16  1  0
  1 27  1  0
  1 28  1  0
  2 29  1  0
  2 30  1  0
  3 31  1  0
  3 32  1  0
  9 33  1  0
  9 34  1  0
 11 35  1  0
 13 36  1  0
 14 37  1  0
 17 38  1  0
 17 39  1  0
 18 40  1  0
 18 41  1  0
 19 42  1  0
 23 43  1  0
 23 44  1  0
 24 45  1  0
 24 46  1  0
 25 47  1  0
M  CHG  1  22  -1
M  END
>  <UniqueID>  (70) 
68

>  <SMILES>  (70) 
NCCC(=O)n1c(C(N)=O)cc2ccc(N3CCC(C(=O)[O-])CC3)cc21

>  <Energy>  (70) 
90.65333865817047

>  <Genealogy>  (70) 
NCCC(=O)n1c(C(N)=O)cc2ccc(N3CCC(C(=O)[O-])CC3)cc21 (protonated)
NCCC(=O)n1c(C(N)=O)cc2ccc(N3CCC(C(=O)[O-])CC3)cc21 (3D coordinates assigned)
NCCC(=O)n1c(C(N)=O)cc2ccc(N3CCC(C(=O)[O-])CC3)cc21 (nonaromatic ring conformer: 90.65333865817047 kcal/mol)

>  <smiles>  (70) 
NCCC(=O)n1c(C(N)=O)cc2ccc(N3CCC(C(=O)O)CC3)cc21

>  <score_type>  (70) 
oracle

>  <origin>  (70) 
adg

>  <m_score__min__energy>  (70) 
-8.1400000000000006

>  <m_primary>  (70) 
energy

$$$$
70:0
     RDKit          3D

 42 44  0  0  0  0  0  0  0  0999 V2000
  138.3380  158.9990  131.6340 C   0  0  0  0  0  0  0  0  0  0  0  0
  138.9880  157.9960  132.1950 C   0  0  0  0  0  0  0  0  0  0  0  0
  138.7430  157.5400  133.6000 C   0  0  0  0  0  0  0  0  0  0  0  0
  139.8940  156.8330  134.0760 O   0  0  0  0  0  0  0  0  0  0  0  0
  140.2740  155.6530  133.4650 C   0  0  0  0  0  0  0  0  0  0  0  0
  139.3050  154.9770  132.9720 O   0  0  0  0  0  0  0  0  0  0  0  0
  141.5890  155.1680  133.3550 N   0  0  0  0  0  0  0  0  0  0  0  0
  142.7260  155.8800  133.3160 C   0  0  0  0  0  0  0  0  0  0  0  0
  142.9510  157.3090  133.3740 C   0  0  0  0  0  0  0  0  0  0  0  0
  141.9570  158.1980  132.8080 N   0  0  0  0  0  0  0  0  0  0  0  0
  143.9370  157.8820  133.8730 O   0  0  0  0  0  0  0  0  0  0  0  0
  143.7790  154.9620  133.2000 C   0  0  0  0  0  0  0  0  0  0  0  0
  143.2650  153.6890  133.1700 C   0  0  0  0  0  0  0  0  0  0  0  0
  143.8780  152.4550  133.0670 C   0  0  0  0  0  0  0  0  0  0  0  0
  143.1050  151.3130  133.0600 C   0  0  0  0  0  0  0  0  0  0  0  0
  141.7350  151.4200  133.1550 C   0  0  0  0  0  0  0  0  0  0  0  0
  140.9120  150.1830  133.1460 C   0  0  0  0  0  0  0  0  0  0  0  0
  141.1800  149.3440  131.9570 C   0  0  0  0  0  0  0  0  0  0  0  0
  142.3140  148.8920  131.6550 O   0  0  0  0  0  0  0  0  0  0  0  0
  140.0500  149.0300  131.0900 C   0  0  0  0  0  0  0  0  0  0  0  0
  138.7400  149.4250  131.1930 C   0  0  0  0  0  0  0  0  0  0  0  0
  138.0750  148.8550  130.1200 C   0  0  0  0  0  0  0  0  0  0  0  0
  138.9890  148.1420  129.4110 N   0  0  0  0  0  0  0  0  0  0  0  0
  140.1730  148.2510  129.9970 N   0  0  0  0  0  0  0  0  0  0  0  0
  141.1520  152.6770  133.2570 C   0  0  0  0  0  0  0  0  0  0  0  0
  141.8990  153.8410  133.2670 C   0  0  0  0  0  0  0  0  0  0  0  0
  138.5622  159.2881  130.5966 H   0  0  0  0  0  0  0  0  0  0  0  0
  137.5722  159.5455  132.2040 H   0  0  0  0  0  0  0  0  0  0  0  0
  139.7482  157.4686  131.6000 H   0  0  0  0  0  0  0  0  0  0  0  0
  138.5565  158.4132  134.2424 H   0  0  0  0  0  0  0  0  0  0  0  0
  137.8666  156.8757  133.6241 H   0  0  0  0  0  0  0  0  0  0  0  0
  141.1140  158.4450  133.3970 H   0  0  0  0  0  0  0  0  0  0  0  0
  142.0900  158.5730  131.8410 H   0  0  0  0  0  0  0  0  0  0  0  0
  144.8467  155.2202  133.1422 H   0  0  0  0  0  0  0  0  0  0  0  0
  144.9731  152.3841  132.9912 H   0  0  0  0  0  0  0  0  0  0  0  0
  143.5791  150.3237  132.9791 H   0  0  0  0  0  0  0  0  0  0  0  0
  141.1392  149.5994  134.0503 H   0  0  0  0  0  0  0  0  0  0  0  0
  139.8535  150.4809  133.1183 H   0  0  0  0  0  0  0  0  0  0  0  0
  138.3044  150.0669  131.9729 H   0  0  0  0  0  0  0  0  0  0  0  0
  137.0055  148.9600  129.8853 H   0  0  0  0  0  0  0  0  0  0  0  0
  141.0180  147.7730  129.6070 H   0  0  0  0  0  0  0  0  0  0  0  0
  140.0570  152.7491  133.3325 H   0  0  0  0  0  0  0  0  0  0  0  0
  1  2  2  0
  2  3  1  0
  3  4  1  0
  4  5  1  0
  5  6  2  0
  5  7  1  0
  7  8  1  0
  8  9  1  0
  9 10  1  0
  9 11  2  0
  8 12  2  0
 12 13  1  0
 13 14  2  0
 14 15  1  0
 15 16  2  0
 16 17  1  0
 17 18  1  0
 18 19  2  0
 18 20  1  0
 20 21  2  0
 21 22  1  0
 22 23  2  0
 23 24  1  0
 16 25  1  0
 25 26  2  0
 26  7  1  0
 26 13  1  0
 24 20  1  0
  1 27  1  0
  1 28  1  0
  2 29  1  0
  3 30  1  0
  3 31  1  0
 10 32  1  0
 10 33  1  0
 12 34  1  0
 14 35  1  0
 15 36  1  0
 17 37  1  0
 17 38  1  0
 21 39  1  0
 22 40  1  0
 24 41  1  0
 25 42  1  0
M  END
>  <smiles>  (71) 
C=CCOC(=O)n1c(C(N)=O)cc2ccc(CC(=O)c3ccn[nH]3)cc21

>  <score_type>  (71) 
oracle

>  <origin>  (71) 
adg

>  <m_score__min__energy>  (71) 
-8.5199999999999996

>  <m_primary>  (71) 
energy

$$$$
71:0
     RDKit          3D

 44 47  0  0  0  0  0  0  0  0999 V2000
  149.6800  151.1030  131.5430 C   0  0  0  0  0  0  0  0  0  0  0  0
  148.5800  151.9430  131.8040 O   0  0  0  0  0  0  0  0  0  0  0  0
  148.8550  152.7200  132.9500 C   0  0  0  0  0  0  0  0  0  0  0  0
  149.4350  154.0610  132.6180 C   0  0  0  0  0  0  0  0  0  0  0  0
  148.2560  154.8470  133.0240 N   0  0  0  0  0  0  0  0  0  0  0  0
  147.8690  156.2210  133.0740 C   0  0  0  0  0  0  0  0  0  0  0  0
  148.8340  157.2360  132.8830 C   0  0  0  0  0  0  0  0  0  0  0  0
  148.4620  158.5900  132.9160 C   0  0  0  0  0  0  0  0  0  0  0  0
  147.1240  158.8930  133.1510 C   0  0  0  0  0  0  0  0  0  0  0  0
  146.4890  160.1120  133.2110 C   0  0  0  0  0  0  0  0  0  0  0  0
  145.1490  159.8200  133.4620 C   0  0  0  0  0  0  0  0  0  0  0  0
  144.1150  160.8550  133.6770 C   0  0  0  0  0  0  0  0  0  0  0  0
  142.7570  160.5810  133.3400 N   0  0  0  0  0  0  0  0  0  0  0  0
  144.4220  161.9900  134.1260 O   0  0  0  0  0  0  0  0  0  0  0  0
  144.9630  158.4720  133.5480 N   0  0  0  0  0  0  0  0  0  0  0  0
  143.7290  157.7640  133.7430 C   0  0  0  0  0  0  0  0  0  0  0  0
  143.4690  157.2590  134.8670 O   0  0  0  0  0  0  0  0  0  0  0  0
  142.7970  157.6530  132.6590 N   0  0  0  0  0  0  0  0  0  0  0  0
  141.3780  157.8340  132.7320 C   0  0  0  0  0  0  0  0  0  0  0  0
  140.7350  158.7730  132.0080 N   0  0  0  0  0  0  0  0  0  0  0  0
  139.3940  158.7550  132.2360 C   0  0  0  0  0  0  0  0  0  0  0  0
  138.4620  159.6700  131.5110 C   0  0  0  0  0  0  0  0  0  0  0  0
  138.9560  157.7820  133.1310 C   0  0  0  0  0  0  0  0  0  0  0  0
  140.3050  156.9340  133.6690 S   0  0  0  0  0  0  0  0  0  0  0  0
  146.1810  157.9180  133.3570 C   0  0  0  0  0  0  0  0  0  0  0  0
  146.5220  156.5620  133.3090 C   0  0  0  0  0  0  0  0  0  0  0  0
  147.6680  153.5360  133.3570 C   0  0  0  0  0  0  0  0  0  0  0  0
  150.1191  150.7677  132.4942 H   0  0  0  0  0  0  0  0  0  0  0  0
  149.3449  150.2288  130.9655 H   0  0  0  0  0  0  0  0  0  0  0  0
  150.4351  151.6565  130.9655 H   0  0  0  0  0  0  0  0  0  0  0  0
  149.3570  151.9764  133.5864 H   0  0  0  0  0  0  0  0  0  0  0  0
  150.3284  154.2967  133.2150 H   0  0  0  0  0  0  0  0  0  0  0  0
  149.8048  154.2065  131.5923 H   0  0  0  0  0  0  0  0  0  0  0  0
  149.8850  156.9632  132.7070 H   0  0  0  0  0  0  0  0  0  0  0  0
  149.2050  159.3862  132.7609 H   0  0  0  0  0  0  0  0  0  0  0  0
  146.9425  161.1065  133.0872 H   0  0  0  0  0  0  0  0  0  0  0  0
  142.5150  159.8290  132.6550 H   0  0  0  0  0  0  0  0  0  0  0  0
  137.8741  160.2472  132.2398 H   0  0  0  0  0  0  0  0  0  0  0  0
  139.0420  160.3592  130.8797 H   0  0  0  0  0  0  0  0  0  0  0  0
  137.7836  159.0774  130.8797 H   0  0  0  0  0  0  0  0  0  0  0  0
  137.9137  157.6005  133.4322 H   0  0  0  0  0  0  0  0  0  0  0  0
  145.7589  155.7826  133.4510 H   0  0  0  0  0  0  0  0  0  0  0  0
  147.4312  153.4365  134.4266 H   0  0  0  0  0  0  0  0  0  0  0  0
  146.7046  153.2861  132.8886 H   0  0  0  0  0  0  0  0  0  0  0  0
  1  2  1  0
  2  3  1  0
  3  4  1  0
  4  5  1  0
  5  6  1  0
  6  7  2  0
  7  8  1  0
  8  9  2  0
  9 10  1  0
 10 11  2  0
 11 12  1  0
 12 13  1  0
 12 14  2  0
 11 15  1  0
 15 16  1  0
 16 17  2  0
 16 18  1  0
 18 19  1  0
 19 20  2  0
 20 21  1  0
 21 22  1  0
 21 23  2  0
 23 24  1  0
 15 25  1  0
 25 26  2  0
  5 27  1  0
 27  3  1  0
 26  6  1  0
 25  9  1  0
 24 19  1  0
  1 28  1  0
  1 29  1  0
  1 30  1  0
  3 31  1  0
  4 32  1  0
  4 33  1  0
  7 34  1  0
  8 35  1  0
 10 36  1  0
 13 37  1  0
 22 38  1  0
 22 39  1  0
 22 40  1  0
 23 41  1  0
 26 42  1  0
 27 43  1  0
 27 44  1  0
M  CHG  2  13  -1  18  -1
M  END
>  <UniqueID>  (72) 
69

>  <SMILES>  (72) 
COC1CN(c2ccc3cc(C([NH-])=O)n(C(=O)[N-]c4nc(C)cs4)c3c2)C1

>  <Energy>  (72) 
160.38655101686945

>  <Genealogy>  (72) 
COC1CN(c2ccc3cc(C([NH-])=O)n(C(=O)[N-]c4nc(C)cs4)c3c2)C1 (protonated)
COC1CN(c2ccc3cc(C([NH-])=O)n(C(=O)[N-]c4nc(C)cs4)c3c2)C1 (3D coordinates assigned)
COC1CN(c2ccc3cc(C([NH-])=O)n(C(=O)[N-]c4nc(C)cs4)c3c2)C1 (nonaromatic ring conformer: 160.38655101686945 kcal/mol)

>  <smiles>  (72) 
COC1CN(c2ccc3cc(C(N)=O)n(C(=O)Nc4nc(C)cs4)c3c2)C1

>  <score_type>  (72) 
oracle

>  <origin>  (72) 
adg

>  <m_score__min__energy>  (72) 
-8.5600000000000005

>  <m_primary>  (72) 
energy

$$$$
72:0
     RDKit          3D

 37 39  0  0  0  0  0  0  0  0999 V2000
  145.9440  162.7380  134.7850 N   0  0  0  0  0  0  0  0  0  0  0  0
  145.2410  161.7010  134.1040 C   0  0  0  0  0  0  0  0  0  0  0  0
  143.9990  161.8080  133.9310 O   0  0  0  0  0  0  0  0  0  0  0  0
  145.9670  160.4960  133.6510 C   0  0  0  0  0  0  0  0  0  0  0  0
  147.3330  160.4830  133.3740 C   0  0  0  0  0  0  0  0  0  0  0  0
  147.6330  159.1740  133.0780 C   0  0  0  0  0  0  0  0  0  0  0  0
  148.8440  158.5950  132.7120 C   0  0  0  0  0  0  0  0  0  0  0  0
  148.8590  157.2190  132.4300 C   0  0  0  0  0  0  0  0  0  0  0  0
  147.6700  156.4480  132.5200 C   0  0  0  0  0  0  0  0  0  0  0  0
  147.6890  155.0460  132.1870 N   0  0  0  0  0  0  0  0  0  0  0  0
  148.4600  154.3000  133.1910 C   0  0  0  0  0  0  0  0  0  0  0  0
  148.6770  152.8790  132.7400 C   0  0  0  0  0  0  0  0  0  0  0  0
  147.5810  152.0280  132.5260 C   0  0  0  0  0  0  0  0  0  0  0  0
  147.7850  150.6990  132.1430 C   0  0  0  0  0  0  0  0  0  0  0  0
  149.0840  150.2080  131.9830 C   0  0  0  0  0  0  0  0  0  0  0  0
  150.1800  151.0440  132.2110 C   0  0  0  0  0  0  0  0  0  0  0  0
  149.9800  152.3740  132.5940 C   0  0  0  0  0  0  0  0  0  0  0  0
  146.4560  157.0760  132.8840 C   0  0  0  0  0  0  0  0  0  0  0  0
  146.4750  158.4450  133.1760 C   0  0  0  0  0  0  0  0  0  0  0  0
  145.4420  159.2440  133.5240 N   0  0  0  0  0  0  0  0  0  0  0  0
  144.0650  158.8530  133.6510 C   0  0  0  0  0  0  0  0  0  0  0  0
  143.4350  159.0800  134.7170 O   0  0  0  0  0  0  0  0  0  0  0  0
  143.4220  158.1950  132.6100 O   0  0  0  0  0  0  0  0  0  0  0  0
  146.9880  162.7590  134.8000 H   0  0  0  0  0  0  0  0  0  0  0  0
  148.0244  161.3384  133.3890 H   0  0  0  0  0  0  0  0  0  0  0  0
  149.7623  159.1968  132.6455 H   0  0  0  0  0  0  0  0  0  0  0  0
  149.8015  156.7337  132.1364 H   0  0  0  0  0  0  0  0  0  0  0  0
  148.1190  154.9150  131.2410 H   0  0  0  0  0  0  0  0  0  0  0  0
  146.7080  154.6790  132.1500 H   0  0  0  0  0  0  0  0  0  0  0  0
  149.4357  154.7875  133.3339 H   0  0  0  0  0  0  0  0  0  0  0  0
  147.8985  154.2915  134.1368 H   0  0  0  0  0  0  0  0  0  0  0  0
  146.5577  152.4085  132.6602 H   0  0  0  0  0  0  0  0  0  0  0  0
  146.9226  150.0391  131.9674 H   0  0  0  0  0  0  0  0  0  0  0  0
  149.2433  149.1633  131.6776 H   0  0  0  0  0  0  0  0  0  0  0  0
  151.2018  150.6554  132.0890 H   0  0  0  0  0  0  0  0  0  0  0  0
  150.8453  153.0267  132.7815 H   0  0  0  0  0  0  0  0  0  0  0  0
  145.5190  156.5022  132.9364 H   0  0  0  0  0  0  0  0  0  0  0  0
  1  2  1  0
  2  3  2  0
  2  4  1  0
  4  5  2  0
  5  6  1  0
  6  7  2  0
  7  8  1  0
  8  9  2  0
  9 10  1  0
 10 11  1  0
 11 12  1  0
 12 13  2  0
 13 14  1  0
 14 15  2  0
 15 16  1  0
 16 17  2  0
  9 18  1  0
 18 19  2  0
 19 20  1  0
 20 21  1  0
 21 22  2  0
 21 23  1  0
 20  4  1  0
 19  6  1  0
 17 12  1  0
  1 24  1  0
  5 25  1  0
  7 26  1  0
  8 27  1  0
 10 28  1  0
 10 29  1  0
 11 30  1  0
 11 31  1  0
 13 32  1  0
 14 33  1  0
 15 34  1  0
 16 35  1  0
 17 36  1  0
 18 37  1  0
M  CHG  3   1  -1  10   1  23  -1
M  END
>  <UniqueID>  (73) 
70

>  <SMILES>  (73) 
[NH-]C(=O)c1cc2ccc([NH2+]Cc3ccccc3)cc2n1C(=O)[O-]

>  <Energy>  (73) 
79.00762265243642

>  <Genealogy>  (73) 
[NH-]C(=O)c1cc2ccc([NH2+]Cc3ccccc3)cc2n1C(=O)[O-] (protonated)
[NH-]C(=O)c1cc2ccc([NH2+]Cc3ccccc3)cc2n1C(=O)[O-] (3D coordinates assigned)
[NH-]C(=O)c1cc2ccc([NH2+]Cc3ccccc3)cc2n1C(=O)[O-] (optimized conformer: 79.00762265243642 kcal/mol)

>  <smiles>  (73) 
NC(=O)c1cc2ccc(NCc3ccccc3)cc2n1C(=O)O

>  <score_type>  (73) 
oracle

>  <origin>  (73) 
adg

>  <m_score__min__energy>  (73) 
-8.1600000000000001

>  <m_primary>  (73) 
energy

$$$$
73:0
     RDKit          3D

 37 39  0  0  0  0  0  0  0  0999 V2000
  139.4840  156.5740  132.9610 C   0  0  0  0  0  0  0  0  0  0  0  0
  139.4290  157.9750  132.4390 C   0  0  0  0  0  0  0  0  0  0  0  0
  138.7360  158.3560  131.3070 C   0  0  0  0  0  0  0  0  0  0  0  0
  138.8490  159.7270  131.2350 C   0  0  0  0  0  0  0  0  0  0  0  0
  139.5590  160.1650  132.2490 O   0  0  0  0  0  0  0  0  0  0  0  0
  139.9310  159.1500  132.9970 C   0  0  0  0  0  0  0  0  0  0  0  0
  140.7460  159.3510  134.2180 C   0  0  0  0  0  0  0  0  0  0  0  0
  140.5250  158.5990  135.2050 O   0  0  0  0  0  0  0  0  0  0  0  0
  141.7930  160.4240  134.3680 C   0  0  0  0  0  0  0  0  0  0  0  0
  143.1820  159.9570  134.0030 C   0  0  0  0  0  0  0  0  0  0  0  0
  144.2310  160.9070  133.9070 C   0  0  0  0  0  0  0  0  0  0  0  0
  145.5450  160.5020  133.6190 C   0  0  0  0  0  0  0  0  0  0  0  0
  145.7840  159.1430  133.4450 C   0  0  0  0  0  0  0  0  0  0  0  0
  146.9640  158.4810  133.1970 C   0  0  0  0  0  0  0  0  0  0  0  0
  146.6240  157.1330  133.1450 C   0  0  0  0  0  0  0  0  0  0  0  0
  147.5930  156.0640  132.8320 C   0  0  0  0  0  0  0  0  0  0  0  0
  147.1760  154.8430  132.2200 N   0  0  0  0  0  0  0  0  0  0  0  0
  148.8180  156.2550  133.0550 O   0  0  0  0  0  0  0  0  0  0  0  0
  145.2900  156.9610  133.3660 N   0  0  0  0  0  0  0  0  0  0  0  0
  144.5840  155.7170  133.5060 C   0  0  0  0  0  0  0  0  0  0  0  0
  144.1280  155.3640  134.6260 O   0  0  0  0  0  0  0  0  0  0  0  0
  144.4000  154.8860  132.4090 O   0  0  0  0  0  0  0  0  0  0  0  0
  144.7890  158.2060  133.5440 C   0  0  0  0  0  0  0  0  0  0  0  0
  143.4740  158.5800  133.8530 C   0  0  0  0  0  0  0  0  0  0  0  0
  139.4833  156.5922  134.0608 H   0  0  0  0  0  0  0  0  0  0  0  0
  138.6071  156.0146  132.6030 H   0  0  0  0  0  0  0  0  0  0  0  0
  140.4020  156.0851  132.6030 H   0  0  0  0  0  0  0  0  0  0  0  0
  138.2021  157.6983  130.6053 H   0  0  0  0  0  0  0  0  0  0  0  0
  138.4112  160.3586  130.4480 H   0  0  0  0  0  0  0  0  0  0  0  0
  141.5250  161.2673  133.7146 H   0  0  0  0  0  0  0  0  0  0  0  0
  141.8143  160.7130  135.4291 H   0  0  0  0  0  0  0  0  0  0  0  0
  144.0129  161.9742  134.0600 H   0  0  0  0  0  0  0  0  0  0  0  0
  146.3593  161.2367  133.5338 H   0  0  0  0  0  0  0  0  0  0  0  0
  147.9629  158.9230  133.0675 H   0  0  0  0  0  0  0  0  0  0  0  0
  147.8710  154.0820  132.0430 H   0  0  0  0  0  0  0  0  0  0  0  0
  146.2010  154.7210  131.8690 H   0  0  0  0  0  0  0  0  0  0  0  0
  142.6872  157.8212  133.9761 H   0  0  0  0  0  0  0  0  0  0  0  0
  1  2  1  0
  2  3  1  0
  3  4  2  0
  4  5  1  0
  5  6  1  0
  6  7  1  0
  7  8  2  0
  7  9  1  0
  9 10  1  0
 10 11  2  0
 11 12  1  0
 12 13  2  0
 13 14  1  0
 14 15  2  0
 15 16  1  0
 16 17  1  0
 16 18  2  0
 15 19  1  0
 19 20  1  0
 20 21  2  0
 20 22  1  0
 19 23  1  0
 23 24  2  0
  6  2  2  0
 24 10  1  0
 23 13  1  0
  1 25  1  0
  1 26  1  0
  1 27  1  0
  3 28  1  0
  4 29  1  0
  9 30  1  0
  9 31  1  0
 11 32  1  0
 12 33  1  0
 14 34  1  0
 17 35  1  0
 17 36  1  0
 24 37  1  0
M  CHG  1  22  -1
M  END
>  <UniqueID>  (74) 
71

>  <SMILES>  (74) 
Cc1ccoc1C(=O)Cc1ccc2cc(C(N)=O)n(C(=O)[O-])c2c1

>  <Energy>  (74) 
107.0795571910363

>  <Genealogy>  (74) 
Cc1ccoc1C(=O)Cc1ccc2cc(C(N)=O)n(C(=O)[O-])c2c1 (protonated)
Cc1ccoc1C(=O)Cc1ccc2cc(C(N)=O)n(C(=O)[O-])c2c1 (3D coordinates assigned)
Cc1ccoc1C(=O)Cc1ccc2cc(C(N)=O)n(C(=O)[O-])c2c1 (optimized conformer: 107.0795571910363 kcal/mol)

>  <smiles>  (74) 
Cc1ccoc1C(=O)Cc1ccc2cc(C(N)=O)n(C(=O)O)c2c1

>  <score_type>  (74) 
oracle

>  <origin>  (74) 
adg

>  <m_score__min__energy>  (74) 
-7.6100000000000003

>  <m_primary>  (74) 
energy

$$$$
74:0
     RDKit          3D

 36 37  0  0  0  0  0  0  0  0999 V2000
  149.6210  160.7560  128.8300 C   0  0  0  0  0  0  0  0  0  0  0  0
  149.2020  160.3890  130.1930 N   0  0  0  0  0  0  0  0  0  0  0  0
  148.7530  161.5920  130.9130 C   0  0  0  0  0  0  0  0  0  0  0  0
  150.3010  159.7220  130.9240 C   0  0  0  0  0  0  0  0  0  0  0  0
  149.7570  158.6350  131.8590 C   0  0  0  0  0  0  0  0  0  0  0  0
  148.9760  159.2110  132.9070 O   0  0  0  0  0  0  0  0  0  0  0  0
  147.6140  158.9730  133.1480 C   0  0  0  0  0  0  0  0  0  0  0  0
  147.1640  157.6330  133.1270 C   0  0  0  0  0  0  0  0  0  0  0  0
  145.8150  157.3190  133.3540 C   0  0  0  0  0  0  0  0  0  0  0  0
  144.9350  158.3680  133.6010 C   0  0  0  0  0  0  0  0  0  0  0  0
  143.5770  158.3500  133.8220 C   0  0  0  0  0  0  0  0  0  0  0  0
  143.2130  159.6840  133.9860 C   0  0  0  0  0  0  0  0  0  0  0  0
  141.8400  160.1120  134.3270 C   0  0  0  0  0  0  0  0  0  0  0  0
  141.0530  160.8570  133.4010 N   0  0  0  0  0  0  0  0  0  0  0  0
  141.3740  159.8620  135.4700 O   0  0  0  0  0  0  0  0  0  0  0  0
  144.3010  160.4960  133.8640 N   0  0  0  0  0  0  0  0  0  0  0  0
  144.3330  161.9330  133.8720 C   0  0  0  0  0  0  0  0  0  0  0  0
  143.3930  162.5930  133.3560 O   0  0  0  0  0  0  0  0  0  0  0  0
  145.4120  162.6080  134.4270 O   0  0  0  0  0  0  0  0  0  0  0  0
  145.3490  159.6750  133.6330 C   0  0  0  0  0  0  0  0  0  0  0  0
  146.6860  160.0160  133.3910 C   0  0  0  0  0  0  0  0  0  0  0  0
  150.4475  161.4799  128.8829 H   0  0  0  0  0  0  0  0  0  0  0  0
  149.9560  159.8555  128.2944 H   0  0  0  0  0  0  0  0  0  0  0  0
  148.7725  161.2068  128.2944 H   0  0  0  0  0  0  0  0  0  0  0  0
  148.8185  161.4164  131.9969 H   0  0  0  0  0  0  0  0  0  0  0  0
  149.3939  162.4433  130.6400 H   0  0  0  0  0  0  0  0  0  0  0  0
  147.7110  161.8152  130.6400 H   0  0  0  0  0  0  0  0  0  0  0  0
  150.9885  159.2621  130.1989 H   0  0  0  0  0  0  0  0  0  0  0  0
  150.8274  160.4746  131.5294 H   0  0  0  0  0  0  0  0  0  0  0  0
  149.1284  157.9427  131.2797 H   0  0  0  0  0  0  0  0  0  0  0  0
  150.6062  158.0981  132.3068 H   0  0  0  0  0  0  0  0  0  0  0  0
  147.8824  156.8237  132.9296 H   0  0  0  0  0  0  0  0  0  0  0  0
  145.4645  156.2765  133.3372 H   0  0  0  0  0  0  0  0  0  0  0  0
  142.9190  157.4693  133.8609 H   0  0  0  0  0  0  0  0  0  0  0  0
  141.4020  161.7550  133.0010 H   0  0  0  0  0  0  0  0  0  0  0  0
  147.0077  161.0679  133.3897 H   0  0  0  0  0  0  0  0  0  0  0  0
  1  2  1  0
  2  3  1  0
  2  4  1  0
  4  5  1  0
  5  6  1  0
  6  7  1  0
  7  8  2  0
  8  9  1  0
  9 10  2  0
 10 11  1  0
 11 12  2  0
 12 13  1  0
 13 14  1  0
 13 15  2  0
 12 16  1  0
 16 17  1  0
 17 18  2  0
 17 19  1  0
 16 20  1  0
 20 21  2  0
 21  7  1  0
 20 10  1  0
  1 22  1  0
  1 23  1  0
  1 24  1  0
  3 25  1  0
  3 26  1  0
  3 27  1  0
  4 28  1  0
  4 29  1  0
  5 30  1  0
  5 31  1  0
  8 32  1  0
  9 33  1  0
 11 34  1  0
 14 35  1  0
 21 36  1  0
M  CHG  2  14  -1  19  -1
M  END
>  <UniqueID>  (75) 
72

>  <SMILES>  (75) 
CN(C)CCOc1ccc2cc(C([NH-])=O)n(C(=O)[O-])c2c1

>  <Energy>  (75) 
75.55811065849879

>  <Genealogy>  (75) 
CN(C)CCOc1ccc2cc(C([NH-])=O)n(C(=O)[O-])c2c1 (protonated)
CN(C)CCOc1ccc2cc(C([NH-])=O)n(C(=O)[O-])c2c1 (3D coordinates assigned)
CN(C)CCOc1ccc2cc(C([NH-])=O)n(C(=O)[O-])c2c1 (optimized conformer: 75.55811065849879 kcal/mol)

>  <smiles>  (75) 
CN(C)CCOc1ccc2cc(C(N)=O)n(C(=O)O)c2c1

>  <score_type>  (75) 
oracle

>  <origin>  (75) 
adg

>  <m_score__min__energy>  (75) 
-5.9900000000000002

>  <m_primary>  (75) 
energy

$$$$
75:0
     RDKit          3D

 53 54  0  0  0  0  0  0  0  0999 V2000
  146.8020  154.4250  132.9550 C   0  0  0  0  0  0  0  0  0  0  0  0
  146.5750  155.7090  132.6840 C   0  0  0  0  0  0  0  0  0  0  0  0
  146.8780  156.7880  133.6430 C   0  0  0  0  0  0  0  0  0  0  0  0
  147.7870  156.6430  134.5070 O   0  0  0  0  0  0  0  0  0  0  0  0
  146.0950  157.9890  133.6360 N   0  0  0  0  0  0  0  0  0  0  0  0
  146.5250  159.2660  133.4320 C   0  0  0  0  0  0  0  0  0  0  0  0
  147.9340  159.7040  133.3600 C   0  0  0  0  0  0  0  0  0  0  0  0
  148.8950  159.2400  134.3060 N   0  0  0  0  0  0  0  0  0  0  0  0
  148.2900  160.5190  132.4680 O   0  0  0  0  0  0  0  0  0  0  0  0
  145.4390  160.1320  133.3220 C   0  0  0  0  0  0  0  0  0  0  0  0
  144.3230  159.3370  133.4620 C   0  0  0  0  0  0  0  0  0  0  0  0
  142.9770  159.6600  133.3520 C   0  0  0  0  0  0  0  0  0  0  0  0
  142.0420  158.6140  133.4160 C   0  0  0  0  0  0  0  0  0  0  0  0
  142.4600  157.2680  133.5900 C   0  0  0  0  0  0  0  0  0  0  0  0
  141.4110  156.1690  133.4950 C   0  0  2  0  0  0  0  0  0  0  0  0
  139.9900  156.6700  133.3740 C   0  0  0  0  0  0  0  0  0  0  0  0
  139.0430  155.9030  133.3120 O   0  0  0  0  0  0  0  0  0  0  0  0
  141.5790  155.0650  134.5740 C   0  0  0  0  0  0  0  0  0  0  0  0
  141.7720  155.5240  136.0400 C   0  0  0  0  0  0  0  0  0  0  0  0
  141.0180  156.8240  136.3940 C   0  0  0  0  0  0  0  0  0  0  0  0
  141.6850  157.5870  137.4710 N   0  0  0  0  0  0  0  0  0  0  0  0
  141.3180  159.0260  137.5180 C   0  0  0  0  0  0  0  0  0  0  0  0
  140.6340  159.5630  136.2450 C   0  0  0  0  0  0  0  0  0  0  0  0
  141.7310  156.9250  138.8000 C   0  0  0  0  0  0  0  0  0  0  0  0
  142.1620  157.8400  139.9510 C   0  0  0  0  0  0  0  0  0  0  0  0
  143.8430  156.9880  133.7410 C   0  0  0  0  0  0  0  0  0  0  0  0
  144.7480  158.0490  133.6600 C   0  0  0  0  0  0  0  0  0  0  0  0
  146.5600  153.6542  132.2085 H   0  0  0  0  0  0  0  0  0  0  0  0
  147.2315  154.1353  133.9253 H   0  0  0  0  0  0  0  0  0  0  0  0
  146.1449  155.9752  131.7072 H   0  0  0  0  0  0  0  0  0  0  0  0
  149.2340  158.2530  134.2840 H   0  0  0  0  0  0  0  0  0  0  0  0
  145.4670  161.2194  133.1582 H   0  0  0  0  0  0  0  0  0  0  0  0
  142.6531  160.7028  133.2189 H   0  0  0  0  0  0  0  0  0  0  0  0
  140.9691  158.8409  133.3300 H   0  0  0  0  0  0  0  0  0  0  0  0
  141.6144  155.6812  132.5303 H   0  0  0  0  0  0  0  0  0  0  0  0
  139.8049  157.7538  133.3410 H   0  0  0  0  0  0  0  0  0  0  0  0
  140.6793  154.4330  134.5420 H   0  0  0  0  0  0  0  0  0  0  0  0
  142.5191  154.5573  134.3125 H   0  0  0  0  0  0  0  0  0  0  0  0
  141.4125  154.7237  136.7035 H   0  0  0  0  0  0  0  0  0  0  0  0
  142.8443  155.7317  136.1705 H   0  0  0  0  0  0  0  0  0  0  0  0
  140.9625  157.4561  135.4955 H   0  0  0  0  0  0  0  0  0  0  0  0
  140.0164  156.5439  136.7522 H   0  0  0  0  0  0  0  0  0  0  0  0
  140.6313  159.1761  138.3642 H   0  0  0  0  0  0  0  0  0  0  0  0
  142.2617  159.5821  137.6193 H   0  0  0  0  0  0  0  0  0  0  0  0
  139.7978  160.2195  136.5272 H   0  0  0  0  0  0  0  0  0  0  0  0
  141.3627  160.1327  135.6497 H   0  0  0  0  0  0  0  0  0  0  0  0
  140.2535  158.7199  135.6497 H   0  0  0  0  0  0  0  0  0  0  0  0
  140.7264  156.5383  139.0262 H   0  0  0  0  0  0  0  0  0  0  0  0
  142.4908  156.1328  138.7288 H   0  0  0  0  0  0  0  0  0  0  0  0
  141.9332  157.3542  140.9110 H   0  0  0  0  0  0  0  0  0  0  0  0
  143.2436  158.0286  139.8842 H   0  0  0  0  0  0  0  0  0  0  0  0
  141.6186  158.7941  139.8842 H   0  0  0  0  0  0  0  0  0  0  0  0
  144.1938  155.9605  133.9175 H   0  0  0  0  0  0  0  0  0  0  0  0
  1  2  2  0
  2  3  1  0
  3  4  2  0
  3  5  1  0
  5  6  1  0
  6  7  1  0
  7  8  1  0
  7  9  2  0
  6 10  2  0
 10 11  1  0
 11 12  2  0
 12 13  1  0
 13 14  2  0
 14 15  1  0
 15 16  1  0
 16 17  2  0
 15 18  1  0
 18 19  1  0
 19 20  1  0
 20 21  1  0
 21 22  1  0
 22 23  1  0
 21 24  1  0
 24 25  1  0
 14 26  1  0
 26 27  2  0
 27  5  1  0
 27 11  1  0
  1 28  1  0
  1 29  1  0
  2 30  1  0
  8 31  1  0
 10 32  1  0
 12 33  1  0
 13 34  1  0
 15 35  1  6
 16 36  1  0
 18 37  1  0
 18 38  1  0
 19 39  1  0
 19 40  1  0
 20 41  1  0
 20 42  1  0
 22 43  1  0
 22 44  1  0
 23 45  1  0
 23 46  1  0
 23 47  1  0
 24 48  1  0
 24 49  1  0
 25 50  1  0
 25 51  1  0
 25 52  1  0
 26 53  1  0
M  CHG  1   8  -1
M  END
>  <UniqueID>  (76) 
73

>  <SMILES>  (76) 
C=CC(=O)n1c(C([NH-])=O)cc2ccc([C@H](C=O)CCCN(CC)CC)cc21

>  <Energy>  (76) 
96.69081530379142

>  <Genealogy>  (76) 
C=CC(=O)n1c(C([NH-])=O)cc2ccc(C(C=O)CCCN(CC)CC)cc21 (protonated)
C=CC(=O)n1c(C([NH-])=O)cc2ccc([C@H](C=O)CCCN(CC)CC)cc21 (chirality)
C=CC(=O)n1c(C([NH-])=O)cc2ccc([C@H](C=O)CCCN(CC)CC)cc21 (3D coordinates assigned)
C=CC(=O)n1c(C([NH-])=O)cc2ccc([C@H](C=O)CCCN(CC)CC)cc21 (optimized conformer: 96.69081530379142 kcal/mol)

>  <smiles>  (76) 
C=CC(=O)n1c(C(N)=O)cc2ccc(C(C=O)CCCN(CC)CC)cc21

>  <score_type>  (76) 
oracle

>  <origin>  (76) 
adg

>  <m_score__min__energy>  (76) 
-7.6600000000000001

>  <m_primary>  (76) 
energy

$$$$
76:0
     RDKit          3D

 49 51  0  0  0  0  0  0  0  0999 V2000
  144.3160  154.3490  132.8090 C   0  0  0  0  0  0  0  0  0  0  0  0
  145.6540  154.9150  133.3130 C   0  0  0  0  0  0  0  0  0  0  0  0
  146.7550  153.8600  133.1050 C   0  0  0  0  0  0  0  0  0  0  0  0
  145.5050  155.2640  134.8080 C   0  0  0  0  0  0  0  0  0  0  0  0
  145.9440  156.0850  132.5350 O   0  0  0  0  0  0  0  0  0  0  0  0
  146.8480  157.1120  132.8630 C   0  0  0  0  0  0  0  0  0  0  0  0
  148.0780  156.8640  132.9750 O   0  0  0  0  0  0  0  0  0  0  0  0
  146.3570  158.4560  133.0590 N   0  0  0  0  0  0  0  0  0  0  0  0
  147.0990  159.6010  133.0750 C   0  0  0  0  0  0  0  0  0  0  0  0
  148.5130  159.7220  132.6840 C   0  0  0  0  0  0  0  0  0  0  0  0
  149.5250  158.9680  133.3470 N   0  0  0  0  0  0  0  0  0  0  0  0
  148.8250  160.4500  131.7090 O   0  0  0  0  0  0  0  0  0  0  0  0
  146.3180  160.6980  133.4220 C   0  0  0  0  0  0  0  0  0  0  0  0
  145.0500  160.1990  133.5910 C   0  0  0  0  0  0  0  0  0  0  0  0
  143.8680  160.8650  133.9020 C   0  0  0  0  0  0  0  0  0  0  0  0
  142.6870  160.1120  133.9760 C   0  0  0  0  0  0  0  0  0  0  0  0
  142.7020  158.7110  133.7490 C   0  0  0  0  0  0  0  0  0  0  0  0
  141.4650  157.9630  133.7630 N   0  0  0  0  0  0  0  0  0  0  0  0
  140.2350  158.5880  134.2600 C   0  0  0  0  0  0  0  0  0  0  0  0
  139.0140  157.9930  133.5510 C   0  0  0  0  0  0  0  0  0  0  0  0
  138.9320  156.5300  133.7170 N   0  0  0  0  0  0  0  0  0  0  0  0
  140.2330  155.8280  133.7170 C   0  0  0  0  0  0  0  0  0  0  0  0
  141.3760  156.6520  133.1020 C   0  0  0  0  0  0  0  0  0  0  0  0
  143.9290  158.0670  133.4600 C   0  0  0  0  0  0  0  0  0  0  0  0
  145.0940  158.8440  133.3690 C   0  0  0  0  0  0  0  0  0  0  0  0
  143.6839  154.0816  133.6686 H   0  0  0  0  0  0  0  0  0  0  0  0
  143.8036  155.1074  132.1989 H   0  0  0  0  0  0  0  0  0  0  0  0
  144.5034  153.4531  132.1989 H   0  0  0  0  0  0  0  0  0  0  0  0
  147.1185  153.5117  134.0830 H   0  0  0  0  0  0  0  0  0  0  0  0
  146.3453  153.0086  132.5416 H   0  0  0  0  0  0  0  0  0  0  0  0
  147.5881  154.3056  132.5416 H   0  0  0  0  0  0  0  0  0  0  0  0
  145.8643  154.4225  135.4186 H   0  0  0  0  0  0  0  0  0  0  0  0
  146.0983  156.1619  135.0358 H   0  0  0  0  0  0  0  0  0  0  0  0
  144.4462  155.4566  135.0358 H   0  0  0  0  0  0  0  0  0  0  0  0
  150.5110  158.9950  133.0110 H   0  0  0  0  0  0  0  0  0  0  0  0
  149.2690  158.2830  134.0930 H   0  0  0  0  0  0  0  0  0  0  0  0
  146.6458  161.7418  133.5365 H   0  0  0  0  0  0  0  0  0  0  0  0
  143.8603  161.9498  134.0843 H   0  0  0  0  0  0  0  0  0  0  0  0
  141.7371  160.6136  134.2130 H   0  0  0  0  0  0  0  0  0  0  0  0
  140.1490  158.4102  135.3421 H   0  0  0  0  0  0  0  0  0  0  0  0
  140.2753  159.6686  134.0584 H   0  0  0  0  0  0  0  0  0  0  0  0
  138.1044  158.4486  133.9694 H   0  0  0  0  0  0  0  0  0  0  0  0
  139.1103  158.2062  132.4762 H   0  0  0  0  0  0  0  0  0  0  0  0
  138.3460  156.1520  132.9350 H   0  0  0  0  0  0  0  0  0  0  0  0
  140.4983  155.5870  134.7570 H   0  0  0  0  0  0  0  0  0  0  0  0
  140.1140  154.9274  133.0966 H   0  0  0  0  0  0  0  0  0  0  0  0
  142.3255  156.1126  133.2340 H   0  0  0  0  0  0  0  0  0  0  0  0
  141.1768  156.8013  132.0305 H   0  0  0  0  0  0  0  0  0  0  0  0
  143.9685  156.9780  133.3096 H   0  0  0  0  0  0  0  0  0  0  0  0
  1  2  1  0
  2  3  1  0
  2  4  1  0
  2  5  1  0
  5  6  1  0
  6  7  2  0
  6  8  1  0
  8  9  1  0
  9 10  1  0
 10 11  1  0
 10 12  2  0
  9 13  2  0
 13 14  1  0
 14 15  2  0
 15 16  1  0
 16 17  2  0
 17 18  1  0
 18 19  1  0
 19 20  1  0
 20 21  1  0
 21 22  1  0
 22 23  1  0
 17 24  1  0
 24 25  2  0
 25  8  1  0
 25 14  1  0
 23 18  1  0
  1 26  1  0
  1 27  1  0
  1 28  1  0
  3 29  1  0
  3 30  1  0
  3 31  1  0
  4 32  1  0
  4 33  1  0
  4 34  1  0
 11 35  1  0
 11 36  1  0
 13 37  1  0
 15 38  1  0
 16 39  1  0
 19 40  1  0
 19 41  1  0
 20 42  1  0
 20 43  1  0
 21 44  1  0
 22 45  1  0
 22 46  1  0
 23 47  1  0
 23 48  1  0
 24 49  1  0
M  END
>  <UniqueID>  (77) 
74

>  <SMILES>  (77) 
CC(C)(C)OC(=O)n1c(C(N)=O)cc2ccc(N3CCNCC3)cc21

>  <Energy>  (77) 
93.19803312033908

>  <Genealogy>  (77) 
CC(C)(C)OC(=O)n1c(C(N)=O)cc2ccc(N3CCNCC3)cc21 (3D coordinates assigned)
CC(C)(C)OC(=O)n1c(C(N)=O)cc2ccc(N3CCNCC3)cc21 (nonaromatic ring conformer: 93.19803312033908 kcal/mol)

>  <smiles>  (77) 
CC(C)(C)OC(=O)n1c(C(N)=O)cc2ccc(N3CCNCC3)cc21

>  <score_type>  (77) 
oracle

>  <origin>  (77) 
adg

>  <m_score__min__energy>  (77) 
-8.2699999999999996

>  <m_primary>  (77) 
energy

$$$$
77:0
     RDKit          3D

 44 46  0  0  0  0  0  0  0  0999 V2000
  149.2060  153.0350  132.3440 C   0  0  0  0  0  0  0  0  0  0  0  0
  148.8700  154.2290  132.8390 C   0  0  0  0  0  0  0  0  0  0  0  0
  147.7140  154.3870  133.7870 C   0  0  0  0  0  0  0  0  0  0  0  0
  147.2990  155.7490  133.8510 O   0  0  0  0  0  0  0  0  0  0  0  0
  147.0370  156.5260  132.7170 C   0  0  0  0  0  0  0  0  0  0  0  0
  146.9890  155.9910  131.5760 O   0  0  0  0  0  0  0  0  0  0  0  0
  146.7940  157.9340  132.8580 N   0  0  0  0  0  0  0  0  0  0  0  0
  147.6850  158.9530  132.7010 C   0  0  0  0  0  0  0  0  0  0  0  0
  149.0680  158.8250  132.1960 C   0  0  0  0  0  0  0  0  0  0  0  0
  149.6450  157.5320  132.0280 N   0  0  0  0  0  0  0  0  0  0  0  0
  149.7600  159.8470  131.9470 O   0  0  0  0  0  0  0  0  0  0  0  0
  147.0890  160.1750  133.0070 C   0  0  0  0  0  0  0  0  0  0  0  0
  145.7920  159.8720  133.3530 C   0  0  0  0  0  0  0  0  0  0  0  0
  144.7580  160.7040  133.7670 C   0  0  0  0  0  0  0  0  0  0  0  0
  143.5280  160.1140  134.0970 C   0  0  0  0  0  0  0  0  0  0  0  0
  143.3470  158.7070  134.0050 C   0  0  0  0  0  0  0  0  0  0  0  0
  142.0390  158.0500  134.4080 C   0  0  1  0  0  0  0  0  0  0  0  0
  141.7730  158.1400  135.9310 C   0  0  0  0  0  0  0  0  0  0  0  0
  140.5290  158.8970  136.3020 C   0  0  0  0  0  0  0  0  0  0  0  0
  140.5940  160.1090  136.6370 O   0  0  0  0  0  0  0  0  0  0  0  0
  139.2920  158.2660  136.2600 O   0  0  0  0  0  0  0  0  0  0  0  0
  140.8830  158.5110  133.5480 C   0  0  0  0  0  0  0  0  0  0  0  0
  139.8980  157.6720  133.0350 C   0  0  0  0  0  0  0  0  0  0  0  0
  138.9700  158.3300  132.2180 C   0  0  0  0  0  0  0  0  0  0  0  0
  139.2190  159.6870  132.0720 C   0  0  0  0  0  0  0  0  0  0  0  0
  140.5960  160.0640  132.9590 S   0  0  0  0  0  0  0  0  0  0  0  0
  144.4310  157.8950  133.5940 C   0  0  0  0  0  0  0  0  0  0  0  0
  145.6400  158.5130  133.2550 C   0  0  0  0  0  0  0  0  0  0  0  0
  150.0563  152.9460  131.6519 H   0  0  0  0  0  0  0  0  0  0  0  0
  148.6324  152.1405  132.6284 H   0  0  0  0  0  0  0  0  0  0  0  0
  149.4515  155.1158  132.5468 H   0  0  0  0  0  0  0  0  0  0  0  0
  146.8735  153.7692  133.4380 H   0  0  0  0  0  0  0  0  0  0  0  0
  148.0320  154.0661  134.7900 H   0  0  0  0  0  0  0  0  0  0  0  0
  149.0480  156.7030  131.8100 H   0  0  0  0  0  0  0  0  0  0  0  0
  147.5562  161.1705  132.9781 H   0  0  0  0  0  0  0  0  0  0  0  0
  144.8997  161.7928  133.8340 H   0  0  0  0  0  0  0  0  0  0  0  0
  142.6936  160.7482  134.4310 H   0  0  0  0  0  0  0  0  0  0  0  0
  142.1396  156.9735  134.2057 H   0  0  0  0  0  0  0  0  0  0  0  0
  141.6832  157.1170  136.3253 H   0  0  0  0  0  0  0  0  0  0  0  0
  142.6182  158.6950  136.3642 H   0  0  0  0  0  0  0  0  0  0  0  0
  139.8527  156.5943  133.2508 H   0  0  0  0  0  0  0  0  0  0  0  0
  138.1230  157.8187  131.7371 H   0  0  0  0  0  0  0  0  0  0  0  0
  138.6195  160.3933  131.4789 H   0  0  0  0  0  0  0  0  0  0  0  0
  144.3254  156.8013  133.5421 H   0  0  0  0  0  0  0  0  0  0  0  0
  1  2  2  0
  2  3  1  0
  3  4  1  0
  4  5  1  0
  5  6  2  0
  5  7  1  0
  7  8  1  0
  8  9  1  0
  9 10  1  0
  9 11  2  0
  8 12  2  0
 12 13  1  0
 13 14  2  0
 14 15  1  0
 15 16  2  0
 16 17  1  0
 17 18  1  0
 18 19  1  0
 19 20  2  0
 19 21  1  0
 17 22  1  0
 22 23  2  0
 23 24  1  0
 24 25  2  0
 25 26  1  0
 16 27  1  0
 27 28  2  0
 28  7  1  0
 28 13  1  0
 26 22  1  0
  1 29  1  0
  1 30  1  0
  2 31  1  0
  3 32  1  0
  3 33  1  0
 10 34  1  0
 12 35  1  0
 14 36  1  0
 15 37  1  0
 17 38  1  6
 18 39  1  0
 18 40  1  0
 23 41  1  0
 24 42  1  0
 25 43  1  0
 27 44  1  0
M  CHG  2  10  -1  21  -1
M  END
>  <UniqueID>  (78) 
75

>  <SMILES>  (78) 
C=CCOC(=O)n1c(C([NH-])=O)cc2ccc([C@@H](CC(=O)[O-])c3cccs3)cc21

>  <Energy>  (78) 
108.11705484237947

>  <Genealogy>  (78) 
C=CCOC(=O)n1c(C([NH-])=O)cc2ccc([C@@H](CC(=O)[O-])c3cccs3)cc21 (protonated)
C=CCOC(=O)n1c(C([NH-])=O)cc2ccc([C@@H](CC(=O)[O-])c3cccs3)cc21 (3D coordinates assigned)
C=CCOC(=O)n1c(C([NH-])=O)cc2ccc([C@@H](CC(=O)[O-])c3cccs3)cc21 (optimized conformer: 108.11705484237947 kcal/mol)

>  <smiles>  (78) 
C=CCOC(=O)n1c(C(N)=O)cc2ccc([C@@H](CC(=O)O)c3cccs3)cc21

>  <score_type>  (78) 
oracle

>  <origin>  (78) 
adg

>  <m_score__min__energy>  (78) 
-8.4399999999999995

>  <m_primary>  (78) 
energy

$$$$
78:0
     RDKit          3D

 39 41  0  0  0  0  0  0  0  0999 V2000
  141.8250  156.1100  136.3580 C   0  0  0  0  0  0  0  0  0  0  0  0
  142.1730  157.2360  135.3850 C   0  0  0  0  0  0  0  0  0  0  0  0
  143.3420  157.0180  134.5740 O   0  0  0  0  0  0  0  0  0  0  0  0
  143.7340  157.6450  133.3780 C   0  0  0  0  0  0  0  0  0  0  0  0
  143.0190  157.5980  132.3420 O   0  0  0  0  0  0  0  0  0  0  0  0
  144.9670  158.3790  133.3480 N   0  0  0  0  0  0  0  0  0  0  0  0
  145.1360  159.7300  133.4340 C   0  0  0  0  0  0  0  0  0  0  0  0
  144.0760  160.7170  133.7310 C   0  0  0  0  0  0  0  0  0  0  0  0
  142.7300  160.4490  133.3430 N   0  0  0  0  0  0  0  0  0  0  0  0
  144.3510  161.8100  134.2900 O   0  0  0  0  0  0  0  0  0  0  0  0
  146.4790  160.0660  133.2850 C   0  0  0  0  0  0  0  0  0  0  0  0
  147.1360  158.8700  133.1090 C   0  0  0  0  0  0  0  0  0  0  0  0
  148.4910  158.6140  132.9090 C   0  0  0  0  0  0  0  0  0  0  0  0
  148.8890  157.2780  132.7330 C   0  0  0  0  0  0  0  0  0  0  0  0
  147.9330  156.2320  132.7430 C   0  0  0  0  0  0  0  0  0  0  0  0
  148.3750  154.8050  132.5750 C   0  0  0  0  0  0  0  0  0  0  0  0
  147.5610  153.9080  133.4570 C   0  0  0  0  0  0  0  0  0  0  0  0
  146.8180  152.8270  132.8980 N   0  0  0  0  0  0  0  0  0  0  0  0
  147.5020  154.1340  134.6960 O   0  0  0  0  0  0  0  0  0  0  0  0
  146.5690  156.5300  132.9580 C   0  0  0  0  0  0  0  0  0  0  0  0
  146.2030  157.8670  133.1500 C   0  0  0  0  0  0  0  0  0  0  0  0
  141.0030  157.9920  134.7730 C   0  0  0  0  0  0  0  0  0  0  0  0
  141.8740  158.6550  135.8480 C   0  0  0  0  0  0  0  0  0  0  0  0
  141.9365  156.4707  137.3912 H   0  0  0  0  0  0  0  0  0  0  0  0
  140.7859  155.7896  136.1916 H   0  0  0  0  0  0  0  0  0  0  0  0
  142.5021  155.2592  136.1916 H   0  0  0  0  0  0  0  0  0  0  0  0
  142.5140  159.7170  132.6300 H   0  0  0  0  0  0  0  0  0  0  0  0
  146.9207  161.0732  133.3040 H   0  0  0  0  0  0  0  0  0  0  0  0
  149.2260  159.4321  132.8895 H   0  0  0  0  0  0  0  0  0  0  0  0
  149.9532  157.0417  132.5860 H   0  0  0  0  0  0  0  0  0  0  0  0
  148.2406  154.5034  131.5257 H   0  0  0  0  0  0  0  0  0  0  0  0
  149.4354  154.7206  132.8551 H   0  0  0  0  0  0  0  0  0  0  0  0
  146.8410  152.6380  131.8710 H   0  0  0  0  0  0  0  0  0  0  0  0
  146.2390  152.2110  133.5120 H   0  0  0  0  0  0  0  0  0  0  0  0
  145.8132  155.7309  132.9741 H   0  0  0  0  0  0  0  0  0  0  0  0
  141.0562  158.3385  133.7303 H   0  0  0  0  0  0  0  0  0  0  0  0
  139.9270  157.7976  134.6525 H   0  0  0  0  0  0  0  0  0  0  0  0
  142.5526  159.4773  135.5772 H   0  0  0  0  0  0  0  0  0  0  0  0
  141.6832  159.1340  136.8197 H   0  0  0  0  0  0  0  0  0  0  0  0
  1  2  1  0
  2  3  1  0
  3  4  1  0
  4  5  2  0
  4  6  1  0
  6  7  1  0
  7  8  1  0
  8  9  1  0
  8 10  2  0
  7 11  2  0
 11 12  1  0
 12 13  2  0
 13 14  1  0
 14 15  2  0
 15 16  1  0
 16 17  1  0
 17 18  1  0
 17 19  2  0
 15 20  1  0
 20 21  2  0
  2 22  1  0
 22 23  1  0
 23  2  1  0
 21  6  1  0
 21 12  1  0
  1 24  1  0
  1 25  1  0
  1 26  1  0
  9 27  1  0
 11 28  1  0
 13 29  1  0
 14 30  1  0
 16 31  1  0
 16 32  1  0
 18 33  1  0
 18 34  1  0
 20 35  1  0
 22 36  1  0
 22 37  1  0
 23 38  1  0
 23 39  1  0
M  CHG  1   9  -1
M  END
>  <UniqueID>  (79) 
76

>  <SMILES>  (79) 
CC1(OC(=O)n2c(C([NH-])=O)cc3ccc(CC(N)=O)cc32)CC1

>  <Energy>  (79) 
348.4640589697236

>  <Genealogy>  (79) 
CC1(OC(=O)n2c(C([NH-])=O)cc3ccc(CC(N)=O)cc32)CC1 (protonated)
CC1(OC(=O)n2c(C([NH-])=O)cc3ccc(CC(N)=O)cc32)CC1 (3D coordinates assigned)
CC1(OC(=O)n2c(C([NH-])=O)cc3ccc(CC(N)=O)cc32)CC1 (nonaromatic ring conformer: 348.4640589697236 kcal/mol)

>  <smiles>  (79) 
CC1(OC(=O)n2c(C(N)=O)cc3ccc(CC(N)=O)cc32)CC1

>  <score_type>  (79) 
oracle

>  <origin>  (79) 
adg

>  <m_score__min__energy>  (79) 
-8.0299999999999994

>  <m_primary>  (79) 
energy

$$$$
79:0
     RDKit          3D

 39 40  0  0  0  0  0  0  0  0999 V2000
  138.5790  160.1180  131.0620 C   0  0  0  0  0  0  0  0  0  0  0  0
  139.5340  159.9290  131.9030 N   0  0  0  0  0  0  0  0  0  0  0  0
  140.0040  158.6080  132.2670 C   0  0  0  0  0  0  0  0  0  0  0  0
  140.5710  158.5850  133.6920 C   0  0  0  0  0  0  0  0  0  0  0  0
  141.9880  159.0950  133.7320 C   0  0  0  0  0  0  0  0  0  0  0  0
  142.2440  160.4890  133.7540 C   0  0  0  0  0  0  0  0  0  0  0  0
  143.5620  160.9740  133.7470 C   0  0  0  0  0  0  0  0  0  0  0  0
  144.5990  160.0460  133.7210 C   0  0  0  0  0  0  0  0  0  0  0  0
  145.9620  160.2390  133.6730 C   0  0  0  0  0  0  0  0  0  0  0  0
  146.5170  158.9590  133.6340 C   0  0  0  0  0  0  0  0  0  0  0  0
  147.9710  158.6750  133.6180 C   0  0  0  0  0  0  0  0  0  0  0  0
  148.4660  157.3590  133.8700 N   0  0  0  0  0  0  0  0  0  0  0  0
  148.7920  159.5970  133.3650 O   0  0  0  0  0  0  0  0  0  0  0  0
  145.5330  158.0170  133.6660 N   0  0  0  0  0  0  0  0  0  0  0  0
  145.6890  156.5920  133.5970 C   0  0  0  0  0  0  0  0  0  0  0  0
  146.3320  156.0790  132.6430 O   0  0  0  0  0  0  0  0  0  0  0  0
  145.1430  155.7090  134.6820 C   0  0  0  0  0  0  0  0  0  0  0  0
  145.8900  154.3740  134.7090 C   0  0  0  0  0  0  0  0  0  0  0  0
  146.9270  154.3750  135.7870 C   0  0  0  0  0  0  0  0  0  0  0  0
  147.7340  155.3360  135.8880 O   0  0  0  0  0  0  0  0  0  0  0  0
  146.9700  153.3400  136.7110 O   0  0  0  0  0  0  0  0  0  0  0  0
  144.3680  158.6960  133.7110 C   0  0  0  0  0  0  0  0  0  0  0  0
  143.0660  158.1840  133.6960 C   0  0  0  0  0  0  0  0  0  0  0  0
  138.2564  161.1406  130.8168 H   0  0  0  0  0  0  0  0  0  0  0  0
  138.0851  159.2569  130.5881 H   0  0  0  0  0  0  0  0  0  0  0  0
  139.1641  157.9004  132.2052 H   0  0  0  0  0  0  0  0  0  0  0  0
  140.8077  158.3243  131.5716 H   0  0  0  0  0  0  0  0  0  0  0  0
  139.9446  159.2198  134.3360 H   0  0  0  0  0  0  0  0  0  0  0  0
  140.5694  157.5438  134.0468 H   0  0  0  0  0  0  0  0  0  0  0  0
  141.4027  161.1973  133.7768 H   0  0  0  0  0  0  0  0  0  0  0  0
  143.7685  162.0544  133.7616 H   0  0  0  0  0  0  0  0  0  0  0  0
  146.4993  161.1988  133.6667 H   0  0  0  0  0  0  0  0  0  0  0  0
  149.4910  157.1680  133.8200 H   0  0  0  0  0  0  0  0  0  0  0  0
  147.8310  156.5800  134.1500 H   0  0  0  0  0  0  0  0  0  0  0  0
  145.2633  156.2114  135.6531 H   0  0  0  0  0  0  0  0  0  0  0  0
  144.0778  155.5181  134.4848 H   0  0  0  0  0  0  0  0  0  0  0  0
  145.1727  153.5617  134.8977 H   0  0  0  0  0  0  0  0  0  0  0  0
  146.3860  154.2245  133.7386 H   0  0  0  0  0  0  0  0  0  0  0  0
  142.8868  157.0994  133.6572 H   0  0  0  0  0  0  0  0  0  0  0  0
  1  2  2  0
  2  3  1  0
  3  4  1  0
  4  5  1  0
  5  6  2  0
  6  7  1  0
  7  8  2  0
  8  9  1  0
  9 10  2  0
 10 11  1  0
 11 12  1  0
 11 13  2  0
 10 14  1  0
 14 15  1  0
 15 16  2  0
 15 17  1  0
 17 18  1  0
 18 19  1  0
 19 20  2  0
 19 21  1  0
 14 22  1  0
 22 23  2  0
 23  5  1  0
 22  8  1  0
  1 24  1  0
  1 25  1  0
  3 26  1  0
  3 27  1  0
  4 28  1  0
  4 29  1  0
  6 30  1  0
  7 31  1  0
  9 32  1  0
 12 33  1  0
 12 34  1  0
 17 35  1  0
 17 36  1  0
 18 37  1  0
 18 38  1  0
 23 39  1  0
M  CHG  1  21  -1
M  END
>  <UniqueID>  (80) 
77

>  <SMILES>  (80) 
C=NCCc1ccc2cc(C(N)=O)n(C(=O)CCC(=O)[O-])c2c1

>  <Energy>  (80) 
70.19122031260842

>  <Genealogy>  (80) 
C=NCCc1ccc2cc(C(N)=O)n(C(=O)CCC(=O)[O-])c2c1 (protonated)
C=NCCc1ccc2cc(C(N)=O)n(C(=O)CCC(=O)[O-])c2c1 (3D coordinates assigned)
C=NCCc1ccc2cc(C(N)=O)n(C(=O)CCC(=O)[O-])c2c1 (optimized conformer: 70.19122031260842 kcal/mol)

>  <smiles>  (80) 
C=NCCc1ccc2cc(C(N)=O)n(C(=O)CCC(=O)O)c2c1

>  <score_type>  (80) 
oracle

>  <origin>  (80) 
adg

>  <m_score__min__energy>  (80) 
-7.1200000000000001

>  <m_primary>  (80) 
energy

$$$$
80:0
     RDKit          3D

 44 45  0  0  0  0  0  0  0  0999 V2000
  140.6020  159.0320  132.0970 C   0  0  0  0  0  0  0  0  0  0  0  0
  139.4510  158.2790  132.7980 C   0  0  0  0  0  0  0  0  0  0  0  0
  138.1210  158.7440  132.1840 C   0  0  0  0  0  0  0  0  0  0  0  0
  139.5760  156.7510  132.5970 C   0  0  0  0  0  0  0  0  0  0  0  0
  139.1610  156.0510  133.7380 O   0  0  0  0  0  0  0  0  0  0  0  0
  139.4050  158.6050  134.2290 N   0  0  0  0  0  0  0  0  0  0  0  0
  140.4920  158.6410  135.1640 C   0  0  0  0  0  0  0  0  0  0  0  0
  140.5350  159.4990  136.0840 O   0  0  0  0  0  0  0  0  0  0  0  0
  141.6180  157.6710  135.0090 C   0  0  0  0  0  0  0  0  0  0  0  0
  142.8200  158.3760  134.4460 C   0  0  0  0  0  0  0  0  0  0  0  0
  142.8130  159.7850  134.2980 C   0  0  0  0  0  0  0  0  0  0  0  0
  143.9450  160.4590  133.8080 C   0  0  0  0  0  0  0  0  0  0  0  0
  145.0700  159.7020  133.4930 C   0  0  0  0  0  0  0  0  0  0  0  0
  146.2900  160.0920  132.9900 C   0  0  0  0  0  0  0  0  0  0  0  0
  147.0310  158.9180  132.8760 C   0  0  0  0  0  0  0  0  0  0  0  0
  148.4390  158.8820  132.4320 C   0  0  0  0  0  0  0  0  0  0  0  0
  148.8970  157.9000  131.5020 N   0  0  0  0  0  0  0  0  0  0  0  0
  149.2630  159.6990  132.9210 O   0  0  0  0  0  0  0  0  0  0  0  0
  146.2940  157.8440  133.2740 N   0  0  0  0  0  0  0  0  0  0  0  0
  146.6440  156.4520  133.2110 C   0  0  0  0  0  0  0  0  0  0  0  0
  146.7370  155.8860  132.0890 O   0  0  0  0  0  0  0  0  0  0  0  0
  146.9550  155.6680  134.4530 C   0  0  0  0  0  0  0  0  0  0  0  0
  147.4790  154.4360  134.1080 F   0  0  0  0  0  0  0  0  0  0  0  0
  147.8860  156.3580  135.2070 F   0  0  0  0  0  0  0  0  0  0  0  0
  145.8170  155.4810  135.2160 F   0  0  0  0  0  0  0  0  0  0  0  0
  145.0990  158.3410  133.6550 C   0  0  0  0  0  0  0  0  0  0  0  0
  143.9840  157.6410  134.1250 C   0  0  0  0  0  0  0  0  0  0  0  0
  141.2695  159.4687  132.8545 H   0  0  0  0  0  0  0  0  0  0  0  0
  141.1700  158.3303  131.4685 H   0  0  0  0  0  0  0  0  0  0  0  0
  140.1866  159.8335  131.4685 H   0  0  0  0  0  0  0  0  0  0  0  0
  137.4126  158.9917  132.9883 H   0  0  0  0  0  0  0  0  0  0  0  0
  138.2957  159.6344  131.5622 H   0  0  0  0  0  0  0  0  0  0  0  0
  137.7028  157.9387  131.5622 H   0  0  0  0  0  0  0  0  0  0  0  0
  138.9499  156.4495  131.7443 H   0  0  0  0  0  0  0  0  0  0  0  0
  140.6328  156.5113  132.4083 H   0  0  0  0  0  0  0  0  0  0  0  0
  139.0340  156.7310  134.4500 H   0  0  0  0  0  0  0  0  0  0  0  0
  141.8709  157.2444  135.9909 H   0  0  0  0  0  0  0  0  0  0  0  0
  141.3137  156.8661  134.3238 H   0  0  0  0  0  0  0  0  0  0  0  0
  141.9133  160.3569  134.5691 H   0  0  0  0  0  0  0  0  0  0  0  0
  143.9420  161.5512  133.6774 H   0  0  0  0  0  0  0  0  0  0  0  0
  146.6112  161.1122  132.7330 H   0  0  0  0  0  0  0  0  0  0  0  0
  149.8840  157.9200  131.1630 H   0  0  0  0  0  0  0  0  0  0  0  0
  148.2880  157.1020  131.2150 H   0  0  0  0  0  0  0  0  0  0  0  0
  144.0117  156.5476  134.2419 H   0  0  0  0  0  0  0  0  0  0  0  0
  1  2  1  0
  2  3  1  0
  2  4  1  0
  4  5  1  0
  2  6  1  0
  6  7  1  0
  7  8  2  0
  7  9  1  0
  9 10  1  0
 10 11  2  0
 11 12  1  0
 12 13  2  0
 13 14  1  0
 14 15  2  0
 15 16  1  0
 16 17  1  0
 16 18  2  0
 15 19  1  0
 19 20  1  0
 20 21  2  0
 20 22  1  0
 22 23  1  0
 22 24  1  0
 22 25  1  0
 19 26  1  0
 26 27  2  0
 27 10  1  0
 26 13  1  0
  1 28  1  0
  1 29  1  0
  1 30  1  0
  3 31  1  0
  3 32  1  0
  3 33  1  0
  4 34  1  0
  4 35  1  0
  5 36  1  0
  9 37  1  0
  9 38  1  0
 11 39  1  0
 12 40  1  0
 14 41  1  0
 17 42  1  0
 17 43  1  0
 27 44  1  0
M  CHG  1   6  -1
M  END
>  <UniqueID>  (81) 
78

>  <SMILES>  (81) 
CC(C)(CO)[N-]C(=O)Cc1ccc2cc(C(N)=O)n(C(=O)C(F)(F)F)c2c1

>  <Energy>  (81) 
78.3847542271221

>  <Genealogy>  (81) 
CC(C)(CO)[N-]C(=O)Cc1ccc2cc(C(N)=O)n(C(=O)C(F)(F)F)c2c1 (protonated)
CC(C)(CO)[N-]C(=O)Cc1ccc2cc(C(N)=O)n(C(=O)C(F)(F)F)c2c1 (3D coordinates assigned)
CC(C)(CO)[N-]C(=O)Cc1ccc2cc(C(N)=O)n(C(=O)C(F)(F)F)c2c1 (optimized conformer: 78.3847542271221 kcal/mol)

>  <smiles>  (81) 
CC(C)(CO)NC(=O)Cc1ccc2cc(C(N)=O)n(C(=O)C(F)(F)F)c2c1

>  <score_type>  (81) 
oracle

>  <origin>  (81) 
adg

>  <m_score__min__energy>  (81) 
-6.7000000000000002

>  <m_primary>  (81) 
energy

$$$$
81:0
     RDKit          3D

 30 31  0  0  0  0  0  0  0  0999 V2000
  149.2710  161.6240  130.4120 C   0  0  0  0  0  0  0  0  0  0  0  0
  149.4780  160.1790  130.7480 C   0  0  0  0  0  0  0  0  0  0  0  0
  149.6160  159.3610  129.8500 O   0  0  0  0  0  0  0  0  0  0  0  0
  149.5140  159.7270  132.1810 C   0  0  0  0  0  0  0  0  0  0  0  0
  148.1540  159.2490  132.6110 C   0  0  0  0  0  0  0  0  0  0  0  0
  147.8480  157.8650  132.5830 C   0  0  0  0  0  0  0  0  0  0  0  0
  146.5770  157.4060  132.9640 C   0  0  0  0  0  0  0  0  0  0  0  0
  145.6300  158.3520  133.3490 C   0  0  0  0  0  0  0  0  0  0  0  0
  144.3390  158.1780  133.7910 C   0  0  0  0  0  0  0  0  0  0  0  0
  143.8610  159.4600  134.0400 C   0  0  0  0  0  0  0  0  0  0  0  0
  142.4790  159.7390  134.4790 C   0  0  0  0  0  0  0  0  0  0  0  0
  141.7170  160.7980  133.8970 N   0  0  0  0  0  0  0  0  0  0  0  0
  141.9420  158.9940  135.3420 O   0  0  0  0  0  0  0  0  0  0  0  0
  144.8200  160.3930  133.7780 N   0  0  0  0  0  0  0  0  0  0  0  0
  144.7500  161.8090  134.0170 C   0  0  0  0  0  0  0  0  0  0  0  0
  145.5580  162.3610  134.8100 O   0  0  0  0  0  0  0  0  0  0  0  0
  143.7940  162.5870  133.3750 O   0  0  0  0  0  0  0  0  0  0  0  0
  145.8980  159.6980  133.3520 C   0  0  0  0  0  0  0  0  0  0  0  0
  147.1640  160.1800  132.9970 C   0  0  0  0  0  0  0  0  0  0  0  0
  149.1873  162.2080  131.3404 H   0  0  0  0  0  0  0  0  0  0  0  0
  150.1259  161.9899  129.8244 H   0  0  0  0  0  0  0  0  0  0  0  0
  148.3478  161.7352  129.8244 H   0  0  0  0  0  0  0  0  0  0  0  0
  150.2373  158.9047  132.2842 H   0  0  0  0  0  0  0  0  0  0  0  0
  149.8135  160.5736  132.8162 H   0  0  0  0  0  0  0  0  0  0  0  0
  148.6134  157.1441  132.2598 H   0  0  0  0  0  0  0  0  0  0  0  0
  146.3366  156.3326  132.9586 H   0  0  0  0  0  0  0  0  0  0  0  0
  143.7999  157.2278  133.9199 H   0  0  0  0  0  0  0  0  0  0  0  0
  142.0690  161.3210  133.0660 H   0  0  0  0  0  0  0  0  0  0  0  0
  140.7550  161.0040  134.2460 H   0  0  0  0  0  0  0  0  0  0  0  0
  147.3824  161.2579  133.0182 H   0  0  0  0  0  0  0  0  0  0  0  0
  1  2  1  0
  2  3  2  0
  2  4  1  0
  4  5  1  0
  5  6  2  0
  6  7  1  0
  7  8  2  0
  8  9  1  0
  9 10  2  0
 10 11  1  0
 11 12  1  0
 11 13  2  0
 10 14  1  0
 14 15  1  0
 15 16  2  0
 15 17  1  0
 14 18  1  0
 18 19  2  0
 19  5  1  0
 18  8  1  0
  1 20  1  0
  1 21  1  0
  1 22  1  0
  4 23  1  0
  4 24  1  0
  6 25  1  0
  7 26  1  0
  9 27  1  0
 12 28  1  0
 12 29  1  0
 19 30  1  0
M  CHG  1  17  -1
M  END
>  <UniqueID>  (82) 
79

>  <SMILES>  (82) 
CC(=O)Cc1ccc2cc(C(N)=O)n(C(=O)[O-])c2c1

>  <Energy>  (82) 
66.86858765091347

>  <Genealogy>  (82) 
CC(=O)Cc1ccc2cc(C(N)=O)n(C(=O)[O-])c2c1 (protonated)
CC(=O)Cc1ccc2cc(C(N)=O)n(C(=O)[O-])c2c1 (3D coordinates assigned)
CC(=O)Cc1ccc2cc(C(N)=O)n(C(=O)[O-])c2c1 (optimized conformer: 66.86858765091347 kcal/mol)

>  <smiles>  (82) 
CC(=O)Cc1ccc2cc(C(N)=O)n(C(=O)O)c2c1

>  <score_type>  (82) 
oracle

>  <origin>  (82) 
adg

>  <m_score__min__energy>  (82) 
-6.6799999999999997

>  <m_primary>  (82) 
energy

$$$$
82:0
     RDKit          3D

 30 31  0  0  0  0  0  0  0  0999 V2000
  139.8840  157.3920  134.0710 C   0  0  0  0  0  0  0  0  0  0  0  0
  140.3150  158.6860  134.7720 C   0  0  1  0  0  0  0  0  0  0  0  0
  140.2500  158.5540  136.2700 C   0  0  0  0  0  0  0  0  0  0  0  0
  139.4980  157.6880  136.7910 O   0  0  0  0  0  0  0  0  0  0  0  0
  140.9690  159.4150  137.0920 O   0  0  0  0  0  0  0  0  0  0  0  0
  141.7030  159.1090  134.3340 C   0  0  0  0  0  0  0  0  0  0  0  0
  141.9900  160.4830  134.1310 C   0  0  0  0  0  0  0  0  0  0  0  0
  143.2720  160.8990  133.7360 C   0  0  0  0  0  0  0  0  0  0  0  0
  144.2440  159.9240  133.5400 C   0  0  0  0  0  0  0  0  0  0  0  0
  145.5680  160.0550  133.1910 C   0  0  0  0  0  0  0  0  0  0  0  0
  146.0680  158.7570  133.1530 C   0  0  0  0  0  0  0  0  0  0  0  0
  147.4520  158.4330  132.7590 C   0  0  0  0  0  0  0  0  0  0  0  0
  147.7400  157.3200  131.9110 N   0  0  0  0  0  0  0  0  0  0  0  0
  148.3940  159.1840  133.1310 O   0  0  0  0  0  0  0  0  0  0  0  0
  145.0980  157.8560  133.4770 N   0  0  0  0  0  0  0  0  0  0  0  0
  145.2470  156.4380  133.6580 C   0  0  0  0  0  0  0  0  0  0  0  0
  145.1010  155.9240  134.7990 O   0  0  0  0  0  0  0  0  0  0  0  0
  145.5520  155.6170  132.5800 O   0  0  0  0  0  0  0  0  0  0  0  0
  143.9830  158.5880  133.7090 C   0  0  0  0  0  0  0  0  0  0  0  0
  142.7220  158.1470  134.1250 C   0  0  0  0  0  0  0  0  0  0  0  0
  139.6311  156.6328  134.8258 H   0  0  0  0  0  0  0  0  0  0  0  0
  139.0037  157.5913  133.4422 H   0  0  0  0  0  0  0  0  0  0  0  0
  140.7080  157.0237  133.4422 H   0  0  0  0  0  0  0  0  0  0  0  0
  139.6041  159.4702  134.4726 H   0  0  0  0  0  0  0  0  0  0  0  0
  141.1991  161.2318  134.2848 H   0  0  0  0  0  0  0  0  0  0  0  0
  143.5004  161.9645  133.5861 H   0  0  0  0  0  0  0  0  0  0  0  0
  146.1149  160.9871  132.9857 H   0  0  0  0  0  0  0  0  0  0  0  0
  146.9740  156.7840  131.4480 H   0  0  0  0  0  0  0  0  0  0  0  0
  148.7300  157.0830  131.6740 H   0  0  0  0  0  0  0  0  0  0  0  0
  142.5260  157.0767  134.2863 H   0  0  0  0  0  0  0  0  0  0  0  0
  1  2  1  0
  2  3  1  0
  3  4  2  0
  3  5  1  0
  2  6  1  0
  6  7  2  0
  7  8  1  0
  8  9  2  0
  9 10  1  0
 10 11  2  0
 11 12  1  0
 12 13  1  0
 12 14  2  0
 11 15  1  0
 15 16  1  0
 16 17  2  0
 16 18  1  0
 15 19  1  0
 19 20  2  0
 20  6  1  0
 19  9  1  0
  1 21  1  0
  1 22  1  0
  1 23  1  0
  2 24  1  6
  7 25  1  0
  8 26  1  0
 10 27  1  0
 13 28  1  0
 13 29  1  0
 20 30  1  0
M  CHG  2   5  -1  18  -1
M  END
>  <UniqueID>  (83) 
80

>  <SMILES>  (83) 
C[C@@H](C(=O)[O-])c1ccc2cc(C(N)=O)n(C(=O)[O-])c2c1

>  <Energy>  (83) 
69.0217989516983

>  <Genealogy>  (83) 
CC(C(=O)[O-])c1ccc2cc(C(N)=O)n(C(=O)[O-])c2c1 (protonated)
C[C@@H](C(=O)[O-])c1ccc2cc(C(N)=O)n(C(=O)[O-])c2c1 (chirality)
C[C@@H](C(=O)[O-])c1ccc2cc(C(N)=O)n(C(=O)[O-])c2c1 (3D coordinates assigned)
C[C@@H](C(=O)[O-])c1ccc2cc(C(N)=O)n(C(=O)[O-])c2c1 (optimized conformer: 69.0217989516983 kcal/mol)

>  <smiles>  (83) 
CC(C(=O)O)c1ccc2cc(C(N)=O)n(C(=O)O)c2c1

>  <score_type>  (83) 
oracle

>  <origin>  (83) 
adg

>  <m_score__min__energy>  (83) 
-6.8700000000000001

>  <m_primary>  (83) 
energy

$$$$
83:0
     RDKit          3D

 46 48  0  0  0  0  0  0  0  0999 V2000
  138.3610  158.0260  131.2920 N   0  0  0  0  0  0  0  0  0  0  0  0
  139.5640  158.6590  131.7310 C   0  0  0  0  0  0  0  0  0  0  0  0
  140.2110  159.3730  130.9240 O   0  0  0  0  0  0  0  0  0  0  0  0
  140.0650  158.4590  133.1090 C   0  0  0  0  0  0  0  0  0  0  0  0
  140.4510  159.4950  133.9580 C   0  0  0  0  0  0  0  0  0  0  0  0
  140.7460  158.8910  135.1600 C   0  0  0  0  0  0  0  0  0  0  0  0
  141.1890  159.4450  136.3560 C   0  0  0  0  0  0  0  0  0  0  0  0
  141.4310  158.5760  137.4330 C   0  0  0  0  0  0  0  0  0  0  0  0
  141.2150  157.1800  137.3040 C   0  0  0  0  0  0  0  0  0  0  0  0
  141.5340  156.2620  138.4560 C   0  0  0  0  0  0  0  0  0  0  0  0
  142.0640  156.9820  139.5130 F   0  0  0  0  0  0  0  0  0  0  0  0
  140.3970  155.6110  138.9020 F   0  0  0  0  0  0  0  0  0  0  0  0
  142.4590  155.3210  138.0440 F   0  0  0  0  0  0  0  0  0  0  0  0
  140.7840  156.6530  136.0630 C   0  0  0  0  0  0  0  0  0  0  0  0
  140.5400  157.5440  135.0130 C   0  0  0  0  0  0  0  0  0  0  0  0
  140.1260  157.2630  133.7600 N   0  0  0  0  0  0  0  0  0  0  0  0
  139.8750  155.9530  133.2300 C   0  0  0  0  0  0  0  0  0  0  0  0
  138.7430  155.6880  132.7430 O   0  0  0  0  0  0  0  0  0  0  0  0
  140.8930  154.8570  133.3950 C   0  0  0  0  0  0  0  0  0  0  0  0
  140.3340  153.4870  132.9890 C   0  0  0  0  0  0  0  0  0  0  0  0
  141.4640  152.4380  132.8990 C   0  0  0  0  0  0  0  0  0  0  0  0
  141.0350  151.0450  133.1660 N   0  0  0  0  0  0  0  0  0  0  0  0
  139.8520  150.6300  132.4020 C   0  0  0  0  0  0  0  0  0  0  0  0
  140.3220  149.7350  131.2680 C   0  0  0  0  0  0  0  0  0  0  0  0
  141.6880  149.2290  131.6900 C   0  0  0  0  0  0  0  0  0  0  0  0
  142.0860  150.0470  132.9150 C   0  0  0  0  0  0  0  0  0  0  0  0
  137.7540  157.4940  131.9540 H   0  0  0  0  0  0  0  0  0  0  0  0
  138.0410  158.1390  130.3050 H   0  0  0  0  0  0  0  0  0  0  0  0
  140.5079  160.5671  133.7187 H   0  0  0  0  0  0  0  0  0  0  0  0
  141.3450  160.5293  136.4557 H   0  0  0  0  0  0  0  0  0  0  0  0
  141.7927  158.9834  138.3886 H   0  0  0  0  0  0  0  0  0  0  0  0
  140.6445  155.5703  135.9279 H   0  0  0  0  0  0  0  0  0  0  0  0
  141.7657  155.0852  132.7654 H   0  0  0  0  0  0  0  0  0  0  0  0
  141.1709  154.8089  134.4582 H   0  0  0  0  0  0  0  0  0  0  0  0
  139.5983  153.1611  133.7390 H   0  0  0  0  0  0  0  0  0  0  0  0
  139.8589  153.5789  132.0012 H   0  0  0  0  0  0  0  0  0  0  0  0
  141.8892  152.4778  131.8853 H   0  0  0  0  0  0  0  0  0  0  0  0
  142.1919  152.6957  133.6825 H   0  0  0  0  0  0  0  0  0  0  0  0
  139.1608  150.0759  133.0541 H   0  0  0  0  0  0  0  0  0  0  0  0
  139.3238  151.5090  132.0040 H   0  0  0  0  0  0  0  0  0  0  0  0
  139.6268  148.8940  131.1287 H   0  0  0  0  0  0  0  0  0  0  0  0
  140.3653  150.2770  130.3118 H   0  0  0  0  0  0  0  0  0  0  0  0
  141.6364  148.1603  131.9456 H   0  0  0  0  0  0  0  0  0  0  0  0
  142.4235  149.3380  130.8794 H   0  0  0  0  0  0  0  0  0  0  0  0
  142.1862  149.3849  133.7877 H   0  0  0  0  0  0  0  0  0  0  0  0
  143.0496  150.5477  132.7394 H   0  0  0  0  0  0  0  0  0  0  0  0
  1  2  1  0
  2  3  2  0
  2  4  1  0
  4  5  2  0
  5  6  1  0
  6  7  2  0
  7  8  1  0
  8  9  2  0
  9 10  1  0
 10 11  1  0
 10 12  1  0
 10 13  1  0
  9 14  1  0
 14 15  2  0
 15 16  1  0
 16 17  1  0
 17 18  2  0
 17 19  1  0
 19 20  1  0
 20 21  1  0
 21 22  1  0
 22 23  1  0
 23 24  1  0
 24 25  1  0
 25 26  1  0
 16  4  1  0
 26 22  1  0
 15  6  1  0
  1 27  1  0
  1 28  1  0
  5 29  1  0
  7 30  1  0
  8 31  1  0
 14 32  1  0
 19 33  1  0
 19 34  1  0
 20 35  1  0
 20 36  1  0
 21 37  1  0
 21 38  1  0
 23 39  1  0
 23 40  1  0
 24 41  1  0
 24 42  1  0
 25 43  1  0
 25 44  1  0
 26 45  1  0
 26 46  1  0
M  END
>  <UniqueID>  (84) 
81

>  <SMILES>  (84) 
NC(=O)c1cc2ccc(C(F)(F)F)cc2n1C(=O)CCCN1CCCC1

>  <Energy>  (84) 
88.99841612285138

>  <Genealogy>  (84) 
NC(=O)c1cc2ccc(C(F)(F)F)cc2n1C(=O)CCCN1CCCC1 (3D coordinates assigned)
NC(=O)c1cc2ccc(C(F)(F)F)cc2n1C(=O)CCCN1CCCC1 (nonaromatic ring conformer: 88.99841612285138 kcal/mol)

>  <smiles>  (84) 
NC(=O)c1cc2ccc(C(F)(F)F)cc2n1C(=O)CCCN1CCCC1

>  <score_type>  (84) 
oracle

>  <origin>  (84) 
adg

>  <m_score__min__energy>  (84) 
-7.9000000000000004

>  <m_primary>  (84) 
energy

$$$$
84:0
     RDKit          3D

 32 33  0  0  0  0  0  0  0  0999 V2000
  146.8500  154.9530  134.7690 C   0  0  0  0  0  0  0  0  0  0  0  0
  147.9490  155.8000  134.4550 O   0  0  0  0  0  0  0  0  0  0  0  0
  148.4870  155.8870  133.1670 C   0  0  0  0  0  0  0  0  0  0  0  0
  148.7030  154.8470  132.4870 O   0  0  0  0  0  0  0  0  0  0  0  0
  148.8540  157.2260  132.6130 C   0  0  0  0  0  0  0  0  0  0  0  0
  147.7810  158.2270  132.9370 C   0  0  0  0  0  0  0  0  0  0  0  0
  148.1170  159.5880  133.1400 C   0  0  0  0  0  0  0  0  0  0  0  0
  147.1170  160.5410  133.4000 C   0  0  0  0  0  0  0  0  0  0  0  0
  145.7960  160.1040  133.4460 C   0  0  0  0  0  0  0  0  0  0  0  0
  144.6350  160.8130  133.6520 C   0  0  0  0  0  0  0  0  0  0  0  0
  143.6090  159.8730  133.5790 C   0  0  0  0  0  0  0  0  0  0  0  0
  142.1890  160.1920  133.8360 C   0  0  0  0  0  0  0  0  0  0  0  0
  141.2230  160.1260  132.7910 N   0  0  0  0  0  0  0  0  0  0  0  0
  141.8170  160.4840  135.0040 O   0  0  0  0  0  0  0  0  0  0  0  0
  144.1170  158.6320  133.3270 N   0  0  0  0  0  0  0  0  0  0  0  0
  143.3950  157.4120  133.0950 C   0  0  0  0  0  0  0  0  0  0  0  0
  142.2000  157.4160  132.3150 N   0  0  0  0  0  0  0  0  0  0  0  0
  143.8350  156.3240  133.5530 O   0  0  0  0  0  0  0  0  0  0  0  0
  145.4560  158.7900  133.2530 C   0  0  0  0  0  0  0  0  0  0  0  0
  146.4280  157.8230  132.9790 C   0  0  0  0  0  0  0  0  0  0  0  0
  146.7481  154.8744  135.8614 H   0  0  0  0  0  0  0  0  0  0  0  0
  145.9278  155.3762  134.3442 H   0  0  0  0  0  0  0  0  0  0  0  0
  147.0244  153.9534  134.3442 H   0  0  0  0  0  0  0  0  0  0  0  0
  149.8054  157.5554  133.0561 H   0  0  0  0  0  0  0  0  0  0  0  0
  148.9585  157.1489  131.5207 H   0  0  0  0  0  0  0  0  0  0  0  0
  149.1702  159.9020  133.0938 H   0  0  0  0  0  0  0  0  0  0  0  0
  147.3703  161.5991  133.5621 H   0  0  0  0  0  0  0  0  0  0  0  0
  144.5374  161.8932  133.8355 H   0  0  0  0  0  0  0  0  0  0  0  0
  141.4740  159.7470  131.8510 H   0  0  0  0  0  0  0  0  0  0  0  0
  141.8630  158.2950  131.8640 H   0  0  0  0  0  0  0  0  0  0  0  0
  141.6690  156.5310  132.1580 H   0  0  0  0  0  0  0  0  0  0  0  0
  146.1464  156.7747  132.8007 H   0  0  0  0  0  0  0  0  0  0  0  0
  1  2  1  0
  2  3  1  0
  3  4  2  0
  3  5  1  0
  5  6  1  0
  6  7  2  0
  7  8  1  0
  8  9  2  0
  9 10  1  0
 10 11  2  0
 11 12  1  0
 12 13  1  0
 12 14  2  0
 11 15  1  0
 15 16  1  0
 16 17  1  0
 16 18  2  0
 15 19  1  0
 19 20  2  0
 20  6  1  0
 19  9  1  0
  1 21  1  0
  1 22  1  0
  1 23  1  0
  5 24  1  0
  5 25  1  0
  7 26  1  0
  8 27  1  0
 10 28  1  0
 13 29  1  0
 17 30  1  0
 17 31  1  0
 20 32  1  0
M  CHG  1  13  -1
M  END
>  <UniqueID>  (85) 
82

>  <SMILES>  (85) 
COC(=O)Cc1ccc2cc(C([NH-])=O)n(C(N)=O)c2c1

>  <Energy>  (85) 
66.64403890950528

>  <Genealogy>  (85) 
COC(=O)Cc1ccc2cc(C([NH-])=O)n(C(N)=O)c2c1 (protonated)
COC(=O)Cc1ccc2cc(C([NH-])=O)n(C(N)=O)c2c1 (3D coordinates assigned)
COC(=O)Cc1ccc2cc(C([NH-])=O)n(C(N)=O)c2c1 (optimized conformer: 66.64403890950528 kcal/mol)

>  <smiles>  (85) 
COC(=O)Cc1ccc2cc(C(N)=O)n(C(N)=O)c2c1

>  <score_type>  (85) 
oracle

>  <origin>  (85) 
adg

>  <m_score__min__energy>  (85) 
-6.3099999999999996

>  <m_primary>  (85) 
energy

$$$$
85:0
     RDKit          3D

 28 29  0  0  0  0  0  0  0  0999 V2000
  141.5560  160.8900  133.7180 N   0  0  0  0  0  0  0  0  0  0  0  0
  142.3830  160.0410  134.5100 C   0  0  0  0  0  0  0  0  0  0  0  0
  141.9120  159.5260  135.5590 O   0  0  0  0  0  0  0  0  0  0  0  0
  143.7590  159.7100  134.0860 C   0  0  0  0  0  0  0  0  0  0  0  0
  144.1870  158.4110  133.8230 C   0  0  0  0  0  0  0  0  0  0  0  0
  145.4800  158.5370  133.3740 C   0  0  0  0  0  0  0  0  0  0  0  0
  146.3920  157.5590  132.9840 C   0  0  0  0  0  0  0  0  0  0  0  0
  147.6770  157.9730  132.5990 C   0  0  0  0  0  0  0  0  0  0  0  0
  148.0270  159.3460  132.6090 C   0  0  0  0  0  0  0  0  0  0  0  0
  149.4210  159.7710  132.2410 C   0  0  0  0  0  0  0  0  0  0  0  0
  149.4290  160.5490  130.5980 P   0  0  1  0  0  0  0  0  0  0  0  0
  149.8630  161.9920  130.7190 O   0  0  0  0  0  0  0  0  0  0  0  0
  150.5010  159.7240  129.5820 O   0  0  0  0  0  0  0  0  0  0  0  0
  147.8720  160.4890  129.9390 O   0  0  0  0  0  0  0  0  0  0  0  0
  147.0790  160.3090  133.0210 C   0  0  0  0  0  0  0  0  0  0  0  0
  145.8000  159.8710  133.3820 C   0  0  0  0  0  0  0  0  0  0  0  0
  144.7530  160.6050  133.8220 N   0  0  0  0  0  0  0  0  0  0  0  0
  144.7440  162.0220  134.0550 C   0  0  0  0  0  0  0  0  0  0  0  0
  143.8680  162.7510  133.5180 O   0  0  0  0  0  0  0  0  0  0  0  0
  145.7190  162.6080  134.8530 O   0  0  0  0  0  0  0  0  0  0  0  0
  141.9070  161.8120  133.3730 H   0  0  0  0  0  0  0  0  0  0  0  0
  143.6122  157.4815  133.9481 H   0  0  0  0  0  0  0  0  0  0  0  0
  146.1138  156.4948  132.9779 H   0  0  0  0  0  0  0  0  0  0  0  0
  148.4196  157.2240  132.2865 H   0  0  0  0  0  0  0  0  0  0  0  0
  149.7894  160.4918  132.9858 H   0  0  0  0  0  0  0  0  0  0  0  0
  150.0722  158.8847  132.2209 H   0  0  0  0  0  0  0  0  0  0  0  0
  147.7020  161.4070  129.6090 H   0  0  0  0  0  0  0  0  0  0  0  0
  147.3399  161.3770  133.0571 H   0  0  0  0  0  0  0  0  0  0  0  0
  1  2  1  0
  2  3  2  0
  2  4  1  0
  4  5  2  0
  5  6  1  0
  6  7  2  0
  7  8  1  0
  8  9  2  0
  9 10  1  0
 10 11  1  0
 11 12  2  0
 11 13  1  6
 11 14  1  0
  9 15  1  0
 15 16  2  0
 16 17  1  0
 17 18  1  0
 18 19  2  0
 18 20  1  0
 17  4  1  0
 16  6  1  0
  1 21  1  0
  5 22  1  0
  7 23  1  0
  8 24  1  0
 10 25  1  0
 10 26  1  0
 14 27  1  0
 15 28  1  0
M  CHG  3   1  -1  13  -1  20  -1
M  END
>  <UniqueID>  (86) 
83

>  <SMILES>  (86) 
[NH-]C(=O)c1cc2ccc(C[P@@](=O)([O-])O)cc2n1C(=O)[O-]

>  <Energy>  (86) 
62.42647274254022

>  <Genealogy>  (86) 
[NH-]C(=O)c1cc2ccc(CP(=O)([O-])O)cc2n1C(=O)[O-] (protonated)
[NH-]C(=O)c1cc2ccc(C[P@@](=O)([O-])O)cc2n1C(=O)[O-] (chirality)
[NH-]C(=O)c1cc2ccc(C[P@@](=O)([O-])O)cc2n1C(=O)[O-] (3D coordinates assigned)
[NH-]C(=O)c1cc2ccc(C[P@@](=O)([O-])O)cc2n1C(=O)[O-] (optimized conformer: 62.42647274254022 kcal/mol)

>  <smiles>  (86) 
NC(=O)c1cc2ccc(CP(=O)(O)O)cc2n1C(=O)O

>  <score_type>  (86) 
oracle

>  <origin>  (86) 
adg

>  <m_score__min__energy>  (86) 
-6.7800000000000002

>  <m_primary>  (86) 
energy

$$$$
86:0
     RDKit          3D

 46 47  0  0  0  0  0  0  0  0999 V2000
  148.5550  157.3940  133.7330 N   0  0  0  0  0  0  0  0  0  0  0  0
  148.0150  158.7070  133.5730 C   0  0  0  0  0  0  0  0  0  0  0  0
  148.7970  159.6920  133.5070 O   0  0  0  0  0  0  0  0  0  0  0  0
  146.5570  158.9360  133.5480 C   0  0  0  0  0  0  0  0  0  0  0  0
  145.9760  160.1950  133.6850 C   0  0  0  0  0  0  0  0  0  0  0  0
  144.6180  159.9710  133.6760 C   0  0  0  0  0  0  0  0  0  0  0  0
  143.5630  160.8740  133.7580 C   0  0  0  0  0  0  0  0  0  0  0  0
  142.2550  160.3690  133.6770 C   0  0  0  0  0  0  0  0  0  0  0  0
  142.0280  158.9800  133.5160 C   0  0  0  0  0  0  0  0  0  0  0  0
  140.6260  158.4570  133.3750 C   0  0  0  0  0  0  0  0  0  0  0  0
  139.9000  158.5890  134.6750 C   0  0  0  0  0  0  0  0  0  0  0  0
  138.7430  158.1020  134.7990 O   0  0  0  0  0  0  0  0  0  0  0  0
  140.5330  159.2220  135.7520 O   0  0  0  0  0  0  0  0  0  0  0  0
  141.2940  158.5320  136.7430 C   0  0  0  0  0  0  0  0  0  0  0  0
  140.9710  157.0330  136.7470 C   0  0  0  0  0  0  0  0  0  0  0  0
  142.0030  156.1950  135.9880 C   0  0  0  0  0  0  0  0  0  0  0  0
  141.3540  155.1560  135.2630 O   0  0  0  0  0  0  0  0  0  0  0  0
  141.2160  155.1960  133.8900 N   0  0  0  0  0  0  0  0  0  0  0  0
  140.0960  155.3280  133.3580 O   0  0  0  0  0  0  0  0  0  0  0  0
  142.3340  155.0800  133.0970 O   0  0  0  0  0  0  0  0  0  0  0  0
  143.1230  158.0940  133.4220 C   0  0  0  0  0  0  0  0  0  0  0  0
  144.4160  158.6220  133.5270 C   0  0  0  0  0  0  0  0  0  0  0  0
  145.5980  157.9720  133.4430 N   0  0  0  0  0  0  0  0  0  0  0  0
  145.7900  156.5740  133.1770 C   0  0  0  0  0  0  0  0  0  0  0  0
  146.6200  156.2100  132.2990 O   0  0  0  0  0  0  0  0  0  0  0  0
  145.0560  155.6220  133.8910 O   0  0  0  0  0  0  0  0  0  0  0  0
  145.6570  154.6230  134.7110 C   0  0  0  0  0  0  0  0  0  0  0  0
  147.1260  154.8730  134.8410 C   0  0  0  0  0  0  0  0  0  0  0  0
  147.9270  154.4070  133.9890 O   0  0  0  0  0  0  0  0  0  0  0  0
  147.6070  155.6390  135.8950 O   0  0  0  0  0  0  0  0  0  0  0  0
  149.5880  157.2460  133.7070 H   0  0  0  0  0  0  0  0  0  0  0  0
  147.9410  156.5820  133.9640 H   0  0  0  0  0  0  0  0  0  0  0  0
  146.4924  161.1616  133.7801 H   0  0  0  0  0  0  0  0  0  0  0  0
  143.7477  161.9512  133.8825 H   0  0  0  0  0  0  0  0  0  0  0  0
  141.3996  161.0578  133.7391 H   0  0  0  0  0  0  0  0  0  0  0  0
  140.0975  159.0342  132.6020 H   0  0  0  0  0  0  0  0  0  0  0  0
  140.6628  157.3960  133.0871 H   0  0  0  0  0  0  0  0  0  0  0  0
  142.3650  158.6676  136.5316 H   0  0  0  0  0  0  0  0  0  0  0  0
  141.0376  158.9459  137.7294 H   0  0  0  0  0  0  0  0  0  0  0  0
  140.9360  156.6851  137.7899 H   0  0  0  0  0  0  0  0  0  0  0  0
  140.0046  156.9041  136.2375 H   0  0  0  0  0  0  0  0  0  0  0  0
  142.5504  156.8410  135.2859 H   0  0  0  0  0  0  0  0  0  0  0  0
  142.7026  155.7471  136.7091 H   0  0  0  0  0  0  0  0  0  0  0  0
  142.9647  157.0161  133.2701 H   0  0  0  0  0  0  0  0  0  0  0  0
  145.1951  154.6466  135.7091 H   0  0  0  0  0  0  0  0  0  0  0  0
  145.5013  153.6379  134.2470 H   0  0  0  0  0  0  0  0  0  0  0  0
  1  2  1  0
  2  3  2  0
  2  4  1  0
  4  5  2  0
  5  6  1  0
  6  7  2  0
  7  8  1  0
  8  9  2  0
  9 10  1  0
 10 11  1  0
 11 12  2  0
 11 13  1  0
 13 14  1  0
 14 15  1  0
 15 16  1  0
 16 17  1  0
 17 18  1  0
 18 19  2  0
 18 20  1  0
  9 21  1  0
 21 22  2  0
 22 23  1  0
 23 24  1  0
 24 25  2  0
 24 26  1  0
 26 27  1  0
 27 28  1  0
 28 29  2  0
 28 30  1  0
 23  4  1  0
 22  6  1  0
  1 31  1  0
  1 32  1  0
  5 33  1  0
  7 34  1  0
  8 35  1  0
 10 36  1  0
 10 37  1  0
 14 38  1  0
 14 39  1  0
 15 40  1  0
 15 41  1  0
 16 42  1  0
 16 43  1  0
 21 44  1  0
 27 45  1  0
 27 46  1  0
M  CHG  3  18   1  20  -1  30  -1
M  END
>  <UniqueID>  (87) 
84

>  <SMILES>  (87) 
NC(=O)c1cc2ccc(CC(=O)OCCCO[N+](=O)[O-])cc2n1C(=O)OCC(=O)[O-]

>  <Energy>  (87) 
75.06024211683422

>  <Genealogy>  (87) 
NC(=O)c1cc2ccc(CC(=O)OCCCO[N+](=O)[O-])cc2n1C(=O)OCC(=O)[O-] (protonated)
NC(=O)c1cc2ccc(CC(=O)OCCCO[N+](=O)[O-])cc2n1C(=O)OCC(=O)[O-] (3D coordinates assigned)
NC(=O)c1cc2ccc(CC(=O)OCCCO[N+](=O)[O-])cc2n1C(=O)OCC(=O)[O-] (optimized conformer: 75.06024211683422 kcal/mol)

>  <smiles>  (87) 
NC(=O)c1cc2ccc(CC(=O)OCCCO[N+](=O)[O-])cc2n1C(=O)OCC(=O)O

>  <score_type>  (87) 
oracle

>  <origin>  (87) 
adg

>  <m_score__min__energy>  (87) 
-7.4500000000000002

>  <m_primary>  (87) 
energy

$$$$
87:0
     RDKit          3D

 46 47  0  0  0  0  0  0  0  0999 V2000
  137.4400  159.7650  131.0800 C   0  0  0  0  0  0  0  0  0  0  0  0
  138.6780  159.8500  130.5850 C   0  0  0  0  0  0  0  0  0  0  0  0
  139.8650  159.3730  131.3650 C   0  0  0  0  0  0  0  0  0  0  0  0
  139.9100  160.0380  132.6220 O   0  0  0  0  0  0  0  0  0  0  0  0
  140.8600  159.7380  133.6030 C   0  0  0  0  0  0  0  0  0  0  0  0
  140.9910  160.4860  134.6110 O   0  0  0  0  0  0  0  0  0  0  0  0
  141.6720  158.5610  133.4710 N   0  0  0  0  0  0  0  0  0  0  0  0
  141.2580  157.2620  133.4660 C   0  0  0  0  0  0  0  0  0  0  0  0
  139.8570  156.7960  133.4170 C   0  0  0  0  0  0  0  0  0  0  0  0
  138.7990  157.6000  133.9330 N   0  0  0  0  0  0  0  0  0  0  0  0
  139.5840  155.6960  132.8680 O   0  0  0  0  0  0  0  0  0  0  0  0
  142.3530  156.4000  133.4290 C   0  0  0  0  0  0  0  0  0  0  0  0
  143.4600  157.2170  133.4040 C   0  0  0  0  0  0  0  0  0  0  0  0
  144.8120  156.8900  133.3680 C   0  0  0  0  0  0  0  0  0  0  0  0
  145.7430  157.9410  133.3760 C   0  0  0  0  0  0  0  0  0  0  0  0
  145.3100  159.2890  133.4350 C   0  0  0  0  0  0  0  0  0  0  0  0
  146.3170  160.4070  133.4180 C   0  0  0  0  0  0  0  0  0  0  0  0
  147.7190  159.8640  133.1160 C   0  0  0  0  0  0  0  0  0  0  0  0
  148.3010  160.5060  131.8500 C   0  0  0  0  0  0  0  0  0  0  0  0
  148.9570  159.4850  131.0020 N   0  0  0  0  0  0  0  0  0  0  0  0
  149.9620  160.0970  130.1160 C   0  0  0  0  0  0  0  0  0  0  0  0
  149.6040  158.4640  131.8420 C   0  0  0  0  0  0  0  0  0  0  0  0
  143.9290  159.5830  133.4590 C   0  0  0  0  0  0  0  0  0  0  0  0
  143.0220  158.5160  133.4310 C   0  0  0  0  0  0  0  0  0  0  0  0
  136.5850  160.1223  130.4873 H   0  0  0  0  0  0  0  0  0  0  0  0
  137.2757  159.3377  132.0802 H   0  0  0  0  0  0  0  0  0  0  0  0
  138.8291  160.2793  129.5836 H   0  0  0  0  0  0  0  0  0  0  0  0
  139.7840  158.2881  131.5277 H   0  0  0  0  0  0  0  0  0  0  0  0
  140.7840  159.5939  130.8023 H   0  0  0  0  0  0  0  0  0  0  0  0
  138.8520  158.6430  133.9010 H   0  0  0  0  0  0  0  0  0  0  0  0
  142.3358  155.3002  133.4214 H   0  0  0  0  0  0  0  0  0  0  0  0
  145.1411  155.8409  133.3343 H   0  0  0  0  0  0  0  0  0  0  0  0
  146.8190  157.7158  133.3361 H   0  0  0  0  0  0  0  0  0  0  0  0
  146.0362  161.1350  132.6427 H   0  0  0  0  0  0  0  0  0  0  0  0
  146.3283  160.8900  134.4062 H   0  0  0  0  0  0  0  0  0  0  0  0
  148.3803  160.0846  133.9669 H   0  0  0  0  0  0  0  0  0  0  0  0
  147.6450  158.7785  132.9540 H   0  0  0  0  0  0  0  0  0  0  0  0
  147.4893  160.9819  131.2802 H   0  0  0  0  0  0  0  0  0  0  0  0
  149.0496  161.2561  132.1449 H   0  0  0  0  0  0  0  0  0  0  0  0
  150.7450  160.5738  130.7239 H   0  0  0  0  0  0  0  0  0  0  0  0
  150.4129  159.3200  129.4812 H   0  0  0  0  0  0  0  0  0  0  0  0
  149.4786  160.8542  129.4812 H   0  0  0  0  0  0  0  0  0  0  0  0
  149.4484  158.7096  132.9029 H   0  0  0  0  0  0  0  0  0  0  0  0
  149.1649  157.4790  131.6254 H   0  0  0  0  0  0  0  0  0  0  0  0
  150.6822  158.4405  131.6254 H   0  0  0  0  0  0  0  0  0  0  0  0
  143.5745  160.6236  133.4987 H   0  0  0  0  0  0  0  0  0  0  0  0
  1  2  2  0
  2  3  1  0
  3  4  1  0
  4  5  1  0
  5  6  2  0
  5  7  1  0
  7  8  1  0
  8  9  1  0
  9 10  1  0
  9 11  2  0
  8 12  2  0
 12 13  1  0
 13 14  2  0
 14 15  1  0
 15 16  2  0
 16 17  1  0
 17 18  1  0
 18 19  1  0
 19 20  1  0
 20 21  1  0
 20 22  1  0
 16 23  1  0
 23 24  2  0
 24  7  1  0
 24 13  1  0
  1 25  1  0
  1 26  1  0
  2 27  1  0
  3 28  1  0
  3 29  1  0
 10 30  1  0
 12 31  1  0
 14 32  1  0
 15 33  1  0
 17 34  1  0
 17 35  1  0
 18 36  1  0
 18 37  1  0
 19 38  1  0
 19 39  1  0
 21 40  1  0
 21 41  1  0
 21 42  1  0
 22 43  1  0
 22 44  1  0
 22 45  1  0
 23 46  1  0
M  CHG  1  10  -1
M  END
>  <UniqueID>  (88) 
85

>  <SMILES>  (88) 
C=CCOC(=O)n1c(C([NH-])=O)cc2ccc(CCCN(C)C)cc21

>  <Energy>  (88) 
75.66750014948897

>  <Genealogy>  (88) 
C=CCOC(=O)n1c(C([NH-])=O)cc2ccc(CCCN(C)C)cc21 (protonated)
C=CCOC(=O)n1c(C([NH-])=O)cc2ccc(CCCN(C)C)cc21 (3D coordinates assigned)
C=CCOC(=O)n1c(C([NH-])=O)cc2ccc(CCCN(C)C)cc21 (optimized conformer: 75.66750014948897 kcal/mol)

>  <smiles>  (88) 
C=CCOC(=O)n1c(C(N)=O)cc2ccc(CCCN(C)C)cc21

>  <score_type>  (88) 
oracle

>  <origin>  (88) 
adg

>  <m_score__min__energy>  (88) 
-7.1200000000000001

>  <m_primary>  (88) 
energy

$$$$
88:0
     RDKit          3D

 54 55  0  0  0  0  0  0  0  0999 V2000
  141.5160  158.9940  136.2080 C   0  0  0  0  0  0  0  0  0  0  0  0
  141.6160  157.7500  135.3340 C   0  0  0  0  0  0  0  0  0  0  0  0
  142.9490  157.5750  134.8590 O   0  0  0  0  0  0  0  0  0  0  0  0
  143.3990  158.0590  133.6250 C   0  0  0  0  0  0  0  0  0  0  0  0
  142.6610  157.9880  132.6050 O   0  0  0  0  0  0  0  0  0  0  0  0
  144.7160  158.6200  133.5180 N   0  0  0  0  0  0  0  0  0  0  0  0
  145.0750  159.9290  133.6310 C   0  0  0  0  0  0  0  0  0  0  0  0
  144.1500  161.0790  133.7090 C   0  0  0  0  0  0  0  0  0  0  0  0
  142.7770  160.9400  133.3610 N   0  0  0  0  0  0  0  0  0  0  0  0
  144.5910  162.2120  134.0420 O   0  0  0  0  0  0  0  0  0  0  0  0
  146.4620  160.0620  133.5870 C   0  0  0  0  0  0  0  0  0  0  0  0
  146.9460  158.7820  133.4330 C   0  0  0  0  0  0  0  0  0  0  0  0
  148.2580  158.3260  133.3560 C   0  0  0  0  0  0  0  0  0  0  0  0
  148.4670  156.9410  133.2430 C   0  0  0  0  0  0  0  0  0  0  0  0
  147.3690  156.0460  133.2120 C   0  0  0  0  0  0  0  0  0  0  0  0
  147.6070  154.5600  133.1680 C   0  0  0  0  0  0  0  0  0  0  0  0
  146.4210  153.7840  133.7560 C   0  0  0  0  0  0  0  0  0  0  0  0
  146.1560  154.1890  135.1450 N   0  0  0  0  0  0  0  0  0  0  0  0
  144.8400  154.7120  135.5240 C   0  0  0  0  0  0  0  0  0  0  0  0
  147.1870  154.1050  136.1440 C   0  0  0  0  0  0  0  0  0  0  0  0
  148.0930  154.9800  136.1900 O   0  0  0  0  0  0  0  0  0  0  0  0
  147.1680  153.0460  137.0670 O   0  0  0  0  0  0  0  0  0  0  0  0
  148.3030  152.4780  137.7350 C   0  0  0  0  0  0  0  0  0  0  0  0
  149.2230  151.8970  136.6500 C   0  0  0  0  0  0  0  0  0  0  0  0
  147.8630  151.3410  138.6760 C   0  0  0  0  0  0  0  0  0  0  0  0
  149.0750  153.5620  138.5130 C   0  0  0  0  0  0  0  0  0  0  0  0
  146.0520  156.5460  133.3000 C   0  0  0  0  0  0  0  0  0  0  0  0
  145.8720  157.9300  133.3940 C   0  0  0  0  0  0  0  0  0  0  0  0
  141.5396  158.7004  137.2678 H   0  0  0  0  0  0  0  0  0  0  0  0
  142.3634  159.6618  135.9936 H   0  0  0  0  0  0  0  0  0  0  0  0
  140.5729  159.5179  135.9936 H   0  0  0  0  0  0  0  0  0  0  0  0
  141.3243  156.8691  135.9247 H   0  0  0  0  0  0  0  0  0  0  0  0
  140.9450  157.8690  134.4705 H   0  0  0  0  0  0  0  0  0  0  0  0
  142.4510  160.1490  132.7610 H   0  0  0  0  0  0  0  0  0  0  0  0
  147.0456  160.9916  133.6598 H   0  0  0  0  0  0  0  0  0  0  0  0
  149.1050  159.0274  133.3827 H   0  0  0  0  0  0  0  0  0  0  0  0
  149.4924  156.5481  133.1780 H   0  0  0  0  0  0  0  0  0  0  0  0
  147.7527  154.2520  132.1221 H   0  0  0  0  0  0  0  0  0  0  0  0
  148.4998  154.3350  133.7699 H   0  0  0  0  0  0  0  0  0  0  0  0
  145.5260  153.9816  133.1477 H   0  0  0  0  0  0  0  0  0  0  0  0
  146.6675  152.7120  133.7469 H   0  0  0  0  0  0  0  0  0  0  0  0
  144.7600  154.7438  136.6206 H   0  0  0  0  0  0  0  0  0  0  0  0
  144.7180  155.7270  135.1179 H   0  0  0  0  0  0  0  0  0  0  0  0
  144.0545  154.0577  135.1179 H   0  0  0  0  0  0  0  0  0  0  0  0
  150.0617  151.3674  137.1255 H   0  0  0  0  0  0  0  0  0  0  0  0
  148.6534  151.1945  136.0239 H   0  0  0  0  0  0  0  0  0  0  0  0
  149.6125  152.7133  136.0239 H   0  0  0  0  0  0  0  0  0  0  0  0
  147.9869  151.6613  139.7210 H   0  0  0  0  0  0  0  0  0  0  0  0
  146.8063  151.0990  138.4895 H   0  0  0  0  0  0  0  0  0  0  0  0
  148.4815  150.4507  138.4895 H   0  0  0  0  0  0  0  0  0  0  0  0
  148.9550  153.3935  139.5934 H   0  0  0  0  0  0  0  0  0  0  0  0
  150.1420  153.5120  138.2504 H   0  0  0  0  0  0  0  0  0  0  0  0
  148.6789  154.5540  138.2504 H   0  0  0  0  0  0  0  0  0  0  0  0
  145.1887  155.8643  133.2948 H   0  0  0  0  0  0  0  0  0  0  0  0
  1  2  1  0
  2  3  1  0
  3  4  1  0
  4  5  2  0
  4  6  1  0
  6  7  1  0
  7  8  1  0
  8  9  1  0
  8 10  2  0
  7 11  2  0
 11 12  1  0
 12 13  2  0
 13 14  1  0
 14 15  2  0
 15 16  1  0
 16 17  1  0
 17 18  1  0
 18 19  1  0
 18 20  1  0
 20 21  2  0
 20 22  1  0
 22 23  1  0
 23 24  1  0
 23 25  1  0
 23 26  1  0
 15 27  1  0
 27 28  2  0
 28  6  1  0
 28 12  1  0
  1 29  1  0
  1 30  1  0
  1 31  1  0
  2 32  1  0
  2 33  1  0
  9 34  1  0
 11 35  1  0
 13 36  1  0
 14 37  1  0
 16 38  1  0
 16 39  1  0
 17 40  1  0
 17 41  1  0
 19 42  1  0
 19 43  1  0
 19 44  1  0
 24 45  1  0
 24 46  1  0
 24 47  1  0
 25 48  1  0
 25 49  1  0
 25 50  1  0
 26 51  1  0
 26 52  1  0
 26 53  1  0
 27 54  1  0
M  CHG  1   9  -1
M  END
>  <UniqueID>  (89) 
86

>  <SMILES>  (89) 
CCOC(=O)n1c(C([NH-])=O)cc2ccc(CCN(C)C(=O)OC(C)(C)C)cc21

>  <Energy>  (89) 
76.76478763337784

>  <Genealogy>  (89) 
CCOC(=O)n1c(C([NH-])=O)cc2ccc(CCN(C)C(=O)OC(C)(C)C)cc21 (protonated)
CCOC(=O)n1c(C([NH-])=O)cc2ccc(CCN(C)C(=O)OC(C)(C)C)cc21 (3D coordinates assigned)
CCOC(=O)n1c(C([NH-])=O)cc2ccc(CCN(C)C(=O)OC(C)(C)C)cc21 (optimized conformer: 76.76478763337784 kcal/mol)

>  <smiles>  (89) 
CCOC(=O)n1c(C(N)=O)cc2ccc(CCN(C)C(=O)OC(C)(C)C)cc21

>  <score_type>  (89) 
oracle

>  <origin>  (89) 
adg

>  <m_score__min__energy>  (89) 
-7.7199999999999998

>  <m_primary>  (89) 
energy

$$$$
89:0
     RDKit          3D

 37 39  0  0  0  0  0  0  0  0999 V2000
  141.4060  155.6480  132.5810 H   0  0  0  0  0  0  0  0  0  0  0  0
  140.6210  155.9910  133.1750 N   0  0  0  0  0  0  0  0  0  0  0  0
  140.7920  157.1270  134.0210 C   0  0  0  0  0  0  0  0  0  0  0  0
  139.8800  157.4400  134.8300 O   0  0  0  0  0  0  0  0  0  0  0  0
  142.0580  157.8850  133.9870 C   0  0  0  0  0  0  0  0  0  0  0  0
  142.1320  159.2610  134.1920 C   0  0  0  0  0  0  0  0  0  0  0  0
  141.3137  159.9377  134.4791 H   0  0  0  0  0  0  0  0  0  0  0  0
  143.4460  159.5930  133.9590 C   0  0  0  0  0  0  0  0  0  0  0  0
  144.0750  160.8320  134.0110 C   0  0  0  0  0  0  0  0  0  0  0  0
  143.5128  161.7429  134.2645 H   0  0  0  0  0  0  0  0  0  0  0  0
  145.4500  160.8850  133.7300 C   0  0  0  0  0  0  0  0  0  0  0  0
  145.9729  161.8523  133.7577 H   0  0  0  0  0  0  0  0  0  0  0  0
  146.1750  159.7040  133.4100 C   0  0  0  0  0  0  0  0  0  0  0  0
  147.6650  159.7320  133.1220 C   0  0  0  0  0  0  0  0  0  0  0  0
  147.7579  160.8155  132.9564 H   0  0  0  0  0  0  0  0  0  0  0  0
  148.1450  158.6970  132.1130 C   0  0  0  0  0  0  0  0  0  0  0  0
  147.3346  158.0784  131.7000 H   0  0  0  0  0  0  0  0  0  0  0  0
  148.6209  159.0406  131.1827 H   0  0  0  0  0  0  0  0  0  0  0  0
  148.9600  158.0010  133.1120 N   0  0  0  0  0  0  0  0  0  0  0  0
  148.6110  157.0340  133.3070 H   0  0  0  0  0  0  0  0  0  0  0  0
  149.9850  158.0780  132.9100 H   0  0  0  0  0  0  0  0  0  0  0  0
  148.5240  158.9670  134.1220 C   0  0  0  0  0  0  0  0  0  0  0  0
  147.9457  158.5143  134.9409 H   0  0  0  0  0  0  0  0  0  0  0  0
  149.2840  159.5137  134.6995 H   0  0  0  0  0  0  0  0  0  0  0  0
  145.4930  158.4650  133.3650 C   0  0  0  0  0  0  0  0  0  0  0  0
  146.0313  157.5368  133.1226 H   0  0  0  0  0  0  0  0  0  0  0  0
  144.1200  158.4440  133.6350 C   0  0  0  0  0  0  0  0  0  0  0  0
  143.2830  157.3820  133.6560 N   0  0  0  0  0  0  0  0  0  0  0  0
  143.6380  156.0050  133.4360 C   0  0  0  0  0  0  0  0  0  0  0  0
  143.5800  155.5240  132.2710 O   0  0  0  0  0  0  0  0  0  0  0  0
  144.1840  155.2000  134.5490 C   0  0  0  0  0  0  0  0  0  0  0  0
  143.4746  154.5625  135.0970 H   0  0  0  0  0  0  0  0  0  0  0  0
  145.4650  155.1730  134.9550 C   0  0  0  0  0  0  0  0  0  0  0  0
  145.6822  154.5917  135.8633 H   0  0  0  0  0  0  0  0  0  0  0  0
  146.6130  155.8440  134.3070 C   0  0  0  0  0  0  0  0  0  0  0  0
  146.7760  155.8400  133.0590 O   0  0  0  0  0  0  0  0  0  0  0  0
  147.5630  156.4630  135.1090 O   0  0  0  0  0  0  0  0  0  0  0  0
  1  2  1  0
  2  3  1  0
  3  4  2  0
  3  5  1  0
  5  6  2  0
  6  7  1  0
  6  8  1  0
  8  9  2  0
  9 10  1  0
  9 11  1  0
 11 12  1  0
 11 13  2  0
 13 14  1  0
 14 15  1  0
 14 16  1  0
 16 17  1  0
 16 18  1  0
 16 19  1  0
 19 20  1  0
 19 21  1  0
 19 22  1  0
 22 23  1  0
 22 24  1  0
 13 25  1  0
 25 26  1  0
 25 27  2  0
 27 28  1  0
 28 29  1  0
 29 30  2  0
 29 31  1  0
 31 32  1  0
 31 33  2  0
 33 34  1  0
 33 35  1  0
 35 36  2  0
 35 37  1  0
 28  5  1  0
 27  8  1  0
 22 14  1  0
M  CHG  3   2  -1  19   1  37  -1
M  END
>  <UniqueID>  (90) 
87

>  <SMILES>  (90) 
[NH-]C(=O)c1cc2ccc(C3C[NH2+]C3)cc2n1C(=O)/C=C\C(=O)[O-]

>  <Energy>  (90) 
155.83583901151127

>  <Genealogy>  (90) 
[NH-]C(=O)c1cc2ccc(C3C[NH2+]C3)cc2n1C(=O)/C=C\C(=O)[O-] (protonated)
[NH-]C(=O)c1cc2ccc(C3C[NH2+]C3)cc2n1C(=O)/C=C\C(=O)[O-] (cis-trans isomerization)
[NH-]C(=O)c1cc2ccc(C3C[NH2+]C3)cc2n1C(=O)/C=C\C(=O)[O-] (3D coordinates assigned)
[NH-]C(=O)c1cc2ccc(C3C[NH2+]C3)cc2n1C(=O)/C=C\C(=O)[O-] (nonaromatic ring conformer: 155.83583901151127 kcal/mol)

>  <smiles>  (90) 
NC(=O)c1cc2ccc(C3CNC3)cc2n1C(=O)/C=C\C(=O)O

>  <score_type>  (90) 
oracle

>  <origin>  (90) 
adg

>  <m_score__min__energy>  (90) 
-5.7599999999999998

>  <m_primary>  (90) 
energy

$$$$
90:0
     RDKit          3D

 43 45  0  0  0  0  0  0  0  0999 V2000
  140.8610  159.4150  133.6820 C   0  0  0  0  0  0  0  0  0  0  0  0
  141.5410  158.6630  134.8410 C   0  0  0  0  0  0  0  0  0  0  0  0
  141.1440  159.3310  136.1670 C   0  0  0  0  0  0  0  0  0  0  0  0
  141.0920  157.1900  134.8720 C   0  0  0  0  0  0  0  0  0  0  0  0
  142.9690  158.7570  134.7330 O   0  0  0  0  0  0  0  0  0  0  0  0
  143.7400  158.4540  133.5990 C   0  0  0  0  0  0  0  0  0  0  0  0
  143.2310  157.8590  132.6110 O   0  0  0  0  0  0  0  0  0  0  0  0
  145.1180  158.8510  133.5580 N   0  0  0  0  0  0  0  0  0  0  0  0
  145.6220  160.1140  133.6500 C   0  0  0  0  0  0  0  0  0  0  0  0
  144.8590  161.3310  133.9970 C   0  0  0  0  0  0  0  0  0  0  0  0
  143.4630  161.4210  133.7270 N   0  0  0  0  0  0  0  0  0  0  0  0
  145.4380  162.2850  134.5820 O   0  0  0  0  0  0  0  0  0  0  0  0
  147.0010  160.1070  133.4500 C   0  0  0  0  0  0  0  0  0  0  0  0
  147.3310  158.7880  133.2350 C   0  0  0  0  0  0  0  0  0  0  0  0
  148.5690  158.2040  132.9830 C   0  0  0  0  0  0  0  0  0  0  0  0
  148.6120  156.8160  132.7740 C   0  0  0  0  0  0  0  0  0  0  0  0
  147.4230  156.0460  132.7860 C   0  0  0  0  0  0  0  0  0  0  0  0
  147.5080  154.5490  132.6000 C   0  0  1  0  0  0  0  0  0  0  0  0
  148.8210  153.8980  133.0270 C   0  0  0  0  0  0  0  0  0  0  0  0
  147.5650  153.6740  133.8590 C   0  0  1  0  0  0  0  0  0  0  0  0
  147.5770  154.3530  135.2000 C   0  0  0  0  0  0  0  0  0  0  0  0
  148.0620  155.5080  135.3110 O   0  0  0  0  0  0  0  0  0  0  0  0
  146.9900  153.7480  136.3060 O   0  0  0  0  0  0  0  0  0  0  0  0
  146.1880  156.6680  133.0820 C   0  0  0  0  0  0  0  0  0  0  0  0
  146.1780  158.0500  133.3030 C   0  0  0  0  0  0  0  0  0  0  0  0
  140.1755  160.1730  134.0889 H   0  0  0  0  0  0  0  0  0  0  0  0
  141.6270  159.9070  133.0646 H   0  0  0  0  0  0  0  0  0  0  0  0
  140.2947  158.7022  133.0646 H   0  0  0  0  0  0  0  0  0  0  0  0
  141.5064  158.7212  137.0077 H   0  0  0  0  0  0  0  0  0  0  0  0
  141.5928  160.3338  136.2212 H   0  0  0  0  0  0  0  0  0  0  0  0
  140.0486  159.4161  136.2212 H   0  0  0  0  0  0  0  0  0  0  0  0
  140.9912  156.8593  135.9163 H   0  0  0  0  0  0  0  0  0  0  0  0
  140.1229  157.0912  134.3609 H   0  0  0  0  0  0  0  0  0  0  0  0
  141.8412  156.5675  134.3609 H   0  0  0  0  0  0  0  0  0  0  0  0
  142.8990  160.5670  133.5210 H   0  0  0  0  0  0  0  0  0  0  0  0
  147.6811  160.9715  133.4615 H   0  0  0  0  0  0  0  0  0  0  0  0
  149.4857  158.8111  132.9486 H   0  0  0  0  0  0  0  0  0  0  0  0
  149.5789  156.3216  132.5992 H   0  0  0  0  0  0  0  0  0  0  0  0
  146.8848  154.5534  131.6936 H   0  0  0  0  0  0  0  0  0  0  0  0
  149.2419  153.0718  132.4352 H   0  0  0  0  0  0  0  0  0  0  0  0
  149.8359  154.2656  133.2386 H   0  0  0  0  0  0  0  0  0  0  0  0
  146.9784  152.8118  134.2091 H   0  0  0  0  0  0  0  0  0  0  0  0
  145.2594  156.0809  133.1371 H   0  0  0  0  0  0  0  0  0  0  0  0
  1  2  1  0
  2  3  1  0
  2  4  1  0
  2  5  1  0
  5  6  1  0
  6  7  2  0
  6  8  1  0
  8  9  1  0
  9 10  1  0
 10 11  1  0
 10 12  2  0
  9 13  2  0
 13 14  1  0
 14 15  2  0
 15 16  1  0
 16 17  2  0
 17 18  1  0
 18 19  1  0
 19 20  1  0
 20 21  1  0
 21 22  2  0
 21 23  1  0
 17 24  1  0
 24 25  2  0
 25  8  1  0
 25 14  1  0
 20 18  1  0
  1 26  1  0
  1 27  1  0
  1 28  1  0
  3 29  1  0
  3 30  1  0
  3 31  1  0
  4 32  1  0
  4 33  1  0
  4 34  1  0
 11 35  1  0
 13 36  1  0
 15 37  1  0
 16 38  1  0
 18 39  1  6
 19 40  1  0
 19 41  1  0
 20 42  1  1
 24 43  1  0
M  CHG  2  11  -1  23  -1
M  END
>  <UniqueID>  (91) 
88

>  <SMILES>  (91) 
CC(C)(C)OC(=O)n1c(C([NH-])=O)cc2ccc([C@H]3C[C@H]3C(=O)[O-])cc21

>  <Energy>  (91) 
346.1464129868346

>  <Genealogy>  (91) 
CC(C)(C)OC(=O)n1c(C([NH-])=O)cc2ccc(C3CC3C(=O)[O-])cc21 (protonated)
CC(C)(C)OC(=O)n1c(C([NH-])=O)cc2ccc([C@H]3C[C@H]3C(=O)[O-])cc21 (chirality)
CC(C)(C)OC(=O)n1c(C([NH-])=O)cc2ccc([C@H]3C[C@H]3C(=O)[O-])cc21 (3D coordinates assigned)
CC(C)(C)OC(=O)n1c(C([NH-])=O)cc2ccc([C@H]3C[C@H]3C(=O)[O-])cc21 (nonaromatic ring conformer: 346.1464129868346 kcal/mol)

>  <smiles>  (91) 
CC(C)(C)OC(=O)n1c(C(N)=O)cc2ccc(C3CC3C(=O)O)cc21

>  <score_type>  (91) 
oracle

>  <origin>  (91) 
adg

>  <m_score__min__energy>  (91) 
-7.8700000000000001

>  <m_primary>  (91) 
energy

$$$$
91:0
     RDKit          3D

 46 48  0  0  0  0  0  0  0  0999 V2000
  137.2500  159.9380  130.7690 C   0  0  0  0  0  0  0  0  0  0  0  0
  138.4980  159.5690  131.5040 C   0  0  0  0  0  0  0  0  0  0  0  0
  139.4470  160.3970  131.5770 O   0  0  0  0  0  0  0  0  0  0  0  0
  138.6010  158.2890  132.1380 N   0  0  0  0  0  0  0  0  0  0  0  0
  139.7970  157.9020  132.8840 C   0  0  0  0  0  0  0  0  0  0  0  0
  139.7130  156.4620  133.2950 C   0  0  0  0  0  0  0  0  0  0  0  0
  138.7320  155.7640  132.9210 O   0  0  0  0  0  0  0  0  0  0  0  0
  140.6700  155.9100  134.2080 N   0  0  0  0  0  0  0  0  0  0  0  0
  141.1530  156.4660  135.3540 C   0  0  0  0  0  0  0  0  0  0  0  0
  140.8700  157.8350  135.8310 C   0  0  0  0  0  0  0  0  0  0  0  0
  139.5240  158.2410  136.0690 N   0  0  0  0  0  0  0  0  0  0  0  0
  141.8070  158.6470  136.0520 O   0  0  0  0  0  0  0  0  0  0  0  0
  142.0120  155.5780  136.0000 C   0  0  0  0  0  0  0  0  0  0  0  0
  142.0400  154.4540  135.2030 C   0  0  0  0  0  0  0  0  0  0  0  0
  142.7130  153.2480  135.3740 C   0  0  0  0  0  0  0  0  0  0  0  0
  142.5310  152.2480  134.4020 C   0  0  0  0  0  0  0  0  0  0  0  0
  141.6900  152.4750  133.2820 C   0  0  0  0  0  0  0  0  0  0  0  0
  141.4600  151.3810  132.2750 C   0  0  0  0  0  0  0  0  0  0  0  0
  140.7390  150.1970  132.9260 C   0  0  0  0  0  0  0  0  0  0  0  0
  140.0120  149.3860  131.8870 C   0  0  0  0  0  0  0  0  0  0  0  0
  138.7630  149.8050  131.4060 C   0  0  0  0  0  0  0  0  0  0  0  0
  138.0890  149.0200  130.4660 C   0  0  0  0  0  0  0  0  0  0  0  0
  138.6390  147.8550  130.0310 N   0  0  0  0  0  0  0  0  0  0  0  0
  139.8430  147.4200  130.4900 C   0  0  0  0  0  0  0  0  0  0  0  0
  140.5480  148.1730  131.4300 C   0  0  0  0  0  0  0  0  0  0  0  0
  141.0170  153.7090  133.1480 C   0  0  0  0  0  0  0  0  0  0  0  0
  141.2230  154.6840  134.1270 C   0  0  0  0  0  0  0  0  0  0  0  0
  136.4548  160.1731  131.4917 H   0  0  0  0  0  0  0  0  0  0  0  0
  137.4430  160.8175  130.1372 H   0  0  0  0  0  0  0  0  0  0  0  0
  136.9337  159.0949  130.1372 H   0  0  0  0  0  0  0  0  0  0  0  0
  137.7910  157.6320  132.0670 H   0  0  0  0  0  0  0  0  0  0  0  0
  140.6832  158.0466  132.2486 H   0  0  0  0  0  0  0  0  0  0  0  0
  139.8730  158.5269  133.7860 H   0  0  0  0  0  0  0  0  0  0  0  0
  139.3010  158.9740  136.7790 H   0  0  0  0  0  0  0  0  0  0  0  0
  142.5522  155.7400  136.9444 H   0  0  0  0  0  0  0  0  0  0  0  0
  143.3672  153.0820  136.2426 H   0  0  0  0  0  0  0  0  0  0  0  0
  143.0450  151.2816  134.5110 H   0  0  0  0  0  0  0  0  0  0  0  0
  140.8447  151.7709  131.4508 H   0  0  0  0  0  0  0  0  0  0  0  0
  142.4329  151.0389  131.8923 H   0  0  0  0  0  0  0  0  0  0  0  0
  141.4772  149.5579  133.4327 H   0  0  0  0  0  0  0  0  0  0  0  0
  140.0080  150.5816  133.6524 H   0  0  0  0  0  0  0  0  0  0  0  0
  138.3172  150.7441  131.7657 H   0  0  0  0  0  0  0  0  0  0  0  0
  137.1125  149.3451  130.0777 H   0  0  0  0  0  0  0  0  0  0  0  0
  140.2620  146.4728  130.1196 H   0  0  0  0  0  0  0  0  0  0  0  0
  141.5173  147.8178  131.8099 H   0  0  0  0  0  0  0  0  0  0  0  0
  140.3482  153.8976  132.2953 H   0  0  0  0  0  0  0  0  0  0  0  0
  1  2  1  0
  2  3  2  0
  2  4  1  0
  4  5  1  0
  5  6  1  0
  6  7  2  0
  6  8  1  0
  8  9  1  0
  9 10  1  0
 10 11  1  0
 10 12  2  0
  9 13  2  0
 13 14  1  0
 14 15  2  0
 15 16  1  0
 16 17  2  0
 17 18  1  0
 18 19  1  0
 19 20  1  0
 20 21  2  0
 21 22  1  0
 22 23  2  0
 23 24  1  0
 24 25  2  0
 17 26  1  0
 26 27  2  0
 27  8  1  0
 27 14  1  0
 25 20  1  0
  1 28  1  0
  1 29  1  0
  1 30  1  0
  4 31  1  0
  5 32  1  0
  5 33  1  0
 11 34  1  0
 13 35  1  0
 15 36  1  0
 16 37  1  0
 18 38  1  0
 18 39  1  0
 19 40  1  0
 19 41  1  0
 21 42  1  0
 22 43  1  0
 24 44  1  0
 25 45  1  0
 26 46  1  0
M  CHG  1  11  -1
M  END
>  <UniqueID>  (92) 
89

>  <SMILES>  (92) 
CC(=O)NCC(=O)n1c(C([NH-])=O)cc2ccc(CCc3ccncc3)cc21

>  <Energy>  (92) 
80.56501280983477

>  <Genealogy>  (92) 
CC(=O)NCC(=O)n1c(C([NH-])=O)cc2ccc(CCc3ccncc3)cc21 (protonated)
CC(=O)NCC(=O)n1c(C([NH-])=O)cc2ccc(CCc3ccncc3)cc21 (3D coordinates assigned)
CC(=O)NCC(=O)n1c(C([NH-])=O)cc2ccc(CCc3ccncc3)cc21 (optimized conformer: 80.56501280983477 kcal/mol)

>  <smiles>  (92) 
CC(=O)NCC(=O)n1c(C(N)=O)cc2ccc(CCc3ccncc3)cc21

>  <score_type>  (92) 
oracle

>  <origin>  (92) 
adg

>  <m_score__min__energy>  (92) 
-9.1199999999999992

>  <m_primary>  (92) 
energy

$$$$
92:0
     RDKit          3D

 45 47  0  0  0  0  0  0  0  0999 V2000
  138.8970  159.2110  131.0150 C   0  0  0  0  0  0  0  0  0  0  0  0
  138.8190  158.3510  132.2720 C   0  0  0  0  0  0  0  0  0  0  0  0
  140.0280  157.6170  132.4550 O   0  0  0  0  0  0  0  0  0  0  0  0
  140.0710  156.3160  132.9700 C   0  0  0  0  0  0  0  0  0  0  0  0
  139.0130  155.6370  133.0750 O   0  0  0  0  0  0  0  0  0  0  0  0
  141.3230  155.7600  133.3980 N   0  0  0  0  0  0  0  0  0  0  0  0
  142.3610  156.4090  133.9980 C   0  0  0  0  0  0  0  0  0  0  0  0
  142.4850  157.8700  134.1800 C   0  0  0  0  0  0  0  0  0  0  0  0
  142.6010  158.7420  133.0580 N   0  0  0  0  0  0  0  0  0  0  0  0
  142.5390  158.3520  135.3430 O   0  0  0  0  0  0  0  0  0  0  0  0
  143.3600  155.5040  134.3570 C   0  0  0  0  0  0  0  0  0  0  0  0
  142.9010  154.2730  133.9470 C   0  0  0  0  0  0  0  0  0  0  0  0
  143.4890  153.0150  134.0610 C   0  0  0  0  0  0  0  0  0  0  0  0
  142.7720  151.9090  133.5740 C   0  0  0  0  0  0  0  0  0  0  0  0
  141.4930  152.0790  132.9950 C   0  0  0  0  0  0  0  0  0  0  0  0
  140.7670  150.9460  132.5170 N   0  0  0  0  0  0  0  0  0  0  0  0
  139.4580  150.6730  131.8980 C   0  0  0  0  0  0  0  0  0  0  0  0
  139.6340  149.1840  131.7940 C   0  0  0  0  0  0  0  0  0  0  0  0
  139.7080  148.6930  130.4010 N   0  0  0  0  0  0  0  0  0  0  0  0
  138.5730  149.2220  129.6230 C   0  0  0  0  0  0  0  0  0  0  0  0
  139.6420  147.2200  130.3870 C   0  0  0  0  0  0  0  0  0  0  0  0
  140.9760  149.4940  132.3930 C   0  0  0  0  0  0  0  0  0  0  0  0
  140.9280  153.3680  132.8940 C   0  0  0  0  0  0  0  0  0  0  0  0
  141.6700  154.4550  133.3710 C   0  0  0  0  0  0  0  0  0  0  0  0
  138.9930  160.2691  131.3000 H   0  0  0  0  0  0  0  0  0  0  0  0
  139.7716  158.9110  130.4192 H   0  0  0  0  0  0  0  0  0  0  0  0
  137.9827  159.0732  130.4192 H   0  0  0  0  0  0  0  0  0  0  0  0
  138.6550  159.0005  133.1445 H   0  0  0  0  0  0  0  0  0  0  0  0
  137.9862  157.6405  132.1640 H   0  0  0  0  0  0  0  0  0  0  0  0
  141.9900  158.6230  132.2210 H   0  0  0  0  0  0  0  0  0  0  0  0
  144.3122  155.7269  134.8607 H   0  0  0  0  0  0  0  0  0  0  0  0
  144.4822  152.8916  134.5174 H   0  0  0  0  0  0  0  0  0  0  0  0
  143.2094  150.9021  133.6437 H   0  0  0  0  0  0  0  0  0  0  0  0
  138.6153  150.9561  132.5459 H   0  0  0  0  0  0  0  0  0  0  0  0
  139.2216  151.2142  130.9700 H   0  0  0  0  0  0  0  0  0  0  0  0
  138.9276  148.4445  132.1991 H   0  0  0  0  0  0  0  0  0  0  0  0
  137.7946  149.5848  130.3104 H   0  0  0  0  0  0  0  0  0  0  0  0
  138.9182  150.0520  128.9890 H   0  0  0  0  0  0  0  0  0  0  0  0
  138.1593  148.4239  128.9890 H   0  0  0  0  0  0  0  0  0  0  0  0
  139.6251  146.8439  131.4206 H   0  0  0  0  0  0  0  0  0  0  0  0
  138.7286  146.8988  129.8650 H   0  0  0  0  0  0  0  0  0  0  0  0
  140.5231  146.8184  129.8650 H   0  0  0  0  0  0  0  0  0  0  0  0
  141.1292  149.0035  133.3656 H   0  0  0  0  0  0  0  0  0  0  0  0
  141.8616  149.1639  131.8301 H   0  0  0  0  0  0  0  0  0  0  0  0
  139.9313  153.5148  132.4523 H   0  0  0  0  0  0  0  0  0  0  0  0
  1  2  1  0
  2  3  1  0
  3  4  1  0
  4  5  2  0
  4  6  1  0
  6  7  1  0
  7  8  1  0
  8  9  1  0
  8 10  2  0
  7 11  2  0
 11 12  1  0
 12 13  2  0
 13 14  1  0
 14 15  2  0
 15 16  1  0
 16 17  1  0
 17 18  1  0
 18 19  1  0
 19 20  1  0
 19 21  1  0
 18 22  1  0
 15 23  1  0
 23 24  2  0
 24  6  1  0
 24 12  1  0
 22 16  1  0
  1 25  1  0
  1 26  1  0
  1 27  1  0
  2 28  1  0
  2 29  1  0
  9 30  1  0
 11 31  1  0
 13 32  1  0
 14 33  1  0
 17 34  1  0
 17 35  1  0
 18 36  1  0
 20 37  1  0
 20 38  1  0
 20 39  1  0
 21 40  1  0
 21 41  1  0
 21 42  1  0
 22 43  1  0
 22 44  1  0
 23 45  1  0
M  CHG  1   9  -1
M  END
>  <UniqueID>  (93) 
90

>  <SMILES>  (93) 
CCOC(=O)n1c(C([NH-])=O)cc2ccc(N3CC(N(C)C)C3)cc21

>  <Energy>  (93) 
125.73899595036711

>  <Genealogy>  (93) 
CCOC(=O)n1c(C([NH-])=O)cc2ccc(N3CC(N(C)C)C3)cc21 (protonated)
CCOC(=O)n1c(C([NH-])=O)cc2ccc(N3CC(N(C)C)C3)cc21 (3D coordinates assigned)
CCOC(=O)n1c(C([NH-])=O)cc2ccc(N3CC(N(C)C)C3)cc21 (nonaromatic ring conformer: 125.73899595036711 kcal/mol)

>  <smiles>  (93) 
CCOC(=O)n1c(C(N)=O)cc2ccc(N3CC(N(C)C)C3)cc21

>  <score_type>  (93) 
oracle

>  <origin>  (93) 
adg

>  <m_score__min__energy>  (93) 
-7.29

>  <m_primary>  (93) 
energy

$$$$
93:0
     RDKit          3D

 60 61  0  0  0  0  0  0  0  0999 V2000
  137.5780  160.1180  130.7430 C   0  0  0  0  0  0  0  0  0  0  0  0
  138.8470  160.4110  131.2860 O   0  0  0  0  0  0  0  0  0  0  0  0
  139.5780  159.2140  131.5010 C   0  0  0  0  0  0  0  0  0  0  0  0
  138.7470  158.2010  132.3000 C   0  0  0  0  0  0  0  0  0  0  0  0
  139.5450  156.9390  132.6250 C   0  0  0  0  0  0  0  0  0  0  0  0
  139.4140  156.6380  134.0100 O   0  0  0  0  0  0  0  0  0  0  0  0
  140.2360  157.2110  134.9850 C   0  0  0  0  0  0  0  0  0  0  0  0
  140.8090  156.4870  135.8480 O   0  0  0  0  0  0  0  0  0  0  0  0
  140.4030  158.6970  135.0330 C   0  0  0  0  0  0  0  0  0  0  0  0
  141.7600  159.0920  134.5140 C   0  0  0  0  0  0  0  0  0  0  0  0
  142.0300  160.4510  134.2080 C   0  0  0  0  0  0  0  0  0  0  0  0
  143.2900  160.8410  133.7250 C   0  0  0  0  0  0  0  0  0  0  0  0
  144.2610  159.8560  133.5600 C   0  0  0  0  0  0  0  0  0  0  0  0
  145.5600  159.9520  133.1140 C   0  0  0  0  0  0  0  0  0  0  0  0
  146.0640  158.6540  133.1590 C   0  0  0  0  0  0  0  0  0  0  0  0
  147.4640  158.3090  132.8410 C   0  0  0  0  0  0  0  0  0  0  0  0
  147.7730  157.1190  132.1230 N   0  0  0  0  0  0  0  0  0  0  0  0
  148.4060  159.0440  133.2560 O   0  0  0  0  0  0  0  0  0  0  0  0
  145.1110  157.7920  133.6080 N   0  0  0  0  0  0  0  0  0  0  0  0
  145.1970  156.3630  133.7190 C   0  0  0  0  0  0  0  0  0  0  0  0
  144.9010  155.8140  134.8160 O   0  0  0  0  0  0  0  0  0  0  0  0
  145.5320  155.5670  132.5560 N   0  0  1  0  0  0  0  0  0  0  0  0
  146.5540  154.5480  132.8550 C   0  0  0  0  0  0  0  0  0  0  0  0
  144.3200  154.9990  131.9150 C   0  0  0  0  0  0  0  0  0  0  0  0
  143.9580  153.5650  132.3930 C   0  0  0  0  0  0  0  0  0  0  0  0
  142.7220  153.4820  133.2050 N   0  0  0  0  0  0  0  0  0  0  0  0
  142.0980  154.7910  133.4370 C   0  0  0  0  0  0  0  0  0  0  0  0
  141.7480  152.5090  132.6870 C   0  0  0  0  0  0  0  0  0  0  0  0
  144.0170  158.5400  133.8540 C   0  0  0  0  0  0  0  0  0  0  0  0
  142.7710  158.1210  134.3310 C   0  0  0  0  0  0  0  0  0  0  0  0
  136.8594  159.9521  131.5591 H   0  0  0  0  0  0  0  0  0  0  0  0
  137.2406  160.9619  130.1233 H   0  0  0  0  0  0  0  0  0  0  0  0
  137.6447  159.2116  130.1233 H   0  0  0  0  0  0  0  0  0  0  0  0
  139.8436  158.7745  130.5282 H   0  0  0  0  0  0  0  0  0  0  0  0
  140.4854  159.4545  132.0745 H   0  0  0  0  0  0  0  0  0  0  0  0
  138.4240  158.6697  133.2413 H   0  0  0  0  0  0  0  0  0  0  0  0
  137.8828  157.9089  131.6853 H   0  0  0  0  0  0  0  0  0  0  0  0
  139.1601  156.0983  132.0291 H   0  0  0  0  0  0  0  0  0  0  0  0
  140.6056  157.1039  132.3845 H   0  0  0  0  0  0  0  0  0  0  0  0
  139.6267  159.1688  134.4126 H   0  0  0  0  0  0  0  0  0  0  0  0
  140.3098  159.0320  136.0766 H   0  0  0  0  0  0  0  0  0  0  0  0
  141.2441  161.2073  134.3505 H   0  0  0  0  0  0  0  0  0  0  0  0
  143.5036  161.8929  133.4843 H   0  0  0  0  0  0  0  0  0  0  0  0
  146.0881  160.8611  132.7906 H   0  0  0  0  0  0  0  0  0  0  0  0
  147.7750  157.1070  131.0800 H   0  0  0  0  0  0  0  0  0  0  0  0
  145.9600  156.2160  131.8530 H   0  0  0  0  0  0  0  0  0  0  0  0
  146.6593  154.4430  133.9449 H   0  0  0  0  0  0  0  0  0  0  0  0
  146.2486  153.5842  132.4216 H   0  0  0  0  0  0  0  0  0  0  0  0
  147.5169  154.8562  132.4216 H   0  0  0  0  0  0  0  0  0  0  0  0
  143.4701  155.6612  132.1368 H   0  0  0  0  0  0  0  0  0  0  0  0
  144.5360  154.9279  130.8387 H   0  0  0  0  0  0  0  0  0  0  0  0
  143.8289  152.9291  131.5048 H   0  0  0  0  0  0  0  0  0  0  0  0
  144.7819  153.2344  133.0426 H   0  0  0  0  0  0  0  0  0  0  0  0
  142.0127  154.9699  134.5190 H   0  0  0  0  0  0  0  0  0  0  0  0
  142.7177  155.5782  132.9829 H   0  0  0  0  0  0  0  0  0  0  0  0
  141.0962  154.8053  132.9829 H   0  0  0  0  0  0  0  0  0  0  0  0
  141.2468  152.0084  133.5285 H   0  0  0  0  0  0  0  0  0  0  0  0
  140.9996  153.0309  132.0725 H   0  0  0  0  0  0  0  0  0  0  0  0
  142.2692  151.7601  132.0725 H   0  0  0  0  0  0  0  0  0  0  0  0
  142.5821  157.0614  134.5583 H   0  0  0  0  0  0  0  0  0  0  0  0
  1  2  1  0
  2  3  1  0
  3  4  1  0
  4  5  1  0
  5  6  1  0
  6  7  1  0
  7  8  2  0
  7  9  1  0
  9 10  1  0
 10 11  2  0
 11 12  1  0
 12 13  2  0
 13 14  1  0
 14 15  2  0
 15 16  1  0
 16 17  1  0
 16 18  2  0
 15 19  1  0
 19 20  1  0
 20 21  2  0
 20 22  1  0
 22 23  1  0
 22 24  1  0
 24 25  1  0
 25 26  1  0
 26 27  1  0
 26 28  1  0
 19 29  1  0
 29 30  2  0
 30 10  1  0
 29 13  1  0
  1 31  1  0
  1 32  1  0
  1 33  1  0
  3 34  1  0
  3 35  1  0
  4 36  1  0
  4 37  1  0
  5 38  1  0
  5 39  1  0
  9 40  1  0
  9 41  1  0
 11 42  1  0
 12 43  1  0
 14 44  1  0
 17 45  1  0
 22 46  1  6
 23 47  1  0
 23 48  1  0
 23 49  1  0
 24 50  1  0
 24 51  1  0
 25 52  1  0
 25 53  1  0
 27 54  1  0
 27 55  1  0
 27 56  1  0
 28 57  1  0
 28 58  1  0
 28 59  1  0
 30 60  1  0
M  CHG  2  17  -1  22   1
M  END
>  <UniqueID>  (94) 
91

>  <SMILES>  (94) 
COCCCOC(=O)Cc1ccc2cc(C([NH-])=O)n(C(=O)[N@@H+](C)CCN(C)C)c2c1

>  <Energy>  (94) 
97.47661278616297

>  <Genealogy>  (94) 
COCCCOC(=O)Cc1ccc2cc(C([NH-])=O)n(C(=O)[NH+](C)CCN(C)C)c2c1 (protonated)
COCCCOC(=O)Cc1ccc2cc(C([NH-])=O)n(C(=O)[N@@H+](C)CCN(C)C)c2c1 (chirality)
COCCCOC(=O)Cc1ccc2cc(C([NH-])=O)n(C(=O)[N@@H+](C)CCN(C)C)c2c1 (3D coordinates assigned)
COCCCOC(=O)Cc1ccc2cc(C([NH-])=O)n(C(=O)[N@@H+](C)CCN(C)C)c2c1 (optimized conformer: 97.47661278616297 kcal/mol)

>  <smiles>  (94) 
COCCCOC(=O)Cc1ccc2cc(C(N)=O)n(C(=O)N(C)CCN(C)C)c2c1

>  <score_type>  (94) 
oracle

>  <origin>  (94) 
adg

>  <m_score__min__energy>  (94) 
-6.4699999999999998

>  <m_primary>  (94) 
energy

$$$$
94:0
     RDKit          3D

 42 44  0  0  0  0  0  0  0  0999 V2000
  142.0660  159.8750  133.0700 N   0  0  0  0  0  0  0  0  0  0  0  0
  142.1130  159.0360  134.2200 C   0  0  0  0  0  0  0  0  0  0  0  0
  142.3770  159.5440  135.3440 O   0  0  0  0  0  0  0  0  0  0  0  0
  141.9230  157.5750  134.1060 C   0  0  0  0  0  0  0  0  0  0  0  0
  142.8340  156.6450  134.6050 C   0  0  0  0  0  0  0  0  0  0  0  0
  142.3520  155.4170  134.2150 C   0  0  0  0  0  0  0  0  0  0  0  0
  142.8680  154.1420  134.4360 C   0  0  0  0  0  0  0  0  0  0  0  0
  142.1560  153.0450  133.9240 C   0  0  0  0  0  0  0  0  0  0  0  0
  140.9430  153.2400  133.2160 C   0  0  0  0  0  0  0  0  0  0  0  0
  140.2210  152.0630  132.6110 C   0  0  0  0  0  0  0  0  0  0  0  0
  141.2050  150.9420  132.2670 C   0  0  0  0  0  0  0  0  0  0  0  0
  140.5930  149.6260  132.5730 N   0  0  0  0  0  0  0  0  0  0  0  0
  139.1090  149.6190  132.5120 C   0  0  0  0  0  0  0  0  0  0  0  0
  138.5360  148.9040  131.2680 C   0  0  0  0  0  0  0  0  0  0  0  0
  139.4470  149.0670  130.0480 C   0  0  0  0  0  0  0  0  0  0  0  0
  138.9030  148.3690  128.9820 F   0  0  0  0  0  0  0  0  0  0  0  0
  139.5040  150.4060  129.6970 F   0  0  0  0  0  0  0  0  0  0  0  0
  140.8680  148.5390  130.3310 C   0  0  0  0  0  0  0  0  0  0  0  0
  141.2170  148.5100  131.8330 C   0  0  0  0  0  0  0  0  0  0  0  0
  140.4510  154.5490  133.0090 C   0  0  0  0  0  0  0  0  0  0  0  0
  141.1910  155.6240  133.5140 C   0  0  0  0  0  0  0  0  0  0  0  0
  140.9110  156.9460  133.4410 N   0  0  0  0  0  0  0  0  0  0  0  0
  139.7320  157.5400  132.8740 C   0  0  0  0  0  0  0  0  0  0  0  0
  138.5940  157.2810  133.3520 O   0  0  0  0  0  0  0  0  0  0  0  0
  139.8360  158.4440  131.8250 O   0  0  0  0  0  0  0  0  0  0  0  0
  141.7430  159.5050  132.1480 H   0  0  0  0  0  0  0  0  0  0  0  0
  143.7447  156.8497  135.1869 H   0  0  0  0  0  0  0  0  0  0  0  0
  143.8047  153.9988  134.9946 H   0  0  0  0  0  0  0  0  0  0  0  0
  142.5426  152.0261  134.0734 H   0  0  0  0  0  0  0  0  0  0  0  0
  139.4805  151.6848  133.3311 H   0  0  0  0  0  0  0  0  0  0  0  0
  139.7225  152.3913  131.6870 H   0  0  0  0  0  0  0  0  0  0  0  0
  141.4531  150.9894  131.1964 H   0  0  0  0  0  0  0  0  0  0  0  0
  142.1200  151.0653  132.8649 H   0  0  0  0  0  0  0  0  0  0  0  0
  138.7280  149.1103  133.4098 H   0  0  0  0  0  0  0  0  0  0  0  0
  138.7873  150.6692  132.4526 H   0  0  0  0  0  0  0  0  0  0  0  0
  138.4285  147.8323  131.4914 H   0  0  0  0  0  0  0  0  0  0  0  0
  137.5626  149.3582  131.0308 H   0  0  0  0  0  0  0  0  0  0  0  0
  140.9465  147.5162  129.9339 H   0  0  0  0  0  0  0  0  0  0  0  0
  141.5753  149.2264  129.8441 H   0  0  0  0  0  0  0  0  0  0  0  0
  140.8635  147.5601  132.2604 H   0  0  0  0  0  0  0  0  0  0  0  0
  142.3083  148.6105  131.9279 H   0  0  0  0  0  0  0  0  0  0  0  0
  139.5102  154.7183  132.4647 H   0  0  0  0  0  0  0  0  0  0  0  0
  1  2  1  0
  2  3  2  0
  2  4  1  0
  4  5  2  0
  5  6  1  0
  6  7  2  0
  7  8  1  0
  8  9  2  0
  9 10  1  0
 10 11  1  0
 11 12  1  0
 12 13  1  0
 13 14  1  0
 14 15  1  0
 15 16  1  0
 15 17  1  0
 15 18  1  0
 18 19  1  0
  9 20  1  0
 20 21  2  0
 21 22  1  0
 22 23  1  0
 23 24  2  0
 23 25  1  0
 22  4  1  0
 21  6  1  0
 19 12  1  0
  1 26  1  0
  5 27  1  0
  7 28  1  0
  8 29  1  0
 10 30  1  0
 10 31  1  0
 11 32  1  0
 11 33  1  0
 13 34  1  0
 13 35  1  0
 14 36  1  0
 14 37  1  0
 18 38  1  0
 18 39  1  0
 19 40  1  0
 19 41  1  0
 20 42  1  0
M  CHG  2   1  -1  25  -1
M  END
>  <UniqueID>  (95) 
92

>  <SMILES>  (95) 
[NH-]C(=O)c1cc2ccc(CCN3CCC(F)(F)CC3)cc2n1C(=O)[O-]

>  <Energy>  (95) 
90.60339910388248

>  <Genealogy>  (95) 
[NH-]C(=O)c1cc2ccc(CCN3CCC(F)(F)CC3)cc2n1C(=O)[O-] (protonated)
[NH-]C(=O)c1cc2ccc(CCN3CCC(F)(F)CC3)cc2n1C(=O)[O-] (3D coordinates assigned)
[NH-]C(=O)c1cc2ccc(CCN3CCC(F)(F)CC3)cc2n1C(=O)[O-] (nonaromatic ring conformer: 90.60339910388248 kcal/mol)

>  <smiles>  (95) 
NC(=O)c1cc2ccc(CCN3CCC(F)(F)CC3)cc2n1C(=O)O

>  <score_type>  (95) 
oracle

>  <origin>  (95) 
adg

>  <m_score__min__energy>  (95) 
-7.0999999999999996

>  <m_primary>  (95) 
energy

$$$$
95:0
     RDKit          3D

 39 40  0  0  0  0  0  0  0  0999 V2000
  148.5405  157.1889  135.6865 H   0  0  0  0  0  0  0  0  0  0  0  0
  148.0740  156.8780  134.7400 C   0  0  0  0  0  0  0  0  0  0  0  0
  147.3700  155.5860  134.6870 C   0  0  0  0  0  0  0  0  0  0  0  0
  146.2180  155.4590  135.1890 O   0  0  0  0  0  0  0  0  0  0  0  0
  147.9970  154.5000  134.0710 O   0  0  0  0  0  0  0  0  0  0  0  0
  148.2350  154.4470  132.6690 C   0  0  0  0  0  0  0  0  0  0  0  0
  149.2937  154.2113  132.4855 H   0  0  0  0  0  0  0  0  0  0  0  0
  147.6025  153.6677  132.2189 H   0  0  0  0  0  0  0  0  0  0  0  0
  147.9929  155.4211  132.2189 H   0  0  0  0  0  0  0  0  0  0  0  0
  148.1670  157.6870  133.6800 C   0  0  0  0  0  0  0  0  0  0  0  0
  147.7282  157.3683  132.7230 H   0  0  0  0  0  0  0  0  0  0  0  0
  148.8540  159.0180  133.7610 C   0  0  0  0  0  0  0  0  0  0  0  0
  149.4157  159.0805  134.7047 H   0  0  0  0  0  0  0  0  0  0  0  0
  149.5413  159.1204  132.9083 H   0  0  0  0  0  0  0  0  0  0  0  0
  147.8940  160.0690  133.7140 O   0  0  0  0  0  0  0  0  0  0  0  0
  146.7930  160.0670  132.8500 C   0  0  0  0  0  0  0  0  0  0  0  0
  146.9650  160.0970  131.6000 O   0  0  0  0  0  0  0  0  0  0  0  0
  145.4620  160.0160  133.3890 N   0  0  0  0  0  0  0  0  0  0  0  0
  144.7250  161.0490  133.8880 C   0  0  0  0  0  0  0  0  0  0  0  0
  145.2180  162.4270  134.1070 C   0  0  0  0  0  0  0  0  0  0  0  0
  144.4250  163.4030  134.0270 O   0  0  0  0  0  0  0  0  0  0  0  0
  146.5990  162.6760  134.3760 N   0  0  0  0  0  0  0  0  0  0  0  0
  146.9420  163.6550  134.4930 H   0  0  0  0  0  0  0  0  0  0  0  0
  147.2780  161.8920  134.5010 H   0  0  0  0  0  0  0  0  0  0  0  0
  143.4590  160.6060  134.2650 C   0  0  0  0  0  0  0  0  0  0  0  0
  142.6449  161.2060  134.6977 H   0  0  0  0  0  0  0  0  0  0  0  0
  143.4420  159.2600  133.9820 C   0  0  0  0  0  0  0  0  0  0  0  0
  142.4300  158.3200  134.1580 C   0  0  0  0  0  0  0  0  0  0  0  0
  141.4622  158.6044  134.5967 H   0  0  0  0  0  0  0  0  0  0  0  0
  142.6830  156.9970  133.7580 C   0  0  0  0  0  0  0  0  0  0  0  0
  141.9093  156.2278  133.8982 H   0  0  0  0  0  0  0  0  0  0  0  0
  143.9250  156.6450  133.1760 C   0  0  0  0  0  0  0  0  0  0  0  0
  144.1930  155.2260  132.7730 C   0  0  0  0  0  0  0  0  0  0  0  0
  144.3103  154.6050  133.6734 H   0  0  0  0  0  0  0  0  0  0  0  0
  143.3501  154.8492  132.1750 H   0  0  0  0  0  0  0  0  0  0  0  0
  145.1152  155.1826  132.1750 H   0  0  0  0  0  0  0  0  0  0  0  0
  144.9350  157.6210  133.0290 C   0  0  0  0  0  0  0  0  0  0  0  0
  145.9107  157.3614  132.5925 H   0  0  0  0  0  0  0  0  0  0  0  0
  144.6630  158.9280  133.4530 C   0  0  0  0  0  0  0  0  0  0  0  0
  1  2  1  0
  2  3  1  0
  3  4  2  0
  3  5  1  0
  5  6  1  0
  6  7  1  0
  6  8  1  0
  6  9  1  0
  2 10  2  0
 10 11  1  0
 10 12  1  0
 12 13  1  0
 12 14  1  0
 12 15  1  0
 15 16  1  0
 16 17  2  0
 16 18  1  0
 18 19  1  0
 19 20  1  0
 20 21  2  0
 20 22  1  0
 22 23  1  0
 22 24  1  0
 19 25  2  0
 25 26  1  0
 25 27  1  0
 27 28  2  0
 28 29  1  0
 28 30  1  0
 30 31  1  0
 30 32  2  0
 32 33  1  0
 33 34  1  0
 33 35  1  0
 33 36  1  0
 32 37  1  0
 37 38  1  0
 37 39  2  0
 39 18  1  0
 39 27  1  0
M  END
>  <UniqueID>  (96) 
93

>  <SMILES>  (96) 
COC(=O)/C=C/COC(=O)n1c(C(N)=O)cc2ccc(C)cc21

>  <Energy>  (96) 
70.89289776693651

>  <Genealogy>  (96) 
COC(=O)/C=C/COC(=O)n1c(C(N)=O)cc2ccc(C)cc21 (cis-trans isomerization)
COC(=O)/C=C/COC(=O)n1c(C(N)=O)cc2ccc(C)cc21 (3D coordinates assigned)
COC(=O)/C=C/COC(=O)n1c(C(N)=O)cc2ccc(C)cc21 (optimized conformer: 70.89289776693651 kcal/mol)

>  <smiles>  (96) 
COC(=O)/C=C/COC(=O)n1c(C(N)=O)cc2ccc(C)cc21

>  <score_type>  (96) 
oracle

>  <origin>  (96) 
adg

>  <m_score__min__energy>  (96) 
-6.2699999999999996

>  <m_primary>  (96) 
energy

$$$$
96:0
     RDKit          3D

 51 53  0  0  0  0  0  0  0  0999 V2000
  149.5160  161.8040  130.3220 C   0  0  0  0  0  0  0  0  0  0  0  0
  149.6140  160.4420  129.6430 C   0  0  0  0  0  0  0  0  0  0  0  0
  148.8650  159.4690  130.3670 O   0  0  0  0  0  0  0  0  0  0  0  0
  149.1980  159.0450  131.6590 C   0  0  0  0  0  0  0  0  0  0  0  0
  150.1990  158.3060  131.8590 O   0  0  0  0  0  0  0  0  0  0  0  0
  148.3860  159.5270  132.8170 C   0  0  0  0  0  0  0  0  0  0  0  0
  147.5150  158.4120  133.3250 C   0  0  0  0  0  0  0  0  0  0  0  0
  148.0920  157.2940  133.9770 C   0  0  0  0  0  0  0  0  0  0  0  0
  147.2810  156.2600  134.4750 C   0  0  0  0  0  0  0  0  0  0  0  0
  145.9030  156.3810  134.3240 C   0  0  0  0  0  0  0  0  0  0  0  0
  144.8930  155.5260  134.7000 C   0  0  0  0  0  0  0  0  0  0  0  0
  143.7120  156.1510  134.3060 C   0  0  0  0  0  0  0  0  0  0  0  0
  142.3700  155.6110  134.6020 C   0  0  0  0  0  0  0  0  0  0  0  0
  141.4520  155.3680  133.5370 N   0  0  0  0  0  0  0  0  0  0  0  0
  142.0360  155.3230  135.7810 O   0  0  0  0  0  0  0  0  0  0  0  0
  143.9820  157.3450  133.7030 N   0  0  0  0  0  0  0  0  0  0  0  0
  143.0510  158.2620  133.1040 C   0  0  0  0  0  0  0  0  0  0  0  0
  142.2280  157.8500  132.2440 O   0  0  0  0  0  0  0  0  0  0  0  0
  143.0350  159.6340  133.5140 N   0  0  0  0  0  0  0  0  0  0  0  0
  141.8220  160.3840  133.8240 C   0  0  0  0  0  0  0  0  0  0  0  0
  141.0390  159.7250  134.9780 C   0  0  0  0  0  0  0  0  0  0  0  0
  142.0110  159.1770  136.0450 C   0  0  0  0  0  0  0  0  0  0  0  0
  141.3320  158.1400  136.9590 C   0  0  0  0  0  0  0  0  0  0  0  0
  139.9270  158.2870  136.9380 O   0  0  0  0  0  0  0  0  0  0  0  0
  139.4180  157.8880  135.6760 C   0  0  0  0  0  0  0  0  0  0  0  0
  140.1120  158.5970  134.4890 C   0  0  0  0  0  0  0  0  0  0  0  0
  145.3270  157.4700  133.7230 C   0  0  0  0  0  0  0  0  0  0  0  0
  146.1100  158.5030  133.1960 C   0  0  0  0  0  0  0  0  0  0  0  0
  149.5256  161.6709  131.4139 H   0  0  0  0  0  0  0  0  0  0  0  0
  150.3717  162.4262  130.0210 H   0  0  0  0  0  0  0  0  0  0  0  0
  148.5800  162.2973  130.0210 H   0  0  0  0  0  0  0  0  0  0  0  0
  149.2162  160.5178  128.6203 H   0  0  0  0  0  0  0  0  0  0  0  0
  150.6691  160.1321  129.6171 H   0  0  0  0  0  0  0  0  0  0  0  0
  149.0583  159.8610  133.6210 H   0  0  0  0  0  0  0  0  0  0  0  0
  147.7519  160.3655  132.4931 H   0  0  0  0  0  0  0  0  0  0  0  0
  149.1841  157.2350  134.0943 H   0  0  0  0  0  0  0  0  0  0  0  0
  147.7221  155.3817  134.9691 H   0  0  0  0  0  0  0  0  0  0  0  0
  144.9962  154.5542  135.2050 H   0  0  0  0  0  0  0  0  0  0  0  0
  141.5880  155.8100  132.6010 H   0  0  0  0  0  0  0  0  0  0  0  0
  142.0980  161.4079  134.1163 H   0  0  0  0  0  0  0  0  0  0  0  0
  141.1813  160.3955  132.9300 H   0  0  0  0  0  0  0  0  0  0  0  0
  140.4052  160.5070  135.4217 H   0  0  0  0  0  0  0  0  0  0  0  0
  142.8638  158.7011  135.5388 H   0  0  0  0  0  0  0  0  0  0  0  0
  142.3420  160.0191  136.6705 H   0  0  0  0  0  0  0  0  0  0  0  0
  141.5928  157.1294  136.6117 H   0  0  0  0  0  0  0  0  0  0  0  0
  141.6847  158.2975  137.9889 H   0  0  0  0  0  0  0  0  0  0  0  0
  139.5618  156.8028  135.5679 H   0  0  0  0  0  0  0  0  0  0  0  0
  138.3545  158.1678  135.6483 H   0  0  0  0  0  0  0  0  0  0  0  0
  140.7076  157.8604  133.9298 H   0  0  0  0  0  0  0  0  0  0  0  0
  139.3365  159.0382  133.8456 H   0  0  0  0  0  0  0  0  0  0  0  0
  145.6443  159.3640  132.6941 H   0  0  0  0  0  0  0  0  0  0  0  0
  1  2  1  0
  2  3  1  0
  3  4  1  0
  4  5  2  0
  4  6  1  0
  6  7  1  0
  7  8  2  0
  8  9  1  0
  9 10  2  0
 10 11  1  0
 11 12  2  0
 12 13  1  0
 13 14  1  0
 13 15  2  0
 12 16  1  0
 16 17  1  0
 17 18  2  0
 17 19  1  0
 19 20  1  0
 20 21  1  0
 21 22  1  0
 22 23  1  0
 23 24  1  0
 24 25  1  0
 25 26  1  0
 16 27  1  0
 27 28  2  0
 28  7  1  0
 27 10  1  0
 26 21  1  0
  1 29  1  0
  1 30  1  0
  1 31  1  0
  2 32  1  0
  2 33  1  0
  6 34  1  0
  6 35  1  0
  8 36  1  0
  9 37  1  0
 11 38  1  0
 14 39  1  0
 20 40  1  0
 20 41  1  0
 21 42  1  0
 22 43  1  0
 22 44  1  0
 23 45  1  0
 23 46  1  0
 25 47  1  0
 25 48  1  0
 26 49  1  0
 26 50  1  0
 28 51  1  0
M  CHG  2  14  -1  19  -1
M  END
>  <UniqueID>  (97) 
94

>  <SMILES>  (97) 
CCOC(=O)Cc1ccc2cc(C([NH-])=O)n(C(=O)[N-]CC3CCOCC3)c2c1

>  <Energy>  (97) 
88.31385193240267

>  <Genealogy>  (97) 
CCOC(=O)Cc1ccc2cc(C([NH-])=O)n(C(=O)[N-]CC3CCOCC3)c2c1 (protonated)
CCOC(=O)Cc1ccc2cc(C([NH-])=O)n(C(=O)[N-]CC3CCOCC3)c2c1 (3D coordinates assigned)
CCOC(=O)Cc1ccc2cc(C([NH-])=O)n(C(=O)[N-]CC3CCOCC3)c2c1 (nonaromatic ring conformer: 88.31385193240267 kcal/mol)

>  <smiles>  (97) 
CCOC(=O)Cc1ccc2cc(C(N)=O)n(C(=O)NCC3CCOCC3)c2c1

>  <score_type>  (97) 
oracle

>  <origin>  (97) 
adg

>  <m_score__min__energy>  (97) 
-8.1600000000000001

>  <m_primary>  (97) 
energy

$$$$
97:0
     RDKit          3D

 44 47  0  0  0  0  0  0  0  0999 V2000
  139.4320  157.8500  136.6330 N   0  0  0  0  0  0  0  0  0  0  0  0
  139.7370  158.1320  135.2690 C   0  0  0  0  0  0  0  0  0  0  0  0
  138.8430  157.9850  134.3940 O   0  0  0  0  0  0  0  0  0  0  0  0
  141.0990  158.5370  134.8630 C   0  0  0  0  0  0  0  0  0  0  0  0
  141.5320  159.8600  134.8500 C   0  0  0  0  0  0  0  0  0  0  0  0
  142.8020  159.8240  134.3250 C   0  0  0  0  0  0  0  0  0  0  0  0
  143.7010  160.8590  134.0850 C   0  0  0  0  0  0  0  0  0  0  0  0
  144.9570  160.5290  133.5480 C   0  0  0  0  0  0  0  0  0  0  0  0
  145.2950  159.1800  133.2800 C   0  0  0  0  0  0  0  0  0  0  0  0
  146.6250  158.8470  132.6640 C   0  0  0  0  0  0  0  0  0  0  0  0
  147.2250  157.6520  133.3570 C   0  0  0  0  0  0  0  0  0  0  0  0
  148.0910  157.8360  134.2000 O   0  0  0  0  0  0  0  0  0  0  0  0
  146.8350  156.3050  132.9740 N   0  0  1  0  0  0  0  0  0  0  0  0
  148.0140  155.4580  132.6240 C   0  0  0  0  0  0  0  0  0  0  0  0
  147.8890  154.0700  133.2970 C   0  0  2  0  0  0  0  0  0  0  0  0
  146.5260  153.4450  132.9050 C   0  0  0  0  0  0  0  0  0  0  0  0
  145.3790  154.3710  133.3830 C   0  0  0  0  0  0  0  0  0  0  0  0
  145.9980  155.6410  134.0120 C   0  0  1  0  0  0  0  0  0  0  0  0
  146.9030  155.1230  135.1700 C   0  0  0  0  0  0  0  0  0  0  0  0
  147.9350  154.2430  134.7100 O   0  0  0  0  0  0  0  0  0  0  0  0
  144.3550  158.1560  133.5320 C   0  0  0  0  0  0  0  0  0  0  0  0
  143.1030  158.5160  134.0460 C   0  0  0  0  0  0  0  0  0  0  0  0
  142.0670  157.7110  134.3720 N   0  0  0  0  0  0  0  0  0  0  0  0
  142.0440  156.2760  134.2980 C   0  0  0  0  0  0  0  0  0  0  0  0
  142.9380  155.5960  134.8670 O   0  0  0  0  0  0  0  0  0  0  0  0
  141.0200  155.6250  133.6230 O   0  0  0  0  0  0  0  0  0  0  0  0
  139.0830  158.6000  137.2700 H   0  0  0  0  0  0  0  0  0  0  0  0
  140.9756  160.7466  135.1883 H   0  0  0  0  0  0  0  0  0  0  0  0
  143.4366  161.9030  134.3088 H   0  0  0  0  0  0  0  0  0  0  0  0
  145.6844  161.3259  133.3338 H   0  0  0  0  0  0  0  0  0  0  0  0
  146.4860  158.6184  131.5970 H   0  0  0  0  0  0  0  0  0  0  0  0
  147.3013  159.7075  132.7744 H   0  0  0  0  0  0  0  0  0  0  0  0
  146.2480  156.3900  132.1100 H   0  0  0  0  0  0  0  0  0  0  0  0
  148.0593  155.3305  131.5324 H   0  0  0  0  0  0  0  0  0  0  0  0
  148.9304  155.9505  132.9812 H   0  0  0  0  0  0  0  0  0  0  0  0
  148.7085  153.4123  132.9716 H   0  0  0  0  0  0  0  0  0  0  0  0
  146.4749  153.3317  131.8120 H   0  0  0  0  0  0  0  0  0  0  0  0
  146.4239  152.4582  133.3801 H   0  0  0  0  0  0  0  0  0  0  0  0
  144.7483  154.6516  132.5266 H   0  0  0  0  0  0  0  0  0  0  0  0
  144.7595  153.8479  134.1263 H   0  0  0  0  0  0  0  0  0  0  0  0
  145.2469  156.3572  134.3766 H   0  0  0  0  0  0  0  0  0  0  0  0
  147.3710  155.9867  135.6649 H   0  0  0  0  0  0  0  0  0  0  0  0
  146.2651  154.5552  135.8633 H   0  0  0  0  0  0  0  0  0  0  0  0
  144.6001  157.1029  133.3297 H   0  0  0  0  0  0  0  0  0  0  0  0
  1  2  1  0
  2  3  2  0
  2  4  1  0
  4  5  2  0
  5  6  1  0
  6  7  2  0
  7  8  1  0
  8  9  2  0
  9 10  1  0
 10 11  1  0
 11 12  2  0
 11 13  1  0
 13 14  1  0
 14 15  1  0
 15 16  1  0
 16 17  1  0
 17 18  1  0
 18 19  1  0
 19 20  1  0
  9 21  1  0
 21 22  2  0
 22 23  1  0
 23 24  1  0
 24 25  2  0
 24 26  1  0
 23  4  1  0
 22  6  1  0
 18 13  1  0
 20 15  1  0
  1 27  1  0
  5 28  1  0
  7 29  1  0
  8 30  1  0
 10 31  1  0
 10 32  1  0
 13 33  1  6
 14 34  1  0
 14 35  1  0
 15 36  1  6
 16 37  1  0
 16 38  1  0
 17 39  1  0
 17 40  1  0
 18 41  1  1
 19 42  1  0
 19 43  1  0
 21 44  1  0
M  CHG  3   1  -1  13   1  26  -1
M  END
>  <UniqueID>  (98) 
95

>  <SMILES>  (98) 
[NH-]C(=O)c1cc2ccc(CC(=O)[N@H+]3C[C@@H]4CCC3CO4)cc2n1C(=O)[O-]

>  <Energy>  (98) 
107.35390969689283

>  <Genealogy>  (98) 
[NH-]C(=O)c1cc2ccc(CC(=O)[NH+]3CC4CCC3CO4)cc2n1C(=O)[O-] (protonated)
[NH-]C(=O)c1cc2ccc(CC(=O)[N@H+]3C[C@@H]4CCC3CO4)cc2n1C(=O)[O-] (chirality)
[NH-]C(=O)c1cc2ccc(CC(=O)[N@H+]3C[C@@H]4CCC3CO4)cc2n1C(=O)[O-] (3D coordinates assigned)
[NH-]C(=O)c1cc2ccc(CC(=O)[N@H+]3C[C@@H]4CCC3CO4)cc2n1C(=O)[O-] (nonaromatic ring conformer: 107.35390969689283 kcal/mol)

>  <smiles>  (98) 
NC(=O)c1cc2ccc(CC(=O)N3CC4CCC3CO4)cc2n1C(=O)O

>  <score_type>  (98) 
oracle

>  <origin>  (98) 
adg

>  <m_score__min__energy>  (98) 
-7.8200000000000003

>  <m_primary>  (98) 
energy

$$$$
98:0
     RDKit          3D

 31 33  0  0  0  0  0  0  0  0999 V2000
  149.6180  161.2820  130.2690 C   0  0  0  0  0  0  0  0  0  0  0  0
  149.0430  160.2370  131.1060 N   0  0  0  0  0  0  0  0  0  0  0  0
  147.7520  160.1390  131.4670 C   0  0  0  0  0  0  0  0  0  0  0  0
  147.6210  159.0540  132.3150 C   0  0  0  0  0  0  0  0  0  0  0  0
  146.3840  158.5540  132.9690 C   0  0  0  0  0  0  0  0  0  0  0  0
  146.2890  157.2000  133.3900 C   0  0  0  0  0  0  0  0  0  0  0  0
  145.1210  156.7140  133.9980 C   0  0  0  0  0  0  0  0  0  0  0  0
  144.0650  157.5980  134.1820 C   0  0  0  0  0  0  0  0  0  0  0  0
  142.8160  157.3820  134.7190 C   0  0  0  0  0  0  0  0  0  0  0  0
  142.1660  158.6130  134.6440 C   0  0  0  0  0  0  0  0  0  0  0  0
  140.8170  158.8520  135.1980 C   0  0  0  0  0  0  0  0  0  0  0  0
  140.6470  159.3520  136.5220 N   0  0  0  0  0  0  0  0  0  0  0  0
  139.8000  158.5660  134.5110 O   0  0  0  0  0  0  0  0  0  0  0  0
  142.9780  159.5490  134.0760 N   0  0  0  0  0  0  0  0  0  0  0  0
  142.6480  160.9060  133.7370 C   0  0  0  0  0  0  0  0  0  0  0  0
  141.4580  161.2240  133.4710 O   0  0  0  0  0  0  0  0  0  0  0  0
  143.6320  161.8850  133.7260 O   0  0  0  0  0  0  0  0  0  0  0  0
  144.1380  158.9110  133.8010 C   0  0  0  0  0  0  0  0  0  0  0  0
  145.2820  159.4190  133.1760 C   0  0  0  0  0  0  0  0  0  0  0  0
  148.9080  158.5450  132.4320 C   0  0  0  0  0  0  0  0  0  0  0  0
  149.7540  159.2890  131.6940 N   0  0  0  0  0  0  0  0  0  0  0  0
  150.0499  162.0669  130.9073 H   0  0  0  0  0  0  0  0  0  0  0  0
  150.4060  160.8510  129.6339 H   0  0  0  0  0  0  0  0  0  0  0  0
  148.8322  161.7170  129.6339 H   0  0  0  0  0  0  0  0  0  0  0  0
  146.9396  160.8066  131.1438 H   0  0  0  0  0  0  0  0  0  0  0  0
  147.1427  156.5234  133.2372 H   0  0  0  0  0  0  0  0  0  0  0  0
  145.0440  155.6648  134.3192 H   0  0  0  0  0  0  0  0  0  0  0  0
  142.4162  156.4395  135.1213 H   0  0  0  0  0  0  0  0  0  0  0  0
  139.7020  159.3810  136.9670 H   0  0  0  0  0  0  0  0  0  0  0  0
  145.3246  160.4693  132.8519 H   0  0  0  0  0  0  0  0  0  0  0  0
  149.1924  157.6696  133.0343 H   0  0  0  0  0  0  0  0  0  0  0  0
  1  2  1  0
  2  3  1  0
  3  4  2  0
  4  5  1  0
  5  6  2  0
  6  7  1  0
  7  8  2  0
  8  9  1  0
  9 10  2  0
 10 11  1  0
 11 12  1  0
 11 13  2  0
 10 14  1  0
 14 15  1  0
 15 16  2  0
 15 17  1  0
 14 18  1  0
 18 19  2  0
  4 20  1  0
 20 21  2  0
 21  2  1  0
 19  5  1  0
 18  8  1  0
  1 22  1  0
  1 23  1  0
  1 24  1  0
  3 25  1  0
  6 26  1  0
  7 27  1  0
  9 28  1  0
 12 29  1  0
 19 30  1  0
 20 31  1  0
M  CHG  2  12  -1  17  -1
M  END
>  <UniqueID>  (99) 
96

>  <SMILES>  (99) 
Cn1cc(-c2ccc3cc(C([NH-])=O)n(C(=O)[O-])c3c2)cn1

>  <Energy>  (99) 
104.53658261663543

>  <Genealogy>  (99) 
Cn1cc(-c2ccc3cc(C([NH-])=O)n(C(=O)[O-])c3c2)cn1 (protonated)
Cn1cc(-c2ccc3cc(C([NH-])=O)n(C(=O)[O-])c3c2)cn1 (3D coordinates assigned)
Cn1cc(-c2ccc3cc(C([NH-])=O)n(C(=O)[O-])c3c2)cn1 (optimized conformer: 104.53658261663543 kcal/mol)

>  <smiles>  (99) 
Cn1cc(-c2ccc3cc(C(N)=O)n(C(=O)O)c3c2)cn1

>  <score_type>  (99) 
oracle

>  <origin>  (99) 
adg

>  <m_score__min__energy>  (99) 
-7.1100000000000003

>  <m_primary>  (99) 
energy

$$$$
99:0
     RDKit          3D

 38 39  0  0  0  0  0  0  0  0999 V2000
  139.2100  158.0830  133.1190 C   0  0  0  0  0  0  0  0  0  0  0  0
  138.7810  158.0460  134.4610 O   0  0  0  0  0  0  0  0  0  0  0  0
  139.8970  158.1860  135.3150 C   0  0  0  0  0  0  0  0  0  0  0  0
  140.9680  157.1740  134.9020 C   0  0  0  0  0  0  0  0  0  0  0  0
  142.3230  157.4790  135.5520 C   0  0  0  0  0  0  0  0  0  0  0  0
  143.4020  157.0840  134.7050 O   0  0  0  0  0  0  0  0  0  0  0  0
  143.7040  157.7190  133.4930 C   0  0  0  0  0  0  0  0  0  0  0  0
  142.9160  157.6330  132.5130 O   0  0  0  0  0  0  0  0  0  0  0  0
  144.9310  158.4520  133.3630 N   0  0  0  0  0  0  0  0  0  0  0  0
  145.1200  159.7930  133.5170 C   0  0  0  0  0  0  0  0  0  0  0  0
  144.0580  160.8080  133.6750 C   0  0  0  0  0  0  0  0  0  0  0  0
  142.7040  160.5090  133.3450 N   0  0  0  0  0  0  0  0  0  0  0  0
  144.3560  161.9680  134.0630 O   0  0  0  0  0  0  0  0  0  0  0  0
  146.4750  160.1080  133.4260 C   0  0  0  0  0  0  0  0  0  0  0  0
  147.1150  158.9100  133.2050 C   0  0  0  0  0  0  0  0  0  0  0  0
  148.4700  158.6340  133.0540 C   0  0  0  0  0  0  0  0  0  0  0  0
  148.8530  157.2940  132.8760 C   0  0  0  0  0  0  0  0  0  0  0  0
  147.8830  156.2610  132.8560 C   0  0  0  0  0  0  0  0  0  0  0  0
  148.3150  154.8340  132.6830 C   0  0  0  0  0  0  0  0  0  0  0  0
  149.6410  154.7920  132.2900 F   0  0  0  0  0  0  0  0  0  0  0  0
  148.1720  154.1560  133.8790 F   0  0  0  0  0  0  0  0  0  0  0  0
  146.5150  156.5800  133.0150 C   0  0  0  0  0  0  0  0  0  0  0  0
  146.1610  157.9260  133.1730 C   0  0  0  0  0  0  0  0  0  0  0  0
  140.3055  158.1774  133.0867 H   0  0  0  0  0  0  0  0  0  0  0  0
  138.9068  157.1554  132.6114 H   0  0  0  0  0  0  0  0  0  0  0  0
  138.7525  158.9450  132.6114 H   0  0  0  0  0  0  0  0  0  0  0  0
  140.3007  159.2058  135.2308 H   0  0  0  0  0  0  0  0  0  0  0  0
  139.5941  158.0035  136.3566 H   0  0  0  0  0  0  0  0  0  0  0  0
  140.6445  156.1684  135.2089 H   0  0  0  0  0  0  0  0  0  0  0  0
  141.0918  157.2345  133.8107 H   0  0  0  0  0  0  0  0  0  0  0  0
  142.3941  158.5599  135.7433 H   0  0  0  0  0  0  0  0  0  0  0  0
  142.3934  156.9134  136.4928 H   0  0  0  0  0  0  0  0  0  0  0  0
  142.4720  159.7610  132.6540 H   0  0  0  0  0  0  0  0  0  0  0  0
  146.9351  161.1034  133.5125 H   0  0  0  0  0  0  0  0  0  0  0  0
  149.2184  159.4399  133.0734 H   0  0  0  0  0  0  0  0  0  0  0  0
  149.9169  157.0441  132.7509 H   0  0  0  0  0  0  0  0  0  0  0  0
  147.6886  154.3591  131.9136 H   0  0  0  0  0  0  0  0  0  0  0  0
  145.7482  155.7914  133.0146 H   0  0  0  0  0  0  0  0  0  0  0  0
  1  2  1  0
  2  3  1  0
  3  4  1  0
  4  5  1  0
  5  6  1  0
  6  7  1  0
  7  8  2  0
  7  9  1  0
  9 10  1  0
 10 11  1  0
 11 12  1  0
 11 13  2  0
 10 14  2  0
 14 15  1  0
 15 16  2  0
 16 17  1  0
 17 18  2  0
 18 19  1  0
 19 20  1  0
 19 21  1  0
 18 22  1  0
 22 23  2  0
 23  9  1  0
 23 15  1  0
  1 24  1  0
  1 25  1  0
  1 26  1  0
  3 27  1  0
  3 28  1  0
  4 29  1  0
  4 30  1  0
  5 31  1  0
  5 32  1  0
 12 33  1  0
 14 34  1  0
 16 35  1  0
 17 36  1  0
 19 37  1  0
 22 38  1  0
M  CHG  1  12  -1
M  END
>  <UniqueID>  (100) 
97

>  <SMILES>  (100) 
COCCCOC(=O)n1c(C([NH-])=O)cc2ccc(C(F)F)cc21

>  <Energy>  (100) 
71.75987366556474

>  <Genealogy>  (100) 
COCCCOC(=O)n1c(C([NH-])=O)cc2ccc(C(F)F)cc21 (protonated)
COCCCOC(=O)n1c(C([NH-])=O)cc2ccc(C(F)F)cc21 (3D coordinates assigned)
COCCCOC(=O)n1c(C([NH-])=O)cc2ccc(C(F)F)cc21 (optimized conformer: 71.75987366556474 kcal/mol)

>  <smiles>  (100) 
COCCCOC(=O)n1c(C(N)=O)cc2ccc(C(F)F)cc21

>  <score_type>  (100) 
oracle

>  <origin>  (100) 
adg

>  <m_score__min__energy>  (100) 
-5.4699999999999998

>  <m_primary>  (100) 
energy

$$$$
