0:0
     RDKit          3D

 50 51  0  0  1  0  0  0  0  0999 V2000
  138.2330  149.1570  130.8330 C   0  0  0  0  0  0  0  0  0  0  0  0
  139.4490  149.9150  131.3540 C   0  0  1  0  0  0  0  0  0  0  0  0
  139.0040  151.1350  131.9590 N   0  0  0  0  0  0  0  0  0  0  0  0
  140.2380  149.0770  132.3030 C   0  0  0  0  0  0  0  0  0  0  0  0
  140.7040  148.0040  131.8550 O   0  0  0  0  0  0  0  0  0  0  0  0
  140.4220  149.4920  133.5940 O   0  0  0  0  0  0  0  0  0  0  0  0
  141.3650  150.4900  133.9400 C   0  0  0  0  0  0  0  0  0  0  0  0
  141.3960  151.4070  132.8370 O   0  0  0  0  0  0  0  0  0  0  0  0
  141.2320  152.7680  133.0260 C   0  0  0  0  0  0  0  0  0  0  0  0
  140.1220  153.3140  132.8630 O   0  0  0  0  0  0  0  0  0  0  0  0
  142.3260  153.6190  133.4190 N   0  0  0  0  0  0  0  0  0  0  0  0
  143.5040  153.5670  132.5890 C   0  0  0  0  0  0  0  0  0  0  0  0
  142.1720  154.4390  134.5820 C   0  0  0  0  0  0  0  0  0  0  0  0
  141.4770  155.7520  134.3060 C   0  0  0  0  0  0  0  0  0  0  0  0
  142.4430  156.8270  133.9960 C   0  0  0  0  0  0  0  0  0  0  0  0
  141.9560  158.0690  133.6640 C   0  0  0  0  0  0  0  0  0  0  0  0
  142.8740  159.0510  133.3800 C   0  0  0  0  0  0  0  0  0  0  0  0
  144.2200  158.8000  133.4250 C   0  0  0  0  0  0  0  0  0  0  0  0
  145.2990  159.6180  133.1830 C   0  0  0  0  0  0  0  0  0  0  0  0
  146.4820  158.8800  133.3650 C   0  0  0  0  0  0  0  0  0  0  0  0
  147.7630  159.4890  133.1800 C   0  0  0  0  0  0  0  0  0  0  0  0
  148.8860  159.5630  134.0010 N   0  0  0  0  0  0  0  0  0  0  0  0
  147.9280  160.0880  132.0380 O   0  0  0  0  0  0  0  0  0  0  0  0
  146.1110  157.6240  133.7160 N   0  0  0  0  0  0  0  0  0  0  0  0
  146.8900  156.5090  134.0470 C   0  0  0  0  0  0  0  0  0  0  0  0
  147.5880  156.5440  135.1130 O   0  0  0  0  0  0  0  0  0  0  0  0
  147.0390  155.0240  133.1550 Cl  0  0  0  0  0  0  0  0  0  0  0  0
  144.7400  157.5820  133.7500 C   0  0  0  0  0  0  0  0  0  0  0  0
  143.8200  156.5790  134.0400 C   0  0  0  0  0  0  0  0  0  0  0  0
  137.6398  148.7872  131.6824 H   0  0  0  0  0  0  0  0  0  0  0  0
  137.6158  149.8306  130.2204 H   0  0  0  0  0  0  0  0  0  0  0  0
  138.5661  148.3063  130.2204 H   0  0  0  0  0  0  0  0  0  0  0  0
  140.1236  150.1564  130.5193 H   0  0  0  0  0  0  0  0  0  0  0  0
  139.1840  151.9980  131.4330 H   0  0  0  0  0  0  0  0  0  0  0  0
  139.2570  151.2060  132.9510 H   0  0  0  0  0  0  0  0  0  0  0  0
  141.0529  151.0082  134.8587 H   0  0  0  0  0  0  0  0  0  0  0  0
  142.3578  150.0563  134.1303 H   0  0  0  0  0  0  0  0  0  0  0  0
  144.3999  153.5275  133.2260 H   0  0  0  0  0  0  0  0  0  0  0  0
  143.4657  152.6697  131.9539 H   0  0  0  0  0  0  0  0  0  0  0  0
  143.5450  154.4642  131.9539 H   0  0  0  0  0  0  0  0  0  0  0  0
  141.5821  153.8822  135.3249 H   0  0  0  0  0  0  0  0  0  0  0  0
  143.1823  154.6779  134.9456 H   0  0  0  0  0  0  0  0  0  0  0  0
  140.7994  155.6235  133.4490 H   0  0  0  0  0  0  0  0  0  0  0  0
  140.9197  156.0416  135.2091 H   0  0  0  0  0  0  0  0  0  0  0  0
  140.8749  158.2685  133.6272 H   0  0  0  0  0  0  0  0  0  0  0  0
  142.5215  160.0578  133.1114 H   0  0  0  0  0  0  0  0  0  0  0  0
  145.2452  160.6780  132.8939 H   0  0  0  0  0  0  0  0  0  0  0  0
  149.4890  158.7010  134.1260 H   0  0  0  0  0  0  0  0  0  0  0  0
  149.1320  160.4850  134.4710 H   0  0  0  0  0  0  0  0  0  0  0  0
  144.1807  155.5750  134.3081 H   0  0  0  0  0  0  0  0  0  0  0  0
  1  2  1  0
  2  3  1  0
  2  4  1  0
  4  5  2  0
  4  6  1  0
  6  7  1  0
  7  8  1  0
  8  9  1  0
  9 10  2  0
  9 11  1  0
 11 12  1  0
 11 13  1  0
 13 14  1  0
 14 15  1  0
 15 16  2  0
 16 17  1  0
 17 18  2  0
 18 19  1  0
 19 20  2  0
 20 21  1  0
 21 22  1  0
 21 23  2  0
 20 24  1  0
 24 25  1  0
 25 26  2  0
 25 27  1  0
 24 28  1  0
 28 29  2  0
 29 15  1  0
 28 18  1  0
  1 30  1  0
  1 31  1  0
  1 32  1  0
  2 33  1  6
  3 34  1  0
  3 35  1  0
  7 36  1  0
  7 37  1  0
 12 38  1  0
 12 39  1  0
 12 40  1  0
 13 41  1  0
 13 42  1  0
 14 43  1  0
 14 44  1  0
 16 45  1  0
 17 46  1  0
 19 47  1  0
 22 48  1  0
 22 49  1  0
 29 50  1  0
M  END
>  <smiles>  (1) 
CC(N)C(=O)OCOC(=O)N(C)CCc1ccc2cc(C(N)=O)n(C(=O)Cl)c2c1

>  <score_type>  (1) 
oracle

>  <origin>  (1) 
adg

>  <m_score__min__energy>  (1) 
-8.3499999999999996

>  <m_primary>  (1) 
energy

$$$$
1:0
     RDKit          3D

 47 48  0  0  0  0  0  0  0  0999 V2000
  149.5940  161.6390  130.1470 C   0  0  0  0  0  0  0  0  0  0  0  0
  148.6010  161.5490  131.1990 N   0  0  0  0  0  0  0  0  0  0  0  0
  148.3450  160.2900  131.8260 C   0  0  0  0  0  0  0  0  0  0  0  0
  149.3750  159.3920  131.9970 C   0  0  0  0  0  0  0  0  0  0  0  0
  149.1030  158.1980  132.5990 C   0  0  0  0  0  0  0  0  0  0  0  0
  147.8180  157.9140  133.0200 C   0  0  0  0  0  0  0  0  0  0  0  0
  147.3390  156.7990  133.6330 C   0  0  0  0  0  0  0  0  0  0  0  0
  145.9630  157.0120  133.8480 C   0  0  0  0  0  0  0  0  0  0  0  0
  145.1700  155.9460  134.4360 C   0  0  0  0  0  0  0  0  0  0  0  0
  143.7780  156.2000  134.7620 N   0  0  0  0  0  0  0  0  0  0  0  0
  145.5580  154.7900  134.7050 O   0  0  0  0  0  0  0  0  0  0  0  0
  145.6090  158.2220  133.3880 N   0  0  0  0  0  0  0  0  0  0  0  0
  144.4440  158.9800  133.5100 C   0  0  0  0  0  0  0  0  0  0  0  0
  144.6160  160.2320  133.7810 O   0  0  0  0  0  0  0  0  0  0  0  0
  143.0630  158.5960  133.3940 C   0  0  0  0  0  0  0  0  0  0  0  0
  142.6400  157.5970  132.7300 O   0  0  0  0  0  0  0  0  0  0  0  0
  141.9900  159.3300  134.0420 N   0  0  0  0  0  0  0  0  0  0  0  0
  141.0730  160.1680  133.2890 C   0  0  0  0  0  0  0  0  0  0  0  0
  141.8230  159.2740  135.4600 C   0  0  0  0  0  0  0  0  0  0  0  0
  141.6450  157.9950  136.1100 C   0  0  0  0  0  0  0  0  0  0  0  0
  141.4910  156.9880  135.2910 O   0  0  0  0  0  0  0  0  0  0  0  0
  141.6080  157.6350  137.4530 N   0  0  0  0  0  0  0  0  0  0  0  0
  141.4080  156.1900  137.7240 C   0  0  0  0  0  0  0  0  0  0  0  0
  141.7320  158.4700  138.6120 C   0  0  0  0  0  0  0  0  0  0  0  0
  146.7640  158.7720  132.8720 C   0  0  0  0  0  0  0  0  0  0  0  0
  147.0500  159.9840  132.2590 C   0  0  0  0  0  0  0  0  0  0  0  0
  150.5948  161.7297  130.5943 H   0  0  0  0  0  0  0  0  0  0  0  0
  149.5515  160.7333  129.5242 H   0  0  0  0  0  0  0  0  0  0  0  0
  149.3893  162.5223  129.5242 H   0  0  0  0  0  0  0  0  0  0  0  0
  148.0710  162.3900  131.5060 H   0  0  0  0  0  0  0  0  0  0  0  0
  150.3931  159.6316  131.6563 H   0  0  0  0  0  0  0  0  0  0  0  0
  149.9065  157.4618  132.7491 H   0  0  0  0  0  0  0  0  0  0  0  0
  147.9149  155.9031  133.9081 H   0  0  0  0  0  0  0  0  0  0  0  0
  143.6340  156.6690  135.6830 H   0  0  0  0  0  0  0  0  0  0  0  0
  143.0110  155.9260  134.1100 H   0  0  0  0  0  0  0  0  0  0  0  0
  140.4447  160.7422  133.9858 H   0  0  0  0  0  0  0  0  0  0  0  0
  141.6458  160.8612  132.6555 H   0  0  0  0  0  0  0  0  0  0  0  0
  140.4341  159.5352  132.6555 H   0  0  0  0  0  0  0  0  0  0  0  0
  142.7164  159.7364  135.9050 H   0  0  0  0  0  0  0  0  0  0  0  0
  140.8611  159.7814  135.6250 H   0  0  0  0  0  0  0  0  0  0  0  0
  141.3846  156.0205  138.8106 H   0  0  0  0  0  0  0  0  0  0  0  0
  140.4559  155.8622  137.2811 H   0  0  0  0  0  0  0  0  0  0  0  0
  142.2353  155.6160  137.2811 H   0  0  0  0  0  0  0  0  0  0  0  0
  141.6406  157.8543  139.5190 H   0  0  0  0  0  0  0  0  0  0  0  0
  142.7137  158.9662  138.6031 H   0  0  0  0  0  0  0  0  0  0  0  0
  140.9369  159.2301  138.6031 H   0  0  0  0  0  0  0  0  0  0  0  0
  146.2438  160.7175  132.1108 H   0  0  0  0  0  0  0  0  0  0  0  0
  1  2  1  0
  2  3  1  0
  3  4  2  0
  4  5  1  0
  5  6  2  0
  6  7  1  0
  7  8  2  0
  8  9  1  0
  9 10  1  0
  9 11  2  0
  8 12  1  0
 12 13  1  0
 13 14  2  0
 13 15  1  0
 15 16  2  0
 15 17  1  0
 17 18  1  0
 17 19  1  0
 19 20  1  0
 20 21  2  0
 20 22  1  0
 22 23  1  0
 22 24  1  0
 12 25  1  0
 25 26  2  0
 26  3  1  0
 25  6  1  0
  1 27  1  0
  1 28  1  0
  1 29  1  0
  2 30  1  0
  4 31  1  0
  5 32  1  0
  7 33  1  0
 10 34  1  0
 10 35  1  0
 18 36  1  0
 18 37  1  0
 18 38  1  0
 19 39  1  0
 19 40  1  0
 23 41  1  0
 23 42  1  0
 23 43  1  0
 24 44  1  0
 24 45  1  0
 24 46  1  0
 26 47  1  0
M  END
>  <smiles>  (2) 
CNc1ccc2cc(C(N)=O)n(C(=O)C(=O)N(C)CC(=O)N(C)C)c2c1

>  <score_type>  (2) 
oracle

>  <origin>  (2) 
adg

>  <m_score__min__energy>  (2) 
-7.4299999999999997

>  <m_primary>  (2) 
energy

$$$$
2:0
     RDKit          3D

 34 35  0  0  0  0  0  0  0  0999 V2000
  145.9230  151.4640  132.4630 N   0  0  0  0  0  0  0  0  0  0  0  0
  145.3110  152.7070  132.6810 C   0  0  0  0  0  0  0  0  0  0  0  0
  144.0140  152.6240  132.7120 O   0  0  0  0  0  0  0  0  0  0  0  0
  145.8680  154.0130  132.8710 C   0  0  0  0  0  0  0  0  0  0  0  0
  145.0120  155.1320  132.9960 C   0  0  0  0  0  0  0  0  0  0  0  0
  145.7670  156.2510  133.1630 C   0  0  0  0  0  0  0  0  0  0  0  0
  145.3770  157.5610  133.3430 C   0  0  0  0  0  0  0  0  0  0  0  0
  146.3140  158.5420  133.5180 C   0  0  0  0  0  0  0  0  0  0  0  0
  147.6380  158.1730  133.5080 C   0  0  0  0  0  0  0  0  0  0  0  0
  148.6830  159.2230  133.6980 C   0  0  0  0  0  0  0  0  0  0  0  0
  149.6230  159.0720  132.7010 F   0  0  0  0  0  0  0  0  0  0  0  0
  148.0940  160.4710  133.5890 F   0  0  0  0  0  0  0  0  0  0  0  0
  149.2300  159.0370  134.9530 F   0  0  0  0  0  0  0  0  0  0  0  0
  148.0130  156.8390  133.3230 C   0  0  0  0  0  0  0  0  0  0  0  0
  147.0790  155.8370  133.1420 C   0  0  0  0  0  0  0  0  0  0  0  0
  147.1500  154.4830  132.9650 N   0  0  0  0  0  0  0  0  0  0  0  0
  148.2970  153.6830  132.8040 C   0  0  0  0  0  0  0  0  0  0  0  0
  149.3050  154.2050  132.2440 O   0  0  0  0  0  0  0  0  0  0  0  0
  148.4970  152.3430  133.1930 N   0  0  0  0  0  0  0  0  0  0  0  0
  149.7340  151.6080  132.9480 C   0  0  0  0  0  0  0  0  0  0  0  0
  149.3700  150.3040  132.2980 C   0  0  0  0  0  0  0  0  0  0  0  0
  147.9880  150.1310  132.3990 O   0  0  0  0  0  0  0  0  0  0  0  0
  146.0820  150.7530  133.2400 H   0  0  0  0  0  0  0  0  0  0  0  0
  146.2200  151.2430  131.4640 H   0  0  0  0  0  0  0  0  0  0  0  0
  143.9129  155.1021  132.9634 H   0  0  0  0  0  0  0  0  0  0  0  0
  144.3076  157.8185  133.3459 H   0  0  0  0  0  0  0  0  0  0  0  0
  146.0177  159.5915  133.6620 H   0  0  0  0  0  0  0  0  0  0  0  0
  149.0820  156.5797  133.3215 H   0  0  0  0  0  0  0  0  0  0  0  0
  147.7740  151.8340  133.7050 H   0  0  0  0  0  0  0  0  0  0  0  0
  150.3889  152.1886  132.2817 H   0  0  0  0  0  0  0  0  0  0  0  0
  150.2701  151.4311  133.8921 H   0  0  0  0  0  0  0  0  0  0  0  0
  149.6656  150.3219  131.2386 H   0  0  0  0  0  0  0  0  0  0  0  0
  149.8919  149.4744  132.7974 H   0  0  0  0  0  0  0  0  0  0  0  0
  147.7230  150.2570  133.3540 H   0  0  0  0  0  0  0  0  0  0  0  0
  1  2  1  0
  2  3  2  0
  2  4  1  0
  4  5  2  0
  5  6  1  0
  6  7  2  0
  7  8  1  0
  8  9  2  0
  9 10  1  0
 10 11  1  0
 10 12  1  0
 10 13  1  0
  9 14  1  0
 14 15  2  0
 15 16  1  0
 16 17  1  0
 17 18  2  0
 17 19  1  0
 19 20  1  0
 20 21  1  0
 21 22  1  0
 16  4  1  0
 15  6  1  0
  1 23  1  0
  1 24  1  0
  5 25  1  0
  7 26  1  0
  8 27  1  0
 14 28  1  0
 19 29  1  0
 20 30  1  0
 20 31  1  0
 21 32  1  0
 21 33  1  0
 22 34  1  0
M  END
>  <smiles>  (3) 
NC(=O)c1cc2ccc(C(F)(F)F)cc2n1C(=O)NCCO

>  <score_type>  (3) 
oracle

>  <origin>  (3) 
adg

>  <m_score__min__energy>  (3) 
-6.5300000000000002

>  <m_primary>  (3) 
energy

$$$$
3:0
     RDKit          3D

 48 49  0  0  1  0  0  0  0  0999 V2000
  148.7690  155.1700  132.7190 C   0  0  0  0  0  0  0  0  0  0  0  0
  148.1490  156.5140  132.8760 C   0  0  0  0  0  0  0  0  0  0  0  0
  148.9870  157.6020  132.8740 C   0  0  0  0  0  0  0  0  0  0  0  0
  148.4100  158.8430  133.0200 C   0  0  0  0  0  0  0  0  0  0  0  0
  147.0470  158.9620  133.1610 C   0  0  0  0  0  0  0  0  0  0  0  0
  146.2690  160.0690  133.3170 C   0  0  0  0  0  0  0  0  0  0  0  0
  144.9160  159.6760  133.4210 C   0  0  0  0  0  0  0  0  0  0  0  0
  143.8910  160.6810  133.5920 C   0  0  0  0  0  0  0  0  0  0  0  0
  142.4830  160.2920  133.5490 N   0  0  0  0  0  0  0  0  0  0  0  0
  144.0360  161.9060  133.7830 O   0  0  0  0  0  0  0  0  0  0  0  0
  144.8920  158.3300  133.3250 N   0  0  0  0  0  0  0  0  0  0  0  0
  143.7110  157.5760  133.3860 C   0  0  0  0  0  0  0  0  0  0  0  0
  142.7640  157.9330  132.6020 O   0  0  0  0  0  0  0  0  0  0  0  0
  143.3890  156.4750  134.1750 N   0  0  0  0  0  0  0  0  0  0  0  0
  142.0490  155.8970  134.0030 C   0  0  0  0  0  0  0  0  0  0  0  0
  141.0180  156.9340  134.2310 C   0  0  0  0  0  0  0  0  0  0  0  0
  141.2220  157.9680  134.9220 O   0  0  0  0  0  0  0  0  0  0  0  0
  139.7290  156.7910  133.6590 N   0  0  0  0  0  0  0  0  0  0  0  0
  139.4600  155.5140  132.9900 C   0  0  0  0  0  0  0  0  0  0  0  0
  138.7040  157.8040  133.7000 C   0  0  0  0  0  0  0  0  0  0  0  0
  139.0250  159.0170  132.8660 C   0  0  1  0  0  0  0  0  0  0  0  0
  140.1470  159.6300  133.4480 O   0  0  0  0  0  0  0  0  0  0  0  0
  139.4530  158.6210  131.4610 C   0  0  0  0  0  0  0  0  0  0  0  0
  140.6810  159.1820  131.1570 O   0  0  0  0  0  0  0  0  0  0  0  0
  146.1770  157.8880  133.1680 C   0  0  0  0  0  0  0  0  0  0  0  0
  146.7680  156.6550  133.0220 C   0  0  0  0  0  0  0  0  0  0  0  0
  148.9676  154.7396  133.7116 H   0  0  0  0  0  0  0  0  0  0  0  0
  148.0833  154.5124  132.1647 H   0  0  0  0  0  0  0  0  0  0  0  0
  149.7144  155.2648  132.1647 H   0  0  0  0  0  0  0  0  0  0  0  0
  150.0750  157.4864  132.7603 H   0  0  0  0  0  0  0  0  0  0  0  0
  149.0417  159.7436  133.0240 H   0  0  0  0  0  0  0  0  0  0  0  0
  146.6361  161.1052  133.3559 H   0  0  0  0  0  0  0  0  0  0  0  0
  141.9450  160.1750  134.4370 H   0  0  0  0  0  0  0  0  0  0  0  0
  142.0810  160.1490  132.5960 H   0  0  0  0  0  0  0  0  0  0  0  0
  143.9960  156.0560  134.8430 H   0  0  0  0  0  0  0  0  0  0  0  0
  141.9503  155.5037  132.9805 H   0  0  0  0  0  0  0  0  0  0  0  0
  141.9103  155.0835  134.7303 H   0  0  0  0  0  0  0  0  0  0  0  0
  139.2952  154.7318  133.7456 H   0  0  0  0  0  0  0  0  0  0  0  0
  138.5627  155.6113  132.3613 H   0  0  0  0  0  0  0  0  0  0  0  0
  140.3204  155.2411  132.3613 H   0  0  0  0  0  0  0  0  0  0  0  0
  137.7657  157.3652  133.3299 H   0  0  0  0  0  0  0  0  0  0  0  0
  138.6233  158.1410  134.7440 H   0  0  0  0  0  0  0  0  0  0  0  0
  138.1354  159.6624  132.8206 H   0  0  0  0  0  0  0  0  0  0  0  0
  140.9730  159.1210  133.2950 H   0  0  0  0  0  0  0  0  0  0  0  0
  139.5296  157.5254  131.4002 H   0  0  0  0  0  0  0  0  0  0  0  0
  138.7047  158.9869  130.7425 H   0  0  0  0  0  0  0  0  0  0  0  0
  141.3770  158.9380  131.7920 H   0  0  0  0  0  0  0  0  0  0  0  0
  146.1352  155.7552  133.0202 H   0  0  0  0  0  0  0  0  0  0  0  0
  1  2  1  0
  2  3  2  0
  3  4  1  0
  4  5  2  0
  5  6  1  0
  6  7  2  0
  7  8  1  0
  8  9  1  0
  8 10  2  0
  7 11  1  0
 11 12  1  0
 12 13  2  0
 12 14  1  0
 14 15  1  0
 15 16  1  0
 16 17  2  0
 16 18  1  0
 18 19  1  0
 18 20  1  0
 20 21  1  0
 21 22  1  0
 21 23  1  0
 23 24  1  0
 11 25  1  0
 25 26  2  0
 26  2  1  0
 25  5  1  0
  1 27  1  0
  1 28  1  0
  1 29  1  0
  3 30  1  0
  4 31  1  0
  6 32  1  0
  9 33  1  0
  9 34  1  0
 14 35  1  0
 15 36  1  0
 15 37  1  0
 19 38  1  0
 19 39  1  0
 19 40  1  0
 20 41  1  0
 20 42  1  0
 21 43  1  6
 22 44  1  0
 23 45  1  0
 23 46  1  0
 24 47  1  0
 26 48  1  0
M  END
>  <smiles>  (4) 
Cc1ccc2cc(C(N)=O)n(C(=O)NCC(=O)N(C)CC(O)CO)c2c1

>  <score_type>  (4) 
oracle

>  <origin>  (4) 
adg

>  <m_score__min__energy>  (4) 
-7.7199999999999998

>  <m_primary>  (4) 
energy

$$$$
4:0
     RDKit          3D

 38 40  0  0  0  0  0  0  0  0999 V2000
  149.9780  157.7660  132.2010 N   0  0  0  0  0  0  0  0  0  0  0  0
  149.2760  159.0490  132.2040 C   0  0  0  0  0  0  0  0  0  0  0  0
  149.9790  159.9700  131.7680 O   0  0  0  0  0  0  0  0  0  0  0  0
  147.9230  159.0730  132.6920 C   0  0  0  0  0  0  0  0  0  0  0  0
  147.2540  160.3000  132.8770 C   0  0  0  0  0  0  0  0  0  0  0  0
  146.0010  160.0300  133.3290 C   0  0  0  0  0  0  0  0  0  0  0  0
  144.9770  160.8860  133.6530 C   0  0  0  0  0  0  0  0  0  0  0  0
  143.7730  160.4060  134.0950 C   0  0  0  0  0  0  0  0  0  0  0  0
  143.6250  159.0530  134.2010 C   0  0  0  0  0  0  0  0  0  0  0  0
  142.3260  158.5190  134.6780 C   0  0  0  0  0  0  0  0  0  0  0  0
  141.8140  159.2590  135.7160 F   0  0  0  0  0  0  0  0  0  0  0  0
  142.3730  157.1870  135.0010 F   0  0  0  0  0  0  0  0  0  0  0  0
  141.4180  158.6460  133.6220 F   0  0  0  0  0  0  0  0  0  0  0  0
  144.6710  158.1950  133.8680 C   0  0  0  0  0  0  0  0  0  0  0  0
  145.8980  158.6670  133.4190 C   0  0  0  0  0  0  0  0  0  0  0  0
  147.0750  158.0680  133.0290 N   0  0  0  0  0  0  0  0  0  0  0  0
  147.2260  156.6880  133.0150 C   0  0  0  0  0  0  0  0  0  0  0  0
  147.0810  156.1410  131.8350 O   0  0  0  0  0  0  0  0  0  0  0  0
  147.5160  155.6990  134.0360 C   0  0  0  0  0  0  0  0  0  0  0  0
  148.3280  154.6460  133.4340 N   0  0  0  0  0  0  0  0  0  0  0  0
  148.2530  153.3160  133.5480 C   0  0  0  0  0  0  0  0  0  0  0  0
  149.2600  152.7100  132.7830 C   0  0  0  0  0  0  0  0  0  0  0  0
  149.4950  151.2770  132.6580 C   0  0  0  0  0  0  0  0  0  0  0  0
  149.9650  150.8000  131.5950 O   0  0  0  0  0  0  0  0  0  0  0  0
  149.2070  150.4270  133.6980 O   0  0  0  0  0  0  0  0  0  0  0  0
  149.9190  153.7360  132.2250 N   0  0  0  0  0  0  0  0  0  0  0  0
  149.3680  154.8580  132.6100 N   0  0  0  0  0  0  0  0  0  0  0  0
  149.4850  156.9060  131.8330 H   0  0  0  0  0  0  0  0  0  0  0  0
  150.9700  157.7190  132.5670 H   0  0  0  0  0  0  0  0  0  0  0  0
  147.6724  161.2998  132.6887 H   0  0  0  0  0  0  0  0  0  0  0  0
  145.1260  161.9716  133.5562 H   0  0  0  0  0  0  0  0  0  0  0  0
  142.9512  161.0889  134.3563 H   0  0  0  0  0  0  0  0  0  0  0  0
  144.5205  157.1096  133.9636 H   0  0  0  0  0  0  0  0  0  0  0  0
  148.0689  156.1687  134.8629 H   0  0  0  0  0  0  0  0  0  0  0  0
  146.5807  155.2774  134.4328 H   0  0  0  0  0  0  0  0  0  0  0  0
  147.5100  152.7760  134.1534 H   0  0  0  0  0  0  0  0  0  0  0  0
  148.2640  150.3500  134.1120 H   0  0  0  0  0  0  0  0  0  0  0  0
  150.7300  153.6520  131.5930 H   0  0  0  0  0  0  0  0  0  0  0  0
  1  2  1  0
  2  3  2  0
  2  4  1  0
  4  5  2  0
  5  6  1  0
  6  7  2  0
  7  8  1  0
  8  9  2  0
  9 10  1  0
 10 11  1  0
 10 12  1  0
 10 13  1  0
  9 14  1  0
 14 15  2  0
 15 16  1  0
 16 17  1  0
 17 18  2  0
 17 19  1  0
 19 20  1  0
 20 21  1  0
 21 22  2  0
 22 23  1  0
 23 24  2  0
 23 25  1  0
 22 26  1  0
 26 27  1  0
 16  4  1  0
 27 20  2  0
 15  6  1  0
  1 28  1  0
  1 29  1  0
  5 30  1  0
  7 31  1  0
  8 32  1  0
 14 33  1  0
 19 34  1  0
 19 35  1  0
 21 36  1  0
 25 37  1  0
 26 38  1  0
M  CHG  1  20   1
M  END
>  <smiles>  (5) 
NC(=O)c1cc2ccc(C(F)(F)F)cc2n1C(=O)C[n+]1cc(C(=O)O)[nH]n1

>  <score_type>  (5) 
oracle

>  <origin>  (5) 
adg

>  <m_score__min__energy>  (5) 
-7.9900000000000002

>  <m_primary>  (5) 
energy

$$$$
5:0
     RDKit          3D

 43 44  0  0  0  0  0  0  0  0999 V2000
  139.7200  156.9930  133.6990 C   0  0  0  0  0  0  0  0  0  0  0  0
  140.3280  158.3080  133.5960 N   0  0  0  0  0  0  0  0  0  0  0  0
  139.7150  159.2470  132.6840 C   0  0  0  0  0  0  0  0  0  0  0  0
  141.4920  158.6390  134.3800 C   0  0  0  0  0  0  0  0  0  0  0  0
  141.9290  157.7610  135.1250 O   0  0  0  0  0  0  0  0  0  0  0  0
  142.0310  160.0070  134.2000 C   0  0  0  0  0  0  0  0  0  0  0  0
  143.3180  160.1080  134.8210 N   0  0  0  0  0  0  0  0  0  0  0  0
  144.3890  160.2570  133.8430 C   0  0  0  0  0  0  0  0  0  0  0  0
  144.7430  158.9790  133.2140 C   0  0  0  0  0  0  0  0  0  0  0  0
  143.7710  158.4040  132.6090 O   0  0  0  0  0  0  0  0  0  0  0  0
  145.9970  158.3360  133.2040 N   0  0  0  0  0  0  0  0  0  0  0  0
  146.2820  157.1730  133.8340 C   0  0  0  0  0  0  0  0  0  0  0  0
  145.4970  156.2850  134.6510 C   0  0  0  0  0  0  0  0  0  0  0  0
  144.0590  156.4930  134.7490 N   0  0  0  0  0  0  0  0  0  0  0  0
  145.8950  155.3140  135.3210 O   0  0  0  0  0  0  0  0  0  0  0  0
  147.6350  156.8930  133.5590 C   0  0  0  0  0  0  0  0  0  0  0  0
  148.1580  157.8800  132.7710 C   0  0  0  0  0  0  0  0  0  0  0  0
  149.4190  158.0530  132.2440 C   0  0  0  0  0  0  0  0  0  0  0  0
  149.7060  159.1380  131.4720 C   0  0  0  0  0  0  0  0  0  0  0  0
  148.7050  160.0490  131.2360 C   0  0  0  0  0  0  0  0  0  0  0  0
  148.9740  161.2510  130.3960 C   0  0  0  0  0  0  0  0  0  0  0  0
  149.9960  161.9680  130.9960 F   0  0  0  0  0  0  0  0  0  0  0  0
  149.4850  160.7850  129.1870 F   0  0  0  0  0  0  0  0  0  0  0  0
  147.4350  159.8620  131.7760 C   0  0  0  0  0  0  0  0  0  0  0  0
  147.1180  158.7730  132.5610 C   0  0  0  0  0  0  0  0  0  0  0  0
  139.5974  156.7278  134.7595 H   0  0  0  0  0  0  0  0  0  0  0  0
  138.7358  157.0046  133.2078 H   0  0  0  0  0  0  0  0  0  0  0  0
  140.3663  156.2507  133.2078 H   0  0  0  0  0  0  0  0  0  0  0  0
  139.2018  160.0331  133.2573 H   0  0  0  0  0  0  0  0  0  0  0  0
  140.4904  159.7022  132.0504 H   0  0  0  0  0  0  0  0  0  0  0  0
  138.9863  158.7203  132.0504 H   0  0  0  0  0  0  0  0  0  0  0  0
  142.1261  160.2234  133.1257 H   0  0  0  0  0  0  0  0  0  0  0  0
  141.3459  160.7310  134.6652 H   0  0  0  0  0  0  0  0  0  0  0  0
  143.5240  159.2270  135.3440 H   0  0  0  0  0  0  0  0  0  0  0  0
  144.0609  160.9583  133.0616 H   0  0  0  0  0  0  0  0  0  0  0  0
  145.2785  160.6339  134.3690 H   0  0  0  0  0  0  0  0  0  0  0  0
  143.5290  156.2700  135.6030 H   0  0  0  0  0  0  0  0  0  0  0  0
  143.5310  156.8890  133.9150 H   0  0  0  0  0  0  0  0  0  0  0  0
  148.1867  156.0138  133.9231 H   0  0  0  0  0  0  0  0  0  0  0  0
  150.2018  157.3077  132.4486 H   0  0  0  0  0  0  0  0  0  0  0  0
  150.7114  159.2808  131.0492 H   0  0  0  0  0  0  0  0  0  0  0  0
  148.0679  161.8619  130.2700 H   0  0  0  0  0  0  0  0  0  0  0  0
  146.6559  160.6104  131.5689 H   0  0  0  0  0  0  0  0  0  0  0  0
  1  2  1  0
  2  3  1  0
  2  4  1  0
  4  5  2  0
  4  6  1  0
  6  7  1  0
  7  8  1  0
  8  9  1  0
  9 10  2  0
  9 11  1  0
 11 12  1  0
 12 13  1  0
 13 14  1  0
 13 15  2  0
 12 16  2  0
 16 17  1  0
 17 18  2  0
 18 19  1  0
 19 20  2  0
 20 21  1  0
 21 22  1  0
 21 23  1  0
 20 24  1  0
 24 25  2  0
 25 11  1  0
 25 17  1  0
  1 26  1  0
  1 27  1  0
  1 28  1  0
  3 29  1  0
  3 30  1  0
  3 31  1  0
  6 32  1  0
  6 33  1  0
  7 34  1  0
  8 35  1  0
  8 36  1  0
 14 37  1  0
 14 38  1  0
 16 39  1  0
 18 40  1  0
 19 41  1  0
 21 42  1  0
 24 43  1  0
M  END
>  <smiles>  (6) 
CN(C)C(=O)CNCC(=O)n1c(C(N)=O)cc2ccc(C(F)F)cc21

>  <score_type>  (6) 
oracle

>  <origin>  (6) 
adg

>  <m_score__min__energy>  (6) 
-6.8700000000000001

>  <m_primary>  (6) 
energy

$$$$
6:0
     RDKit          3D

 46 48  0  0  1  0  0  0  0  0999 V2000
  147.7230  154.7910  135.0310 C   0  0  0  0  0  0  0  0  0  0  0  0
  147.9360  154.2820  133.6460 N   0  0  0  0  0  0  0  0  0  0  0  0
  148.3750  155.2470  132.7330 C   0  0  0  0  0  0  0  0  0  0  0  0
  149.6440  155.2580  132.5140 O   0  0  0  0  0  0  0  0  0  0  0  0
  147.6440  156.1780  132.0430 O   0  0  0  0  0  0  0  0  0  0  0  0
  146.6080  156.8960  132.6140 C   0  0  0  0  0  0  0  0  0  0  0  0
  145.5960  156.1830  132.9470 O   0  0  0  0  0  0  0  0  0  0  0  0
  146.5710  158.2800  132.8500 N   0  0  0  0  0  0  0  0  0  0  0  0
  147.5210  159.2230  132.7340 C   0  0  0  0  0  0  0  0  0  0  0  0
  148.8970  159.0480  132.3540 C   0  0  0  0  0  0  0  0  0  0  0  0
  149.4660  157.7160  132.3060 N   0  0  0  0  0  0  0  0  0  0  0  0
  149.7000  159.9570  132.0460 O   0  0  0  0  0  0  0  0  0  0  0  0
  146.9950  160.4760  133.0640 C   0  0  0  0  0  0  0  0  0  0  0  0
  145.6910  160.2680  133.3860 C   0  0  0  0  0  0  0  0  0  0  0  0
  144.7280  161.1720  133.7820 C   0  0  0  0  0  0  0  0  0  0  0  0
  143.4470  160.7610  134.0680 C   0  0  0  0  0  0  0  0  0  0  0  0
  143.1680  159.4240  133.9450 C   0  0  0  0  0  0  0  0  0  0  0  0
  141.7850  158.9710  134.2510 C   0  0  0  0  0  0  0  0  0  0  0  0
  141.5250  159.2270  135.5650 F   0  0  0  0  0  0  0  0  0  0  0  0
  141.6890  157.6210  134.0460 F   0  0  0  0  0  0  0  0  0  0  0  0
  140.9080  159.6020  133.3920 F   0  0  0  0  0  0  0  0  0  0  0  0
  144.1470  158.5120  133.5420 C   0  0  0  0  0  0  0  0  0  0  0  0
  145.4440  158.9240  133.2520 C   0  0  0  0  0  0  0  0  0  0  0  0
  147.6480  152.9050  133.4450 C   0  0  2  0  0  0  0  0  0  0  0  0
  148.5340  152.3230  132.3880 C   0  0  0  0  0  0  0  0  0  0  0  0
  147.7980  151.3010  131.7120 N   0  0  0  0  0  0  0  0  0  0  0  0
  146.4130  151.4770  132.0150 C   0  0  0  0  0  0  0  0  0  0  0  0
  146.2490  152.6450  132.9350 C   0  0  2  0  0  0  0  0  0  0  0  0
  145.7580  153.7670  132.3010 O   0  0  0  0  0  0  0  0  0  0  0  0
  148.0425  154.0274  135.7555 H   0  0  0  0  0  0  0  0  0  0  0  0
  148.3132  155.7073  135.1797 H   0  0  0  0  0  0  0  0  0  0  0  0
  146.6561  155.0139  135.1797 H   0  0  0  0  0  0  0  0  0  0  0  0
  149.3420  157.1450  131.4230 H   0  0  0  0  0  0  0  0  0  0  0  0
  149.9830  157.3530  133.1420 H   0  0  0  0  0  0  0  0  0  0  0  0
  147.5295  161.4374  133.0631 H   0  0  0  0  0  0  0  0  0  0  0  0
  144.9880  162.2372  133.8704 H   0  0  0  0  0  0  0  0  0  0  0  0
  142.6750  161.4781  134.3837 H   0  0  0  0  0  0  0  0  0  0  0  0
  143.8871  157.4469  133.4522 H   0  0  0  0  0  0  0  0  0  0  0  0
  147.7923  152.4554  134.4385 H   0  0  0  0  0  0  0  0  0  0  0  0
  148.8282  153.1063  131.6739 H   0  0  0  0  0  0  0  0  0  0  0  0
  149.4453  151.9041  132.8397 H   0  0  0  0  0  0  0  0  0  0  0  0
  148.0210  151.1800  130.7050 H   0  0  0  0  0  0  0  0  0  0  0  0
  145.8547  151.6612  131.0853 H   0  0  0  0  0  0  0  0  0  0  0  0
  146.0256  150.5696  132.5014 H   0  0  0  0  0  0  0  0  0  0  0  0
  145.5189  152.4249  133.7277 H   0  0  0  0  0  0  0  0  0  0  0  0
  146.4670  154.3730  131.9710 H   0  0  0  0  0  0  0  0  0  0  0  0
  1  2  1  0
  2  3  1  0
  3  4  2  0
  3  5  1  0
  5  6  1  0
  6  7  2  0
  6  8  1  0
  8  9  1  0
  9 10  1  0
 10 11  1  0
 10 12  2  0
  9 13  2  0
 13 14  1  0
 14 15  2  0
 15 16  1  0
 16 17  2  0
 17 18  1  0
 18 19  1  0
 18 20  1  0
 18 21  1  0
 17 22  1  0
 22 23  2  0
  2 24  1  0
 24 25  1  0
 25 26  1  0
 26 27  1  0
 27 28  1  0
 28 29  1  0
 23  8  1  0
 28 24  1  0
 23 14  1  0
  1 30  1  0
  1 31  1  0
  1 32  1  0
 11 33  1  0
 11 34  1  0
 13 35  1  0
 15 36  1  0
 16 37  1  0
 22 38  1  0
 24 39  1  1
 25 40  1  0
 25 41  1  0
 26 42  1  0
 27 43  1  0
 27 44  1  0
 28 45  1  1
 29 46  1  0
M  END
>  <smiles>  (7) 
CN(C(=O)OC(=O)n1c(C(N)=O)cc2ccc(C(F)(F)F)cc21)[C@@H]1CNCC1O

>  <score_type>  (7) 
oracle

>  <origin>  (7) 
adg

>  <m_score__min__energy>  (7) 
-7.5999999999999996

>  <m_primary>  (7) 
energy

$$$$
7:0
     RDKit          3D

 32 33  0  0  0  0  0  0  0  0999 V2000
  148.8490  159.5190  134.0780 C   0  0  0  0  0  0  0  0  0  0  0  0
  148.0880  158.6170  133.8070 C   0  0  0  0  0  0  0  0  0  0  0  0
  147.1730  157.5370  133.5090 C   0  0  0  0  0  0  0  0  0  0  0  0
  145.8380  157.7810  133.2890 C   0  0  0  0  0  0  0  0  0  0  0  0
  144.9980  156.7500  133.0100 C   0  0  0  0  0  0  0  0  0  0  0  0
  145.4890  155.4710  132.9500 C   0  0  0  0  0  0  0  0  0  0  0  0
  144.8750  154.2790  132.6950 C   0  0  0  0  0  0  0  0  0  0  0  0
  145.8240  153.2410  132.7480 C   0  0  0  0  0  0  0  0  0  0  0  0
  145.4310  151.8700  132.5130 C   0  0  0  0  0  0  0  0  0  0  0  0
  146.4460  150.8370  132.3780 N   0  0  0  0  0  0  0  0  0  0  0  0
  144.2640  151.4320  132.4050 O   0  0  0  0  0  0  0  0  0  0  0  0
  147.0030  153.8110  133.0360 N   0  0  0  0  0  0  0  0  0  0  0  0
  148.2240  153.1180  133.1830 C   0  0  0  0  0  0  0  0  0  0  0  0
  148.6310  152.6920  134.3180 O   0  0  0  0  0  0  0  0  0  0  0  0
  149.1770  152.7950  132.0790 C   0  0  0  0  0  0  0  0  0  0  0  0
  149.4690  150.9740  132.1650 P   0  0  0  0  0  0  0  0  0  0  0  0
  148.5050  150.3570  131.2040 O   0  0  0  0  0  0  0  0  0  0  0  0
  151.0790  150.7260  131.7080 O   0  0  0  0  0  0  0  0  0  0  0  0
  149.2880  150.4470  133.7470 O   0  0  0  0  0  0  0  0  0  0  0  0
  146.8280  155.1550  133.1630 C   0  0  0  0  0  0  0  0  0  0  0  0
  147.6440  156.2280  133.4410 C   0  0  0  0  0  0  0  0  0  0  0  0
  149.5403  160.3384  134.3242 H   0  0  0  0  0  0  0  0  0  0  0  0
  145.4505  158.8093  133.3388 H   0  0  0  0  0  0  0  0  0  0  0  0
  143.9292  156.9404  132.8331 H   0  0  0  0  0  0  0  0  0  0  0  0
  143.8038  154.1496  132.4811 H   0  0  0  0  0  0  0  0  0  0  0  0
  146.3250  150.0440  131.7130 H   0  0  0  0  0  0  0  0  0  0  0  0
  147.3280  150.8940  132.9690 H   0  0  0  0  0  0  0  0  0  0  0  0
  148.7395  153.0653  131.1066 H   0  0  0  0  0  0  0  0  0  0  0  0
  150.1169  153.3566  132.1843 H   0  0  0  0  0  0  0  0  0  0  0  0
  151.5490  151.5840  131.8690 H   0  0  0  0  0  0  0  0  0  0  0  0
  148.3550  150.6210  134.0430 H   0  0  0  0  0  0  0  0  0  0  0  0
  148.7141  156.0438  133.6170 H   0  0  0  0  0  0  0  0  0  0  0  0
  1  2  3  0
  2  3  1  0
  3  4  2  0
  4  5  1  0
  5  6  2  0
  6  7  1  0
  7  8  2  0
  8  9  1  0
  9 10  1  0
  9 11  2  0
  8 12  1  0
 12 13  1  0
 13 14  2  0
 13 15  1  0
 15 16  1  0
 16 17  2  0
 16 18  1  0
 16 19  1  0
 12 20  1  0
 20 21  2  0
 21  3  1  0
 20  6  1  0
  1 22  1  0
  4 23  1  0
  5 24  1  0
  7 25  1  0
 10 26  1  0
 10 27  1  0
 15 28  1  0
 15 29  1  0
 18 30  1  0
 19 31  1  0
 21 32  1  0
M  END
>  <smiles>  (8) 
C#Cc1ccc2cc(C(N)=O)n(C(=O)CP(=O)(O)O)c2c1

>  <score_type>  (8) 
oracle

>  <origin>  (8) 
adg

>  <m_score__min__energy>  (8) 
-7.2000000000000002

>  <m_primary>  (8) 
energy

$$$$
8:0
     RDKit          3D

 38 39  0  0  0  0  0  0  0  0999 V2000
  149.5260  159.9580  129.7350 C   0  0  0  0  0  0  0  0  0  0  0  0
  149.6110  160.5420  131.1250 C   0  0  0  0  0  0  0  0  0  0  0  0
  149.7000  159.5150  132.1480 N   0  0  0  0  0  0  0  0  0  0  0  0
  148.5540  158.7510  132.4880 C   0  0  0  0  0  0  0  0  0  0  0  0
  147.3480  159.3650  132.6320 C   0  0  0  0  0  0  0  0  0  0  0  0
  146.2600  158.5830  132.9490 C   0  0  0  0  0  0  0  0  0  0  0  0
  146.4040  157.2250  133.1150 C   0  0  0  0  0  0  0  0  0  0  0  0
  145.4690  156.2850  133.4230 C   0  0  0  0  0  0  0  0  0  0  0  0
  146.1340  155.0460  133.4710 C   0  0  0  0  0  0  0  0  0  0  0  0
  145.3780  153.8430  133.7570 C   0  0  0  0  0  0  0  0  0  0  0  0
  145.6620  152.6170  133.0200 N   0  0  0  0  0  0  0  0  0  0  0  0
  144.4700  153.7030  134.5980 O   0  0  0  0  0  0  0  0  0  0  0  0
  147.4420  155.2240  133.1960 N   0  0  0  0  0  0  0  0  0  0  0  0
  148.4950  154.3150  133.0510 C   0  0  0  0  0  0  0  0  0  0  0  0
  149.4430  154.6830  132.2450 O   0  0  0  0  0  0  0  0  0  0  0  0
  148.7270  153.0060  133.6450 C   0  0  0  0  0  0  0  0  0  0  0  0
  148.8540  151.6490  132.4570 P   0  0  0  0  0  0  0  0  0  0  0  0
  149.4000  150.3780  133.0610 O   0  0  0  0  0  0  0  0  0  0  0  0
  149.8800  152.1280  131.2180 O   0  0  0  0  0  0  0  0  0  0  0  0
  147.3130  151.3850  131.7880 O   0  0  0  0  0  0  0  0  0  0  0  0
  147.5970  156.5670  132.9810 C   0  0  0  0  0  0  0  0  0  0  0  0
  148.6870  157.3720  132.6580 C   0  0  0  0  0  0  0  0  0  0  0  0
  149.3679  158.8715  129.8028 H   0  0  0  0  0  0  0  0  0  0  0  0
  148.6853  160.4179  129.1948 H   0  0  0  0  0  0  0  0  0  0  0  0
  150.4629  160.1592  129.1948 H   0  0  0  0  0  0  0  0  0  0  0  0
  150.5040  161.1813  131.1865 H   0  0  0  0  0  0  0  0  0  0  0  0
  148.6919  161.1189  131.3053 H   0  0  0  0  0  0  0  0  0  0  0  0
  150.6350  159.3730  132.6130 H   0  0  0  0  0  0  0  0  0  0  0  0
  147.2457  160.4522  132.4993 H   0  0  0  0  0  0  0  0  0  0  0  0
  145.2699  159.0468  133.0702 H   0  0  0  0  0  0  0  0  0  0  0  0
  144.3977  156.4605  133.6005 H   0  0  0  0  0  0  0  0  0  0  0  0
  146.1450  151.8540  133.5870 H   0  0  0  0  0  0  0  0  0  0  0  0
  145.4100  152.5110  132.0220 H   0  0  0  0  0  0  0  0  0  0  0  0
  149.6661  153.0505  134.2161 H   0  0  0  0  0  0  0  0  0  0  0  0
  147.8493  152.7892  134.2716 H   0  0  0  0  0  0  0  0  0  0  0  0
  150.4080  152.9040  131.5240 H   0  0  0  0  0  0  0  0  0  0  0  0
  147.0250  152.2800  131.4110 H   0  0  0  0  0  0  0  0  0  0  0  0
  149.6772  156.9094  132.5338 H   0  0  0  0  0  0  0  0  0  0  0  0
  1  2  1  0
  2  3  1  0
  3  4  1  0
  4  5  2  0
  5  6  1  0
  6  7  2  0
  7  8  1  0
  8  9  2  0
  9 10  1  0
 10 11  1  0
 10 12  2  0
  9 13  1  0
 13 14  1  0
 14 15  2  0
 14 16  1  0
 16 17  1  0
 17 18  2  0
 17 19  1  0
 17 20  1  0
 13 21  1  0
 21 22  2  0
 22  4  1  0
 21  7  1  0
  1 23  1  0
  1 24  1  0
  1 25  1  0
  2 26  1  0
  2 27  1  0
  3 28  1  0
  5 29  1  0
  6 30  1  0
  8 31  1  0
 11 32  1  0
 11 33  1  0
 16 34  1  0
 16 35  1  0
 19 36  1  0
 20 37  1  0
 22 38  1  0
M  END
>  <smiles>  (9) 
CCNc1ccc2cc(C(N)=O)n(C(=O)CP(=O)(O)O)c2c1

>  <score_type>  (9) 
oracle

>  <origin>  (9) 
adg

>  <m_score__min__energy>  (9) 
-7.4000000000000004

>  <m_primary>  (9) 
energy

$$$$
9:0
     RDKit          3D

 44 45  0  0  0  0  0  0  0  0999 V2000
  138.9980  148.8540  129.2640 C   0  0  0  0  0  0  0  0  0  0  0  0
  139.5570  148.0900  130.4340 C   0  0  0  0  0  0  0  0  0  0  0  0
  139.4320  146.8450  130.3510 O   0  0  0  0  0  0  0  0  0  0  0  0
  140.1510  148.7970  131.4900 N   0  0  0  0  0  0  0  0  0  0  0  0
  141.2180  148.1000  132.2300 C   0  0  0  0  0  0  0  0  0  0  0  0
  139.8620  150.0970  131.9450 C   0  0  0  0  0  0  0  0  0  0  0  0
  138.6530  150.4700  131.7850 O   0  0  0  0  0  0  0  0  0  0  0  0
  140.7580  151.0430  132.5600 C   0  0  0  0  0  0  0  0  0  0  0  0
  141.8660  150.7840  133.0750 O   0  0  0  0  0  0  0  0  0  0  0  0
  140.3770  152.4360  132.6080 N   0  0  0  0  0  0  0  0  0  0  0  0
  141.3200  153.4110  133.2450 C   0  0  0  0  0  0  0  0  0  0  0  0
  140.5870  154.6720  133.4630 C   0  0  0  0  0  0  0  0  0  0  0  0
  139.4190  154.6460  132.9020 O   0  0  0  0  0  0  0  0  0  0  0  0
  140.9500  155.8220  134.1460 N   0  0  0  0  0  0  0  0  0  0  0  0
  141.6870  155.9870  135.2770 C   0  0  0  0  0  0  0  0  0  0  0  0
  142.2690  155.0530  136.1880 C   0  0  0  0  0  0  0  0  0  0  0  0
  143.2990  155.2170  137.1210 N   0  0  0  0  0  0  0  0  0  0  0  0
  141.7920  153.8500  136.1750 O   0  0  0  0  0  0  0  0  0  0  0  0
  141.7870  157.3790  135.5070 C   0  0  0  0  0  0  0  0  0  0  0  0
  141.1130  158.0380  134.5220 C   0  0  0  0  0  0  0  0  0  0  0  0
  140.9270  159.3840  134.3180 C   0  0  0  0  0  0  0  0  0  0  0  0
  140.2020  159.8410  133.2440 C   0  0  0  0  0  0  0  0  0  0  0  0
  139.6740  158.9040  132.3900 C   0  0  0  0  0  0  0  0  0  0  0  0
  138.8820  159.3680  131.2160 C   0  0  0  0  0  0  0  0  0  0  0  0
  137.5340  159.2220  131.4230 F   0  0  0  0  0  0  0  0  0  0  0  0
  139.1720  160.6940  130.9640 F   0  0  0  0  0  0  0  0  0  0  0  0
  139.1860  158.6610  130.0680 F   0  0  0  0  0  0  0  0  0  0  0  0
  139.8700  157.5340  132.6080 C   0  0  0  0  0  0  0  0  0  0  0  0
  140.6020  157.0750  133.6930 C   0  0  0  0  0  0  0  0  0  0  0  0
  138.3857  149.6908  129.6313 H   0  0  0  0  0  0  0  0  0  0  0  0
  139.8247  149.2452  128.6528 H   0  0  0  0  0  0  0  0  0  0  0  0
  138.3750  148.1845  128.6528 H   0  0  0  0  0  0  0  0  0  0  0  0
  141.0475  148.2114  133.3110 H   0  0  0  0  0  0  0  0  0  0  0  0
  141.2103  147.0323  131.9657 H   0  0  0  0  0  0  0  0  0  0  0  0
  142.1926  148.5361  131.9657 H   0  0  0  0  0  0  0  0  0  0  0  0
  139.4810  152.7340  132.2130 H   0  0  0  0  0  0  0  0  0  0  0  0
  141.6751  153.0137  134.2073 H   0  0  0  0  0  0  0  0  0  0  0  0
  142.1920  153.5812  132.5964 H   0  0  0  0  0  0  0  0  0  0  0  0
  143.1950  155.2820  138.1520 H   0  0  0  0  0  0  0  0  0  0  0  0
  144.2840  155.2810  136.7460 H   0  0  0  0  0  0  0  0  0  0  0  0
  142.3213  157.8525  136.3439 H   0  0  0  0  0  0  0  0  0  0  0  0
  141.3644  160.1054  135.0239 H   0  0  0  0  0  0  0  0  0  0  0  0
  140.0502  160.9172  133.0746 H   0  0  0  0  0  0  0  0  0  0  0  0
  139.4349  156.8083  131.9051 H   0  0  0  0  0  0  0  0  0  0  0  0
  1  2  1  0
  2  3  2  0
  2  4  1  0
  4  5  1  0
  4  6  1  0
  6  7  2  0
  6  8  1  0
  8  9  2  0
  8 10  1  0
 10 11  1  0
 11 12  1  0
 12 13  2  0
 12 14  1  0
 14 15  1  0
 15 16  1  0
 16 17  1  0
 16 18  2  0
 15 19  2  0
 19 20  1  0
 20 21  2  0
 21 22  1  0
 22 23  2  0
 23 24  1  0
 24 25  1  0
 24 26  1  0
 24 27  1  0
 23 28  1  0
 28 29  2  0
 29 14  1  0
 29 20  1  0
  1 30  1  0
  1 31  1  0
  1 32  1  0
  5 33  1  0
  5 34  1  0
  5 35  1  0
 10 36  1  0
 11 37  1  0
 11 38  1  0
 17 39  1  0
 17 40  1  0
 19 41  1  0
 21 42  1  0
 22 43  1  0
 28 44  1  0
M  END
>  <smiles>  (10) 
CC(=O)N(C)C(=O)C(=O)NCC(=O)n1c(C(N)=O)cc2ccc(C(F)(F)F)cc21

>  <score_type>  (10) 
oracle

>  <origin>  (10) 
adg

>  <m_score__min__energy>  (10) 
-8.2799999999999994

>  <m_primary>  (10) 
energy

$$$$
10:0
     RDKit          3D

 66 68  0  0  1  0  0  0  0  0999 V2000
  149.5050  151.8930  132.8690 C   0  0  0  0  0  0  0  0  0  0  0  0
  148.4710  152.9560  132.5900 C   0  0  1  0  0  0  0  0  0  0  0  0
  147.2350  152.3940  132.2610 O   0  0  0  0  0  0  0  0  0  0  0  0
  148.3580  153.9810  133.6780 C   0  0  2  0  0  0  0  0  0  0  0  0
  147.4760  153.4160  134.6900 N   0  0  0  0  0  0  0  0  0  0  0  0
  147.4820  153.9430  136.0240 C   0  0  0  0  0  0  0  0  0  0  0  0
  148.2700  154.8890  136.2530 O   0  0  0  0  0  0  0  0  0  0  0  0
  146.6690  153.4390  137.0020 O   0  0  0  0  0  0  0  0  0  0  0  0
  147.1290  152.8630  138.2150 C   0  0  0  0  0  0  0  0  0  0  0  0
  145.9720  152.2120  138.9350 C   0  0  0  0  0  0  0  0  0  0  0  0
  148.0900  151.7270  137.8420 C   0  0  0  0  0  0  0  0  0  0  0  0
  147.9020  153.8060  139.0790 C   0  0  0  0  0  0  0  0  0  0  0  0
  147.9150  155.3000  133.1980 C   0  0  0  0  0  0  0  0  0  0  0  0
  148.6510  156.3230  133.3680 O   0  0  0  0  0  0  0  0  0  0  0  0
  146.6690  155.4100  132.5510 O   0  0  0  0  0  0  0  0  0  0  0  0
  145.5370  155.8800  133.2130 C   0  0  0  0  0  0  0  0  0  0  0  0
  144.8770  154.8960  133.9870 O   0  0  0  0  0  0  0  0  0  0  0  0
  144.3490  153.7400  133.4350 C   0  0  0  0  0  0  0  0  0  0  0  0
  144.8970  152.6250  133.5830 O   0  0  0  0  0  0  0  0  0  0  0  0
  143.1740  153.8650  132.7030 O   0  0  0  0  0  0  0  0  0  0  0  0
  141.9150  153.8900  133.3040 C   0  0  0  0  0  0  0  0  0  0  0  0
  141.0850  153.0730  132.8410 O   0  0  0  0  0  0  0  0  0  0  0  0
  141.6570  154.7990  134.3610 N   0  0  0  0  0  0  0  0  0  0  0  0
  142.0910  154.7150  135.6290 C   0  0  0  0  0  0  0  0  0  0  0  0
  142.9160  153.7250  136.2880 C   0  0  0  0  0  0  0  0  0  0  0  0
  144.3470  153.9300  136.3470 N   0  0  0  0  0  0  0  0  0  0  0  0
  142.5180  152.6770  136.8300 O   0  0  0  0  0  0  0  0  0  0  0  0
  141.5840  155.8350  136.3030 C   0  0  0  0  0  0  0  0  0  0  0  0
  140.8450  156.5910  135.4340 C   0  0  0  0  0  0  0  0  0  0  0  0
  140.1500  157.7730  135.6090 C   0  0  0  0  0  0  0  0  0  0  0  0
  139.4850  158.3250  134.5590 C   0  0  0  0  0  0  0  0  0  0  0  0
  139.5190  157.6960  133.3470 C   0  0  0  0  0  0  0  0  0  0  0  0
  138.7880  158.2950  132.1770 C   0  0  0  0  0  0  0  0  0  0  0  0
  138.7020  159.7770  132.0520 C   0  0  0  0  0  0  0  0  0  0  0  0
  139.6370  158.9900  131.1890 C   0  0  0  0  0  0  0  0  0  0  0  0
  140.2180  156.5120  133.1770 C   0  0  0  0  0  0  0  0  0  0  0  0
  140.9030  155.9240  134.2250 C   0  0  0  0  0  0  0  0  0  0  0  0
  149.6226  151.7722  133.9560 H   0  0  0  0  0  0  0  0  0  0  0  0
  149.1793  150.9397  132.4272 H   0  0  0  0  0  0  0  0  0  0  0  0
  150.4669  152.1922  132.4272 H   0  0  0  0  0  0  0  0  0  0  0  0
  148.8297  153.5080  131.7087 H   0  0  0  0  0  0  0  0  0  0  0  0
  146.5490  153.1070  132.2200 H   0  0  0  0  0  0  0  0  0  0  0  0
  149.3502  154.1906  134.1042 H   0  0  0  0  0  0  0  0  0  0  0  0
  146.8470  152.6270  134.4230 H   0  0  0  0  0  0  0  0  0  0  0  0
  146.1220  152.2964  140.0214 H   0  0  0  0  0  0  0  0  0  0  0  0
  145.0352  152.7155  138.6540 H   0  0  0  0  0  0  0  0  0  0  0  0
  145.9161  151.1500  138.6540 H   0  0  0  0  0  0  0  0  0  0  0  0
  148.4826  151.2629  138.7588 H   0  0  0  0  0  0  0  0  0  0  0  0
  147.5526  150.9717  137.2499 H   0  0  0  0  0  0  0  0  0  0  0  0
  148.9240  152.1318  137.2499 H   0  0  0  0  0  0  0  0  0  0  0  0
  147.7115  153.5737  140.1372 H   0  0  0  0  0  0  0  0  0  0  0  0
  148.9763  153.6998  138.8679 H   0  0  0  0  0  0  0  0  0  0  0  0
  147.5871  154.8386  138.8679 H   0  0  0  0  0  0  0  0  0  0  0  0
  145.8412  156.6996  133.8806 H   0  0  0  0  0  0  0  0  0  0  0  0
  144.8270  156.2078  132.4394 H   0  0  0  0  0  0  0  0  0  0  0  0
  144.7270  154.5460  137.1040 H   0  0  0  0  0  0  0  0  0  0  0  0
  144.9520  153.4550  135.6320 H   0  0  0  0  0  0  0  0  0  0  0  0
  141.7537  156.0694  137.3643 H   0  0  0  0  0  0  0  0  0  0  0  0
  140.1349  158.2647  136.5928 H   0  0  0  0  0  0  0  0  0  0  0  0
  138.9275  159.2650  134.6840 H   0  0  0  0  0  0  0  0  0  0  0  0
  138.0347  157.4937  132.1583 H   0  0  0  0  0  0  0  0  0  0  0  0
  137.8069  160.2430  131.6142 H   0  0  0  0  0  0  0  0  0  0  0  0
  138.8035  160.6273  132.7424 H   0  0  0  0  0  0  0  0  0  0  0  0
  139.4316  158.8801  130.1139 H   0  0  0  0  0  0  0  0  0  0  0  0
  140.7164  159.0247  130.9799 H   0  0  0  0  0  0  0  0  0  0  0  0
  140.2285  156.0297  132.1884 H   0  0  0  0  0  0  0  0  0  0  0  0
  1  2  1  0
  2  3  1  0
  2  4  1  0
  4  5  1  0
  5  6  1  0
  6  7  2  0
  6  8  1  0
  8  9  1  0
  9 10  1  0
  9 11  1  0
  9 12  1  0
  4 13  1  0
 13 14  2  0
 13 15  1  0
 15 16  1  0
 16 17  1  0
 17 18  1  0
 18 19  2  0
 18 20  1  0
 20 21  1  0
 21 22  2  0
 21 23  1  0
 23 24  1  0
 24 25  1  0
 25 26  1  0
 25 27  2  0
 24 28  2  0
 28 29  1  0
 29 30  2  0
 30 31  1  0
 31 32  2  0
 32 33  1  0
 33 34  1  0
 34 35  1  0
 32 36  1  0
 36 37  2  0
 37 23  1  0
 37 29  1  0
 35 33  1  0
  1 38  1  0
  1 39  1  0
  1 40  1  0
  2 41  1  6
  3 42  1  0
  4 43  1  1
  5 44  1  0
 10 45  1  0
 10 46  1  0
 10 47  1  0
 11 48  1  0
 11 49  1  0
 11 50  1  0
 12 51  1  0
 12 52  1  0
 12 53  1  0
 16 54  1  0
 16 55  1  0
 26 56  1  0
 26 57  1  0
 28 58  1  0
 30 59  1  0
 31 60  1  0
 33 61  1  0
 34 62  1  0
 34 63  1  0
 35 64  1  0
 35 65  1  0
 36 66  1  0
M  END
>  <smiles>  (11) 
CC(O)C(NC(=O)OC(C)(C)C)C(=O)OCOC(=O)OC(=O)n1c(C(N)=O)cc2ccc(C3CC3)cc21

>  <score_type>  (11) 
oracle

>  <origin>  (11) 
adg

>  <m_score__min__energy>  (11) 
-9.1799999999999997

>  <m_primary>  (11) 
energy

$$$$
12:0
     RDKit          3D

 40 41  0  0  0  0  0  0  0  0999 V2000
  138.3740  160.7270  130.7240 C   0  0  0  0  0  0  0  0  0  0  0  0
  138.9110  159.5140  131.2780 N   0  0  0  0  0  0  0  0  0  0  0  0
  138.4030  158.2510  130.7980 C   0  0  0  0  0  0  0  0  0  0  0  0
  139.9050  159.5930  132.2600 C   0  0  0  0  0  0  0  0  0  0  0  0
  140.2860  160.7520  132.6140 O   0  0  0  0  0  0  0  0  0  0  0  0
  140.4990  158.3810  132.8710 C   0  0  0  0  0  0  0  0  0  0  0  0
  139.9060  157.8050  133.8110 O   0  0  0  0  0  0  0  0  0  0  0  0
  141.7230  157.9320  132.3510 O   0  0  0  0  0  0  0  0  0  0  0  0
  142.5120  157.0450  133.1390 C   0  0  0  0  0  0  0  0  0  0  0  0
  142.1780  155.8550  132.9880 O   0  0  0  0  0  0  0  0  0  0  0  0
  143.5230  157.6320  133.9480 C   0  0  0  0  0  0  0  0  0  0  0  0
  143.2340  157.6380  135.2220 O   0  0  0  0  0  0  0  0  0  0  0  0
  144.7760  158.2050  133.6730 N   0  0  0  0  0  0  0  0  0  0  0  0
  144.9440  159.5400  133.4930 C   0  0  0  0  0  0  0  0  0  0  0  0
  144.0730  160.6810  133.6450 C   0  0  0  0  0  0  0  0  0  0  0  0
  142.6480  160.5530  133.3660 N   0  0  0  0  0  0  0  0  0  0  0  0
  144.3870  161.8390  134.0060 O   0  0  0  0  0  0  0  0  0  0  0  0
  146.2990  159.7410  133.1470 C   0  0  0  0  0  0  0  0  0  0  0  0
  146.9370  158.5450  133.1190 C   0  0  0  0  0  0  0  0  0  0  0  0
  148.2440  158.2340  132.8230 C   0  0  0  0  0  0  0  0  0  0  0  0
  148.6750  156.9310  132.8380 C   0  0  0  0  0  0  0  0  0  0  0  0
  147.7480  155.9650  133.1580 C   0  0  0  0  0  0  0  0  0  0  0  0
  148.1800  154.5320  133.1830 C   0  0  0  0  0  0  0  0  0  0  0  0
  147.1650  153.8090  132.5950 F   0  0  0  0  0  0  0  0  0  0  0  0
  148.3750  154.1760  134.5080 F   0  0  0  0  0  0  0  0  0  0  0  0
  149.3780  154.3960  132.5020 F   0  0  0  0  0  0  0  0  0  0  0  0
  146.4330  156.3020  133.4540 C   0  0  0  0  0  0  0  0  0  0  0  0
  145.9800  157.5960  133.4480 C   0  0  0  0  0  0  0  0  0  0  0  0
  138.0752  161.4018  131.5397 H   0  0  0  0  0  0  0  0  0  0  0  0
  139.1392  161.2172  130.1042 H   0  0  0  0  0  0  0  0  0  0  0  0
  137.4967  160.4901  130.1042 H   0  0  0  0  0  0  0  0  0  0  0  0
  138.1453  157.6102  131.6542 H   0  0  0  0  0  0  0  0  0  0  0  0
  137.5050  158.4253  130.1870 H   0  0  0  0  0  0  0  0  0  0  0  0
  139.1716  157.7550  130.1870 H   0  0  0  0  0  0  0  0  0  0  0  0
  142.3630  160.0180  132.5070 H   0  0  0  0  0  0  0  0  0  0  0  0
  141.9470  160.9840  134.0090 H   0  0  0  0  0  0  0  0  0  0  0  0
  146.7635  160.7151  132.9338 H   0  0  0  0  0  0  0  0  0  0  0  0
  148.9512  159.0382  132.5716 H   0  0  0  0  0  0  0  0  0  0  0  0
  149.7176  156.6696  132.6041 H   0  0  0  0  0  0  0  0  0  0  0  0
  145.7259  155.4971  133.7035 H   0  0  0  0  0  0  0  0  0  0  0  0
  1  2  1  0
  2  3  1  0
  2  4  1  0
  4  5  2  0
  4  6  1  0
  6  7  2  0
  6  8  1  0
  8  9  1  0
  9 10  2  0
  9 11  1  0
 11 12  2  0
 11 13  1  0
 13 14  1  0
 14 15  1  0
 15 16  1  0
 15 17  2  0
 14 18  2  0
 18 19  1  0
 19 20  2  0
 20 21  1  0
 21 22  2  0
 22 23  1  0
 23 24  1  0
 23 25  1  0
 23 26  1  0
 22 27  1  0
 27 28  2  0
 28 13  1  0
 28 19  1  0
  1 29  1  0
  1 30  1  0
  1 31  1  0
  3 32  1  0
  3 33  1  0
  3 34  1  0
 16 35  1  0
 16 36  1  0
 18 37  1  0
 20 38  1  0
 21 39  1  0
 27 40  1  0
M  END
>  <smiles>  (12) 
CN(C)C(=O)C(=O)OC(=O)C(=O)n1c(C(N)=O)cc2ccc(C(F)(F)F)cc21

>  <score_type>  (12) 
oracle

>  <origin>  (12) 
adg

>  <m_score__min__energy>  (12) 
-6.9699999999999998

>  <m_primary>  (12) 
energy

$$$$
13:0
     RDKit          3D

 55 56  0  0  1  0  0  0  0  0999 V2000
  142.5710  153.4540  135.7950 C   0  0  0  0  0  0  0  0  0  0  0  0
  142.4000  154.6930  135.2190 O   0  0  0  0  0  0  0  0  0  0  0  0
  142.4450  155.7470  136.1040 C   0  0  0  0  0  0  0  0  0  0  0  0
  141.0930  156.2180  136.5490 C   0  0  0  0  0  0  0  0  0  0  0  0
  140.7980  157.4730  135.8360 N   0  0  0  0  0  0  0  0  0  0  0  0
  140.7080  158.7220  136.5620 C   0  0  0  0  0  0  0  0  0  0  0  0
  140.6210  157.3560  134.4350 C   0  0  0  0  0  0  0  0  0  0  0  0
  140.6620  156.2040  133.9430 O   0  0  0  0  0  0  0  0  0  0  0  0
  140.3930  158.5370  133.5520 C   0  0  2  0  0  0  0  0  0  0  0  0
  139.1310  158.3500  132.7270 C   0  0  0  0  0  0  0  0  0  0  0  0
  141.5400  158.7920  132.7090 N   0  0  0  0  0  0  0  0  0  0  0  0
  142.8430  158.2900  132.9740 C   0  0  0  0  0  0  0  0  0  0  0  0
  143.8350  159.1150  133.4560 C   0  0  0  0  0  0  0  0  0  0  0  0
  145.0910  158.6060  133.6990 C   0  0  0  0  0  0  0  0  0  0  0  0
  145.3280  157.2690  133.4520 C   0  0  0  0  0  0  0  0  0  0  0  0
  146.4630  156.5410  133.6100 C   0  0  0  0  0  0  0  0  0  0  0  0
  146.1920  155.2070  133.2150 C   0  0  0  0  0  0  0  0  0  0  0  0
  147.2430  154.2290  133.2470 C   0  0  0  0  0  0  0  0  0  0  0  0
  147.2210  152.9000  132.8070 N   0  0  0  0  0  0  0  0  0  0  0  0
  148.3640  154.6160  133.7340 O   0  0  0  0  0  0  0  0  0  0  0  0
  144.9090  155.1430  132.8340 N   0  0  0  0  0  0  0  0  0  0  0  0
  144.0800  154.0550  132.4940 C   0  0  0  0  0  0  0  0  0  0  0  0
  144.6000  153.0250  131.9280 O   0  0  0  0  0  0  0  0  0  0  0  0
  142.6870  153.9420  132.6900 N   0  0  0  0  0  0  0  0  0  0  0  0
  142.0550  152.7020  132.2600 C   0  0  0  0  0  0  0  0  0  0  0  0
  140.6500  152.6920  132.7190 C   0  0  0  0  0  0  0  0  0  0  0  0
  139.8680  151.7230  132.6210 O   0  0  0  0  0  0  0  0  0  0  0  0
  140.1570  153.8490  133.3060 O   0  0  0  0  0  0  0  0  0  0  0  0
  144.3750  156.4020  132.9720 C   0  0  0  0  0  0  0  0  0  0  0  0
  143.1240  156.9450  132.7380 C   0  0  0  0  0  0  0  0  0  0  0  0
  142.5572  153.5538  136.8904 H   0  0  0  0  0  0  0  0  0  0  0  0
  141.7565  152.7864  135.4774 H   0  0  0  0  0  0  0  0  0  0  0  0
  143.5359  153.0320  135.4774 H   0  0  0  0  0  0  0  0  0  0  0  0
  143.0123  155.4310  136.9919 H   0  0  0  0  0  0  0  0  0  0  0  0
  142.9217  156.5878  135.5788 H   0  0  0  0  0  0  0  0  0  0  0  0
  140.3334  155.4609  136.3044 H   0  0  0  0  0  0  0  0  0  0  0  0
  141.0810  156.3813  137.6367 H   0  0  0  0  0  0  0  0  0  0  0  0
  140.7226  158.5196  137.6431 H   0  0  0  0  0  0  0  0  0  0  0  0
  141.5623  159.3624  136.2973 H   0  0  0  0  0  0  0  0  0  0  0  0
  139.7707  159.2332  136.2973 H   0  0  0  0  0  0  0  0  0  0  0  0
  140.2549  159.4211  134.1917 H   0  0  0  0  0  0  0  0  0  0  0  0
  138.2694  158.2223  133.3988 H   0  0  0  0  0  0  0  0  0  0  0  0
  138.9733  159.2346  132.0925 H   0  0  0  0  0  0  0  0  0  0  0  0
  139.2366  157.4577  132.0925 H   0  0  0  0  0  0  0  0  0  0  0  0
  141.3770  159.3810  131.8630 H   0  0  0  0  0  0  0  0  0  0  0  0
  143.6244  160.1777  133.6463 H   0  0  0  0  0  0  0  0  0  0  0  0
  145.8922  159.2542  134.0836 H   0  0  0  0  0  0  0  0  0  0  0  0
  147.4265  156.9208  133.9806 H   0  0  0  0  0  0  0  0  0  0  0  0
  146.9070  152.5760  131.8630 H   0  0  0  0  0  0  0  0  0  0  0  0
  147.5500  152.1590  133.4940 H   0  0  0  0  0  0  0  0  0  0  0  0
  142.1180  154.6940  133.0740 H   0  0  0  0  0  0  0  0  0  0  0  0
  142.0846  152.6345  131.1625 H   0  0  0  0  0  0  0  0  0  0  0  0
  142.5919  151.8435  132.6898 H   0  0  0  0  0  0  0  0  0  0  0  0
  140.7580  154.4380  133.9030 H   0  0  0  0  0  0  0  0  0  0  0  0
  142.3250  156.2942  132.3532 H   0  0  0  0  0  0  0  0  0  0  0  0
  1  2  1  0
  2  3  1  0
  3  4  1  0
  4  5  1  0
  5  6  1  0
  5  7  1  0
  7  8  2  0
  7  9  1  0
  9 10  1  0
  9 11  1  0
 11 12  1  0
 12 13  2  0
 13 14  1  0
 14 15  2  0
 15 16  1  0
 16 17  2  0
 17 18  1  0
 18 19  1  0
 18 20  2  0
 17 21  1  0
 21 22  1  0
 22 23  2  0
 22 24  1  0
 24 25  1  0
 25 26  1  0
 26 27  2  0
 26 28  1  0
 21 29  1  0
 29 30  2  0
 30 12  1  0
 29 15  1  0
  1 31  1  0
  1 32  1  0
  1 33  1  0
  3 34  1  0
  3 35  1  0
  4 36  1  0
  4 37  1  0
  6 38  1  0
  6 39  1  0
  6 40  1  0
  9 41  1  1
 10 42  1  0
 10 43  1  0
 10 44  1  0
 11 45  1  0
 13 46  1  0
 14 47  1  0
 16 48  1  0
 19 49  1  0
 19 50  1  0
 24 51  1  0
 25 52  1  0
 25 53  1  0
 28 54  1  0
 30 55  1  0
M  END
>  <smiles>  (13) 
COCCN(C)C(=O)C(C)Nc1ccc2cc(C(N)=O)n(C(=O)NCC(=O)O)c2c1

>  <score_type>  (13) 
oracle

>  <origin>  (13) 
adg

>  <m_score__min__energy>  (13) 
-8.3499999999999996

>  <m_primary>  (13) 
energy

$$$$
14:0
     RDKit          3D

 48 49  0  0  0  0  0  0  0  0999 V2000
  148.4920  156.0990  132.9580 C   0  0  0  0  0  0  0  0  0  0  0  0
  147.6200  157.3140  133.0450 C   0  0  0  0  0  0  0  0  0  0  0  0
  148.1480  158.5380  132.7110 C   0  0  0  0  0  0  0  0  0  0  0  0
  147.3180  159.6280  132.8010 C   0  0  0  0  0  0  0  0  0  0  0  0
  146.0150  159.4770  133.2150 C   0  0  0  0  0  0  0  0  0  0  0  0
  145.0280  160.4120  133.3680 C   0  0  0  0  0  0  0  0  0  0  0  0
  143.8440  159.7760  133.8120 C   0  0  0  0  0  0  0  0  0  0  0  0
  142.6640  160.5530  134.0460 C   0  0  0  0  0  0  0  0  0  0  0  0
  141.4170  160.1950  134.5800 N   0  0  0  0  0  0  0  0  0  0  0  0
  142.7310  161.8000  133.7220 O   0  0  0  0  0  0  0  0  0  0  0  0
  144.1400  158.4510  133.9180 N   0  0  0  0  0  0  0  0  0  0  0  0
  143.2380  157.4580  134.2970 C   0  0  0  0  0  0  0  0  0  0  0  0
  143.2010  156.4070  133.5660 O   0  0  0  0  0  0  0  0  0  0  0  0
  142.3010  157.4260  135.4270 C   0  0  0  0  0  0  0  0  0  0  0  0
  140.9960  156.7200  135.1460 C   0  0  0  0  0  0  0  0  0  0  0  0
  139.9380  157.6220  134.6720 C   0  0  0  0  0  0  0  0  0  0  0  0
  139.5570  158.6670  135.2510 O   0  0  0  0  0  0  0  0  0  0  0  0
  139.2580  157.3110  133.4410 N   0  0  0  0  0  0  0  0  0  0  0  0
  139.4790  156.0050  132.8010 C   0  0  0  0  0  0  0  0  0  0  0  0
  138.3610  158.2150  132.7860 C   0  0  0  0  0  0  0  0  0  0  0  0
  138.9800  159.5150  132.3530 C   0  0  0  0  0  0  0  0  0  0  0  0
  140.1370  159.3140  131.4010 C   0  0  0  0  0  0  0  0  0  0  0  0
  141.2240  158.8830  132.1510 O   0  0  0  0  0  0  0  0  0  0  0  0
  145.4480  158.2720  133.5580 C   0  0  0  0  0  0  0  0  0  0  0  0
  146.2910  157.1760  133.4630 C   0  0  0  0  0  0  0  0  0  0  0  0
  148.7406  155.7527  133.9720 H   0  0  0  0  0  0  0  0  0  0  0  0
  147.9582  155.3024  132.4190 H   0  0  0  0  0  0  0  0  0  0  0  0
  149.4175  156.3498  132.4190 H   0  0  0  0  0  0  0  0  0  0  0  0
  149.1935  158.6403  132.3847 H   0  0  0  0  0  0  0  0  0  0  0  0
  147.6970  160.6273  132.5407 H   0  0  0  0  0  0  0  0  0  0  0  0
  145.1375  161.4896  133.1760 H   0  0  0  0  0  0  0  0  0  0  0  0
  140.6070  160.0200  133.9090 H   0  0  0  0  0  0  0  0  0  0  0  0
  141.2390  160.1040  135.6270 H   0  0  0  0  0  0  0  0  0  0  0  0
  142.7939  156.9134  136.2662 H   0  0  0  0  0  0  0  0  0  0  0  0
  142.0460  158.4729  135.6484 H   0  0  0  0  0  0  0  0  0  0  0  0
  141.1721  155.9537  134.3767 H   0  0  0  0  0  0  0  0  0  0  0  0
  140.6510  156.2831  136.0947 H   0  0  0  0  0  0  0  0  0  0  0  0
  139.6094  155.2346  133.5753 H   0  0  0  0  0  0  0  0  0  0  0  0
  138.6109  155.7521  132.1746 H   0  0  0  0  0  0  0  0  0  0  0  0
  140.3820  156.0518  132.1746 H   0  0  0  0  0  0  0  0  0  0  0  0
  137.9605  157.7126  131.8931 H   0  0  0  0  0  0  0  0  0  0  0  0
  137.5867  158.4716  133.5239 H   0  0  0  0  0  0  0  0  0  0  0  0
  138.2118  160.1224  131.8520 H   0  0  0  0  0  0  0  0  0  0  0  0
  139.3684  160.0170  133.2514 H   0  0  0  0  0  0  0  0  0  0  0  0
  139.8763  158.5562  130.6475 H   0  0  0  0  0  0  0  0  0  0  0  0
  140.3749  160.2512  130.8766 H   0  0  0  0  0  0  0  0  0  0  0  0
  141.7190  158.2570  131.5310 H   0  0  0  0  0  0  0  0  0  0  0  0
  145.9082  156.1776  133.7212 H   0  0  0  0  0  0  0  0  0  0  0  0
  1  2  1  0
  2  3  2  0
  3  4  1  0
  4  5  2  0
  5  6  1  0
  6  7  2  0
  7  8  1  0
  8  9  1  0
  8 10  2  0
  7 11  1  0
 11 12  1  0
 12 13  2  0
 12 14  1  0
 14 15  1  0
 15 16  1  0
 16 17  2  0
 16 18  1  0
 18 19  1  0
 18 20  1  0
 20 21  1  0
 21 22  1  0
 22 23  1  0
 11 24  1  0
 24 25  2  0
 25  2  1  0
 24  5  1  0
  1 26  1  0
  1 27  1  0
  1 28  1  0
  3 29  1  0
  4 30  1  0
  6 31  1  0
  9 32  1  0
  9 33  1  0
 14 34  1  0
 14 35  1  0
 15 36  1  0
 15 37  1  0
 19 38  1  0
 19 39  1  0
 19 40  1  0
 20 41  1  0
 20 42  1  0
 21 43  1  0
 21 44  1  0
 22 45  1  0
 22 46  1  0
 23 47  1  0
 25 48  1  0
M  END
>  <smiles>  (14) 
Cc1ccc2cc(C(N)=O)n(C(=O)CCC(=O)N(C)CCCO)c2c1

>  <score_type>  (14) 
oracle

>  <origin>  (14) 
adg

>  <m_score__min__energy>  (14) 
-7.9699999999999998

>  <m_primary>  (14) 
energy

$$$$
15:0
     RDKit          3D

 35 36  0  0  0  0  0  0  0  0999 V2000
  139.8510  146.4000  130.0070 C   0  0  0  0  0  0  0  0  0  0  0  0
  139.6880  147.7570  130.5870 C   0  0  0  0  0  0  0  0  0  0  0  0
  138.4250  148.3110  130.5860 C   0  0  0  0  0  0  0  0  0  0  0  0
  138.2760  149.5670  131.1240 C   0  0  0  0  0  0  0  0  0  0  0  0
  139.3480  150.2420  131.6420 C   0  0  0  0  0  0  0  0  0  0  0  0
  139.4530  151.4870  132.2250 C   0  0  0  0  0  0  0  0  0  0  0  0
  140.7860  151.7230  132.5960 C   0  0  0  0  0  0  0  0  0  0  0  0
  141.1910  152.9440  133.2280 C   0  0  0  0  0  0  0  0  0  0  0  0
  142.1370  153.1290  134.2520 N   0  0  0  0  0  0  0  0  0  0  0  0
  140.6260  154.0210  132.8180 O   0  0  0  0  0  0  0  0  0  0  0  0
  141.4740  150.6230  132.2360 N   0  0  0  0  0  0  0  0  0  0  0  0
  142.8500  150.3780  132.3980 C   0  0  0  0  0  0  0  0  0  0  0  0
  143.3550  149.3150  131.8810 O   0  0  0  0  0  0  0  0  0  0  0  0
  143.7500  151.1640  133.0670 O   0  0  0  0  0  0  0  0  0  0  0  0
  144.8150  151.8710  132.4900 C   0  0  0  0  0  0  0  0  0  0  0  0
  144.9050  153.0620  133.2290 O   0  0  0  0  0  0  0  0  0  0  0  0
  144.5400  154.4220  132.3350 P   0  0  0  0  0  0  0  0  0  0  0  0
  144.3210  154.0980  130.8750 O   0  0  0  0  0  0  0  0  0  0  0  0
  143.1620  155.2130  132.8890 O   0  0  0  0  0  0  0  0  0  0  0  0
  145.8710  155.4880  132.4490 O   0  0  0  0  0  0  0  0  0  0  0  0
  140.6210  149.7230  131.6600 C   0  0  0  0  0  0  0  0  0  0  0  0
  140.7770  148.4590  131.1210 C   0  0  0  0  0  0  0  0  0  0  0  0
  139.9396  145.6626  130.8185 H   0  0  0  0  0  0  0  0  0  0  0  0
  138.9754  146.1589  129.3864 H   0  0  0  0  0  0  0  0  0  0  0  0
  140.7588  146.3731  129.3864 H   0  0  0  0  0  0  0  0  0  0  0  0
  137.5656  147.7659  130.1686 H   0  0  0  0  0  0  0  0  0  0  0  0
  137.2812  150.0362  131.1384 H   0  0  0  0  0  0  0  0  0  0  0  0
  138.6193  152.1884  132.3763 H   0  0  0  0  0  0  0  0  0  0  0  0
  143.1270  153.3040  133.9690 H   0  0  0  0  0  0  0  0  0  0  0  0
  141.8280  153.0940  135.2670 H   0  0  0  0  0  0  0  0  0  0  0  0
  145.7490  151.2954  132.5695 H   0  0  0  0  0  0  0  0  0  0  0  0
  144.6519  152.0613  131.4189 H   0  0  0  0  0  0  0  0  0  0  0  0
  142.4490  155.0520  132.2370 H   0  0  0  0  0  0  0  0  0  0  0  0
  145.8630  156.1360  131.7130 H   0  0  0  0  0  0  0  0  0  0  0  0
  141.7747  147.9959  131.1113 H   0  0  0  0  0  0  0  0  0  0  0  0
  1  2  1  0
  2  3  2  0
  3  4  1  0
  4  5  2  0
  5  6  1  0
  6  7  2  0
  7  8  1  0
  8  9  1  0
  8 10  2  0
  7 11  1  0
 11 12  1  0
 12 13  2  0
 12 14  1  0
 14 15  1  0
 15 16  1  0
 16 17  1  0
 17 18  2  0
 17 19  1  0
 17 20  1  0
 11 21  1  0
 21 22  2  0
 22  2  1  0
 21  5  1  0
  1 23  1  0
  1 24  1  0
  1 25  1  0
  3 26  1  0
  4 27  1  0
  6 28  1  0
  9 29  1  0
  9 30  1  0
 15 31  1  0
 15 32  1  0
 19 33  1  0
 20 34  1  0
 22 35  1  0
M  END
>  <smiles>  (15) 
Cc1ccc2cc(C(N)=O)n(C(=O)OCOP(=O)(O)O)c2c1

>  <score_type>  (15) 
oracle

>  <origin>  (15) 
adg

>  <m_score__min__energy>  (15) 
-6.3899999999999997

>  <m_primary>  (15) 
energy

$$$$
16:0
     RDKit          3D

 43 45  0  0  0  0  0  0  0  0999 V2000
  139.0980  161.1990  131.4660 C   0  0  0  0  0  0  0  0  0  0  0  0
  139.0140  159.6950  131.7620 C   0  0  0  0  0  0  0  0  0  0  0  0
  139.7970  159.1850  132.9430 C   0  0  2  0  0  0  0  0  0  0  0  0
  141.2020  158.9400  132.6480 N   0  0  0  0  0  0  0  0  0  0  0  0
  142.0840  158.5170  133.6670 C   0  0  0  0  0  0  0  0  0  0  0  0
  141.5270  158.4080  134.8180 O   0  0  0  0  0  0  0  0  0  0  0  0
  143.4560  158.2260  133.5460 N   0  0  0  0  0  0  0  0  0  0  0  0
  144.1130  157.1220  133.1900 C   0  0  0  0  0  0  0  0  0  0  0  0
  143.6690  155.7470  133.0520 C   0  0  0  0  0  0  0  0  0  0  0  0
  142.2810  155.4340  133.3410 N   0  0  0  0  0  0  0  0  0  0  0  0
  144.3540  154.7650  132.7080 O   0  0  0  0  0  0  0  0  0  0  0  0
  145.4920  157.4120  133.0690 C   0  0  0  0  0  0  0  0  0  0  0  0
  145.6460  158.7190  133.3680 C   0  0  0  0  0  0  0  0  0  0  0  0
  146.7990  159.4890  133.3980 C   0  0  0  0  0  0  0  0  0  0  0  0
  146.7190  160.8210  133.7330 C   0  0  0  0  0  0  0  0  0  0  0  0
  145.4860  161.3490  134.0310 C   0  0  0  0  0  0  0  0  0  0  0  0
  145.4250  162.7920  134.3920 C   0  0  0  0  0  0  0  0  0  0  0  0
  146.5320  163.4350  133.8690 F   0  0  0  0  0  0  0  0  0  0  0  0
  145.4410  163.0080  135.7450 F   0  0  0  0  0  0  0  0  0  0  0  0
  144.3070  163.3130  133.7710 F   0  0  0  0  0  0  0  0  0  0  0  0
  144.3420  160.5600  133.9960 C   0  0  0  0  0  0  0  0  0  0  0  0
  144.3990  159.2120  133.6600 C   0  0  0  0  0  0  0  0  0  0  0  0
  139.1850  157.8790  133.3620 C   0  0  0  0  0  0  0  0  0  0  0  0
  138.0030  157.7680  133.7350 O   0  0  0  0  0  0  0  0  0  0  0  0
  139.9450  156.6940  133.3540 O   0  0  0  0  0  0  0  0  0  0  0  0
  137.8660  158.9240  131.2800 C   0  0  0  0  0  0  0  0  0  0  0  0
  139.0980  158.8230  130.4740 C   0  0  0  0  0  0  0  0  0  0  0  0
  139.1292  161.7579  132.4129 H   0  0  0  0  0  0  0  0  0  0  0  0
  140.0092  161.4083  130.8865 H   0  0  0  0  0  0  0  0  0  0  0  0
  138.2157  161.5085  130.8865 H   0  0  0  0  0  0  0  0  0  0  0  0
  139.7558  159.9575  133.7250 H   0  0  0  0  0  0  0  0  0  0  0  0
  141.5170  159.1190  131.6950 H   0  0  0  0  0  0  0  0  0  0  0  0
  141.6270  155.6030  132.5430 H   0  0  0  0  0  0  0  0  0  0  0  0
  142.0010  155.0710  134.2710 H   0  0  0  0  0  0  0  0  0  0  0  0
  146.2872  156.7069  132.7853 H   0  0  0  0  0  0  0  0  0  0  0  0
  147.7722  159.0373  133.1553 H   0  0  0  0  0  0  0  0  0  0  0  0
  147.6217  161.4490  133.7616 H   0  0  0  0  0  0  0  0  0  0  0  0
  143.3694  161.0125  134.2397 H   0  0  0  0  0  0  0  0  0  0  0  0
  140.7210  156.5650  133.9760 H   0  0  0  0  0  0  0  0  0  0  0  0
  137.5248  158.0500  131.8542 H   0  0  0  0  0  0  0  0  0  0  0  0
  136.8268  159.1912  131.0379 H   0  0  0  0  0  0  0  0  0  0  0  0
  139.6850  157.8927  130.4692 H   0  0  0  0  0  0  0  0  0  0  0  0
  139.3711  158.9902  129.4216 H   0  0  0  0  0  0  0  0  0  0  0  0
  1  2  1  0
  2  3  1  0
  3  4  1  0
  4  5  1  0
  5  6  2  0
  5  7  1  0
  7  8  1  0
  8  9  1  0
  9 10  1  0
  9 11  2  0
  8 12  2  0
 12 13  1  0
 13 14  2  0
 14 15  1  0
 15 16  2  0
 16 17  1  0
 17 18  1  0
 17 19  1  0
 17 20  1  0
 16 21  1  0
 21 22  2  0
  3 23  1  0
 23 24  2  0
 23 25  1  0
  2 26  1  0
 26 27  1  0
 27  2  1  0
 22  7  1  0
 22 13  1  0
  1 28  1  0
  1 29  1  0
  1 30  1  0
  3 31  1  1
  4 32  1  0
 10 33  1  0
 10 34  1  0
 12 35  1  0
 14 36  1  0
 15 37  1  0
 21 38  1  0
 25 39  1  0
 26 40  1  0
 26 41  1  0
 27 42  1  0
 27 43  1  0
M  END
>  <smiles>  (16) 
CC1([C@H](NC(=O)n2c(C(N)=O)cc3ccc(C(F)(F)F)cc32)C(=O)O)CC1

>  <score_type>  (16) 
oracle

>  <origin>  (16) 
adg

>  <m_score__min__energy>  (16) 
-7.7800000000000002

>  <m_primary>  (16) 
energy

$$$$
17:0
     RDKit          3D

 35 36  0  0  0  0  0  0  0  0999 V2000
  141.3720  160.7660  133.7230 C   0  0  0  0  0  0  0  0  0  0  0  0
  142.2130  159.5370  133.8280 C   0  0  0  0  0  0  0  0  0  0  0  0
  141.6040  158.3690  134.2060 C   0  0  0  0  0  0  0  0  0  0  0  0
  142.3870  157.2440  134.3010 C   0  0  0  0  0  0  0  0  0  0  0  0
  143.7460  157.3110  134.0150 C   0  0  0  0  0  0  0  0  0  0  0  0
  144.6760  156.3350  134.0470 C   0  0  0  0  0  0  0  0  0  0  0  0
  145.9010  156.9260  133.6710 C   0  0  0  0  0  0  0  0  0  0  0  0
  147.0790  156.0820  133.5590 C   0  0  0  0  0  0  0  0  0  0  0  0
  147.5380  155.6760  132.2430 N   0  0  0  0  0  0  0  0  0  0  0  0
  147.7710  155.6440  134.5010 O   0  0  0  0  0  0  0  0  0  0  0  0
  145.7230  158.2280  133.4250 N   0  0  0  0  0  0  0  0  0  0  0  0
  146.6140  159.2830  133.1950 C   0  0  0  0  0  0  0  0  0  0  0  0
  146.2650  160.4240  133.7010 O   0  0  0  0  0  0  0  0  0  0  0  0
  147.8680  159.3160  132.4960 C   0  0  0  0  0  0  0  0  0  0  0  0
  148.6850  158.3850  132.3310 O   0  0  0  0  0  0  0  0  0  0  0  0
  148.3010  160.5630  131.8760 N   0  0  0  0  0  0  0  0  0  0  0  0
  149.5960  160.5200  131.1770 C   0  0  0  0  0  0  0  0  0  0  0  0
  149.4690  159.8420  129.8770 C   0  0  0  0  0  0  0  0  0  0  0  0
  149.9280  160.4500  128.8620 O   0  0  0  0  0  0  0  0  0  0  0  0
  148.8840  158.5950  129.6990 O   0  0  0  0  0  0  0  0  0  0  0  0
  144.3810  158.4640  133.6350 C   0  0  0  0  0  0  0  0  0  0  0  0
  143.5830  159.5960  133.5430 C   0  0  0  0  0  0  0  0  0  0  0  0
  141.1242  161.1280  134.7317 H   0  0  0  0  0  0  0  0  0  0  0  0
  141.9272  161.5450  133.1800 H   0  0  0  0  0  0  0  0  0  0  0  0
  140.4448  160.5306  133.1800 H   0  0  0  0  0  0  0  0  0  0  0  0
  140.5267  158.3334  134.4255 H   0  0  0  0  0  0  0  0  0  0  0  0
  141.9372  156.2871  134.6043 H   0  0  0  0  0  0  0  0  0  0  0  0
  144.5113  155.2809  134.3147 H   0  0  0  0  0  0  0  0  0  0  0  0
  147.2810  154.7470  131.8440 H   0  0  0  0  0  0  0  0  0  0  0  0
  148.1290  156.3850  131.7620 H   0  0  0  0  0  0  0  0  0  0  0  0
  147.7260  161.4270  131.9290 H   0  0  0  0  0  0  0  0  0  0  0  0
  149.9514  161.5481  131.0137 H   0  0  0  0  0  0  0  0  0  0  0  0
  150.3115  159.9599  131.7970 H   0  0  0  0  0  0  0  0  0  0  0  0
  148.9610  157.8640  130.4060 H   0  0  0  0  0  0  0  0  0  0  0  0
  144.0332  160.5534  133.2418 H   0  0  0  0  0  0  0  0  0  0  0  0
  1  2  1  0
  2  3  2  0
  3  4  1  0
  4  5  2  0
  5  6  1  0
  6  7  2  0
  7  8  1  0
  8  9  1  0
  8 10  2  0
  7 11  1  0
 11 12  1  0
 12 13  2  0
 12 14  1  0
 14 15  2  0
 14 16  1  0
 16 17  1  0
 17 18  1  0
 18 19  2  0
 18 20  1  0
 11 21  1  0
 21 22  2  0
 22  2  1  0
 21  5  1  0
  1 23  1  0
  1 24  1  0
  1 25  1  0
  3 26  1  0
  4 27  1  0
  6 28  1  0
  9 29  1  0
  9 30  1  0
 16 31  1  0
 17 32  1  0
 17 33  1  0
 20 34  1  0
 22 35  1  0
M  END
>  <smiles>  (17) 
Cc1ccc2cc(C(N)=O)n(C(=O)C(=O)NCC(=O)O)c2c1

>  <score_type>  (17) 
oracle

>  <origin>  (17) 
adg

>  <m_score__min__energy>  (17) 
-7.1900000000000004

>  <m_primary>  (17) 
energy

$$$$
18:0
     RDKit          3D

 51 52  0  0  1  0  0  0  0  0999 V2000
  138.9870  160.9620  130.9860 C   0  0  0  0  0  0  0  0  0  0  0  0
  138.1500  159.9320  130.4040 N   0  0  0  0  0  0  0  0  0  0  0  0
  136.7570  160.1040  130.6720 C   0  0  0  0  0  0  0  0  0  0  0  0
  138.6300  158.6030  130.7250 C   0  0  0  0  0  0  0  0  0  0  0  0
  139.3160  158.7030  132.0910 C   0  0  0  0  0  0  0  0  0  0  0  0
  138.7290  157.7790  133.0410 N   0  0  0  0  0  0  0  0  0  0  0  0
  139.5180  157.2760  134.1400 C   0  0  0  0  0  0  0  0  0  0  0  0
  139.4630  157.9060  135.3500 C   0  0  0  0  0  0  0  0  0  0  0  0
  140.2240  157.4080  136.3810 C   0  0  0  0  0  0  0  0  0  0  0  0
  141.0160  156.2930  136.1680 C   0  0  0  0  0  0  0  0  0  0  0  0
  141.8340  155.6420  137.0350 C   0  0  0  0  0  0  0  0  0  0  0  0
  142.3930  154.5950  136.3150 C   0  0  0  0  0  0  0  0  0  0  0  0
  143.4180  153.7610  136.9600 C   0  0  0  0  0  0  0  0  0  0  0  0
  144.8080  153.9490  136.6380 N   0  0  0  0  0  0  0  0  0  0  0  0
  143.1810  152.8700  137.7970 O   0  0  0  0  0  0  0  0  0  0  0  0
  141.9610  154.5590  135.0600 N   0  0  0  0  0  0  0  0  0  0  0  0
  142.0320  153.6270  134.0140 C   0  0  0  0  0  0  0  0  0  0  0  0
  143.1960  153.6470  133.3920 O   0  0  0  0  0  0  0  0  0  0  0  0
  141.1390  152.6740  133.4630 C   0  0  0  0  0  0  0  0  0  0  0  0
  141.2620  151.4060  133.1960 C   0  0  0  0  0  0  0  0  0  0  0  0
  140.1820  150.5980  132.6070 C   0  0  0  0  0  0  0  0  0  0  0  0
  139.1620  151.1660  132.1300 O   0  0  0  0  0  0  0  0  0  0  0  0
  140.2680  149.2160  132.5670 O   0  0  0  0  0  0  0  0  0  0  0  0
  140.4150  148.4850  131.3800 C   0  0  0  0  0  0  0  0  0  0  0  0
  139.0930  148.2760  130.7300 C   0  0  0  0  0  0  0  0  0  0  0  0
  138.9440  147.5840  129.6890 O   0  0  0  0  0  0  0  0  0  0  0  0
  137.9740  148.8860  131.3130 O   0  0  0  0  0  0  0  0  0  0  0  0
  141.0990  155.6330  134.9720 C   0  0  0  0  0  0  0  0  0  0  0  0
  140.3250  156.1510  133.9420 C   0  0  0  0  0  0  0  0  0  0  0  0
  138.9361  160.8994  132.0830 H   0  0  0  0  0  0  0  0  0  0  0  0
  140.0271  160.8178  130.6583 H   0  0  0  0  0  0  0  0  0  0  0  0
  138.6331  161.9506  130.6583 H   0  0  0  0  0  0  0  0  0  0  0  0
  136.5926  160.1243  131.7595 H   0  0  0  0  0  0  0  0  0  0  0  0
  136.4131  161.0514  130.2314 H   0  0  0  0  0  0  0  0  0  0  0  0
  136.1930  159.2687  130.2314 H   0  0  0  0  0  0  0  0  0  0  0  0
  137.7879  157.8970  130.7741 H   0  0  0  0  0  0  0  0  0  0  0  0
  139.3273  158.2370  129.9570 H   0  0  0  0  0  0  0  0  0  0  0  0
  140.3841  158.4673  131.9743 H   0  0  0  0  0  0  0  0  0  0  0  0
  139.1841  159.7261  132.4730 H   0  0  0  0  0  0  0  0  0  0  0  0
  137.7470  157.4810  132.9370 H   0  0  0  0  0  0  0  0  0  0  0  0
  138.8254  158.7904  135.4964 H   0  0  0  0  0  0  0  0  0  0  0  0
  140.2036  157.8923  137.3684 H   0  0  0  0  0  0  0  0  0  0  0  0
  142.0161  155.8928  138.0905 H   0  0  0  0  0  0  0  0  0  0  0  0
  145.1070  153.5080  135.7320 H   0  0  0  0  0  0  0  0  0  0  0  0
  145.4560  154.4830  137.2620 H   0  0  0  0  0  0  0  0  0  0  0  0
  140.1503  153.0859  133.2124 H   0  0  0  0  0  0  0  0  0  0  0  0
  142.2198  150.9143  133.4216 H   0  0  0  0  0  0  0  0  0  0  0  0
  141.0727  149.0381  130.6933 H   0  0  0  0  0  0  0  0  0  0  0  0
  140.8536  147.5047  131.6178 H   0  0  0  0  0  0  0  0  0  0  0  0
  138.1010  149.2770  132.2330 H   0  0  0  0  0  0  0  0  0  0  0  0
  140.3469  155.6684  132.9538 H   0  0  0  0  0  0  0  0  0  0  0  0
  1  2  1  0
  2  3  1  0
  2  4  1  0
  4  5  1  0
  5  6  1  0
  6  7  1  0
  7  8  2  0
  8  9  1  0
  9 10  2  0
 10 11  1  0
 11 12  2  0
 12 13  1  0
 13 14  1  0
 13 15  2  0
 12 16  1  0
 16 17  1  0
 17 18  2  0
 17 19  1  0
 19 20  2  0
 20 21  1  0
 21 22  2  0
 21 23  1  0
 23 24  1  0
 24 25  1  0
 25 26  2  0
 25 27  1  0
 16 28  1  0
 28 29  2  0
 29  7  1  0
 28 10  1  0
  1 30  1  0
  1 31  1  0
  1 32  1  0
  3 33  1  0
  3 34  1  0
  3 35  1  0
  4 36  1  0
  4 37  1  0
  5 38  1  0
  5 39  1  0
  6 40  1  0
  8 41  1  0
  9 42  1  0
 11 43  1  0
 14 44  1  0
 14 45  1  0
 19 46  1  0
 20 47  1  0
 24 48  1  0
 24 49  1  0
 27 50  1  0
 29 51  1  0
M  END
>  <smiles>  (18) 
CN(C)CCNc1ccc2cc(C(N)=O)n(C(=O)C=CC(=O)OCC(=O)O)c2c1

>  <score_type>  (18) 
oracle

>  <origin>  (18) 
adg

>  <m_score__min__energy>  (18) 
-7.4299999999999997

>  <m_primary>  (18) 
energy

$$$$
19:0
     RDKit          3D

 38 39  0  0  0  0  0  0  0  0999 V2000
  140.1020  156.0960  133.0320 C   0  0  0  0  0  0  0  0  0  0  0  0
  140.8320  157.4010  133.1970 C   0  0  0  0  0  0  0  0  0  0  0  0
  140.1200  158.5710  133.0830 C   0  0  0  0  0  0  0  0  0  0  0  0
  140.8210  159.7470  133.2410 C   0  0  0  0  0  0  0  0  0  0  0  0
  142.1710  159.7340  133.5020 C   0  0  0  0  0  0  0  0  0  0  0  0
  143.0430  160.7580  133.6690 C   0  0  0  0  0  0  0  0  0  0  0  0
  144.3360  160.2360  133.8980 C   0  0  0  0  0  0  0  0  0  0  0  0
  145.4400  161.1310  134.1180 C   0  0  0  0  0  0  0  0  0  0  0  0
  146.6930  160.9370  133.3810 N   0  0  0  0  0  0  0  0  0  0  0  0
  145.5040  162.1120  134.8900 O   0  0  0  0  0  0  0  0  0  0  0  0
  144.2270  158.8720  133.8650 N   0  0  0  0  0  0  0  0  0  0  0  0
  145.3310  158.0280  133.9800 C   0  0  0  0  0  0  0  0  0  0  0  0
  145.0410  156.8630  134.4840 O   0  0  0  0  0  0  0  0  0  0  0  0
  146.7170  158.1640  133.6550 C   0  0  0  0  0  0  0  0  0  0  0  0
  147.6280  158.7530  134.2750 O   0  0  0  0  0  0  0  0  0  0  0  0
  147.2130  157.5480  132.4330 N   0  0  0  0  0  0  0  0  0  0  0  0
  148.6450  157.7460  132.1960 C   0  0  0  0  0  0  0  0  0  0  0  0
  148.8760  158.6250  130.9920 C   0  0  0  0  0  0  0  0  0  0  0  0
  148.3970  160.0090  131.2000 C   0  0  0  0  0  0  0  0  0  0  0  0
  148.8400  160.7460  132.1250 O   0  0  0  0  0  0  0  0  0  0  0  0
  147.4140  160.5110  130.3320 O   0  0  0  0  0  0  0  0  0  0  0  0
  142.9160  158.5730  133.6250 C   0  0  0  0  0  0  0  0  0  0  0  0
  142.1970  157.4100  133.4620 C   0  0  0  0  0  0  0  0  0  0  0  0
  139.8685  155.6786  134.0226 H   0  0  0  0  0  0  0  0  0  0  0  0
  139.1680  156.2660  132.4764 H   0  0  0  0  0  0  0  0  0  0  0  0
  140.7357  155.3891  132.4764 H   0  0  0  0  0  0  0  0  0  0  0  0
  139.0398  158.5689  132.8751 H   0  0  0  0  0  0  0  0  0  0  0  0
  140.2936  160.7087  133.1572 H   0  0  0  0  0  0  0  0  0  0  0  0
  142.7850  161.8267  133.6321 H   0  0  0  0  0  0  0  0  0  0  0  0
  147.6010  160.8930  133.9200 H   0  0  0  0  0  0  0  0  0  0  0  0
  146.6470  160.8480  132.3400 H   0  0  0  0  0  0  0  0  0  0  0  0
  146.6050  157.0150  131.7890 H   0  0  0  0  0  0  0  0  0  0  0  0
  149.0938  158.2218  133.0804 H   0  0  0  0  0  0  0  0  0  0  0  0
  149.1086  156.7661  132.0093 H   0  0  0  0  0  0  0  0  0  0  0  0
  149.9546  158.6536  130.7780 H   0  0  0  0  0  0  0  0  0  0  0  0
  148.3079  158.1976  130.1526 H   0  0  0  0  0  0  0  0  0  0  0  0
  147.6350  161.2860  129.7140 H   0  0  0  0  0  0  0  0  0  0  0  0
  142.7243  156.4482  133.5449 H   0  0  0  0  0  0  0  0  0  0  0  0
  1  2  1  0
  2  3  2  0
  3  4  1  0
  4  5  2  0
  5  6  1  0
  6  7  2  0
  7  8  1  0
  8  9  1  0
  8 10  2  0
  7 11  1  0
 11 12  1  0
 12 13  2  0
 12 14  1  0
 14 15  2  0
 14 16  1  0
 16 17  1  0
 17 18  1  0
 18 19  1  0
 19 20  2  0
 19 21  1  0
 11 22  1  0
 22 23  2  0
 23  2  1  0
 22  5  1  0
  1 24  1  0
  1 25  1  0
  1 26  1  0
  3 27  1  0
  4 28  1  0
  6 29  1  0
  9 30  1  0
  9 31  1  0
 16 32  1  0
 17 33  1  0
 17 34  1  0
 18 35  1  0
 18 36  1  0
 21 37  1  0
 23 38  1  0
M  END
>  <smiles>  (19) 
Cc1ccc2cc(C(N)=O)n(C(=O)C(=O)NCCC(=O)O)c2c1

>  <score_type>  (19) 
oracle

>  <origin>  (19) 
adg

>  <m_score__min__energy>  (19) 
-7.8499999999999996

>  <m_primary>  (19) 
energy

$$$$
20:0
     RDKit          3D

 38 39  0  0  0  0  0  0  0  0999 V2000
  147.5890  153.6800  132.6150 N   0  0  0  0  0  0  0  0  0  0  0  0
  148.4510  154.8360  132.6810 C   0  0  0  0  0  0  0  0  0  0  0  0
  149.6750  154.5790  132.5960 O   0  0  0  0  0  0  0  0  0  0  0  0
  147.8770  156.1640  132.8390 C   0  0  0  0  0  0  0  0  0  0  0  0
  148.6580  157.2810  132.5140 C   0  0  0  0  0  0  0  0  0  0  0  0
  147.9320  158.3770  132.8520 C   0  0  0  0  0  0  0  0  0  0  0  0
  148.2350  159.7130  132.7390 C   0  0  0  0  0  0  0  0  0  0  0  0
  147.3470  160.6860  133.1400 C   0  0  0  0  0  0  0  0  0  0  0  0
  146.1450  160.2620  133.6580 C   0  0  0  0  0  0  0  0  0  0  0  0
  145.1690  161.2870  134.0980 C   0  0  0  0  0  0  0  0  0  0  0  0
  144.9000  161.2390  135.4330 F   0  0  0  0  0  0  0  0  0  0  0  0
  144.0230  161.1210  133.3230 F   0  0  0  0  0  0  0  0  0  0  0  0
  145.6820  162.5460  133.7640 F   0  0  0  0  0  0  0  0  0  0  0  0
  145.8470  158.9110  133.7690 C   0  0  0  0  0  0  0  0  0  0  0  0
  146.7470  157.9270  133.3630 C   0  0  0  0  0  0  0  0  0  0  0  0
  146.6970  156.5540  133.3560 N   0  0  0  0  0  0  0  0  0  0  0  0
  145.6340  155.8610  133.9170 C   0  0  0  0  0  0  0  0  0  0  0  0
  144.4570  156.4210  133.6680 O   0  0  0  0  0  0  0  0  0  0  0  0
  145.4760  154.7110  134.6750 N   0  0  0  0  0  0  0  0  0  0  0  0
  144.2100  153.9560  134.3710 C   0  0  0  0  0  0  0  0  0  0  0  0
  144.3860  153.0860  132.8080 P   0  0  0  0  0  0  0  0  0  0  0  0
  143.1560  152.2510  132.5690 O   0  0  0  0  0  0  0  0  0  0  0  0
  145.7270  152.0470  132.9280 O   0  0  0  0  0  0  0  0  0  0  0  0
  144.6850  154.1430  131.5370 O   0  0  0  0  0  0  0  0  0  0  0  0
  146.3250  154.0470  135.5740 C   0  0  0  0  0  0  0  0  0  0  0  0
  147.3600  153.3960  135.2870 O   0  0  0  0  0  0  0  0  0  0  0  0
  146.0480  154.0730  136.9680 O   0  0  0  0  0  0  0  0  0  0  0  0
  146.7680  153.6910  131.9700 H   0  0  0  0  0  0  0  0  0  0  0  0
  147.7710  152.8270  133.2040 H   0  0  0  0  0  0  0  0  0  0  0  0
  149.6647  157.2716  132.0707 H   0  0  0  0  0  0  0  0  0  0  0  0
  149.2072  160.0111  132.3195 H   0  0  0  0  0  0  0  0  0  0  0  0
  147.5881  161.7555  133.0501 H   0  0  0  0  0  0  0  0  0  0  0  0
  144.8758  158.6090  134.1880 H   0  0  0  0  0  0  0  0  0  0  0  0
  144.0152  153.2299  135.1740 H   0  0  0  0  0  0  0  0  0  0  0  0
  143.3707  154.6637  134.3022 H   0  0  0  0  0  0  0  0  0  0  0  0
  146.2400  152.2470  133.7660 H   0  0  0  0  0  0  0  0  0  0  0  0
  144.6690  155.0960  131.8130 H   0  0  0  0  0  0  0  0  0  0  0  0
  145.4130  154.7900  137.2930 H   0  0  0  0  0  0  0  0  0  0  0  0
  1  2  1  0
  2  3  2  0
  2  4  1  0
  4  5  2  0
  5  6  1  0
  6  7  2  0
  7  8  1  0
  8  9  2  0
  9 10  1  0
 10 11  1  0
 10 12  1  0
 10 13  1  0
  9 14  1  0
 14 15  2  0
 15 16  1  0
 16 17  1  0
 17 18  2  0
 17 19  1  0
 19 20  1  0
 20 21  1  0
 21 22  2  0
 21 23  1  0
 21 24  1  0
 19 25  1  0
 25 26  2  0
 25 27  1  0
 16  4  1  0
 15  6  1  0
  1 28  1  0
  1 29  1  0
  5 30  1  0
  7 31  1  0
  8 32  1  0
 14 33  1  0
 20 34  1  0
 20 35  1  0
 23 36  1  0
 24 37  1  0
 27 38  1  0
M  END
>  <smiles>  (20) 
NC(=O)c1cc2ccc(C(F)(F)F)cc2n1C(=O)N(CP(=O)(O)O)C(=O)O

>  <score_type>  (20) 
oracle

>  <origin>  (20) 
adg

>  <m_score__min__energy>  (20) 
-6.5899999999999999

>  <m_primary>  (20) 
energy

$$$$
22:0
     RDKit          3D

 37 39  0  0  0  0  0  0  0  0999 V2000
  144.6200  161.2490  133.9410 C   0  0  0  0  0  0  0  0  0  0  0  0
  145.4200  160.3960  133.7030 C   0  0  0  0  0  0  0  0  0  0  0  0
  146.3730  159.3520  133.4090 C   0  0  0  0  0  0  0  0  0  0  0  0
  147.6670  159.6820  133.0720 C   0  0  0  0  0  0  0  0  0  0  0  0
  148.5410  158.6600  132.7990 C   0  0  0  0  0  0  0  0  0  0  0  0
  148.1480  157.3470  132.8600 C   0  0  0  0  0  0  0  0  0  0  0  0
  148.8210  156.1670  132.6380 C   0  0  0  0  0  0  0  0  0  0  0  0
  147.9480  155.0890  132.8350 C   0  0  0  0  0  0  0  0  0  0  0  0
  148.3780  153.7260  132.6710 C   0  0  0  0  0  0  0  0  0  0  0  0
  147.5910  152.5810  132.4640 N   0  0  0  0  0  0  0  0  0  0  0  0
  149.6390  153.5140  132.7180 O   0  0  0  0  0  0  0  0  0  0  0  0
  146.7620  155.6230  133.1740 N   0  0  0  0  0  0  0  0  0  0  0  0
  145.5590  154.9450  133.4750 C   0  0  0  0  0  0  0  0  0  0  0  0
  144.4470  155.5720  133.3840 O   0  0  0  0  0  0  0  0  0  0  0  0
  145.4420  153.6340  133.8700 O   0  0  0  0  0  0  0  0  0  0  0  0
  144.7220  152.6690  133.2000 C   0  0  0  0  0  0  0  0  0  0  0  0
  145.2670  151.9900  132.2950 O   0  0  0  0  0  0  0  0  0  0  0  0
  143.3570  152.4270  133.5230 N   0  0  0  0  0  0  0  0  0  0  0  0
  142.3770  151.4980  132.9990 C   0  0  0  0  0  0  0  0  0  0  0  0
  141.2690  152.3860  133.5290 C   0  0  0  0  0  0  0  0  0  0  0  0
  140.7830  153.2900  132.6040 O   0  0  0  0  0  0  0  0  0  0  0  0
  142.3380  152.9130  134.4320 C   0  0  0  0  0  0  0  0  0  0  0  0
  146.8670  156.9830  133.1940 C   0  0  0  0  0  0  0  0  0  0  0  0
  145.9860  158.0140  133.4670 C   0  0  0  0  0  0  0  0  0  0  0  0
  143.8826  162.0352  134.1604 H   0  0  0  0  0  0  0  0  0  0  0  0
  147.9899  160.7324  133.0232 H   0  0  0  0  0  0  0  0  0  0  0  0
  149.5793  158.8987  132.5253 H   0  0  0  0  0  0  0  0  0  0  0  0
  149.8795  156.0834  132.3506 H   0  0  0  0  0  0  0  0  0  0  0  0
  147.3350  152.2350  131.4920 H   0  0  0  0  0  0  0  0  0  0  0  0
  147.2620  152.0580  133.3310 H   0  0  0  0  0  0  0  0  0  0  0  0
  142.3903  151.3990  131.9035 H   0  0  0  0  0  0  0  0  0  0  0  0
  142.4167  150.4316  133.2657 H   0  0  0  0  0  0  0  0  0  0  0  0
  140.3012  152.0138  133.8963 H   0  0  0  0  0  0  0  0  0  0  0  0
  140.7770  152.9090  131.6900 H   0  0  0  0  0  0  0  0  0  0  0  0
  142.3267  154.0067  134.5486 H   0  0  0  0  0  0  0  0  0  0  0  0
  142.3589  152.6238  135.4931 H   0  0  0  0  0  0  0  0  0  0  0  0
  144.9481  157.7706  133.7382 H   0  0  0  0  0  0  0  0  0  0  0  0
  1  2  3  0
  2  3  1  0
  3  4  2  0
  4  5  1  0
  5  6  2  0
  6  7  1  0
  7  8  2  0
  8  9  1  0
  9 10  1  0
  9 11  2  0
  8 12  1  0
 12 13  1  0
 13 14  2  0
 13 15  1  0
 15 16  1  0
 16 17  2  0
 16 18  1  0
 18 19  1  0
 19 20  1  0
 20 21  1  0
 20 22  1  0
 12 23  1  0
 23 24  2  0
 24  3  1  0
 23  6  1  0
 22 18  1  0
  1 25  1  0
  4 26  1  0
  5 27  1  0
  7 28  1  0
 10 29  1  0
 10 30  1  0
 19 31  1  0
 19 32  1  0
 20 33  1  0
 21 34  1  0
 22 35  1  0
 22 36  1  0
 24 37  1  0
M  END
>  <smiles>  (21) 
C#Cc1ccc2cc(C(N)=O)n(C(=O)OC(=O)N3CC(O)C3)c2c1

>  <score_type>  (21) 
oracle

>  <origin>  (21) 
adg

>  <m_score__min__energy>  (21) 
-7.9800000000000004

>  <m_primary>  (21) 
energy

$$$$
23:0
     RDKit          3D

 42 43  0  0  0  0  0  0  0  0999 V2000
  144.9840  155.2140  134.5600 C   0  0  0  0  0  0  0  0  0  0  0  0
  146.1680  155.5580  133.8240 N   0  0  0  0  0  0  0  0  0  0  0  0
  147.2630  154.5920  134.0200 C   0  0  0  0  0  0  0  0  0  0  0  0
  147.9560  154.6150  135.0630 O   0  0  0  0  0  0  0  0  0  0  0  0
  147.5790  153.5720  133.0100 C   0  0  0  0  0  0  0  0  0  0  0  0
  149.0480  153.7240  132.6950 C   0  0  0  0  0  0  0  0  0  0  0  0
  149.5060  154.8270  132.5850 O   0  0  0  0  0  0  0  0  0  0  0  0
  146.4570  156.6240  132.9930 C   0  0  0  0  0  0  0  0  0  0  0  0
  147.0060  156.2270  131.8540 O   0  0  0  0  0  0  0  0  0  0  0  0
  146.3130  158.0120  133.0350 N   0  0  0  0  0  0  0  0  0  0  0  0
  147.3740  158.8590  132.8540 C   0  0  0  0  0  0  0  0  0  0  0  0
  148.7370  158.6320  132.4280 C   0  0  0  0  0  0  0  0  0  0  0  0
  149.2850  157.2780  132.4350 N   0  0  0  0  0  0  0  0  0  0  0  0
  149.5600  159.4850  132.0280 O   0  0  0  0  0  0  0  0  0  0  0  0
  146.9220  160.1710  133.0830 C   0  0  0  0  0  0  0  0  0  0  0  0
  145.6040  160.1260  133.4010 C   0  0  0  0  0  0  0  0  0  0  0  0
  144.7350  161.1410  133.7320 C   0  0  0  0  0  0  0  0  0  0  0  0
  143.4350  160.8550  134.0590 C   0  0  0  0  0  0  0  0  0  0  0  0
  143.0390  159.5520  134.0450 C   0  0  0  0  0  0  0  0  0  0  0  0
  141.7070  159.1870  134.3760 N   0  0  0  0  0  0  0  0  0  0  0  0
  140.6700  159.0210  133.3760 C   0  0  0  0  0  0  0  0  0  0  0  0
  141.3710  158.9710  135.7680 C   0  0  0  0  0  0  0  0  0  0  0  0
  143.9300  158.5420  133.7060 C   0  0  0  0  0  0  0  0  0  0  0  0
  145.2450  158.7900  133.3670 C   0  0  0  0  0  0  0  0  0  0  0  0
  145.1921  155.2745  135.6384 H   0  0  0  0  0  0  0  0  0  0  0  0
  144.1758  155.9145  134.3027 H   0  0  0  0  0  0  0  0  0  0  0  0
  144.6770  154.1895  134.3027 H   0  0  0  0  0  0  0  0  0  0  0  0
  147.3775  152.5668  133.4086 H   0  0  0  0  0  0  0  0  0  0  0  0
  146.9626  153.6999  132.1079 H   0  0  0  0  0  0  0  0  0  0  0  0
  149.6874  152.8379  132.5686 H   0  0  0  0  0  0  0  0  0  0  0  0
  149.2210  156.7350  131.5380 H   0  0  0  0  0  0  0  0  0  0  0  0
  149.7150  156.8930  133.3070 H   0  0  0  0  0  0  0  0  0  0  0  0
  147.5350  161.0818  133.0155 H   0  0  0  0  0  0  0  0  0  0  0  0
  145.0847  162.1840  133.7341 H   0  0  0  0  0  0  0  0  0  0  0  0
  142.7304  161.6565  134.3256 H   0  0  0  0  0  0  0  0  0  0  0  0
  139.7016  158.8660  133.8742 H   0  0  0  0  0  0  0  0  0  0  0  0
  140.6189  159.9224  132.7476 H   0  0  0  0  0  0  0  0  0  0  0  0
  140.9028  158.1487  132.7476 H   0  0  0  0  0  0  0  0  0  0  0  0
  142.1245  159.4554  136.4065 H   0  0  0  0  0  0  0  0  0  0  0  0
  140.3810  159.4023  135.9774 H   0  0  0  0  0  0  0  0  0  0  0  0
  141.3523  157.8913  135.9774 H   0  0  0  0  0  0  0  0  0  0  0  0
  143.5731  157.5015  133.7077 H   0  0  0  0  0  0  0  0  0  0  0  0
  1  2  1  0
  2  3  1  0
  3  4  2  0
  3  5  1  0
  5  6  1  0
  6  7  2  0
  2  8  1  0
  8  9  2  0
  8 10  1  0
 10 11  1  0
 11 12  1  0
 12 13  1  0
 12 14  2  0
 11 15  2  0
 15 16  1  0
 16 17  2  0
 17 18  1  0
 18 19  2  0
 19 20  1  0
 20 21  1  0
 20 22  1  0
 19 23  1  0
 23 24  2  0
 24 10  1  0
 24 16  1  0
  1 25  1  0
  1 26  1  0
  1 27  1  0
  5 28  1  0
  5 29  1  0
  6 30  1  0
 13 31  1  0
 13 32  1  0
 15 33  1  0
 17 34  1  0
 18 35  1  0
 21 36  1  0
 21 37  1  0
 21 38  1  0
 22 39  1  0
 22 40  1  0
 22 41  1  0
 23 42  1  0
M  END
>  <smiles>  (22) 
CN(C(=O)CC=O)C(=O)n1c(C(N)=O)cc2ccc(N(C)C)cc21

>  <score_type>  (22) 
oracle

>  <origin>  (22) 
adg

>  <m_score__min__energy>  (22) 
-7.1699999999999999

>  <m_primary>  (22) 
energy

$$$$
24:0
     RDKit          3D

 37 38  0  0  0  0  0  0  0  0999 V2000
  149.3560  157.3800  132.3400 N   0  0  0  0  0  0  0  0  0  0  0  0
  148.8080  158.7120  132.4810 C   0  0  0  0  0  0  0  0  0  0  0  0
  149.6100  159.6320  132.2060 O   0  0  0  0  0  0  0  0  0  0  0  0
  147.4360  158.8740  132.9060 C   0  0  0  0  0  0  0  0  0  0  0  0
  146.8300  160.1310  133.0000 C   0  0  0  0  0  0  0  0  0  0  0  0
  145.5400  159.9830  133.4230 C   0  0  0  0  0  0  0  0  0  0  0  0
  144.5410  160.9010  133.6690 C   0  0  0  0  0  0  0  0  0  0  0  0
  143.3060  160.4680  134.0990 C   0  0  0  0  0  0  0  0  0  0  0  0
  143.0890  159.1290  134.2750 C   0  0  0  0  0  0  0  0  0  0  0  0
  141.7540  158.6760  134.7370 C   0  0  0  0  0  0  0  0  0  0  0  0
  141.9400  157.7580  135.7520 F   0  0  0  0  0  0  0  0  0  0  0  0
  141.1250  159.7780  135.2890 F   0  0  0  0  0  0  0  0  0  0  0  0
  141.0020  158.1650  133.7030 F   0  0  0  0  0  0  0  0  0  0  0  0
  144.1070  158.2260  134.0210 C   0  0  0  0  0  0  0  0  0  0  0  0
  145.3630  158.6170  133.5890 C   0  0  0  0  0  0  0  0  0  0  0  0
  146.5110  157.9730  133.2740 N   0  0  0  0  0  0  0  0  0  0  0  0
  146.6730  156.5680  133.3340 C   0  0  0  0  0  0  0  0  0  0  0  0
  146.2630  155.8250  134.2530 O   0  0  0  0  0  0  0  0  0  0  0  0
  147.3460  155.8960  132.2940 O   0  0  0  0  0  0  0  0  0  0  0  0
  148.1690  154.8010  132.5830 C   0  0  0  0  0  0  0  0  0  0  0  0
  149.4280  154.8940  132.4730 O   0  0  0  0  0  0  0  0  0  0  0  0
  147.5890  153.5050  133.0250 C   0  0  1  0  0  0  0  0  0  0  0  0
  146.1660  153.4330  132.7490 N   0  0  0  0  0  0  0  0  0  0  0  0
  148.2430  152.3710  132.2590 C   0  0  0  0  0  0  0  0  0  0  0  0
  149.9810  152.1700  132.7210 S   0  0  0  0  0  0  0  0  0  0  0  0
  149.1400  156.8330  131.4750 H   0  0  0  0  0  0  0  0  0  0  0  0
  149.9500  157.0290  133.1230 H   0  0  0  0  0  0  0  0  0  0  0  0
  147.3169  161.0900  132.7691 H   0  0  0  0  0  0  0  0  0  0  0  0
  144.7295  161.9748  133.5225 H   0  0  0  0  0  0  0  0  0  0  0  0
  142.5022  161.1919  134.2989 H   0  0  0  0  0  0  0  0  0  0  0  0
  143.9100  157.1539  134.1684 H   0  0  0  0  0  0  0  0  0  0  0  0
  147.7628  153.4240  134.1081 H   0  0  0  0  0  0  0  0  0  0  0  0
  145.7370  154.4060  132.7020 H   0  0  0  0  0  0  0  0  0  0  0  0
  145.9640  153.0200  131.7960 H   0  0  0  0  0  0  0  0  0  0  0  0
  147.7054  151.4364  132.4769 H   0  0  0  0  0  0  0  0  0  0  0  0
  148.1976  152.6095  131.1861 H   0  0  0  0  0  0  0  0  0  0  0  0
  150.7640  153.2060  132.1860 H   0  0  0  0  0  0  0  0  0  0  0  0
  1  2  1  0
  2  3  2  0
  2  4  1  0
  4  5  2  0
  5  6  1  0
  6  7  2  0
  7  8  1  0
  8  9  2  0
  9 10  1  0
 10 11  1  0
 10 12  1  0
 10 13  1  0
  9 14  1  0
 14 15  2  0
 15 16  1  0
 16 17  1  0
 17 18  2  0
 17 19  1  0
 19 20  1  0
 20 21  2  0
 20 22  1  0
 22 23  1  0
 22 24  1  0
 24 25  1  0
 16  4  1  0
 15  6  1  0
  1 26  1  0
  1 27  1  0
  5 28  1  0
  7 29  1  0
  8 30  1  0
 14 31  1  0
 22 32  1  1
 23 33  1  0
 23 34  1  0
 24 35  1  0
 24 36  1  0
 25 37  1  0
M  END
>  <smiles>  (23) 
NC(=O)c1cc2ccc(C(F)(F)F)cc2n1C(=O)OC(=O)[C@@H](N)CS

>  <score_type>  (23) 
oracle

>  <origin>  (23) 
adg

>  <m_score__min__energy>  (23) 
-6.9900000000000002

>  <m_primary>  (23) 
energy

$$$$
25:0
     RDKit          3D

 40 41  0  0  0  0  0  0  0  0999 V2000
  141.5220  159.3210  135.7460 C   0  0  0  0  0  0  0  0  0  0  0  0
  141.9060  159.5530  134.3660 N   0  0  0  0  0  0  0  0  0  0  0  0
  140.9620  159.7330  133.2910 C   0  0  0  0  0  0  0  0  0  0  0  0
  143.2960  159.6020  134.0670 C   0  0  0  0  0  0  0  0  0  0  0  0
  143.9430  160.8170  134.1110 C   0  0  0  0  0  0  0  0  0  0  0  0
  145.2880  160.8760  133.8240 C   0  0  0  0  0  0  0  0  0  0  0  0
  145.9710  159.7140  133.4940 C   0  0  0  0  0  0  0  0  0  0  0  0
  147.2720  159.4970  133.1730 C   0  0  0  0  0  0  0  0  0  0  0  0
  147.4680  158.1390  132.9210 C   0  0  0  0  0  0  0  0  0  0  0  0
  148.7570  157.5940  132.5530 C   0  0  0  0  0  0  0  0  0  0  0  0
  148.9570  156.1630  132.6030 N   0  0  0  0  0  0  0  0  0  0  0  0
  149.7580  158.2460  132.1820 O   0  0  0  0  0  0  0  0  0  0  0  0
  146.2770  157.5410  133.0910 N   0  0  0  0  0  0  0  0  0  0  0  0
  145.9660  156.1680  132.9490 C   0  0  0  0  0  0  0  0  0  0  0  0
  144.8040  155.8240  132.5740 O   0  0  0  0  0  0  0  0  0  0  0  0
  146.8390  155.1220  133.1870 O   0  0  0  0  0  0  0  0  0  0  0  0
  146.8930  154.4190  134.4200 C   0  0  0  0  0  0  0  0  0  0  0  0
  148.1510  153.9480  134.7330 O   0  0  0  0  0  0  0  0  0  0  0  0
  148.6560  153.0370  133.3870 P   0  0  0  0  0  0  0  0  0  0  0  0
  149.6670  153.7780  132.5560 O   0  0  0  0  0  0  0  0  0  0  0  0
  147.3580  152.6360  132.3830 O   0  0  0  0  0  0  0  0  0  0  0  0
  149.2910  151.5560  133.9610 O   0  0  0  0  0  0  0  0  0  0  0  0
  145.3540  158.4790  133.4390 C   0  0  0  0  0  0  0  0  0  0  0  0
  144.0060  158.4550  133.7340 C   0  0  0  0  0  0  0  0  0  0  0  0
  142.2692  159.7724  136.4153 H   0  0  0  0  0  0  0  0  0  0  0  0
  140.5384  159.7761  135.9344 H   0  0  0  0  0  0  0  0  0  0  0  0
  141.4673  158.2386  135.9344 H   0  0  0  0  0  0  0  0  0  0  0  0
  139.9625  159.9236  133.7088 H   0  0  0  0  0  0  0  0  0  0  0  0
  141.2699  160.5886  132.6720 H   0  0  0  0  0  0  0  0  0  0  0  0
  140.9335  158.8241  132.6720 H   0  0  0  0  0  0  0  0  0  0  0  0
  143.3904  161.7313  134.3729 H   0  0  0  0  0  0  0  0  0  0  0  0
  145.8185  161.8391  133.8561 H   0  0  0  0  0  0  0  0  0  0  0  0
  148.0510  160.2719  133.1198 H   0  0  0  0  0  0  0  0  0  0  0  0
  148.7970  155.6240  133.4780 H   0  0  0  0  0  0  0  0  0  0  0  0
  149.2700  155.7260  131.7060 H   0  0  0  0  0  0  0  0  0  0  0  0
  146.5665  155.0977  135.2217 H   0  0  0  0  0  0  0  0  0  0  0  0
  146.2362  153.5423  134.3202 H   0  0  0  0  0  0  0  0  0  0  0  0
  146.9770  153.3950  131.8960 H   0  0  0  0  0  0  0  0  0  0  0  0
  148.5620  151.0680  134.4260 H   0  0  0  0  0  0  0  0  0  0  0  0
  143.4742  157.4926  133.7044 H   0  0  0  0  0  0  0  0  0  0  0  0
  1  2  1  0
  2  3  1  0
  2  4  1  0
  4  5  2  0
  5  6  1  0
  6  7  2  0
  7  8  1  0
  8  9  2  0
  9 10  1  0
 10 11  1  0
 10 12  2  0
  9 13  1  0
 13 14  1  0
 14 15  2  0
 14 16  1  0
 16 17  1  0
 17 18  1  0
 18 19  1  0
 19 20  2  0
 19 21  1  0
 19 22  1  0
 13 23  1  0
 23 24  2  0
 24  4  1  0
 23  7  1  0
  1 25  1  0
  1 26  1  0
  1 27  1  0
  3 28  1  0
  3 29  1  0
  3 30  1  0
  5 31  1  0
  6 32  1  0
  8 33  1  0
 11 34  1  0
 11 35  1  0
 17 36  1  0
 17 37  1  0
 21 38  1  0
 22 39  1  0
 24 40  1  0
M  END
>  <smiles>  (24) 
CN(C)c1ccc2cc(C(N)=O)n(C(=O)OCOP(=O)(O)O)c2c1

>  <score_type>  (24) 
oracle

>  <origin>  (24) 
adg

>  <m_score__min__energy>  (24) 
-6.2400000000000002

>  <m_primary>  (24) 
energy

$$$$
26:0
     RDKit          3D

 39 40  0  0  1  0  0  0  0  0999 V2000
  145.7490  152.2760  132.6380 N   0  0  0  0  0  0  0  0  0  0  0  0
  144.9390  153.3920  132.9070 C   0  0  0  0  0  0  0  0  0  0  0  0
  143.6890  153.1360  133.0570 O   0  0  0  0  0  0  0  0  0  0  0  0
  145.3260  154.7760  133.0200 C   0  0  0  0  0  0  0  0  0  0  0  0
  144.2980  155.7570  133.0010 C   0  0  0  0  0  0  0  0  0  0  0  0
  144.9000  156.9730  133.0690 C   0  0  0  0  0  0  0  0  0  0  0  0
  144.3380  158.2320  133.0840 C   0  0  0  0  0  0  0  0  0  0  0  0
  145.1310  159.3510  133.1640 C   0  0  0  0  0  0  0  0  0  0  0  0
  146.4860  159.1620  133.2270 C   0  0  0  0  0  0  0  0  0  0  0  0
  147.3560  160.3660  133.3140 C   0  0  0  0  0  0  0  0  0  0  0  0
  146.6130  161.4190  133.8080 F   0  0  0  0  0  0  0  0  0  0  0  0
  148.4720  160.1140  134.0850 F   0  0  0  0  0  0  0  0  0  0  0  0
  147.8200  160.7300  132.0620 F   0  0  0  0  0  0  0  0  0  0  0  0
  147.0420  157.8820  133.2120 C   0  0  0  0  0  0  0  0  0  0  0  0
  146.2530  156.7430  133.1310 C   0  0  0  0  0  0  0  0  0  0  0  0
  146.5110  155.3950  133.1040 N   0  0  0  0  0  0  0  0  0  0  0  0
  147.8300  154.9090  133.1270 C   0  0  0  0  0  0  0  0  0  0  0  0
  148.7370  155.8110  132.9050 O   0  0  0  0  0  0  0  0  0  0  0  0
  148.3420  153.6030  133.3630 C   0  0  0  0  0  0  0  0  0  0  0  0
  148.5090  152.9980  134.4410 O   0  0  0  0  0  0  0  0  0  0  0  0
  148.7350  152.8260  132.2300 O   0  0  0  0  0  0  0  0  0  0  0  0
  149.9790  152.1520  132.2510 C   0  0  0  0  0  0  0  0  0  0  0  0
  149.9400  150.7520  132.7410 C   0  0  1  0  0  0  0  0  0  0  0  0
  149.6050  150.7310  134.1140 O   0  0  0  0  0  0  0  0  0  0  0  0
  148.7490  150.0850  132.0340 C   0  0  0  0  0  0  0  0  0  0  0  0
  147.5710  150.5500  132.6320 O   0  0  0  0  0  0  0  0  0  0  0  0
  145.6020  151.3480  133.0820 H   0  0  0  0  0  0  0  0  0  0  0  0
  146.5550  152.3360  131.9580 H   0  0  0  0  0  0  0  0  0  0  0  0
  143.2161  155.5671  132.9422 H   0  0  0  0  0  0  0  0  0  0  0  0
  143.2447  158.3414  133.0314 H   0  0  0  0  0  0  0  0  0  0  0  0
  144.6942  160.3605  133.1770 H   0  0  0  0  0  0  0  0  0  0  0  0
  148.1353  157.7729  133.2658 H   0  0  0  0  0  0  0  0  0  0  0  0
  150.3755  152.1408  131.2250 H   0  0  0  0  0  0  0  0  0  0  0  0
  150.6088  152.7037  132.9644 H   0  0  0  0  0  0  0  0  0  0  0  0
  150.9100  150.2650  132.5626 H   0  0  0  0  0  0  0  0  0  0  0  0
  148.7910  151.2420  134.2690 H   0  0  0  0  0  0  0  0  0  0  0  0
  148.7541  150.3488  130.9661 H   0  0  0  0  0  0  0  0  0  0  0  0
  148.8161  148.9909  132.1253 H   0  0  0  0  0  0  0  0  0  0  0  0
  147.7450  151.2390  133.3090 H   0  0  0  0  0  0  0  0  0  0  0  0
  1  2  1  0
  2  3  2  0
  2  4  1  0
  4  5  2  0
  5  6  1  0
  6  7  2  0
  7  8  1  0
  8  9  2  0
  9 10  1  0
 10 11  1  0
 10 12  1  0
 10 13  1  0
  9 14  1  0
 14 15  2  0
 15 16  1  0
 16 17  1  0
 17 18  2  0
 17 19  1  0
 19 20  2  0
 19 21  1  0
 21 22  1  0
 22 23  1  0
 23 24  1  0
 23 25  1  0
 25 26  1  0
 16  4  1  0
 15  6  1  0
  1 27  1  0
  1 28  1  0
  5 29  1  0
  7 30  1  0
  8 31  1  0
 14 32  1  0
 22 33  1  0
 22 34  1  0
 23 35  1  1
 24 36  1  0
 25 37  1  0
 25 38  1  0
 26 39  1  0
M  END
>  <smiles>  (25) 
NC(=O)c1cc2ccc(C(F)(F)F)cc2n1C(=O)C(=O)OCC(O)CO

>  <score_type>  (25) 
oracle

>  <origin>  (25) 
adg

>  <m_score__min__energy>  (25) 
-5.8099999999999996

>  <m_primary>  (25) 
energy

$$$$
27:0
     RDKit          3D

 45 46  0  0  0  0  0  0  0  0999 V2000
  140.9640  159.6640  135.9290 C   0  0  0  0  0  0  0  0  0  0  0  0
  140.5410  158.2920  135.6690 N   0  0  0  0  0  0  0  0  0  0  0  0
  139.8750  157.5370  136.7110 C   0  0  0  0  0  0  0  0  0  0  0  0
  140.8120  156.7840  137.6040 C   0  0  0  0  0  0  0  0  0  0  0  0
  142.0370  156.6390  136.9640 O   0  0  0  0  0  0  0  0  0  0  0  0
  140.8180  157.7770  134.3750 C   0  0  0  0  0  0  0  0  0  0  0  0
  142.0340  157.6900  134.0520 O   0  0  0  0  0  0  0  0  0  0  0  0
  139.7010  157.3780  133.4920 C   0  0  0  0  0  0  0  0  0  0  0  0
  140.0380  156.2870  132.6510 O   0  0  0  0  0  0  0  0  0  0  0  0
  139.8970  154.9490  133.1840 C   0  0  0  0  0  0  0  0  0  0  0  0
  138.7490  154.5180  132.9840 O   0  0  0  0  0  0  0  0  0  0  0  0
  141.0310  154.3800  133.8140 C   0  0  0  0  0  0  0  0  0  0  0  0
  141.3040  154.9280  134.9750 O   0  0  0  0  0  0  0  0  0  0  0  0
  141.9300  153.3680  133.4760 N   0  0  0  0  0  0  0  0  0  0  0  0
  143.2620  153.4340  133.7670 C   0  0  0  0  0  0  0  0  0  0  0  0
  144.1060  154.4700  134.3090 C   0  0  0  0  0  0  0  0  0  0  0  0
  143.6160  155.8500  134.3720 N   0  0  0  0  0  0  0  0  0  0  0  0
  145.2670  154.3620  134.7610 O   0  0  0  0  0  0  0  0  0  0  0  0
  143.8320  152.2090  133.3580 C   0  0  0  0  0  0  0  0  0  0  0  0
  142.8750  151.4200  132.8330 C   0  0  0  0  0  0  0  0  0  0  0  0
  142.9400  150.1450  132.3170 C   0  0  0  0  0  0  0  0  0  0  0  0
  141.8200  149.5150  131.8440 C   0  0  0  0  0  0  0  0  0  0  0  0
  140.6320  150.2040  131.9070 C   0  0  0  0  0  0  0  0  0  0  0  0
  139.4130  149.5280  131.3970 C   0  0  0  0  0  0  0  0  0  0  0  0
  139.4040  149.6300  130.0280 F   0  0  0  0  0  0  0  0  0  0  0  0
  139.4250  148.2270  131.8390 F   0  0  0  0  0  0  0  0  0  0  0  0
  138.3350  150.2390  131.9200 F   0  0  0  0  0  0  0  0  0  0  0  0
  140.5850  151.4940  132.4320 C   0  0  0  0  0  0  0  0  0  0  0  0
  141.6900  152.1470  132.9090 C   0  0  0  0  0  0  0  0  0  0  0  0
  141.0159  159.8322  137.0148 H   0  0  0  0  0  0  0  0  0  0  0  0
  141.9558  159.8325  135.4841 H   0  0  0  0  0  0  0  0  0  0  0  0
  140.2393  160.3617  135.4841 H   0  0  0  0  0  0  0  0  0  0  0  0
  139.2940  158.2371  137.3293 H   0  0  0  0  0  0  0  0  0  0  0  0
  139.2402  156.7910  136.2105 H   0  0  0  0  0  0  0  0  0  0  0  0
  140.9512  157.3396  138.5431 H   0  0  0  0  0  0  0  0  0  0  0  0
  140.3923  155.7920  137.8270 H   0  0  0  0  0  0  0  0  0  0  0  0
  141.9570  156.7040  135.9750 H   0  0  0  0  0  0  0  0  0  0  0  0
  138.8427  157.0901  134.1168 H   0  0  0  0  0  0  0  0  0  0  0  0
  139.4612  158.2362  132.8470 H   0  0  0  0  0  0  0  0  0  0  0  0
  143.7990  156.4520  133.5370 H   0  0  0  0  0  0  0  0  0  0  0  0
  143.1120  156.1820  135.2250 H   0  0  0  0  0  0  0  0  0  0  0  0
  144.8944  151.9402  133.4534 H   0  0  0  0  0  0  0  0  0  0  0  0
  143.9081  149.6237  132.2842 H   0  0  0  0  0  0  0  0  0  0  0  0
  141.8689  148.4972  131.4297 H   0  0  0  0  0  0  0  0  0  0  0  0
  139.6151  152.0118  132.4648 H   0  0  0  0  0  0  0  0  0  0  0  0
  1  2  1  0
  2  3  1  0
  3  4  1  0
  4  5  1  0
  2  6  1  0
  6  7  2  0
  6  8  1  0
  8  9  1  0
  9 10  1  0
 10 11  2  0
 10 12  1  0
 12 13  2  0
 12 14  1  0
 14 15  1  0
 15 16  1  0
 16 17  1  0
 16 18  2  0
 15 19  2  0
 19 20  1  0
 20 21  2  0
 21 22  1  0
 22 23  2  0
 23 24  1  0
 24 25  1  0
 24 26  1  0
 24 27  1  0
 23 28  1  0
 28 29  2  0
 29 14  1  0
 29 20  1  0
  1 30  1  0
  1 31  1  0
  1 32  1  0
  3 33  1  0
  3 34  1  0
  4 35  1  0
  4 36  1  0
  5 37  1  0
  8 38  1  0
  8 39  1  0
 17 40  1  0
 17 41  1  0
 19 42  1  0
 21 43  1  0
 22 44  1  0
 28 45  1  0
M  END
>  <smiles>  (26) 
CN(CCO)C(=O)COC(=O)C(=O)n1c(C(N)=O)cc2ccc(C(F)(F)F)cc21

>  <score_type>  (26) 
oracle

>  <origin>  (26) 
adg

>  <m_score__min__energy>  (26) 
-6.7199999999999998

>  <m_primary>  (26) 
energy

$$$$
28:0
     RDKit          3D

 49 50  0  0  0  0  0  0  0  0999 V2000
  138.3690  149.4180  131.3730 C   0  0  0  0  0  0  0  0  0  0  0  0
  139.7960  149.7190  131.6900 C   0  0  0  0  0  0  0  0  0  0  0  0
  140.7370  148.7320  131.5440 C   0  0  0  0  0  0  0  0  0  0  0  0
  142.0410  149.0060  131.8330 C   0  0  0  0  0  0  0  0  0  0  0  0
  142.3850  150.2770  132.2680 C   0  0  0  0  0  0  0  0  0  0  0  0
  143.6040  150.7640  132.6080 C   0  0  0  0  0  0  0  0  0  0  0  0
  143.4170  152.1100  132.9800 C   0  0  0  0  0  0  0  0  0  0  0  0
  144.5670  152.9100  133.3600 C   0  0  0  0  0  0  0  0  0  0  0  0
  145.8470  152.6160  132.7660 N   0  0  0  0  0  0  0  0  0  0  0  0
  144.5830  153.8570  134.1710 O   0  0  0  0  0  0  0  0  0  0  0  0
  142.1220  152.4290  132.8740 N   0  0  0  0  0  0  0  0  0  0  0  0
  141.3840  153.5670  133.2480 C   0  0  0  0  0  0  0  0  0  0  0  0
  140.2160  153.7200  132.7390 O   0  0  0  0  0  0  0  0  0  0  0  0
  141.7530  154.5860  134.1330 N   0  0  0  0  0  0  0  0  0  0  0  0
  140.8620  155.7380  134.4130 C   0  0  1  0  0  0  0  0  0  0  0  0
  141.3100  156.4310  135.6200 C   0  0  0  0  0  0  0  0  0  0  0  0
  142.3750  155.9850  136.1650 O   0  0  0  0  0  0  0  0  0  0  0  0
  140.7130  157.5290  136.2630 N   0  0  0  0  0  0  0  0  0  0  0  0
  141.4120  158.0580  137.4420 C   0  0  0  0  0  0  0  0  0  0  0  0
  139.4740  158.1700  135.9170 C   0  0  0  0  0  0  0  0  0  0  0  0
  140.9510  156.5440  133.1400 C   0  0  0  0  0  0  0  0  0  0  0  0
  141.8820  157.6940  133.1380 C   0  0  0  0  0  0  0  0  0  0  0  0
  139.5460  157.0010  132.7190 C   0  0  0  0  0  0  0  0  0  0  0  0
  141.4930  151.2930  132.4300 C   0  0  0  0  0  0  0  0  0  0  0  0
  140.1640  150.9950  132.1300 C   0  0  0  0  0  0  0  0  0  0  0  0
  137.8029  149.2986  132.3085 H   0  0  0  0  0  0  0  0  0  0  0  0
  137.9408  150.2456  130.7884 H   0  0  0  0  0  0  0  0  0  0  0  0
  138.3115  148.4880  130.7884 H   0  0  0  0  0  0  0  0  0  0  0  0
  140.4429  147.7303  131.1975 H   0  0  0  0  0  0  0  0  0  0  0  0
  142.8109  148.2282  131.7224 H   0  0  0  0  0  0  0  0  0  0  0  0
  144.5564  150.2137  132.5957 H   0  0  0  0  0  0  0  0  0  0  0  0
  145.9630  152.7940  131.7410 H   0  0  0  0  0  0  0  0  0  0  0  0
  146.6210  152.2350  133.3680 H   0  0  0  0  0  0  0  0  0  0  0  0
  142.6220  154.5780  134.6670 H   0  0  0  0  0  0  0  0  0  0  0  0
  139.8146  155.4874  134.6371 H   0  0  0  0  0  0  0  0  0  0  0  0
  140.9228  157.6878  138.3550 H   0  0  0  0  0  0  0  0  0  0  0  0
  142.4603  157.7250  137.4269 H   0  0  0  0  0  0  0  0  0  0  0  0
  141.3763  159.1573  137.4269 H   0  0  0  0  0  0  0  0  0  0  0  0
  138.9362  158.4482  136.8353 H   0  0  0  0  0  0  0  0  0  0  0  0
  139.6815  159.0739  135.3254 H   0  0  0  0  0  0  0  0  0  0  0  0
  138.8561  157.4785  135.3254 H   0  0  0  0  0  0  0  0  0  0  0  0
  141.3932  155.8496  132.4105 H   0  0  0  0  0  0  0  0  0  0  0  0
  142.1136  157.9801  134.1746 H   0  0  0  0  0  0  0  0  0  0  0  0
  142.8103  157.4133  132.6190 H   0  0  0  0  0  0  0  0  0  0  0  0
  141.4142  158.5436  132.6190 H   0  0  0  0  0  0  0  0  0  0  0  0
  138.9404  157.1980  133.6159 H   0  0  0  0  0  0  0  0  0  0  0  0
  139.6236  157.9202  132.1198 H   0  0  0  0  0  0  0  0  0  0  0  0
  139.0680  156.2120  132.1198 H   0  0  0  0  0  0  0  0  0  0  0  0
  139.3949  151.7736  132.2408 H   0  0  0  0  0  0  0  0  0  0  0  0
  1  2  1  0
  2  3  2  0
  3  4  1  0
  4  5  2  0
  5  6  1  0
  6  7  2  0
  7  8  1  0
  8  9  1  0
  8 10  2  0
  7 11  1  0
 11 12  1  0
 12 13  2  0
 12 14  1  0
 14 15  1  0
 15 16  1  0
 16 17  2  0
 16 18  1  0
 18 19  1  0
 18 20  1  0
 15 21  1  0
 21 22  1  0
 21 23  1  0
 11 24  1  0
 24 25  2  0
 25  2  1  0
 24  5  1  0
  1 26  1  0
  1 27  1  0
  1 28  1  0
  3 29  1  0
  4 30  1  0
  6 31  1  0
  9 32  1  0
  9 33  1  0
 14 34  1  0
 15 35  1  1
 19 36  1  0
 19 37  1  0
 19 38  1  0
 20 39  1  0
 20 40  1  0
 20 41  1  0
 21 42  1  0
 22 43  1  0
 22 44  1  0
 22 45  1  0
 23 46  1  0
 23 47  1  0
 23 48  1  0
 25 49  1  0
M  END
>  <smiles>  (27) 
Cc1ccc2cc(C(N)=O)n(C(=O)N[C@@H](C(=O)N(C)C)C(C)C)c2c1

>  <score_type>  (27) 
oracle

>  <origin>  (27) 
adg

>  <m_score__min__energy>  (27) 
-8.2599999999999998

>  <m_primary>  (27) 
energy

$$$$
29:0
     RDKit          3D

 43 44  0  0  0  0  0  0  0  0999 V2000
  148.1020  160.4350  132.0550 C   0  0  0  0  0  0  0  0  0  0  0  0
  147.4190  159.2610  132.6620 C   0  0  0  0  0  0  0  0  0  0  0  0
  148.1170  158.0950  132.8500 C   0  0  0  0  0  0  0  0  0  0  0  0
  147.4510  157.0420  133.4100 C   0  0  0  0  0  0  0  0  0  0  0  0
  146.1260  157.1600  133.7690 C   0  0  0  0  0  0  0  0  0  0  0  0
  145.2870  156.2470  134.3060 C   0  0  0  0  0  0  0  0  0  0  0  0
  144.0220  156.8460  134.4700 C   0  0  0  0  0  0  0  0  0  0  0  0
  142.9550  156.0650  135.0620 C   0  0  0  0  0  0  0  0  0  0  0  0
  142.8250  155.9730  136.5200 N   0  0  0  0  0  0  0  0  0  0  0  0
  142.0650  155.4100  134.4740 O   0  0  0  0  0  0  0  0  0  0  0  0
  144.1030  158.1430  134.0200 N   0  0  0  0  0  0  0  0  0  0  0  0
  142.9700  158.9540  133.9590 C   0  0  0  0  0  0  0  0  0  0  0  0
  143.3050  160.1110  133.3910 O   0  0  0  0  0  0  0  0  0  0  0  0
  141.6350  158.9710  134.2700 N   0  0  0  0  0  0  0  0  0  0  0  0
  141.0070  159.3230  135.5770 C   0  0  0  0  0  0  0  0  0  0  0  0
  140.9180  158.1660  136.4710 C   0  0  0  0  0  0  0  0  0  0  0  0
  141.4790  158.1230  137.5810 O   0  0  0  0  0  0  0  0  0  0  0  0
  140.1770  157.0720  136.0600 O   0  0  0  0  0  0  0  0  0  0  0  0
  140.5850  158.6670  133.3410 C   0  0  0  0  0  0  0  0  0  0  0  0
  140.3890  157.3360  133.3720 O   0  0  0  0  0  0  0  0  0  0  0  0
  139.7410  159.2650  132.4590 N   0  0  0  0  0  0  0  0  0  0  0  0
  138.8290  158.2470  131.7660 C   0  0  0  0  0  0  0  0  0  0  0  0
  139.4810  160.5950  132.0170 C   0  0  0  0  0  0  0  0  0  0  0  0
  145.3810  158.3170  133.6000 C   0  0  0  0  0  0  0  0  0  0  0  0
  146.0930  159.3530  133.0290 C   0  0  0  0  0  0  0  0  0  0  0  0
  148.4831  161.0901  132.8522 H   0  0  0  0  0  0  0  0  0  0  0  0
  148.9403  160.0898  131.4320 H   0  0  0  0  0  0  0  0  0  0  0  0
  147.3876  160.9931  131.4320 H   0  0  0  0  0  0  0  0  0  0  0  0
  149.1748  158.0111  132.5602 H   0  0  0  0  0  0  0  0  0  0  0  0
  147.9776  156.0906  133.5760 H   0  0  0  0  0  0  0  0  0  0  0  0
  145.5474  155.2115  134.5704 H   0  0  0  0  0  0  0  0  0  0  0  0
  141.8900  156.0460  136.9670 H   0  0  0  0  0  0  0  0  0  0  0  0
  143.7100  155.8320  137.0950 H   0  0  0  0  0  0  0  0  0  0  0  0
  141.6120  160.1023  136.0635 H   0  0  0  0  0  0  0  0  0  0  0  0
  139.9853  159.6792  135.3787 H   0  0  0  0  0  0  0  0  0  0  0  0
  140.3930  156.5490  135.2150 H   0  0  0  0  0  0  0  0  0  0  0  0
  138.2978  157.6541  132.5252 H   0  0  0  0  0  0  0  0  0  0  0  0
  138.0983  158.7774  131.1377 H   0  0  0  0  0  0  0  0  0  0  0  0
  139.4362  157.5788  131.1377 H   0  0  0  0  0  0  0  0  0  0  0  0
  139.3524  161.2527  132.8893 H   0  0  0  0  0  0  0  0  0  0  0  0
  140.3264  160.9516  131.4103 H   0  0  0  0  0  0  0  0  0  0  0  0
  138.5635  160.6070  131.4103 H   0  0  0  0  0  0  0  0  0  0  0  0
  145.5725  160.3067  132.8569 H   0  0  0  0  0  0  0  0  0  0  0  0
  1  2  1  0
  2  3  2  0
  3  4  1  0
  4  5  2  0
  5  6  1  0
  6  7  2  0
  7  8  1  0
  8  9  1  0
  8 10  2  0
  7 11  1  0
 11 12  1  0
 12 13  2  0
 12 14  1  0
 14 15  1  0
 15 16  1  0
 16 17  2  0
 16 18  1  0
 14 19  1  0
 19 20  2  0
 19 21  1  0
 21 22  1  0
 21 23  1  0
 11 24  1  0
 24 25  2  0
 25  2  1  0
 24  5  1  0
  1 26  1  0
  1 27  1  0
  1 28  1  0
  3 29  1  0
  4 30  1  0
  6 31  1  0
  9 32  1  0
  9 33  1  0
 15 34  1  0
 15 35  1  0
 18 36  1  0
 22 37  1  0
 22 38  1  0
 22 39  1  0
 23 40  1  0
 23 41  1  0
 23 42  1  0
 25 43  1  0
M  END
>  <smiles>  (28) 
Cc1ccc2cc(C(N)=O)n(C(=O)N(CC(=O)O)C(=O)N(C)C)c2c1

>  <score_type>  (28) 
oracle

>  <origin>  (28) 
adg

>  <m_score__min__energy>  (28) 
-6.8099999999999996

>  <m_primary>  (28) 
energy

$$$$
30:0
     RDKit          3D

 33 34  0  0  0  0  0  0  0  0999 V2000
  139.2760  157.9630  133.9750 C   0  0  0  0  0  0  0  0  0  0  0  0
  140.4020  158.3910  133.9130 C   0  0  0  0  0  0  0  0  0  0  0  0
  141.7490  158.8830  133.8290 C   0  0  0  0  0  0  0  0  0  0  0  0
  141.9340  160.2440  133.8100 C   0  0  0  0  0  0  0  0  0  0  0  0
  143.2310  160.6960  133.7300 C   0  0  0  0  0  0  0  0  0  0  0  0
  144.2830  159.8130  133.6700 C   0  0  0  0  0  0  0  0  0  0  0  0
  145.6180  160.0460  133.6240 C   0  0  0  0  0  0  0  0  0  0  0  0
  146.2860  158.8040  133.6080 C   0  0  0  0  0  0  0  0  0  0  0  0
  147.7310  158.7740  133.5360 C   0  0  0  0  0  0  0  0  0  0  0  0
  148.4820  157.7500  134.2650 N   0  0  0  0  0  0  0  0  0  0  0  0
  148.4800  159.5460  132.8980 O   0  0  0  0  0  0  0  0  0  0  0  0
  145.3400  157.8140  133.6440 N   0  0  0  0  0  0  0  0  0  0  0  0
  145.6830  156.4610  133.7500 C   0  0  0  0  0  0  0  0  0  0  0  0
  146.2050  156.1870  134.9310 O   0  0  0  0  0  0  0  0  0  0  0  0
  145.6240  155.3470  132.9380 N   0  0  0  0  0  0  0  0  0  0  0  0
  144.6230  154.8320  132.0540 C   0  0  0  0  0  0  0  0  0  0  0  0
  146.8180  154.4690  132.9710 C   0  0  0  0  0  0  0  0  0  0  0  0
  146.7010  153.0770  132.7840 N   0  0  0  0  0  0  0  0  0  0  0  0
  147.8930  155.0790  133.1750 O   0  0  0  0  0  0  0  0  0  0  0  0
  144.1350  158.4340  133.6840 C   0  0  0  0  0  0  0  0  0  0  0  0
  142.8190  158.0110  133.7680 C   0  0  0  0  0  0  0  0  0  0  0  0
  138.2491  157.5727  134.0316 H   0  0  0  0  0  0  0  0  0  0  0  0
  141.0840  160.9407  133.8566 H   0  0  0  0  0  0  0  0  0  0  0  0
  143.4288  161.7779  133.7138 H   0  0  0  0  0  0  0  0  0  0  0  0
  146.0983  161.0354  133.6028 H   0  0  0  0  0  0  0  0  0  0  0  0
  149.3180  158.0140  134.8290 H   0  0  0  0  0  0  0  0  0  0  0  0
  148.1420  156.7640  134.1920 H   0  0  0  0  0  0  0  0  0  0  0  0
  143.7970  154.4070  132.6432 H   0  0  0  0  0  0  0  0  0  0  0  0
  144.2405  155.6452  131.4197 H   0  0  0  0  0  0  0  0  0  0  0  0
  145.0622  154.0479  131.4197 H   0  0  0  0  0  0  0  0  0  0  0  0
  146.6620  152.6100  131.8470 H   0  0  0  0  0  0  0  0  0  0  0  0
  146.6480  152.4670  133.6490 H   0  0  0  0  0  0  0  0  0  0  0  0
  142.6160  156.9301  133.7871 H   0  0  0  0  0  0  0  0  0  0  0  0
  1  2  3  0
  2  3  1  0
  3  4  2  0
  4  5  1  0
  5  6  2  0
  6  7  1  0
  7  8  2  0
  8  9  1  0
  9 10  1  0
  9 11  2  0
  8 12  1  0
 12 13  1  0
 13 14  2  0
 13 15  1  0
 15 16  1  0
 15 17  1  0
 17 18  1  0
 17 19  2  0
 12 20  1  0
 20 21  2  0
 21  3  1  0
 20  6  1  0
  1 22  1  0
  4 23  1  0
  5 24  1  0
  7 25  1  0
 10 26  1  0
 10 27  1  0
 16 28  1  0
 16 29  1  0
 16 30  1  0
 18 31  1  0
 18 32  1  0
 21 33  1  0
M  END
>  <smiles>  (29) 
C#Cc1ccc2cc(C(N)=O)n(C(=O)N(C)C(N)=O)c2c1

>  <score_type>  (29) 
oracle

>  <origin>  (29) 
adg

>  <m_score__min__energy>  (29) 
-7.6600000000000001

>  <m_primary>  (29) 
energy

$$$$
31:0
     RDKit          3D

 50 51  0  0  0  0  0  0  0  0999 V2000
  141.6060  160.6820  133.7420 C   0  0  0  0  0  0  0  0  0  0  0  0
  141.5820  159.4630  134.5900 C   0  0  0  0  0  0  0  0  0  0  0  0
  140.6080  159.3670  135.5530 C   0  0  0  0  0  0  0  0  0  0  0  0
  140.5980  158.2380  136.3280 C   0  0  0  0  0  0  0  0  0  0  0  0
  141.5390  157.2460  136.1360 C   0  0  0  0  0  0  0  0  0  0  0  0
  141.6850  156.0710  136.7940 C   0  0  0  0  0  0  0  0  0  0  0  0
  142.7970  155.4160  136.2140 C   0  0  0  0  0  0  0  0  0  0  0  0
  143.1720  154.1340  136.7780 C   0  0  0  0  0  0  0  0  0  0  0  0
  144.5920  153.7850  136.7700 N   0  0  0  0  0  0  0  0  0  0  0  0
  142.4440  153.2760  137.2780 O   0  0  0  0  0  0  0  0  0  0  0  0
  143.3140  156.1610  135.2280 N   0  0  0  0  0  0  0  0  0  0  0  0
  144.2730  155.9340  134.2480 C   0  0  0  0  0  0  0  0  0  0  0  0
  143.8250  156.2560  133.0180 O   0  0  0  0  0  0  0  0  0  0  0  0
  145.6120  155.4420  134.1140 C   0  0  0  0  0  0  0  0  0  0  0  0
  145.9950  154.1070  133.9250 N   0  0  0  0  0  0  0  0  0  0  0  0
  147.4100  153.7590  134.2080 C   0  0  0  0  0  0  0  0  0  0  0  0
  147.6340  154.1000  135.6610 C   0  0  0  0  0  0  0  0  0  0  0  0
  146.9990  153.4080  136.4530 O   0  0  0  0  0  0  0  0  0  0  0  0
  145.1410  153.0760  133.3820 C   0  0  0  0  0  0  0  0  0  0  0  0
  145.3950  152.5790  132.2820 O   0  0  0  0  0  0  0  0  0  0  0  0
  144.0380  152.6440  134.0880 O   0  0  0  0  0  0  0  0  0  0  0  0
  142.8030  152.2820  133.5680 C   0  0  0  0  0  0  0  0  0  0  0  0
  142.9820  150.9910  132.7790 C   0  0  0  0  0  0  0  0  0  0  0  0
  142.4000  153.3830  132.5860 C   0  0  0  0  0  0  0  0  0  0  0  0
  141.6940  152.0980  134.5420 C   0  0  0  0  0  0  0  0  0  0  0  0
  142.5220  157.3000  135.1940 C   0  0  0  0  0  0  0  0  0  0  0  0
  142.5290  158.4480  134.4070 C   0  0  0  0  0  0  0  0  0  0  0  0
  141.6236  161.5750  134.3841 H   0  0  0  0  0  0  0  0  0  0  0  0
  142.5041  160.6693  133.1069 H   0  0  0  0  0  0  0  0  0  0  0  0
  140.7081  160.7046  133.1069 H   0  0  0  0  0  0  0  0  0  0  0  0
  139.8651  160.1654  135.6963 H   0  0  0  0  0  0  0  0  0  0  0  0
  139.8337  158.1204  137.1103 H   0  0  0  0  0  0  0  0  0  0  0  0
  141.0603  155.6984  137.6191 H   0  0  0  0  0  0  0  0  0  0  0  0
  145.2260  154.1120  137.5250 H   0  0  0  0  0  0  0  0  0  0  0  0
  144.8670  153.2000  135.9570 H   0  0  0  0  0  0  0  0  0  0  0  0
  146.0308  155.9841  133.2533 H   0  0  0  0  0  0  0  0  0  0  0  0
  145.9635  155.5877  135.1461 H   0  0  0  0  0  0  0  0  0  0  0  0
  147.5828  152.6865  134.0351 H   0  0  0  0  0  0  0  0  0  0  0  0
  148.1013  154.3082  133.5518 H   0  0  0  0  0  0  0  0  0  0  0  0
  148.3115  154.9037  135.9850 H   0  0  0  0  0  0  0  0  0  0  0  0
  143.0988  150.1483  133.4763 H   0  0  0  0  0  0  0  0  0  0  0  0
  142.0986  150.8229  132.1455 H   0  0  0  0  0  0  0  0  0  0  0  0
  143.8778  151.0696  132.1455 H   0  0  0  0  0  0  0  0  0  0  0  0
  142.0745  154.2723  133.1456 H   0  0  0  0  0  0  0  0  0  0  0  0
  143.2612  153.6430  131.9530 H   0  0  0  0  0  0  0  0  0  0  0  0
  141.5744  153.0256  131.9530 H   0  0  0  0  0  0  0  0  0  0  0  0
  142.0906  152.1638  135.5659 H   0  0  0  0  0  0  0  0  0  0  0  0
  140.9386  152.8831  134.3902 H   0  0  0  0  0  0  0  0  0  0  0  0
  141.2326  151.1110  134.3902 H   0  0  0  0  0  0  0  0  0  0  0  0
  143.2944  158.5602  133.6250 H   0  0  0  0  0  0  0  0  0  0  0  0
  1  2  1  0
  2  3  2  0
  3  4  1  0
  4  5  2  0
  5  6  1  0
  6  7  2  0
  7  8  1  0
  8  9  1  0
  8 10  2  0
  7 11  1  0
 11 12  1  0
 12 13  2  0
 12 14  1  0
 14 15  1  0
 15 16  1  0
 16 17  1  0
 17 18  2  0
 15 19  1  0
 19 20  2  0
 19 21  1  0
 21 22  1  0
 22 23  1  0
 22 24  1  0
 22 25  1  0
 11 26  1  0
 26 27  2  0
 27  2  1  0
 26  5  1  0
  1 28  1  0
  1 29  1  0
  1 30  1  0
  3 31  1  0
  4 32  1  0
  6 33  1  0
  9 34  1  0
  9 35  1  0
 14 36  1  0
 14 37  1  0
 16 38  1  0
 16 39  1  0
 17 40  1  0
 23 41  1  0
 23 42  1  0
 23 43  1  0
 24 44  1  0
 24 45  1  0
 24 46  1  0
 25 47  1  0
 25 48  1  0
 25 49  1  0
 27 50  1  0
M  END
>  <smiles>  (30) 
Cc1ccc2cc(C(N)=O)n(C(=O)CN(CC=O)C(=O)OC(C)(C)C)c2c1

>  <score_type>  (30) 
oracle

>  <origin>  (30) 
adg

>  <m_score__min__energy>  (30) 
-8.4399999999999995

>  <m_primary>  (30) 
energy

$$$$
32:0
     RDKit          3D

 43 44  0  0  1  0  0  0  0  0999 V2000
  139.9500  158.5840  135.3540 C   0  0  0  0  0  0  0  0  0  0  0  0
  140.6930  158.3940  134.2720 C   0  0  0  0  0  0  0  0  0  0  0  0
  140.3350  159.0150  132.9680 C   0  0  0  0  0  0  0  0  0  0  0  0
  140.8850  158.3120  131.8990 O   0  0  0  0  0  0  0  0  0  0  0  0
  141.9370  157.5480  134.2830 C   0  0  1  0  0  0  0  0  0  0  0  0
  141.7020  156.3410  133.4780 N   0  0  0  0  0  0  0  0  0  0  0  0
  141.3130  155.1130  134.1500 C   0  0  0  0  0  0  0  0  0  0  0  0
  141.2180  155.2290  135.3900 O   0  0  0  0  0  0  0  0  0  0  0  0
  141.0830  153.9260  133.3610 C   0  0  0  0  0  0  0  0  0  0  0  0
  139.8760  153.8000  132.9410 O   0  0  0  0  0  0  0  0  0  0  0  0
  141.9770  152.9180  132.9890 N   0  0  0  0  0  0  0  0  0  0  0  0
  141.8310  151.5990  132.8170 C   0  0  0  0  0  0  0  0  0  0  0  0
  140.6390  150.7850  132.6350 C   0  0  0  0  0  0  0  0  0  0  0  0
  139.4110  151.4310  132.2120 N   0  0  0  0  0  0  0  0  0  0  0  0
  140.5480  149.5520  132.8050 O   0  0  0  0  0  0  0  0  0  0  0  0
  143.0930  150.9940  132.6380 C   0  0  0  0  0  0  0  0  0  0  0  0
  144.0160  151.9910  132.7000 C   0  0  0  0  0  0  0  0  0  0  0  0
  145.3920  151.9160  132.5820 C   0  0  0  0  0  0  0  0  0  0  0  0
  146.1510  153.0610  132.6760 C   0  0  0  0  0  0  0  0  0  0  0  0
  145.4960  154.2540  132.8900 C   0  0  0  0  0  0  0  0  0  0  0  0
  146.3160  155.4910  132.9920 C   0  0  0  0  0  0  0  0  0  0  0  0
  144.1030  154.3050  133.0070 C   0  0  0  0  0  0  0  0  0  0  0  0
  143.3300  153.1560  132.9120 C   0  0  0  0  0  0  0  0  0  0  0  0
  143.0740  158.2660  133.6470 C   0  0  0  0  0  0  0  0  0  0  0  0
  143.6910  159.2130  134.2190 O   0  0  0  0  0  0  0  0  0  0  0  0
  143.5400  157.9410  132.3660 O   0  0  0  0  0  0  0  0  0  0  0  0
  140.2355  158.1141  136.3067 H   0  0  0  0  0  0  0  0  0  0  0  0
  139.0483  159.2115  135.2987 H   0  0  0  0  0  0  0  0  0  0  0  0
  139.2399  159.0230  132.8648 H   0  0  0  0  0  0  0  0  0  0  0  0
  140.7378  160.0385  132.9514 H   0  0  0  0  0  0  0  0  0  0  0  0
  141.7030  158.7380  131.5430 H   0  0  0  0  0  0  0  0  0  0  0  0
  142.1741  157.3095  135.3303 H   0  0  0  0  0  0  0  0  0  0  0  0
  141.8220  156.3950  132.4540 H   0  0  0  0  0  0  0  0  0  0  0  0
  138.8780  151.8850  132.9760 H   0  0  0  0  0  0  0  0  0  0  0  0
  139.1220  151.4170  131.2050 H   0  0  0  0  0  0  0  0  0  0  0  0
  143.2918  149.9238  132.4792 H   0  0  0  0  0  0  0  0  0  0  0  0
  145.8788  150.9441  132.4135 H   0  0  0  0  0  0  0  0  0  0  0  0
  147.2465  153.0243  132.5831 H   0  0  0  0  0  0  0  0  0  0  0  0
  146.4788  155.7366  134.0518 H   0  0  0  0  0  0  0  0  0  0  0  0
  147.2864  155.3293  132.4998 H   0  0  0  0  0  0  0  0  0  0  0  0
  145.7891  156.3218  132.4998 H   0  0  0  0  0  0  0  0  0  0  0  0
  143.6109  155.2739  133.1775 H   0  0  0  0  0  0  0  0  0  0  0  0
  142.9270  157.6770  131.5970 H   0  0  0  0  0  0  0  0  0  0  0  0
  1  2  2  0
  2  3  1  0
  3  4  1  0
  2  5  1  0
  5  6  1  0
  6  7  1  0
  7  8  2  0
  7  9  1  0
  9 10  2  0
  9 11  1  0
 11 12  1  0
 12 13  1  0
 13 14  1  0
 13 15  2  0
 12 16  2  0
 16 17  1  0
 17 18  2  0
 18 19  1  0
 19 20  2  0
 20 21  1  0
 20 22  1  0
 22 23  2  0
  5 24  1  0
 24 25  2  0
 24 26  1  0
 23 11  1  0
 23 17  1  0
  1 27  1  0
  1 28  1  0
  3 29  1  0
  3 30  1  0
  4 31  1  0
  5 32  1  1
  6 33  1  0
 14 34  1  0
 14 35  1  0
 16 36  1  0
 18 37  1  0
 19 38  1  0
 21 39  1  0
 21 40  1  0
 21 41  1  0
 22 42  1  0
 26 43  1  0
M  END
>  <smiles>  (31) 
C=C(CO)C(NC(=O)C(=O)n1c(C(N)=O)cc2ccc(C)cc21)C(=O)O

>  <score_type>  (31) 
oracle

>  <origin>  (31) 
adg

>  <m_score__min__energy>  (31) 
-7.9800000000000004

>  <m_primary>  (31) 
energy

$$$$
33:0
     RDKit          3D

 50 51  0  0  0  0  0  0  0  0999 V2000
  149.0120  161.2790  130.7470 C   0  0  0  0  0  0  0  0  0  0  0  0
  148.6800  160.0310  131.4870 C   0  0  0  0  0  0  0  0  0  0  0  0
  149.6050  159.0100  131.4980 C   0  0  0  0  0  0  0  0  0  0  0  0
  149.2980  157.8600  132.1820 C   0  0  0  0  0  0  0  0  0  0  0  0
  148.0920  157.7430  132.8370 C   0  0  0  0  0  0  0  0  0  0  0  0
  147.5780  156.7100  133.5680 C   0  0  0  0  0  0  0  0  0  0  0  0
  146.2960  157.0890  134.0310 C   0  0  0  0  0  0  0  0  0  0  0  0
  145.5460  156.1960  134.8590 C   0  0  0  0  0  0  0  0  0  0  0  0
  145.9970  155.2600  135.8030 N   0  0  0  0  0  0  0  0  0  0  0  0
  144.2620  156.2380  134.7260 O   0  0  0  0  0  0  0  0  0  0  0  0
  146.0410  158.3350  133.5760 N   0  0  0  0  0  0  0  0  0  0  0  0
  144.8910  159.1230  133.6140 C   0  0  0  0  0  0  0  0  0  0  0  0
  144.9330  160.2990  133.0900 O   0  0  0  0  0  0  0  0  0  0  0  0
  143.6250  158.8080  134.1580 N   0  0  0  0  0  0  0  0  0  0  0  0
  142.5520  159.7570  134.1640 C   0  0  0  0  0  0  0  0  0  0  0  0
  142.7170  160.8870  133.6880 O   0  0  0  0  0  0  0  0  0  0  0  0
  141.2510  159.3610  134.7470 C   0  0  0  0  0  0  0  0  0  0  0  0
  140.9840  159.7020  135.9290 O   0  0  0  0  0  0  0  0  0  0  0  0
  140.3250  158.6200  134.0000 N   0  0  0  0  0  0  0  0  0  0  0  0
  139.2410  157.8450  134.5770 C   0  0  0  0  0  0  0  0  0  0  0  0
  140.4330  158.6040  132.5360 C   0  0  0  0  0  0  0  0  0  0  0  0
  139.0940  158.3610  131.8710 C   0  0  0  0  0  0  0  0  0  0  0  0
  138.6710  159.5480  131.1520 N   0  0  0  0  0  0  0  0  0  0  0  0
  139.1270  160.7440  131.8150 C   0  0  0  0  0  0  0  0  0  0  0  0
  137.2220  159.6010  131.0970 C   0  0  0  0  0  0  0  0  0  0  0  0
  147.1440  158.7330  132.8510 C   0  0  0  0  0  0  0  0  0  0  0  0
  147.4610  159.8900  132.1580 C   0  0  0  0  0  0  0  0  0  0  0  0
  149.2263  162.0847  131.4645 H   0  0  0  0  0  0  0  0  0  0  0  0
  149.8955  161.1064  130.1148 H   0  0  0  0  0  0  0  0  0  0  0  0
  148.1595  161.5682  130.1148 H   0  0  0  0  0  0  0  0  0  0  0  0
  150.5654  159.1137  130.9719 H   0  0  0  0  0  0  0  0  0  0  0  0
  150.0180  157.0287  132.2071 H   0  0  0  0  0  0  0  0  0  0  0  0
  148.0754  155.7485  133.7632 H   0  0  0  0  0  0  0  0  0  0  0  0
  145.4700  155.1490  136.7150 H   0  0  0  0  0  0  0  0  0  0  0  0
  146.8500  154.6410  135.6630 H   0  0  0  0  0  0  0  0  0  0  0  0
  143.4390  157.9010  134.5590 H   0  0  0  0  0  0  0  0  0  0  0  0
  139.3025  157.8890  135.6744 H   0  0  0  0  0  0  0  0  0  0  0  0
  138.2773  158.2601  134.2468 H   0  0  0  0  0  0  0  0  0  0  0  0
  139.3220  156.7988  134.2468 H   0  0  0  0  0  0  0  0  0  0  0  0
  140.8264  159.5741  132.1983 H   0  0  0  0  0  0  0  0  0  0  0  0
  141.1068  157.7815  132.2539 H   0  0  0  0  0  0  0  0  0  0  0  0
  139.1851  157.5217  131.1658 H   0  0  0  0  0  0  0  0  0  0  0  0
  138.3471  158.1225  132.6426 H   0  0  0  0  0  0  0  0  0  0  0  0
  139.0731  160.6025  132.9045 H   0  0  0  0  0  0  0  0  0  0  0  0
  140.1672  160.9511  131.5232 H   0  0  0  0  0  0  0  0  0  0  0  0
  138.4887  161.5910  131.5232 H   0  0  0  0  0  0  0  0  0  0  0  0
  136.8166  159.6158  132.1195 H   0  0  0  0  0  0  0  0  0  0  0  0
  136.9083  160.5112  130.5649 H   0  0  0  0  0  0  0  0  0  0  0  0
  136.8427  158.7161  130.5649 H   0  0  0  0  0  0  0  0  0  0  0  0
  146.7366  160.7175  132.1350 H   0  0  0  0  0  0  0  0  0  0  0  0
  1  2  1  0
  2  3  2  0
  3  4  1  0
  4  5  2  0
  5  6  1  0
  6  7  2  0
  7  8  1  0
  8  9  1  0
  8 10  2  0
  7 11  1  0
 11 12  1  0
 12 13  2  0
 12 14  1  0
 14 15  1  0
 15 16  2  0
 15 17  1  0
 17 18  2  0
 17 19  1  0
 19 20  1  0
 19 21  1  0
 21 22  1  0
 22 23  1  0
 23 24  1  0
 23 25  1  0
 11 26  1  0
 26 27  2  0
 27  2  1  0
 26  5  1  0
  1 28  1  0
  1 29  1  0
  1 30  1  0
  3 31  1  0
  4 32  1  0
  6 33  1  0
  9 34  1  0
  9 35  1  0
 14 36  1  0
 20 37  1  0
 20 38  1  0
 20 39  1  0
 21 40  1  0
 21 41  1  0
 22 42  1  0
 22 43  1  0
 24 44  1  0
 24 45  1  0
 24 46  1  0
 25 47  1  0
 25 48  1  0
 25 49  1  0
 27 50  1  0
M  END
>  <smiles>  (32) 
Cc1ccc2cc(C(N)=O)n(C(=O)NC(=O)C(=O)N(C)CCN(C)C)c2c1

>  <score_type>  (32) 
oracle

>  <origin>  (32) 
adg

>  <m_score__min__energy>  (32) 
-8.5700000000000003

>  <m_primary>  (32) 
energy

$$$$
34:0
     RDKit          3D

 32 33  0  0  0  0  0  0  0  0999 V2000
  149.4610  154.7140  132.5490 N   0  0  0  0  0  0  0  0  0  0  0  0
  148.5370  154.2370  133.0630 C   0  0  0  0  0  0  0  0  0  0  0  0
  147.3760  153.6260  133.7380 C   0  0  0  0  0  0  0  0  0  0  0  0
  146.2160  154.0610  133.0090 O   0  0  0  0  0  0  0  0  0  0  0  0
  146.2550  155.4300  132.6270 C   0  0  0  0  0  0  0  0  0  0  0  0
  146.6440  155.6110  131.4550 O   0  0  0  0  0  0  0  0  0  0  0  0
  145.8590  156.4240  133.5910 C   0  0  0  0  0  0  0  0  0  0  0  0
  145.3280  155.9680  134.6540 O   0  0  0  0  0  0  0  0  0  0  0  0
  145.9720  157.8290  133.5030 N   0  0  0  0  0  0  0  0  0  0  0  0
  146.9380  158.6200  133.0380 C   0  0  0  0  0  0  0  0  0  0  0  0
  148.3420  158.3680  132.7660 C   0  0  0  0  0  0  0  0  0  0  0  0
  148.8580  157.4150  131.8600 N   0  0  0  0  0  0  0  0  0  0  0  0
  149.2250  159.0530  133.3980 O   0  0  0  0  0  0  0  0  0  0  0  0
  146.4730  159.9550  132.9810 C   0  0  0  0  0  0  0  0  0  0  0  0
  145.1900  159.9440  133.4350 C   0  0  0  0  0  0  0  0  0  0  0  0
  144.3020  160.9920  133.5760 C   0  0  0  0  0  0  0  0  0  0  0  0
  143.0350  160.7570  134.0620 C   0  0  0  0  0  0  0  0  0  0  0  0
  142.7020  159.4640  134.3910 C   0  0  0  0  0  0  0  0  0  0  0  0
  141.3250  159.1880  134.9230 C   0  0  0  0  0  0  0  0  0  0  0  0
  141.3140  157.9250  135.4950 F   0  0  0  0  0  0  0  0  0  0  0  0
  141.0410  160.0860  135.9240 F   0  0  0  0  0  0  0  0  0  0  0  0
  140.3950  159.2890  133.9030 F   0  0  0  0  0  0  0  0  0  0  0  0
  143.6160  158.4160  134.2410 C   0  0  0  0  0  0  0  0  0  0  0  0
  144.8970  158.6430  133.7510 C   0  0  0  0  0  0  0  0  0  0  0  0
  147.4535  152.5290  133.7127 H   0  0  0  0  0  0  0  0  0  0  0  0
  147.3221  153.9262  134.7949 H   0  0  0  0  0  0  0  0  0  0  0  0
  148.3870  156.4700  131.8290 H   0  0  0  0  0  0  0  0  0  0  0  0
  149.6560  157.5540  131.2230 H   0  0  0  0  0  0  0  0  0  0  0  0
  147.0393  160.8327  132.6362 H   0  0  0  0  0  0  0  0  0  0  0  0
  144.6060  162.0127  133.3007 H   0  0  0  0  0  0  0  0  0  0  0  0
  142.3124  161.5775  134.1831 H   0  0  0  0  0  0  0  0  0  0  0  0
  143.3159  157.3940  134.5156 H   0  0  0  0  0  0  0  0  0  0  0  0
  1  2  3  0
  2  3  1  0
  3  4  1  0
  4  5  1  0
  5  6  2  0
  5  7  1  0
  7  8  2  0
  7  9  1  0
  9 10  1  0
 10 11  1  0
 11 12  1  0
 11 13  2  0
 10 14  2  0
 14 15  1  0
 15 16  2  0
 16 17  1  0
 17 18  2  0
 18 19  1  0
 19 20  1  0
 19 21  1  0
 19 22  1  0
 18 23  1  0
 23 24  2  0
 24  9  1  0
 24 15  1  0
  3 25  1  0
  3 26  1  0
 12 27  1  0
 12 28  1  0
 14 29  1  0
 16 30  1  0
 17 31  1  0
 23 32  1  0
M  END
>  <smiles>  (33) 
N#CCOC(=O)C(=O)n1c(C(N)=O)cc2ccc(C(F)(F)F)cc21

>  <score_type>  (33) 
oracle

>  <origin>  (33) 
adg

>  <m_score__min__energy>  (33) 
-6.5700000000000003

>  <m_primary>  (33) 
energy

$$$$
35:0
     RDKit          3D

 51 52  0  0  0  0  0  0  0  0999 V2000
  140.5920  148.7610  131.7330 C   0  0  0  0  0  0  0  0  0  0  0  0
  140.3200  149.9980  132.5880 C   0  0  0  0  0  0  0  0  0  0  0  0
  141.4100  150.2190  133.4690 O   0  0  0  0  0  0  0  0  0  0  0  0
  142.5900  150.7340  132.9480 C   0  0  0  0  0  0  0  0  0  0  0  0
  143.3650  150.0010  132.2810 O   0  0  0  0  0  0  0  0  0  0  0  0
  142.8800  152.1640  133.2160 C   0  0  0  0  0  0  0  0  0  0  0  0
  142.4740  152.5630  134.6170 C   0  0  0  0  0  0  0  0  0  0  0  0
  142.1080  153.0380  132.2510 C   0  0  0  0  0  0  0  0  0  0  0  0
  144.3390  152.4580  133.0000 C   0  0  0  0  0  0  0  0  0  0  0  0
  144.9960  151.8490  132.1170 O   0  0  0  0  0  0  0  0  0  0  0  0
  144.9780  153.3980  133.7670 O   0  0  0  0  0  0  0  0  0  0  0  0
  145.0950  154.7260  133.4810 C   0  0  0  0  0  0  0  0  0  0  0  0
  143.9770  155.3530  133.3920 O   0  0  0  0  0  0  0  0  0  0  0  0
  146.2870  155.4570  133.2810 N   0  0  0  0  0  0  0  0  0  0  0  0
  147.5190  154.9840  133.0190 C   0  0  0  0  0  0  0  0  0  0  0  0
  148.0150  153.6400  132.8600 C   0  0  0  0  0  0  0  0  0  0  0  0
  147.2640  152.4760  132.5780 N   0  0  0  0  0  0  0  0  0  0  0  0
  149.2700  153.4350  132.9820 O   0  0  0  0  0  0  0  0  0  0  0  0
  148.3520  156.1000  132.9060 C   0  0  0  0  0  0  0  0  0  0  0  0
  147.6270  157.2310  133.0990 C   0  0  0  0  0  0  0  0  0  0  0  0
  148.0010  158.5680  133.0860 C   0  0  0  0  0  0  0  0  0  0  0  0
  147.0650  159.5490  133.3130 C   0  0  0  0  0  0  0  0  0  0  0  0
  145.7650  159.1650  133.5510 C   0  0  0  0  0  0  0  0  0  0  0  0
  144.7740  160.1670  133.7890 N   0  0  0  0  0  0  0  0  0  0  0  0
  143.3820  159.7580  133.6950 C   0  0  0  0  0  0  0  0  0  0  0  0
  145.0980  161.5210  134.1080 C   0  0  0  0  0  0  0  0  0  0  0  0
  145.4040  157.8150  133.5600 C   0  0  0  0  0  0  0  0  0  0  0  0
  146.3320  156.8230  133.3330 C   0  0  0  0  0  0  0  0  0  0  0  0
  140.7819  147.8975  132.3874 H   0  0  0  0  0  0  0  0  0  0  0  0
  139.7178  148.5547  131.0981 H   0  0  0  0  0  0  0  0  0  0  0  0
  141.4721  148.9404  131.0981 H   0  0  0  0  0  0  0  0  0  0  0  0
  140.1946  150.8739  131.9345 H   0  0  0  0  0  0  0  0  0  0  0  0
  139.4030  149.8409  133.1749 H   0  0  0  0  0  0  0  0  0  0  0  0
  143.0608  151.9863  135.3471 H   0  0  0  0  0  0  0  0  0  0  0  0
  142.6625  153.6371  134.7615 H   0  0  0  0  0  0  0  0  0  0  0  0
  141.4034  152.3559  134.7615 H   0  0  0  0  0  0  0  0  0  0  0  0
  141.4833  153.7453  132.8162 H   0  0  0  0  0  0  0  0  0  0  0  0
  142.8130  153.5965  131.6177 H   0  0  0  0  0  0  0  0  0  0  0  0
  141.4667  152.4073  131.6177 H   0  0  0  0  0  0  0  0  0  0  0  0
  146.8820  151.8850  133.3550 H   0  0  0  0  0  0  0  0  0  0  0  0
  147.1210  152.2340  131.5530 H   0  0  0  0  0  0  0  0  0  0  0  0
  149.4307  156.0670  132.6931 H   0  0  0  0  0  0  0  0  0  0  0  0
  149.0486  158.8430  132.8936 H   0  0  0  0  0  0  0  0  0  0  0  0
  147.3475  160.6121  133.3046 H   0  0  0  0  0  0  0  0  0  0  0  0
  142.9666  159.6359  134.7062 H   0  0  0  0  0  0  0  0  0  0  0  0
  142.8099  160.5260  133.1538 H   0  0  0  0  0  0  0  0  0  0  0  0
  143.3163  158.8026  133.1538 H   0  0  0  0  0  0  0  0  0  0  0  0
  145.1273  161.6433  135.2008 H   0  0  0  0  0  0  0  0  0  0  0  0
  146.0816  161.7722  133.6844 H   0  0  0  0  0  0  0  0  0  0  0  0
  144.3347  162.1902  133.6844 H   0  0  0  0  0  0  0  0  0  0  0  0
  144.3568  157.5389  133.7524 H   0  0  0  0  0  0  0  0  0  0  0  0
  1  2  1  0
  2  3  1  0
  3  4  1  0
  4  5  2  0
  4  6  1  0
  6  7  1  0
  6  8  1  0
  6  9  1  0
  9 10  2  0
  9 11  1  0
 11 12  1  0
 12 13  2  0
 12 14  1  0
 14 15  1  0
 15 16  1  0
 16 17  1  0
 16 18  2  0
 15 19  2  0
 19 20  1  0
 20 21  2  0
 21 22  1  0
 22 23  2  0
 23 24  1  0
 24 25  1  0
 24 26  1  0
 23 27  1  0
 27 28  2  0
 28 14  1  0
 28 20  1  0
  1 29  1  0
  1 30  1  0
  1 31  1  0
  2 32  1  0
  2 33  1  0
  7 34  1  0
  7 35  1  0
  7 36  1  0
  8 37  1  0
  8 38  1  0
  8 39  1  0
 17 40  1  0
 17 41  1  0
 19 42  1  0
 21 43  1  0
 22 44  1  0
 25 45  1  0
 25 46  1  0
 25 47  1  0
 26 48  1  0
 26 49  1  0
 26 50  1  0
 27 51  1  0
M  END
>  <smiles>  (34) 
CCOC(=O)C(C)(C)C(=O)OC(=O)n1c(C(N)=O)cc2ccc(N(C)C)cc21

>  <score_type>  (34) 
oracle

>  <origin>  (34) 
adg

>  <m_score__min__energy>  (34) 
-7.9500000000000002

>  <m_primary>  (34) 
energy

$$$$
36:0
     RDKit          3D

 42 44  0  0  0  0  0  0  0  0999 V2000
  141.1200  159.3100  134.5070 C   0  0  0  0  0  0  0  0  0  0  0  0
  142.5360  159.6070  134.1710 C   0  0  0  0  0  0  0  0  0  0  0  0
  142.9410  160.9150  134.0510 C   0  0  0  0  0  0  0  0  0  0  0  0
  144.2430  161.1720  133.7430 C   0  0  0  0  0  0  0  0  0  0  0  0
  145.1330  160.1280  133.5570 C   0  0  0  0  0  0  0  0  0  0  0  0
  146.4660  160.1080  133.2460 C   0  0  0  0  0  0  0  0  0  0  0  0
  146.9110  158.7920  133.1690 C   0  0  0  0  0  0  0  0  0  0  0  0
  148.2730  158.4440  132.8590 C   0  0  0  0  0  0  0  0  0  0  0  0
  148.6860  157.0630  132.9870 N   0  0  0  0  0  0  0  0  0  0  0  0
  149.1760  159.2190  132.4770 O   0  0  0  0  0  0  0  0  0  0  0  0
  145.8480  158.0170  133.4320 N   0  0  0  0  0  0  0  0  0  0  0  0
  145.7880  156.6070  133.4730 C   0  0  0  0  0  0  0  0  0  0  0  0
  144.9480  155.9750  132.7440 O   0  0  0  0  0  0  0  0  0  0  0  0
  146.5830  155.7950  134.2620 O   0  0  0  0  0  0  0  0  0  0  0  0
  146.7470  154.4280  133.9420 C   0  0  0  0  0  0  0  0  0  0  0  0
  147.3990  154.2630  132.6890 O   0  0  0  0  0  0  0  0  0  0  0  0
  148.7220  153.8900  132.5890 C   0  0  0  0  0  0  0  0  0  0  0  0
  149.5890  154.7930  132.5980 O   0  0  0  0  0  0  0  0  0  0  0  0
  149.1340  152.5050  132.4760 C   0  0  0  0  0  0  0  0  0  0  0  0
  150.4250  152.1130  132.5560 N   0  0  0  0  0  0  0  0  0  0  0  0
  150.4640  150.7760  132.4120 C   0  0  0  0  0  0  0  0  0  0  0  0
  149.1570  150.3080  132.2340 C   0  0  0  0  0  0  0  0  0  0  0  0
  148.3830  151.4140  132.2810 N   0  0  0  0  0  0  0  0  0  0  0  0
  146.9520  151.3750  132.1400 C   0  0  0  0  0  0  0  0  0  0  0  0
  144.7580  158.8070  133.6700 C   0  0  0  0  0  0  0  0  0  0  0  0
  143.4370  158.5660  133.9820 C   0  0  0  0  0  0  0  0  0  0  0  0
  141.0001  159.2848  135.6002 H   0  0  0  0  0  0  0  0  0  0  0  0
  140.4713  160.0916  134.0848 H   0  0  0  0  0  0  0  0  0  0  0  0
  140.8400  158.3336  134.0848 H   0  0  0  0  0  0  0  0  0  0  0  0
  142.2274  161.7386  134.2008 H   0  0  0  0  0  0  0  0  0  0  0  0
  144.5879  162.2116  133.6418 H   0  0  0  0  0  0  0  0  0  0  0  0
  147.0910  160.9981  133.0817 H   0  0  0  0  0  0  0  0  0  0  0  0
  149.6280  156.8420  133.3840 H   0  0  0  0  0  0  0  0  0  0  0  0
  148.0180  156.3170  132.6740 H   0  0  0  0  0  0  0  0  0  0  0  0
  147.3507  153.9469  134.7257 H   0  0  0  0  0  0  0  0  0  0  0  0
  145.7510  153.9656  133.8775 H   0  0  0  0  0  0  0  0  0  0  0  0
  151.3714  150.1545  132.4310 H   0  0  0  0  0  0  0  0  0  0  0  0
  148.8314  149.2675  132.0878 H   0  0  0  0  0  0  0  0  0  0  0  0
  146.4856  151.3623  133.1362 H   0  0  0  0  0  0  0  0  0  0  0  0
  146.6136  152.2643  131.5880 H   0  0  0  0  0  0  0  0  0  0  0  0
  146.6625  150.4686  131.5880 H   0  0  0  0  0  0  0  0  0  0  0  0
  143.0887  157.5275  134.0835 H   0  0  0  0  0  0  0  0  0  0  0  0
  1  2  1  0
  2  3  2  0
  3  4  1  0
  4  5  2  0
  5  6  1  0
  6  7  2  0
  7  8  1  0
  8  9  1  0
  8 10  2  0
  7 11  1  0
 11 12  1  0
 12 13  2  0
 12 14  1  0
 14 15  1  0
 15 16  1  0
 16 17  1  0
 17 18  2  0
 17 19  1  0
 19 20  2  0
 20 21  1  0
 21 22  2  0
 22 23  1  0
 23 24  1  0
 11 25  1  0
 25 26  2  0
 26  2  1  0
 25  5  1  0
 23 19  1  0
  1 27  1  0
  1 28  1  0
  1 29  1  0
  3 30  1  0
  4 31  1  0
  6 32  1  0
  9 33  1  0
  9 34  1  0
 15 35  1  0
 15 36  1  0
 21 37  1  0
 22 38  1  0
 24 39  1  0
 24 40  1  0
 24 41  1  0
 26 42  1  0
M  END
>  <smiles>  (35) 
Cc1ccc2cc(C(N)=O)n(C(=O)OCOC(=O)c3nccn3C)c2c1

>  <score_type>  (35) 
oracle

>  <origin>  (35) 
adg

>  <m_score__min__energy>  (35) 
-7.1299999999999999

>  <m_primary>  (35) 
energy

$$$$
37:0
     RDKit          3D

 38 40  0  0  0  0  0  0  0  0999 V2000
  138.7540  148.4400  130.9880 C   0  0  0  0  0  0  0  0  0  0  0  0
  139.6320  149.2460  131.8870 C   0  0  0  0  0  0  0  0  0  0  0  0
  140.0730  148.8680  133.1150 N   0  0  0  0  0  0  0  0  0  0  0  0
  140.7970  149.8480  133.5460 O   0  0  0  0  0  0  0  0  0  0  0  0
  140.8560  150.8270  132.6870 C   0  0  0  0  0  0  0  0  0  0  0  0
  141.5980  152.0770  132.8810 C   0  0  0  0  0  0  0  0  0  0  0  0
  140.9340  153.2380  133.1890 C   0  0  0  0  0  0  0  0  0  0  0  0
  141.6440  154.4050  133.3680 C   0  0  0  0  0  0  0  0  0  0  0  0
  143.0190  154.3830  133.2350 C   0  0  0  0  0  0  0  0  0  0  0  0
  143.9630  155.3730  133.3560 C   0  0  0  0  0  0  0  0  0  0  0  0
  145.2370  154.8340  133.1220 C   0  0  0  0  0  0  0  0  0  0  0  0
  146.4360  155.6390  133.1810 C   0  0  0  0  0  0  0  0  0  0  0  0
  147.4620  155.4510  132.1790 N   0  0  0  0  0  0  0  0  0  0  0  0
  146.6980  156.5150  134.0340 O   0  0  0  0  0  0  0  0  0  0  0  0
  145.0580  153.5290  132.8640 N   0  0  0  0  0  0  0  0  0  0  0  0
  146.0770  152.5860  132.5700 C   0  0  0  0  0  0  0  0  0  0  0  0
  145.9460  151.5580  131.8980 O   0  0  0  0  0  0  0  0  0  0  0  0
  147.3740  152.8130  133.0770 O   0  0  0  0  0  0  0  0  0  0  0  0
  148.4030  151.8850  132.9520 C   0  0  0  0  0  0  0  0  0  0  0  0
  149.7240  152.4620  132.4940 C   0  0  0  0  0  0  0  0  0  0  0  0
  149.3990  153.6690  131.8540 O   0  0  0  0  0  0  0  0  0  0  0  0
  143.7290  153.2390  132.9270 C   0  0  0  0  0  0  0  0  0  0  0  0
  142.9790  152.0880  132.7540 C   0  0  0  0  0  0  0  0  0  0  0  0
  140.1310  150.4680  131.6390 N   0  0  0  0  0  0  0  0  0  0  0  0
  138.0783  147.8197  131.5952 H   0  0  0  0  0  0  0  0  0  0  0  0
  138.1610  149.1148  130.3532 H   0  0  0  0  0  0  0  0  0  0  0  0
  139.3758  147.7916  130.3532 H   0  0  0  0  0  0  0  0  0  0  0  0
  139.8389  153.2367  133.2926 H   0  0  0  0  0  0  0  0  0  0  0  0
  141.1229  155.3421  133.6136 H   0  0  0  0  0  0  0  0  0  0  0  0
  143.7529  156.4251  133.5987 H   0  0  0  0  0  0  0  0  0  0  0  0
  148.0990  156.2150  131.8890 H   0  0  0  0  0  0  0  0  0  0  0  0
  147.5560  154.5020  131.7350 H   0  0  0  0  0  0  0  0  0  0  0  0
  148.5579  151.4113  133.9326 H   0  0  0  0  0  0  0  0  0  0  0  0
  148.0877  151.1754  132.1728 H   0  0  0  0  0  0  0  0  0  0  0  0
  150.3827  152.6477  133.3552 H   0  0  0  0  0  0  0  0  0  0  0  0
  150.2618  151.7746  131.8245 H   0  0  0  0  0  0  0  0  0  0  0  0
  148.5000  153.5420  131.4630 H   0  0  0  0  0  0  0  0  0  0  0  0
  143.4967  151.1494  132.5072 H   0  0  0  0  0  0  0  0  0  0  0  0
  1  2  1  0
  2  3  2  0
  3  4  1  0
  4  5  1  0
  5  6  1  0
  6  7  2  0
  7  8  1  0
  8  9  2  0
  9 10  1  0
 10 11  2  0
 11 12  1  0
 12 13  1  0
 12 14  2  0
 11 15  1  0
 15 16  1  0
 16 17  2  0
 16 18  1  0
 18 19  1  0
 19 20  1  0
 20 21  1  0
 15 22  1  0
 22 23  2  0
  5 24  2  0
 24  2  1  0
 23  6  1  0
 22  9  1  0
  1 25  1  0
  1 26  1  0
  1 27  1  0
  7 28  1  0
  8 29  1  0
 10 30  1  0
 13 31  1  0
 13 32  1  0
 19 33  1  0
 19 34  1  0
 20 35  1  0
 20 36  1  0
 21 37  1  0
 23 38  1  0
M  END
>  <smiles>  (36) 
Cc1noc(-c2ccc3cc(C(N)=O)n(C(=O)OCCO)c3c2)n1

>  <score_type>  (36) 
oracle

>  <origin>  (36) 
adg

>  <m_score__min__energy>  (36) 
-7.0800000000000001

>  <m_primary>  (36) 
energy

$$$$
38:0
     RDKit          3D

 41 42  0  0  1  0  0  0  0  0999 V2000
  141.1300  159.2210  133.9920 C   0  0  0  0  0  0  0  0  0  0  0  0
  142.5850  159.5540  133.8480 C   0  0  0  0  0  0  0  0  0  0  0  0
  142.9630  160.8720  133.8750 C   0  0  0  0  0  0  0  0  0  0  0  0
  144.2930  161.1600  133.7420 C   0  0  0  0  0  0  0  0  0  0  0  0
  145.2190  160.1420  133.5870 C   0  0  0  0  0  0  0  0  0  0  0  0
  146.5630  160.2090  133.4410 C   0  0  0  0  0  0  0  0  0  0  0  0
  147.0190  158.8800  133.3200 C   0  0  0  0  0  0  0  0  0  0  0  0
  148.4360  158.6550  133.0780 C   0  0  0  0  0  0  0  0  0  0  0  0
  149.0300  157.4780  132.5920 N   0  0  0  0  0  0  0  0  0  0  0  0
  149.2440  159.6240  133.3160 O   0  0  0  0  0  0  0  0  0  0  0  0
  145.9940  158.0340  133.3950 N   0  0  0  0  0  0  0  0  0  0  0  0
  145.9180  156.6320  133.5210 C   0  0  0  0  0  0  0  0  0  0  0  0
  145.2490  156.2000  134.5260 O   0  0  0  0  0  0  0  0  0  0  0  0
  146.4960  155.6160  132.6890 C   0  0  0  0  0  0  0  0  0  0  0  0
  146.9990  155.8660  131.5260 O   0  0  0  0  0  0  0  0  0  0  0  0
  146.5930  154.2290  133.0170 N   0  0  0  0  0  0  0  0  0  0  0  0
  145.3790  153.4590  132.6910 C   0  0  0  0  0  0  0  0  0  0  0  0
  147.6650  153.5260  133.6050 C   0  0  2  0  0  0  0  0  0  0  0  0
  147.9570  154.0150  135.0230 C   0  0  0  0  0  0  0  0  0  0  0  0
  148.9680  153.7800  132.8650 C   0  0  0  0  0  0  0  0  0  0  0  0
  149.7170  152.8060  132.5460 O   0  0  0  0  0  0  0  0  0  0  0  0
  149.3760  155.0430  132.5220 O   0  0  0  0  0  0  0  0  0  0  0  0
  144.8800  158.8150  133.5560 C   0  0  0  0  0  0  0  0  0  0  0  0
  143.5240  158.5370  133.6910 C   0  0  0  0  0  0  0  0  0  0  0  0
  140.8713  159.1618  135.0595 H   0  0  0  0  0  0  0  0  0  0  0  0
  140.5253  160.0040  133.5111 H   0  0  0  0  0  0  0  0  0  0  0  0
  140.9261  158.2529  133.5111 H   0  0  0  0  0  0  0  0  0  0  0  0
  142.2192  161.6727  133.9998 H   0  0  0  0  0  0  0  0  0  0  0  0
  144.6296  162.2071  133.7582 H   0  0  0  0  0  0  0  0  0  0  0  0
  147.1784  161.1205  133.4207 H   0  0  0  0  0  0  0  0  0  0  0  0
  148.5450  156.9580  131.8230 H   0  0  0  0  0  0  0  0  0  0  0  0
  149.9440  157.1190  132.9870 H   0  0  0  0  0  0  0  0  0  0  0  0
  144.8833  153.1446  133.6213 H   0  0  0  0  0  0  0  0  0  0  0  0
  144.6928  154.0873  132.1042 H   0  0  0  0  0  0  0  0  0  0  0  0
  145.6549  152.5704  132.1042 H   0  0  0  0  0  0  0  0  0  0  0  0
  147.3562  152.4705  133.5791 H   0  0  0  0  0  0  0  0  0  0  0  0
  147.5337  153.3061  135.7498 H   0  0  0  0  0  0  0  0  0  0  0  0
  149.0449  154.0850  135.1700 H   0  0  0  0  0  0  0  0  0  0  0  0
  147.5026  155.0059  135.1700 H   0  0  0  0  0  0  0  0  0  0  0  0
  148.9930  155.5730  131.7520 H   0  0  0  0  0  0  0  0  0  0  0  0
  143.1853  157.4906  133.6734 H   0  0  0  0  0  0  0  0  0  0  0  0
  1  2  1  0
  2  3  2  0
  3  4  1  0
  4  5  2  0
  5  6  1  0
  6  7  2  0
  7  8  1  0
  8  9  1  0
  8 10  2  0
  7 11  1  0
 11 12  1  0
 12 13  2  0
 12 14  1  0
 14 15  2  0
 14 16  1  0
 16 17  1  0
 16 18  1  0
 18 19  1  0
 18 20  1  0
 20 21  2  0
 20 22  1  0
 11 23  1  0
 23 24  2  0
 24  2  1  0
 23  5  1  0
  1 25  1  0
  1 26  1  0
  1 27  1  0
  3 28  1  0
  4 29  1  0
  6 30  1  0
  9 31  1  0
  9 32  1  0
 17 33  1  0
 17 34  1  0
 17 35  1  0
 18 36  1  1
 19 37  1  0
 19 38  1  0
 19 39  1  0
 22 40  1  0
 24 41  1  0
M  END
>  <smiles>  (37) 
Cc1ccc2cc(C(N)=O)n(C(=O)C(=O)N(C)C(C)C(=O)O)c2c1

>  <score_type>  (37) 
oracle

>  <origin>  (37) 
adg

>  <m_score__min__energy>  (37) 
-6.6500000000000004

>  <m_primary>  (37) 
energy

$$$$
39:0
     RDKit          3D

 40 41  0  0  0  0  0  0  0  0999 V2000
  143.2230  155.1040  133.1980 C   0  0  0  0  0  0  0  0  0  0  0  0
  144.2390  154.1000  132.7220 N   0  0  0  0  0  0  0  0  0  0  0  0
  144.3490  154.4650  131.3070 C   0  0  0  0  0  0  0  0  0  0  0  0
  143.7340  152.7880  132.9150 C   0  0  0  0  0  0  0  0  0  0  0  0
  144.5780  151.6380  132.5880 C   0  0  0  0  0  0  0  0  0  0  0  0
  143.9520  150.5650  132.2420 O   0  0  0  0  0  0  0  0  0  0  0  0
  145.9430  151.5410  132.5960 O   0  0  0  0  0  0  0  0  0  0  0  0
  145.4300  154.4310  133.3640 C   0  0  0  0  0  0  0  0  0  0  0  0
  145.7790  153.5550  134.2580 O   0  0  0  0  0  0  0  0  0  0  0  0
  146.3280  155.5040  133.2510 N   0  0  0  0  0  0  0  0  0  0  0  0
  147.6370  155.3360  132.9290 C   0  0  0  0  0  0  0  0  0  0  0  0
  148.4720  154.1810  132.7030 C   0  0  0  0  0  0  0  0  0  0  0  0
  147.9430  152.8330  132.9450 N   0  0  0  0  0  0  0  0  0  0  0  0
  149.6570  154.1450  132.3080 O   0  0  0  0  0  0  0  0  0  0  0  0
  148.2070  156.6290  132.8650 C   0  0  0  0  0  0  0  0  0  0  0  0
  147.2690  157.5520  133.1420 C   0  0  0  0  0  0  0  0  0  0  0  0
  147.3440  158.9250  133.1990 C   0  0  0  0  0  0  0  0  0  0  0  0
  146.2380  159.6800  133.5020 C   0  0  0  0  0  0  0  0  0  0  0  0
  145.0640  159.0090  133.7440 C   0  0  0  0  0  0  0  0  0  0  0  0
  143.8640  159.8230  134.0730 C   0  0  0  0  0  0  0  0  0  0  0  0
  144.2670  161.1110  134.3150 F   0  0  0  0  0  0  0  0  0  0  0  0
  143.0090  159.7220  132.9870 F   0  0  0  0  0  0  0  0  0  0  0  0
  143.2870  159.3390  135.2100 F   0  0  0  0  0  0  0  0  0  0  0  0
  145.0070  157.6220  133.6830 C   0  0  0  0  0  0  0  0  0  0  0  0
  146.0920  156.8470  133.3830 C   0  0  0  0  0  0  0  0  0  0  0  0
  143.2088  155.1180  134.2978 H   0  0  0  0  0  0  0  0  0  0  0  0
  143.4903  156.1026  132.8220 H   0  0  0  0  0  0  0  0  0  0  0  0
  142.2277  154.8249  132.8220 H   0  0  0  0  0  0  0  0  0  0  0  0
  144.6655  155.5151  131.2227 H   0  0  0  0  0  0  0  0  0  0  0  0
  145.0920  153.8178  130.8181 H   0  0  0  0  0  0  0  0  0  0  0  0
  143.3721  154.3361  130.8181 H   0  0  0  0  0  0  0  0  0  0  0  0
  143.4702  152.6995  133.9792 H   0  0  0  0  0  0  0  0  0  0  0  0
  142.9089  152.7185  132.1908 H   0  0  0  0  0  0  0  0  0  0  0  0
  146.4770  151.6260  133.4520 H   0  0  0  0  0  0  0  0  0  0  0  0
  147.3730  152.6610  133.8200 H   0  0  0  0  0  0  0  0  0  0  0  0
  148.1260  152.0700  132.2730 H   0  0  0  0  0  0  0  0  0  0  0  0
  149.2582  156.8466  132.6250 H   0  0  0  0  0  0  0  0  0  0  0  0
  148.3034  159.4245  132.9990 H   0  0  0  0  0  0  0  0  0  0  0  0
  146.2899  160.7778  133.5491 H   0  0  0  0  0  0  0  0  0  0  0  0
  144.0463  157.1259  133.8851 H   0  0  0  0  0  0  0  0  0  0  0  0
  1  2  1  0
  2  3  1  0
  2  4  1  0
  4  5  1  0
  5  6  2  0
  5  7  1  0
  2  8  1  0
  8  9  2  0
  8 10  1  0
 10 11  1  0
 11 12  1  0
 12 13  1  0
 12 14  2  0
 11 15  2  0
 15 16  1  0
 16 17  2  0
 17 18  1  0
 18 19  2  0
 19 20  1  0
 20 21  1  0
 20 22  1  0
 20 23  1  0
 19 24  1  0
 24 25  2  0
 25 10  1  0
 25 16  1  0
  1 26  1  0
  1 27  1  0
  1 28  1  0
  3 29  1  0
  3 30  1  0
  3 31  1  0
  4 32  1  0
  4 33  1  0
  7 34  1  0
 13 35  1  0
 13 36  1  0
 15 37  1  0
 17 38  1  0
 18 39  1  0
 24 40  1  0
M  CHG  1   2   1
M  END
>  <smiles>  (38) 
C[N+](C)(CC(=O)O)C(=O)n1c(C(N)=O)cc2ccc(C(F)(F)F)cc21

>  <score_type>  (38) 
oracle

>  <origin>  (38) 
adg

>  <m_score__min__energy>  (38) 
-5.9100000000000001

>  <m_primary>  (38) 
energy

$$$$
40:0
     RDKit          3D

 49 50  0  0  0  0  0  0  0  0999 V2000
  140.2200  147.8150  130.7120 C   0  0  0  0  0  0  0  0  0  0  0  0
  139.9670  149.2570  130.6920 N   0  0  0  0  0  0  0  0  0  0  0  0
  138.5850  149.4550  131.0910 C   0  0  0  0  0  0  0  0  0  0  0  0
  140.8570  149.8840  131.6550 C   0  0  0  0  0  0  0  0  0  0  0  0
  140.2730  151.1650  132.1960 C   0  0  0  0  0  0  0  0  0  0  0  0
  141.2550  152.2170  132.3120 N   0  0  0  0  0  0  0  0  0  0  0  0
  141.4500  153.0120  133.4690 C   0  0  0  0  0  0  0  0  0  0  0  0
  142.1340  152.5360  134.5660 C   0  0  0  0  0  0  0  0  0  0  0  0
  142.2870  153.3400  135.6770 C   0  0  0  0  0  0  0  0  0  0  0  0
  141.7520  154.6070  135.6680 C   0  0  0  0  0  0  0  0  0  0  0  0
  141.7590  155.5930  136.6240 C   0  0  0  0  0  0  0  0  0  0  0  0
  141.0700  156.7240  136.1400 C   0  0  0  0  0  0  0  0  0  0  0  0
  140.9310  157.9020  136.9470 C   0  0  0  0  0  0  0  0  0  0  0  0
  139.8670  158.8150  137.0100 N   0  0  0  0  0  0  0  0  0  0  0  0
  141.9120  158.1850  137.7350 O   0  0  0  0  0  0  0  0  0  0  0  0
  140.6610  156.4000  134.9020 N   0  0  0  0  0  0  0  0  0  0  0  0
  139.9250  157.2430  134.0380 C   0  0  0  0  0  0  0  0  0  0  0  0
  138.7020  157.5290  134.1980 O   0  0  0  0  0  0  0  0  0  0  0  0
  140.5070  157.8880  132.8430 C   0  0  0  0  0  0  0  0  0  0  0  0
  141.7370  158.9190  133.0920 P   0  0  0  0  0  5  0  0  0  0  0  0
  143.1900  157.9290  133.5990 C   0  0  0  0  0  0  0  0  0  0  0  0
  141.3710  160.0620  134.4210 C   0  0  0  0  0  0  0  0  0  0  0  0
  141.0570  155.1330  134.5940 C   0  0  0  0  0  0  0  0  0  0  0  0
  140.9260  154.2990  133.5040 C   0  0  0  0  0  0  0  0  0  0  0  0
  140.2809  147.4678  131.7540 H   0  0  0  0  0  0  0  0  0  0  0  0
  139.4000  147.2917  130.1985 H   0  0  0  0  0  0  0  0  0  0  0  0
  141.1692  147.6021  130.1985 H   0  0  0  0  0  0  0  0  0  0  0  0
  138.5181  149.4646  132.1889 H   0  0  0  0  0  0  0  0  0  0  0  0
  138.2223  150.4143  130.6932 H   0  0  0  0  0  0  0  0  0  0  0  0
  137.9676  148.6361  130.6932 H   0  0  0  0  0  0  0  0  0  0  0  0
  141.0272  149.1883  132.4899 H   0  0  0  0  0  0  0  0  0  0  0  0
  141.8021  150.1239  131.1458 H   0  0  0  0  0  0  0  0  0  0  0  0
  139.4742  151.5017  131.5188 H   0  0  0  0  0  0  0  0  0  0  0  0
  139.8879  150.9558  133.2049 H   0  0  0  0  0  0  0  0  0  0  0  0
  141.8540  152.3840  131.4580 H   0  0  0  0  0  0  0  0  0  0  0  0
  142.5560  151.5202  134.5563 H   0  0  0  0  0  0  0  0  0  0  0  0
  142.8306  152.9718  136.5596 H   0  0  0  0  0  0  0  0  0  0  0  0
  142.2298  155.5127  137.6149 H   0  0  0  0  0  0  0  0  0  0  0  0
  139.8200  159.6750  136.3900 H   0  0  0  0  0  0  0  0  0  0  0  0
  139.1040  158.6100  137.7210 H   0  0  0  0  0  0  0  0  0  0  0  0
  140.1254  157.6798  131.8325 H   0  0  0  0  0  0  0  0  0  0  0  0
  142.0270  159.5600  131.8620 H   0  0  0  0  0  0  0  0  0  0  0  0
  143.2437  157.8924  134.6971 H   0  0  0  0  0  0  0  0  0  0  0  0
  143.0942  156.9075  133.2023 H   0  0  0  0  0  0  0  0  0  0  0  0
  144.1056  158.3920  133.2023 H   0  0  0  0  0  0  0  0  0  0  0  0
  141.5308  159.5630  135.3882 H   0  0  0  0  0  0  0  0  0  0  0  0
  142.0341  160.9364  134.3456 H   0  0  0  0  0  0  0  0  0  0  0  0
  140.3233  160.3887  134.3456 H   0  0  0  0  0  0  0  0  0  0  0  0
  140.3822  154.6688  132.6222 H   0  0  0  0  0  0  0  0  0  0  0  0
  1  2  1  0
  2  3  1  0
  2  4  1  0
  4  5  1  0
  5  6  1  0
  6  7  1  0
  7  8  2  0
  8  9  1  0
  9 10  2  0
 10 11  1  0
 11 12  2  0
 12 13  1  0
 13 14  1  0
 13 15  2  0
 12 16  1  0
 16 17  1  0
 17 18  2  0
 17 19  1  0
 19 20  2  0
 20 21  1  0
 20 22  1  0
 16 23  1  0
 23 24  2  0
 24  7  1  0
 23 10  1  0
  1 25  1  0
  1 26  1  0
  1 27  1  0
  3 28  1  0
  3 29  1  0
  3 30  1  0
  4 31  1  0
  4 32  1  0
  5 33  1  0
  5 34  1  0
  6 35  1  0
  8 36  1  0
  9 37  1  0
 11 38  1  0
 14 39  1  0
 14 40  1  0
 19 41  1  0
 20 42  1  0
 21 43  1  0
 21 44  1  0
 21 45  1  0
 22 46  1  0
 22 47  1  0
 22 48  1  0
 24 49  1  0
M  END
>  <smiles>  (39) 
CN(C)CCNc1ccc2cc(C(N)=O)n(C(=O)C=[PH](C)C)c2c1

>  <score_type>  (39) 
oracle

>  <origin>  (39) 
adg

>  <m_score__min__energy>  (39) 
-8.5500000000000007

>  <m_primary>  (39) 
energy

$$$$
41:0
     RDKit          3D

 53 54  0  0  0  0  0  0  0  0999 V2000
  140.6830  153.6320  133.3600 C   0  0  0  0  0  0  0  0  0  0  0  0
  141.0750  155.0150  133.5890 N   0  0  0  0  0  0  0  0  0  0  0  0
  142.4010  155.3460  134.1280 C   0  0  0  0  0  0  0  0  0  0  0  0
  142.2720  156.3220  135.2390 C   0  0  0  0  0  0  0  0  0  0  0  0
  142.1690  155.7600  136.3860 O   0  0  0  0  0  0  0  0  0  0  0  0
  142.2560  157.7220  135.1160 N   0  0  0  0  0  0  0  0  0  0  0  0
  141.2810  158.5370  135.5580 C   0  0  0  0  0  0  0  0  0  0  0  0
  140.0360  158.2820  136.2470 C   0  0  0  0  0  0  0  0  0  0  0  0
  138.8080  158.1300  135.4880 N   0  0  0  0  0  0  0  0  0  0  0  0
  139.8720  158.1680  137.4790 O   0  0  0  0  0  0  0  0  0  0  0  0
  141.6690  159.8490  135.2270 C   0  0  0  0  0  0  0  0  0  0  0  0
  142.8610  159.8230  134.5940 C   0  0  0  0  0  0  0  0  0  0  0  0
  143.6340  160.8390  134.0850 C   0  0  0  0  0  0  0  0  0  0  0  0
  144.8300  160.5500  133.4740 C   0  0  0  0  0  0  0  0  0  0  0  0
  145.2330  159.2390  133.3840 C   0  0  0  0  0  0  0  0  0  0  0  0
  146.5270  158.9060  132.7260 C   0  0  0  0  0  0  0  0  0  0  0  0
  147.0200  159.9800  132.0130 F   0  0  0  0  0  0  0  0  0  0  0  0
  147.4910  158.5780  133.6880 F   0  0  0  0  0  0  0  0  0  0  0  0
  144.4290  158.2290  133.9090 C   0  0  0  0  0  0  0  0  0  0  0  0
  143.2270  158.4810  134.5260 C   0  0  0  0  0  0  0  0  0  0  0  0
  140.1210  156.0180  133.2650 C   0  0  0  0  0  0  0  0  0  0  0  0
  138.9360  155.8090  133.5760 O   0  0  0  0  0  0  0  0  0  0  0  0
  140.6020  157.2490  132.5780 C   0  0  0  0  0  0  0  0  0  0  0  0
  139.9320  158.4020  133.0680 O   0  0  0  0  0  0  0  0  0  0  0  0
  138.6720  158.6960  132.5680 C   0  0  0  0  0  0  0  0  0  0  0  0
  137.6100  158.1930  133.0650 O   0  0  0  0  0  0  0  0  0  0  0  0
  138.5790  159.6190  131.4290 C   0  0  0  0  0  0  0  0  0  0  0  0
  139.1190  160.9940  131.7450 C   0  0  0  0  0  0  0  0  0  0  0  0
  137.1000  159.7910  131.0940 C   0  0  0  0  0  0  0  0  0  0  0  0
  139.2570  159.0930  130.1920 C   0  0  0  0  0  0  0  0  0  0  0  0
  140.5398  153.1267  134.3265 H   0  0  0  0  0  0  0  0  0  0  0  0
  139.7424  153.6070  132.7902 H   0  0  0  0  0  0  0  0  0  0  0  0
  141.4706  153.1172  132.7902 H   0  0  0  0  0  0  0  0  0  0  0  0
  142.8803  154.4296  134.5028 H   0  0  0  0  0  0  0  0  0  0  0  0
  143.0135  155.7894  133.3291 H   0  0  0  0  0  0  0  0  0  0  0  0
  137.9000  158.4970  135.8460 H   0  0  0  0  0  0  0  0  0  0  0  0
  138.8310  157.6420  134.5620 H   0  0  0  0  0  0  0  0  0  0  0  0
  141.0894  160.7569  135.4501 H   0  0  0  0  0  0  0  0  0  0  0  0
  143.2954  161.8824  134.1668 H   0  0  0  0  0  0  0  0  0  0  0  0
  145.4558  161.3558  133.0629 H   0  0  0  0  0  0  0  0  0  0  0  0
  146.3323  158.0595  132.0511 H   0  0  0  0  0  0  0  0  0  0  0  0
  144.7706  157.1867  133.8261 H   0  0  0  0  0  0  0  0  0  0  0  0
  141.6824  157.3595  132.7531 H   0  0  0  0  0  0  0  0  0  0  0  0
  140.3929  157.1536  131.5023 H   0  0  0  0  0  0  0  0  0  0  0  0
  139.1708  161.1258  132.8358 H   0  0  0  0  0  0  0  0  0  0  0  0
  140.1257  161.1004  131.3146 H   0  0  0  0  0  0  0  0  0  0  0  0
  138.4537  161.7570  131.3146 H   0  0  0  0  0  0  0  0  0  0  0  0
  136.5186  159.8586  132.0253 H   0  0  0  0  0  0  0  0  0  0  0  0
  136.9615  160.7113  130.5076 H   0  0  0  0  0  0  0  0  0  0  0  0
  136.7540  158.9270  130.5076 H   0  0  0  0  0  0  0  0  0  0  0  0
  140.0954  158.4426  130.4819 H   0  0  0  0  0  0  0  0  0  0  0  0
  138.5350  158.5164  129.5952 H   0  0  0  0  0  0  0  0  0  0  0  0
  139.6360  159.9357  129.5952 H   0  0  0  0  0  0  0  0  0  0  0  0
  1  2  1  0
  2  3  1  0
  3  4  1  0
  4  5  2  0
  4  6  1  0
  6  7  1  0
  7  8  1  0
  8  9  1  0
  8 10  2  0
  7 11  2  0
 11 12  1  0
 12 13  2  0
 13 14  1  0
 14 15  2  0
 15 16  1  0
 16 17  1  0
 16 18  1  0
 15 19  1  0
 19 20  2  0
  2 21  1  0
 21 22  2  0
 21 23  1  0
 23 24  1  0
 24 25  1  0
 25 26  2  0
 25 27  1  0
 27 28  1  0
 27 29  1  0
 27 30  1  0
 20  6  1  0
 20 12  1  0
  1 31  1  0
  1 32  1  0
  1 33  1  0
  3 34  1  0
  3 35  1  0
  9 36  1  0
  9 37  1  0
 11 38  1  0
 13 39  1  0
 14 40  1  0
 16 41  1  0
 19 42  1  0
 23 43  1  0
 23 44  1  0
 28 45  1  0
 28 46  1  0
 28 47  1  0
 29 48  1  0
 29 49  1  0
 29 50  1  0
 30 51  1  0
 30 52  1  0
 30 53  1  0
M  END
>  <smiles>  (40) 
CN(CC(=O)n1c(C(N)=O)cc2ccc(C(F)F)cc21)C(=O)COC(=O)C(C)(C)C

>  <score_type>  (40) 
oracle

>  <origin>  (40) 
adg

>  <m_score__min__energy>  (40) 
-7.5800000000000001

>  <m_primary>  (40) 
energy

$$$$
42:0
     RDKit          3D

 40 41  0  0  0  0  0  0  0  0999 V2000
  141.0200  156.2050  133.2270 N   0  0  0  0  0  0  0  0  0  0  0  0
  141.3450  157.5050  133.7450 C   0  0  0  0  0  0  0  0  0  0  0  0
  140.3840  158.1250  134.2560 O   0  0  0  0  0  0  0  0  0  0  0  0
  142.7050  157.9880  133.6450 C   0  0  0  0  0  0  0  0  0  0  0  0
  143.0290  159.3400  133.7920 C   0  0  0  0  0  0  0  0  0  0  0  0
  144.3820  159.5080  133.6490 C   0  0  0  0  0  0  0  0  0  0  0  0
  145.1850  160.6290  133.7050 C   0  0  0  0  0  0  0  0  0  0  0  0
  146.5410  160.5220  133.5240 C   0  0  0  0  0  0  0  0  0  0  0  0
  147.0730  159.2780  133.2870 C   0  0  0  0  0  0  0  0  0  0  0  0
  148.5480  159.1700  133.0900 C   0  0  0  0  0  0  0  0  0  0  0  0
  148.8710  157.9830  132.4730 F   0  0  0  0  0  0  0  0  0  0  0  0
  149.0220  160.1980  132.3240 F   0  0  0  0  0  0  0  0  0  0  0  0
  149.2230  159.2450  134.3050 F   0  0  0  0  0  0  0  0  0  0  0  0
  146.2500  158.1570  133.2330 C   0  0  0  0  0  0  0  0  0  0  0  0
  144.8820  158.2350  133.4110 C   0  0  0  0  0  0  0  0  0  0  0  0
  143.8570  157.3470  133.4140 N   0  0  0  0  0  0  0  0  0  0  0  0
  144.0350  155.9600  133.2010 C   0  0  0  0  0  0  0  0  0  0  0  0
  143.3600  155.4260  132.2550 O   0  0  0  0  0  0  0  0  0  0  0  0
  144.8530  155.1220  133.8980 O   0  0  0  0  0  0  0  0  0  0  0  0
  145.5880  154.0540  133.3730 C   0  0  0  0  0  0  0  0  0  0  0  0
  144.7060  152.8820  133.0440 C   0  0  0  0  0  0  0  0  0  0  0  0
  145.1680  151.8220  132.5450 O   0  0  0  0  0  0  0  0  0  0  0  0
  143.3160  153.0160  133.3210 N   0  0  0  0  0  0  0  0  0  0  0  0
  142.4810  151.8620  132.9900 C   0  0  0  0  0  0  0  0  0  0  0  0
  141.1040  152.3830  132.6220 C   0  0  0  0  0  0  0  0  0  0  0  0
  141.1020  153.7640  132.8080 O   0  0  0  0  0  0  0  0  0  0  0  0
  140.3980  155.5750  133.7830 H   0  0  0  0  0  0  0  0  0  0  0  0
  141.3830  155.8710  132.3170 H   0  0  0  0  0  0  0  0  0  0  0  0
  142.3080  160.1463  133.9920 H   0  0  0  0  0  0  0  0  0  0  0  0
  144.7352  161.6145  133.8959 H   0  0  0  0  0  0  0  0  0  0  0  0
  147.1867  161.4115  133.5677 H   0  0  0  0  0  0  0  0  0  0  0  0
  146.7048  157.1738  133.0418 H   0  0  0  0  0  0  0  0  0  0  0  0
  146.0955  154.3871  132.4557 H   0  0  0  0  0  0  0  0  0  0  0  0
  146.3169  153.7329  134.1317 H   0  0  0  0  0  0  0  0  0  0  0  0
  142.9080  153.8920  133.7370 H   0  0  0  0  0  0  0  0  0  0  0  0
  142.9153  151.3163  132.1394 H   0  0  0  0  0  0  0  0  0  0  0  0
  142.4177  151.1728  133.8450 H   0  0  0  0  0  0  0  0  0  0  0  0
  140.8848  152.1477  131.5700 H   0  0  0  0  0  0  0  0  0  0  0  0
  140.3360  151.9115  133.2527 H   0  0  0  0  0  0  0  0  0  0  0  0
  141.8330  154.1280  132.2330 H   0  0  0  0  0  0  0  0  0  0  0  0
  1  2  1  0
  2  3  2  0
  2  4  1  0
  4  5  2  0
  5  6  1  0
  6  7  2  0
  7  8  1  0
  8  9  2  0
  9 10  1  0
 10 11  1  0
 10 12  1  0
 10 13  1  0
  9 14  1  0
 14 15  2  0
 15 16  1  0
 16 17  1  0
 17 18  2  0
 17 19  1  0
 19 20  1  0
 20 21  1  0
 21 22  2  0
 21 23  1  0
 23 24  1  0
 24 25  1  0
 25 26  1  0
 16  4  1  0
 15  6  1  0
  1 27  1  0
  1 28  1  0
  5 29  1  0
  7 30  1  0
  8 31  1  0
 14 32  1  0
 20 33  1  0
 20 34  1  0
 23 35  1  0
 24 36  1  0
 24 37  1  0
 25 38  1  0
 25 39  1  0
 26 40  1  0
M  END
>  <smiles>  (41) 
NC(=O)c1cc2ccc(C(F)(F)F)cc2n1C(=O)OCC(=O)NCCO

>  <score_type>  (41) 
oracle

>  <origin>  (41) 
adg

>  <m_score__min__energy>  (41) 
-6.5700000000000003

>  <m_primary>  (41) 
energy

$$$$
43:0
     RDKit          3D

 38 39  0  0  0  0  0  0  0  0999 V2000
  147.0270  154.1520  133.0800 C   0  0  0  0  0  0  0  0  0  0  0  0
  146.3010  155.3020  132.9070 C   0  0  0  0  0  0  0  0  0  0  0  0
  144.9920  155.0730  132.2940 C   0  0  0  0  0  0  0  0  0  0  0  0
  146.9930  156.4900  133.2760 C   0  0  0  0  0  0  0  0  0  0  0  0
  148.1190  156.2020  133.9000 O   0  0  0  0  0  0  0  0  0  0  0  0
  146.7610  157.8560  133.1200 N   0  0  0  0  0  0  0  0  0  0  0  0
  147.5520  158.8990  132.8510 C   0  0  0  0  0  0  0  0  0  0  0  0
  148.8950  158.9280  132.2710 C   0  0  0  0  0  0  0  0  0  0  0  0
  149.6430  157.6970  132.1430 N   0  0  0  0  0  0  0  0  0  0  0  0
  149.4790  159.9500  131.8610 O   0  0  0  0  0  0  0  0  0  0  0  0
  146.8710  160.1110  133.0190 C   0  0  0  0  0  0  0  0  0  0  0  0
  145.6160  159.7860  133.4000 C   0  0  0  0  0  0  0  0  0  0  0  0
  144.5450  160.6190  133.6940 C   0  0  0  0  0  0  0  0  0  0  0  0
  143.3350  160.0880  134.0700 C   0  0  0  0  0  0  0  0  0  0  0  0
  143.2380  158.7190  134.1400 C   0  0  0  0  0  0  0  0  0  0  0  0
  141.9280  158.1350  134.5470 C   0  0  0  0  0  0  0  0  0  0  0  0
  140.9740  159.2770  134.6580 C   0  0  0  0  0  0  0  0  0  0  0  0
  140.3300  159.7270  133.6730 O   0  0  0  0  0  0  0  0  0  0  0  0
  140.8210  159.8390  135.9200 O   0  0  0  0  0  0  0  0  0  0  0  0
  140.9640  159.0540  137.1040 C   0  0  0  0  0  0  0  0  0  0  0  0
  144.3250  157.8880  133.8410 C   0  0  0  0  0  0  0  0  0  0  0  0
  145.5520  158.4200  133.4600 C   0  0  0  0  0  0  0  0  0  0  0  0
  148.0288  154.1968  133.5321 H   0  0  0  0  0  0  0  0  0  0  0  0
  146.6077  153.1845  132.7667 H   0  0  0  0  0  0  0  0  0  0  0  0
  144.2361  154.9408  133.0821 H   0  0  0  0  0  0  0  0  0  0  0  0
  144.7232  155.9378  131.6696 H   0  0  0  0  0  0  0  0  0  0  0  0
  145.0328  154.1683  131.6696 H   0  0  0  0  0  0  0  0  0  0  0  0
  149.8820  157.1210  132.9830 H   0  0  0  0  0  0  0  0  0  0  0  0
  149.9450  157.3860  131.1850 H   0  0  0  0  0  0  0  0  0  0  0  0
  147.2759  161.1230  132.8708 H   0  0  0  0  0  0  0  0  0  0  0  0
  144.6659  161.7102  133.6255 H   0  0  0  0  0  0  0  0  0  0  0  0
  142.4766  160.7340  134.3060 H   0  0  0  0  0  0  0  0  0  0  0  0
  141.5783  157.4195  133.7882 H   0  0  0  0  0  0  0  0  0  0  0  0
  142.0123  157.5917  135.4998 H   0  0  0  0  0  0  0  0  0  0  0  0
  140.8466  159.6985  137.9876 H   0  0  0  0  0  0  0  0  0  0  0  0
  140.1942  158.2684  137.1183 H   0  0  0  0  0  0  0  0  0  0  0  0
  141.9614  158.5903  137.1183 H   0  0  0  0  0  0  0  0  0  0  0  0
  144.2062  156.7965  133.9087 H   0  0  0  0  0  0  0  0  0  0  0  0
  1  2  2  0
  2  3  1  0
  2  4  1  0
  4  5  2  0
  4  6  1  0
  6  7  1  0
  7  8  1  0
  8  9  1  0
  8 10  2  0
  7 11  2  0
 11 12  1  0
 12 13  2  0
 13 14  1  0
 14 15  2  0
 15 16  1  0
 16 17  1  0
 17 18  2  0
 17 19  1  0
 19 20  1  0
 15 21  1  0
 21 22  2  0
 22  6  1  0
 22 12  1  0
  1 23  1  0
  1 24  1  0
  3 25  1  0
  3 26  1  0
  3 27  1  0
  9 28  1  0
  9 29  1  0
 11 30  1  0
 13 31  1  0
 14 32  1  0
 16 33  1  0
 16 34  1  0
 20 35  1  0
 20 36  1  0
 20 37  1  0
 21 38  1  0
M  END
>  <smiles>  (42) 
C=C(C)C(=O)n1c(C(N)=O)cc2ccc(CC(=O)OC)cc21

>  <score_type>  (42) 
oracle

>  <origin>  (42) 
adg

>  <m_score__min__energy>  (42) 
-7.5700000000000003

>  <m_primary>  (42) 
energy

$$$$
44:0
     RDKit          3D

 42 43  0  0  0  0  0  0  0  0999 V2000
  140.1370  158.5200  135.3440 C   0  0  0  0  0  0  0  0  0  0  0  0
  140.3570  159.1220  133.9860 C   0  0  1  0  0  0  0  0  0  0  0  0
  141.7830  159.5420  133.8020 C   0  0  0  0  0  0  0  0  0  0  0  0
  142.0840  160.7550  133.6600 O   0  0  0  0  0  0  0  0  0  0  0  0
  142.8020  158.5070  133.7920 N   0  0  0  0  0  0  0  0  0  0  0  0
  144.1540  158.8350  133.6230 C   0  0  0  0  0  0  0  0  0  0  0  0
  144.3620  160.0930  133.4980 O   0  0  0  0  0  0  0  0  0  0  0  0
  145.2860  158.0090  133.5740 N   0  0  0  0  0  0  0  0  0  0  0  0
  145.3330  156.7830  134.1420 C   0  0  0  0  0  0  0  0  0  0  0  0
  144.3650  155.9790  134.8560 C   0  0  0  0  0  0  0  0  0  0  0  0
  144.8290  154.9380  135.7660 N   0  0  0  0  0  0  0  0  0  0  0  0
  143.1260  156.0500  134.8070 O   0  0  0  0  0  0  0  0  0  0  0  0
  146.6290  156.2760  133.9090 C   0  0  0  0  0  0  0  0  0  0  0  0
  147.3540  157.1890  133.2060 C   0  0  0  0  0  0  0  0  0  0  0  0
  148.6460  157.1420  132.7570 C   0  0  0  0  0  0  0  0  0  0  0  0
  149.1780  158.1990  132.0600 C   0  0  0  0  0  0  0  0  0  0  0  0
  148.3670  159.2830  131.8400 C   0  0  0  0  0  0  0  0  0  0  0  0
  148.9470  160.4270  131.0850 C   0  0  0  0  0  0  0  0  0  0  0  0
  148.7200  160.2780  129.7330 F   0  0  0  0  0  0  0  0  0  0  0  0
  148.4920  161.6490  131.5090 F   0  0  0  0  0  0  0  0  0  0  0  0
  150.3400  160.4450  131.2360 F   0  0  0  0  0  0  0  0  0  0  0  0
  147.0470  159.3150  132.3060 C   0  0  0  0  0  0  0  0  0  0  0  0
  146.5010  158.2650  133.0040 C   0  0  0  0  0  0  0  0  0  0  0  0
  139.8770  158.3430  132.8930 N   0  0  0  0  0  0  0  0  0  0  0  0
  139.4060  159.0350  131.7060 C   0  0  0  0  0  0  0  0  0  0  0  0
  139.8600  156.9230  132.9650 C   0  0  0  0  0  0  0  0  0  0  0  0
  140.8900  156.2860  133.2340 O   0  0  0  0  0  0  0  0  0  0  0  0
  140.4052  159.2539  136.1182 H   0  0  0  0  0  0  0  0  0  0  0  0
  139.0787  158.2409  135.4543 H   0  0  0  0  0  0  0  0  0  0  0  0
  140.7659  157.6243  135.4543 H   0  0  0  0  0  0  0  0  0  0  0  0
  139.7246  160.0218  133.9661 H   0  0  0  0  0  0  0  0  0  0  0  0
  142.4880  157.5750  133.9090 H   0  0  0  0  0  0  0  0  0  0  0  0
  145.1110  155.2260  136.7300 H   0  0  0  0  0  0  0  0  0  0  0  0
  144.8710  153.9440  135.4450 H   0  0  0  0  0  0  0  0  0  0  0  0
  146.9967  155.2948  134.2436 H   0  0  0  0  0  0  0  0  0  0  0  0
  149.2619  156.2525  132.9556 H   0  0  0  0  0  0  0  0  0  0  0  0
  150.2145  158.1771  131.6924 H   0  0  0  0  0  0  0  0  0  0  0  0
  146.4307  160.2044  132.1080 H   0  0  0  0  0  0  0  0  0  0  0  0
  138.8102  159.9103  132.0040 H   0  0  0  0  0  0  0  0  0  0  0  0
  140.2680  159.3647  131.1075 H   0  0  0  0  0  0  0  0  0  0  0  0
  138.7831  158.3540  131.1075 H   0  0  0  0  0  0  0  0  0  0  0  0
  138.9205  156.3818  132.7796 H   0  0  0  0  0  0  0  0  0  0  0  0
  1  2  1  0
  2  3  1  0
  3  4  2  0
  3  5  1  0
  5  6  1  0
  6  7  2  0
  6  8  1  0
  8  9  1  0
  9 10  1  0
 10 11  1  0
 10 12  2  0
  9 13  2  0
 13 14  1  0
 14 15  2  0
 15 16  1  0
 16 17  2  0
 17 18  1  0
 18 19  1  0
 18 20  1  0
 18 21  1  0
 17 22  1  0
 22 23  2  0
  2 24  1  0
 24 25  1  0
 24 26  1  0
 26 27  2  0
 23  8  1  0
 23 14  1  0
  1 28  1  0
  1 29  1  0
  1 30  1  0
  2 31  1  1
  5 32  1  0
 11 33  1  0
 11 34  1  0
 13 35  1  0
 15 36  1  0
 16 37  1  0
 22 38  1  0
 25 39  1  0
 25 40  1  0
 25 41  1  0
 26 42  1  0
M  END
>  <smiles>  (43) 
C[C@@H](C(=O)NC(=O)n1c(C(N)=O)cc2ccc(C(F)(F)F)cc21)N(C)C=O

>  <score_type>  (43) 
oracle

>  <origin>  (43) 
adg

>  <m_score__min__energy>  (43) 
-6.9699999999999998

>  <m_primary>  (43) 
energy

$$$$
45:0
     RDKit          3D

 46 47  0  0  1  0  0  0  0  0999 V2000
  141.0420  157.7980  134.6090 C   0  0  0  0  0  0  0  0  0  0  0  0
  141.2730  159.2650  134.4130 C   0  0  1  0  0  0  0  0  0  0  0  0
  140.9640  159.9600  135.5900 F   0  0  0  0  0  0  0  0  0  0  0  0
  142.6930  159.5650  134.0980 C   0  0  0  0  0  0  0  0  0  0  0  0
  143.0880  160.8660  134.0850 C   0  0  0  0  0  0  0  0  0  0  0  0
  144.4070  161.1340  133.7930 C   0  0  0  0  0  0  0  0  0  0  0  0
  145.2810  160.1050  133.5250 C   0  0  0  0  0  0  0  0  0  0  0  0
  146.6110  160.1350  133.2500 C   0  0  0  0  0  0  0  0  0  0  0  0
  147.0600  158.8160  133.0800 C   0  0  0  0  0  0  0  0  0  0  0  0
  148.4490  158.5820  132.7530 C   0  0  0  0  0  0  0  0  0  0  0  0
  149.1180  157.3630  132.5410 N   0  0  0  0  0  0  0  0  0  0  0  0
  149.2160  159.6190  132.6210 O   0  0  0  0  0  0  0  0  0  0  0  0
  145.9960  157.9780  133.2550 N   0  0  0  0  0  0  0  0  0  0  0  0
  146.1270  156.5890  133.2790 C   0  0  0  0  0  0  0  0  0  0  0  0
  146.6650  156.1370  132.1540 O   0  0  0  0  0  0  0  0  0  0  0  0
  145.8370  155.5610  134.1550 N   0  0  0  0  0  0  0  0  0  0  0  0
  144.6120  154.9460  134.5620 C   0  0  0  0  0  0  0  0  0  0  0  0
  147.0360  154.9570  134.8460 C   0  0  0  0  0  0  0  0  0  0  0  0
  147.9530  154.3880  133.8410 C   0  0  0  0  0  0  0  0  0  0  0  0
  148.8550  155.0750  133.3130 O   0  0  0  0  0  0  0  0  0  0  0  0
  147.8180  153.0830  133.4770 O   0  0  0  0  0  0  0  0  0  0  0  0
  148.7980  152.1150  133.4170 C   0  0  0  0  0  0  0  0  0  0  0  0
  149.6920  152.1780  132.2070 C   0  0  0  0  0  0  0  0  0  0  0  0
  149.4880  153.3530  131.4820 O   0  0  0  0  0  0  0  0  0  0  0  0
  144.9180  158.7710  133.5280 C   0  0  0  0  0  0  0  0  0  0  0  0
  143.5920  158.5420  133.8260 C   0  0  0  0  0  0  0  0  0  0  0  0
  141.0066  157.5730  135.6851 H   0  0  0  0  0  0  0  0  0  0  0  0
  140.0877  157.5116  134.1429 H   0  0  0  0  0  0  0  0  0  0  0  0
  141.8621  157.2322  134.1429 H   0  0  0  0  0  0  0  0  0  0  0  0
  140.6311  159.5756  133.5755 H   0  0  0  0  0  0  0  0  0  0  0  0
  142.3775  161.6777  134.3006 H   0  0  0  0  0  0  0  0  0  0  0  0
  144.7634  162.1745  133.7739 H   0  0  0  0  0  0  0  0  0  0  0  0
  147.2314  161.0401  133.1735 H   0  0  0  0  0  0  0  0  0  0  0  0
  148.8230  156.6540  131.8160 H   0  0  0  0  0  0  0  0  0  0  0  0
  149.9750  157.0690  133.0890 H   0  0  0  0  0  0  0  0  0  0  0  0
  144.5617  154.9207  135.6606 H   0  0  0  0  0  0  0  0  0  0  0  0
  143.7630  155.5247  134.1693 H   0  0  0  0  0  0  0  0  0  0  0  0
  144.5689  153.9194  134.1693 H   0  0  0  0  0  0  0  0  0  0  0  0
  147.5593  155.7367  135.4189 H   0  0  0  0  0  0  0  0  0  0  0  0
  146.7016  154.1606  135.5271 H   0  0  0  0  0  0  0  0  0  0  0  0
  149.4298  152.2153  134.3118 H   0  0  0  0  0  0  0  0  0  0  0  0
  148.2705  151.1517  133.3554 H   0  0  0  0  0  0  0  0  0  0  0  0
  150.7412  152.1378  132.5351 H   0  0  0  0  0  0  0  0  0  0  0  0
  149.4528  151.3243  131.5559 H   0  0  0  0  0  0  0  0  0  0  0  0
  148.5750  153.6690  131.6720 H   0  0  0  0  0  0  0  0  0  0  0  0
  143.2299  157.5036  133.8494 H   0  0  0  0  0  0  0  0  0  0  0  0
  1  2  1  0
  2  3  1  0
  2  4  1  0
  4  5  2  0
  5  6  1  0
  6  7  2  0
  7  8  1  0
  8  9  2  0
  9 10  1  0
 10 11  1  0
 10 12  2  0
  9 13  1  0
 13 14  1  0
 14 15  2  0
 14 16  1  0
 16 17  1  0
 16 18  1  0
 18 19  1  0
 19 20  2  0
 19 21  1  0
 21 22  1  0
 22 23  1  0
 23 24  1  0
 13 25  1  0
 25 26  2  0
 26  4  1  0
 25  7  1  0
  1 27  1  0
  1 28  1  0
  1 29  1  0
  2 30  1  6
  5 31  1  0
  6 32  1  0
  8 33  1  0
 11 34  1  0
 11 35  1  0
 17 36  1  0
 17 37  1  0
 17 38  1  0
 18 39  1  0
 18 40  1  0
 22 41  1  0
 22 42  1  0
 23 43  1  0
 23 44  1  0
 24 45  1  0
 26 46  1  0
M  END
>  <smiles>  (44) 
CC(F)c1ccc2cc(C(N)=O)n(C(=O)N(C)CC(=O)OCCO)c2c1

>  <score_type>  (44) 
oracle

>  <origin>  (44) 
adg

>  <m_score__min__energy>  (44) 
-6.7699999999999996

>  <m_primary>  (44) 
energy

$$$$
46:0
     RDKit          3D

 60 62  0  0  0  0  0  0  0  0999 V2000
  149.9380  150.8420  130.7990 C   0  0  0  0  0  0  0  0  0  0  0  0
  149.7880  151.1390  132.2490 C   0  0  0  0  0  0  0  0  0  0  0  0
  149.7600  150.2590  133.2480 O   0  0  0  0  0  0  0  0  0  0  0  0
  149.6140  150.9000  134.3830 C   0  0  0  0  0  0  0  0  0  0  0  0
  149.5400  150.4610  135.5590 O   0  0  0  0  0  0  0  0  0  0  0  0
  149.5460  152.2030  134.1330 O   0  0  0  0  0  0  0  0  0  0  0  0
  149.6500  152.3840  132.8260 C   0  0  0  0  0  0  0  0  0  0  0  0
  149.6190  153.7140  132.1440 C   0  0  0  0  0  0  0  0  0  0  0  0
  148.8950  154.6740  132.8720 O   0  0  0  0  0  0  0  0  0  0  0  0
  147.6310  154.5110  133.3500 C   0  0  0  0  0  0  0  0  0  0  0  0
  146.9080  153.5410  133.0110 O   0  0  0  0  0  0  0  0  0  0  0  0
  147.0390  155.4850  134.3110 N   0  0  0  0  0  0  0  0  0  0  0  0
  147.4580  155.2400  135.6400 C   0  0  0  0  0  0  0  0  0  0  0  0
  146.6280  154.1390  136.2730 C   0  0  0  0  0  0  0  0  0  0  0  0
  145.4090  154.2400  136.4490 O   0  0  0  0  0  0  0  0  0  0  0  0
  147.3260  152.9990  136.6500 O   0  0  0  0  0  0  0  0  0  0  0  0
  147.5850  152.6690  137.9980 C   0  0  0  0  0  0  0  0  0  0  0  0
  146.4740  152.9780  138.9440 C   0  0  0  0  0  0  0  0  0  0  0  0
  148.7480  153.5910  138.3910 C   0  0  0  0  0  0  0  0  0  0  0  0
  148.1310  151.2590  138.1650 C   0  0  0  0  0  0  0  0  0  0  0  0
  146.1830  156.4100  133.7290 C   0  0  0  0  0  0  0  0  0  0  0  0
  145.0910  155.8560  133.2390 O   0  0  0  0  0  0  0  0  0  0  0  0
  146.2210  157.7990  133.5360 N   0  0  0  0  0  0  0  0  0  0  0  0
  147.0710  158.6390  132.9690 C   0  0  0  0  0  0  0  0  0  0  0  0
  148.5130  158.4460  132.6960 C   0  0  0  0  0  0  0  0  0  0  0  0
  149.0780  157.1460  132.5950 N   0  0  0  0  0  0  0  0  0  0  0  0
  149.3030  159.4130  132.5430 O   0  0  0  0  0  0  0  0  0  0  0  0
  146.5360  159.9130  132.8010 C   0  0  0  0  0  0  0  0  0  0  0  0
  145.2760  159.8440  133.3060 C   0  0  0  0  0  0  0  0  0  0  0  0
  144.3130  160.8370  133.3840 C   0  0  0  0  0  0  0  0  0  0  0  0
  143.0920  160.5570  133.9330 C   0  0  0  0  0  0  0  0  0  0  0  0
  142.8670  159.2830  134.3920 C   0  0  0  0  0  0  0  0  0  0  0  0
  141.5310  158.9680  134.9950 C   0  0  0  0  0  0  0  0  0  0  0  0
  141.3010  157.6080  134.8850 F   0  0  0  0  0  0  0  0  0  0  0  0
  141.5270  159.3590  136.3230 F   0  0  0  0  0  0  0  0  0  0  0  0
  140.6010  159.6730  134.2560 F   0  0  0  0  0  0  0  0  0  0  0  0
  143.8500  158.2890  134.3060 C   0  0  0  0  0  0  0  0  0  0  0  0
  145.0900  158.5630  133.7510 C   0  0  0  0  0  0  0  0  0  0  0  0
  150.4307  149.8665  130.6736 H   0  0  0  0  0  0  0  0  0  0  0  0
  148.9454  150.8150  130.3256 H   0  0  0  0  0  0  0  0  0  0  0  0
  150.5488  151.6248  130.3256 H   0  0  0  0  0  0  0  0  0  0  0  0
  150.6520  154.0709  132.0191 H   0  0  0  0  0  0  0  0  0  0  0  0
  149.1177  153.5813  131.1739 H   0  0  0  0  0  0  0  0  0  0  0  0
  148.5153  154.9366  135.6345 H   0  0  0  0  0  0  0  0  0  0  0  0
  147.3268  156.1614  136.2263 H   0  0  0  0  0  0  0  0  0  0  0  0
  146.8346  152.8777  139.9784 H   0  0  0  0  0  0  0  0  0  0  0  0
  146.1247  154.0074  138.7756 H   0  0  0  0  0  0  0  0  0  0  0  0
  145.6434  152.2768  138.7756 H   0  0  0  0  0  0  0  0  0  0  0  0
  148.8177  153.6463  139.4874 H   0  0  0  0  0  0  0  0  0  0  0  0
  149.6877  153.1899  137.9836 H   0  0  0  0  0  0  0  0  0  0  0  0
  148.5718  154.5975  137.9836 H   0  0  0  0  0  0  0  0  0  0  0  0
  148.2215  151.0253  139.2361 H   0  0  0  0  0  0  0  0  0  0  0  0
  147.4456  150.5417  137.6898 H   0  0  0  0  0  0  0  0  0  0  0  0
  149.1207  151.1904  137.6898 H   0  0  0  0  0  0  0  0  0  0  0  0
  148.8670  156.6130  131.7230 H   0  0  0  0  0  0  0  0  0  0  0  0
  149.6800  156.7560  133.3730 H   0  0  0  0  0  0  0  0  0  0  0  0
  147.0283  160.7894  132.3544 H   0  0  0  0  0  0  0  0  0  0  0  0
  144.5296  161.8470  133.0058 H   0  0  0  0  0  0  0  0  0  0  0  0
  142.3129  161.3302  134.0046 H   0  0  0  0  0  0  0  0  0  0  0  0
  143.6352  157.2784  134.6836 H   0  0  0  0  0  0  0  0  0  0  0  0
  1  2  1  0
  2  3  1  0
  3  4  1  0
  4  5  2  0
  4  6  1  0
  6  7  1  0
  7  8  1  0
  8  9  1  0
  9 10  1  0
 10 11  2  0
 10 12  1  0
 12 13  1  0
 13 14  1  0
 14 15  2  0
 14 16  1  0
 16 17  1  0
 17 18  1  0
 17 19  1  0
 17 20  1  0
 12 21  1  0
 21 22  2  0
 21 23  1  0
 23 24  1  0
 24 25  1  0
 25 26  1  0
 25 27  2  0
 24 28  2  0
 28 29  1  0
 29 30  2  0
 30 31  1  0
 31 32  2  0
 32 33  1  0
 33 34  1  0
 33 35  1  0
 33 36  1  0
 32 37  1  0
 37 38  2  0
  7  2  2  0
 38 23  1  0
 38 29  1  0
  1 39  1  0
  1 40  1  0
  1 41  1  0
  8 42  1  0
  8 43  1  0
 13 44  1  0
 13 45  1  0
 18 46  1  0
 18 47  1  0
 18 48  1  0
 19 49  1  0
 19 50  1  0
 19 51  1  0
 20 52  1  0
 20 53  1  0
 20 54  1  0
 26 55  1  0
 26 56  1  0
 28 57  1  0
 30 58  1  0
 31 59  1  0
 37 60  1  0
M  END
>  <smiles>  (45) 
Cc1oc(=O)oc1COC(=O)N(CC(=O)OC(C)(C)C)C(=O)n1c(C(N)=O)cc2ccc(C(F)(F)F)cc21

>  <score_type>  (45) 
oracle

>  <origin>  (45) 
adg

>  <m_score__min__energy>  (45) 
-9.0600000000000005

>  <m_primary>  (45) 
energy

$$$$
47:0
     RDKit          3D

 45 46  0  0  0  0  0  0  0  0999 V2000
  140.4560  154.8610  133.3600 C   0  0  0  0  0  0  0  0  0  0  0  0
  141.7060  154.5930  133.7210 C   0  0  0  0  0  0  0  0  0  0  0  0
  142.5410  153.6170  132.9690 C   0  0  0  0  0  0  0  0  0  0  0  0
  143.7690  154.3390  132.4010 C   0  0  0  0  0  0  0  0  0  0  0  0
  144.9190  154.0200  133.2700 C   0  0  0  0  0  0  0  0  0  0  0  0
  145.3110  152.8270  133.3660 O   0  0  0  0  0  0  0  0  0  0  0  0
  145.6130  155.0810  134.0270 N   0  0  0  0  0  0  0  0  0  0  0  0
  145.6710  154.8230  135.4350 C   0  0  0  0  0  0  0  0  0  0  0  0
  146.7810  153.7940  135.7010 C   0  0  0  0  0  0  0  0  0  0  0  0
  146.9460  153.3470  136.8650 O   0  0  0  0  0  0  0  0  0  0  0  0
  147.5900  153.3700  134.6570 O   0  0  0  0  0  0  0  0  0  0  0  0
  146.0420  156.1630  133.2650 C   0  0  0  0  0  0  0  0  0  0  0  0
  146.6140  155.7850  132.1330 O   0  0  0  0  0  0  0  0  0  0  0  0
  146.0140  157.5470  133.4230 N   0  0  0  0  0  0  0  0  0  0  0  0
  146.8850  158.5340  133.2210 C   0  0  0  0  0  0  0  0  0  0  0  0
  148.3590  158.4510  133.1410 C   0  0  0  0  0  0  0  0  0  0  0  0
  149.0010  157.2940  132.6210 N   0  0  0  0  0  0  0  0  0  0  0  0
  149.1120  159.3830  133.5240 O   0  0  0  0  0  0  0  0  0  0  0  0
  146.2940  159.7880  133.2850 C   0  0  0  0  0  0  0  0  0  0  0  0
  144.9810  159.5610  133.5490 C   0  0  0  0  0  0  0  0  0  0  0  0
  143.9520  160.4720  133.7130 C   0  0  0  0  0  0  0  0  0  0  0  0
  142.6880  160.0330  133.9730 C   0  0  0  0  0  0  0  0  0  0  0  0
  142.4810  158.6740  134.0660 C   0  0  0  0  0  0  0  0  0  0  0  0
  141.1000  158.2000  134.3500 C   0  0  0  0  0  0  0  0  0  0  0  0
  143.5280  157.7680  133.8990 C   0  0  0  0  0  0  0  0  0  0  0  0
  144.8170  158.2060  133.6330 C   0  0  0  0  0  0  0  0  0  0  0  0
  139.8614  155.5869  133.9340 H   0  0  0  0  0  0  0  0  0  0  0  0
  140.0155  154.3570  132.4871 H   0  0  0  0  0  0  0  0  0  0  0  0
  142.1339  155.1042  134.5960 H   0  0  0  0  0  0  0  0  0  0  0  0
  142.8667  152.8130  133.6454 H   0  0  0  0  0  0  0  0  0  0  0  0
  141.9533  153.1831  132.1466 H   0  0  0  0  0  0  0  0  0  0  0  0
  143.9665  153.9924  131.3759 H   0  0  0  0  0  0  0  0  0  0  0  0
  143.5979  155.4252  132.3716 H   0  0  0  0  0  0  0  0  0  0  0  0
  145.8940  155.7559  135.9736 H   0  0  0  0  0  0  0  0  0  0  0  0
  144.7045  154.4312  135.7848 H   0  0  0  0  0  0  0  0  0  0  0  0
  147.3220  152.5680  134.0710 H   0  0  0  0  0  0  0  0  0  0  0  0
  149.9470  156.9930  132.9940 H   0  0  0  0  0  0  0  0  0  0  0  0
  148.5120  156.7650  131.8710 H   0  0  0  0  0  0  0  0  0  0  0  0
  146.7861  160.7625  133.1501 H   0  0  0  0  0  0  0  0  0  0  0  0
  144.1542  161.5503  133.6335 H   0  0  0  0  0  0  0  0  0  0  0  0
  141.8579  160.7426  134.1047 H   0  0  0  0  0  0  0  0  0  0  0  0
  140.9469  158.1474  135.4380 H   0  0  0  0  0  0  0  0  0  0  0  0
  140.3744  158.9005  133.9110 H   0  0  0  0  0  0  0  0  0  0  0  0
  140.9575  157.2015  133.9110 H   0  0  0  0  0  0  0  0  0  0  0  0
  143.3285  156.6892  133.9795 H   0  0  0  0  0  0  0  0  0  0  0  0
  1  2  2  0
  2  3  1  0
  3  4  1  0
  4  5  1  0
  5  6  2  0
  5  7  1  0
  7  8  1  0
  8  9  1  0
  9 10  2  0
  9 11  1  0
  7 12  1  0
 12 13  2  0
 12 14  1  0
 14 15  1  0
 15 16  1  0
 16 17  1  0
 16 18  2  0
 15 19  2  0
 19 20  1  0
 20 21  2  0
 21 22  1  0
 22 23  2  0
 23 24  1  0
 23 25  1  0
 25 26  2  0
 26 14  1  0
 26 20  1  0
  1 27  1  0
  1 28  1  0
  2 29  1  0
  3 30  1  0
  3 31  1  0
  4 32  1  0
  4 33  1  0
  8 34  1  0
  8 35  1  0
 11 36  1  0
 17 37  1  0
 17 38  1  0
 19 39  1  0
 21 40  1  0
 22 41  1  0
 24 42  1  0
 24 43  1  0
 24 44  1  0
 25 45  1  0
M  END
>  <smiles>  (46) 
C=CCCC(=O)N(CC(=O)O)C(=O)n1c(C(N)=O)cc2ccc(C)cc21

>  <score_type>  (46) 
oracle

>  <origin>  (46) 
adg

>  <m_score__min__energy>  (46) 
-7.2699999999999996

>  <m_primary>  (46) 
energy

$$$$
48:0
     RDKit          3D

 49 51  0  0  0  0  0  0  0  0999 V2000
  141.2890  158.3660  135.3030 C   0  0  0  0  0  0  0  0  0  0  0  0
  140.5360  157.5550  134.3700 N   0  0  0  0  0  0  0  0  0  0  0  0
  139.3290  158.1980  133.8390 C   0  0  0  0  0  0  0  0  0  0  0  0
  139.4800  158.8360  132.5160 C   0  0  0  0  0  0  0  0  0  0  0  0
  140.8290  159.4290  132.3490 N   0  0  0  0  0  0  0  0  0  0  0  0
  138.3910  159.6330  131.8620 C   0  0  0  0  0  0  0  0  0  0  0  0
  138.9330  158.3130  131.2500 C   0  0  0  0  0  0  0  0  0  0  0  0
  140.8300  156.2610  133.9270 C   0  0  0  0  0  0  0  0  0  0  0  0
  139.8500  155.4090  134.0610 O   0  0  0  0  0  0  0  0  0  0  0  0
  142.0190  155.6800  133.3370 C   0  0  0  0  0  0  0  0  0  0  0  0
  143.3000  156.2010  133.6860 N   0  0  0  0  0  0  0  0  0  0  0  0
  143.7480  157.3860  133.0560 C   0  0  0  0  0  0  0  0  0  0  0  0
  142.8930  157.8800  132.2350 O   0  0  0  0  0  0  0  0  0  0  0  0
  144.9790  158.0440  133.2460 N   0  0  0  0  0  0  0  0  0  0  0  0
  145.2840  159.3470  133.3690 C   0  0  0  0  0  0  0  0  0  0  0  0
  144.4670  160.5030  133.6060 C   0  0  0  0  0  0  0  0  0  0  0  0
  143.0390  160.3890  133.3660 N   0  0  0  0  0  0  0  0  0  0  0  0
  144.8230  161.6310  134.0050 O   0  0  0  0  0  0  0  0  0  0  0  0
  146.6950  159.4660  133.3730 C   0  0  0  0  0  0  0  0  0  0  0  0
  147.2260  158.2140  133.2570 C   0  0  0  0  0  0  0  0  0  0  0  0
  148.5440  157.8220  133.2160 C   0  0  0  0  0  0  0  0  0  0  0  0
  148.8330  156.4810  133.0920 C   0  0  0  0  0  0  0  0  0  0  0  0
  147.8030  155.5850  133.0120 C   0  0  0  0  0  0  0  0  0  0  0  0
  148.1560  154.1440  132.8780 C   0  0  0  0  0  0  0  0  0  0  0  0
  148.6300  153.6240  134.0710 F   0  0  0  0  0  0  0  0  0  0  0  0
  149.1150  153.9490  131.9110 F   0  0  0  0  0  0  0  0  0  0  0  0
  146.9770  153.4720  132.5730 F   0  0  0  0  0  0  0  0  0  0  0  0
  146.4790  156.0080  133.0550 C   0  0  0  0  0  0  0  0  0  0  0  0
  146.1610  157.3520  133.1800 C   0  0  0  0  0  0  0  0  0  0  0  0
  141.0249  158.0816  136.3322 H   0  0  0  0  0  0  0  0  0  0  0  0
  142.3654  158.2053  135.1429 H   0  0  0  0  0  0  0  0  0  0  0  0
  141.0490  159.4275  135.1429 H   0  0  0  0  0  0  0  0  0  0  0  0
  138.5440  157.4317  133.7584 H   0  0  0  0  0  0  0  0  0  0  0  0
  139.0850  159.0096  134.5403 H   0  0  0  0  0  0  0  0  0  0  0  0
  141.2850  159.0920  131.4740 H   0  0  0  0  0  0  0  0  0  0  0  0
  141.3870  159.1100  133.1590 H   0  0  0  0  0  0  0  0  0  0  0  0
  137.3849  159.6685  132.3053 H   0  0  0  0  0  0  0  0  0  0  0  0
  138.2674  160.6710  131.5197 H   0  0  0  0  0  0  0  0  0  0  0  0
  138.3089  157.4072  131.2509 H   0  0  0  0  0  0  0  0  0  0  0  0
  139.3559  158.0175  130.2785 H   0  0  0  0  0  0  0  0  0  0  0  0
  142.0224  154.6137  133.6070 H   0  0  0  0  0  0  0  0  0  0  0  0
  141.9230  155.9219  132.2682 H   0  0  0  0  0  0  0  0  0  0  0  0
  143.8500  155.7310  134.4090 H   0  0  0  0  0  0  0  0  0  0  0  0
  142.4010  160.6460  134.1650 H   0  0  0  0  0  0  0  0  0  0  0  0
  142.6760  160.0650  132.4390 H   0  0  0  0  0  0  0  0  0  0  0  0
  147.2639  160.4039  133.4552 H   0  0  0  0  0  0  0  0  0  0  0  0
  149.3520  158.5656  133.2810 H   0  0  0  0  0  0  0  0  0  0  0  0
  149.8769  156.1359  133.0578 H   0  0  0  0  0  0  0  0  0  0  0  0
  145.6710  155.2646  132.9888 H   0  0  0  0  0  0  0  0  0  0  0  0
  1  2  1  0
  2  3  1  0
  3  4  1  0
  4  5  1  0
  4  6  1  0
  6  7  1  0
  2  8  1  0
  8  9  2  0
  8 10  1  0
 10 11  1  0
 11 12  1  0
 12 13  2  0
 12 14  1  0
 14 15  1  0
 15 16  1  0
 16 17  1  0
 16 18  2  0
 15 19  2  0
 19 20  1  0
 20 21  2  0
 21 22  1  0
 22 23  2  0
 23 24  1  0
 24 25  1  0
 24 26  1  0
 24 27  1  0
 23 28  1  0
 28 29  2  0
  7  4  1  0
 29 14  1  0
 29 20  1  0
  1 30  1  0
  1 31  1  0
  1 32  1  0
  3 33  1  0
  3 34  1  0
  5 35  1  0
  5 36  1  0
  6 37  1  0
  6 38  1  0
  7 39  1  0
  7 40  1  0
 10 41  1  0
 10 42  1  0
 11 43  1  0
 17 44  1  0
 17 45  1  0
 19 46  1  0
 21 47  1  0
 22 48  1  0
 28 49  1  0
M  END
>  <smiles>  (47) 
CN(CC1(N)CC1)C(=O)CNC(=O)n1c(C(N)=O)cc2ccc(C(F)(F)F)cc21

>  <score_type>  (47) 
oracle

>  <origin>  (47) 
adg

>  <m_score__min__energy>  (47) 
-8.4000000000000004

>  <m_primary>  (47) 
energy

$$$$
49:0
     RDKit          3D

 39 40  0  0  0  0  0  0  0  0999 V2000
  145.8430  151.9930  132.4740 N   0  0  0  0  0  0  0  0  0  0  0  0
  145.2100  153.0950  133.1890 C   0  0  0  0  0  0  0  0  0  0  0  0
  144.1540  152.7640  133.7480 O   0  0  0  0  0  0  0  0  0  0  0  0
  145.8600  154.3810  133.1600 C   0  0  0  0  0  0  0  0  0  0  0  0
  145.1300  155.5660  133.0840 C   0  0  0  0  0  0  0  0  0  0  0  0
  145.9970  156.6190  133.0720 C   0  0  0  0  0  0  0  0  0  0  0  0
  145.7650  157.9730  133.0070 C   0  0  0  0  0  0  0  0  0  0  0  0
  146.8110  158.8670  133.0100 C   0  0  0  0  0  0  0  0  0  0  0  0
  148.0780  158.3610  133.0770 C   0  0  0  0  0  0  0  0  0  0  0  0
  149.2290  159.3150  133.0810 C   0  0  0  0  0  0  0  0  0  0  0  0
  149.1920  160.2050  131.8590 C   0  0  0  0  0  0  0  0  0  0  0  0
  149.8000  159.5900  130.6390 C   0  0  0  0  0  0  0  0  0  0  0  0
  148.9010  158.6510  130.0930 O   0  0  0  0  0  0  0  0  0  0  0  0
  148.2990  156.9880  133.1430 C   0  0  0  0  0  0  0  0  0  0  0  0
  147.2600  156.0720  133.1420 C   0  0  0  0  0  0  0  0  0  0  0  0
  147.1770  154.7070  133.1960 N   0  0  0  0  0  0  0  0  0  0  0  0
  148.3100  153.8970  133.2700 C   0  0  0  0  0  0  0  0  0  0  0  0
  148.6330  153.4940  134.4570 O   0  0  0  0  0  0  0  0  0  0  0  0
  149.2160  153.4090  132.2400 C   0  0  0  0  0  0  0  0  0  0  0  0
  149.2930  151.5890  132.3200 S   0  0  0  0  0  0  0  0  0  0  0  0
  150.4070  151.0820  131.4490 O   0  0  0  0  0  0  0  0  0  0  0  0
  147.9700  151.0290  131.9400 O   0  0  0  0  0  0  0  0  0  0  0  0
  149.6590  151.2370  133.9230 O   0  0  0  0  0  0  0  0  0  0  0  0
  146.1420  152.1160  131.4730 H   0  0  0  0  0  0  0  0  0  0  0  0
  145.9780  151.0970  133.0070 H   0  0  0  0  0  0  0  0  0  0  0  0
  144.0333  155.6399  133.0407 H   0  0  0  0  0  0  0  0  0  0  0  0
  144.7315  158.3456  132.9520 H   0  0  0  0  0  0  0  0  0  0  0  0
  146.6331  159.9514  132.9602 H   0  0  0  0  0  0  0  0  0  0  0  0
  149.1762  159.9403  133.9845 H   0  0  0  0  0  0  0  0  0  0  0  0
  150.1656  158.7382  133.0693 H   0  0  0  0  0  0  0  0  0  0  0  0
  148.1416  160.4455  131.6381 H   0  0  0  0  0  0  0  0  0  0  0  0
  149.7901  161.0969  132.0971 H   0  0  0  0  0  0  0  0  0  0  0  0
  150.0076  160.3746  129.8966 H   0  0  0  0  0  0  0  0  0  0  0  0
  150.7397  159.0862  130.9096 H   0  0  0  0  0  0  0  0  0  0  0  0
  148.8710  157.8190  130.6480 H   0  0  0  0  0  0  0  0  0  0  0  0
  149.3335  156.6182  133.1978 H   0  0  0  0  0  0  0  0  0  0  0  0
  148.8484  153.7183  131.2504 H   0  0  0  0  0  0  0  0  0  0  0  0
  150.2199  153.8282  132.4028 H   0  0  0  0  0  0  0  0  0  0  0  0
  148.8290  151.3270  134.4690 H   0  0  0  0  0  0  0  0  0  0  0  0
  1  2  1  0
  2  3  2  0
  2  4  1  0
  4  5  2  0
  5  6  1  0
  6  7  2  0
  7  8  1  0
  8  9  2  0
  9 10  1  0
 10 11  1  0
 11 12  1  0
 12 13  1  0
  9 14  1  0
 14 15  2  0
 15 16  1  0
 16 17  1  0
 17 18  2  0
 17 19  1  0
 19 20  1  0
 20 21  2  0
 20 22  2  0
 20 23  1  0
 16  4  1  0
 15  6  1  0
  1 24  1  0
  1 25  1  0
  5 26  1  0
  7 27  1  0
  8 28  1  0
 10 29  1  0
 10 30  1  0
 11 31  1  0
 11 32  1  0
 12 33  1  0
 12 34  1  0
 13 35  1  0
 14 36  1  0
 19 37  1  0
 19 38  1  0
 23 39  1  0
M  END
>  <smiles>  (48) 
NC(=O)c1cc2ccc(CCCO)cc2n1C(=O)CS(=O)(=O)O

>  <score_type>  (48) 
oracle

>  <origin>  (48) 
adg

>  <m_score__min__energy>  (48) 
-7.7999999999999998

>  <m_primary>  (48) 
energy

$$$$
50:0
     RDKit          3D

 36 37  0  0  0  0  0  0  0  0999 V2000
  146.8600  155.2110  135.2610 B   0  0  0  0  0  1  0  0  0  0  0  0
  146.4200  155.4790  133.8440 N   0  0  0  0  0  0  0  0  0  0  0  0
  146.8880  154.5130  132.8670 C   0  0  0  0  0  0  0  0  0  0  0  0
  146.1120  153.6410  132.3900 O   0  0  0  0  0  0  0  0  0  0  0  0
  148.1930  154.5000  132.4170 O   0  0  0  0  0  0  0  0  0  0  0  0
  149.2120  153.7220  132.9650 C   0  0  0  0  0  0  0  0  0  0  0  0
  149.0740  152.2990  132.5350 C   0  0  0  0  0  0  0  0  0  0  0  0
  150.0490  151.5420  132.8210 O   0  0  0  0  0  0  0  0  0  0  0  0
  147.9450  151.8370  131.8660 O   0  0  0  0  0  0  0  0  0  0  0  0
  145.6300  156.5380  133.3760 C   0  0  0  0  0  0  0  0  0  0  0  0
  144.4440  156.1900  132.9930 O   0  0  0  0  0  0  0  0  0  0  0  0
  145.9180  157.9070  133.2720 N   0  0  0  0  0  0  0  0  0  0  0  0
  147.0610  158.5900  133.2050 C   0  0  0  0  0  0  0  0  0  0  0  0
  148.4070  158.1700  132.8220 C   0  0  0  0  0  0  0  0  0  0  0  0
  148.7260  156.9230  132.2270 N   0  0  0  0  0  0  0  0  0  0  0  0
  149.3940  158.9590  133.0090 O   0  0  0  0  0  0  0  0  0  0  0  0
  146.8210  159.9730  133.3600 C   0  0  0  0  0  0  0  0  0  0  0  0
  145.4760  160.1080  133.5170 C   0  0  0  0  0  0  0  0  0  0  0  0
  144.7340  161.2630  133.7020 C   0  0  0  0  0  0  0  0  0  0  0  0
  143.3680  161.1800  133.8430 C   0  0  0  0  0  0  0  0  0  0  0  0
  142.7920  159.9340  133.7910 C   0  0  0  0  0  0  0  0  0  0  0  0
  141.3120  159.8450  133.9440 C   0  0  0  0  0  0  0  0  0  0  0  0
  143.5560  158.7750  133.6030 C   0  0  0  0  0  0  0  0  0  0  0  0
  144.9400  158.8550  133.4610 C   0  0  0  0  0  0  0  0  0  0  0  0
  150.1845  154.1094  132.6270 H   0  0  0  0  0  0  0  0  0  0  0  0
  149.1446  153.7697  134.0619 H   0  0  0  0  0  0  0  0  0  0  0  0
  147.2460  152.5240  131.5520 H   0  0  0  0  0  0  0  0  0  0  0  0
  149.6160  156.4190  132.4320 H   0  0  0  0  0  0  0  0  0  0  0  0
  148.0270  156.5040  131.5560 H   0  0  0  0  0  0  0  0  0  0  0  0
  147.5701  160.7785  133.3549 H   0  0  0  0  0  0  0  0  0  0  0  0
  145.2346  162.2419  133.7360 H   0  0  0  0  0  0  0  0  0  0  0  0
  142.7568  162.0822  133.9926 H   0  0  0  0  0  0  0  0  0  0  0  0
  141.0542  159.8295  135.0133 H   0  0  0  0  0  0  0  0  0  0  0  0
  140.8409  160.7164  133.4658 H   0  0  0  0  0  0  0  0  0  0  0  0
  140.9487  158.9234  133.4658 H   0  0  0  0  0  0  0  0  0  0  0  0
  143.0596  157.7940  133.5672 H   0  0  0  0  0  0  0  0  0  0  0  0
  1  2  1  0
  2  3  1  0
  3  4  2  0
  3  5  1  0
  5  6  1  0
  6  7  1  0
  7  8  2  0
  7  9  1  0
  2 10  1  0
 10 11  2  0
 10 12  1  0
 12 13  1  0
 13 14  1  0
 14 15  1  0
 14 16  2  0
 13 17  2  0
 17 18  1  0
 18 19  2  0
 19 20  1  0
 20 21  2  0
 21 22  1  0
 21 23  1  0
 23 24  2  0
 24 12  1  0
 24 18  1  0
  6 25  1  0
  6 26  1  0
  9 27  1  0
 15 28  1  0
 15 29  1  0
 17 30  1  0
 19 31  1  0
 20 32  1  0
 22 33  1  0
 22 34  1  0
 22 35  1  0
 23 36  1  0
M  RAD  1   1   3
M  END
>  <smiles>  (49) 
[B]N(C(=O)OCC(=O)O)C(=O)n1c(C(N)=O)cc2ccc(C)cc21

>  <score_type>  (49) 
oracle

>  <origin>  (49) 
adg

>  <m_score__min__energy>  (49) 
-6.6600000000000001

>  <m_primary>  (49) 
energy

$$$$
51:0
     RDKit          3D

 50 51  0  0  1  0  0  0  0  0999 V2000
  138.4440  158.5940  131.9110 C   0  0  0  0  0  0  0  0  0  0  0  0
  139.8490  159.0550  132.1940 C   0  0  0  0  0  0  0  0  0  0  0  0
  139.8990  160.5090  132.6030 C   0  0  0  0  0  0  0  0  0  0  0  0
  140.6390  158.7820  131.0710 O   0  0  0  0  0  0  0  0  0  0  0  0
  140.3920  158.2620  133.3890 C   0  0  1  0  0  0  0  0  0  0  0  0
  140.7550  156.9500  132.9000 N   0  0  0  0  0  0  0  0  0  0  0  0
  140.5580  155.7830  133.7460 C   0  0  0  0  0  0  0  0  0  0  0  0
  140.0690  156.0920  134.8550 O   0  0  0  0  0  0  0  0  0  0  0  0
  140.9230  154.5040  133.2380 C   0  0  0  0  0  0  0  0  0  0  0  0
  139.9080  153.8060  132.8050 O   0  0  0  0  0  0  0  0  0  0  0  0
  142.1460  153.8320  133.0960 N   0  0  0  0  0  0  0  0  0  0  0  0
  142.2360  152.4700  133.1010 C   0  0  0  0  0  0  0  0  0  0  0  0
  141.2540  151.4130  133.0980 C   0  0  0  0  0  0  0  0  0  0  0  0
  140.3730  151.2430  131.9420 N   0  0  0  0  0  0  0  0  0  0  0  0
  141.0310  150.5680  133.9930 O   0  0  0  0  0  0  0  0  0  0  0  0
  143.6080  152.1490  133.0340 C   0  0  0  0  0  0  0  0  0  0  0  0
  144.3350  153.2950  132.9880 C   0  0  0  0  0  0  0  0  0  0  0  0
  145.6980  153.4840  132.9340 C   0  0  0  0  0  0  0  0  0  0  0  0
  146.2260  154.7550  132.9190 C   0  0  0  0  0  0  0  0  0  0  0  0
  145.3350  155.8020  132.9600 C   0  0  0  0  0  0  0  0  0  0  0  0
  145.8220  157.1550  132.9480 N   0  0  0  0  0  0  0  0  0  0  0  0
  145.3880  158.0000  134.0340 C   0  0  0  0  0  0  0  0  0  0  0  0
  145.3380  159.4010  133.5810 C   0  0  0  0  0  0  0  0  0  0  0  0
  146.0580  159.7620  132.5960 O   0  0  0  0  0  0  0  0  0  0  0  0
  144.5470  160.3800  134.1600 O   0  0  0  0  0  0  0  0  0  0  0  0
  143.9650  155.5920  133.0140 C   0  0  0  0  0  0  0  0  0  0  0  0
  143.4170  154.3280  133.0280 C   0  0  0  0  0  0  0  0  0  0  0  0
  141.5900  159.0130  133.8720 C   0  0  0  0  0  0  0  0  0  0  0  0
  141.6960  159.3880  135.0790 O   0  0  0  0  0  0  0  0  0  0  0  0
  142.5820  159.2850  132.9420 O   0  0  0  0  0  0  0  0  0  0  0  0
  137.9166  158.4209  132.8607 H   0  0  0  0  0  0  0  0  0  0  0  0
  137.9144  159.3655  131.3328 H   0  0  0  0  0  0  0  0  0  0  0  0
  138.4744  157.6587  131.3328 H   0  0  0  0  0  0  0  0  0  0  0  0
  139.9015  160.5813  133.7006 H   0  0  0  0  0  0  0  0  0  0  0  0
  140.8136  160.9712  132.2030 H   0  0  0  0  0  0  0  0  0  0  0  0
  139.0183  161.0329  132.2030 H   0  0  0  0  0  0  0  0  0  0  0  0
  141.5570  158.5800  131.4320 H   0  0  0  0  0  0  0  0  0  0  0  0
  139.6695  158.1454  134.2102 H   0  0  0  0  0  0  0  0  0  0  0  0
  141.1500  156.8900  131.9460 H   0  0  0  0  0  0  0  0  0  0  0  0
  140.5960  150.5010  131.2380 H   0  0  0  0  0  0  0  0  0  0  0  0
  139.5380  151.8780  131.8550 H   0  0  0  0  0  0  0  0  0  0  0  0
  144.0236  151.1306  133.0210 H   0  0  0  0  0  0  0  0  0  0  0  0
  146.3694  152.6132  132.9026 H   0  0  0  0  0  0  0  0  0  0  0  0
  147.3118  154.9258  132.8762 H   0  0  0  0  0  0  0  0  0  0  0  0
  146.4440  157.4850  132.1970 H   0  0  0  0  0  0  0  0  0  0  0  0
  144.3868  157.6862  134.3643 H   0  0  0  0  0  0  0  0  0  0  0  0
  146.0965  157.9119  134.8708 H   0  0  0  0  0  0  0  0  0  0  0  0
  143.5960  160.2690  134.4390 H   0  0  0  0  0  0  0  0  0  0  0  0
  143.2941  156.4631  133.0467 H   0  0  0  0  0  0  0  0  0  0  0  0
  142.3580  159.7030  132.0370 H   0  0  0  0  0  0  0  0  0  0  0  0
  1  2  1  0
  2  3  1  0
  2  4  1  0
  2  5  1  0
  5  6  1  0
  6  7  1  0
  7  8  2  0
  7  9  1  0
  9 10  2  0
  9 11  1  0
 11 12  1  0
 12 13  1  0
 13 14  1  0
 13 15  2  0
 12 16  2  0
 16 17  1  0
 17 18  2  0
 18 19  1  0
 19 20  2  0
 20 21  1  0
 21 22  1  0
 22 23  1  0
 23 24  2  0
 23 25  1  0
 20 26  1  0
 26 27  2  0
  5 28  1  0
 28 29  2  0
 28 30  1  0
 27 11  1  0
 27 17  1  0
  1 31  1  0
  1 32  1  0
  1 33  1  0
  3 34  1  0
  3 35  1  0
  3 36  1  0
  4 37  1  0
  5 38  1  1
  6 39  1  0
 14 40  1  0
 14 41  1  0
 16 42  1  0
 18 43  1  0
 19 44  1  0
 21 45  1  0
 22 46  1  0
 22 47  1  0
 25 48  1  0
 26 49  1  0
 30 50  1  0
M  END
>  <smiles>  (50) 
CC(C)(O)C(NC(=O)C(=O)n1c(C(N)=O)cc2ccc(NCC(=O)O)cc21)C(=O)O

>  <score_type>  (50) 
oracle

>  <origin>  (50) 
adg

>  <m_score__min__energy>  (50) 
-7.7800000000000002

>  <m_primary>  (50) 
energy

$$$$
52:0
     RDKit          3D

 55 56  0  0  0  0  0  0  0  0999 V2000
  150.4230  150.3610  130.1140 C   0  0  0  0  0  0  0  0  0  0  0  0
  149.7970  149.9420  131.3040 O   0  0  0  0  0  0  0  0  0  0  0  0
  148.9320  150.7040  132.0430 C   0  0  0  0  0  0  0  0  0  0  0  0
  147.8890  150.2380  132.6010 O   0  0  0  0  0  0  0  0  0  0  0  0
  149.2580  152.1670  132.1830 C   0  0  0  0  0  0  0  0  0  0  0  0
  148.4070  152.8240  133.1480 N   0  0  0  0  0  0  0  0  0  0  0  0
  148.4740  154.2300  133.3280 C   0  0  0  0  0  0  0  0  0  0  0  0
  149.2980  154.8640  132.6160 O   0  0  0  0  0  0  0  0  0  0  0  0
  147.5830  154.8410  134.3220 C   0  0  0  0  0  0  0  0  0  0  0  0
  146.2820  155.2480  133.6400 N   0  0  0  0  0  0  0  0  0  0  0  0
  146.4370  156.4670  133.0060 C   0  0  0  0  0  0  0  0  0  0  0  0
  147.0290  156.1870  131.8260 O   0  0  0  0  0  0  0  0  0  0  0  0
  146.2250  157.8320  133.0930 N   0  0  0  0  0  0  0  0  0  0  0  0
  147.2720  158.7240  133.0170 C   0  0  0  0  0  0  0  0  0  0  0  0
  148.6720  158.5820  132.6770 C   0  0  0  0  0  0  0  0  0  0  0  0
  149.2250  157.2590  132.3940 N   0  0  0  0  0  0  0  0  0  0  0  0
  149.5330  159.4850  132.5820 O   0  0  0  0  0  0  0  0  0  0  0  0
  146.7620  160.0190  133.2450 C   0  0  0  0  0  0  0  0  0  0  0  0
  145.4310  159.9230  133.4530 C   0  0  0  0  0  0  0  0  0  0  0  0
  144.5000  160.9030  133.7250 C   0  0  0  0  0  0  0  0  0  0  0  0
  143.1810  160.5830  133.9200 C   0  0  0  0  0  0  0  0  0  0  0  0
  142.8360  159.2560  133.8330 C   0  0  0  0  0  0  0  0  0  0  0  0
  141.4110  158.8840  134.0430 C   0  0  0  0  0  0  0  0  0  0  0  0
  143.7840  158.2940  133.5600 C   0  0  0  0  0  0  0  0  0  0  0  0
  145.1220  158.5800  133.3560 C   0  0  0  0  0  0  0  0  0  0  0  0
  145.2600  154.3130  133.8500 C   0  0  0  0  0  0  0  0  0  0  0  0
  145.3300  153.7500  135.2680 C   0  0  0  0  0  0  0  0  0  0  0  0
  143.8700  154.9960  133.6490 C   0  0  0  0  0  0  0  0  0  0  0  0
  145.1650  153.1370  132.9710 C   0  0  0  0  0  0  0  0  0  0  0  0
  143.9590  152.6770  132.8300 O   0  0  0  0  0  0  0  0  0  0  0  0
  146.1170  152.4570  132.2840 O   0  0  0  0  0  0  0  0  0  0  0  0
  151.3142  150.9575  130.3589 H   0  0  0  0  0  0  0  0  0  0  0  0
  150.7214  149.4800  129.5268 H   0  0  0  0  0  0  0  0  0  0  0  0
  149.7223  150.9728  129.5268 H   0  0  0  0  0  0  0  0  0  0  0  0
  150.3045  152.2677  132.5065 H   0  0  0  0  0  0  0  0  0  0  0  0
  149.0941  152.6453  131.2061 H   0  0  0  0  0  0  0  0  0  0  0  0
  147.7360  152.2570  133.7180 H   0  0  0  0  0  0  0  0  0  0  0  0
  147.3692  154.1155  135.1207 H   0  0  0  0  0  0  0  0  0  0  0  0
  148.0663  155.7274  134.7587 H   0  0  0  0  0  0  0  0  0  0  0  0
  148.9640  156.7360  131.5460 H   0  0  0  0  0  0  0  0  0  0  0  0
  149.9000  156.9000  133.1250 H   0  0  0  0  0  0  0  0  0  0  0  0
  147.3488  160.9494  133.2522 H   0  0  0  0  0  0  0  0  0  0  0  0
  144.8191  161.9539  133.7863 H   0  0  0  0  0  0  0  0  0  0  0  0
  142.4300  161.3569  134.1371 H   0  0  0  0  0  0  0  0  0  0  0  0
  141.2014  158.8293  135.1215 H   0  0  0  0  0  0  0  0  0  0  0  0
  140.7621  159.6428  133.5814 H   0  0  0  0  0  0  0  0  0  0  0  0
  141.2158  157.9048  133.5814 H   0  0  0  0  0  0  0  0  0  0  0  0
  143.4601  157.2444  133.5012 H   0  0  0  0  0  0  0  0  0  0  0  0
  145.2280  154.5704  135.9937 H   0  0  0  0  0  0  0  0  0  0  0  0
  144.5149  153.0262  135.4158 H   0  0  0  0  0  0  0  0  0  0  0  0
  146.2975  153.2479  135.4158 H   0  0  0  0  0  0  0  0  0  0  0  0
  143.4239  155.2152  134.6303 H   0  0  0  0  0  0  0  0  0  0  0  0
  143.9996  155.9330  133.0876 H   0  0  0  0  0  0  0  0  0  0  0  0
  143.2075  154.3208  133.0876 H   0  0  0  0  0  0  0  0  0  0  0  0
  146.6110  152.9230  131.5110 H   0  0  0  0  0  0  0  0  0  0  0  0
  1  2  1  0
  2  3  1  0
  3  4  2  0
  3  5  1  0
  5  6  1  0
  6  7  1  0
  7  8  2  0
  7  9  1  0
  9 10  1  0
 10 11  1  0
 11 12  2  0
 11 13  1  0
 13 14  1  0
 14 15  1  0
 15 16  1  0
 15 17  2  0
 14 18  2  0
 18 19  1  0
 19 20  2  0
 20 21  1  0
 21 22  2  0
 22 23  1  0
 22 24  1  0
 24 25  2  0
 10 26  1  0
 26 27  1  0
 26 28  1  0
 26 29  1  0
 29 30  2  0
 29 31  1  0
 25 13  1  0
 25 19  1  0
  1 32  1  0
  1 33  1  0
  1 34  1  0
  5 35  1  0
  5 36  1  0
  6 37  1  0
  9 38  1  0
  9 39  1  0
 16 40  1  0
 16 41  1  0
 18 42  1  0
 20 43  1  0
 21 44  1  0
 23 45  1  0
 23 46  1  0
 23 47  1  0
 24 48  1  0
 27 49  1  0
 27 50  1  0
 27 51  1  0
 28 52  1  0
 28 53  1  0
 28 54  1  0
 31 55  1  0
M  END
>  <smiles>  (51) 
COC(=O)CNC(=O)CN(C(=O)n1c(C(N)=O)cc2ccc(C)cc21)C(C)(C)C(=O)O

>  <score_type>  (51) 
oracle

>  <origin>  (51) 
adg

>  <m_score__min__energy>  (51) 
-8.3100000000000005

>  <m_primary>  (51) 
energy

$$$$
53:0
     RDKit          3D

 42 44  0  0  0  0  0  0  0  0999 V2000
  142.7240  156.0170  133.2890 N   0  0  0  0  0  0  0  0  0  0  0  0
  143.3320  154.7540  133.6500 C   0  0  0  0  0  0  0  0  0  0  0  0
  144.3930  154.8490  134.2900 O   0  0  0  0  0  0  0  0  0  0  0  0
  142.6730  153.5330  133.2480 C   0  0  0  0  0  0  0  0  0  0  0  0
  143.3510  152.3190  133.0820 C   0  0  0  0  0  0  0  0  0  0  0  0
  142.4760  151.3380  132.6980 C   0  0  0  0  0  0  0  0  0  0  0  0
  142.6550  150.0070  132.4170 C   0  0  0  0  0  0  0  0  0  0  0  0
  141.5880  149.2210  132.0450 C   0  0  0  0  0  0  0  0  0  0  0  0
  140.3500  149.8200  131.9680 C   0  0  0  0  0  0  0  0  0  0  0  0
  139.1770  148.9690  131.5610 C   0  0  0  0  0  0  0  0  0  0  0  0
  138.3970  149.6020  130.6160 F   0  0  0  0  0  0  0  0  0  0  0  0
  139.6560  147.7720  131.0360 F   0  0  0  0  0  0  0  0  0  0  0  0
  140.1830  151.1600  132.2530 C   0  0  0  0  0  0  0  0  0  0  0  0
  141.2360  151.9680  132.6280 C   0  0  0  0  0  0  0  0  0  0  0  0
  141.3900  153.2710  132.9610 N   0  0  0  0  0  0  0  0  0  0  0  0
  140.3080  154.1810  132.9850 C   0  0  0  0  0  0  0  0  0  0  0  0
  139.1240  153.7120  132.9740 O   0  0  0  0  0  0  0  0  0  0  0  0
  140.4030  155.5530  133.0170 O   0  0  0  0  0  0  0  0  0  0  0  0
  139.9310  156.3410  134.1040 C   0  0  0  0  0  0  0  0  0  0  0  0
  140.5700  157.5930  134.0840 O   0  0  0  0  0  0  0  0  0  0  0  0
  140.8900  158.2590  132.9360 C   0  0  0  0  0  0  0  0  0  0  0  0
  142.0940  158.3840  132.5920 O   0  0  0  0  0  0  0  0  0  0  0  0
  139.8120  158.8010  132.1500 N   0  0  0  0  0  0  0  0  0  0  0  0
  138.3640  158.8550  132.2230 C   0  0  0  0  0  0  0  0  0  0  0  0
  138.3870  160.1250  131.4000 C   0  0  0  0  0  0  0  0  0  0  0  0
  137.4320  160.1600  130.3820 O   0  0  0  0  0  0  0  0  0  0  0  0
  139.7060  159.5600  130.8960 C   0  0  0  0  0  0  0  0  0  0  0  0
  142.6060  156.7820  133.9910 H   0  0  0  0  0  0  0  0  0  0  0  0
  142.4050  156.1400  132.2940 H   0  0  0  0  0  0  0  0  0  0  0  0
  144.4303  152.1743  133.2376 H   0  0  0  0  0  0  0  0  0  0  0  0
  143.6594  149.5644  132.4896 H   0  0  0  0  0  0  0  0  0  0  0  0
  141.7192  148.1528  131.8174 H   0  0  0  0  0  0  0  0  0  0  0  0
  138.5525  148.7849  132.4476 H   0  0  0  0  0  0  0  0  0  0  0  0
  139.1768  151.5981  132.1786 H   0  0  0  0  0  0  0  0  0  0  0  0
  138.8441  156.4820  134.0105 H   0  0  0  0  0  0  0  0  0  0  0  0
  140.1529  155.8299  135.0524 H   0  0  0  0  0  0  0  0  0  0  0  0
  137.8554  158.0101  131.7356 H   0  0  0  0  0  0  0  0  0  0  0  0
  137.8482  158.8233  133.1941 H   0  0  0  0  0  0  0  0  0  0  0  0
  138.2452  161.1250  131.8358 H   0  0  0  0  0  0  0  0  0  0  0  0
  137.3170  159.2670  129.9640 H   0  0  0  0  0  0  0  0  0  0  0  0
  139.6195  158.9378  129.9930 H   0  0  0  0  0  0  0  0  0  0  0  0
  140.5181  160.2204  130.5579 H   0  0  0  0  0  0  0  0  0  0  0  0
  1  2  1  0
  2  3  2  0
  2  4  1  0
  4  5  2  0
  5  6  1  0
  6  7  2  0
  7  8  1  0
  8  9  2  0
  9 10  1  0
 10 11  1  0
 10 12  1  0
  9 13  1  0
 13 14  2  0
 14 15  1  0
 15 16  1  0
 16 17  2  0
 16 18  1  0
 18 19  1  0
 19 20  1  0
 20 21  1  0
 21 22  2  0
 21 23  1  0
 23 24  1  0
 24 25  1  0
 25 26  1  0
 25 27  1  0
 15  4  1  0
 27 23  1  0
 14  6  1  0
  1 28  1  0
  1 29  1  0
  5 30  1  0
  7 31  1  0
  8 32  1  0
 10 33  1  0
 13 34  1  0
 19 35  1  0
 19 36  1  0
 24 37  1  0
 24 38  1  0
 25 39  1  0
 26 40  1  0
 27 41  1  0
 27 42  1  0
M  END
>  <smiles>  (52) 
NC(=O)c1cc2ccc(C(F)F)cc2n1C(=O)OCOC(=O)N1CC(O)C1

>  <score_type>  (52) 
oracle

>  <origin>  (52) 
adg

>  <m_score__min__energy>  (52) 
-6.7999999999999998

>  <m_primary>  (52) 
energy

$$$$
54:0
     RDKit          3D

 50 51  0  0  1  0  0  0  0  0999 V2000
  148.4710  153.7180  132.7990 C   0  0  0  0  0  0  0  0  0  0  0  0
  148.0970  154.8590  132.9120 C   0  0  0  0  0  0  0  0  0  0  0  0
  147.6460  156.2150  133.0350 C   0  0  0  0  0  0  0  0  0  0  0  0
  148.5910  157.2090  133.0080 C   0  0  0  0  0  0  0  0  0  0  0  0
  148.1550  158.5040  133.1260 C   0  0  0  0  0  0  0  0  0  0  0  0
  146.8030  158.7780  133.2680 C   0  0  0  0  0  0  0  0  0  0  0  0
  146.1860  159.9750  133.3930 C   0  0  0  0  0  0  0  0  0  0  0  0
  144.8250  159.6790  133.4990 C   0  0  0  0  0  0  0  0  0  0  0  0
  143.9150  160.8240  133.7210 C   0  0  0  0  0  0  0  0  0  0  0  0
  142.5080  160.6880  133.6970 N   0  0  0  0  0  0  0  0  0  0  0  0
  144.5110  161.9200  133.9320 O   0  0  0  0  0  0  0  0  0  0  0  0
  144.5700  158.3810  133.4410 N   0  0  0  0  0  0  0  0  0  0  0  0
  143.4330  157.5850  133.2930 C   0  0  0  0  0  0  0  0  0  0  0  0
  143.2770  157.1970  132.0230 O   0  0  0  0  0  0  0  0  0  0  0  0
  142.4060  157.0940  134.0790 N   0  0  0  0  0  0  0  0  0  0  0  0
  142.7840  155.8860  134.8710 C   0  0  0  0  0  0  0  0  0  0  0  0
  143.8570  155.8470  135.5050 O   0  0  0  0  0  0  0  0  0  0  0  0
  141.9620  154.7930  134.9180 O   0  0  0  0  0  0  0  0  0  0  0  0
  141.7750  153.9060  133.8250 C   0  0  0  0  0  0  0  0  0  0  0  0
  141.7610  152.4760  134.3450 C   0  0  0  0  0  0  0  0  0  0  0  0
  140.5620  154.1930  133.0060 C   0  0  0  0  0  0  0  0  0  0  0  0
  143.0020  154.0220  132.9450 C   0  0  0  0  0  0  0  0  0  0  0  0
  141.0470  157.4680  134.3250 C   0  0  1  0  0  0  0  0  0  0  0  0
  140.6560  157.6460  135.7740 C   0  0  0  0  0  0  0  0  0  0  0  0
  140.6650  158.6350  133.5460 C   0  0  0  0  0  0  0  0  0  0  0  0
  140.2170  159.7220  134.0380 O   0  0  0  0  0  0  0  0  0  0  0  0
  140.7980  158.5670  132.1510 O   0  0  0  0  0  0  0  0  0  0  0  0
  145.8340  157.8150  133.2990 C   0  0  0  0  0  0  0  0  0  0  0  0
  146.2860  156.5120  133.1790 C   0  0  0  0  0  0  0  0  0  0  0  0
  148.8121  152.6773  132.6959 H   0  0  0  0  0  0  0  0  0  0  0  0
  149.6601  156.9758  132.8957 H   0  0  0  0  0  0  0  0  0  0  0  0
  148.8816  159.3297  133.1079 H   0  0  0  0  0  0  0  0  0  0  0  0
  146.6558  160.9695  133.4080 H   0  0  0  0  0  0  0  0  0  0  0  0
  141.8630  161.0620  134.4260 H   0  0  0  0  0  0  0  0  0  0  0  0
  142.1040  160.1660  132.8650 H   0  0  0  0  0  0  0  0  0  0  0  0
  141.7611  152.4858  135.4450 H   0  0  0  0  0  0  0  0  0  0  0  0
  140.8578  151.9630  133.9830 H   0  0  0  0  0  0  0  0  0  0  0  0
  142.6540  151.9454  133.9830 H   0  0  0  0  0  0  0  0  0  0  0  0
  139.7096  154.3947  133.6714 H   0  0  0  0  0  0  0  0  0  0  0  0
  140.7477  155.0720  132.3713 H   0  0  0  0  0  0  0  0  0  0  0  0
  140.3341  153.3240  132.3713 H   0  0  0  0  0  0  0  0  0  0  0  0
  143.8990  154.1068  133.5760 H   0  0  0  0  0  0  0  0  0  0  0  0
  143.0836  153.1276  132.3099 H   0  0  0  0  0  0  0  0  0  0  0  0
  142.9146  154.9159  132.3099 H   0  0  0  0  0  0  0  0  0  0  0  0
  140.4758  156.5895  133.9902 H   0  0  0  0  0  0  0  0  0  0  0  0
  141.4661  157.2772  136.4203 H   0  0  0  0  0  0  0  0  0  0  0  0
  140.4808  158.7126  135.9781 H   0  0  0  0  0  0  0  0  0  0  0  0
  139.7365  157.0777  135.9781 H   0  0  0  0  0  0  0  0  0  0  0  0
  141.7390  158.6050  131.7850 H   0  0  0  0  0  0  0  0  0  0  0  0
  145.5570  155.6884  133.1973 H   0  0  0  0  0  0  0  0  0  0  0  0
  1  2  3  0
  2  3  1  0
  3  4  2  0
  4  5  1  0
  5  6  2  0
  6  7  1  0
  7  8  2  0
  8  9  1  0
  9 10  1  0
  9 11  2  0
  8 12  1  0
 12 13  1  0
 13 14  2  0
 13 15  1  0
 15 16  1  0
 16 17  2  0
 16 18  1  0
 18 19  1  0
 19 20  1  0
 19 21  1  0
 19 22  1  0
 15 23  1  0
 23 24  1  0
 23 25  1  0
 25 26  2  0
 25 27  1  0
 12 28  1  0
 28 29  2  0
 29  3  1  0
 28  6  1  0
  1 30  1  0
  4 31  1  0
  5 32  1  0
  7 33  1  0
 10 34  1  0
 10 35  1  0
 20 36  1  0
 20 37  1  0
 20 38  1  0
 21 39  1  0
 21 40  1  0
 21 41  1  0
 22 42  1  0
 22 43  1  0
 22 44  1  0
 23 45  1  6
 24 46  1  0
 24 47  1  0
 24 48  1  0
 27 49  1  0
 29 50  1  0
M  END
>  <smiles>  (53) 
C#Cc1ccc2cc(C(N)=O)n(C(=O)N(C(=O)OC(C)(C)C)C(C)C(=O)O)c2c1

>  <score_type>  (53) 
oracle

>  <origin>  (53) 
adg

>  <m_score__min__energy>  (53) 
-7.8200000000000003

>  <m_primary>  (53) 
energy

$$$$
55:0
     RDKit          3D

 67 70  0  0  0  0  0  0  0  0999 V2000
  140.9230  148.6070  131.5060 C   0  0  0  0  0  0  0  0  0  0  0  0
  140.0530  149.2560  132.5580 C   0  0  0  0  0  0  0  0  0  0  0  0
  139.3390  150.4540  131.9690 C   0  0  0  0  0  0  0  0  0  0  0  0
  140.7490  149.5480  133.7350 O   0  0  0  0  0  0  0  0  0  0  0  0
  141.2290  150.7680  134.1340 C   0  0  0  0  0  0  0  0  0  0  0  0
  141.0270  151.2070  135.3060 O   0  0  0  0  0  0  0  0  0  0  0  0
  141.9780  151.5590  133.2000 N   0  0  0  0  0  0  0  0  0  0  0  0
  141.5270  152.9100  132.8340 C   0  0  0  0  0  0  0  0  0  0  0  0
  142.8250  153.6830  132.5740 C   0  0  0  0  0  0  0  0  0  0  0  0
  143.8720  153.2060  133.5860 C   0  0  0  0  0  0  0  0  0  0  0  0
  144.3580  151.8440  133.1450 C   0  0  2  0  0  0  0  0  0  0  0  0
  145.4490  151.9530  132.1950 N   0  0  0  0  0  0  0  0  0  0  0  0
  146.6330  152.6940  132.4420 C   0  0  0  0  0  0  0  0  0  0  0  0
  146.5670  154.0800  132.6080 C   0  0  0  0  0  0  0  0  0  0  0  0
  147.7030  154.8270  132.8500 C   0  0  0  0  0  0  0  0  0  0  0  0
  147.5680  156.2680  133.0140 C   0  0  0  0  0  0  0  0  0  0  0  0
  148.7090  157.0250  132.8550 C   0  0  0  0  0  0  0  0  0  0  0  0
  148.6330  158.3920  133.0010 C   0  0  0  0  0  0  0  0  0  0  0  0
  147.4110  158.9750  133.3040 C   0  0  0  0  0  0  0  0  0  0  0  0
  147.0690  160.2750  133.4950 C   0  0  0  0  0  0  0  0  0  0  0  0
  145.7070  160.3660  133.7780 C   0  0  0  0  0  0  0  0  0  0  0  0
  145.0370  161.6240  134.0320 C   0  0  0  0  0  0  0  0  0  0  0  0
  143.7470  161.8580  133.4410 N   0  0  0  0  0  0  0  0  0  0  0  0
  145.4710  162.5650  134.7340 O   0  0  0  0  0  0  0  0  0  0  0  0
  145.2370  159.1070  133.7550 N   0  0  0  0  0  0  0  0  0  0  0  0
  143.9030  158.6930  133.9850 C   0  0  0  0  0  0  0  0  0  0  0  0
  143.3800  157.6560  133.5090 O   0  0  0  0  0  0  0  0  0  0  0  0
  143.0610  159.4560  134.7980 O   0  0  0  0  0  0  0  0  0  0  0  0
  141.7190  159.0160  135.0580 C   0  0  0  0  0  0  0  0  0  0  0  0
  140.9290  159.3010  133.8380 C   0  0  0  0  0  0  0  0  0  0  0  0
  139.6850  159.1700  133.7510 O   0  0  0  0  0  0  0  0  0  0  0  0
  141.5790  159.7490  132.6770 O   0  0  0  0  0  0  0  0  0  0  0  0
  146.2530  158.2450  133.4670 C   0  0  0  0  0  0  0  0  0  0  0  0
  146.3580  156.8780  133.3170 C   0  0  0  0  0  0  0  0  0  0  0  0
  148.9090  154.1630  132.9220 C   0  0  0  0  0  0  0  0  0  0  0  0
  148.9250  152.7920  132.7520 C   0  0  0  0  0  0  0  0  0  0  0  0
  147.8180  152.0640  132.5160 N   0  0  0  0  0  0  0  0  0  0  0  0
  143.1960  151.0520  132.5940 C   0  0  0  0  0  0  0  0  0  0  0  0
  141.7126  148.0180  131.9955 H   0  0  0  0  0  0  0  0  0  0  0  0
  140.3077  147.9454  130.8785 H   0  0  0  0  0  0  0  0  0  0  0  0
  141.3818  149.3853  130.8785 H   0  0  0  0  0  0  0  0  0  0  0  0
  139.2872  148.5295  132.8676 H   0  0  0  0  0  0  0  0  0  0  0  0
  138.9595  151.0908  132.7817 H   0  0  0  0  0  0  0  0  0  0  0  0
  140.0409  151.0307  131.3486 H   0  0  0  0  0  0  0  0  0  0  0  0
  138.4978  150.1110  131.3486 H   0  0  0  0  0  0  0  0  0  0  0  0
  140.9025  152.8809  131.9289 H   0  0  0  0  0  0  0  0  0  0  0  0
  140.9100  153.3745  133.6173 H   0  0  0  0  0  0  0  0  0  0  0  0
  143.1780  153.4861  131.5510 H   0  0  0  0  0  0  0  0  0  0  0  0
  142.6538  154.7641  132.6827 H   0  0  0  0  0  0  0  0  0  0  0  0
  144.7145  153.9127  133.6132 H   0  0  0  0  0  0  0  0  0  0  0  0
  143.4332  153.1486  134.5930 H   0  0  0  0  0  0  0  0  0  0  0  0
  144.7625  151.3047  134.0142 H   0  0  0  0  0  0  0  0  0  0  0  0
  145.3420  151.4490  131.2740 H   0  0  0  0  0  0  0  0  0  0  0  0
  145.5920  154.5854  132.5447 H   0  0  0  0  0  0  0  0  0  0  0  0
  149.6681  156.5430  132.6145 H   0  0  0  0  0  0  0  0  0  0  0  0
  149.5313  159.0150  132.8788 H   0  0  0  0  0  0  0  0  0  0  0  0
  147.7617  161.1274  133.4354 H   0  0  0  0  0  0  0  0  0  0  0  0
  143.6130  162.7500  132.9250 H   0  0  0  0  0  0  0  0  0  0  0  0
  142.9680  161.1600  133.5260 H   0  0  0  0  0  0  0  0  0  0  0  0
  141.7093  157.9370  135.2715 H   0  0  0  0  0  0  0  0  0  0  0  0
  141.2965  159.5352  135.9309 H   0  0  0  0  0  0  0  0  0  0  0  0
  142.5580  159.4510  132.5350 H   0  0  0  0  0  0  0  0  0  0  0  0
  145.4600  156.2549  133.4406 H   0  0  0  0  0  0  0  0  0  0  0  0
  149.8416  154.7147  133.1114 H   0  0  0  0  0  0  0  0  0  0  0  0
  149.8910  152.2693  132.8126 H   0  0  0  0  0  0  0  0  0  0  0  0
  143.1472  151.1722  131.5017 H   0  0  0  0  0  0  0  0  0  0  0  0
  143.3199  149.9833  132.8232 H   0  0  0  0  0  0  0  0  0  0  0  0
  1  2  1  0
  2  3  1  0
  2  4  1  0
  4  5  1  0
  5  6  2  0
  5  7  1  0
  7  8  1  0
  8  9  1  0
  9 10  1  0
 10 11  1  0
 11 12  1  0
 12 13  1  0
 13 14  2  0
 14 15  1  0
 15 16  1  0
 16 17  2  0
 17 18  1  0
 18 19  2  0
 19 20  1  0
 20 21  2  0
 21 22  1  0
 22 23  1  0
 22 24  2  0
 21 25  1  0
 25 26  1  0
 26 27  2  0
 26 28  1  0
 28 29  1  0
 29 30  1  0
 30 31  2  0
 30 32  1  0
 25 33  1  0
 33 34  2  0
 15 35  2  0
 35 36  1  0
 36 37  2  0
 11 38  1  0
 38  7  1  0
 37 13  1  0
 34 16  1  0
 33 19  1  0
  1 39  1  0
  1 40  1  0
  1 41  1  0
  2 42  1  0
  3 43  1  0
  3 44  1  0
  3 45  1  0
  8 46  1  0
  8 47  1  0
  9 48  1  0
  9 49  1  0
 10 50  1  0
 10 51  1  0
 11 52  1  1
 12 53  1  0
 14 54  1  0
 17 55  1  0
 18 56  1  0
 20 57  1  0
 23 58  1  0
 23 59  1  0
 29 60  1  0
 29 61  1  0
 32 62  1  0
 34 63  1  0
 35 64  1  0
 36 65  1  0
 38 66  1  0
 38 67  1  0
M  END
>  <smiles>  (54) 
CC(C)OC(=O)N1CCC[C@H](Nc2cc(-c3ccc4cc(C(N)=O)n(C(=O)OCC(=O)O)c4c3)ccn2)C1

>  <score_type>  (54) 
oracle

>  <origin>  (54) 
adg

>  <m_score__min__energy>  (54) 
-10.17

>  <m_primary>  (54) 
energy

$$$$
56:0
     RDKit          3D

 49 50  0  0  0  0  0  0  0  0999 V2000
  145.3580  160.4030  133.3550 C   0  0  0  0  0  0  0  0  0  0  0  0
  146.2450  159.2160  133.3190 C   0  0  0  0  0  0  0  0  0  0  0  0
  147.5830  159.4010  133.4760 C   0  0  0  0  0  0  0  0  0  0  0  0
  148.4250  158.3150  133.4510 C   0  0  0  0  0  0  0  0  0  0  0  0
  147.8630  157.0630  133.2620 C   0  0  0  0  0  0  0  0  0  0  0  0
  148.4830  155.8530  133.2010 C   0  0  0  0  0  0  0  0  0  0  0  0
  147.4780  154.9250  133.0030 C   0  0  0  0  0  0  0  0  0  0  0  0
  147.8090  153.4830  133.0210 C   0  0  0  0  0  0  0  0  0  0  0  0
  146.8710  152.5080  132.5970 N   0  0  0  0  0  0  0  0  0  0  0  0
  148.9260  153.0500  133.4090 O   0  0  0  0  0  0  0  0  0  0  0  0
  146.2680  155.4850  132.9290 N   0  0  0  0  0  0  0  0  0  0  0  0
  145.0090  155.0570  132.5500 C   0  0  0  0  0  0  0  0  0  0  0  0
  145.0100  154.3170  131.4530 O   0  0  0  0  0  0  0  0  0  0  0  0
  143.7000  155.2000  133.0400 N   0  0  0  0  0  0  0  0  0  0  0  0
  143.0680  156.3080  133.6010 C   0  0  0  0  0  0  0  0  0  0  0  0
  143.0930  156.6420  134.8330 O   0  0  0  0  0  0  0  0  0  0  0  0
  142.3020  157.2160  132.8290 O   0  0  0  0  0  0  0  0  0  0  0  0
  142.9360  153.9380  133.0470 C   0  0  2  0  0  0  0  0  0  0  0  0
  141.5730  154.1940  133.6250 C   0  0  0  0  0  0  0  0  0  0  0  0
  143.5740  152.8170  133.7700 C   0  0  0  0  0  0  0  0  0  0  0  0
  143.6410  151.5600  132.9720 C   0  0  0  0  0  0  0  0  0  0  0  0
  144.6980  151.3240  132.3260 O   0  0  0  0  0  0  0  0  0  0  0  0
  142.5370  150.6670  132.9510 N   0  0  0  0  0  0  0  0  0  0  0  0
  142.6350  149.4420  132.1890 C   0  0  0  0  0  0  0  0  0  0  0  0
  141.3240  150.9900  133.6710 C   0  0  0  0  0  0  0  0  0  0  0  0
  146.5280  156.8370  133.1010 C   0  0  0  0  0  0  0  0  0  0  0  0
  145.7050  157.9570  133.1330 C   0  0  0  0  0  0  0  0  0  0  0  0
  145.1537  160.6765  134.4007 H   0  0  0  0  0  0  0  0  0  0  0  0
  145.8505  161.2443  132.8455 H   0  0  0  0  0  0  0  0  0  0  0  0
  144.4116  160.1691  132.8455 H   0  0  0  0  0  0  0  0  0  0  0  0
  147.9887  160.4130  133.6220 H   0  0  0  0  0  0  0  0  0  0  0  0
  149.5110  158.4362  133.5771 H   0  0  0  0  0  0  0  0  0  0  0  0
  149.5612  155.6545  133.2907 H   0  0  0  0  0  0  0  0  0  0  0  0
  146.7150  151.6320  133.1560 H   0  0  0  0  0  0  0  0  0  0  0  0
  146.3130  152.6330  131.7270 H   0  0  0  0  0  0  0  0  0  0  0  0
  142.0710  157.0070  131.8630 H   0  0  0  0  0  0  0  0  0  0  0  0
  142.8850  153.6145  131.9969 H   0  0  0  0  0  0  0  0  0  0  0  0
  141.6325  154.1828  134.7233 H   0  0  0  0  0  0  0  0  0  0  0  0
  141.2101  155.1760  133.2874 H   0  0  0  0  0  0  0  0  0  0  0  0
  140.8785  153.4106  133.2874 H   0  0  0  0  0  0  0  0  0  0  0  0
  144.5983  153.1139  134.0397 H   0  0  0  0  0  0  0  0  0  0  0  0
  142.9554  152.6073  134.6551 H   0  0  0  0  0  0  0  0  0  0  0  0
  142.7034  148.5866  132.8772 H   0  0  0  0  0  0  0  0  0  0  0  0
  141.7428  149.3321  131.5551 H   0  0  0  0  0  0  0  0  0  0  0  0
  143.5333  149.4754  131.5551 H   0  0  0  0  0  0  0  0  0  0  0  0
  141.5153  150.9391  134.7530 H   0  0  0  0  0  0  0  0  0  0  0  0
  140.9984  152.0061  133.4036 H   0  0  0  0  0  0  0  0  0  0  0  0
  140.5362  150.2703  133.4036 H   0  0  0  0  0  0  0  0  0  0  0  0
  144.6181  157.8408  133.0096 H   0  0  0  0  0  0  0  0  0  0  0  0
  1  2  1  0
  2  3  2  0
  3  4  1  0
  4  5  2  0
  5  6  1  0
  6  7  2  0
  7  8  1  0
  8  9  1  0
  8 10  2  0
  7 11  1  0
 11 12  1  0
 12 13  2  0
 12 14  1  0
 14 15  1  0
 15 16  2  0
 15 17  1  0
 14 18  1  0
 18 19  1  0
 18 20  1  0
 20 21  1  0
 21 22  2  0
 21 23  1  0
 23 24  1  0
 23 25  1  0
 11 26  1  0
 26 27  2  0
 27  2  1  0
 26  5  1  0
  1 28  1  0
  1 29  1  0
  1 30  1  0
  3 31  1  0
  4 32  1  0
  6 33  1  0
  9 34  1  0
  9 35  1  0
 17 36  1  0
 18 37  1  6
 19 38  1  0
 19 39  1  0
 19 40  1  0
 20 41  1  0
 20 42  1  0
 24 43  1  0
 24 44  1  0
 24 45  1  0
 25 46  1  0
 25 47  1  0
 25 48  1  0
 27 49  1  0
M  END
>  <smiles>  (55) 
Cc1ccc2cc(C(N)=O)n(C(=O)N(C(=O)O)[C@H](C)CC(=O)N(C)C)c2c1

>  <score_type>  (55) 
oracle

>  <origin>  (55) 
adg

>  <m_score__min__energy>  (55) 
-7.2400000000000002

>  <m_primary>  (55) 
energy

$$$$
57:0
     RDKit          3D

 36 37  0  0  0  0  0  0  0  0999 V2000
  145.4460  160.4970  133.7190 C   0  0  0  0  0  0  0  0  0  0  0  0
  146.3850  159.3870  133.4100 C   0  0  0  0  0  0  0  0  0  0  0  0
  147.6710  159.7120  133.0490 C   0  0  0  0  0  0  0  0  0  0  0  0
  148.5360  158.6820  132.7630 C   0  0  0  0  0  0  0  0  0  0  0  0
  148.1040  157.3630  132.8440 C   0  0  0  0  0  0  0  0  0  0  0  0
  148.7870  156.2250  132.6060 C   0  0  0  0  0  0  0  0  0  0  0  0
  147.8840  155.1750  132.8340 C   0  0  0  0  0  0  0  0  0  0  0  0
  148.3770  153.8010  132.7350 C   0  0  0  0  0  0  0  0  0  0  0  0
  147.4450  152.7100  132.5540 N   0  0  0  0  0  0  0  0  0  0  0  0
  149.5760  153.4590  132.7960 O   0  0  0  0  0  0  0  0  0  0  0  0
  146.6850  155.6320  133.1920 N   0  0  0  0  0  0  0  0  0  0  0  0
  145.4220  155.0530  133.3320 C   0  0  0  0  0  0  0  0  0  0  0  0
  144.9450  155.1460  134.5590 O   0  0  0  0  0  0  0  0  0  0  0  0
  144.5400  154.4080  132.4730 N   0  0  0  0  0  0  0  0  0  0  0  0
  144.3530  154.4820  131.0550 C   0  0  0  0  0  0  0  0  0  0  0  0
  143.6000  153.4360  133.1320 C   0  0  0  0  0  0  0  0  0  0  0  0
  143.9930  152.0440  132.7940 C   0  0  0  0  0  0  0  0  0  0  0  0
  143.1170  151.1550  132.9600 O   0  0  0  0  0  0  0  0  0  0  0  0
  145.2420  151.6920  132.3190 O   0  0  0  0  0  0  0  0  0  0  0  0
  146.8310  157.0070  133.2020 C   0  0  0  0  0  0  0  0  0  0  0  0
  145.9680  158.0540  133.4860 C   0  0  0  0  0  0  0  0  0  0  0  0
  145.3536  160.6062  134.8097 H   0  0  0  0  0  0  0  0  0  0  0  0
  145.8304  161.4332  133.2880 H   0  0  0  0  0  0  0  0  0  0  0  0
  144.4590  160.2731  133.2880 H   0  0  0  0  0  0  0  0  0  0  0  0
  147.9972  160.7609  132.9909 H   0  0  0  0  0  0  0  0  0  0  0  0
  149.5729  158.9023  132.4692 H   0  0  0  0  0  0  0  0  0  0  0  0
  149.8388  156.1373  132.2960 H   0  0  0  0  0  0  0  0  0  0  0  0
  147.1650  152.0950  133.3570 H   0  0  0  0  0  0  0  0  0  0  0  0
  147.0930  152.5990  131.5810 H   0  0  0  0  0  0  0  0  0  0  0  0
  143.3503  154.8787  130.8376 H   0  0  0  0  0  0  0  0  0  0  0  0
  145.1130  155.1472  130.6191 H   0  0  0  0  0  0  0  0  0  0  0  0
  144.4521  153.4769  130.6191 H   0  0  0  0  0  0  0  0  0  0  0  0
  143.6408  153.5718  134.2228 H   0  0  0  0  0  0  0  0  0  0  0  0
  142.5771  153.6209  132.7721 H   0  0  0  0  0  0  0  0  0  0  0  0
  145.3680  151.3170  131.3750 H   0  0  0  0  0  0  0  0  0  0  0  0
  144.9311  157.8313  133.7779 H   0  0  0  0  0  0  0  0  0  0  0  0
  1  2  1  0
  2  3  2  0
  3  4  1  0
  4  5  2  0
  5  6  1  0
  6  7  2  0
  7  8  1  0
  8  9  1  0
  8 10  2  0
  7 11  1  0
 11 12  1  0
 12 13  2  0
 12 14  1  0
 14 15  1  0
 14 16  1  0
 16 17  1  0
 17 18  2  0
 17 19  1  0
 11 20  1  0
 20 21  2  0
 21  2  1  0
 20  5  1  0
  1 22  1  0
  1 23  1  0
  1 24  1  0
  3 25  1  0
  4 26  1  0
  6 27  1  0
  9 28  1  0
  9 29  1  0
 15 30  1  0
 15 31  1  0
 15 32  1  0
 16 33  1  0
 16 34  1  0
 19 35  1  0
 21 36  1  0
M  END
>  <smiles>  (56) 
Cc1ccc2cc(C(N)=O)n(C(=O)N(C)CC(=O)O)c2c1

>  <score_type>  (56) 
oracle

>  <origin>  (56) 
adg

>  <m_score__min__energy>  (56) 
-6.4199999999999999

>  <m_primary>  (56) 
energy

$$$$
58:0
     RDKit          3D

 46 48  0  0  0  0  0  0  0  0999 V2000
  147.4210  152.8790  132.6630 N   0  0  0  0  0  0  0  0  0  0  0  0
  148.1330  154.0880  132.7190 C   0  0  0  0  0  0  0  0  0  0  0  0
  149.4190  153.9190  132.6040 O   0  0  0  0  0  0  0  0  0  0  0  0
  147.6700  155.4390  132.8730 C   0  0  0  0  0  0  0  0  0  0  0  0
  148.5830  156.5060  132.7210 C   0  0  0  0  0  0  0  0  0  0  0  0
  147.9150  157.6810  132.9040 C   0  0  0  0  0  0  0  0  0  0  0  0
  148.3790  158.9790  132.8920 C   0  0  0  0  0  0  0  0  0  0  0  0
  147.5280  160.0310  133.1570 C   0  0  0  0  0  0  0  0  0  0  0  0
  146.2160  159.7180  133.4300 C   0  0  0  0  0  0  0  0  0  0  0  0
  145.2210  160.8100  133.7310 C   0  0  0  0  0  0  0  0  0  0  0  0
  144.2110  160.3290  134.5120 F   0  0  0  0  0  0  0  0  0  0  0  0
  145.8530  161.8210  134.4680 F   0  0  0  0  0  0  0  0  0  0  0  0
  145.7740  158.4160  133.4360 C   0  0  0  0  0  0  0  0  0  0  0  0
  146.6120  157.3340  133.1670 C   0  0  0  0  0  0  0  0  0  0  0  0
  146.4340  155.9870  133.1530 N   0  0  0  0  0  0  0  0  0  0  0  0
  145.2770  155.2160  133.2080 C   0  0  0  0  0  0  0  0  0  0  0  0
  145.1900  154.3480  132.2320 O   0  0  0  0  0  0  0  0  0  0  0  0
  144.1690  155.1530  134.0570 N   0  0  0  0  0  0  0  0  0  0  0  0
  143.0900  156.0780  134.2690 C   0  0  0  0  0  0  0  0  0  0  0  0
  141.7480  155.3460  134.4520 C   0  0  0  0  0  0  0  0  0  0  0  0
  141.8590  153.9860  133.9670 N   0  0  0  0  0  0  0  0  0  0  0  0
  140.9880  153.4780  132.9400 C   0  0  0  0  0  0  0  0  0  0  0  0
  139.8820  154.0320  132.7480 O   0  0  0  0  0  0  0  0  0  0  0  0
  141.4090  152.3910  132.1980 O   0  0  0  0  0  0  0  0  0  0  0  0
  142.8850  153.1610  134.5590 C   0  0  0  0  0  0  0  0  0  0  0  0
  144.0910  153.9380  134.9230 C   0  0  2  0  0  0  0  0  0  0  0  0
  144.1800  154.4090  136.3390 C   0  0  0  0  0  0  0  0  0  0  0  0
  145.2420  153.8100  137.0230 O   0  0  0  0  0  0  0  0  0  0  0  0
  146.8080  152.6170  131.8550 H   0  0  0  0  0  0  0  0  0  0  0  0
  147.4590  152.1360  133.4270 H   0  0  0  0  0  0  0  0  0  0  0  0
  149.6544  156.4060  132.4930 H   0  0  0  0  0  0  0  0  0  0  0  0
  149.4377  159.1773  132.6690 H   0  0  0  0  0  0  0  0  0  0  0  0
  147.8816  161.0726  133.1505 H   0  0  0  0  0  0  0  0  0  0  0  0
  144.8272  161.1879  132.7760 H   0  0  0  0  0  0  0  0  0  0  0  0
  144.7156  158.2196  133.6623 H   0  0  0  0  0  0  0  0  0  0  0  0
  143.2997  156.6713  135.1713 H   0  0  0  0  0  0  0  0  0  0  0  0
  143.0119  156.7264  133.3839 H   0  0  0  0  0  0  0  0  0  0  0  0
  141.4825  155.3322  135.5194 H   0  0  0  0  0  0  0  0  0  0  0  0
  140.9678  155.8716  133.8819 H   0  0  0  0  0  0  0  0  0  0  0  0
  142.1040  152.5490  131.4660 H   0  0  0  0  0  0  0  0  0  0  0  0
  142.4801  152.6904  135.4671 H   0  0  0  0  0  0  0  0  0  0  0  0
  143.1823  152.4080  133.8143 H   0  0  0  0  0  0  0  0  0  0  0  0
  144.9187  153.2278  134.7798 H   0  0  0  0  0  0  0  0  0  0  0  0
  144.3249  155.4994  136.3424 H   0  0  0  0  0  0  0  0  0  0  0  0
  143.2462  154.1309  136.8496 H   0  0  0  0  0  0  0  0  0  0  0  0
  145.4770  154.3800  137.8070 H   0  0  0  0  0  0  0  0  0  0  0  0
  1  2  1  0
  2  3  2  0
  2  4  1  0
  4  5  2  0
  5  6  1  0
  6  7  2  0
  7  8  1  0
  8  9  2  0
  9 10  1  0
 10 11  1  0
 10 12  1  0
  9 13  1  0
 13 14  2  0
 14 15  1  0
 15 16  1  0
 16 17  2  0
 16 18  1  0
 18 19  1  0
 19 20  1  0
 20 21  1  0
 21 22  1  0
 22 23  2  0
 22 24  1  0
 21 25  1  0
 25 26  1  0
 26 27  1  0
 27 28  1  0
 15  4  1  0
 26 18  1  0
 14  6  1  0
  1 29  1  0
  1 30  1  0
  5 31  1  0
  7 32  1  0
  8 33  1  0
 10 34  1  0
 13 35  1  0
 19 36  1  0
 19 37  1  0
 20 38  1  0
 20 39  1  0
 24 40  1  0
 25 41  1  0
 25 42  1  0
 26 43  1  6
 27 44  1  0
 27 45  1  0
 28 46  1  0
M  END
>  <smiles>  (57) 
NC(=O)c1cc2ccc(C(F)F)cc2n1C(=O)N1CCN(C(=O)O)C[C@@H]1CO

>  <score_type>  (57) 
oracle

>  <origin>  (57) 
adg

>  <m_score__min__energy>  (57) 
-7.3399999999999999

>  <m_primary>  (57) 
energy

$$$$
59:0
     RDKit          3D

 43 44  0  0  1  0  0  0  0  0999 V2000
  149.9800  151.1410  132.5430 C   0  0  0  0  0  0  0  0  0  0  0  0
  149.0700  151.9690  133.2890 O   0  0  0  0  0  0  0  0  0  0  0  0
  148.7200  153.2330  132.8380 C   0  0  0  0  0  0  0  0  0  0  0  0
  149.4730  153.8920  132.0700 O   0  0  0  0  0  0  0  0  0  0  0  0
  147.4470  153.8600  133.2390 C   0  0  1  0  0  0  0  0  0  0  0  0
  147.3960  155.2740  132.9030 N   0  0  0  0  0  0  0  0  0  0  0  0
  146.6590  156.2130  133.6540 C   0  0  0  0  0  0  0  0  0  0  0  0
  146.0200  155.7010  134.6430 O   0  0  0  0  0  0  0  0  0  0  0  0
  146.5520  157.5970  133.4300 N   0  0  0  0  0  0  0  0  0  0  0  0
  147.3800  158.4770  132.8460 C   0  0  0  0  0  0  0  0  0  0  0  0
  148.7810  158.3790  132.4930 C   0  0  0  0  0  0  0  0  0  0  0  0
  149.7000  159.4390  132.3420 N   0  0  0  0  0  0  0  0  0  0  0  0
  149.2660  157.2090  132.2790 O   0  0  0  0  0  0  0  0  0  0  0  0
  146.7200  159.7150  132.7200 C   0  0  0  0  0  0  0  0  0  0  0  0
  145.4710  159.5680  133.2470 C   0  0  0  0  0  0  0  0  0  0  0  0
  144.4530  160.4900  133.3590 C   0  0  0  0  0  0  0  0  0  0  0  0
  143.2610  160.1140  133.9340 C   0  0  0  0  0  0  0  0  0  0  0  0
  143.1240  158.8190  134.3820 C   0  0  0  0  0  0  0  0  0  0  0  0
  141.8350  158.4140  135.0030 C   0  0  0  0  0  0  0  0  0  0  0  0
  140.7980  158.4300  134.0810 F   0  0  0  0  0  0  0  0  0  0  0  0
  141.4960  159.3130  135.9940 F   0  0  0  0  0  0  0  0  0  0  0  0
  141.9370  157.1750  135.6190 F   0  0  0  0  0  0  0  0  0  0  0  0
  144.1750  157.9030  134.2560 C   0  0  0  0  0  0  0  0  0  0  0  0
  145.3830  158.2680  133.6780 C   0  0  0  0  0  0  0  0  0  0  0  0
  146.2860  153.1070  132.6260 C   0  0  2  0  0  0  0  0  0  0  0  0
  145.0320  153.2920  133.4490 C   0  0  0  0  0  0  0  0  0  0  0  0
  146.5130  151.7440  132.5060 O   0  0  0  0  0  0  0  0  0  0  0  0
  150.6096  150.5681  133.2397 H   0  0  0  0  0  0  0  0  0  0  0  0
  149.4086  150.4466  131.9095 H   0  0  0  0  0  0  0  0  0  0  0  0
  150.6175  151.7753  131.9095 H   0  0  0  0  0  0  0  0  0  0  0  0
  147.3733  153.8001  134.3349 H   0  0  0  0  0  0  0  0  0  0  0  0
  147.8980  155.5530  132.0460 H   0  0  0  0  0  0  0  0  0  0  0  0
  150.7010  159.3360  132.6070 H   0  0  0  0  0  0  0  0  0  0  0  0
  149.3310  160.3430  131.9480 H   0  0  0  0  0  0  0  0  0  0  0  0
  147.1359  160.6322  132.2776 H   0  0  0  0  0  0  0  0  0  0  0  0
  144.5922  161.5176  132.9919 H   0  0  0  0  0  0  0  0  0  0  0  0
  142.4345  160.8329  134.0338 H   0  0  0  0  0  0  0  0  0  0  0  0
  144.0410  156.8744  134.6220 H   0  0  0  0  0  0  0  0  0  0  0  0
  146.1680  153.5308  131.6178 H   0  0  0  0  0  0  0  0  0  0  0  0
  145.2865  153.2545  134.5185 H   0  0  0  0  0  0  0  0  0  0  0  0
  144.5795  154.2666  133.2138 H   0  0  0  0  0  0  0  0  0  0  0  0
  144.3173  152.4896  133.2138 H   0  0  0  0  0  0  0  0  0  0  0  0
  147.0080  151.3500  133.2710 H   0  0  0  0  0  0  0  0  0  0  0  0
  1  2  1  0
  2  3  1  0
  3  4  2  0
  3  5  1  0
  5  6  1  0
  6  7  1  0
  7  8  2  0
  7  9  1  0
  9 10  1  0
 10 11  1  0
 11 12  1  0
 11 13  2  0
 10 14  2  0
 14 15  1  0
 15 16  2  0
 16 17  1  0
 17 18  2  0
 18 19  1  0
 19 20  1  0
 19 21  1  0
 19 22  1  0
 18 23  1  0
 23 24  2  0
  5 25  1  0
 25 26  1  0
 25 27  1  0
 24  9  1  0
 24 15  1  0
  1 28  1  0
  1 29  1  0
  1 30  1  0
  5 31  1  1
  6 32  1  0
 12 33  1  0
 12 34  1  0
 14 35  1  0
 16 36  1  0
 17 37  1  0
 23 38  1  0
 25 39  1  6
 26 40  1  0
 26 41  1  0
 26 42  1  0
 27 43  1  0
M  END
>  <smiles>  (58) 
COC(=O)[C@@H](NC(=O)n1c(C(N)=O)cc2ccc(C(F)(F)F)cc21)C(C)O

>  <score_type>  (58) 
oracle

>  <origin>  (58) 
adg

>  <m_score__min__energy>  (58) 
-6.6299999999999999

>  <m_primary>  (58) 
energy

$$$$
60:0
     RDKit          3D

 40 42  0  0  1  0  0  0  0  0999 V2000
  140.3440  158.6440  131.4470 N   0  0  0  0  0  0  0  0  0  0  0  0
  140.1510  159.3210  132.7000 C   0  0  0  0  0  0  0  0  0  0  0  0
  139.8030  160.5210  132.6030 O   0  0  0  0  0  0  0  0  0  0  0  0
  140.3640  158.5940  133.9420 C   0  0  0  0  0  0  0  0  0  0  0  0
  140.6110  159.3420  135.1100 C   0  0  0  0  0  0  0  0  0  0  0  0
  140.8710  158.4530  136.1020 C   0  0  0  0  0  0  0  0  0  0  0  0
  141.1660  158.6610  137.4250 C   0  0  0  0  0  0  0  0  0  0  0  0
  141.3910  157.6110  138.2830 C   0  0  0  0  0  0  0  0  0  0  0  0
  141.3060  156.3420  137.7580 C   0  0  0  0  0  0  0  0  0  0  0  0
  141.5450  155.1700  138.6600 C   0  0  0  0  0  0  0  0  0  0  0  0
  142.3510  154.2430  138.0260 F   0  0  0  0  0  0  0  0  0  0  0  0
  140.3630  154.5100  138.9430 F   0  0  0  0  0  0  0  0  0  0  0  0
  142.1370  155.5190  139.8450 F   0  0  0  0  0  0  0  0  0  0  0  0
  141.0060  156.1410  136.4120 C   0  0  0  0  0  0  0  0  0  0  0  0
  140.7790  157.2050  135.5470 C   0  0  0  0  0  0  0  0  0  0  0  0
  140.4620  157.2850  134.2090 N   0  0  0  0  0  0  0  0  0  0  0  0
  140.4010  156.1310  133.4230 C   0  0  0  0  0  0  0  0  0  0  0  0
  139.4670  156.1830  132.5080 O   0  0  0  0  0  0  0  0  0  0  0  0
  141.1360  154.9140  133.3830 C   0  0  0  0  0  0  0  0  0  0  0  0
  140.7790  153.6740  133.3510 C   0  0  0  0  0  0  0  0  0  0  0  0
  141.6940  152.6020  133.3070 O   0  0  0  0  0  0  0  0  0  0  0  0
  141.3370  151.3810  132.7930 C   0  0  0  0  0  0  0  0  0  0  0  0
  142.2400  150.3200  132.6560 C   0  0  0  0  0  0  0  0  0  0  0  0
  141.8260  149.1550  132.1480 N   0  0  0  0  0  0  0  0  0  0  0  0
  140.5390  148.9630  131.7540 C   0  0  0  0  0  0  0  0  0  0  0  0
  139.6220  149.9880  131.8750 C   0  0  0  0  0  0  0  0  0  0  0  0
  138.3280  149.7640  131.4670 O   0  0  0  0  0  0  0  0  0  0  0  0
  140.0350  151.1950  132.3970 C   0  0  0  0  0  0  0  0  0  0  0  0
  139.5910  157.9690  131.1790 H   0  0  0  0  0  0  0  0  0  0  0  0
  141.1830  158.8360  130.8680 H   0  0  0  0  0  0  0  0  0  0  0  0
  140.5960  160.4381  135.2007 H   0  0  0  0  0  0  0  0  0  0  0  0
  141.2238  159.6906  137.8079 H   0  0  0  0  0  0  0  0  0  0  0  0
  141.6288  157.7780  139.3439 H   0  0  0  0  0  0  0  0  0  0  0  0
  140.9473  155.1134  136.0240 H   0  0  0  0  0  0  0  0  0  0  0  0
  142.2265  155.0583  133.3784 H   0  0  0  0  0  0  0  0  0  0  0  0
  139.7040  153.4412  133.3584 H   0  0  0  0  0  0  0  0  0  0  0  0
  143.2881  150.4448  132.9658 H   0  0  0  0  0  0  0  0  0  0  0  0
  140.2288  147.9925  131.3394 H   0  0  0  0  0  0  0  0  0  0  0  0
  137.6990  149.2840  132.1290 H   0  0  0  0  0  0  0  0  0  0  0  0
  139.3133  152.0191  132.4976 H   0  0  0  0  0  0  0  0  0  0  0  0
  1  2  1  0
  2  3  2  0
  2  4  1  0
  4  5  2  0
  5  6  1  0
  6  7  2  0
  7  8  1  0
  8  9  2  0
  9 10  1  0
 10 11  1  0
 10 12  1  0
 10 13  1  0
  9 14  1  0
 14 15  2  0
 15 16  1  0
 16 17  1  0
 17 18  2  0
 17 19  1  0
 19 20  2  0
 20 21  1  0
 21 22  1  0
 22 23  2  0
 23 24  1  0
 24 25  2  0
 25 26  1  0
 26 27  1  0
 26 28  2  0
 16  4  1  0
 28 22  1  0
 15  6  1  0
  1 29  1  0
  1 30  1  0
  5 31  1  0
  7 32  1  0
  8 33  1  0
 14 34  1  0
 19 35  1  0
 20 36  1  0
 23 37  1  0
 25 38  1  0
 27 39  1  0
 28 40  1  0
M  END
>  <smiles>  (59) 
NC(=O)c1cc2ccc(C(F)(F)F)cc2n1C(=O)C=COc1cncc(O)c1

>  <score_type>  (59) 
oracle

>  <origin>  (59) 
adg

>  <m_score__min__energy>  (59) 
-7.8899999999999997

>  <m_primary>  (59) 
energy

$$$$
61:0
     RDKit          3D

 33 34  0  0  0  0  0  0  0  0999 V2000
  149.1370  157.0560  132.6920 N   0  0  0  0  0  0  0  0  0  0  0  0
  148.6920  158.4380  132.7470 C   0  0  0  0  0  0  0  0  0  0  0  0
  149.5930  159.2610  132.4690 O   0  0  0  0  0  0  0  0  0  0  0  0
  147.3210  158.7400  133.0990 C   0  0  0  0  0  0  0  0  0  0  0  0
  146.8790  160.0740  133.1840 C   0  0  0  0  0  0  0  0  0  0  0  0
  145.5590  160.0760  133.5290 C   0  0  0  0  0  0  0  0  0  0  0  0
  144.6870  161.1170  133.7320 C   0  0  0  0  0  0  0  0  0  0  0  0
  143.3810  160.8580  134.0770 C   0  0  0  0  0  0  0  0  0  0  0  0
  142.9870  159.5610  134.2100 C   0  0  0  0  0  0  0  0  0  0  0  0
  141.5700  159.2540  134.5850 C   0  0  0  0  0  0  0  0  0  0  0  0
  140.5280  159.2510  132.9540 Br  0  0  0  0  0  0  0  0  0  0  0  0
  143.8790  158.5150  134.0010 C   0  0  0  0  0  0  0  0  0  0  0  0
  145.2080  158.7410  133.6510 C   0  0  0  0  0  0  0  0  0  0  0  0
  146.2720  157.9520  133.3910 N   0  0  0  0  0  0  0  0  0  0  0  0
  146.2760  156.5500  133.4260 C   0  0  0  0  0  0  0  0  0  0  0  0
  145.9210  155.8920  134.4780 O   0  0  0  0  0  0  0  0  0  0  0  0
  146.6710  155.6570  132.3090 C   0  0  0  0  0  0  0  0  0  0  0  0
  147.8990  154.4470  132.9950 P   0  0  0  0  0  0  0  0  0  0  0  0
  149.2030  154.6110  132.2370 O   0  0  0  0  0  0  0  0  0  0  0  0
  147.3290  152.8880  132.7090 O   0  0  0  0  0  0  0  0  0  0  0  0
  148.1150  154.7070  134.6470 O   0  0  0  0  0  0  0  0  0  0  0  0
  149.0580  156.4340  133.5320 H   0  0  0  0  0  0  0  0  0  0  0  0
  149.5390  156.7150  131.7720 H   0  0  0  0  0  0  0  0  0  0  0  0
  147.4956  160.9666  133.0024 H   0  0  0  0  0  0  0  0  0  0  0  0
  145.0320  162.1554  133.6190 H   0  0  0  0  0  0  0  0  0  0  0  0
  142.6698  161.6808  134.2420 H   0  0  0  0  0  0  0  0  0  0  0  0
  141.5143  158.2676  135.0687 H   0  0  0  0  0  0  0  0  0  0  0  0
  141.1839  160.0035  135.2915 H   0  0  0  0  0  0  0  0  0  0  0  0
  143.5250  157.4798  134.1153 H   0  0  0  0  0  0  0  0  0  0  0  0
  145.7904  155.1237  131.9215 H   0  0  0  0  0  0  0  0  0  0  0  0
  147.1070  156.2331  131.4796 H   0  0  0  0  0  0  0  0  0  0  0  0
  146.9810  152.8860  131.7680 H   0  0  0  0  0  0  0  0  0  0  0  0
  147.2720  155.0160  135.0550 H   0  0  0  0  0  0  0  0  0  0  0  0
  1  2  1  0
  2  3  2  0
  2  4  1  0
  4  5  2  0
  5  6  1  0
  6  7  2  0
  7  8  1  0
  8  9  2  0
  9 10  1  0
 10 11  1  0
  9 12  1  0
 12 13  2  0
 13 14  1  0
 14 15  1  0
 15 16  2  0
 15 17  1  0
 17 18  1  0
 18 19  2  0
 18 20  1  0
 18 21  1  0
 14  4  1  0
 13  6  1  0
  1 22  1  0
  1 23  1  0
  5 24  1  0
  7 25  1  0
  8 26  1  0
 10 27  1  0
 10 28  1  0
 12 29  1  0
 17 30  1  0
 17 31  1  0
 20 32  1  0
 21 33  1  0
M  END
>  <smiles>  (60) 
NC(=O)c1cc2ccc(CBr)cc2n1C(=O)CP(=O)(O)O

>  <score_type>  (60) 
oracle

>  <origin>  (60) 
adg

>  <m_score__min__energy>  (60) 
-7.5700000000000003

>  <m_primary>  (60) 
energy

$$$$
62:0
     RDKit          3D

 44 46  0  0  0  0  0  0  0  0999 V2000
  148.1330  160.1250  129.9240 C   0  0  0  0  0  0  0  0  0  0  0  0
  149.1450  160.6000  130.9710 C   0  0  0  0  0  0  0  0  0  0  0  0
  149.6050  161.9640  130.4680 C   0  0  0  0  0  0  0  0  0  0  0  0
  150.2840  159.6350  130.9420 C   0  0  0  0  0  0  0  0  0  0  0  0
  148.4800  160.6900  132.2140 O   0  0  0  0  0  0  0  0  0  0  0  0
  148.2330  159.6260  133.0340 C   0  0  0  0  0  0  0  0  0  0  0  0
  149.2620  159.1540  133.6390 O   0  0  0  0  0  0  0  0  0  0  0  0
  146.9870  159.0150  133.2690 N   0  0  0  0  0  0  0  0  0  0  0  0
  145.8280  159.6200  133.5710 C   0  0  0  0  0  0  0  0  0  0  0  0
  145.5120  161.0270  133.7440 C   0  0  0  0  0  0  0  0  0  0  0  0
  146.5980  161.9760  133.8830 N   0  0  0  0  0  0  0  0  0  0  0  0
  144.3780  161.5260  133.7880 O   0  0  0  0  0  0  0  0  0  0  0  0
  144.8570  158.6230  133.7160 C   0  0  0  0  0  0  0  0  0  0  0  0
  145.4430  157.4000  133.4980 C   0  0  0  0  0  0  0  0  0  0  0  0
  144.9220  156.1210  133.5220 C   0  0  0  0  0  0  0  0  0  0  0  0
  145.7480  155.0500  133.2610 C   0  0  0  0  0  0  0  0  0  0  0  0
  147.0790  155.2760  132.9800 C   0  0  0  0  0  0  0  0  0  0  0  0
  147.9110  154.1110  132.7110 C   0  0  0  0  0  0  0  0  0  0  0  0
  149.2730  154.2240  132.5480 C   0  0  0  0  0  0  0  0  0  0  0  0
  150.0720  153.2230  132.3060 O   0  0  0  0  0  0  0  0  0  0  0  0
  149.5260  152.0250  132.2120 C   0  0  0  0  0  0  0  0  0  0  0  0
  150.3100  151.0700  131.9790 O   0  0  0  0  0  0  0  0  0  0  0  0
  148.1740  151.8030  132.3590 C   0  0  0  0  0  0  0  0  0  0  0  0
  147.6260  150.5830  132.2620 F   0  0  0  0  0  0  0  0  0  0  0  0
  147.3210  152.8670  132.6160 C   0  0  0  0  0  0  0  0  0  0  0  0
  147.5720  156.5710  132.9630 C   0  0  0  0  0  0  0  0  0  0  0  0
  146.7660  157.6740  133.2220 C   0  0  0  0  0  0  0  0  0  0  0  0
  147.2490  159.7101  130.4303 H   0  0  0  0  0  0  0  0  0  0  0  0
  147.8300  160.9749  129.2949 H   0  0  0  0  0  0  0  0  0  0  0  0
  148.5932  159.3489  129.2949 H   0  0  0  0  0  0  0  0  0  0  0  0
  149.8249  162.6162  131.3261 H   0  0  0  0  0  0  0  0  0  0  0  0
  150.5120  161.8429  129.8575 H   0  0  0  0  0  0  0  0  0  0  0  0
  148.8099  162.4169  129.8575 H   0  0  0  0  0  0  0  0  0  0  0  0
  150.5791  159.3850  131.9718 H   0  0  0  0  0  0  0  0  0  0  0  0
  149.9754  158.7193  130.4164 H   0  0  0  0  0  0  0  0  0  0  0  0
  151.1366  160.0898  130.4164 H   0  0  0  0  0  0  0  0  0  0  0  0
  146.8120  162.4100  134.8130 H   0  0  0  0  0  0  0  0  0  0  0  0
  147.1290  162.1830  133.0080 H   0  0  0  0  0  0  0  0  0  0  0  0
  143.7985  158.7910  133.9638 H   0  0  0  0  0  0  0  0  0  0  0  0
  143.8576  155.9592  133.7474 H   0  0  0  0  0  0  0  0  0  0  0  0
  145.3499  154.0247  133.2766 H   0  0  0  0  0  0  0  0  0  0  0  0
  149.7174  155.2271  132.6274 H   0  0  0  0  0  0  0  0  0  0  0  0
  146.2367  152.7269  132.7371 H   0  0  0  0  0  0  0  0  0  0  0  0
  148.6365  156.7317  132.7371 H   0  0  0  0  0  0  0  0  0  0  0  0
  1  2  1  0
  2  3  1  0
  2  4  1  0
  2  5  1  0
  5  6  1  0
  6  7  2  0
  6  8  1  0
  8  9  1  0
  9 10  1  0
 10 11  1  0
 10 12  2  0
  9 13  2  0
 13 14  1  0
 14 15  2  0
 15 16  1  0
 16 17  2  0
 17 18  1  0
 18 19  2  0
 19 20  1  0
 20 21  1  0
 21 22  2  0
 21 23  1  0
 23 24  1  0
 23 25  2  0
 17 26  1  0
 26 27  2  0
 27  8  1  0
 27 14  1  0
 25 18  1  0
  1 28  1  0
  1 29  1  0
  1 30  1  0
  3 31  1  0
  3 32  1  0
  3 33  1  0
  4 34  1  0
  4 35  1  0
  4 36  1  0
 11 37  1  0
 11 38  1  0
 13 39  1  0
 15 40  1  0
 16 41  1  0
 19 42  1  0
 25 43  1  0
 26 44  1  0
M  END
>  <smiles>  (61) 
CC(C)(C)OC(=O)n1c(C(N)=O)cc2ccc(-c3coc(=O)c(F)c3)cc21

>  <score_type>  (61) 
oracle

>  <origin>  (61) 
adg

>  <m_score__min__energy>  (61) 
-8.4299999999999997

>  <m_primary>  (61) 
energy

$$$$
63:0
     RDKit          3D

 38 39  0  0  0  0  0  0  0  0999 V2000
  141.3380  159.2520  134.2230 C   0  0  0  0  0  0  0  0  0  0  0  0
  142.7830  159.5560  133.9820 C   0  0  0  0  0  0  0  0  0  0  0  0
  143.2160  160.8410  134.0640 C   0  0  0  0  0  0  0  0  0  0  0  0
  144.5500  161.0980  133.8380 C   0  0  0  0  0  0  0  0  0  0  0  0
  145.4090  160.0660  133.5380 C   0  0  0  0  0  0  0  0  0  0  0  0
  146.7550  160.0580  133.2750 C   0  0  0  0  0  0  0  0  0  0  0  0
  147.1850  158.7440  133.0210 C   0  0  0  0  0  0  0  0  0  0  0  0
  148.5560  158.4640  132.7190 C   0  0  0  0  0  0  0  0  0  0  0  0
  149.2040  157.2470  132.4670 N   0  0  0  0  0  0  0  0  0  0  0  0
  149.3470  159.4880  132.6620 O   0  0  0  0  0  0  0  0  0  0  0  0
  146.0820  157.9590  133.1330 N   0  0  0  0  0  0  0  0  0  0  0  0
  146.0520  156.5540  132.9570 C   0  0  0  0  0  0  0  0  0  0  0  0
  146.7550  156.0090  132.0680 O   0  0  0  0  0  0  0  0  0  0  0  0
  145.2300  155.6090  133.7550 C   0  0  0  0  0  0  0  0  0  0  0  0
  146.1670  154.8900  134.7060 C   0  0  0  0  0  0  0  0  0  0  0  0
  145.8250  154.4890  135.8310 O   0  0  0  0  0  0  0  0  0  0  0  0
  147.5340  154.6740  134.2410 C   0  0  0  0  0  0  0  0  0  0  0  0
  147.8490  153.7940  133.3060 C   0  0  0  0  0  0  0  0  0  0  0  0
  149.2780  153.6150  132.8660 C   0  0  0  0  0  0  0  0  0  0  0  0
  149.6690  154.8000  132.2300 O   0  0  0  0  0  0  0  0  0  0  0  0
  145.0090  158.7450  133.4430 C   0  0  0  0  0  0  0  0  0  0  0  0
  143.6690  158.5200  133.6740 C   0  0  0  0  0  0  0  0  0  0  0  0
  141.1474  159.2119  135.3056 H   0  0  0  0  0  0  0  0  0  0  0  0
  140.7172  160.0392  133.7703 H   0  0  0  0  0  0  0  0  0  0  0  0
  141.0870  158.2814  133.7703 H   0  0  0  0  0  0  0  0  0  0  0  0
  142.5181  161.6564  134.3050 H   0  0  0  0  0  0  0  0  0  0  0  0
  144.9289  162.1290  133.8974 H   0  0  0  0  0  0  0  0  0  0  0  0
  147.4019  160.9476  133.2644 H   0  0  0  0  0  0  0  0  0  0  0  0
  149.3010  156.8340  131.4910 H   0  0  0  0  0  0  0  0  0  0  0  0
  149.6150  156.7420  133.3100 H   0  0  0  0  0  0  0  0  0  0  0  0
  144.4670  156.1609  134.3235 H   0  0  0  0  0  0  0  0  0  0  0  0
  144.7139  154.8919  133.0997 H   0  0  0  0  0  0  0  0  0  0  0  0
  148.3405  155.2721  134.6902 H   0  0  0  0  0  0  0  0  0  0  0  0
  147.0578  153.1853  132.8439 H   0  0  0  0  0  0  0  0  0  0  0  0
  149.9200  153.4268  133.7391 H   0  0  0  0  0  0  0  0  0  0  0  0
  149.3710  152.7574  132.1834 H   0  0  0  0  0  0  0  0  0  0  0  0
  148.8720  155.2840  131.8720 H   0  0  0  0  0  0  0  0  0  0  0  0
  143.2843  157.4912  133.6140 H   0  0  0  0  0  0  0  0  0  0  0  0
  1  2  1  0
  2  3  2  0
  3  4  1  0
  4  5  2  0
  5  6  1  0
  6  7  2  0
  7  8  1  0
  8  9  1  0
  8 10  2  0
  7 11  1  0
 11 12  1  0
 12 13  2  0
 12 14  1  0
 14 15  1  0
 15 16  2  0
 15 17  1  0
 17 18  2  0
 18 19  1  0
 19 20  1  0
 11 21  1  0
 21 22  2  0
 22  2  1  0
 21  5  1  0
  1 23  1  0
  1 24  1  0
  1 25  1  0
  3 26  1  0
  4 27  1  0
  6 28  1  0
  9 29  1  0
  9 30  1  0
 14 31  1  0
 14 32  1  0
 17 33  1  0
 18 34  1  0
 19 35  1  0
 19 36  1  0
 20 37  1  0
 22 38  1  0
M  END
>  <smiles>  (62) 
Cc1ccc2cc(C(N)=O)n(C(=O)CC(=O)/C=C/CO)c2c1

>  <score_type>  (62) 
oracle

>  <origin>  (62) 
adg

>  <m_score__min__energy>  (62) 
-7.6399999999999997

>  <m_primary>  (62) 
energy

$$$$
64:0
     RDKit          3D

 40 41  0  0  0  0  0  0  0  0999 V2000
  149.0420  157.2880  132.5790 N   0  0  0  0  0  0  0  0  0  0  0  0
  148.4490  158.5150  132.9420 C   0  0  0  0  0  0  0  0  0  0  0  0
  149.2630  159.4970  133.0600 O   0  0  0  0  0  0  0  0  0  0  0  0
  147.0520  158.7830  133.1780 C   0  0  0  0  0  0  0  0  0  0  0  0
  146.6380  160.1260  133.3660 C   0  0  0  0  0  0  0  0  0  0  0  0
  145.2960  160.1200  133.5000 C   0  0  0  0  0  0  0  0  0  0  0  0
  144.4160  161.1660  133.7050 C   0  0  0  0  0  0  0  0  0  0  0  0
  143.0610  160.9470  133.8220 C   0  0  0  0  0  0  0  0  0  0  0  0
  142.6300  159.6430  133.7260 C   0  0  0  0  0  0  0  0  0  0  0  0
  141.1720  159.3680  133.8490 C   0  0  0  0  0  0  0  0  0  0  0  0
  140.4310  160.1170  132.9860 F   0  0  0  0  0  0  0  0  0  0  0  0
  140.7970  159.7340  135.1370 F   0  0  0  0  0  0  0  0  0  0  0  0
  140.9790  158.0150  133.6980 F   0  0  0  0  0  0  0  0  0  0  0  0
  143.5210  158.5980  133.5210 C   0  0  0  0  0  0  0  0  0  0  0  0
  144.8900  158.8090  133.4010 C   0  0  0  0  0  0  0  0  0  0  0  0
  145.9690  157.9900  133.2070 N   0  0  0  0  0  0  0  0  0  0  0  0
  145.8230  156.6040  133.0260 C   0  0  0  0  0  0  0  0  0  0  0  0
  146.6920  156.0660  132.2260 O   0  0  0  0  0  0  0  0  0  0  0  0
  144.8590  155.6710  133.5740 C   0  0  0  0  0  0  0  0  0  0  0  0
  145.2800  154.7930  134.5640 O   0  0  0  0  0  0  0  0  0  0  0  0
  146.3550  153.9230  134.4420 C   0  0  0  0  0  0  0  0  0  0  0  0
  147.0400  153.7380  135.4980 O   0  0  0  0  0  0  0  0  0  0  0  0
  146.7070  153.2380  133.1690 C   0  0  0  0  0  0  0  0  0  0  0  0
  148.2120  153.1820  133.1060 C   0  0  0  0  0  0  0  0  0  0  0  0
  148.8260  154.5250  133.0770 C   0  0  0  0  0  0  0  0  0  0  0  0
  149.7060  154.8580  132.2450 O   0  0  0  0  0  0  0  0  0  0  0  0
  148.4130  155.4630  134.0110 O   0  0  0  0  0  0  0  0  0  0  0  0
  149.9680  157.0180  132.9860 H   0  0  0  0  0  0  0  0  0  0  0  0
  148.5120  156.6860  131.9010 H   0  0  0  0  0  0  0  0  0  0  0  0
  147.2914  161.0104  133.3969 H   0  0  0  0  0  0  0  0  0  0  0  0
  144.8049  162.1925  133.7760 H   0  0  0  0  0  0  0  0  0  0  0  0
  142.3561  161.7756  133.9846 H   0  0  0  0  0  0  0  0  0  0  0  0
  143.1317  157.5715  133.4514 H   0  0  0  0  0  0  0  0  0  0  0  0
  144.0344  156.2649  133.9950 H   0  0  0  0  0  0  0  0  0  0  0  0
  144.6006  155.0195  132.7262 H   0  0  0  0  0  0  0  0  0  0  0  0
  146.2895  152.2204  133.1586 H   0  0  0  0  0  0  0  0  0  0  0  0
  146.2956  153.7781  132.3035 H   0  0  0  0  0  0  0  0  0  0  0  0
  148.5826  152.6435  133.9907 H   0  0  0  0  0  0  0  0  0  0  0  0
  148.4892  152.6670  132.1744 H   0  0  0  0  0  0  0  0  0  0  0  0
  147.4460  155.6100  134.2680 H   0  0  0  0  0  0  0  0  0  0  0  0
  1  2  1  0
  2  3  2  0
  2  4  1  0
  4  5  2  0
  5  6  1  0
  6  7  2  0
  7  8  1  0
  8  9  2  0
  9 10  1  0
 10 11  1  0
 10 12  1  0
 10 13  1  0
  9 14  1  0
 14 15  2  0
 15 16  1  0
 16 17  1  0
 17 18  2  0
 17 19  1  0
 19 20  1  0
 20 21  1  0
 21 22  2  0
 21 23  1  0
 23 24  1  0
 24 25  1  0
 25 26  2  0
 25 27  1  0
 16  4  1  0
 15  6  1  0
  1 28  1  0
  1 29  1  0
  5 30  1  0
  7 31  1  0
  8 32  1  0
 14 33  1  0
 19 34  1  0
 19 35  1  0
 23 36  1  0
 23 37  1  0
 24 38  1  0
 24 39  1  0
 27 40  1  0
M  END
>  <smiles>  (63) 
NC(=O)c1cc2ccc(C(F)(F)F)cc2n1C(=O)COC(=O)CCC(=O)O

>  <score_type>  (63) 
oracle

>  <origin>  (63) 
adg

>  <m_score__min__energy>  (63) 
-6.6600000000000001

>  <m_primary>  (63) 
energy

$$$$
65:0
     RDKit          3D

 51 52  0  0  0  0  0  0  0  0999 V2000
  149.6480  157.5260  132.2140 C   0  0  0  0  0  0  0  0  0  0  0  0
  148.4750  158.3740  132.5380 C   0  0  0  0  0  0  0  0  0  0  0  0
  148.6180  159.7330  132.4900 C   0  0  0  0  0  0  0  0  0  0  0  0
  147.5330  160.5290  132.7890 C   0  0  0  0  0  0  0  0  0  0  0  0
  146.3320  159.9360  133.1290 C   0  0  0  0  0  0  0  0  0  0  0  0
  145.1140  160.4700  133.4670 C   0  0  0  0  0  0  0  0  0  0  0  0
  144.2110  159.4280  133.7250 C   0  0  0  0  0  0  0  0  0  0  0  0
  142.8380  159.6930  134.1080 C   0  0  0  0  0  0  0  0  0  0  0  0
  141.9980  158.6090  134.5620 N   0  0  0  0  0  0  0  0  0  0  0  0
  142.2750  160.8110  134.0870 O   0  0  0  0  0  0  0  0  0  0  0  0
  144.8720  158.2950  133.5470 N   0  0  0  0  0  0  0  0  0  0  0  0
  144.3820  156.9760  133.6910 C   0  0  0  0  0  0  0  0  0  0  0  0
  143.1520  156.7170  133.4440 O   0  0  0  0  0  0  0  0  0  0  0  0
  145.1270  155.8840  134.0900 O   0  0  0  0  0  0  0  0  0  0  0  0
  145.3340  154.7460  133.3530 C   0  0  0  0  0  0  0  0  0  0  0  0
  146.3620  154.0370  133.6240 O   0  0  0  0  0  0  0  0  0  0  0  0
  144.3870  154.3600  132.2730 C   0  0  0  0  0  0  0  0  0  0  0  0
  143.9540  152.9320  132.6220 C   0  0  0  0  0  0  0  0  0  0  0  0
  142.5800  152.9110  133.0820 N   0  0  0  0  0  0  0  0  0  0  0  0
  141.7590  151.7360  132.8970 C   0  0  0  0  0  0  0  0  0  0  0  0
  142.0910  154.0860  133.7130 C   0  0  0  0  0  0  0  0  0  0  0  0
  142.5420  154.4060  134.8360 O   0  0  0  0  0  0  0  0  0  0  0  0
  141.1240  154.8310  133.0430 O   0  0  0  0  0  0  0  0  0  0  0  0
  139.7630  154.4070  132.9840 C   0  0  0  0  0  0  0  0  0  0  0  0
  139.0110  155.5900  132.9710 O   0  0  0  0  0  0  0  0  0  0  0  0
  139.8870  156.9010  133.5240 P   0  0  0  0  0  0  0  0  0  0  0  0
  138.9070  158.0230  133.8080 O   0  0  0  0  0  0  0  0  0  0  0  0
  141.0090  157.4530  132.3900 O   0  0  0  0  0  0  0  0  0  0  0  0
  140.6890  156.4890  134.9360 O   0  0  0  0  0  0  0  0  0  0  0  0
  146.1600  158.5690  133.1850 C   0  0  0  0  0  0  0  0  0  0  0  0
  147.2630  157.7990  132.8800 C   0  0  0  0  0  0  0  0  0  0  0  0
  150.1216  157.1837  133.1460 H   0  0  0  0  0  0  0  0  0  0  0  0
  149.3200  156.6549  131.6279 H   0  0  0  0  0  0  0  0  0  0  0  0
  150.3724  158.1106  131.6279 H   0  0  0  0  0  0  0  0  0  0  0  0
  149.5835  160.1839  132.2171 H   0  0  0  0  0  0  0  0  0  0  0  0
  147.6223  161.6249  132.7573 H   0  0  0  0  0  0  0  0  0  0  0  0
  144.8826  161.5438  133.5262 H   0  0  0  0  0  0  0  0  0  0  0  0
  140.9820  158.5770  134.3170 H   0  0  0  0  0  0  0  0  0  0  0  0
  142.3830  157.8320  135.1460 H   0  0  0  0  0  0  0  0  0  0  0  0
  143.5189  155.0355  132.2594 H   0  0  0  0  0  0  0  0  0  0  0  0
  144.8476  154.4217  131.2760 H   0  0  0  0  0  0  0  0  0  0  0  0
  144.0449  152.2984  131.7274 H   0  0  0  0  0  0  0  0  0  0  0  0
  144.6018  152.5527  133.4260 H   0  0  0  0  0  0  0  0  0  0  0  0
  141.4747  151.3291  133.8786 H   0  0  0  0  0  0  0  0  0  0  0  0
  140.8525  152.0067  132.3358 H   0  0  0  0  0  0  0  0  0  0  0  0
  142.3250  150.9779  132.3358 H   0  0  0  0  0  0  0  0  0  0  0  0
  139.5799  153.8232  132.0699 H   0  0  0  0  0  0  0  0  0  0  0  0
  139.4965  153.7591  133.8321 H   0  0  0  0  0  0  0  0  0  0  0  0
  141.6200  156.7150  132.1080 H   0  0  0  0  0  0  0  0  0  0  0  0
  141.5580  156.1300  134.6960 H   0  0  0  0  0  0  0  0  0  0  0  0
  147.1776  156.7027  132.9092 H   0  0  0  0  0  0  0  0  0  0  0  0
  1  2  1  0
  2  3  2  0
  3  4  1  0
  4  5  2  0
  5  6  1  0
  6  7  2  0
  7  8  1  0
  8  9  1  0
  8 10  2  0
  7 11  1  0
 11 12  1  0
 12 13  2  0
 12 14  1  0
 14 15  1  0
 15 16  2  0
 15 17  1  0
 17 18  1  0
 18 19  1  0
 19 20  1  0
 19 21  1  0
 21 22  2  0
 21 23  1  0
 23 24  1  0
 24 25  1  0
 25 26  1  0
 26 27  2  0
 26 28  1  0
 26 29  1  0
 11 30  1  0
 30 31  2  0
 31  2  1  0
 30  5  1  0
  1 32  1  0
  1 33  1  0
  1 34  1  0
  3 35  1  0
  4 36  1  0
  6 37  1  0
  9 38  1  0
  9 39  1  0
 17 40  1  0
 17 41  1  0
 18 42  1  0
 18 43  1  0
 20 44  1  0
 20 45  1  0
 20 46  1  0
 24 47  1  0
 24 48  1  0
 28 49  1  0
 29 50  1  0
 31 51  1  0
M  END
>  <smiles>  (64) 
Cc1ccc2cc(C(N)=O)n(C(=O)OC(=O)CCN(C)C(=O)OCOP(=O)(O)O)c2c1

>  <score_type>  (64) 
oracle

>  <origin>  (64) 
adg

>  <m_score__min__energy>  (64) 
-6.2999999999999998

>  <m_primary>  (64) 
energy

$$$$
66:0
     RDKit          3D

 50 51  0  0  0  0  0  0  0  0999 V2000
  138.8900  148.3640  130.2590 C   0  0  0  0  0  0  0  0  0  0  0  0
  138.7030  149.2540  131.4820 C   0  0  0  0  0  0  0  0  0  0  0  0
  139.9940  149.8680  131.8950 C   0  0  0  0  0  0  0  0  0  0  0  0
  141.1010  149.0720  131.9660 C   0  0  0  0  0  0  0  0  0  0  0  0
  142.2870  149.6580  132.3490 C   0  0  0  0  0  0  0  0  0  0  0  0
  142.3330  151.0000  132.6460 C   0  0  0  0  0  0  0  0  0  0  0  0
  143.3710  151.7800  133.0600 C   0  0  0  0  0  0  0  0  0  0  0  0
  142.9160  153.1070  133.2540 C   0  0  0  0  0  0  0  0  0  0  0  0
  143.8490  154.1150  133.6800 C   0  0  0  0  0  0  0  0  0  0  0  0
  144.0000  155.4430  133.2680 N   0  0  0  0  0  0  0  0  0  0  0  0
  144.7090  153.7640  134.5920 O   0  0  0  0  0  0  0  0  0  0  0  0
  141.5890  153.1080  132.9510 N   0  0  0  0  0  0  0  0  0  0  0  0
  140.7660  154.2390  133.1210 C   0  0  0  0  0  0  0  0  0  0  0  0
  139.4960  153.9450  133.0270 O   0  0  0  0  0  0  0  0  0  0  0  0
  141.0180  155.6020  133.3760 C   0  0  0  0  0  0  0  0  0  0  0  0
  140.6490  156.6410  132.7930 O   0  0  0  0  0  0  0  0  0  0  0  0
  141.8450  155.9110  134.5040 O   0  0  0  0  0  0  0  0  0  0  0  0
  141.2020  155.9660  135.7940 C   0  0  0  0  0  0  0  0  0  0  0  0
  140.2150  157.0950  135.7050 C   0  0  0  0  0  0  0  0  0  0  0  0
  140.8780  158.4230  135.6880 C   0  0  0  0  0  0  0  0  0  0  0  0
  140.6190  159.2240  136.6220 O   0  0  0  0  0  0  0  0  0  0  0  0
  141.7680  158.7230  134.6220 N   0  0  0  0  0  0  0  0  0  0  0  0
  142.4440  159.9830  134.5410 C   0  0  0  0  0  0  0  0  0  0  0  0
  143.5260  159.9530  133.4900 C   0  0  0  0  0  0  0  0  0  0  0  0
  143.8940  158.5010  133.3430 C   0  0  0  0  0  0  0  0  0  0  0  0
  144.7820  158.0530  134.1070 O   0  0  0  0  0  0  0  0  0  0  0  0
  143.2780  157.6820  132.4020 O   0  0  0  0  0  0  0  0  0  0  0  0
  141.2350  151.8390  132.5850 C   0  0  0  0  0  0  0  0  0  0  0  0
  140.0630  151.2270  132.2000 C   0  0  0  0  0  0  0  0  0  0  0  0
  139.1061  147.3354  130.5836 H   0  0  0  0  0  0  0  0  0  0  0  0
  137.9705  148.3724  129.6553 H   0  0  0  0  0  0  0  0  0  0  0  0
  139.7284  148.7418  129.6553 H   0  0  0  0  0  0  0  0  0  0  0  0
  137.9858  150.0522  131.2401 H   0  0  0  0  0  0  0  0  0  0  0  0
  138.3264  148.6369  132.3111 H   0  0  0  0  0  0  0  0  0  0  0  0
  141.0475  147.9999  131.7257 H   0  0  0  0  0  0  0  0  0  0  0  0
  143.2012  149.0502  132.4176 H   0  0  0  0  0  0  0  0  0  0  0  0
  144.4026  151.4326  133.2189 H   0  0  0  0  0  0  0  0  0  0  0  0
  143.8760  156.2880  133.9060 H   0  0  0  0  0  0  0  0  0  0  0  0
  144.2640  155.7250  132.2770 H   0  0  0  0  0  0  0  0  0  0  0  0
  140.6841  155.0189  136.0057 H   0  0  0  0  0  0  0  0  0  0  0  0
  141.9285  156.1232  136.6048 H   0  0  0  0  0  0  0  0  0  0  0  0
  139.6289  156.9804  134.7812 H   0  0  0  0  0  0  0  0  0  0  0  0
  139.5723  157.0512  136.5967 H   0  0  0  0  0  0  0  0  0  0  0  0
  141.9330  157.9920  133.8720 H   0  0  0  0  0  0  0  0  0  0  0  0
  141.7152  160.7657  134.2839 H   0  0  0  0  0  0  0  0  0  0  0  0
  142.9095  160.1927  135.5154 H   0  0  0  0  0  0  0  0  0  0  0  0
  143.1495  160.3538  132.5373 H   0  0  0  0  0  0  0  0  0  0  0  0
  144.3916  160.5696  133.7737 H   0  0  0  0  0  0  0  0  0  0  0  0
  142.6230  156.9700  132.7510 H   0  0  0  0  0  0  0  0  0  0  0  0
  139.1473  151.8326  132.1305 H   0  0  0  0  0  0  0  0  0  0  0  0
  1  2  1  0
  2  3  1  0
  3  4  2  0
  4  5  1  0
  5  6  2  0
  6  7  1  0
  7  8  2  0
  8  9  1  0
  9 10  1  0
  9 11  2  0
  8 12  1  0
 12 13  1  0
 13 14  2  0
 13 15  1  0
 15 16  2  0
 15 17  1  0
 17 18  1  0
 18 19  1  0
 19 20  1  0
 20 21  2  0
 20 22  1  0
 22 23  1  0
 23 24  1  0
 24 25  1  0
 25 26  2  0
 25 27  1  0
 12 28  1  0
 28 29  2  0
 29  3  1  0
 28  6  1  0
  1 30  1  0
  1 31  1  0
  1 32  1  0
  2 33  1  0
  2 34  1  0
  4 35  1  0
  5 36  1  0
  7 37  1  0
 10 38  1  0
 10 39  1  0
 18 40  1  0
 18 41  1  0
 19 42  1  0
 19 43  1  0
 22 44  1  0
 23 45  1  0
 23 46  1  0
 24 47  1  0
 24 48  1  0
 27 49  1  0
 29 50  1  0
M  END
>  <smiles>  (65) 
CCc1ccc2cc(C(N)=O)n(C(=O)C(=O)OCCC(=O)NCCC(=O)O)c2c1

>  <score_type>  (65) 
oracle

>  <origin>  (65) 
adg

>  <m_score__min__energy>  (65) 
-7.3099999999999996

>  <m_primary>  (65) 
energy

$$$$
67:0
     RDKit          3D

 51 52  0  0  1  0  0  0  0  0999 V2000
  149.6030  151.9740  132.8870 C   0  0  0  0  0  0  0  0  0  0  0  0
  148.6490  152.9920  133.5200 C   0  0  0  0  0  0  0  0  0  0  0  0
  148.1930  153.8310  132.5040 O   0  0  0  0  0  0  0  0  0  0  0  0
  147.5820  155.2330  133.2080 P   0  0  1  0  0  0  0  0  0  0  0  0
  148.1270  155.4800  134.5750 O   0  0  0  0  0  0  0  0  0  0  0  0
  147.7910  156.5550  132.1230 N   0  0  0  0  0  0  0  0  0  0  0  0
  148.6220  157.6190  132.6000 C   0  0  1  0  0  0  0  0  0  0  0  0
  149.0760  158.5620  131.5200 C   0  0  0  0  0  0  0  0  0  0  0  0
  147.8130  158.4240  133.5540 C   0  0  0  0  0  0  0  0  0  0  0  0
  147.9680  159.6660  133.5940 O   0  0  0  0  0  0  0  0  0  0  0  0
  146.8800  157.8590  134.4150 O   0  0  0  0  0  0  0  0  0  0  0  0
  145.9020  154.9900  133.4060 O   0  0  0  0  0  0  0  0  0  0  0  0
  145.1860  155.5980  132.4010 C   0  0  0  0  0  0  0  0  0  0  0  0
  145.0090  156.9550  132.7300 O   0  0  0  0  0  0  0  0  0  0  0  0
  144.1490  157.3080  133.7900 C   0  0  0  0  0  0  0  0  0  0  0  0
  144.4190  156.7340  134.8760 O   0  0  0  0  0  0  0  0  0  0  0  0
  143.1120  158.2200  133.5780 N   0  0  0  0  0  0  0  0  0  0  0  0
  143.2030  159.5520  133.5480 C   0  0  0  0  0  0  0  0  0  0  0  0
  144.3360  160.4400  133.7150 C   0  0  0  0  0  0  0  0  0  0  0  0
  145.6040  160.1170  133.0970 N   0  0  0  0  0  0  0  0  0  0  0  0
  144.3380  161.5080  134.3680 O   0  0  0  0  0  0  0  0  0  0  0  0
  141.9150  160.0510  133.3060 C   0  0  0  0  0  0  0  0  0  0  0  0
  141.0420  158.9970  133.1900 C   0  0  0  0  0  0  0  0  0  0  0  0
  139.6820  158.9600  132.9540 C   0  0  0  0  0  0  0  0  0  0  0  0
  139.0450  157.7400  132.8850 C   0  0  0  0  0  0  0  0  0  0  0  0
  139.7730  156.5820  133.0520 C   0  0  0  0  0  0  0  0  0  0  0  0
  139.0990  155.2460  132.9810 C   0  0  0  0  0  0  0  0  0  0  0  0
  141.1410  156.6570  133.2880 C   0  0  0  0  0  0  0  0  0  0  0  0
  141.8110  157.8650  133.3630 C   0  0  0  0  0  0  0  0  0  0  0  0
  150.1243  151.4177  133.6799 H   0  0  0  0  0  0  0  0  0  0  0  0
  149.0295  151.2725  132.2633 H   0  0  0  0  0  0  0  0  0  0  0  0
  150.3402  152.5008  132.2633 H   0  0  0  0  0  0  0  0  0  0  0  0
  147.7995  152.4709  133.9857 H   0  0  0  0  0  0  0  0  0  0  0  0
  149.1652  153.5732  134.2983 H   0  0  0  0  0  0  0  0  0  0  0  0
  146.8620  156.9740  131.8970 H   0  0  0  0  0  0  0  0  0  0  0  0
  149.5155  157.1571  133.0454 H   0  0  0  0  0  0  0  0  0  0  0  0
  149.5098  159.4629  131.9784 H   0  0  0  0  0  0  0  0  0  0  0  0
  149.8344  158.0668  130.8958 H   0  0  0  0  0  0  0  0  0  0  0  0
  148.2159  158.8460  130.8958 H   0  0  0  0  0  0  0  0  0  0  0  0
  146.5110  156.9170  134.2750 H   0  0  0  0  0  0  0  0  0  0  0  0
  145.7368  155.5160  131.4524 H   0  0  0  0  0  0  0  0  0  0  0  0
  144.2071  155.1087  132.2896 H   0  0  0  0  0  0  0  0  0  0  0  0
  146.2250  160.8640  132.7070 H   0  0  0  0  0  0  0  0  0  0  0  0
  145.8610  159.0880  133.0660 H   0  0  0  0  0  0  0  0  0  0  0  0
  141.6471  161.1146  133.2226 H   0  0  0  0  0  0  0  0  0  0  0  0
  139.1141  159.8929  132.8227 H   0  0  0  0  0  0  0  0  0  0  0  0
  137.9622  157.6908  132.6978 H   0  0  0  0  0  0  0  0  0  0  0  0
  138.9119  154.8751  133.9996 H   0  0  0  0  0  0  0  0  0  0  0  0
  138.1432  155.3455  132.4457 H   0  0  0  0  0  0  0  0  0  0  0  0
  139.7470  154.5364  132.4457 H   0  0  0  0  0  0  0  0  0  0  0  0
  141.7097  155.7246  133.4195 H   0  0  0  0  0  0  0  0  0  0  0  0
  1  2  1  0
  2  3  1  0
  4  3  1  6
  4  5  2  0
  4  6  1  0
  6  7  1  0
  7  8  1  0
  7  9  1  0
  9 10  2  0
  9 11  1  0
  4 12  1  0
 12 13  1  0
 13 14  1  0
 14 15  1  0
 15 16  2  0
 15 17  1  0
 17 18  1  0
 18 19  1  0
 19 20  1  0
 19 21  2  0
 18 22  2  0
 22 23  1  0
 23 24  2  0
 24 25  1  0
 25 26  2  0
 26 27  1  0
 26 28  1  0
 28 29  2  0
 29 17  1  0
 29 23  1  0
  1 30  1  0
  1 31  1  0
  1 32  1  0
  2 33  1  0
  2 34  1  0
  6 35  1  0
  7 36  1  1
  8 37  1  0
  8 38  1  0
  8 39  1  0
 11 40  1  0
 13 41  1  0
 13 42  1  0
 20 43  1  0
 20 44  1  0
 22 45  1  0
 24 46  1  0
 25 47  1  0
 27 48  1  0
 27 49  1  0
 27 50  1  0
 28 51  1  0
M  END
>  <smiles>  (66) 
CCOP(=O)(N[C@@H](C)C(=O)O)OCOC(=O)n1c(C(N)=O)cc2ccc(C)cc21

>  <score_type>  (66) 
oracle

>  <origin>  (66) 
adg

>  <m_score__min__energy>  (66) 
-7.0999999999999996

>  <m_primary>  (66) 
energy

$$$$
68:0
     RDKit          3D

 52 53  0  0  0  0  0  0  0  0999 V2000
  148.6340  159.0660  133.1190 C   0  0  0  0  0  0  0  0  0  0  0  0
  147.2000  158.6230  133.2530 C   0  0  1  0  0  0  0  0  0  0  0  0
  146.3150  159.5140  132.4180 C   0  0  0  0  0  0  0  0  0  0  0  0
  145.2760  160.0770  133.3390 C   0  0  0  0  0  0  0  0  0  0  0  0
  145.6730  160.9980  134.1080 O   0  0  0  0  0  0  0  0  0  0  0  0
  143.9620  159.6150  133.3440 O   0  0  0  0  0  0  0  0  0  0  0  0
  143.0370  160.0000  134.3210 C   0  0  0  0  0  0  0  0  0  0  0  0
  141.7620  159.2800  134.0870 C   0  0  0  0  0  0  0  0  0  0  0  0
  141.4350  159.0390  132.8850 O   0  0  0  0  0  0  0  0  0  0  0  0
  140.9190  158.8610  135.1530 N   0  0  0  0  0  0  0  0  0  0  0  0
  141.2260  159.0990  136.5500 C   0  0  0  0  0  0  0  0  0  0  0  0
  139.6840  158.1630  134.8580 C   0  0  0  0  0  0  0  0  0  0  0  0
  147.0170  157.2370  132.8500 N   0  0  0  0  0  0  0  0  0  0  0  0
  145.8880  156.5240  133.2740 C   0  0  0  0  0  0  0  0  0  0  0  0
  145.1040  157.2100  134.0210 O   0  0  0  0  0  0  0  0  0  0  0  0
  145.5000  155.2040  133.0130 N   0  0  0  0  0  0  0  0  0  0  0  0
  144.2060  154.8330  132.8420 C   0  0  0  0  0  0  0  0  0  0  0  0
  142.9450  155.5090  132.9960 C   0  0  0  0  0  0  0  0  0  0  0  0
  142.6040  156.8370  132.6760 N   0  0  0  0  0  0  0  0  0  0  0  0
  141.9400  154.8510  133.5030 O   0  0  0  0  0  0  0  0  0  0  0  0
  144.2270  153.4640  132.5150 C   0  0  0  0  0  0  0  0  0  0  0  0
  145.5060  153.0160  132.4900 C   0  0  0  0  0  0  0  0  0  0  0  0
  146.0150  151.7720  132.2170 C   0  0  0  0  0  0  0  0  0  0  0  0
  147.3720  151.5550  132.2430 C   0  0  0  0  0  0  0  0  0  0  0  0
  148.1800  152.6150  132.5460 C   0  0  0  0  0  0  0  0  0  0  0  0
  149.6450  152.3860  132.5740 C   0  0  0  0  0  0  0  0  0  0  0  0
  150.0030  151.5200  131.5460 F   0  0  0  0  0  0  0  0  0  0  0  0
  149.9950  151.7550  133.7440 F   0  0  0  0  0  0  0  0  0  0  0  0
  150.3330  153.5640  132.4890 F   0  0  0  0  0  0  0  0  0  0  0  0
  147.6470  153.8670  132.8200 C   0  0  0  0  0  0  0  0  0  0  0  0
  146.2900  154.1180  132.8050 C   0  0  0  0  0  0  0  0  0  0  0  0
  149.0711  159.2010  134.1194 H   0  0  0  0  0  0  0  0  0  0  0  0
  149.2040  158.3020  132.5699 H   0  0  0  0  0  0  0  0  0  0  0  0
  148.6738  160.0183  132.5699 H   0  0  0  0  0  0  0  0  0  0  0  0
  146.9239  158.7013  134.3149 H   0  0  0  0  0  0  0  0  0  0  0  0
  146.9076  160.3271  131.9734 H   0  0  0  0  0  0  0  0  0  0  0  0
  145.8501  158.9502  131.5958 H   0  0  0  0  0  0  0  0  0  0  0  0
  143.4263  159.7466  135.3181 H   0  0  0  0  0  0  0  0  0  0  0  0
  142.8672  161.0854  134.2657 H   0  0  0  0  0  0  0  0  0  0  0  0
  140.5140  158.5470  137.1811 H   0  0  0  0  0  0  0  0  0  0  0  0
  142.2488  158.7555  136.7644 H   0  0  0  0  0  0  0  0  0  0  0  0
  141.1482  160.1751  136.7644 H   0  0  0  0  0  0  0  0  0  0  0  0
  139.1877  157.8825  135.7987 H   0  0  0  0  0  0  0  0  0  0  0  0
  139.0215  158.8202  134.2757 H   0  0  0  0  0  0  0  0  0  0  0  0
  139.9053  157.2564  134.2757 H   0  0  0  0  0  0  0  0  0  0  0  0
  147.7360  156.8200  132.2810 H   0  0  0  0  0  0  0  0  0  0  0  0
  141.8740  157.1010  131.9490 H   0  0  0  0  0  0  0  0  0  0  0  0
  143.0750  157.6490  133.1760 H   0  0  0  0  0  0  0  0  0  0  0  0
  143.3380  152.8494  132.3103 H   0  0  0  0  0  0  0  0  0  0  0  0
  145.3332  150.9431  131.9758 H   0  0  0  0  0  0  0  0  0  0  0  0
  147.7934  150.5621  132.0273 H   0  0  0  0  0  0  0  0  0  0  0  0
  148.3339  154.6924  133.0587 H   0  0  0  0  0  0  0  0  0  0  0  0
  1  2  1  0
  2  3  1  0
  3  4  1  0
  4  5  2  0
  4  6  1  0
  6  7  1  0
  7  8  1  0
  8  9  2  0
  8 10  1  0
 10 11  1  0
 10 12  1  0
  2 13  1  0
 13 14  1  0
 14 15  2  0
 14 16  1  0
 16 17  1  0
 17 18  1  0
 18 19  1  0
 18 20  2  0
 17 21  2  0
 21 22  1  0
 22 23  2  0
 23 24  1  0
 24 25  2  0
 25 26  1  0
 26 27  1  0
 26 28  1  0
 26 29  1  0
 25 30  1  0
 30 31  2  0
 31 16  1  0
 31 22  1  0
  1 32  1  0
  1 33  1  0
  1 34  1  0
  2 35  1  1
  3 36  1  0
  3 37  1  0
  7 38  1  0
  7 39  1  0
 11 40  1  0
 11 41  1  0
 11 42  1  0
 12 43  1  0
 12 44  1  0
 12 45  1  0
 13 46  1  0
 19 47  1  0
 19 48  1  0
 21 49  1  0
 23 50  1  0
 24 51  1  0
 30 52  1  0
M  END
>  <smiles>  (67) 
C[C@@H](CC(=O)OCC(=O)N(C)C)NC(=O)n1c(C(N)=O)cc2ccc(C(F)(F)F)cc21

>  <score_type>  (67) 
oracle

>  <origin>  (67) 
adg

>  <m_score__min__energy>  (67) 
-6.9199999999999999

>  <m_primary>  (67) 
energy

$$$$
69:0
     RDKit          3D

 50 51  0  0  0  0  0  0  0  0999 V2000
  138.5350  157.8670  133.4780 C   0  0  0  0  0  0  0  0  0  0  0  0
  139.6800  157.3200  134.1700 N   0  0  0  0  0  0  0  0  0  0  0  0
  140.2150  157.9850  135.3430 C   0  0  0  0  0  0  0  0  0  0  0  0
  140.2490  156.1210  133.6610 C   0  0  0  0  0  0  0  0  0  0  0  0
  139.7270  155.6030  132.6400 O   0  0  0  0  0  0  0  0  0  0  0  0
  141.4240  155.5490  134.3630 C   0  0  0  0  0  0  0  0  0  0  0  0
  142.6680  156.0330  133.8420 N   0  0  0  0  0  0  0  0  0  0  0  0
  142.5700  157.1580  132.9000 C   0  0  0  0  0  0  0  0  0  0  0  0
  143.9650  155.5120  134.1610 C   0  0  0  0  0  0  0  0  0  0  0  0
  144.0820  155.1790  135.3970 O   0  0  0  0  0  0  0  0  0  0  0  0
  145.0320  155.3710  133.2050 C   0  0  0  0  0  0  0  0  0  0  0  0
  144.7870  154.5690  132.2340 O   0  0  0  0  0  0  0  0  0  0  0  0
  146.2990  155.9810  133.1950 N   0  0  0  0  0  0  0  0  0  0  0  0
  147.5240  155.5140  132.9310 C   0  0  0  0  0  0  0  0  0  0  0  0
  148.0420  154.1550  132.8980 C   0  0  0  0  0  0  0  0  0  0  0  0
  147.1110  153.0550  132.7450 N   0  0  0  0  0  0  0  0  0  0  0  0
  149.2410  153.8180  132.9910 O   0  0  0  0  0  0  0  0  0  0  0  0
  148.4380  156.5840  132.8440 C   0  0  0  0  0  0  0  0  0  0  0  0
  147.7280  157.7230  133.0720 C   0  0  0  0  0  0  0  0  0  0  0  0
  148.1630  159.0340  133.0970 C   0  0  0  0  0  0  0  0  0  0  0  0
  147.2680  160.0440  133.3480 C   0  0  0  0  0  0  0  0  0  0  0  0
  145.9630  159.7050  133.5650 C   0  0  0  0  0  0  0  0  0  0  0  0
  145.0360  160.7510  133.8260 N   0  0  0  0  0  0  0  0  0  0  0  0
  143.6200  160.4700  133.7310 C   0  0  0  0  0  0  0  0  0  0  0  0
  145.4620  162.0940  134.1830 C   0  0  0  0  0  0  0  0  0  0  0  0
  145.5340  158.3780  133.5380 C   0  0  0  0  0  0  0  0  0  0  0  0
  146.4280  157.3460  133.2860 C   0  0  0  0  0  0  0  0  0  0  0  0
  137.7965  158.2198  134.2130 H   0  0  0  0  0  0  0  0  0  0  0  0
  138.8557  158.7092  132.8472 H   0  0  0  0  0  0  0  0  0  0  0  0
  138.0814  157.0883  132.8472 H   0  0  0  0  0  0  0  0  0  0  0  0
  139.8246  157.4997  136.2497 H   0  0  0  0  0  0  0  0  0  0  0  0
  141.3128  157.9168  135.3344 H   0  0  0  0  0  0  0  0  0  0  0  0
  139.9133  159.0428  135.3344 H   0  0  0  0  0  0  0  0  0  0  0  0
  141.3613  155.8148  135.4286 H   0  0  0  0  0  0  0  0  0  0  0  0
  141.4024  154.4593  134.2141 H   0  0  0  0  0  0  0  0  0  0  0  0
  142.4879  158.1003  133.4615 H   0  0  0  0  0  0  0  0  0  0  0  0
  143.4692  157.1855  132.2669 H   0  0  0  0  0  0  0  0  0  0  0  0
  141.6796  157.0297  132.2669 H   0  0  0  0  0  0  0  0  0  0  0  0
  146.3970  153.1930  132.0040 H   0  0  0  0  0  0  0  0  0  0  0  0
  147.1900  152.2100  133.3520 H   0  0  0  0  0  0  0  0  0  0  0  0
  149.5152  156.5124  132.6329 H   0  0  0  0  0  0  0  0  0  0  0  0
  149.2226  159.2676  132.9164 H   0  0  0  0  0  0  0  0  0  0  0  0
  147.5922  161.0948  133.3736 H   0  0  0  0  0  0  0  0  0  0  0  0
  143.1943  160.3855  134.7418 H   0  0  0  0  0  0  0  0  0  0  0  0
  143.1197  161.2864  133.1895 H   0  0  0  0  0  0  0  0  0  0  0  0
  143.4693  159.5244  133.1895 H   0  0  0  0  0  0  0  0  0  0  0  0
  145.4925  162.1900  135.2784 H   0  0  0  0  0  0  0  0  0  0  0  0
  146.4641  162.2826  133.7704 H   0  0  0  0  0  0  0  0  0  0  0  0
  144.7519  162.8258  133.7704 H   0  0  0  0  0  0  0  0  0  0  0  0
  144.4740  158.1462  133.7186 H   0  0  0  0  0  0  0  0  0  0  0  0
  1  2  1  0
  2  3  1  0
  2  4  1  0
  4  5  2  0
  4  6  1  0
  6  7  1  0
  7  8  1  0
  7  9  1  0
  9 10  2  0
  9 11  1  0
 11 12  2  0
 11 13  1  0
 13 14  1  0
 14 15  1  0
 15 16  1  0
 15 17  2  0
 14 18  2  0
 18 19  1  0
 19 20  2  0
 20 21  1  0
 21 22  2  0
 22 23  1  0
 23 24  1  0
 23 25  1  0
 22 26  1  0
 26 27  2  0
 27 13  1  0
 27 19  1  0
  1 28  1  0
  1 29  1  0
  1 30  1  0
  3 31  1  0
  3 32  1  0
  3 33  1  0
  6 34  1  0
  6 35  1  0
  8 36  1  0
  8 37  1  0
  8 38  1  0
 16 39  1  0
 16 40  1  0
 18 41  1  0
 20 42  1  0
 21 43  1  0
 24 44  1  0
 24 45  1  0
 24 46  1  0
 25 47  1  0
 25 48  1  0
 25 49  1  0
 26 50  1  0
M  END
>  <smiles>  (68) 
CN(C)C(=O)CN(C)C(=O)C(=O)n1c(C(N)=O)cc2ccc(N(C)C)cc21

>  <score_type>  (68) 
oracle

>  <origin>  (68) 
adg

>  <m_score__min__energy>  (68) 
-7.8600000000000003

>  <m_primary>  (68) 
energy

$$$$
70:0
     RDKit          3D

 59 61  0  0  1  0  0  0  0  0999 V2000
  140.2990  153.2070  133.0830 C   0  0  0  0  0  0  0  0  0  0  0  0
  141.6100  152.5030  132.8040 C   0  0  1  0  0  0  0  0  0  0  0  0
  142.5820  153.4550  132.2650 N   0  0  0  0  0  0  0  0  0  0  0  0
  142.9220  154.5640  133.1250 C   0  0  0  0  0  0  0  0  0  0  0  0
  142.3280  154.5540  134.2250 O   0  0  0  0  0  0  0  0  0  0  0  0
  143.8730  155.5380  132.6590 C   0  0  0  0  0  0  0  0  0  0  0  0
  144.7520  155.0820  131.8340 O   0  0  0  0  0  0  0  0  0  0  0  0
  143.9650  156.9080  132.9690 N   0  0  0  0  0  0  0  0  0  0  0  0
  144.9910  157.6990  133.2590 C   0  0  0  0  0  0  0  0  0  0  0  0
  146.4270  157.5260  133.0350 C   0  0  0  0  0  0  0  0  0  0  0  0
  147.0140  156.5070  132.2640 N   0  0  0  0  0  0  0  0  0  0  0  0
  147.2270  158.3600  133.5630 O   0  0  0  0  0  0  0  0  0  0  0  0
  144.5360  158.9570  133.7030 C   0  0  0  0  0  0  0  0  0  0  0  0
  143.1800  158.9050  133.6640 C   0  0  0  0  0  0  0  0  0  0  0  0
  142.2570  159.8830  133.9980 C   0  0  0  0  0  0  0  0  0  0  0  0
  140.9190  159.6200  133.8860 C   0  0  0  0  0  0  0  0  0  0  0  0
  140.5370  158.3860  133.4400 C   0  0  0  0  0  0  0  0  0  0  0  0
  139.0720  158.0890  133.3130 C   0  0  0  0  0  0  0  0  0  0  0  0
  138.4670  158.2060  134.5410 F   0  0  0  0  0  0  0  0  0  0  0  0
  138.9530  156.7980  132.8060 F   0  0  0  0  0  0  0  0  0  0  0  0
  141.4790  157.4040  133.1050 C   0  0  0  0  0  0  0  0  0  0  0  0
  142.8430  157.6590  133.2160 C   0  0  0  0  0  0  0  0  0  0  0  0
  142.1350  151.8610  134.0590 C   0  0  0  0  0  0  0  0  0  0  0  0
  141.2590  150.6050  134.1110 C   0  0  0  0  0  0  0  0  0  0  0  0
  141.2970  150.1780  132.7250 N   0  0  0  0  0  0  0  0  0  0  0  0
  141.2490  148.8380  132.2450 C   0  0  0  0  0  0  0  0  0  0  0  0
  141.5880  147.8450  132.9430 O   0  0  0  0  0  0  0  0  0  0  0  0
  140.8150  148.5890  130.9630 O   0  0  0  0  0  0  0  0  0  0  0  0
  139.4940  148.5370  130.5180 C   0  0  0  0  0  0  0  0  0  0  0  0
  139.0550  147.1760  130.0280 C   0  0  0  0  0  0  0  0  0  0  0  0
  138.4780  149.0580  131.4950 C   0  0  0  0  0  0  0  0  0  0  0  0
  139.4250  149.4610  129.2940 C   0  0  0  0  0  0  0  0  0  0  0  0
  141.3950  151.3500  131.8620 C   0  0  0  0  0  0  0  0  0  0  0  0
  140.1499  153.2871  134.1699 H   0  0  0  0  0  0  0  0  0  0  0  0
  140.3222  154.2140  132.6409 H   0  0  0  0  0  0  0  0  0  0  0  0
  139.4724  152.6314  132.6409 H   0  0  0  0  0  0  0  0  0  0  0  0
  142.9920  153.3280  131.3240 H   0  0  0  0  0  0  0  0  0  0  0  0
  147.8820  155.9990  132.4930 H   0  0  0  0  0  0  0  0  0  0  0  0
  146.5280  156.2360  131.3750 H   0  0  0  0  0  0  0  0  0  0  0  0
  145.1554  159.8098  134.0179 H   0  0  0  0  0  0  0  0  0  0  0  0
  142.5986  160.8669  134.3518 H   0  0  0  0  0  0  0  0  0  0  0  0
  140.1702  160.3820  134.1481 H   0  0  0  0  0  0  0  0  0  0  0  0
  138.5751  158.7993  132.6358 H   0  0  0  0  0  0  0  0  0  0  0  0
  141.1367  156.4206  132.7503 H   0  0  0  0  0  0  0  0  0  0  0  0
  141.9802  152.5019  134.9395 H   0  0  0  0  0  0  0  0  0  0  0  0
  143.2178  151.6675  134.0589 H   0  0  0  0  0  0  0  0  0  0  0  0
  140.2338  150.8414  134.4321 H   0  0  0  0  0  0  0  0  0  0  0  0
  141.6023  149.8443  134.8276 H   0  0  0  0  0  0  0  0  0  0  0  0
  138.8453  146.5259  130.8902 H   0  0  0  0  0  0  0  0  0  0  0  0
  138.1453  147.2816  129.4186 H   0  0  0  0  0  0  0  0  0  0  0  0
  139.8549  146.7301  129.4186 H   0  0  0  0  0  0  0  0  0  0  0  0
  138.8301  148.8775  132.5214 H   0  0  0  0  0  0  0  0  0  0  0  0
  138.3399  150.1381  131.3394 H   0  0  0  0  0  0  0  0  0  0  0  0
  137.5203  148.5398  131.3394 H   0  0  0  0  0  0  0  0  0  0  0  0
  139.3469  150.5063  129.6276 H   0  0  0  0  0  0  0  0  0  0  0  0
  140.3350  149.3363  128.6887 H   0  0  0  0  0  0  0  0  0  0  0  0
  138.5437  149.2025  128.6887 H   0  0  0  0  0  0  0  0  0  0  0  0
  140.4671  151.4869  131.2873 H   0  0  0  0  0  0  0  0  0  0  0  0
  142.2075  151.2575  131.1262 H   0  0  0  0  0  0  0  0  0  0  0  0
  1  2  1  0
  2  3  1  6
  3  4  1  0
  4  5  2  0
  4  6  1  0
  6  7  2  0
  6  8  1  0
  8  9  1  0
  9 10  1  0
 10 11  1  0
 10 12  2  0
  9 13  2  0
 13 14  1  0
 14 15  2  0
 15 16  1  0
 16 17  2  0
 17 18  1  0
 18 19  1  0
 18 20  1  0
 17 21  1  0
 21 22  2  0
  2 23  1  0
 23 24  1  0
 24 25  1  0
 25 26  1  0
 26 27  2  0
 26 28  1  0
 28 29  1  0
 29 30  1  0
 29 31  1  0
 29 32  1  0
 25 33  1  0
 33  2  1  0
 22  8  1  0
 22 14  1  0
  1 34  1  0
  1 35  1  0
  1 36  1  0
  3 37  1  0
 11 38  1  0
 11 39  1  0
 13 40  1  0
 15 41  1  0
 16 42  1  0
 18 43  1  0
 21 44  1  0
 23 45  1  0
 23 46  1  0
 24 47  1  0
 24 48  1  0
 30 49  1  0
 30 50  1  0
 30 51  1  0
 31 52  1  0
 31 53  1  0
 31 54  1  0
 32 55  1  0
 32 56  1  0
 32 57  1  0
 33 58  1  0
 33 59  1  0
M  END
>  <smiles>  (69) 
CC1(NC(=O)C(=O)n2c(C(N)=O)cc3ccc(C(F)F)cc32)CCN(C(=O)OC(C)(C)C)C1

>  <score_type>  (69) 
oracle

>  <origin>  (69) 
adg

>  <m_score__min__energy>  (69) 
-9.8800000000000008

>  <m_primary>  (69) 
energy

$$$$
71:0
     RDKit          3D

 49 50  0  0  0  0  0  0  0  0999 V2000
  148.1360  155.1140  132.6200 C   0  0  0  0  0  0  0  0  0  0  0  0
  147.7000  156.5100  132.8900 C   0  0  0  0  0  0  0  0  0  0  0  0
  148.6680  157.4770  133.0310 C   0  0  0  0  0  0  0  0  0  0  0  0
  148.2650  158.7690  133.2800 C   0  0  0  0  0  0  0  0  0  0  0  0
  146.9230  159.0630  133.3820 C   0  0  0  0  0  0  0  0  0  0  0  0
  146.3130  160.2600  133.6220 C   0  0  0  0  0  0  0  0  0  0  0  0
  144.9580  159.9970  133.6220 C   0  0  0  0  0  0  0  0  0  0  0  0
  144.0080  161.1330  133.7200 C   0  0  0  0  0  0  0  0  0  0  0  0
  142.6280  161.0030  133.4130 N   0  0  0  0  0  0  0  0  0  0  0  0
  144.4180  162.2450  134.0750 O   0  0  0  0  0  0  0  0  0  0  0  0
  144.6840  158.7080  133.4040 N   0  0  0  0  0  0  0  0  0  0  0  0
  143.5640  157.9090  133.5080 C   0  0  0  0  0  0  0  0  0  0  0  0
  143.2650  157.2430  132.4110 O   0  0  0  0  0  0  0  0  0  0  0  0
  142.6260  157.6030  134.5230 N   0  0  0  0  0  0  0  0  0  0  0  0
  142.9150  156.2930  135.1740 C   0  0  0  0  0  0  0  0  0  0  0  0
  142.8230  155.1730  134.1660 C   0  0  0  0  0  0  0  0  0  0  0  0
  141.4350  155.0160  133.6320 C   0  0  0  0  0  0  0  0  0  0  0  0
  140.7900  153.9660  133.8000 O   0  0  0  0  0  0  0  0  0  0  0  0
  140.8710  156.0540  132.9460 O   0  0  0  0  0  0  0  0  0  0  0  0
  141.5980  158.4180  135.0020 C   0  0  0  0  0  0  0  0  0  0  0  0
  141.9910  159.5700  135.4610 O   0  0  0  0  0  0  0  0  0  0  0  0
  140.2150  158.2160  135.0760 N   0  0  0  0  0  0  0  0  0  0  0  0
  139.4070  157.8110  136.1890 C   0  0  0  0  0  0  0  0  0  0  0  0
  139.4650  158.4500  133.8100 C   0  0  0  0  0  0  0  0  0  0  0  0
  140.2180  159.2910  132.8920 C   0  0  0  0  0  0  0  0  0  0  0  0
  140.2270  160.5410  132.9370 O   0  0  0  0  0  0  0  0  0  0  0  0
  140.9790  158.6890  131.9010 O   0  0  0  0  0  0  0  0  0  0  0  0
  145.9380  158.1330  133.2480 C   0  0  0  0  0  0  0  0  0  0  0  0
  146.3410  156.8280  132.9970 C   0  0  0  0  0  0  0  0  0  0  0  0
  148.2996  154.5901  133.5733 H   0  0  0  0  0  0  0  0  0  0  0  0
  147.3581  154.5919  132.0435 H   0  0  0  0  0  0  0  0  0  0  0  0
  149.0727  155.1274  132.0435 H   0  0  0  0  0  0  0  0  0  0  0  0
  149.7353  157.2244  132.9470 H   0  0  0  0  0  0  0  0  0  0  0  0
  149.0137  159.5663  133.3975 H   0  0  0  0  0  0  0  0  0  0  0  0
  146.8003  161.2330  133.7823 H   0  0  0  0  0  0  0  0  0  0  0  0
  142.3510  160.2290  132.7460 H   0  0  0  0  0  0  0  0  0  0  0  0
  141.9270  161.6490  133.8340 H   0  0  0  0  0  0  0  0  0  0  0  0
  143.9292  156.3155  135.5993 H   0  0  0  0  0  0  0  0  0  0  0  0
  142.1754  156.1189  135.9694 H   0  0  0  0  0  0  0  0  0  0  0  0
  143.5034  155.3906  133.3295 H   0  0  0  0  0  0  0  0  0  0  0  0
  143.1021  154.2363  134.6707 H   0  0  0  0  0  0  0  0  0  0  0  0
  141.3570  156.5990  132.2630 H   0  0  0  0  0  0  0  0  0  0  0  0
  139.9201  158.0682  137.1274 H   0  0  0  0  0  0  0  0  0  0  0  0
  138.4380  158.3300  136.1467 H   0  0  0  0  0  0  0  0  0  0  0  0
  139.2430  156.7241  136.1467 H   0  0  0  0  0  0  0  0  0  0  0  0
  139.2675  157.4815  133.3273 H   0  0  0  0  0  0  0  0  0  0  0  0
  138.5241  158.9639  134.0561 H   0  0  0  0  0  0  0  0  0  0  0  0
  141.9790  158.6180  131.9090 H   0  0  0  0  0  0  0  0  0  0  0  0
  145.5854  156.0370  132.8812 H   0  0  0  0  0  0  0  0  0  0  0  0
  1  2  1  0
  2  3  2  0
  3  4  1  0
  4  5  2  0
  5  6  1  0
  6  7  2  0
  7  8  1  0
  8  9  1  0
  8 10  2  0
  7 11  1  0
 11 12  1  0
 12 13  2  0
 12 14  1  0
 14 15  1  0
 15 16  1  0
 16 17  1  0
 17 18  2  0
 17 19  1  0
 14 20  1  0
 20 21  2  0
 20 22  1  0
 22 23  1  0
 22 24  1  0
 24 25  1  0
 25 26  2  0
 25 27  1  0
 11 28  1  0
 28 29  2  0
 29  2  1  0
 28  5  1  0
  1 30  1  0
  1 31  1  0
  1 32  1  0
  3 33  1  0
  4 34  1  0
  6 35  1  0
  9 36  1  0
  9 37  1  0
 15 38  1  0
 15 39  1  0
 16 40  1  0
 16 41  1  0
 19 42  1  0
 23 43  1  0
 23 44  1  0
 23 45  1  0
 24 46  1  0
 24 47  1  0
 27 48  1  0
 29 49  1  0
M  END
>  <smiles>  (70) 
Cc1ccc2cc(C(N)=O)n(C(=O)N(CCC(=O)O)C(=O)N(C)CC(=O)O)c2c1

>  <score_type>  (70) 
oracle

>  <origin>  (70) 
adg

>  <m_score__min__energy>  (70) 
-6.1299999999999999

>  <m_primary>  (70) 
energy

$$$$
72:0
     RDKit          3D

 44 45  0  0  1  0  0  0  0  0999 V2000
  144.7150  161.7650  134.0940 C   0  0  0  0  0  0  0  0  0  0  0  0
  145.4890  160.8810  133.8220 C   0  0  0  0  0  0  0  0  0  0  0  0
  146.3960  159.8190  133.4850 C   0  0  0  0  0  0  0  0  0  0  0  0
  147.6660  160.1370  133.0760 C   0  0  0  0  0  0  0  0  0  0  0  0
  148.5070  159.1080  132.7620 C   0  0  0  0  0  0  0  0  0  0  0  0
  148.0880  157.7930  132.8540 C   0  0  0  0  0  0  0  0  0  0  0  0
  148.7540  156.6500  132.6260 C   0  0  0  0  0  0  0  0  0  0  0  0
  147.8920  155.5650  132.8880 C   0  0  0  0  0  0  0  0  0  0  0  0
  148.3710  154.2160  132.6940 C   0  0  0  0  0  0  0  0  0  0  0  0
  147.4380  153.0850  132.7160 N   0  0  0  0  0  0  0  0  0  0  0  0
  149.5500  153.8440  132.4940 O   0  0  0  0  0  0  0  0  0  0  0  0
  146.6870  156.0720  133.2810 N   0  0  0  0  0  0  0  0  0  0  0  0
  145.6380  155.2600  133.7230 C   0  0  0  0  0  0  0  0  0  0  0  0
  146.0470  154.4470  134.6940 O   0  0  0  0  0  0  0  0  0  0  0  0
  144.3070  155.0590  133.4290 N   0  0  0  0  0  0  0  0  0  0  0  0
  143.6120  154.1950  132.5190 C   0  0  0  0  0  0  0  0  0  0  0  0
  143.3460  155.9310  134.2090 C   0  0  0  0  0  0  0  0  0  0  0  0
  142.7520  156.9250  133.3190 C   0  0  0  0  0  0  0  0  0  0  0  0
  143.4910  157.6610  132.5850 O   0  0  0  0  0  0  0  0  0  0  0  0
  141.3740  157.0510  133.2870 O   0  0  0  0  0  0  0  0  0  0  0  0
  140.6520  157.9260  134.1040 C   0  0  1  0  0  0  0  0  0  0  0  0
  140.5650  157.4170  135.5350 C   0  0  0  0  0  0  0  0  0  0  0  0
  141.1550  159.3210  134.0760 C   0  0  0  0  0  0  0  0  0  0  0  0
  140.9990  160.1320  135.0310 O   0  0  0  0  0  0  0  0  0  0  0  0
  141.8210  159.7630  132.9670 O   0  0  0  0  0  0  0  0  0  0  0  0
  146.8090  157.4320  133.2600 C   0  0  0  0  0  0  0  0  0  0  0  0
  145.9870  158.4860  133.5720 C   0  0  0  0  0  0  0  0  0  0  0  0
  144.0090  162.5713  134.3421 H   0  0  0  0  0  0  0  0  0  0  0  0
  147.9954  161.1840  133.0035 H   0  0  0  0  0  0  0  0  0  0  0  0
  149.5327  159.3281  132.4310 H   0  0  0  0  0  0  0  0  0  0  0  0
  149.7987  156.5725  132.2905 H   0  0  0  0  0  0  0  0  0  0  0  0
  147.3340  152.5880  131.8190 H   0  0  0  0  0  0  0  0  0  0  0  0
  146.9440  152.8480  133.6020 H   0  0  0  0  0  0  0  0  0  0  0  0
  143.0220  153.4615  133.0881 H   0  0  0  0  0  0  0  0  0  0  0  0
  142.9407  154.7934  131.8855 H   0  0  0  0  0  0  0  0  0  0  0  0
  144.3404  153.6675  131.8855 H   0  0  0  0  0  0  0  0  0  0  0  0
  142.5512  155.3046  134.6403 H   0  0  0  0  0  0  0  0  0  0  0  0
  143.8907  156.4430  135.0159 H   0  0  0  0  0  0  0  0  0  0  0  0
  139.6390  157.9513  133.6760 H   0  0  0  0  0  0  0  0  0  0  0  0
  140.7084  158.2559  136.2319 H   0  0  0  0  0  0  0  0  0  0  0  0
  139.5766  156.9648  135.7039 H   0  0  0  0  0  0  0  0  0  0  0  0
  141.3472  156.6622  135.7039 H   0  0  0  0  0  0  0  0  0  0  0  0
  142.0920  159.0940  132.2390 H   0  0  0  0  0  0  0  0  0  0  0  0
  144.9609  158.2716  133.9053 H   0  0  0  0  0  0  0  0  0  0  0  0
  1  2  3  0
  2  3  1  0
  3  4  2  0
  4  5  1  0
  5  6  2  0
  6  7  1  0
  7  8  2  0
  8  9  1  0
  9 10  1  0
  9 11  2  0
  8 12  1  0
 12 13  1  0
 13 14  2  0
 13 15  1  0
 15 16  1  0
 15 17  1  0
 17 18  1  0
 18 19  2  0
 18 20  1  0
 20 21  1  0
 21 22  1  0
 21 23  1  0
 23 24  2  0
 23 25  1  0
 12 26  1  0
 26 27  2  0
 27  3  1  0
 26  6  1  0
  1 28  1  0
  4 29  1  0
  5 30  1  0
  7 31  1  0
 10 32  1  0
 10 33  1  0
 16 34  1  0
 16 35  1  0
 16 36  1  0
 17 37  1  0
 17 38  1  0
 21 39  1  6
 22 40  1  0
 22 41  1  0
 22 42  1  0
 25 43  1  0
 27 44  1  0
M  END
>  <smiles>  (71) 
C#Cc1ccc2cc(C(N)=O)n(C(=O)N(C)CC(=O)OC(C)C(=O)O)c2c1

>  <score_type>  (71) 
oracle

>  <origin>  (71) 
adg

>  <m_score__min__energy>  (71) 
-7.9299999999999997

>  <m_primary>  (71) 
energy

$$$$
73:0
     RDKit          3D

 43 44  0  0  1  0  0  0  0  0999 V2000
  148.0950  153.9710  134.7110 C   0  0  0  0  0  0  0  0  0  0  0  0
  147.9960  153.3310  133.3250 C   0  0  1  0  0  0  0  0  0  0  0  0
  148.1420  154.3610  132.3290 N   0  0  0  0  0  0  0  0  0  0  0  0
  147.8380  155.7430  132.5920 C   0  0  0  0  0  0  0  0  0  0  0  0
  148.8580  156.6830  132.6470 C   0  0  0  0  0  0  0  0  0  0  0  0
  148.5340  157.9780  132.9040 C   0  0  0  0  0  0  0  0  0  0  0  0
  147.2270  158.3520  133.1050 C   0  0  0  0  0  0  0  0  0  0  0  0
  146.6510  159.5730  133.3760 C   0  0  0  0  0  0  0  0  0  0  0  0
  145.2690  159.4170  133.4930 C   0  0  0  0  0  0  0  0  0  0  0  0
  144.3980  160.5270  133.7790 C   0  0  0  0  0  0  0  0  0  0  0  0
  143.0300  160.5070  134.0860 N   0  0  0  0  0  0  0  0  0  0  0  0
  144.9330  161.6900  133.7550 O   0  0  0  0  0  0  0  0  0  0  0  0
  145.0090  158.1070  133.2940 N   0  0  0  0  0  0  0  0  0  0  0  0
  143.7620  157.4590  133.2990 C   0  0  0  0  0  0  0  0  0  0  0  0
  143.0340  157.5090  132.2430 O   0  0  0  0  0  0  0  0  0  0  0  0
  143.2010  156.7510  134.3340 O   0  0  0  0  0  0  0  0  0  0  0  0
  142.1540  157.4130  135.0640 C   0  0  0  0  0  0  0  0  0  0  0  0
  140.9620  157.5850  134.1610 C   0  0  0  0  0  0  0  0  0  0  0  0
  140.8350  158.9850  133.6830 C   0  0  0  0  0  0  0  0  0  0  0  0
  140.6480  159.9190  134.5350 O   0  0  0  0  0  0  0  0  0  0  0  0
  140.9150  159.2910  132.3350 O   0  0  0  0  0  0  0  0  0  0  0  0
  146.1810  157.4590  133.0600 C   0  0  0  0  0  0  0  0  0  0  0  0
  146.5250  156.1380  132.7960 C   0  0  0  0  0  0  0  0  0  0  0  0
  149.1750  152.4130  133.1530 C   0  0  0  0  0  0  0  0  0  0  0  0
  149.5260  151.5960  134.0370 O   0  0  0  0  0  0  0  0  0  0  0  0
  149.8800  152.4980  131.9600 O   0  0  0  0  0  0  0  0  0  0  0  0
  147.9751  153.1958  135.4822 H   0  0  0  0  0  0  0  0  0  0  0  0
  149.0781  154.4514  134.8237 H   0  0  0  0  0  0  0  0  0  0  0  0
  147.3030  154.7260  134.8237 H   0  0  0  0  0  0  0  0  0  0  0  0
  147.0365  152.8026  133.2239 H   0  0  0  0  0  0  0  0  0  0  0  0
  148.4820  154.1180  131.3640 H   0  0  0  0  0  0  0  0  0  0  0  0
  149.9050  156.3866  132.4862 H   0  0  0  0  0  0  0  0  0  0  0  0
  149.3289  158.7369  132.9517 H   0  0  0  0  0  0  0  0  0  0  0  0
  147.1951  160.5230  133.4835 H   0  0  0  0  0  0  0  0  0  0  0  0
  142.7580  160.3600  135.0850 H   0  0  0  0  0  0  0  0  0  0  0  0
  142.3520  160.6470  133.3040 H   0  0  0  0  0  0  0  0  0  0  0  0
  141.8715  156.8056  135.9365 H   0  0  0  0  0  0  0  0  0  0  0  0
  142.5051  158.3969  135.4084 H   0  0  0  0  0  0  0  0  0  0  0  0
  141.0738  156.9200  133.2919 H   0  0  0  0  0  0  0  0  0  0  0  0
  140.0574  157.3342  134.7344 H   0  0  0  0  0  0  0  0  0  0  0  0
  141.7110  158.9470  131.7810 H   0  0  0  0  0  0  0  0  0  0  0  0
  145.7285  155.3809  132.7474 H   0  0  0  0  0  0  0  0  0  0  0  0
  150.7550  152.9950  131.8820 H   0  0  0  0  0  0  0  0  0  0  0  0
  1  2  1  0
  2  3  1  0
  3  4  1  0
  4  5  2  0
  5  6  1  0
  6  7  2  0
  7  8  1  0
  8  9  2  0
  9 10  1  0
 10 11  1  0
 10 12  2  0
  9 13  1  0
 13 14  1  0
 14 15  2  0
 14 16  1  0
 16 17  1  0
 17 18  1  0
 18 19  1  0
 19 20  2  0
 19 21  1  0
 13 22  1  0
 22 23  2  0
  2 24  1  0
 24 25  2  0
 24 26  1  0
 23  4  1  0
 22  7  1  0
  1 27  1  0
  1 28  1  0
  1 29  1  0
  2 30  1  1
  3 31  1  0
  5 32  1  0
  6 33  1  0
  8 34  1  0
 11 35  1  0
 11 36  1  0
 17 37  1  0
 17 38  1  0
 18 39  1  0
 18 40  1  0
 21 41  1  0
 23 42  1  0
 26 43  1  0
M  END
>  <smiles>  (72) 
CC(Nc1ccc2cc(C(N)=O)n(C(=O)OCCC(=O)O)c2c1)C(=O)O

>  <score_type>  (72) 
oracle

>  <origin>  (72) 
adg

>  <m_score__min__energy>  (72) 
-6.71

>  <m_primary>  (72) 
energy

$$$$
74:0
     RDKit          3D

 51 53  0  0  1  0  0  0  0  0999 V2000
  137.2190  159.0190  131.3440 C   0  0  0  0  0  0  0  0  0  0  0  0
  138.6460  159.2220  131.4190 N   0  0  0  0  0  0  0  0  0  0  0  0
  139.1140  160.4640  130.7470 C   0  0  0  0  0  0  0  0  0  0  0  0
  139.5910  158.4020  132.0380 C   0  0  0  0  0  0  0  0  0  0  0  0
  140.8240  158.7790  131.9050 O   0  0  0  0  0  0  0  0  0  0  0  0
  139.4260  157.1760  132.8120 C   0  0  1  0  0  0  0  0  0  0  0  0
  140.6450  156.3210  132.6310 N   0  0  0  0  0  0  0  0  0  0  0  0
  140.6390  154.9620  132.9730 C   0  0  0  0  0  0  0  0  0  0  0  0
  139.5190  154.5610  133.4420 O   0  0  0  0  0  0  0  0  0  0  0  0
  141.6610  154.0090  132.8760 N   0  0  0  0  0  0  0  0  0  0  0  0
  142.9760  154.3280  132.9050 C   0  0  0  0  0  0  0  0  0  0  0  0
  143.6880  155.5890  132.9720 C   0  0  0  0  0  0  0  0  0  0  0  0
  145.0880  155.6390  132.5740 N   0  0  0  0  0  0  0  0  0  0  0  0
  143.2530  156.6910  133.3420 O   0  0  0  0  0  0  0  0  0  0  0  0
  143.6910  153.1220  132.8200 C   0  0  0  0  0  0  0  0  0  0  0  0
  142.8250  152.0820  132.7400 C   0  0  0  0  0  0  0  0  0  0  0  0
  143.0490  150.7360  132.6460 C   0  0  0  0  0  0  0  0  0  0  0  0
  141.9970  149.8560  132.5820 C   0  0  0  0  0  0  0  0  0  0  0  0
  140.7290  150.3850  132.6160 C   0  0  0  0  0  0  0  0  0  0  0  0
  139.5870  149.4280  132.5460 C   0  0  0  0  0  0  0  0  0  0  0  0
  139.2520  149.1910  131.1080 C   0  0  0  0  0  0  0  0  0  0  0  0
  137.8600  149.2130  130.9830 O   0  0  0  0  0  0  0  0  0  0  0  0
  140.5190  151.7510  132.7110 C   0  0  0  0  0  0  0  0  0  0  0  0
  141.5550  152.6530  132.7760 C   0  0  0  0  0  0  0  0  0  0  0  0
  139.2920  157.4570  134.2650 C   0  0  0  0  0  0  0  0  0  0  0  0
  140.4630  157.2220  135.1840 C   0  0  0  0  0  0  0  0  0  0  0  0
  139.8590  158.5760  135.0000 C   0  0  0  0  0  0  0  0  0  0  0  0
  136.8031  158.9598  132.3606 H   0  0  0  0  0  0  0  0  0  0  0  0
  136.7567  159.8604  130.8071 H   0  0  0  0  0  0  0  0  0  0  0  0
  137.0096  158.0820  130.8071 H   0  0  0  0  0  0  0  0  0  0  0  0
  139.3945  161.2085  131.5066 H   0  0  0  0  0  0  0  0  0  0  0  0
  139.9872  160.2342  130.1187 H   0  0  0  0  0  0  0  0  0  0  0  0
  138.3063  160.8676  130.1187 H   0  0  0  0  0  0  0  0  0  0  0  0
  138.5140  156.6748  132.4554 H   0  0  0  0  0  0  0  0  0  0  0  0
  141.4410  156.8040  132.2640 H   0  0  0  0  0  0  0  0  0  0  0  0
  145.8010  155.4720  133.3240 H   0  0  0  0  0  0  0  0  0  0  0  0
  145.3350  155.8350  131.5740 H   0  0  0  0  0  0  0  0  0  0  0  0
  144.7875  153.0346  132.8186 H   0  0  0  0  0  0  0  0  0  0  0  0
  144.0807  150.3553  132.6215 H   0  0  0  0  0  0  0  0  0  0  0  0
  142.1624  148.7711  132.5065 H   0  0  0  0  0  0  0  0  0  0  0  0
  139.8699  148.4777  133.0223 H   0  0  0  0  0  0  0  0  0  0  0  0
  138.7149  149.8438  133.0719 H   0  0  0  0  0  0  0  0  0  0  0  0
  139.6959  149.9817  130.4854 H   0  0  0  0  0  0  0  0  0  0  0  0
  139.6518  148.2216  130.7757 H   0  0  0  0  0  0  0  0  0  0  0  0
  137.4520  149.4900  131.8530 H   0  0  0  0  0  0  0  0  0  0  0  0
  139.4859  152.1279  132.7353 H   0  0  0  0  0  0  0  0  0  0  0  0
  138.2554  157.1069  134.1516 H   0  0  0  0  0  0  0  0  0  0  0  0
  140.3265  156.6766  136.1295 H   0  0  0  0  0  0  0  0  0  0  0  0
  141.4681  156.7859  135.0866 H   0  0  0  0  0  0  0  0  0  0  0  0
  139.2884  159.0353  135.8207 H   0  0  0  0  0  0  0  0  0  0  0  0
  140.2543  159.5622  134.7150 H   0  0  0  0  0  0  0  0  0  0  0  0
  1  2  1  0
  2  3  1  0
  2  4  1  0
  4  5  2  0
  4  6  1  0
  6  7  1  0
  7  8  1  0
  8  9  2  0
  8 10  1  0
 10 11  1  0
 11 12  1  0
 12 13  1  0
 12 14  2  0
 11 15  2  0
 15 16  1  0
 16 17  2  0
 17 18  1  0
 18 19  2  0
 19 20  1  0
 20 21  1  0
 21 22  1  0
 19 23  1  0
 23 24  2  0
  6 25  1  0
 25 26  1  0
 26 27  1  0
 24 10  1  0
 27 25  1  0
 24 16  1  0
  1 28  1  0
  1 29  1  0
  1 30  1  0
  3 31  1  0
  3 32  1  0
  3 33  1  0
  6 34  1  6
  7 35  1  0
 13 36  1  0
 13 37  1  0
 15 38  1  0
 17 39  1  0
 18 40  1  0
 20 41  1  0
 20 42  1  0
 21 43  1  0
 21 44  1  0
 22 45  1  0
 23 46  1  0
 25 47  1  0
 26 48  1  0
 26 49  1  0
 27 50  1  0
 27 51  1  0
M  END
>  <smiles>  (73) 
CN(C)C(=O)C(NC(=O)n1c(C(N)=O)cc2ccc(CCO)cc21)C1CC1

>  <score_type>  (73) 
oracle

>  <origin>  (73) 
adg

>  <m_score__min__energy>  (73) 
-8.6199999999999992

>  <m_primary>  (73) 
energy

$$$$
75:0
     RDKit          3D

 46 47  0  0  0  0  0  0  0  0999 V2000
  141.0460  158.9070  134.2080 C   0  0  0  0  0  0  0  0  0  0  0  0
  142.4730  159.2420  133.9680 C   0  0  0  0  0  0  0  0  0  0  0  0
  142.7880  160.5510  133.7230 C   0  0  0  0  0  0  0  0  0  0  0  0
  144.1060  160.8610  133.5010 C   0  0  0  0  0  0  0  0  0  0  0  0
  145.0690  159.8600  133.5290 C   0  0  0  0  0  0  0  0  0  0  0  0
  146.4030  159.9620  133.3400 C   0  0  0  0  0  0  0  0  0  0  0  0
  146.9190  158.6560  133.4750 C   0  0  0  0  0  0  0  0  0  0  0  0
  148.3500  158.4940  133.2580 C   0  0  0  0  0  0  0  0  0  0  0  0
  148.9630  157.4740  132.5180 N   0  0  0  0  0  0  0  0  0  0  0  0
  149.1350  159.3670  133.7760 O   0  0  0  0  0  0  0  0  0  0  0  0
  145.9530  157.7790  133.7430 N   0  0  0  0  0  0  0  0  0  0  0  0
  145.9180  156.4480  134.1560 C   0  0  0  0  0  0  0  0  0  0  0  0
  144.7820  156.1330  134.7670 O   0  0  0  0  0  0  0  0  0  0  0  0
  146.7720  155.3550  134.1170 N   0  0  0  0  0  0  0  0  0  0  0  0
  147.5300  154.6250  135.0630 C   0  0  0  0  0  0  0  0  0  0  0  0
  146.7770  153.9670  136.1450 C   0  0  0  0  0  0  0  0  0  0  0  0
  147.3450  153.0190  136.7660 O   0  0  0  0  0  0  0  0  0  0  0  0
  145.5020  154.2950  136.5410 O   0  0  0  0  0  0  0  0  0  0  0  0
  146.9490  154.7770  132.7140 C   0  0  0  0  0  0  0  0  0  0  0  0
  148.3340  154.2710  132.6300 C   0  0  0  0  0  0  0  0  0  0  0  0
  149.2880  155.0900  132.6230 O   0  0  0  0  0  0  0  0  0  0  0  0
  148.5250  152.8700  132.5600 N   0  0  0  0  0  0  0  0  0  0  0  0
  147.4010  151.9260  132.5690 C   0  0  0  0  0  0  0  0  0  0  0  0
  149.8620  152.3150  132.4770 C   0  0  0  0  0  0  0  0  0  0  0  0
  144.7950  158.5470  133.7690 C   0  0  0  0  0  0  0  0  0  0  0  0
  143.4570  158.2450  133.9930 C   0  0  0  0  0  0  0  0  0  0  0  0
  140.8569  158.8626  135.2907 H   0  0  0  0  0  0  0  0  0  0  0  0
  140.4069  159.6795  133.7555 H   0  0  0  0  0  0  0  0  0  0  0  0
  140.8174  157.9308  133.7555 H   0  0  0  0  0  0  0  0  0  0  0  0
  142.0104  161.3288  133.7047 H   0  0  0  0  0  0  0  0  0  0  0  0
  144.4001  161.9019  133.3009 H   0  0  0  0  0  0  0  0  0  0  0  0
  146.9719  160.8785  133.1244 H   0  0  0  0  0  0  0  0  0  0  0  0
  148.3300  156.9100  131.8760 H   0  0  0  0  0  0  0  0  0  0  0  0
  149.9810  157.2690  132.5820 H   0  0  0  0  0  0  0  0  0  0  0  0
  148.0818  153.8449  134.5181 H   0  0  0  0  0  0  0  0  0  0  0  0
  148.1652  155.3707  135.5635 H   0  0  0  0  0  0  0  0  0  0  0  0
  145.1520  155.2250  136.7000 H   0  0  0  0  0  0  0  0  0  0  0  0
  146.2357  153.9558  132.5505 H   0  0  0  0  0  0  0  0  0  0  0  0
  146.7623  155.5424  131.9464 H   0  0  0  0  0  0  0  0  0  0  0  0
  147.1251  151.6943  133.6083 H   0  0  0  0  0  0  0  0  0  0  0  0
  146.5402  152.3759  132.0527 H   0  0  0  0  0  0  0  0  0  0  0  0
  147.6954  151.0004  132.0527 H   0  0  0  0  0  0  0  0  0  0  0  0
  150.2549  152.1519  133.4914 H   0  0  0  0  0  0  0  0  0  0  0  0
  149.8284  151.3565  131.9383 H   0  0  0  0  0  0  0  0  0  0  0  0
  150.5170  153.0156  131.9383 H   0  0  0  0  0  0  0  0  0  0  0  0
  143.1651  157.2036  134.1937 H   0  0  0  0  0  0  0  0  0  0  0  0
  1  2  1  0
  2  3  2  0
  3  4  1  0
  4  5  2  0
  5  6  1  0
  6  7  2  0
  7  8  1  0
  8  9  1  0
  8 10  2  0
  7 11  1  0
 11 12  1  0
 12 13  2  0
 12 14  1  0
 14 15  1  0
 15 16  1  0
 16 17  2  0
 16 18  1  0
 14 19  1  0
 19 20  1  0
 20 21  2  0
 20 22  1  0
 22 23  1  0
 22 24  1  0
 11 25  1  0
 25 26  2  0
 26  2  1  0
 25  5  1  0
  1 27  1  0
  1 28  1  0
  1 29  1  0
  3 30  1  0
  4 31  1  0
  6 32  1  0
  9 33  1  0
  9 34  1  0
 15 35  1  0
 15 36  1  0
 18 37  1  0
 19 38  1  0
 19 39  1  0
 23 40  1  0
 23 41  1  0
 23 42  1  0
 24 43  1  0
 24 44  1  0
 24 45  1  0
 26 46  1  0
M  END
>  <smiles>  (74) 
Cc1ccc2cc(C(N)=O)n(C(=O)N(CC(=O)O)CC(=O)N(C)C)c2c1

>  <score_type>  (74) 
oracle

>  <origin>  (74) 
adg

>  <m_score__min__energy>  (74) 
-7.4299999999999997

>  <m_primary>  (74) 
energy

$$$$
76:0
     RDKit          3D

 38 39  0  0  0  0  0  0  0  0999 V2000
  142.4720  154.7500  133.0270 N   0  0  0  0  0  0  0  0  0  0  0  0
  143.8260  154.3980  133.4070 C   0  0  0  0  0  0  0  0  0  0  0  0
  143.9590  153.2330  133.8260 O   0  0  0  0  0  0  0  0  0  0  0  0
  144.8620  155.3900  133.2740 C   0  0  0  0  0  0  0  0  0  0  0  0
  146.2190  155.0630  133.1790 C   0  0  0  0  0  0  0  0  0  0  0  0
  146.9690  156.2070  133.0620 C   0  0  0  0  0  0  0  0  0  0  0  0
  148.3300  156.4020  132.9410 C   0  0  0  0  0  0  0  0  0  0  0  0
  148.8380  157.6780  132.8360 C   0  0  0  0  0  0  0  0  0  0  0  0
  147.9570  158.7360  132.8550 C   0  0  0  0  0  0  0  0  0  0  0  0
  148.4930  160.1180  132.7430 C   0  0  0  0  0  0  0  0  0  0  0  0
  148.8710  160.5220  130.8770 Br  0  0  0  0  0  0  0  0  0  0  0  0
  146.5870  158.5170  132.9780 C   0  0  0  0  0  0  0  0  0  0  0  0
  146.0550  157.2460  133.0840 C   0  0  0  0  0  0  0  0  0  0  0  0
  144.8050  156.7320  133.2110 N   0  0  0  0  0  0  0  0  0  0  0  0
  143.6540  157.5300  133.2650 C   0  0  0  0  0  0  0  0  0  0  0  0
  142.8970  157.5660  132.2350 O   0  0  0  0  0  0  0  0  0  0  0  0
  143.2340  158.3010  134.3260 O   0  0  0  0  0  0  0  0  0  0  0  0
  142.2390  157.8810  135.2070 C   0  0  0  0  0  0  0  0  0  0  0  0
  142.3340  156.8060  135.8350 O   0  0  0  0  0  0  0  0  0  0  0  0
  141.1420  158.6950  135.3640 O   0  0  0  0  0  0  0  0  0  0  0  0
  139.8560  158.2670  135.7050 C   0  0  0  0  0  0  0  0  0  0  0  0
  138.9690  158.1900  134.6370 O   0  0  0  0  0  0  0  0  0  0  0  0
  139.7680  157.7620  133.2060 P   0  0  0  0  0  0  0  0  0  0  0  0
  138.8040  157.5450  132.0570 O   0  0  0  0  0  0  0  0  0  0  0  0
  140.7060  156.3920  133.3750 O   0  0  0  0  0  0  0  0  0  0  0  0
  140.7710  159.0710  132.7550 O   0  0  0  0  0  0  0  0  0  0  0  0
  142.3500  155.4780  132.2620 H   0  0  0  0  0  0  0  0  0  0  0  0
  141.6490  154.3250  133.4650 H   0  0  0  0  0  0  0  0  0  0  0  0
  146.6249  154.0408  133.1956 H   0  0  0  0  0  0  0  0  0  0  0  0
  149.0098  155.5373  132.9284 H   0  0  0  0  0  0  0  0  0  0  0  0
  149.9205  157.8476  132.7394 H   0  0  0  0  0  0  0  0  0  0  0  0
  147.7498  160.8313  133.1288 H   0  0  0  0  0  0  0  0  0  0  0  0
  149.4201  160.1991  133.3295 H   0  0  0  0  0  0  0  0  0  0  0  0
  145.9078  159.3822  132.9912 H   0  0  0  0  0  0  0  0  0  0  0  0
  139.9358  157.2675  136.1574 H   0  0  0  0  0  0  0  0  0  0  0  0
  139.4490  159.0215  136.3943 H   0  0  0  0  0  0  0  0  0  0  0  0
  141.5870  156.6520  133.7270 H   0  0  0  0  0  0  0  0  0  0  0  0
  141.6340  159.0240  133.2430 H   0  0  0  0  0  0  0  0  0  0  0  0
  1  2  1  0
  2  3  2  0
  2  4  1  0
  4  5  2  0
  5  6  1  0
  6  7  2  0
  7  8  1  0
  8  9  2  0
  9 10  1  0
 10 11  1  0
  9 12  1  0
 12 13  2  0
 13 14  1  0
 14 15  1  0
 15 16  2  0
 15 17  1  0
 17 18  1  0
 18 19  2  0
 18 20  1  0
 20 21  1  0
 21 22  1  0
 22 23  1  0
 23 24  2  0
 23 25  1  0
 23 26  1  0
 14  4  1  0
 13  6  1  0
  1 27  1  0
  1 28  1  0
  5 29  1  0
  7 30  1  0
  8 31  1  0
 10 32  1  0
 10 33  1  0
 12 34  1  0
 21 35  1  0
 21 36  1  0
 25 37  1  0
 26 38  1  0
M  END
>  <smiles>  (75) 
NC(=O)c1cc2ccc(CBr)cc2n1C(=O)OC(=O)OCOP(=O)(O)O

>  <score_type>  (75) 
oracle

>  <origin>  (75) 
adg

>  <m_score__min__energy>  (75) 
-6.4400000000000004

>  <m_primary>  (75) 
energy

$$$$
77:0
     RDKit          3D

 35 36  0  0  0  0  0  0  0  0999 V2000
  143.7390  155.2670  135.5280 N   0  0  0  0  0  0  0  0  0  0  0  0
  142.3820  155.6200  135.5680 C   0  0  0  0  0  0  0  0  0  0  0  0
  141.6970  155.0290  136.4800 O   0  0  0  0  0  0  0  0  0  0  0  0
  141.6740  156.5460  134.7290 C   0  0  0  0  0  0  0  0  0  0  0  0
  141.8980  157.9290  134.7930 C   0  0  0  0  0  0  0  0  0  0  0  0
  141.0930  158.5720  133.8890 C   0  0  0  0  0  0  0  0  0  0  0  0
  140.9440  159.9070  133.5760 C   0  0  0  0  0  0  0  0  0  0  0  0
  140.0450  160.2910  132.6050 C   0  0  0  0  0  0  0  0  0  0  0  0
  139.3030  159.3280  131.9570 C   0  0  0  0  0  0  0  0  0  0  0  0
  138.3320  159.7450  130.9080 C   0  0  0  0  0  0  0  0  0  0  0  0
  138.4280  161.1150  130.8000 F   0  0  0  0  0  0  0  0  0  0  0  0
  138.7340  159.2060  129.7070 F   0  0  0  0  0  0  0  0  0  0  0  0
  137.0390  159.4160  131.2550 F   0  0  0  0  0  0  0  0  0  0  0  0
  139.4770  157.9870  132.2960 C   0  0  0  0  0  0  0  0  0  0  0  0
  140.3710  157.5800  133.2650 C   0  0  0  0  0  0  0  0  0  0  0  0
  140.7340  156.3700  133.7840 N   0  0  0  0  0  0  0  0  0  0  0  0
  140.1770  155.1410  133.3570 C   0  0  0  0  0  0  0  0  0  0  0  0
  139.1400  155.0120  132.6640 O   0  0  0  0  0  0  0  0  0  0  0  0
  140.7940  153.9370  133.7090 O   0  0  0  0  0  0  0  0  0  0  0  0
  140.5920  152.7510  132.9670 C   0  0  0  0  0  0  0  0  0  0  0  0
  141.7690  152.3730  132.2870 O   0  0  0  0  0  0  0  0  0  0  0  0
  143.0890  152.9190  133.2310 P   0  0  0  0  0  0  0  0  0  0  0  0
  144.3160  152.1660  132.7880 O   0  0  0  0  0  0  0  0  0  0  0  0
  143.2600  154.5780  132.8720 O   0  0  0  0  0  0  0  0  0  0  0  0
  142.8420  152.7000  134.8670 O   0  0  0  0  0  0  0  0  0  0  0  0
  144.0750  154.4570  134.9410 H   0  0  0  0  0  0  0  0  0  0  0  0
  144.4090  155.8430  136.1170 H   0  0  0  0  0  0  0  0  0  0  0  0
  142.6125  158.4235  135.4675 H   0  0  0  0  0  0  0  0  0  0  0  0
  141.5430  160.6652  134.1016 H   0  0  0  0  0  0  0  0  0  0  0  0
  139.9212  161.3539  132.3502 H   0  0  0  0  0  0  0  0  0  0  0  0
  138.8801  157.2259  131.7721 H   0  0  0  0  0  0  0  0  0  0  0  0
  140.2978  151.9432  133.6532 H   0  0  0  0  0  0  0  0  0  0  0  0
  139.8013  152.9329  132.2242 H   0  0  0  0  0  0  0  0  0  0  0  0
  142.4150  154.9780  132.6120 H   0  0  0  0  0  0  0  0  0  0  0  0
  142.1560  153.2950  135.2570 H   0  0  0  0  0  0  0  0  0  0  0  0
  1  2  1  0
  2  3  2  0
  2  4  1  0
  4  5  2  0
  5  6  1  0
  6  7  2  0
  7  8  1  0
  8  9  2  0
  9 10  1  0
 10 11  1  0
 10 12  1  0
 10 13  1  0
  9 14  1  0
 14 15  2  0
 15 16  1  0
 16 17  1  0
 17 18  2  0
 17 19  1  0
 19 20  1  0
 20 21  1  0
 21 22  1  0
 22 23  2  0
 22 24  1  0
 22 25  1  0
 16  4  1  0
 15  6  1  0
  1 26  1  0
  1 27  1  0
  5 28  1  0
  7 29  1  0
  8 30  1  0
 14 31  1  0
 20 32  1  0
 20 33  1  0
 24 34  1  0
 25 35  1  0
M  END
>  <smiles>  (76) 
NC(=O)c1cc2ccc(C(F)(F)F)cc2n1C(=O)OCOP(=O)(O)O

>  <score_type>  (76) 
oracle

>  <origin>  (76) 
adg

>  <m_score__min__energy>  (76) 
-6.5

>  <m_primary>  (76) 
energy

$$$$
78:0
     RDKit          3D

 44 45  0  0  0  0  0  0  0  0999 V2000
  143.6030  155.1830  132.6960 C   0  0  0  0  0  0  0  0  0  0  0  0
  144.3540  153.9070  133.0900 C   0  0  0  0  0  0  0  0  0  0  0  0
  145.7310  154.2870  133.4360 N   0  0  0  0  0  0  0  0  0  0  0  0
  146.7660  153.3120  133.3680 C   0  0  0  0  0  0  0  0  0  0  0  0
  148.0750  153.8290  133.9540 C   0  0  0  0  0  0  0  0  0  0  0  0
  149.0550  153.9800  132.8450 C   0  0  0  0  0  0  0  0  0  0  0  0
  149.5720  152.9970  132.2520 O   0  0  0  0  0  0  0  0  0  0  0  0
  149.4130  155.2580  132.4480 O   0  0  0  0  0  0  0  0  0  0  0  0
  145.8800  155.6730  133.8030 C   0  0  0  0  0  0  0  0  0  0  0  0
  145.4660  155.8960  134.9930 O   0  0  0  0  0  0  0  0  0  0  0  0
  146.4300  156.6760  132.9340 C   0  0  0  0  0  0  0  0  0  0  0  0
  147.0630  156.2110  131.9130 O   0  0  0  0  0  0  0  0  0  0  0  0
  146.3710  158.0740  133.0270 N   0  0  0  0  0  0  0  0  0  0  0  0
  147.3220  159.0170  133.0210 C   0  0  0  0  0  0  0  0  0  0  0  0
  148.7050  158.9710  132.5820 C   0  0  0  0  0  0  0  0  0  0  0  0
  149.2900  157.6830  132.2630 N   0  0  0  0  0  0  0  0  0  0  0  0
  149.4760  159.9430  132.4400 O   0  0  0  0  0  0  0  0  0  0  0  0
  146.7570  160.2660  133.3590 C   0  0  0  0  0  0  0  0  0  0  0  0
  145.4330  160.0540  133.5660 C   0  0  0  0  0  0  0  0  0  0  0  0
  144.4440  160.9500  133.9150 C   0  0  0  0  0  0  0  0  0  0  0  0
  143.1400  160.5370  134.0820 C   0  0  0  0  0  0  0  0  0  0  0  0
  142.8820  159.1980  133.8820 C   0  0  0  0  0  0  0  0  0  0  0  0
  141.4750  158.7410  134.0600 C   0  0  0  0  0  0  0  0  0  0  0  0
  143.8920  158.2970  133.5270 C   0  0  0  0  0  0  0  0  0  0  0  0
  145.2050  158.7190  133.3610 C   0  0  0  0  0  0  0  0  0  0  0  0
  143.2880  155.7182  133.6039 H   0  0  0  0  0  0  0  0  0  0  0  0
  144.2649  155.8290  132.1006 H   0  0  0  0  0  0  0  0  0  0  0  0
  142.7169  154.9179  132.1006 H   0  0  0  0  0  0  0  0  0  0  0  0
  143.8659  153.4377  133.9569 H   0  0  0  0  0  0  0  0  0  0  0  0
  144.3508  153.1862  132.2590 H   0  0  0  0  0  0  0  0  0  0  0  0
  146.4521  152.4206  133.9309 H   0  0  0  0  0  0  0  0  0  0  0  0
  146.9386  153.0721  132.3084 H   0  0  0  0  0  0  0  0  0  0  0  0
  147.9073  154.8027  134.4375 H   0  0  0  0  0  0  0  0  0  0  0  0
  148.4587  153.1237  134.7059 H   0  0  0  0  0  0  0  0  0  0  0  0
  148.7640  155.7380  131.8260 H   0  0  0  0  0  0  0  0  0  0  0  0
  149.0110  157.1450  131.4240 H   0  0  0  0  0  0  0  0  0  0  0  0
  150.0080  157.3710  132.9630 H   0  0  0  0  0  0  0  0  0  0  0  0
  147.2880  161.2260  133.4391 H   0  0  0  0  0  0  0  0  0  0  0  0
  144.7000  162.0096  134.0621 H   0  0  0  0  0  0  0  0  0  0  0  0
  142.3433  161.2421  134.3615 H   0  0  0  0  0  0  0  0  0  0  0  0
  141.2466  158.6668  135.1335 H   0  0  0  0  0  0  0  0  0  0  0  0
  140.7924  159.4636  133.5890 H   0  0  0  0  0  0  0  0  0  0  0  0
  141.3473  157.7552  133.5890 H   0  0  0  0  0  0  0  0  0  0  0  0
  143.6420  157.2364  133.3768 H   0  0  0  0  0  0  0  0  0  0  0  0
  1  2  1  0
  2  3  1  0
  3  4  1  0
  4  5  1  0
  5  6  1  0
  6  7  2  0
  6  8  1  0
  3  9  1  0
  9 10  2  0
  9 11  1  0
 11 12  2  0
 11 13  1  0
 13 14  1  0
 14 15  1  0
 15 16  1  0
 15 17  2  0
 14 18  2  0
 18 19  1  0
 19 20  2  0
 20 21  1  0
 21 22  2  0
 22 23  1  0
 22 24  1  0
 24 25  2  0
 25 13  1  0
 25 19  1  0
  1 26  1  0
  1 27  1  0
  1 28  1  0
  2 29  1  0
  2 30  1  0
  4 31  1  0
  4 32  1  0
  5 33  1  0
  5 34  1  0
  8 35  1  0
 16 36  1  0
 16 37  1  0
 18 38  1  0
 20 39  1  0
 21 40  1  0
 23 41  1  0
 23 42  1  0
 23 43  1  0
 24 44  1  0
M  END
>  <smiles>  (77) 
CCN(CCC(=O)O)C(=O)C(=O)n1c(C(N)=O)cc2ccc(C)cc21

>  <score_type>  (77) 
oracle

>  <origin>  (77) 
adg

>  <m_score__min__energy>  (77) 
-7.2400000000000002

>  <m_primary>  (77) 
energy

$$$$
79:0
     RDKit          3D

 43 44  0  0  0  0  0  0  0  0999 V2000
  148.8370  155.6820  132.9830 C   0  0  0  0  0  0  0  0  0  0  0  0
  147.9440  156.8650  133.0600 C   0  0  0  0  0  0  0  0  0  0  0  0
  148.4810  158.1300  132.9900 C   0  0  0  0  0  0  0  0  0  0  0  0
  147.6440  159.1990  133.0620 C   0  0  0  0  0  0  0  0  0  0  0  0
  146.2830  159.0170  133.2030 C   0  0  0  0  0  0  0  0  0  0  0  0
  145.2520  159.9140  133.2970 C   0  0  0  0  0  0  0  0  0  0  0  0
  144.0430  159.2150  133.4300 C   0  0  0  0  0  0  0  0  0  0  0  0
  142.7650  159.8640  133.5520 C   0  0  0  0  0  0  0  0  0  0  0  0
  141.6510  159.3270  132.7950 N   0  0  0  0  0  0  0  0  0  0  0  0
  142.4880  160.8590  134.2440 O   0  0  0  0  0  0  0  0  0  0  0  0
  144.3600  157.8970  133.4130 N   0  0  0  0  0  0  0  0  0  0  0  0
  143.4830  156.7890  133.5160 C   0  0  0  0  0  0  0  0  0  0  0  0
  143.8210  155.7860  134.2060 O   0  0  0  0  0  0  0  0  0  0  0  0
  142.2440  156.6990  132.9080 O   0  0  0  0  0  0  0  0  0  0  0  0
  141.1470  156.2120  133.6760 C   0  0  0  0  0  0  0  0  0  0  0  0
  139.9200  156.6280  133.0960 O   0  0  0  0  0  0  0  0  0  0  0  0
  139.3000  157.8090  133.4680 C   0  0  0  0  0  0  0  0  0  0  0  0
  139.4920  158.2430  134.6490 O   0  0  0  0  0  0  0  0  0  0  0  0
  138.4220  158.5970  132.5650 C   0  0  0  0  0  0  0  0  0  0  0  0
  139.2820  159.3570  131.6760 N   0  0  0  0  0  0  0  0  0  0  0  0
  139.1060  158.9610  130.2940 C   0  0  0  0  0  0  0  0  0  0  0  0
  139.1000  160.7820  131.8550 C   0  0  0  0  0  0  0  0  0  0  0  0
  145.7030  157.7740  133.2770 C   0  0  0  0  0  0  0  0  0  0  0  0
  146.5740  156.6890  133.2020 C   0  0  0  0  0  0  0  0  0  0  0  0
  149.0900  155.3468  133.9997 H   0  0  0  0  0  0  0  0  0  0  0  0
  148.3246  154.8701  132.4461 H   0  0  0  0  0  0  0  0  0  0  0  0
  149.7583  155.9523  132.4461 H   0  0  0  0  0  0  0  0  0  0  0  0
  149.5658  158.2735  132.8780 H   0  0  0  0  0  0  0  0  0  0  0  0
  148.0550  160.2179  133.0074 H   0  0  0  0  0  0  0  0  0  0  0  0
  145.3556  161.0088  133.2721 H   0  0  0  0  0  0  0  0  0  0  0  0
  141.1300  158.5310  133.2220 H   0  0  0  0  0  0  0  0  0  0  0  0
  141.4100  159.7500  131.8630 H   0  0  0  0  0  0  0  0  0  0  0  0
  141.1819  155.1129  133.7032 H   0  0  0  0  0  0  0  0  0  0  0  0
  141.2164  156.6152  134.6971 H   0  0  0  0  0  0  0  0  0  0  0  0
  137.7807  157.9210  131.9804 H   0  0  0  0  0  0  0  0  0  0  0  0
  137.7725  159.2692  133.1449 H   0  0  0  0  0  0  0  0  0  0  0  0
  138.6595  157.9565  130.2544 H   0  0  0  0  0  0  0  0  0  0  0  0
  138.4417  159.6777  129.7890 H   0  0  0  0  0  0  0  0  0  0  0  0
  140.0831  158.9481  129.7890 H   0  0  0  0  0  0  0  0  0  0  0  0
  139.0702  161.0157  132.9295 H   0  0  0  0  0  0  0  0  0  0  0  0
  139.9367  161.3203  131.3858 H   0  0  0  0  0  0  0  0  0  0  0  0
  138.1549  161.0927  131.3858 H   0  0  0  0  0  0  0  0  0  0  0  0
  146.1666  155.6687  133.2566 H   0  0  0  0  0  0  0  0  0  0  0  0
  1  2  1  0
  2  3  2  0
  3  4  1  0
  4  5  2  0
  5  6  1  0
  6  7  2  0
  7  8  1  0
  8  9  1  0
  8 10  2  0
  7 11  1  0
 11 12  1  0
 12 13  2  0
 12 14  1  0
 14 15  1  0
 15 16  1  0
 16 17  1  0
 17 18  2  0
 17 19  1  0
 19 20  1  0
 20 21  1  0
 20 22  1  0
 11 23  1  0
 23 24  2  0
 24  2  1  0
 23  5  1  0
  1 25  1  0
  1 26  1  0
  1 27  1  0
  3 28  1  0
  4 29  1  0
  6 30  1  0
  9 31  1  0
  9 32  1  0
 15 33  1  0
 15 34  1  0
 19 35  1  0
 19 36  1  0
 21 37  1  0
 21 38  1  0
 21 39  1  0
 22 40  1  0
 22 41  1  0
 22 42  1  0
 24 43  1  0
M  END
>  <smiles>  (78) 
Cc1ccc2cc(C(N)=O)n(C(=O)OCOC(=O)CN(C)C)c2c1

>  <score_type>  (78) 
oracle

>  <origin>  (78) 
adg

>  <m_score__min__energy>  (78) 
-6.8899999999999997

>  <m_primary>  (78) 
energy

$$$$
80:0
     RDKit          3D

 46 47  0  0  0  0  0  0  0  0999 V2000
  145.1310  152.4660  131.7110 N   0  0  0  0  0  0  0  0  0  0  0  0
  143.9940  152.3170  132.6060 C   0  0  0  0  0  0  0  0  0  0  0  0
  143.8870  151.1580  133.0660 O   0  0  0  0  0  0  0  0  0  0  0  0
  143.1350  153.4480  132.8720 C   0  0  0  0  0  0  0  0  0  0  0  0
  141.7380  153.2970  132.8760 C   0  0  0  0  0  0  0  0  0  0  0  0
  141.1850  154.5000  133.1540 C   0  0  0  0  0  0  0  0  0  0  0  0
  139.8550  154.8670  133.2340 C   0  0  0  0  0  0  0  0  0  0  0  0
  139.5010  156.1730  133.4850 C   0  0  0  0  0  0  0  0  0  0  0  0
  140.5240  157.0770  133.6480 C   0  0  0  0  0  0  0  0  0  0  0  0
  140.1620  158.4840  133.9160 C   0  0  0  0  0  0  0  0  0  0  0  0
  141.3500  159.3210  134.2300 C   0  0  0  0  0  0  0  0  0  0  0  0
  141.4460  159.9310  135.3200 O   0  0  0  0  0  0  0  0  0  0  0  0
  142.3660  159.3950  133.2390 N   0  0  0  0  0  0  0  0  0  0  0  0
  143.5280  160.2000  133.5210 C   0  0  0  0  0  0  0  0  0  0  0  0
  144.7950  159.4350  133.2540 C   0  0  0  0  0  0  0  0  0  0  0  0
  145.9260  159.8880  133.5790 O   0  0  0  0  0  0  0  0  0  0  0  0
  144.6620  158.2010  132.6290 O   0  0  0  0  0  0  0  0  0  0  0  0
  141.8570  156.6990  133.5660 C   0  0  0  0  0  0  0  0  0  0  0  0
  142.2320  155.3770  133.3160 C   0  0  0  0  0  0  0  0  0  0  0  0
  143.4230  154.7570  133.1520 N   0  0  0  0  0  0  0  0  0  0  0  0
  144.7200  155.2510  133.3820 C   0  0  0  0  0  0  0  0  0  0  0  0
  145.4910  155.3200  132.3680 O   0  0  0  0  0  0  0  0  0  0  0  0
  145.3420  155.7030  134.6380 C   0  0  0  0  0  0  0  0  0  0  0  0
  146.1970  156.7460  134.4780 O   0  0  0  0  0  0  0  0  0  0  0  0
  147.5160  156.3740  134.4640 C   0  0  0  0  0  0  0  0  0  0  0  0
  148.2190  156.6910  133.1820 C   0  0  0  0  0  0  0  0  0  0  0  0
  147.4990  157.7640  132.6040 O   0  0  0  0  0  0  0  0  0  0  0  0
  145.1840  151.8200  130.8760 H   0  0  0  0  0  0  0  0  0  0  0  0
  145.8600  153.1870  131.8940 H   0  0  0  0  0  0  0  0  0  0  0  0
  141.1892  152.3628  132.6861 H   0  0  0  0  0  0  0  0  0  0  0  0
  139.0714  154.1075  133.0956 H   0  0  0  0  0  0  0  0  0  0  0  0
  138.4468  156.4799  133.5522 H   0  0  0  0  0  0  0  0  0  0  0  0
  139.6633  158.8967  133.0267 H   0  0  0  0  0  0  0  0  0  0  0  0
  139.4973  158.5000  134.7923 H   0  0  0  0  0  0  0  0  0  0  0  0
  142.2540  158.8650  132.3260 H   0  0  0  0  0  0  0  0  0  0  0  0
  143.5080  161.0957  132.8827 H   0  0  0  0  0  0  0  0  0  0  0  0
  143.5078  160.4820  134.5841 H   0  0  0  0  0  0  0  0  0  0  0  0
  145.4470  157.5330  132.6000 H   0  0  0  0  0  0  0  0  0  0  0  0
  142.6388  157.4608  133.7015 H   0  0  0  0  0  0  0  0  0  0  0  0
  144.5441  156.0107  135.3299 H   0  0  0  0  0  0  0  0  0  0  0  0
  145.9318  154.8599  135.0269 H   0  0  0  0  0  0  0  0  0  0  0  0
  148.0328  156.8978  135.2817 H   0  0  0  0  0  0  0  0  0  0  0  0
  147.5419  155.2806  134.5818 H   0  0  0  0  0  0  0  0  0  0  0  0
  149.2593  156.9894  133.3789 H   0  0  0  0  0  0  0  0  0  0  0  0
  148.2540  155.8189  132.5124 H   0  0  0  0  0  0  0  0  0  0  0  0
  146.7290  157.9180  133.2090 H   0  0  0  0  0  0  0  0  0  0  0  0
  1  2  1  0
  2  3  2  0
  2  4  1  0
  4  5  2  0
  5  6  1  0
  6  7  2  0
  7  8  1  0
  8  9  2  0
  9 10  1  0
 10 11  1  0
 11 12  2  0
 11 13  1  0
 13 14  1  0
 14 15  1  0
 15 16  2  0
 15 17  1  0
  9 18  1  0
 18 19  2  0
 19 20  1  0
 20 21  1  0
 21 22  2  0
 21 23  1  0
 23 24  1  0
 24 25  1  0
 25 26  1  0
 26 27  1  0
 20  4  1  0
 19  6  1  0
  1 28  1  0
  1 29  1  0
  5 30  1  0
  7 31  1  0
  8 32  1  0
 10 33  1  0
 10 34  1  0
 13 35  1  0
 14 36  1  0
 14 37  1  0
 17 38  1  0
 18 39  1  0
 23 40  1  0
 23 41  1  0
 25 42  1  0
 25 43  1  0
 26 44  1  0
 26 45  1  0
 27 46  1  0
M  END
>  <smiles>  (79) 
NC(=O)c1cc2ccc(CC(=O)NCC(=O)O)cc2n1C(=O)COCCO

>  <score_type>  (79) 
oracle

>  <origin>  (79) 
adg

>  <m_score__min__energy>  (79) 
-7.4199999999999999

>  <m_primary>  (79) 
energy

$$$$
81:0
     RDKit          3D

 39 40  0  0  0  0  0  0  0  0999 V2000
  149.6540  150.7460  134.5330 C   0  0  0  0  0  0  0  0  0  0  0  0
  149.3210  150.6670  133.1410 O   0  0  0  0  0  0  0  0  0  0  0  0
  148.8450  151.7990  132.4920 C   0  0  0  0  0  0  0  0  0  0  0  0
  147.7770  151.7670  131.7990 O   0  0  0  0  0  0  0  0  0  0  0  0
  149.6410  153.0440  132.6440 C   0  0  0  0  0  0  0  0  0  0  0  0
  148.8110  154.1650  132.8930 O   0  0  0  0  0  0  0  0  0  0  0  0
  147.6850  154.0690  133.7190 C   0  0  0  0  0  0  0  0  0  0  0  0
  147.7950  154.1750  134.9660 O   0  0  0  0  0  0  0  0  0  0  0  0
  146.3920  153.8430  133.0940 N   0  0  0  0  0  0  0  0  0  0  0  0
  145.2300  153.7380  133.8700 C   0  0  0  0  0  0  0  0  0  0  0  0
  145.4430  153.8480  135.1250 O   0  0  0  0  0  0  0  0  0  0  0  0
  143.8990  153.5330  133.4790 N   0  0  0  0  0  0  0  0  0  0  0  0
  143.4500  152.3690  132.9610 C   0  0  0  0  0  0  0  0  0  0  0  0
  144.0930  151.1190  132.6220 C   0  0  0  0  0  0  0  0  0  0  0  0
  145.5280  151.0910  132.3440 N   0  0  0  0  0  0  0  0  0  0  0  0
  143.5710  149.9890  132.5240 O   0  0  0  0  0  0  0  0  0  0  0  0
  142.0670  152.5290  132.7210 C   0  0  0  0  0  0  0  0  0  0  0  0
  141.6950  153.7810  133.0920 C   0  0  0  0  0  0  0  0  0  0  0  0
  140.4630  154.3890  133.0500 C   0  0  0  0  0  0  0  0  0  0  0  0
  140.3120  155.6820  133.4890 C   0  0  0  0  0  0  0  0  0  0  0  0
  141.4300  156.3240  133.9640 C   0  0  0  0  0  0  0  0  0  0  0  0
  141.3060  157.7350  134.4520 C   0  0  0  0  0  0  0  0  0  0  0  0
  142.1070  157.9820  135.5370 F   0  0  0  0  0  0  0  0  0  0  0  0
  141.5450  158.5790  133.4110 F   0  0  0  0  0  0  0  0  0  0  0  0
  139.9760  157.8910  134.8180 F   0  0  0  0  0  0  0  0  0  0  0  0
  142.6760  155.6900  134.0000 C   0  0  0  0  0  0  0  0  0  0  0  0
  142.8400  154.3930  133.5610 C   0  0  0  0  0  0  0  0  0  0  0  0
  148.7593  150.5338  135.1367 H   0  0  0  0  0  0  0  0  0  0  0  0
  150.4364  150.0085  134.7653 H   0  0  0  0  0  0  0  0  0  0  0  0
  150.0218  151.7563  134.7653 H   0  0  0  0  0  0  0  0  0  0  0  0
  150.3382  152.9217  133.4860 H   0  0  0  0  0  0  0  0  0  0  0  0
  150.1868  153.2209  131.7055 H   0  0  0  0  0  0  0  0  0  0  0  0
  146.3860  153.7710  132.1060 H   0  0  0  0  0  0  0  0  0  0  0  0
  145.7910  151.1030  131.3310 H   0  0  0  0  0  0  0  0  0  0  0  0
  146.1970  151.0610  133.1170 H   0  0  0  0  0  0  0  0  0  0  0  0
  141.3990  151.7626  132.3011 H   0  0  0  0  0  0  0  0  0  0  0  0
  139.5935  153.8375  132.6629 H   0  0  0  0  0  0  0  0  0  0  0  0
  139.3336  156.1840  133.4613 H   0  0  0  0  0  0  0  0  0  0  0  0
  143.5465  156.2393  134.3880 H   0  0  0  0  0  0  0  0  0  0  0  0
  1  2  1  0
  2  3  1  0
  3  4  2  0
  3  5  1  0
  5  6  1  0
  6  7  1  0
  7  8  2  0
  7  9  1  0
  9 10  1  0
 10 11  2  0
 10 12  1  0
 12 13  1  0
 13 14  1  0
 14 15  1  0
 14 16  2  0
 13 17  2  0
 17 18  1  0
 18 19  2  0
 19 20  1  0
 20 21  2  0
 21 22  1  0
 22 23  1  0
 22 24  1  0
 22 25  1  0
 21 26  1  0
 26 27  2  0
 27 12  1  0
 27 18  1  0
  1 28  1  0
  1 29  1  0
  1 30  1  0
  5 31  1  0
  5 32  1  0
  9 33  1  0
 15 34  1  0
 15 35  1  0
 17 36  1  0
 19 37  1  0
 20 38  1  0
 26 39  1  0
M  END
>  <smiles>  (80) 
COC(=O)COC(=O)NC(=O)n1c(C(N)=O)cc2ccc(C(F)(F)F)cc21

>  <score_type>  (80) 
oracle

>  <origin>  (80) 
adg

>  <m_score__min__energy>  (80) 
-6.6699999999999999

>  <m_primary>  (80) 
energy

$$$$
82:0
     RDKit          3D

 55 56  0  0  0  0  0  0  0  0999 V2000
  141.9160  149.2520  131.8770 C   0  0  0  0  0  0  0  0  0  0  0  0
  141.2780  150.4690  132.4680 C   0  0  0  0  0  0  0  0  0  0  0  0
  139.9360  150.7030  131.7770 C   0  0  0  0  0  0  0  0  0  0  0  0
  141.0270  150.2460  133.9220 C   0  0  0  0  0  0  0  0  0  0  0  0
  142.0400  151.6510  132.2000 O   0  0  0  0  0  0  0  0  0  0  0  0
  141.8760  152.8170  132.9340 C   0  0  0  0  0  0  0  0  0  0  0  0
  140.8430  153.5080  132.6140 O   0  0  0  0  0  0  0  0  0  0  0  0
  142.7480  153.2440  133.9600 N   0  0  0  0  0  0  0  0  0  0  0  0
  142.3450  153.8930  135.1840 C   0  0  0  0  0  0  0  0  0  0  0  0
  141.8070  155.2640  135.0150 C   0  0  0  0  0  0  0  0  0  0  0  0
  141.9080  155.8590  133.7300 N   0  0  0  0  0  0  0  0  0  0  0  0
  142.8570  156.9270  133.5660 C   0  0  0  0  0  0  0  0  0  0  0  0
  142.3870  158.2180  133.4760 C   0  0  0  0  0  0  0  0  0  0  0  0
  143.2740  159.2560  133.3190 C   0  0  0  0  0  0  0  0  0  0  0  0
  144.6250  158.9850  133.2530 C   0  0  0  0  0  0  0  0  0  0  0  0
  145.7170  159.8060  133.1030 C   0  0  0  0  0  0  0  0  0  0  0  0
  146.8730  159.0440  133.0980 C   0  0  0  0  0  0  0  0  0  0  0  0
  148.1930  159.6260  132.9530 C   0  0  0  0  0  0  0  0  0  0  0  0
  149.3310  158.8590  133.3700 N   0  0  0  0  0  0  0  0  0  0  0  0
  148.4520  160.7530  132.4900 O   0  0  0  0  0  0  0  0  0  0  0  0
  146.4990  157.7570  133.2430 N   0  0  0  0  0  0  0  0  0  0  0  0
  147.3180  156.6070  133.2950 C   0  0  0  0  0  0  0  0  0  0  0  0
  148.0900  156.4250  134.2850 O   0  0  0  0  0  0  0  0  0  0  0  0
  147.3660  155.6150  132.3300 O   0  0  0  0  0  0  0  0  0  0  0  0
  147.8710  154.3540  132.5960 C   0  0  0  0  0  0  0  0  0  0  0  0
  146.9230  153.2800  132.6100 N   0  0  0  0  0  0  0  0  0  0  0  0
  149.1040  154.1580  132.8140 O   0  0  0  0  0  0  0  0  0  0  0  0
  145.1450  157.7080  133.3390 C   0  0  0  0  0  0  0  0  0  0  0  0
  144.2190  156.6890  133.4960 C   0  0  0  0  0  0  0  0  0  0  0  0
  144.1590  153.0050  133.7650 C   0  0  0  0  0  0  0  0  0  0  0  0
  145.0180  153.3690  134.6060 O   0  0  0  0  0  0  0  0  0  0  0  0
  144.6370  152.3560  132.6310 O   0  0  0  0  0  0  0  0  0  0  0  0
  142.2626  148.5908  132.6848 H   0  0  0  0  0  0  0  0  0  0  0  0
  141.1818  148.7181  131.2558 H   0  0  0  0  0  0  0  0  0  0  0  0
  142.7727  149.5521  131.2558 H   0  0  0  0  0  0  0  0  0  0  0  0
  139.1517  150.8398  132.5360 H   0  0  0  0  0  0  0  0  0  0  0  0
  139.9992  151.6037  131.1487 H   0  0  0  0  0  0  0  0  0  0  0  0
  139.6907  149.8341  131.1487 H   0  0  0  0  0  0  0  0  0  0  0  0
  141.7208  150.8623  134.5126 H   0  0  0  0  0  0  0  0  0  0  0  0
  139.9911  150.5271  134.1626 H   0  0  0  0  0  0  0  0  0  0  0  0
  141.1841  149.1842  134.1626 H   0  0  0  0  0  0  0  0  0  0  0  0
  141.5669  153.2764  135.6577 H   0  0  0  0  0  0  0  0  0  0  0  0
  143.2543  153.9913  135.7952 H   0  0  0  0  0  0  0  0  0  0  0  0
  140.7398  155.2330  135.2797 H   0  0  0  0  0  0  0  0  0  0  0  0
  142.4373  155.8916  135.6622 H   0  0  0  0  0  0  0  0  0  0  0  0
  141.3690  155.6120  132.8770 H   0  0  0  0  0  0  0  0  0  0  0  0
  141.3066  158.4177  133.5295 H   0  0  0  0  0  0  0  0  0  0  0  0
  142.9106  160.2917  133.2467 H   0  0  0  0  0  0  0  0  0  0  0  0
  145.6785  160.9007  133.0023 H   0  0  0  0  0  0  0  0  0  0  0  0
  149.2430  158.2400  134.1940 H   0  0  0  0  0  0  0  0  0  0  0  0
  150.2420  158.9150  132.8610 H   0  0  0  0  0  0  0  0  0  0  0  0
  146.6070  152.7940  131.7390 H   0  0  0  0  0  0  0  0  0  0  0  0
  146.5530  152.9980  133.5490 H   0  0  0  0  0  0  0  0  0  0  0  0
  144.5797  155.6523  133.5677 H   0  0  0  0  0  0  0  0  0  0  0  0
  144.0880  152.1220  131.8320 H   0  0  0  0  0  0  0  0  0  0  0  0
  1  2  1  0
  2  3  1  0
  2  4  1  0
  2  5  1  0
  5  6  1  0
  6  7  2  0
  6  8  1  0
  8  9  1  0
  9 10  1  0
 10 11  1  0
 11 12  1  0
 12 13  2  0
 13 14  1  0
 14 15  2  0
 15 16  1  0
 16 17  2  0
 17 18  1  0
 18 19  1  0
 18 20  2  0
 17 21  1  0
 21 22  1  0
 22 23  2  0
 22 24  1  0
 24 25  1  0
 25 26  1  0
 25 27  2  0
 21 28  1  0
 28 29  2  0
  8 30  1  0
 30 31  2  0
 30 32  1  0
 29 12  1  0
 28 15  1  0
  1 33  1  0
  1 34  1  0
  1 35  1  0
  3 36  1  0
  3 37  1  0
  3 38  1  0
  4 39  1  0
  4 40  1  0
  4 41  1  0
  9 42  1  0
  9 43  1  0
 10 44  1  0
 10 45  1  0
 11 46  1  0
 13 47  1  0
 14 48  1  0
 16 49  1  0
 19 50  1  0
 19 51  1  0
 26 52  1  0
 26 53  1  0
 29 54  1  0
 32 55  1  0
M  END
>  <smiles>  (81) 
CC(C)(C)OC(=O)N(CCNc1ccc2cc(C(N)=O)n(C(=O)OC(N)=O)c2c1)C(=O)O

>  <score_type>  (81) 
oracle

>  <origin>  (81) 
adg

>  <m_score__min__energy>  (81) 
-8.0999999999999996

>  <m_primary>  (81) 
energy

$$$$
83:0
     RDKit          3D

 39 40  0  0  0  0  0  0  0  0999 V2000
  144.3060  154.8120  134.8940 C   0  0  0  0  0  0  0  0  0  0  0  0
  145.5900  155.1550  134.3370 N   0  0  0  0  0  0  0  0  0  0  0  0
  146.6920  154.3870  134.9200 C   0  0  0  0  0  0  0  0  0  0  0  0
  146.5500  153.7810  136.0100 O   0  0  0  0  0  0  0  0  0  0  0  0
  147.9210  154.2980  134.3000 O   0  0  0  0  0  0  0  0  0  0  0  0
  148.5080  153.0300  134.0530 C   0  0  0  0  0  0  0  0  0  0  0  0
  149.1570  153.0110  132.7160 C   0  0  0  0  0  0  0  0  0  0  0  0
  149.9160  152.0870  132.3260 O   0  0  0  0  0  0  0  0  0  0  0  0
  148.8730  154.1120  131.8870 O   0  0  0  0  0  0  0  0  0  0  0  0
  145.9360  156.0740  133.3570 C   0  0  0  0  0  0  0  0  0  0  0  0
  146.0770  155.5310  132.1700 O   0  0  0  0  0  0  0  0  0  0  0  0
  146.1760  157.4570  133.3740 N   0  0  0  0  0  0  0  0  0  0  0  0
  147.1790  158.2220  132.9760 C   0  0  0  0  0  0  0  0  0  0  0  0
  148.5810  157.8590  132.7220 C   0  0  0  0  0  0  0  0  0  0  0  0
  148.9550  156.4710  132.5960 N   0  0  0  0  0  0  0  0  0  0  0  0
  149.5140  158.6790  132.6020 O   0  0  0  0  0  0  0  0  0  0  0  0
  146.8420  159.5810  132.9850 C   0  0  0  0  0  0  0  0  0  0  0  0
  145.5580  159.6300  133.4240 C   0  0  0  0  0  0  0  0  0  0  0  0
  144.7490  160.7410  133.6160 C   0  0  0  0  0  0  0  0  0  0  0  0
  143.4610  160.5760  134.0710 C   0  0  0  0  0  0  0  0  0  0  0  0
  143.0240  159.2950  134.3190 C   0  0  0  0  0  0  0  0  0  0  0  0
  141.6320  159.1130  134.8100 C   0  0  0  0  0  0  0  0  0  0  0  0
  141.3000  157.7810  134.9440 F   0  0  0  0  0  0  0  0  0  0  0  0
  140.7450  159.7360  133.9530 F   0  0  0  0  0  0  0  0  0  0  0  0
  141.4390  159.7050  136.0570 F   0  0  0  0  0  0  0  0  0  0  0  0
  143.8590  158.1900  134.1180 C   0  0  0  0  0  0  0  0  0  0  0  0
  145.1610  158.3460  133.6590 C   0  0  0  0  0  0  0  0  0  0  0  0
  144.3666  154.8282  135.9922 H   0  0  0  0  0  0  0  0  0  0  0  0
  143.5538  155.5407  134.5575 H   0  0  0  0  0  0  0  0  0  0  0  0
  144.0174  153.8053  134.5575 H   0  0  0  0  0  0  0  0  0  0  0  0
  149.2634  152.8236  134.8255 H   0  0  0  0  0  0  0  0  0  0  0  0
  147.7213  152.2616  134.0787 H   0  0  0  0  0  0  0  0  0  0  0  0
  147.9270  154.5040  131.8400 H   0  0  0  0  0  0  0  0  0  0  0  0
  149.5280  156.2410  131.7800 H   0  0  0  0  0  0  0  0  0  0  0  0
  148.6290  155.7920  133.3230 H   0  0  0  0  0  0  0  0  0  0  0  0
  147.4814  160.4287  132.6976 H   0  0  0  0  0  0  0  0  0  0  0  0
  145.1357  161.7490  133.4054 H   0  0  0  0  0  0  0  0  0  0  0  0
  142.8011  161.4413  134.2315 H   0  0  0  0  0  0  0  0  0  0  0  0
  143.4775  157.1797  134.3272 H   0  0  0  0  0  0  0  0  0  0  0  0
  1  2  1  0
  2  3  1  0
  3  4  2  0
  3  5  1  0
  5  6  1  0
  6  7  1  0
  7  8  2  0
  7  9  1  0
  2 10  1  0
 10 11  2  0
 10 12  1  0
 12 13  1  0
 13 14  1  0
 14 15  1  0
 14 16  2  0
 13 17  2  0
 17 18  1  0
 18 19  2  0
 19 20  1  0
 20 21  2  0
 21 22  1  0
 22 23  1  0
 22 24  1  0
 22 25  1  0
 21 26  1  0
 26 27  2  0
 27 12  1  0
 27 18  1  0
  1 28  1  0
  1 29  1  0
  1 30  1  0
  6 31  1  0
  6 32  1  0
  9 33  1  0
 15 34  1  0
 15 35  1  0
 17 36  1  0
 19 37  1  0
 20 38  1  0
 26 39  1  0
M  END
>  <smiles>  (82) 
CN(C(=O)OCC(=O)O)C(=O)n1c(C(N)=O)cc2ccc(C(F)(F)F)cc21

>  <score_type>  (82) 
oracle

>  <origin>  (82) 
adg

>  <m_score__min__energy>  (82) 
-5.5

>  <m_primary>  (82) 
energy

$$$$
84:0
     RDKit          3D

 45 46  0  0  0  0  0  0  0  0999 V2000
  149.1400  157.4340  131.8510 N   0  0  0  0  0  0  0  0  0  0  0  0
  148.7910  158.5960  132.6110 C   0  0  0  0  0  0  0  0  0  0  0  0
  149.7600  159.3290  132.9330 O   0  0  0  0  0  0  0  0  0  0  0  0
  147.4040  158.8470  132.9500 C   0  0  0  0  0  0  0  0  0  0  0  0
  146.9120  160.1480  133.1120 C   0  0  0  0  0  0  0  0  0  0  0  0
  145.5770  160.0950  133.4280 C   0  0  0  0  0  0  0  0  0  0  0  0
  144.6710  161.1020  133.6790 C   0  0  0  0  0  0  0  0  0  0  0  0
  143.3790  160.7110  133.9740 C   0  0  0  0  0  0  0  0  0  0  0  0
  142.9780  159.3960  134.0260 C   0  0  0  0  0  0  0  0  0  0  0  0
  141.6570  158.9840  134.3110 N   0  0  0  0  0  0  0  0  0  0  0  0
  140.4750  159.4010  133.6020 C   0  0  0  0  0  0  0  0  0  0  0  0
  140.0540  158.5110  132.4820 C   0  0  0  0  0  0  0  0  0  0  0  0
  139.5720  157.2410  132.9200 O   0  0  0  0  0  0  0  0  0  0  0  0
  140.3520  156.5390  133.8210 C   0  0  0  0  0  0  0  0  0  0  0  0
  140.1870  156.5550  135.0640 O   0  0  0  0  0  0  0  0  0  0  0  0
  141.4230  155.7360  133.3290 N   0  0  0  0  0  0  0  0  0  0  0  0
  142.2810  154.9750  134.2010 C   0  0  0  0  0  0  0  0  0  0  0  0
  143.0620  153.8970  133.5180 C   0  0  0  0  0  0  0  0  0  0  0  0
  144.0470  154.5060  132.5760 C   0  0  0  0  0  0  0  0  0  0  0  0
  143.7440  155.6360  132.0920 O   0  0  0  0  0  0  0  0  0  0  0  0
  145.2340  153.8530  132.2570 O   0  0  0  0  0  0  0  0  0  0  0  0
  143.9490  158.4410  133.7620 C   0  0  0  0  0  0  0  0  0  0  0  0
  145.2560  158.7550  133.4600 C   0  0  0  0  0  0  0  0  0  0  0  0
  146.3760  158.0200  133.1680 N   0  0  0  0  0  0  0  0  0  0  0  0
  146.4050  156.6070  133.1130 C   0  0  0  0  0  0  0  0  0  0  0  0
  146.2890  155.8360  134.0900 O   0  0  0  0  0  0  0  0  0  0  0  0
  146.5770  155.9560  131.8740 O   0  0  0  0  0  0  0  0  0  0  0  0
  149.8890  157.5050  131.1130 H   0  0  0  0  0  0  0  0  0  0  0  0
  148.6660  156.5000  132.0110 H   0  0  0  0  0  0  0  0  0  0  0  0
  147.5032  161.0692  133.0030 H   0  0  0  0  0  0  0  0  0  0  0  0
  144.9612  162.1625  133.6463 H   0  0  0  0  0  0  0  0  0  0  0  0
  142.6318  161.4921  134.1780 H   0  0  0  0  0  0  0  0  0  0  0  0
  141.4890  158.3080  135.1150 H   0  0  0  0  0  0  0  0  0  0  0  0
  139.6467  159.4530  134.3240 H   0  0  0  0  0  0  0  0  0  0  0  0
  140.7226  160.3695  133.1431 H   0  0  0  0  0  0  0  0  0  0  0  0
  139.2532  159.0131  131.9193 H   0  0  0  0  0  0  0  0  0  0  0  0
  140.9433  158.3254  131.8617 H   0  0  0  0  0  0  0  0  0  0  0  0
  141.5680  155.7190  132.2770 H   0  0  0  0  0  0  0  0  0  0  0  0
  142.9928  155.6682  134.6731 H   0  0  0  0  0  0  0  0  0  0  0  0
  141.6236  154.4731  134.9262 H   0  0  0  0  0  0  0  0  0  0  0  0
  143.5976  153.3008  134.2714 H   0  0  0  0  0  0  0  0  0  0  0  0
  142.3729  153.2502  132.9551 H   0  0  0  0  0  0  0  0  0  0  0  0
  146.1090  154.3400  132.5040 H   0  0  0  0  0  0  0  0  0  0  0  0
  143.6609  157.3799  133.7955 H   0  0  0  0  0  0  0  0  0  0  0  0
  145.7860  155.7260  131.2920 H   0  0  0  0  0  0  0  0  0  0  0  0
  1  2  1  0
  2  3  2  0
  2  4  1  0
  4  5  2  0
  5  6  1  0
  6  7  2  0
  7  8  1  0
  8  9  2  0
  9 10  1  0
 10 11  1  0
 11 12  1  0
 12 13  1  0
 13 14  1  0
 14 15  2  0
 14 16  1  0
 16 17  1  0
 17 18  1  0
 18 19  1  0
 19 20  2  0
 19 21  1  0
  9 22  1  0
 22 23  2  0
 23 24  1  0
 24 25  1  0
 25 26  2  0
 25 27  1  0
 24  4  1  0
 23  6  1  0
  1 28  1  0
  1 29  1  0
  5 30  1  0
  7 31  1  0
  8 32  1  0
 10 33  1  0
 11 34  1  0
 11 35  1  0
 12 36  1  0
 12 37  1  0
 16 38  1  0
 17 39  1  0
 17 40  1  0
 18 41  1  0
 18 42  1  0
 21 43  1  0
 22 44  1  0
 27 45  1  0
M  END
>  <smiles>  (83) 
NC(=O)c1cc2ccc(NCCOC(=O)NCCC(=O)O)cc2n1C(=O)O

>  <score_type>  (83) 
oracle

>  <origin>  (83) 
adg

>  <m_score__min__energy>  (83) 
-5.6200000000000001

>  <m_primary>  (83) 
energy

$$$$
85:0
     RDKit          3D

 34 35  0  0  0  0  0  0  0  0999 V2000
  147.1450  151.3710  131.9850 N   0  0  0  0  0  0  0  0  0  0  0  0
  148.6040  151.2050  131.9370 C   0  0  0  0  0  0  0  0  0  0  0  0
  149.3010  152.5100  132.2350 C   0  0  0  0  0  0  0  0  0  0  0  0
  148.3440  153.5330  132.4520 O   0  0  0  0  0  0  0  0  0  0  0  0
  148.8330  154.8290  132.6140 C   0  0  0  0  0  0  0  0  0  0  0  0
  150.0190  155.0000  132.2390 O   0  0  0  0  0  0  0  0  0  0  0  0
  148.0050  155.8340  133.1680 N   0  0  0  0  0  0  0  0  0  0  0  0
  147.0580  155.6730  134.1020 C   0  0  0  0  0  0  0  0  0  0  0  0
  146.5990  154.4960  134.8060 C   0  0  0  0  0  0  0  0  0  0  0  0
  146.1320  153.3520  134.0530 N   0  0  0  0  0  0  0  0  0  0  0  0
  146.5600  154.3480  136.0480 O   0  0  0  0  0  0  0  0  0  0  0  0
  146.5080  156.9410  134.3310 C   0  0  0  0  0  0  0  0  0  0  0  0
  147.1260  157.8550  133.5370 C   0  0  0  0  0  0  0  0  0  0  0  0
  146.9430  159.2190  133.3970 C   0  0  0  0  0  0  0  0  0  0  0  0
  147.7180  159.9170  132.5040 C   0  0  0  0  0  0  0  0  0  0  0  0
  148.6670  159.2530  131.7570 C   0  0  0  0  0  0  0  0  0  0  0  0
  149.5220  159.9890  130.7790 C   0  0  0  0  0  0  0  0  0  0  0  0
  149.5580  161.3440  131.0590 F   0  0  0  0  0  0  0  0  0  0  0  0
  148.9190  159.8580  129.5400 F   0  0  0  0  0  0  0  0  0  0  0  0
  150.7710  159.4350  130.7700 F   0  0  0  0  0  0  0  0  0  0  0  0
  148.8270  157.8780  131.9210 C   0  0  0  0  0  0  0  0  0  0  0  0
  148.0660  157.1470  132.8090 C   0  0  0  0  0  0  0  0  0  0  0  0
  146.8990  151.4780  132.9950 H   0  0  0  0  0  0  0  0  0  0  0  0
  146.8480  152.2400  131.4890 H   0  0  0  0  0  0  0  0  0  0  0  0
  148.9066  150.4557  132.6833 H   0  0  0  0  0  0  0  0  0  0  0  0
  148.8887  150.8754  130.9269 H   0  0  0  0  0  0  0  0  0  0  0  0
  149.9210  152.3942  133.1362 H   0  0  0  0  0  0  0  0  0  0  0  0
  149.9346  152.7844  131.3787 H   0  0  0  0  0  0  0  0  0  0  0  0
  146.5410  153.1400  133.0960 H   0  0  0  0  0  0  0  0  0  0  0  0
  145.3940  152.7180  134.4230 H   0  0  0  0  0  0  0  0  0  0  0  0
  145.7001  157.1629  135.0438 H   0  0  0  0  0  0  0  0  0  0  0  0
  146.1823  159.7405  133.9965 H   0  0  0  0  0  0  0  0  0  0  0  0
  147.5820  161.0021  132.3852 H   0  0  0  0  0  0  0  0  0  0  0  0
  149.5875  157.3573  131.3206 H   0  0  0  0  0  0  0  0  0  0  0  0
  1  2  1  0
  2  3  1  0
  3  4  1  0
  4  5  1  0
  5  6  2  0
  5  7  1  0
  7  8  1  0
  8  9  1  0
  9 10  1  0
  9 11  2  0
  8 12  2  0
 12 13  1  0
 13 14  2  0
 14 15  1  0
 15 16  2  0
 16 17  1  0
 17 18  1  0
 17 19  1  0
 17 20  1  0
 16 21  1  0
 21 22  2  0
 22  7  1  0
 22 13  1  0
  1 23  1  0
  1 24  1  0
  2 25  1  0
  2 26  1  0
  3 27  1  0
  3 28  1  0
 10 29  1  0
 10 30  1  0
 12 31  1  0
 14 32  1  0
 15 33  1  0
 21 34  1  0
M  END
>  <smiles>  (84) 
NCCOC(=O)n1c(C(N)=O)cc2ccc(C(F)(F)F)cc21

>  <score_type>  (84) 
oracle

>  <origin>  (84) 
adg

>  <m_score__min__energy>  (84) 
-6.0599999999999996

>  <m_primary>  (84) 
energy

$$$$
86:0
     RDKit          3D

 41 42  0  0  0  0  0  0  0  0999 V2000
  149.9840  151.8030  132.5970 C   0  0  0  0  0  0  0  0  0  0  0  0
  148.7950  152.3570  133.2030 N   0  0  0  0  0  0  0  0  0  0  0  0
  148.5530  153.7420  133.2050 C   0  0  0  0  0  0  0  0  0  0  0  0
  149.4660  154.4520  132.6280 O   0  0  0  0  0  0  0  0  0  0  0  0
  147.4300  154.4720  133.7570 C   0  0  0  0  0  0  0  0  0  0  0  0
  146.3190  153.6470  133.8420 F   0  0  0  0  0  0  0  0  0  0  0  0
  147.7130  155.0560  134.9800 F   0  0  0  0  0  0  0  0  0  0  0  0
  147.0860  155.5850  132.9020 O   0  0  0  0  0  0  0  0  0  0  0  0
  146.2360  156.5390  133.5100 C   0  0  0  0  0  0  0  0  0  0  0  0
  145.3330  155.9980  134.2150 O   0  0  0  0  0  0  0  0  0  0  0  0
  146.3250  157.9270  133.3930 N   0  0  0  0  0  0  0  0  0  0  0  0
  147.3210  158.7480  133.0300 C   0  0  0  0  0  0  0  0  0  0  0  0
  148.6620  158.3780  132.6370 C   0  0  0  0  0  0  0  0  0  0  0  0
  149.0400  156.9820  132.6200 N   0  0  0  0  0  0  0  0  0  0  0  0
  149.5690  159.1640  132.2960 O   0  0  0  0  0  0  0  0  0  0  0  0
  146.9050  160.0770  133.0740 C   0  0  0  0  0  0  0  0  0  0  0  0
  145.6010  160.0510  133.4810 C   0  0  0  0  0  0  0  0  0  0  0  0
  144.7290  161.0980  133.6850 C   0  0  0  0  0  0  0  0  0  0  0  0
  143.4420  160.8410  134.1020 C   0  0  0  0  0  0  0  0  0  0  0  0
  143.0610  159.5490  134.3040 C   0  0  0  0  0  0  0  0  0  0  0  0
  141.6680  159.2830  134.7550 C   0  0  0  0  0  0  0  0  0  0  0  0
  140.8020  158.3250  133.4530 P   0  0  0  0  0  0  0  0  0  0  0  0
  139.3800  158.0990  133.8430 O   0  0  0  0  0  0  0  0  0  0  0  0
  140.8410  159.1480  131.9660 O   0  0  0  0  0  0  0  0  0  0  0  0
  141.5480  156.8340  133.2220 O   0  0  0  0  0  0  0  0  0  0  0  0
  143.9580  158.4980  134.0930 C   0  0  0  0  0  0  0  0  0  0  0  0
  145.2550  158.7390  133.6730 C   0  0  0  0  0  0  0  0  0  0  0  0
  150.6800  151.4787  133.3847 H   0  0  0  0  0  0  0  0  0  0  0  0
  149.7093  150.9402  131.9725 H   0  0  0  0  0  0  0  0  0  0  0  0
  150.4679  152.5684  131.9725 H   0  0  0  0  0  0  0  0  0  0  0  0
  148.1270  151.7250  133.6360 H   0  0  0  0  0  0  0  0  0  0  0  0
  148.8010  156.3700  131.7970 H   0  0  0  0  0  0  0  0  0  0  0  0
  149.5620  156.5700  133.4400 H   0  0  0  0  0  0  0  0  0  0  0  0
  147.5046  160.9665  132.8305 H   0  0  0  0  0  0  0  0  0  0  0  0
  145.0591  162.1336  133.5157 H   0  0  0  0  0  0  0  0  0  0  0  0
  142.7333  161.6655  134.2692 H   0  0  0  0  0  0  0  0  0  0  0  0
  141.6858  158.7044  135.6904 H   0  0  0  0  0  0  0  0  0  0  0  0
  141.1435  160.2334  134.9328 H   0  0  0  0  0  0  0  0  0  0  0  0
  141.7220  159.0680  131.5620 H   0  0  0  0  0  0  0  0  0  0  0  0
  141.6530  156.7170  132.2250 H   0  0  0  0  0  0  0  0  0  0  0  0
  143.6280  157.4626  134.2634 H   0  0  0  0  0  0  0  0  0  0  0  0
  1  2  1  0
  2  3  1  0
  3  4  2  0
  3  5  1  0
  5  6  1  0
  5  7  1  0
  5  8  1  0
  8  9  1  0
  9 10  2  0
  9 11  1  0
 11 12  1  0
 12 13  1  0
 13 14  1  0
 13 15  2  0
 12 16  2  0
 16 17  1  0
 17 18  2  0
 18 19  1  0
 19 20  2  0
 20 21  1  0
 21 22  1  0
 22 23  2  0
 22 24  1  0
 22 25  1  0
 20 26  1  0
 26 27  2  0
 27 11  1  0
 27 17  1  0
  1 28  1  0
  1 29  1  0
  1 30  1  0
  2 31  1  0
 14 32  1  0
 14 33  1  0
 16 34  1  0
 18 35  1  0
 19 36  1  0
 21 37  1  0
 21 38  1  0
 24 39  1  0
 25 40  1  0
 26 41  1  0
M  END
>  <smiles>  (85) 
CNC(=O)C(F)(F)OC(=O)n1c(C(N)=O)cc2ccc(CP(=O)(O)O)cc21

>  <score_type>  (85) 
oracle

>  <origin>  (85) 
adg

>  <m_score__min__energy>  (85) 
-7.7599999999999998

>  <m_primary>  (85) 
energy

$$$$
87:0
     RDKit          3D

 45 46  0  0  0  0  0  0  0  0999 V2000
  149.6000  153.7950  132.4190 C   0  0  0  0  0  0  0  0  0  0  0  0
  148.2280  154.1450  132.8070 N   0  0  0  0  0  0  0  0  0  0  0  0
  147.2660  153.0940  133.0620 C   0  0  0  0  0  0  0  0  0  0  0  0
  147.8560  155.5070  132.9280 C   0  0  0  0  0  0  0  0  0  0  0  0
  148.8380  156.4740  132.9560 C   0  0  0  0  0  0  0  0  0  0  0  0
  148.4590  157.7930  133.0720 C   0  0  0  0  0  0  0  0  0  0  0  0
  147.1160  158.1130  133.1580 C   0  0  0  0  0  0  0  0  0  0  0  0
  146.5300  159.3330  133.2770 C   0  0  0  0  0  0  0  0  0  0  0  0
  145.1630  159.1020  133.3230 C   0  0  0  0  0  0  0  0  0  0  0  0
  144.2210  160.1950  133.5260 C   0  0  0  0  0  0  0  0  0  0  0  0
  142.8000  159.9460  133.4960 N   0  0  0  0  0  0  0  0  0  0  0  0
  144.5450  161.3880  133.7340 O   0  0  0  0  0  0  0  0  0  0  0  0
  144.8860  157.7920  133.2330 N   0  0  0  0  0  0  0  0  0  0  0  0
  143.6870  157.0960  133.0920 C   0  0  0  0  0  0  0  0  0  0  0  0
  142.8610  157.5450  132.1990 O   0  0  0  0  0  0  0  0  0  0  0  0
  143.1010  155.6890  133.9760 S   0  0  0  0  0  0  0  0  0  0  0  0
  141.3490  155.6080  134.2640 C   0  0  0  0  0  0  0  0  0  0  0  0
  140.5370  156.2840  133.1700 C   0  0  0  0  0  0  0  0  0  0  0  0
  139.6880  157.3980  133.7010 C   0  0  0  0  0  0  0  0  0  0  0  0
  139.7510  158.9010  132.6960 P   0  0  0  0  0  0  0  0  0  0  0  0
  140.3000  160.0550  133.5160 O   0  0  0  0  0  0  0  0  0  0  0  0
  138.2120  159.3090  132.1270 O   0  0  0  0  0  0  0  0  0  0  0  0
  140.8170  158.6380  131.4110 O   0  0  0  0  0  0  0  0  0  0  0  0
  146.1080  157.1820  133.1330 C   0  0  0  0  0  0  0  0  0  0  0  0
  146.5080  155.8570  133.0160 C   0  0  0  0  0  0  0  0  0  0  0  0
  150.2082  153.6398  133.3223 H   0  0  0  0  0  0  0  0  0  0  0  0
  149.5879  152.8712  131.8220 H   0  0  0  0  0  0  0  0  0  0  0  0
  150.0319  154.6117  131.8220 H   0  0  0  0  0  0  0  0  0  0  0  0
  147.1457  152.9625  134.1475 H   0  0  0  0  0  0  0  0  0  0  0  0
  146.2981  153.3668  132.6162 H   0  0  0  0  0  0  0  0  0  0  0  0
  147.6232  152.1540  132.6162 H   0  0  0  0  0  0  0  0  0  0  0  0
  149.9007  156.1983  132.8872 H   0  0  0  0  0  0  0  0  0  0  0  0
  149.2197  158.5872  133.0961 H   0  0  0  0  0  0  0  0  0  0  0  0
  147.0374  160.3077  133.3268 H   0  0  0  0  0  0  0  0  0  0  0  0
  142.3370  159.6200  132.6080 H   0  0  0  0  0  0  0  0  0  0  0  0
  142.2320  160.0950  134.3750 H   0  0  0  0  0  0  0  0  0  0  0  0
  141.0510  154.5506  134.3196 H   0  0  0  0  0  0  0  0  0  0  0  0
  141.1442  156.1412  135.2041 H   0  0  0  0  0  0  0  0  0  0  0  0
  141.2276  156.6928  132.4177 H   0  0  0  0  0  0  0  0  0  0  0  0
  139.8677  155.5293  132.7314 H   0  0  0  0  0  0  0  0  0  0  0  0
  138.6450  157.0508  133.7420 H   0  0  0  0  0  0  0  0  0  0  0  0
  140.0825  157.6581  134.6944 H   0  0  0  0  0  0  0  0  0  0  0  0
  137.4930  158.9720  132.7200 H   0  0  0  0  0  0  0  0  0  0  0  0
  141.7350  158.6350  131.7520 H   0  0  0  0  0  0  0  0  0  0  0  0
  145.7446  155.0653  132.9922 H   0  0  0  0  0  0  0  0  0  0  0  0
  1  2  1  0
  2  3  1  0
  2  4  1  0
  4  5  2  0
  5  6  1  0
  6  7  2  0
  7  8  1  0
  8  9  2  0
  9 10  1  0
 10 11  1  0
 10 12  2  0
  9 13  1  0
 13 14  1  0
 14 15  2  0
 14 16  1  0
 16 17  1  0
 17 18  1  0
 18 19  1  0
 19 20  1  0
 20 21  2  0
 20 22  1  0
 20 23  1  0
 13 24  1  0
 24 25  2  0
 25  4  1  0
 24  7  1  0
  1 26  1  0
  1 27  1  0
  1 28  1  0
  3 29  1  0
  3 30  1  0
  3 31  1  0
  5 32  1  0
  6 33  1  0
  8 34  1  0
 11 35  1  0
 11 36  1  0
 17 37  1  0
 17 38  1  0
 18 39  1  0
 18 40  1  0
 19 41  1  0
 19 42  1  0
 22 43  1  0
 23 44  1  0
 25 45  1  0
M  END
>  <smiles>  (86) 
CN(C)c1ccc2cc(C(N)=O)n(C(=O)SCCCP(=O)(O)O)c2c1

>  <score_type>  (86) 
oracle

>  <origin>  (86) 
adg

>  <m_score__min__energy>  (86) 
-7.1200000000000001

>  <m_primary>  (86) 
energy

$$$$
88:0
     RDKit          3D

 37 38  0  0  0  0  0  0  0  0999 V2000
  148.8590  156.9800  132.8750 N   0  0  0  0  0  0  0  0  0  0  0  0
  148.3990  158.3360  132.6760 C   0  0  0  0  0  0  0  0  0  0  0  0
  149.2520  159.1090  132.1850 O   0  0  0  0  0  0  0  0  0  0  0  0
  147.0450  158.6860  133.0430 C   0  0  0  0  0  0  0  0  0  0  0  0
  146.6200  160.0130  133.1510 C   0  0  0  0  0  0  0  0  0  0  0  0
  145.2980  160.0390  133.5090 C   0  0  0  0  0  0  0  0  0  0  0  0
  144.4350  161.0880  133.7370 C   0  0  0  0  0  0  0  0  0  0  0  0
  143.1260  160.8580  134.0920 C   0  0  0  0  0  0  0  0  0  0  0  0
  142.7320  159.5420  134.2060 C   0  0  0  0  0  0  0  0  0  0  0  0
  141.3040  159.2760  134.5960 C   0  0  0  0  0  0  0  0  0  0  0  0
  140.4280  159.7660  133.6570 F   0  0  0  0  0  0  0  0  0  0  0  0
  141.0800  157.9170  134.7200 F   0  0  0  0  0  0  0  0  0  0  0  0
  141.0400  159.8450  135.8220 F   0  0  0  0  0  0  0  0  0  0  0  0
  143.6000  158.4930  133.9780 C   0  0  0  0  0  0  0  0  0  0  0  0
  144.9190  158.7130  133.6190 C   0  0  0  0  0  0  0  0  0  0  0  0
  145.9830  157.9210  133.3360 N   0  0  0  0  0  0  0  0  0  0  0  0
  145.9190  156.5110  133.3610 C   0  0  0  0  0  0  0  0  0  0  0  0
  145.6800  155.9140  132.2740 O   0  0  0  0  0  0  0  0  0  0  0  0
  146.0920  155.7120  134.4670 O   0  0  0  0  0  0  0  0  0  0  0  0
  147.3580  155.4700  135.0280 C   0  0  0  0  0  0  0  0  0  0  0  0
  148.0880  156.4600  135.1930 O   0  0  0  0  0  0  0  0  0  0  0  0
  147.6820  154.0800  135.3580 C   0  0  0  0  0  0  0  0  0  0  0  0
  148.4570  153.3370  134.3320 C   0  0  0  0  0  0  0  0  0  0  0  0
  148.5890  154.0700  133.0700 C   0  0  0  0  0  0  0  0  0  0  0  0
  149.6740  154.5750  132.6690 O   0  0  0  0  0  0  0  0  0  0  0  0
  147.4890  154.2450  132.2370 O   0  0  0  0  0  0  0  0  0  0  0  0
  149.8560  156.7420  132.9690 H   0  0  0  0  0  0  0  0  0  0  0  0
  148.1510  156.1890  132.9290 H   0  0  0  0  0  0  0  0  0  0  0  0
  147.2489  160.8984  132.9759 H   0  0  0  0  0  0  0  0  0  0  0  0
  144.7967  162.1217  133.6340 H   0  0  0  0  0  0  0  0  0  0  0  0
  142.4259  161.6862  134.2764 H   0  0  0  0  0  0  0  0  0  0  0  0
  143.2360  157.4604  134.0838 H   0  0  0  0  0  0  0  0  0  0  0  0
  148.2686  154.0818  136.2886 H   0  0  0  0  0  0  0  0  0  0  0  0
  146.7167  153.5589  135.4393 H   0  0  0  0  0  0  0  0  0  0  0  0
  149.4636  153.1389  134.7289 H   0  0  0  0  0  0  0  0  0  0  0  0
  147.9095  152.4076  134.1162 H   0  0  0  0  0  0  0  0  0  0  0  0
  146.6010  154.5460  132.6670 H   0  0  0  0  0  0  0  0  0  0  0  0
  1  2  1  0
  2  3  2  0
  2  4  1  0
  4  5  2  0
  5  6  1  0
  6  7  2  0
  7  8  1  0
  8  9  2  0
  9 10  1  0
 10 11  1  0
 10 12  1  0
 10 13  1  0
  9 14  1  0
 14 15  2  0
 15 16  1  0
 16 17  1  0
 17 18  2  0
 17 19  1  0
 19 20  1  0
 20 21  2  0
 20 22  1  0
 22 23  1  0
 23 24  1  0
 24 25  2  0
 24 26  1  0
 16  4  1  0
 15  6  1  0
  1 27  1  0
  1 28  1  0
  5 29  1  0
  7 30  1  0
  8 31  1  0
 14 32  1  0
 22 33  1  0
 22 34  1  0
 23 35  1  0
 23 36  1  0
 26 37  1  0
M  END
>  <smiles>  (87) 
NC(=O)c1cc2ccc(C(F)(F)F)cc2n1C(=O)OC(=O)CCC(=O)O

>  <score_type>  (87) 
oracle

>  <origin>  (87) 
adg

>  <m_score__min__energy>  (87) 
-5.6900000000000004

>  <m_primary>  (87) 
energy

$$$$
89:0
     RDKit          3D

 50 51  0  0  0  0  0  0  0  0999 V2000
  145.3400  152.8560  132.4950 C   0  0  0  0  0  0  0  0  0  0  0  0
  146.2690  153.6370  133.2490 N   0  0  0  0  0  0  0  0  0  0  0  0
  147.6120  153.0440  133.3410 C   0  0  0  0  0  0  0  0  0  0  0  0
  148.2270  153.0170  134.4300 O   0  0  0  0  0  0  0  0  0  0  0  0
  148.2290  152.5020  132.2360 O   0  0  0  0  0  0  0  0  0  0  0  0
  149.6340  152.4450  132.1260 C   0  0  0  0  0  0  0  0  0  0  0  0
  150.1550  151.0720  131.8390 C   0  0  0  0  0  0  0  0  0  0  0  0
  149.1510  150.0050  132.2310 C   0  0  0  0  0  0  0  0  0  0  0  0
  148.9000  150.1380  133.5860 O   0  0  0  0  0  0  0  0  0  0  0  0
  146.1100  154.8500  133.8920 C   0  0  0  0  0  0  0  0  0  0  0  0
  144.9320  155.0710  134.3950 O   0  0  0  0  0  0  0  0  0  0  0  0
  147.0470  155.9150  134.0940 N   0  0  0  0  0  0  0  0  0  0  0  0
  147.7440  155.9390  135.3410 C   0  0  0  0  0  0  0  0  0  0  0  0
  147.2060  156.8390  133.0340 C   0  0  0  0  0  0  0  0  0  0  0  0
  147.5410  156.2680  131.9100 O   0  0  0  0  0  0  0  0  0  0  0  0
  147.0660  158.2200  132.9600 N   0  0  0  0  0  0  0  0  0  0  0  0
  147.9000  159.2370  132.7690 C   0  0  0  0  0  0  0  0  0  0  0  0
  149.2380  159.2320  132.1400 C   0  0  0  0  0  0  0  0  0  0  0  0
  149.9310  157.9940  131.9330 N   0  0  0  0  0  0  0  0  0  0  0  0
  149.8280  160.2640  131.7620 O   0  0  0  0  0  0  0  0  0  0  0  0
  147.3060  160.4690  133.0400 C   0  0  0  0  0  0  0  0  0  0  0  0
  146.0310  160.1810  133.4120 C   0  0  0  0  0  0  0  0  0  0  0  0
  145.0180  161.0520  133.7850 C   0  0  0  0  0  0  0  0  0  0  0  0
  143.7840  160.5580  134.1310 C   0  0  0  0  0  0  0  0  0  0  0  0
  143.6110  159.1940  134.0910 C   0  0  0  0  0  0  0  0  0  0  0  0
  142.2780  158.6560  134.4650 C   0  0  0  0  0  0  0  0  0  0  0  0
  142.3520  157.3340  134.8050 F   0  0  0  0  0  0  0  0  0  0  0  0
  141.9010  159.3740  135.6090 F   0  0  0  0  0  0  0  0  0  0  0  0
  141.3980  158.8940  133.4240 F   0  0  0  0  0  0  0  0  0  0  0  0
  144.6410  158.3240  133.7120 C   0  0  0  0  0  0  0  0  0  0  0  0
  145.8930  158.8250  133.3600 C   0  0  0  0  0  0  0  0  0  0  0  0
  144.6827  152.3034  133.1824 H   0  0  0  0  0  0  0  0  0  0  0  0
  144.7331  153.5192  131.8610 H   0  0  0  0  0  0  0  0  0  0  0  0
  145.8890  152.1442  131.8610 H   0  0  0  0  0  0  0  0  0  0  0  0
  149.9468  153.1136  131.3105 H   0  0  0  0  0  0  0  0  0  0  0  0
  150.0474  152.7512  133.0983 H   0  0  0  0  0  0  0  0  0  0  0  0
  150.3655  150.9870  130.7627 H   0  0  0  0  0  0  0  0  0  0  0  0
  151.0704  150.9191  132.4295 H   0  0  0  0  0  0  0  0  0  0  0  0
  148.2191  150.1411  131.6626 H   0  0  0  0  0  0  0  0  0  0  0  0
  149.5486  149.0034  132.0102 H   0  0  0  0  0  0  0  0  0  0  0  0
  148.3640  150.9560  133.7500 H   0  0  0  0  0  0  0  0  0  0  0  0
  147.0183  155.9140  136.1672 H   0  0  0  0  0  0  0  0  0  0  0  0
  148.4061  155.0631  135.4079 H   0  0  0  0  0  0  0  0  0  0  0  0
  148.3443  156.8583  135.4079 H   0  0  0  0  0  0  0  0  0  0  0  0
  150.9210  157.9820  132.2090 H   0  0  0  0  0  0  0  0  0  0  0  0
  149.4640  157.1600  131.5310 H   0  0  0  0  0  0  0  0  0  0  0  0
  147.7709  161.4633  132.9679 H   0  0  0  0  0  0  0  0  0  0  0  0
  145.2026  162.1362  133.8037 H   0  0  0  0  0  0  0  0  0  0  0  0
  142.9644  161.2284  134.4291 H   0  0  0  0  0  0  0  0  0  0  0  0
  144.4608  157.2390  133.6920 H   0  0  0  0  0  0  0  0  0  0  0  0
  1  2  1  0
  2  3  1  0
  3  4  2  0
  3  5  1  0
  5  6  1  0
  6  7  1  0
  7  8  1  0
  8  9  1  0
  2 10  1  0
 10 11  2  0
 10 12  1  0
 12 13  1  0
 12 14  1  0
 14 15  2  0
 14 16  1  0
 16 17  1  0
 17 18  1  0
 18 19  1  0
 18 20  2  0
 17 21  2  0
 21 22  1  0
 22 23  2  0
 23 24  1  0
 24 25  2  0
 25 26  1  0
 26 27  1  0
 26 28  1  0
 26 29  1  0
 25 30  1  0
 30 31  2  0
 31 16  1  0
 31 22  1  0
  1 32  1  0
  1 33  1  0
  1 34  1  0
  6 35  1  0
  6 36  1  0
  7 37  1  0
  7 38  1  0
  8 39  1  0
  8 40  1  0
  9 41  1  0
 13 42  1  0
 13 43  1  0
 13 44  1  0
 19 45  1  0
 19 46  1  0
 21 47  1  0
 23 48  1  0
 24 49  1  0
 30 50  1  0
M  END
>  <smiles>  (88) 
CN(C(=O)OCCCO)C(=O)N(C)C(=O)n1c(C(N)=O)cc2ccc(C(F)(F)F)cc21

>  <score_type>  (88) 
oracle

>  <origin>  (88) 
adg

>  <m_score__min__energy>  (88) 
-6.8799999999999999

>  <m_primary>  (88) 
energy

$$$$
90:0
     RDKit          3D

 47 49  0  0  0  0  0  0  0  0999 V2000
  143.2370  153.4580  136.5480 C   0  0  0  0  0  0  0  0  0  0  0  0
  142.8520  153.7920  135.1440 C   0  0  0  0  0  0  0  0  0  0  0  0
  141.6520  153.5430  134.6200 O   0  0  0  0  0  0  0  0  0  0  0  0
  141.6620  153.9650  133.3710 C   0  0  0  0  0  0  0  0  0  0  0  0
  140.6690  153.8650  132.6220 O   0  0  0  0  0  0  0  0  0  0  0  0
  142.8350  154.4740  133.0940 O   0  0  0  0  0  0  0  0  0  0  0  0
  143.5980  154.3830  134.1700 C   0  0  0  0  0  0  0  0  0  0  0  0
  144.9960  154.8440  134.2770 C   0  0  0  0  0  0  0  0  0  0  0  0
  145.4030  155.5830  133.1380 O   0  0  0  0  0  0  0  0  0  0  0  0
  146.4340  156.5080  133.1860 C   0  0  0  0  0  0  0  0  0  0  0  0
  147.5970  155.9700  133.2020 O   0  0  0  0  0  0  0  0  0  0  0  0
  146.2870  157.9110  133.2150 N   0  0  0  0  0  0  0  0  0  0  0  0
  147.2170  158.8380  132.9680 C   0  0  0  0  0  0  0  0  0  0  0  0
  148.6020  158.7570  132.5820 C   0  0  0  0  0  0  0  0  0  0  0  0
  149.3430  157.5900  132.2840 N   0  0  0  0  0  0  0  0  0  0  0  0
  149.2690  159.8380  132.4860 O   0  0  0  0  0  0  0  0  0  0  0  0
  146.5690  160.0720  133.1410 C   0  0  0  0  0  0  0  0  0  0  0  0
  145.2580  159.8660  133.4880 C   0  0  0  0  0  0  0  0  0  0  0  0
  144.2510  160.7680  133.7540 C   0  0  0  0  0  0  0  0  0  0  0  0
  143.0120  160.2610  134.0790 C   0  0  0  0  0  0  0  0  0  0  0  0
  142.7820  158.9100  134.1390 C   0  0  0  0  0  0  0  0  0  0  0  0
  141.4940  158.3050  134.4750 C   0  0  0  0  0  0  0  0  0  0  0  0
  140.5810  159.1240  135.3140 C   0  0  0  0  0  0  0  0  0  0  0  0
  141.8220  157.0260  135.2590 C   0  0  0  0  0  0  0  0  0  0  0  0
  140.7640  157.8670  133.2400 C   0  0  0  0  0  0  0  0  0  0  0  0
  140.2740  158.6760  132.4240 O   0  0  0  0  0  0  0  0  0  0  0  0
  140.6280  156.5200  132.9930 O   0  0  0  0  0  0  0  0  0  0  0  0
  143.8410  158.0340  133.8600 C   0  0  0  0  0  0  0  0  0  0  0  0
  145.0970  158.4990  133.5290 C   0  0  0  0  0  0  0  0  0  0  0  0
  142.5952  154.0148  137.2466 H   0  0  0  0  0  0  0  0  0  0  0  0
  143.1111  152.3782  136.7157 H   0  0  0  0  0  0  0  0  0  0  0  0
  144.2883  153.7350  136.7157 H   0  0  0  0  0  0  0  0  0  0  0  0
  145.0914  155.4832  135.1671 H   0  0  0  0  0  0  0  0  0  0  0  0
  145.6405  153.9557  134.3522 H   0  0  0  0  0  0  0  0  0  0  0  0
  149.9730  157.1040  132.9790 H   0  0  0  0  0  0  0  0  0  0  0  0
  149.2340  157.2260  131.2880 H   0  0  0  0  0  0  0  0  0  0  0  0
  147.0424  161.0571  133.0167 H   0  0  0  0  0  0  0  0  0  0  0  0
  144.4297  161.8524  133.7085 H   0  0  0  0  0  0  0  0  0  0  0  0
  142.1874  160.9561  134.2955 H   0  0  0  0  0  0  0  0  0  0  0  0
  140.7916  158.9351  136.3770 H   0  0  0  0  0  0  0  0  0  0  0  0
  140.7375  160.1901  135.0930 H   0  0  0  0  0  0  0  0  0  0  0  0
  139.5380  158.8530  135.0930 H   0  0  0  0  0  0  0  0  0  0  0  0
  141.7688  157.2335  136.3379 H   0  0  0  0  0  0  0  0  0  0  0  0
  141.0961  156.2410  135.0003 H   0  0  0  0  0  0  0  0  0  0  0  0
  142.8361  156.6873  135.0003 H   0  0  0  0  0  0  0  0  0  0  0  0
  141.3590  155.9510  132.5520 H   0  0  0  0  0  0  0  0  0  0  0  0
  143.6658  156.9490  133.9062 H   0  0  0  0  0  0  0  0  0  0  0  0
  1  2  1  0
  2  3  1  0
  3  4  1  0
  4  5  2  0
  4  6  1  0
  6  7  1  0
  7  8  1  0
  8  9  1  0
  9 10  1  0
 10 11  2  0
 10 12  1  0
 12 13  1  0
 13 14  1  0
 14 15  1  0
 14 16  2  0
 13 17  2  0
 17 18  1  0
 18 19  2  0
 19 20  1  0
 20 21  2  0
 21 22  1  0
 22 23  1  0
 22 24  1  0
 22 25  1  0
 25 26  2  0
 25 27  1  0
 21 28  1  0
 28 29  2  0
  7  2  2  0
 29 12  1  0
 29 18  1  0
  1 30  1  0
  1 31  1  0
  1 32  1  0
  8 33  1  0
  8 34  1  0
 15 35  1  0
 15 36  1  0
 17 37  1  0
 19 38  1  0
 20 39  1  0
 23 40  1  0
 23 41  1  0
 23 42  1  0
 24 43  1  0
 24 44  1  0
 24 45  1  0
 27 46  1  0
 28 47  1  0
M  END
>  <smiles>  (89) 
Cc1oc(=O)oc1COC(=O)n1c(C(N)=O)cc2ccc(C(C)(C)C(=O)O)cc21

>  <score_type>  (89) 
oracle

>  <origin>  (89) 
adg

>  <m_score__min__energy>  (89) 
-7.5099999999999998

>  <m_primary>  (89) 
energy

$$$$
91:0
     RDKit          3D

 39 40  0  0  0  0  0  0  0  0999 V2000
  140.4780  158.5150  132.6570 C   0  0  0  0  0  0  0  0  0  0  0  0
  140.9110  159.7550  133.3660 C   0  0  0  0  0  0  0  0  0  0  0  0
  140.6140  160.8570  133.0000 O   0  0  0  0  0  0  0  0  0  0  0  0
  141.7430  159.5990  134.5750 C   0  0  0  0  0  0  0  0  0  0  0  0
  143.1840  159.6350  134.1990 C   0  0  0  0  0  0  0  0  0  0  0  0
  143.7770  160.8680  134.0810 C   0  0  0  0  0  0  0  0  0  0  0  0
  145.1100  160.8990  133.7340 C   0  0  0  0  0  0  0  0  0  0  0  0
  145.7910  159.7110  133.5200 C   0  0  0  0  0  0  0  0  0  0  0  0
  147.0940  159.5260  133.1730 C   0  0  0  0  0  0  0  0  0  0  0  0
  147.2880  158.1330  133.0790 C   0  0  0  0  0  0  0  0  0  0  0  0
  148.5890  157.6330  132.6580 C   0  0  0  0  0  0  0  0  0  0  0  0
  148.8420  156.2130  132.7100 N   0  0  0  0  0  0  0  0  0  0  0  0
  149.5400  158.3170  132.2410 O   0  0  0  0  0  0  0  0  0  0  0  0
  146.1500  157.4890  133.3640 N   0  0  0  0  0  0  0  0  0  0  0  0
  145.8480  156.1370  133.5820 C   0  0  0  0  0  0  0  0  0  0  0  0
  144.7720  155.7080  133.0040 O   0  0  0  0  0  0  0  0  0  0  0  0
  146.5320  155.1400  134.3570 C   0  0  0  0  0  0  0  0  0  0  0  0
  147.3150  155.3070  135.3160 O   0  0  0  0  0  0  0  0  0  0  0  0
  146.3280  153.7770  134.0310 O   0  0  0  0  0  0  0  0  0  0  0  0
  146.8340  153.2790  132.7800 C   0  0  0  0  0  0  0  0  0  0  0  0
  148.3090  153.4650  132.8660 C   0  0  0  0  0  0  0  0  0  0  0  0
  149.0510  153.5520  131.8510 O   0  0  0  0  0  0  0  0  0  0  0  0
  148.8520  153.5420  134.1580 O   0  0  0  0  0  0  0  0  0  0  0  0
  145.2290  158.4760  133.6300 C   0  0  0  0  0  0  0  0  0  0  0  0
  143.8800  158.4550  133.9820 C   0  0  0  0  0  0  0  0  0  0  0  0
  140.2092  157.7453  133.3954 H   0  0  0  0  0  0  0  0  0  0  0  0
  139.6049  158.7390  132.0265 H   0  0  0  0  0  0  0  0  0  0  0  0
  141.3008  158.1468  132.0265 H   0  0  0  0  0  0  0  0  0  0  0  0
  141.5271  160.4187  135.2760 H   0  0  0  0  0  0  0  0  0  0  0  0
  141.5146  158.6351  135.0533 H   0  0  0  0  0  0  0  0  0  0  0  0
  143.2102  161.7942  134.2566 H   0  0  0  0  0  0  0  0  0  0  0  0
  145.6312  161.8618  133.6273 H   0  0  0  0  0  0  0  0  0  0  0  0
  147.8470  160.3090  133.0001 H   0  0  0  0  0  0  0  0  0  0  0  0
  149.2350  155.7140  131.8850 H   0  0  0  0  0  0  0  0  0  0  0  0
  148.6340  155.6610  133.5770 H   0  0  0  0  0  0  0  0  0  0  0  0
  146.5840  152.2149  132.6568 H   0  0  0  0  0  0  0  0  0  0  0  0
  146.3986  153.8042  131.9171 H   0  0  0  0  0  0  0  0  0  0  0  0
  148.2450  153.4690  134.9710 H   0  0  0  0  0  0  0  0  0  0  0  0
  143.3614  157.4908  134.0889 H   0  0  0  0  0  0  0  0  0  0  0  0
  1  2  1  0
  2  3  2  0
  2  4  1  0
  4  5  1  0
  5  6  2  0
  6  7  1  0
  7  8  2  0
  8  9  1  0
  9 10  2  0
 10 11  1  0
 11 12  1  0
 11 13  2  0
 10 14  1  0
 14 15  1  0
 15 16  2  0
 15 17  1  0
 17 18  2  0
 17 19  1  0
 19 20  1  0
 20 21  1  0
 21 22  2  0
 21 23  1  0
 14 24  1  0
 24 25  2  0
 25  5  1  0
 24  8  1  0
  1 26  1  0
  1 27  1  0
  1 28  1  0
  4 29  1  0
  4 30  1  0
  6 31  1  0
  7 32  1  0
  9 33  1  0
 12 34  1  0
 12 35  1  0
 20 36  1  0
 20 37  1  0
 23 38  1  0
 25 39  1  0
M  END
>  <smiles>  (90) 
CC(=O)Cc1ccc2cc(C(N)=O)n(C(=O)C(=O)OCC(=O)O)c2c1

>  <score_type>  (90) 
oracle

>  <origin>  (90) 
adg

>  <m_score__min__energy>  (90) 
-7.1200000000000001

>  <m_primary>  (90) 
energy

$$$$
92:0
     RDKit          3D

 48 50  0  0  0  0  0  0  0  0999 V2000
  148.8560  160.5170  130.3940 C   0  0  0  0  0  0  0  0  0  0  0  0
  148.3330  160.7900  131.6240 C   0  0  0  0  0  0  0  0  0  0  0  0
  147.1850  160.0130  131.9930 C   0  0  0  0  0  0  0  0  0  0  0  0
  147.1490  158.8470  132.6470 C   0  0  0  0  0  0  0  0  0  0  0  0
  148.4400  158.3010  133.0290 C   0  0  0  0  0  0  0  0  0  0  0  0
  149.3290  157.9440  132.1840 O   0  0  0  0  0  0  0  0  0  0  0  0
  148.8670  158.1140  134.3460 O   0  0  0  0  0  0  0  0  0  0  0  0
  145.8620  158.3490  133.0210 C   0  0  0  0  0  0  0  0  0  0  0  0
  144.9350  159.2780  133.1140 O   0  0  0  0  0  0  0  0  0  0  0  0
  145.3730  157.0720  133.3150 N   0  0  0  0  0  0  0  0  0  0  0  0
  145.9210  155.9210  133.6940 C   0  0  0  0  0  0  0  0  0  0  0  0
  147.3370  155.5130  133.5270 C   0  0  0  0  0  0  0  0  0  0  0  0
  147.9120  155.3460  132.2420 N   0  0  0  0  0  0  0  0  0  0  0  0
  148.0890  155.2980  134.5130 O   0  0  0  0  0  0  0  0  0  0  0  0
  144.9910  154.9960  134.1080 C   0  0  0  0  0  0  0  0  0  0  0  0
  143.7760  155.6090  133.9720 C   0  0  0  0  0  0  0  0  0  0  0  0
  142.5220  155.1100  134.2530 C   0  0  0  0  0  0  0  0  0  0  0  0
  141.4370  155.9290  134.0330 C   0  0  0  0  0  0  0  0  0  0  0  0
  141.6110  157.2100  133.5470 C   0  0  0  0  0  0  0  0  0  0  0  0
  140.4610  158.0050  133.3390 N   0  0  0  0  0  0  0  0  0  0  0  0
  139.3550  157.3910  132.5970 C   0  0  0  0  0  0  0  0  0  0  0  0
  138.3730  158.4290  132.0990 C   0  0  0  0  0  0  0  0  0  0  0  0
  139.3490  159.7180  131.3100 S   0  0  0  0  0  0  0  0  0  0  0  0
  140.1930  159.0920  130.2560 O   0  0  0  0  0  0  0  0  0  0  0  0
  138.4330  160.7860  130.7810 O   0  0  0  0  0  0  0  0  0  0  0  0
  140.3940  160.3500  132.6330 C   0  0  0  0  0  0  0  0  0  0  0  0
  140.2750  159.3490  133.7840 C   0  0  0  0  0  0  0  0  0  0  0  0
  142.9060  157.6690  133.2790 C   0  0  0  0  0  0  0  0  0  0  0  0
  144.0170  156.8660  133.4900 C   0  0  0  0  0  0  0  0  0  0  0  0
  149.7373  161.0695  130.0361 H   0  0  0  0  0  0  0  0  0  0  0  0
  148.3964  159.7444  129.7601 H   0  0  0  0  0  0  0  0  0  0  0  0
  148.7626  161.5544  132.2881 H   0  0  0  0  0  0  0  0  0  0  0  0
  146.2097  160.4294  131.7007 H   0  0  0  0  0  0  0  0  0  0  0  0
  149.2180  157.2040  134.6410 H   0  0  0  0  0  0  0  0  0  0  0  0
  148.8530  155.7770  132.0990 H   0  0  0  0  0  0  0  0  0  0  0  0
  147.3920  154.8130  131.5080 H   0  0  0  0  0  0  0  0  0  0  0  0
  145.1841  153.9762  134.4724 H   0  0  0  0  0  0  0  0  0  0  0  0
  142.3921  154.0890  134.6411 H   0  0  0  0  0  0  0  0  0  0  0  0
  140.4230  155.5597  134.2462 H   0  0  0  0  0  0  0  0  0  0  0  0
  139.7640  156.8441  131.7347 H   0  0  0  0  0  0  0  0  0  0  0  0
  138.8209  156.7108  133.2768 H   0  0  0  0  0  0  0  0  0  0  0  0
  137.6799  157.9790  131.3730 H   0  0  0  0  0  0  0  0  0  0  0  0
  137.7705  158.8353  132.9248 H   0  0  0  0  0  0  0  0  0  0  0  0
  141.4382  160.4196  132.2942 H   0  0  0  0  0  0  0  0  0  0  0  0
  140.0824  161.3581  132.9439 H   0  0  0  0  0  0  0  0  0  0  0  0
  141.0393  159.5829  134.5398 H   0  0  0  0  0  0  0  0  0  0  0  0
  139.2628  159.4324  134.2065 H   0  0  0  0  0  0  0  0  0  0  0  0
  143.0456  158.6893  132.8924 H   0  0  0  0  0  0  0  0  0  0  0  0
  1  2  2  0
  2  3  1  0
  3  4  2  0
  4  5  1  0
  5  6  2  0
  5  7  1  0
  4  8  1  0
  8  9  2  0
  8 10  1  0
 10 11  1  0
 11 12  1  0
 12 13  1  0
 12 14  2  0
 11 15  2  0
 15 16  1  0
 16 17  2  0
 17 18  1  0
 18 19  2  0
 19 20  1  0
 20 21  1  0
 21 22  1  0
 22 23  1  0
 23 24  2  0
 23 25  2  0
 23 26  1  0
 26 27  1  0
 19 28  1  0
 28 29  2  0
 29 10  1  0
 29 16  1  0
 27 20  1  0
  1 30  1  0
  1 31  1  0
  2 32  1  0
  3 33  1  0
  7 34  1  0
 13 35  1  0
 13 36  1  0
 15 37  1  0
 17 38  1  0
 18 39  1  0
 21 40  1  0
 21 41  1  0
 22 42  1  0
 22 43  1  0
 26 44  1  0
 26 45  1  0
 27 46  1  0
 27 47  1  0
 28 48  1  0
M  END
>  <smiles>  (91) 
C=C/C=C(\C(=O)O)C(=O)n1c(C(N)=O)cc2ccc(N3CCS(=O)(=O)CC3)cc21

>  <score_type>  (91) 
oracle

>  <origin>  (91) 
adg

>  <m_score__min__energy>  (91) 
-9.1199999999999992

>  <m_primary>  (91) 
energy

$$$$
93:0
     RDKit          3D

 37 38  0  0  0  0  0  0  0  0999 V2000
  149.0670  156.3630  132.5960 N   0  0  0  0  0  0  0  0  0  0  0  0
  148.8770  157.8120  132.6280 C   0  0  0  0  0  0  0  0  0  0  0  0
  149.9080  158.4370  132.3430 O   0  0  0  0  0  0  0  0  0  0  0  0
  147.5740  158.3540  132.9700 C   0  0  0  0  0  0  0  0  0  0  0  0
  147.4400  159.7290  133.2450 C   0  0  0  0  0  0  0  0  0  0  0  0
  146.1360  159.9890  133.5410 C   0  0  0  0  0  0  0  0  0  0  0  0
  145.5150  161.1750  133.8630 C   0  0  0  0  0  0  0  0  0  0  0  0
  144.1770  161.1710  134.1030 C   0  0  0  0  0  0  0  0  0  0  0  0
  143.4810  160.0130  134.0230 C   0  0  0  0  0  0  0  0  0  0  0  0
  142.0210  160.0290  134.2890 C   0  0  0  0  0  0  0  0  0  0  0  0
  141.4830  158.9520  133.5880 F   0  0  0  0  0  0  0  0  0  0  0  0
  141.4160  161.2110  133.9550 F   0  0  0  0  0  0  0  0  0  0  0  0
  141.7950  159.7620  135.6360 F   0  0  0  0  0  0  0  0  0  0  0  0
  144.1270  158.8200  133.6950 C   0  0  0  0  0  0  0  0  0  0  0  0
  145.4770  158.7800  133.4470 C   0  0  0  0  0  0  0  0  0  0  0  0
  146.3570  157.7870  133.1000 N   0  0  0  0  0  0  0  0  0  0  0  0
  146.1240  156.4100  132.9510 C   0  0  0  0  0  0  0  0  0  0  0  0
  146.4350  155.8210  131.8530 O   0  0  0  0  0  0  0  0  0  0  0  0
  145.5690  155.5090  133.8880 N   0  0  0  0  0  0  0  0  0  0  0  0
  145.4090  153.8590  133.3830 S   0  0  0  0  0  0  0  0  0  0  0  0
  144.2620  153.6870  132.4360 O   0  0  0  0  0  0  0  0  0  0  0  0
  145.1110  153.0460  134.6090 O   0  0  0  0  0  0  0  0  0  0  0  0
  146.8460  153.2620  132.6780 N   0  0  0  0  0  0  0  0  0  0  0  0
  148.0940  153.6460  133.2460 C   0  0  0  0  0  0  0  0  0  0  0  0
  148.2070  154.3980  134.2380 O   0  0  0  0  0  0  0  0  0  0  0  0
  149.3430  153.1190  132.6220 C   0  0  0  0  0  0  0  0  0  0  0  0
  150.0080  152.2670  133.4480 F   0  0  0  0  0  0  0  0  0  0  0  0
  150.1450  154.1830  132.2850 F   0  0  0  0  0  0  0  0  0  0  0  0
  149.0060  152.4120  131.4800 F   0  0  0  0  0  0  0  0  0  0  0  0
  148.6810  155.8230  131.7940 H   0  0  0  0  0  0  0  0  0  0  0  0
  149.5940  155.9180  133.3950 H   0  0  0  0  0  0  0  0  0  0  0  0
  148.2531  160.4696  133.2242 H   0  0  0  0  0  0  0  0  0  0  0  0
  146.0917  162.1097  133.9250 H   0  0  0  0  0  0  0  0  0  0  0  0
  143.6609  162.1073  134.3618 H   0  0  0  0  0  0  0  0  0  0  0  0
  143.5414  157.8908  133.6338 H   0  0  0  0  0  0  0  0  0  0  0  0
  145.2810  155.7500  134.8200 H   0  0  0  0  0  0  0  0  0  0  0  0
  146.7580  152.6340  131.8490 H   0  0  0  0  0  0  0  0  0  0  0  0
  1  2  1  0
  2  3  2  0
  2  4  1  0
  4  5  2  0
  5  6  1  0
  6  7  2  0
  7  8  1  0
  8  9  2  0
  9 10  1  0
 10 11  1  0
 10 12  1  0
 10 13  1  0
  9 14  1  0
 14 15  2  0
 15 16  1  0
 16 17  1  0
 17 18  2  0
 17 19  1  0
 19 20  1  0
 20 21  2  0
 20 22  2  0
 20 23  1  0
 23 24  1  0
 24 25  2  0
 24 26  1  0
 26 27  1  0
 26 28  1  0
 26 29  1  0
 16  4  1  0
 15  6  1  0
  1 30  1  0
  1 31  1  0
  5 32  1  0
  7 33  1  0
  8 34  1  0
 14 35  1  0
 19 36  1  0
 23 37  1  0
M  END
>  <smiles>  (92) 
NC(=O)c1cc2ccc(C(F)(F)F)cc2n1C(=O)NS(=O)(=O)NC(=O)C(F)(F)F

>  <score_type>  (92) 
oracle

>  <origin>  (92) 
adg

>  <m_score__min__energy>  (92) 
-7.3700000000000001

>  <m_primary>  (92) 
energy

$$$$
94:0
     RDKit          3D

 38 39  0  0  0  0  0  0  0  0999 V2000
  145.3150  151.7840  132.6510 N   0  0  0  0  0  0  0  0  0  0  0  0
  144.5120  152.9940  132.6730 C   0  0  0  0  0  0  0  0  0  0  0  0
  143.3010  152.7890  132.5140 O   0  0  0  0  0  0  0  0  0  0  0  0
  145.2010  154.2520  132.8670 C   0  0  0  0  0  0  0  0  0  0  0  0
  144.4520  155.4450  132.8940 C   0  0  0  0  0  0  0  0  0  0  0  0
  145.3180  156.4850  133.0560 C   0  0  0  0  0  0  0  0  0  0  0  0
  145.0680  157.8330  133.1430 C   0  0  0  0  0  0  0  0  0  0  0  0
  146.1150  158.7070  133.3130 C   0  0  0  0  0  0  0  0  0  0  0  0
  147.3730  158.2050  133.3920 C   0  0  0  0  0  0  0  0  0  0  0  0
  148.5140  159.1560  133.5780 C   0  0  0  0  0  0  0  0  0  0  0  0
  149.0180  158.9600  134.8500 F   0  0  0  0  0  0  0  0  0  0  0  0
  148.0920  160.4610  133.3790 F   0  0  0  0  0  0  0  0  0  0  0  0
  149.4700  158.8520  132.6350 F   0  0  0  0  0  0  0  0  0  0  0  0
  147.6100  156.8320  133.3020 C   0  0  0  0  0  0  0  0  0  0  0  0
  146.5720  155.9260  133.1290 C   0  0  0  0  0  0  0  0  0  0  0  0
  146.4950  154.5650  133.0160 N   0  0  0  0  0  0  0  0  0  0  0  0
  147.6620  153.7760  133.0450 C   0  0  0  0  0  0  0  0  0  0  0  0
  147.7970  153.0040  134.0420 O   0  0  0  0  0  0  0  0  0  0  0  0
  148.7070  153.7140  132.1120 N   0  0  0  0  0  0  0  0  0  0  0  0
  149.8900  152.8840  132.2390 C   0  0  0  0  0  0  0  0  0  0  0  0
  149.6670  151.4300  132.4070 C   0  0  1  0  0  0  0  0  0  0  0  0
  149.3180  150.9720  133.6460 O   0  0  0  0  0  0  0  0  0  0  0  0
  148.4800  151.0810  131.4890 C   0  0  0  0  0  0  0  0  0  0  0  0
  147.4230  150.6030  132.2300 O   0  0  0  0  0  0  0  0  0  0  0  0
  146.0630  151.6460  133.3560 H   0  0  0  0  0  0  0  0  0  0  0  0
  145.1190  151.0540  131.9080 H   0  0  0  0  0  0  0  0  0  0  0  0
  143.3588  155.5235  132.8006 H   0  0  0  0  0  0  0  0  0  0  0  0
  144.0368  158.2103  133.0771 H   0  0  0  0  0  0  0  0  0  0  0  0
  145.9369  159.7902  133.3835 H   0  0  0  0  0  0  0  0  0  0  0  0
  148.6428  156.4594  133.3697 H   0  0  0  0  0  0  0  0  0  0  0  0
  148.6280  154.2550  131.2410 H   0  0  0  0  0  0  0  0  0  0  0  0
  150.4956  153.0257  131.3317 H   0  0  0  0  0  0  0  0  0  0  0  0
  150.3745  153.2118  133.1706 H   0  0  0  0  0  0  0  0  0  0  0  0
  150.6387  150.9634  132.1877 H   0  0  0  0  0  0  0  0  0  0  0  0
  148.4500  151.3100  133.9750 H   0  0  0  0  0  0  0  0  0  0  0  0
  148.1633  151.9844  130.9472 H   0  0  0  0  0  0  0  0  0  0  0  0
  148.7964  150.3041  130.7774 H   0  0  0  0  0  0  0  0  0  0  0  0
  147.3460  151.0960  133.0730 H   0  0  0  0  0  0  0  0  0  0  0  0
  1  2  1  0
  2  3  2  0
  2  4  1  0
  4  5  2  0
  5  6  1  0
  6  7  2  0
  7  8  1  0
  8  9  2  0
  9 10  1  0
 10 11  1  0
 10 12  1  0
 10 13  1  0
  9 14  1  0
 14 15  2  0
 15 16  1  0
 16 17  1  0
 17 18  2  0
 17 19  1  0
 19 20  1  0
 20 21  1  0
 21 22  1  0
 21 23  1  0
 23 24  1  0
 16  4  1  0
 15  6  1  0
  1 25  1  0
  1 26  1  0
  5 27  1  0
  7 28  1  0
  8 29  1  0
 14 30  1  0
 19 31  1  0
 20 32  1  0
 20 33  1  0
 21 34  1  6
 22 35  1  0
 23 36  1  0
 23 37  1  0
 24 38  1  0
M  END
>  <smiles>  (93) 
NC(=O)c1cc2ccc(C(F)(F)F)cc2n1C(=O)NC[C@@H](O)CO

>  <score_type>  (93) 
oracle

>  <origin>  (93) 
adg

>  <m_score__min__energy>  (93) 
-6.8300000000000001

>  <m_primary>  (93) 
energy

$$$$
95:0
     RDKit          3D

 49 50  0  0  0  0  0  0  0  0999 V2000
  144.2140  153.4450  134.8820 C   0  0  0  0  0  0  0  0  0  0  0  0
  144.3150  153.0760  133.4610 N   0  0  0  0  0  0  0  0  0  0  0  0
  143.6550  151.8820  132.9800 C   0  0  0  0  0  0  0  0  0  0  0  0
  142.1990  152.1580  132.7640 C   0  0  0  0  0  0  0  0  0  0  0  0
  141.8120  153.3210  132.6370 O   0  0  0  0  0  0  0  0  0  0  0  0
  145.0840  153.9470  132.6500 C   0  0  0  0  0  0  0  0  0  0  0  0
  144.6150  154.1580  131.4800 O   0  0  0  0  0  0  0  0  0  0  0  0
  146.3160  154.5820  133.0540 C   0  0  0  0  0  0  0  0  0  0  0  0
  146.9990  154.2400  134.0580 O   0  0  0  0  0  0  0  0  0  0  0  0
  146.8270  155.6720  132.2930 N   0  0  0  0  0  0  0  0  0  0  0  0
  148.0170  156.3340  132.6140 C   0  0  0  0  0  0  0  0  0  0  0  0
  147.9980  157.6880  133.1970 C   0  0  0  0  0  0  0  0  0  0  0  0
  146.9750  158.5940  132.4870 C   0  0  0  0  0  0  0  0  0  0  0  0
  146.3890  159.5920  133.3820 C   0  0  0  0  0  0  0  0  0  0  0  0
  147.2820  160.2420  134.0640 O   0  0  0  0  0  0  0  0  0  0  0  0
  145.0640  159.9510  133.6200 N   0  0  0  0  0  0  0  0  0  0  0  0
  144.4980  161.1590  133.8940 C   0  0  0  0  0  0  0  0  0  0  0  0
  145.0870  162.4550  134.1050 C   0  0  0  0  0  0  0  0  0  0  0  0
  146.5470  162.5270  134.1370 N   0  0  0  0  0  0  0  0  0  0  0  0
  144.5560  163.5500  134.2700 O   0  0  0  0  0  0  0  0  0  0  0  0
  143.1040  160.9770  134.0020 C   0  0  0  0  0  0  0  0  0  0  0  0
  142.8340  159.6570  133.7930 C   0  0  0  0  0  0  0  0  0  0  0  0
  141.6360  158.9890  133.7920 C   0  0  0  0  0  0  0  0  0  0  0  0
  141.5780  157.6370  133.5550 C   0  0  0  0  0  0  0  0  0  0  0  0
  142.7610  156.9860  133.3190 C   0  0  0  0  0  0  0  0  0  0  0  0
  142.7310  155.5840  133.0710 N   0  0  0  0  0  0  0  0  0  0  0  0
  143.9740  157.6730  133.3230 C   0  0  0  0  0  0  0  0  0  0  0  0
  144.0380  159.0450  133.5620 C   0  0  0  0  0  0  0  0  0  0  0  0
  144.4532  152.5710  135.5057 H   0  0  0  0  0  0  0  0  0  0  0  0
  144.9229  154.2570  135.1013 H   0  0  0  0  0  0  0  0  0  0  0  0
  143.1904  153.7828  135.1013 H   0  0  0  0  0  0  0  0  0  0  0  0
  144.1123  151.5700  132.0295 H   0  0  0  0  0  0  0  0  0  0  0  0
  143.7656  151.0809  133.7257 H   0  0  0  0  0  0  0  0  0  0  0  0
  141.4792  151.3274  132.7190 H   0  0  0  0  0  0  0  0  0  0  0  0
  146.2570  155.9750  131.4480 H   0  0  0  0  0  0  0  0  0  0  0  0
  148.5487  155.6917  133.3315 H   0  0  0  0  0  0  0  0  0  0  0  0
  148.4750  156.5011  131.6279 H   0  0  0  0  0  0  0  0  0  0  0  0
  147.7322  157.6149  134.2619 H   0  0  0  0  0  0  0  0  0  0  0  0
  148.9969  158.1315  133.0722 H   0  0  0  0  0  0  0  0  0  0  0  0
  147.4803  159.1155  131.6608 H   0  0  0  0  0  0  0  0  0  0  0  0
  146.1584  157.9527  132.1237 H   0  0  0  0  0  0  0  0  0  0  0  0
  147.0910  162.0010  134.8510 H   0  0  0  0  0  0  0  0  0  0  0  0
  146.9480  163.1380  133.3970 H   0  0  0  0  0  0  0  0  0  0  0  0
  142.3642  161.7621  134.2171 H   0  0  0  0  0  0  0  0  0  0  0  0
  140.7065  159.5449  133.9841 H   0  0  0  0  0  0  0  0  0  0  0  0
  140.6193  157.0977  133.5546 H   0  0  0  0  0  0  0  0  0  0  0  0
  142.8290  155.1910  132.1150 H   0  0  0  0  0  0  0  0  0  0  0  0
  142.6020  154.9230  133.8950 H   0  0  0  0  0  0  0  0  0  0  0  0
  144.9046  157.1183  133.1327 H   0  0  0  0  0  0  0  0  0  0  0  0
  1  2  1  0
  2  3  1  0
  3  4  1  0
  4  5  2  0
  2  6  1  0
  6  7  2  0
  6  8  1  0
  8  9  2  0
  8 10  1  0
 10 11  1  0
 11 12  1  0
 12 13  1  0
 13 14  1  0
 14 15  2  0
 14 16  1  0
 16 17  1  0
 17 18  1  0
 18 19  1  0
 18 20  2  0
 17 21  2  0
 21 22  1  0
 22 23  2  0
 23 24  1  0
 24 25  2  0
 25 26  1  0
 25 27  1  0
 27 28  2  0
 28 16  1  0
 28 22  1  0
  1 29  1  0
  1 30  1  0
  1 31  1  0
  3 32  1  0
  3 33  1  0
  4 34  1  0
 10 35  1  0
 11 36  1  0
 11 37  1  0
 12 38  1  0
 12 39  1  0
 13 40  1  0
 13 41  1  0
 19 42  1  0
 19 43  1  0
 21 44  1  0
 23 45  1  0
 24 46  1  0
 26 47  1  0
 26 48  1  0
 27 49  1  0
M  END
>  <smiles>  (94) 
CN(CC=O)C(=O)C(=O)NCCCC(=O)n1c(C(N)=O)cc2ccc(N)cc21

>  <score_type>  (94) 
oracle

>  <origin>  (94) 
adg

>  <m_score__min__energy>  (94) 
-7.4299999999999997

>  <m_primary>  (94) 
energy

$$$$
