0:0
     RDKit          3D

 41 42  0  0  0  0  0  0  0  0999 V2000
  148.1370  154.0230  137.0220 C   0  0  0  0  0  0  0  0  0  0  0  0
  146.9910  153.5120  136.4040 O   0  0  0  0  0  0  0  0  0  0  0  0
  146.6450  154.4380  135.4190 C   0  0  0  0  0  0  0  0  0  0  0  0
  147.7460  154.5770  134.4220 C   0  0  0  0  0  0  0  0  0  0  0  0
  147.7580  155.8600  133.8700 O   0  0  0  0  0  0  0  0  0  0  0  0
  146.7010  156.5520  133.3350 C   0  0  0  0  0  0  0  0  0  0  0  0
  145.7670  155.8400  132.8390 O   0  0  0  0  0  0  0  0  0  0  0  0
  146.5690  157.9610  133.2920 N   0  0  0  0  0  0  0  0  0  0  0  0
  147.5030  158.8600  132.9450 C   0  0  0  0  0  0  0  0  0  0  0  0
  148.8770  158.6880  132.5250 C   0  0  0  0  0  0  0  0  0  0  0  0
  149.4290  157.3560  132.4160 N   0  0  0  0  0  0  0  0  0  0  0  0
  149.6780  159.6050  132.2310 O   0  0  0  0  0  0  0  0  0  0  0  0
  146.9140  160.1300  133.0530 C   0  0  0  0  0  0  0  0  0  0  0  0
  145.6270  159.9860  133.4650 C   0  0  0  0  0  0  0  0  0  0  0  0
  144.6410  160.9260  133.7170 C   0  0  0  0  0  0  0  0  0  0  0  0
  143.3980  160.5020  134.1330 C   0  0  0  0  0  0  0  0  0  0  0  0
  143.1490  159.1600  134.2910 C   0  0  0  0  0  0  0  0  0  0  0  0
  141.8740  158.7020  134.7190 N   0  0  0  0  0  0  0  0  0  0  0  0
  140.8460  158.3150  133.7550 C   0  0  0  0  0  0  0  0  0  0  0  0
  141.5900  158.6190  136.1390 C   0  0  0  0  0  0  0  0  0  0  0  0
  144.1630  158.2410  134.0300 C   0  0  0  0  0  0  0  0  0  0  0  0
  145.4210  158.6300  133.6120 C   0  0  0  0  0  0  0  0  0  0  0  0
  148.0189  153.9703  138.1144 H   0  0  0  0  0  0  0  0  0  0  0  0
  149.0124  153.4300  136.7188 H   0  0  0  0  0  0  0  0  0  0  0  0
  148.2809  155.0706  136.7188 H   0  0  0  0  0  0  0  0  0  0  0  0
  145.7334  154.0974  134.9063 H   0  0  0  0  0  0  0  0  0  0  0  0
  146.4706  155.4145  135.8945 H   0  0  0  0  0  0  0  0  0  0  0  0
  148.7088  154.3899  134.9199 H   0  0  0  0  0  0  0  0  0  0  0  0
  147.5837  153.8479  133.6145 H   0  0  0  0  0  0  0  0  0  0  0  0
  149.6280  156.9290  131.4840 H   0  0  0  0  0  0  0  0  0  0  0  0
  149.6030  156.8780  133.3300 H   0  0  0  0  0  0  0  0  0  0  0  0
  147.4133  161.0865  132.8388 H   0  0  0  0  0  0  0  0  0  0  0  0
  144.8482  161.9984  133.5864 H   0  0  0  0  0  0  0  0  0  0  0  0
  142.6058  161.2370  134.3384 H   0  0  0  0  0  0  0  0  0  0  0  0
  139.9479  157.9769  134.2926 H   0  0  0  0  0  0  0  0  0  0  0  0
  140.5918  159.1790  133.1234 H   0  0  0  0  0  0  0  0  0  0  0  0
  141.2246  157.4979  133.1234 H   0  0  0  0  0  0  0  0  0  0  0  0
  142.4927  158.8828  136.7095 H   0  0  0  0  0  0  0  0  0  0  0  0
  140.7790  159.3177  136.3922 H   0  0  0  0  0  0  0  0  0  0  0  0
  141.2829  157.5935  136.3922 H   0  0  0  0  0  0  0  0  0  0  0  0
  143.9548  157.1689  134.1612 H   0  0  0  0  0  0  0  0  0  0  0  0
  1  2  1  0
  2  3  1  0
  3  4  1  0
  4  5  1  0
  5  6  1  0
  6  7  2  0
  6  8  1  0
  8  9  1  0
  9 10  1  0
 10 11  1  0
 10 12  2  0
  9 13  2  0
 13 14  1  0
 14 15  2  0
 15 16  1  0
 16 17  2  0
 17 18  1  0
 18 19  1  0
 18 20  1  0
 17 21  1  0
 21 22  2  0
 22  8  1  0
 22 14  1  0
  1 23  1  0
  1 24  1  0
  1 25  1  0
  3 26  1  0
  3 27  1  0
  4 28  1  0
  4 29  1  0
 11 30  1  0
 11 31  1  0
 13 32  1  0
 15 33  1  0
 16 34  1  0
 19 35  1  0
 19 36  1  0
 19 37  1  0
 20 38  1  0
 20 39  1  0
 20 40  1  0
 21 41  1  0
M  END
>  <smiles>  (1) 
COCCOC(=O)n1c(C(N)=O)cc2ccc(N(C)C)cc21

>  <score_type>  (1) 
oracle

>  <origin>  (1) 
adg

>  <m_score__min__energy>  (1) 
-6.25

>  <m_primary>  (1) 
energy

$$$$
1:0
     RDKit          3D

 28 29  0  0  0  0  0  0  0  0999 V2000
  149.5900  162.0560  130.1420 C   0  0  0  0  0  0  0  0  0  0  0  0
  149.2830  160.8050  130.8780 C   0  0  0  0  0  0  0  0  0  0  0  0
  150.2070  159.7890  130.8140 C   0  0  0  0  0  0  0  0  0  0  0  0
  149.9550  158.6210  131.4810 C   0  0  0  0  0  0  0  0  0  0  0  0
  148.7810  158.4820  132.2060 C   0  0  0  0  0  0  0  0  0  0  0  0
  148.3010  157.4440  132.9430 C   0  0  0  0  0  0  0  0  0  0  0  0
  147.0560  157.7870  133.4920 C   0  0  0  0  0  0  0  0  0  0  0  0
  146.2900  156.8980  134.3240 C   0  0  0  0  0  0  0  0  0  0  0  0
  144.8540  156.8310  134.1320 N   0  0  0  0  0  0  0  0  0  0  0  0
  146.7230  156.1520  135.2220 O   0  0  0  0  0  0  0  0  0  0  0  0
  146.8060  159.0370  133.0710 N   0  0  0  0  0  0  0  0  0  0  0  0
  145.6640  159.8220  133.3630 C   0  0  0  0  0  0  0  0  0  0  0  0
  145.6830  160.9340  133.9430 O   0  0  0  0  0  0  0  0  0  0  0  0
  144.3810  159.3750  132.9990 O   0  0  0  0  0  0  0  0  0  0  0  0
  143.2580  159.7230  133.7300 C   0  0  0  0  0  0  0  0  0  0  0  0
  142.8870  159.0460  134.7220 O   0  0  0  0  0  0  0  0  0  0  0  0
  142.5190  160.8100  133.3970 F   0  0  0  0  0  0  0  0  0  0  0  0
  147.8330  159.4810  132.2920 C   0  0  0  0  0  0  0  0  0  0  0  0
  148.1060  160.6490  131.6130 C   0  0  0  0  0  0  0  0  0  0  0  0
  149.7885  162.8649  130.8606 H   0  0  0  0  0  0  0  0  0  0  0  0
  150.4768  161.9013  129.5099 H   0  0  0  0  0  0  0  0  0  0  0  0
  148.7323  162.3294  129.5099 H   0  0  0  0  0  0  0  0  0  0  0  0
  151.1344  159.9130  130.2356 H   0  0  0  0  0  0  0  0  0  0  0  0
  150.6809  157.7955  131.4423 H   0  0  0  0  0  0  0  0  0  0  0  0
  148.8121  156.4806  133.0869 H   0  0  0  0  0  0  0  0  0  0  0  0
  144.3140  157.6920  133.8490 H   0  0  0  0  0  0  0  0  0  0  0  0
  144.3350  155.9280  134.2700 H   0  0  0  0  0  0  0  0  0  0  0  0
  147.3814  161.4757  131.6509 H   0  0  0  0  0  0  0  0  0  0  0  0
  1  2  1  0
  2  3  2  0
  3  4  1  0
  4  5  2  0
  5  6  1  0
  6  7  2  0
  7  8  1  0
  8  9  1  0
  8 10  2  0
  7 11  1  0
 11 12  1  0
 12 13  2  0
 12 14  1  0
 14 15  1  0
 15 16  2  0
 15 17  1  0
 11 18  1  0
 18 19  2  0
 19  2  1  0
 18  5  1  0
  1 20  1  0
  1 21  1  0
  1 22  1  0
  3 23  1  0
  4 24  1  0
  6 25  1  0
  9 26  1  0
  9 27  1  0
 19 28  1  0
M  END
>  <smiles>  (2) 
Cc1ccc2cc(C(N)=O)n(C(=O)OC(=O)F)c2c1

>  <score_type>  (2) 
oracle

>  <origin>  (2) 
adg

>  <m_score__min__energy>  (2) 
-5.9299999999999997

>  <m_primary>  (2) 
energy

$$$$
2:0
     RDKit          3D

 36 38  0  0  0  0  0  0  0  0999 V2000
  145.9840  153.0100  133.5240 N   0  0  0  0  0  0  0  0  0  0  0  0
  145.7770  154.2610  134.2290 C   0  0  0  0  0  0  0  0  0  0  0  0
  145.0560  154.1790  135.2330 O   0  0  0  0  0  0  0  0  0  0  0  0
  146.4100  155.4650  133.7200 C   0  0  0  0  0  0  0  0  0  0  0  0
  145.7690  156.7120  133.7460 C   0  0  0  0  0  0  0  0  0  0  0  0
  146.5950  157.6660  133.2050 C   0  0  0  0  0  0  0  0  0  0  0  0
  146.4250  159.0270  133.0080 C   0  0  0  0  0  0  0  0  0  0  0  0
  147.4290  159.7480  132.4360 C   0  0  0  0  0  0  0  0  0  0  0  0
  148.5970  159.1200  132.0620 C   0  0  0  0  0  0  0  0  0  0  0  0
  149.6870  159.9240  131.4380 C   0  0  0  0  0  0  0  0  0  0  0  0
  149.6130  159.9350  129.9190 C   0  0  0  0  0  0  0  0  0  0  0  0
  149.3690  161.1680  130.7340 C   0  0  0  0  0  0  0  0  0  0  0  0
  148.7450  157.7440  132.2720 C   0  0  0  0  0  0  0  0  0  0  0  0
  147.7440  156.9930  132.8480 C   0  0  0  0  0  0  0  0  0  0  0  0
  147.6010  155.6730  133.1700 N   0  0  0  0  0  0  0  0  0  0  0  0
  148.6040  154.7020  132.9350 C   0  0  0  0  0  0  0  0  0  0  0  0
  149.6360  154.8740  132.2440 O   0  0  0  0  0  0  0  0  0  0  0  0
  148.4930  153.4120  133.4970 O   0  0  0  0  0  0  0  0  0  0  0  0
  149.2700  152.3930  132.9530 C   0  0  0  0  0  0  0  0  0  0  0  0
  148.4990  151.3730  132.2160 C   0  0  0  0  0  0  0  0  0  0  0  0
  148.9450  150.2360  131.9070 O   0  0  0  0  0  0  0  0  0  0  0  0
  147.1990  151.6990  131.8450 O   0  0  0  0  0  0  0  0  0  0  0  0
  145.4070  152.8460  132.6510 H   0  0  0  0  0  0  0  0  0  0  0  0
  146.6760  152.3040  133.8720 H   0  0  0  0  0  0  0  0  0  0  0  0
  144.7587  156.8975  134.1397 H   0  0  0  0  0  0  0  0  0  0  0  0
  145.4892  159.5198  133.3103 H   0  0  0  0  0  0  0  0  0  0  0  0
  147.3077  160.8291  132.2730 H   0  0  0  0  0  0  0  0  0  0  0  0
  150.4228  159.6895  132.2213 H   0  0  0  0  0  0  0  0  0  0  0  0
  150.5291  159.8390  129.3176 H   0  0  0  0  0  0  0  0  0  0  0  0
  149.0595  159.3738  129.1517 H   0  0  0  0  0  0  0  0  0  0  0  0
  150.1029  161.9872  130.7163 H   0  0  0  0  0  0  0  0  0  0  0  0
  148.5470  161.8963  130.7963 H   0  0  0  0  0  0  0  0  0  0  0  0
  149.6812  157.2515  131.9705 H   0  0  0  0  0  0  0  0  0  0  0  0
  149.9954  152.8445  132.2603 H   0  0  0  0  0  0  0  0  0  0  0  0
  149.7513  151.8772  133.7970 H   0  0  0  0  0  0  0  0  0  0  0  0
  146.8850  152.6730  131.7520 H   0  0  0  0  0  0  0  0  0  0  0  0
  1  2  1  0
  2  3  2  0
  2  4  1  0
  4  5  2  0
  5  6  1  0
  6  7  2  0
  7  8  1  0
  8  9  2  0
  9 10  1  0
 10 11  1  0
 11 12  1  0
  9 13  1  0
 13 14  2  0
 14 15  1  0
 15 16  1  0
 16 17  2  0
 16 18  1  0
 18 19  1  0
 19 20  1  0
 20 21  2  0
 20 22  1  0
 15  4  1  0
 14  6  1  0
 12 10  1  0
  1 23  1  0
  1 24  1  0
  5 25  1  0
  7 26  1  0
  8 27  1  0
 10 28  1  0
 11 29  1  0
 11 30  1  0
 12 31  1  0
 12 32  1  0
 13 33  1  0
 19 34  1  0
 19 35  1  0
 22 36  1  0
M  END
>  <smiles>  (3) 
NC(=O)c1cc2ccc(C3CC3)cc2n1C(=O)OCC(=O)O

>  <score_type>  (3) 
oracle

>  <origin>  (3) 
adg

>  <m_score__min__energy>  (3) 
-7.2999999999999998

>  <m_primary>  (3) 
energy

$$$$
3:0
     RDKit          3D

 49 50  0  0  0  0  0  0  0  0999 V2000
  143.7060  163.6710  133.3820 C   0  0  0  0  0  0  0  0  0  0  0  0
  144.5210  162.5770  133.7770 N   0  0  0  0  0  0  0  0  0  0  0  0
  145.4940  162.8350  134.7840 C   0  0  0  0  0  0  0  0  0  0  0  0
  143.9430  161.2830  133.7530 C   0  0  0  0  0  0  0  0  0  0  0  0
  144.9020  160.1460  134.0210 C   0  0  0  0  0  0  0  0  0  0  0  0
  146.1800  160.3620  133.3690 N   0  0  0  0  0  0  0  0  0  0  0  0
  147.0210  159.2290  133.1390 C   0  0  0  0  0  0  0  0  0  0  0  0
  148.2810  159.4370  132.6440 C   0  0  0  0  0  0  0  0  0  0  0  0
  149.0720  158.3340  132.4300 C   0  0  0  0  0  0  0  0  0  0  0  0
  148.5900  157.0620  132.7130 C   0  0  0  0  0  0  0  0  0  0  0  0
  149.1990  155.8650  132.5740 C   0  0  0  0  0  0  0  0  0  0  0  0
  148.2730  154.9010  133.0030 C   0  0  0  0  0  0  0  0  0  0  0  0
  148.7020  153.5060  133.0480 C   0  0  0  0  0  0  0  0  0  0  0  0
  147.9340  152.4200  133.4750 N   0  0  0  0  0  0  0  0  0  0  0  0
  149.8980  153.2410  132.6710 O   0  0  0  0  0  0  0  0  0  0  0  0
  147.1300  155.4720  133.3850 N   0  0  0  0  0  0  0  0  0  0  0  0
  145.8470  154.9820  133.6850 C   0  0  0  0  0  0  0  0  0  0  0  0
  145.8330  154.1820  134.7280 O   0  0  0  0  0  0  0  0  0  0  0  0
  144.5890  155.1650  133.1290 N   0  0  0  0  0  0  0  0  0  0  0  0
  143.5360  156.0900  133.4430 C   0  0  0  0  0  0  0  0  0  0  0  0
  144.2450  154.2490  131.9950 C   0  0  0  0  0  0  0  0  0  0  0  0
  144.2520  152.8900  132.5390 C   0  0  0  0  0  0  0  0  0  0  0  0
  143.1410  152.3110  132.7930 O   0  0  0  0  0  0  0  0  0  0  0  0
  145.4150  152.1850  132.7980 O   0  0  0  0  0  0  0  0  0  0  0  0
  147.3360  156.8180  133.2080 C   0  0  0  0  0  0  0  0  0  0  0  0
  146.5450  157.9450  133.4200 C   0  0  0  0  0  0  0  0  0  0  0  0
  143.3233  164.1847  134.2762 H   0  0  0  0  0  0  0  0  0  0  0  0
  144.3020  164.3744  132.7819 H   0  0  0  0  0  0  0  0  0  0  0  0
  142.8615  163.3012  132.7819 H   0  0  0  0  0  0  0  0  0  0  0  0
  145.0356  162.7135  135.7765 H   0  0  0  0  0  0  0  0  0  0  0  0
  146.3293  162.1273  134.6767 H   0  0  0  0  0  0  0  0  0  0  0  0
  145.8688  163.8636  134.6767 H   0  0  0  0  0  0  0  0  0  0  0  0
  143.1524  161.2490  134.5171 H   0  0  0  0  0  0  0  0  0  0  0  0
  143.5702  161.1336  132.7290 H   0  0  0  0  0  0  0  0  0  0  0  0
  145.0639  160.0634  135.1059 H   0  0  0  0  0  0  0  0  0  0  0  0
  144.4617  159.2217  133.6187 H   0  0  0  0  0  0  0  0  0  0  0  0
  146.4750  161.3200  133.0760 H   0  0  0  0  0  0  0  0  0  0  0  0
  148.6468  160.4511  132.4255 H   0  0  0  0  0  0  0  0  0  0  0  0
  150.0904  158.4585  132.0332 H   0  0  0  0  0  0  0  0  0  0  0  0
  150.2170  155.6818  132.1996 H   0  0  0  0  0  0  0  0  0  0  0  0
  148.1470  151.4410  133.1770 H   0  0  0  0  0  0  0  0  0  0  0  0
  147.1110  152.5240  134.1130 H   0  0  0  0  0  0  0  0  0  0  0  0
  143.4375  156.1765  134.5352 H   0  0  0  0  0  0  0  0  0  0  0  0
  143.7748  157.0757  133.0171 H   0  0  0  0  0  0  0  0  0  0  0  0
  142.5893  155.7262  133.0171 H   0  0  0  0  0  0  0  0  0  0  0  0
  143.2488  154.4939  131.5980 H   0  0  0  0  0  0  0  0  0  0  0  0
  144.9659  154.3502  131.1703 H   0  0  0  0  0  0  0  0  0  0  0  0
  145.7630  152.2240  133.7630 H   0  0  0  0  0  0  0  0  0  0  0  0
  145.5262  157.8222  133.8162 H   0  0  0  0  0  0  0  0  0  0  0  0
  1  2  1  0
  2  3  1  0
  2  4  1  0
  4  5  1  0
  5  6  1  0
  6  7  1  0
  7  8  2  0
  8  9  1  0
  9 10  2  0
 10 11  1  0
 11 12  2  0
 12 13  1  0
 13 14  1  0
 13 15  2  0
 12 16  1  0
 16 17  1  0
 17 18  2  0
 17 19  1  0
 19 20  1  0
 19 21  1  0
 21 22  1  0
 22 23  2  0
 22 24  1  0
 16 25  1  0
 25 26  2  0
 26  7  1  0
 25 10  1  0
  1 27  1  0
  1 28  1  0
  1 29  1  0
  3 30  1  0
  3 31  1  0
  3 32  1  0
  4 33  1  0
  4 34  1  0
  5 35  1  0
  5 36  1  0
  6 37  1  0
  8 38  1  0
  9 39  1  0
 11 40  1  0
 14 41  1  0
 14 42  1  0
 20 43  1  0
 20 44  1  0
 20 45  1  0
 21 46  1  0
 21 47  1  0
 24 48  1  0
 26 49  1  0
M  END
>  <smiles>  (4) 
CN(C)CCNc1ccc2cc(C(N)=O)n(C(=O)N(C)CC(=O)O)c2c1

>  <score_type>  (4) 
oracle

>  <origin>  (4) 
adg

>  <m_score__min__energy>  (4) 
-6.8099999999999996

>  <m_primary>  (4) 
energy

$$$$
4:0
     RDKit          3D

 35 36  0  0  0  0  0  0  0  0999 V2000
  147.3720  160.8680  133.3580 N   0  0  0  0  0  0  0  0  0  0  0  0
  146.4650  159.7790  133.2700 C   0  0  0  0  0  0  0  0  0  0  0  0
  145.2430  160.0660  133.1920 O   0  0  0  0  0  0  0  0  0  0  0  0
  146.8750  158.3820  133.2670 C   0  0  0  0  0  0  0  0  0  0  0  0
  146.1500  157.4090  133.9480 C   0  0  0  0  0  0  0  0  0  0  0  0
  146.8260  156.2280  133.7210 C   0  0  0  0  0  0  0  0  0  0  0  0
  146.5280  154.9610  134.1720 C   0  0  0  0  0  0  0  0  0  0  0  0
  147.3690  153.9180  133.8090 C   0  0  0  0  0  0  0  0  0  0  0  0
  148.4840  154.0910  133.0190 C   0  0  0  0  0  0  0  0  0  0  0  0
  149.3430  153.0410  132.6130 N   0  0  0  0  0  0  0  0  0  0  0  0
  149.0750  151.6420  132.7060 C   0  0  0  0  0  0  0  0  0  0  0  0
  150.2310  150.7440  132.3520 C   0  0  2  0  0  0  0  0  0  0  0  0
  151.4810  151.2520  132.5960 O   0  0  0  0  0  0  0  0  0  0  0  0
  150.0870  150.3960  130.8620 C   0  0  0  0  0  0  0  0  0  0  0  0
  151.3310  150.4120  130.2470 O   0  0  0  0  0  0  0  0  0  0  0  0
  148.7330  155.3940  132.5950 C   0  0  0  0  0  0  0  0  0  0  0  0
  147.9300  156.4590  132.9300 C   0  0  0  0  0  0  0  0  0  0  0  0
  147.9240  157.7900  132.6730 N   0  0  0  0  0  0  0  0  0  0  0  0
  148.8960  158.4450  131.8880 C   0  0  0  0  0  0  0  0  0  0  0  0
  149.1230  159.6930  132.0350 O   0  0  0  0  0  0  0  0  0  0  0  0
  147.6530  161.1780  134.3300 H   0  0  0  0  0  0  0  0  0  0  0  0
  147.7400  161.3360  132.5050 H   0  0  0  0  0  0  0  0  0  0  0  0
  145.2341  157.5510  134.5404 H   0  0  0  0  0  0  0  0  0  0  0  0
  145.6459  154.7803  134.8038 H   0  0  0  0  0  0  0  0  0  0  0  0
  147.1339  152.9056  134.1692 H   0  0  0  0  0  0  0  0  0  0  0  0
  150.2660  153.3260  132.2030 H   0  0  0  0  0  0  0  0  0  0  0  0
  148.7763  151.4206  133.7413 H   0  0  0  0  0  0  0  0  0  0  0  0
  148.2872  151.4318  131.9676 H   0  0  0  0  0  0  0  0  0  0  0  0
  150.1713  149.8660  133.0120 H   0  0  0  0  0  0  0  0  0  0  0  0
  151.8030  151.8250  131.8740 H   0  0  0  0  0  0  0  0  0  0  0  0
  149.6451  149.3935  130.7634 H   0  0  0  0  0  0  0  0  0  0  0  0
  149.4367  151.1403  130.3793 H   0  0  0  0  0  0  0  0  0  0  0  0
  151.9690  151.0290  130.6740 H   0  0  0  0  0  0  0  0  0  0  0  0
  149.6134  155.5801  131.9624 H   0  0  0  0  0  0  0  0  0  0  0  0
  149.4654  157.8737  131.1401 H   0  0  0  0  0  0  0  0  0  0  0  0
  1  2  1  0
  2  3  2  0
  2  4  1  0
  4  5  2  0
  5  6  1  0
  6  7  2  0
  7  8  1  0
  8  9  2  0
  9 10  1  0
 10 11  1  0
 11 12  1  0
 12 13  1  0
 12 14  1  0
 14 15  1  0
  9 16  1  0
 16 17  2  0
 17 18  1  0
 18 19  1  0
 19 20  2  0
 18  4  1  0
 17  6  1  0
  1 21  1  0
  1 22  1  0
  5 23  1  0
  7 24  1  0
  8 25  1  0
 10 26  1  0
 11 27  1  0
 11 28  1  0
 12 29  1  1
 13 30  1  0
 14 31  1  0
 14 32  1  0
 15 33  1  0
 16 34  1  0
 19 35  1  0
M  END
>  <smiles>  (5) 
NC(=O)c1cc2ccc(NC[C@H](O)CO)cc2n1C=O

>  <score_type>  (5) 
oracle

>  <origin>  (5) 
adg

>  <m_score__min__energy>  (5) 
-6.4299999999999997

>  <m_primary>  (5) 
energy

$$$$
5:0
     RDKit          3D

 43 45  0  0  0  0  0  0  0  0999 V2000
  141.7480  156.8050  135.9610 C   0  0  0  0  0  0  0  0  0  0  0  0
  141.5580  157.7430  134.8210 N   0  0  0  0  0  0  0  0  0  0  0  0
  142.7160  158.4190  134.3840 C   0  0  0  0  0  0  0  0  0  0  0  0
  142.8860  159.7820  134.3840 C   0  0  0  0  0  0  0  0  0  0  0  0
  144.0570  160.4090  133.9830 C   0  0  0  0  0  0  0  0  0  0  0  0
  145.0900  159.6070  133.5650 C   0  0  0  0  0  0  0  0  0  0  0  0
  146.3460  159.9260  133.1180 C   0  0  0  0  0  0  0  0  0  0  0  0
  147.0380  158.7510  132.8090 C   0  0  0  0  0  0  0  0  0  0  0  0
  148.3840  158.7780  132.3150 C   0  0  0  0  0  0  0  0  0  0  0  0
  149.3280  157.7350  132.2680 N   0  0  0  0  0  0  0  0  0  0  0  0
  148.8060  159.8980  131.8490 O   0  0  0  0  0  0  0  0  0  0  0  0
  146.1910  157.7450  133.0740 N   0  0  0  0  0  0  0  0  0  0  0  0
  146.4300  156.3560  132.9200 C   0  0  0  0  0  0  0  0  0  0  0  0
  145.6330  155.5210  133.4500 O   0  0  0  0  0  0  0  0  0  0  0  0
  147.4780  155.7910  132.2310 O   0  0  0  0  0  0  0  0  0  0  0  0
  145.0000  158.2480  133.5340 C   0  0  0  0  0  0  0  0  0  0  0  0
  143.8180  157.6780  133.9430 C   0  0  0  0  0  0  0  0  0  0  0  0
  140.2320  157.8320  134.3220 C   0  0  0  0  0  0  0  0  0  0  0  0
  139.7010  159.0670  133.7160 C   0  0  0  0  0  0  0  0  0  0  0  0
  139.3510  158.3580  132.5250 N   0  0  0  0  0  0  0  0  0  0  0  0
  138.6770  158.6980  131.3180 C   0  0  0  0  0  0  0  0  0  0  0  0
  138.4900  157.8520  130.3840 O   0  0  0  0  0  0  0  0  0  0  0  0
  138.1480  160.0660  131.0750 C   0  0  0  0  0  0  0  0  0  0  0  0
  136.9450  160.0010  130.3450 O   0  0  0  0  0  0  0  0  0  0  0  0
  139.9490  157.1630  133.0240 C   0  0  0  0  0  0  0  0  0  0  0  0
  141.6371  157.3524  136.9086 H   0  0  0  0  0  0  0  0  0  0  0  0
  140.9934  156.0064  135.9084 H   0  0  0  0  0  0  0  0  0  0  0  0
  142.7539  156.3630  135.9084 H   0  0  0  0  0  0  0  0  0  0  0  0
  142.0483  160.4106  134.7202 H   0  0  0  0  0  0  0  0  0  0  0  0
  144.1538  161.5046  133.9993 H   0  0  0  0  0  0  0  0  0  0  0  0
  146.7463  160.9457  133.0181 H   0  0  0  0  0  0  0  0  0  0  0  0
  149.9740  157.6000  133.0990 H   0  0  0  0  0  0  0  0  0  0  0  0
  149.3850  157.1170  131.4160 H   0  0  0  0  0  0  0  0  0  0  0  0
  147.3700  155.1780  131.4480 H   0  0  0  0  0  0  0  0  0  0  0  0
  143.7339  156.5814  133.9225 H   0  0  0  0  0  0  0  0  0  0  0  0
  139.8334  157.4944  135.2901 H   0  0  0  0  0  0  0  0  0  0  0  0
  138.8390  159.4913  134.2516 H   0  0  0  0  0  0  0  0  0  0  0  0
  140.3340  159.9645  133.6546 H   0  0  0  0  0  0  0  0  0  0  0  0
  137.9610  160.5597  132.0400 H   0  0  0  0  0  0  0  0  0  0  0  0
  138.8878  160.6388  130.4965 H   0  0  0  0  0  0  0  0  0  0  0  0
  136.7740  159.0960  130.0110 H   0  0  0  0  0  0  0  0  0  0  0  0
  139.2543  156.3136  133.1008 H   0  0  0  0  0  0  0  0  0  0  0  0
  140.7615  156.6764  132.4645 H   0  0  0  0  0  0  0  0  0  0  0  0
  1  2  1  0
  2  3  1  0
  3  4  2  0
  4  5  1  0
  5  6  2  0
  6  7  1  0
  7  8  2  0
  8  9  1  0
  9 10  1  0
  9 11  2  0
  8 12  1  0
 12 13  1  0
 13 14  2  0
 13 15  1  0
 12 16  1  0
 16 17  2  0
  2 18  1  0
 18 19  1  0
 19 20  1  0
 20 21  1  0
 21 22  2  0
 21 23  1  0
 23 24  1  0
 20 25  1  0
 17  3  1  0
 25 18  1  0
 16  6  1  0
  1 26  1  0
  1 27  1  0
  1 28  1  0
  4 29  1  0
  5 30  1  0
  7 31  1  0
 10 32  1  0
 10 33  1  0
 15 34  1  0
 17 35  1  0
 18 36  1  0
 19 37  1  0
 19 38  1  0
 23 39  1  0
 23 40  1  0
 24 41  1  0
 25 42  1  0
 25 43  1  0
M  END
>  <smiles>  (6) 
CN(c1ccc2cc(C(N)=O)n(C(=O)O)c2c1)C1CN(C(=O)CO)C1

>  <score_type>  (6) 
oracle

>  <origin>  (6) 
adg

>  <m_score__min__energy>  (6) 
-8.1300000000000008

>  <m_primary>  (6) 
energy

$$$$
6:0
     RDKit          3D

 38 39  0  0  0  0  0  0  0  0999 V2000
  140.7070  158.5020  136.7000 C   0  0  0  0  0  0  0  0  0  0  0  0
  140.6740  159.0160  135.3830 O   0  0  0  0  0  0  0  0  0  0  0  0
  140.8640  158.2540  134.2650 C   0  0  0  0  0  0  0  0  0  0  0  0
  140.5790  158.7720  133.1320 O   0  0  0  0  0  0  0  0  0  0  0  0
  141.3810  156.8580  134.2650 C   0  0  1  0  0  0  0  0  0  0  0  0
  140.8840  156.1840  133.1780 O   0  0  0  0  0  0  0  0  0  0  0  0
  142.8840  156.8310  134.3550 C   0  0  0  0  0  0  0  0  0  0  0  0
  143.5790  157.5250  133.2770 C   0  0  0  0  0  0  0  0  0  0  0  0
  143.0030  157.4550  132.1330 O   0  0  0  0  0  0  0  0  0  0  0  0
  144.7850  158.2560  133.3110 N   0  0  0  0  0  0  0  0  0  0  0  0
  144.8710  159.6010  133.4930 C   0  0  0  0  0  0  0  0  0  0  0  0
  143.8780  160.6310  133.6640 C   0  0  0  0  0  0  0  0  0  0  0  0
  142.4820  160.3410  133.3460 N   0  0  0  0  0  0  0  0  0  0  0  0
  144.0420  161.8020  134.0670 O   0  0  0  0  0  0  0  0  0  0  0  0
  146.2380  159.9180  133.4810 C   0  0  0  0  0  0  0  0  0  0  0  0
  146.9710  158.7910  133.2950 C   0  0  0  0  0  0  0  0  0  0  0  0
  148.3300  158.5950  133.2170 C   0  0  0  0  0  0  0  0  0  0  0  0
  148.8530  157.3370  133.0270 C   0  0  0  0  0  0  0  0  0  0  0  0
  147.9660  156.2940  132.9220 C   0  0  0  0  0  0  0  0  0  0  0  0
  148.5190  154.9310  132.7160 C   0  0  0  0  0  0  0  0  0  0  0  0
  146.5970  156.5090  133.0030 C   0  0  0  0  0  0  0  0  0  0  0  0
  146.0460  157.7570  133.1910 C   0  0  0  0  0  0  0  0  0  0  0  0
  140.6537  159.3326  137.4192 H   0  0  0  0  0  0  0  0  0  0  0  0
  139.8502  157.8292  136.8526 H   0  0  0  0  0  0  0  0  0  0  0  0
  141.6428  157.9443  136.8526 H   0  0  0  0  0  0  0  0  0  0  0  0
  141.0269  156.3320  135.1638 H   0  0  0  0  0  0  0  0  0  0  0  0
  141.0010  156.6850  132.3190 H   0  0  0  0  0  0  0  0  0  0  0  0
  143.1772  157.2985  135.3065 H   0  0  0  0  0  0  0  0  0  0  0  0
  143.1774  155.7736  134.2790 H   0  0  0  0  0  0  0  0  0  0  0  0
  142.1940  160.0850  132.3920 H   0  0  0  0  0  0  0  0  0  0  0  0
  141.7600  160.3920  134.0940 H   0  0  0  0  0  0  0  0  0  0  0  0
  146.6535  160.9291  133.6040 H   0  0  0  0  0  0  0  0  0  0  0  0
  149.0082  159.4563  133.3078 H   0  0  0  0  0  0  0  0  0  0  0  0
  149.9387  157.1730  132.9617 H   0  0  0  0  0  0  0  0  0  0  0  0
  148.7096  154.4612  133.6922 H   0  0  0  0  0  0  0  0  0  0  0  0
  147.7962  154.3235  132.1516 H   0  0  0  0  0  0  0  0  0  0  0  0
  149.4607  154.9988  132.1516 H   0  0  0  0  0  0  0  0  0  0  0  0
  145.9227  155.6446  132.9131 H   0  0  0  0  0  0  0  0  0  0  0  0
  1  2  1  0
  2  3  1  0
  3  4  2  0
  3  5  1  0
  5  6  1  0
  5  7  1  0
  7  8  1  0
  8  9  2  0
  8 10  1  0
 10 11  1  0
 11 12  1  0
 12 13  1  0
 12 14  2  0
 11 15  2  0
 15 16  1  0
 16 17  2  0
 17 18  1  0
 18 19  2  0
 19 20  1  0
 19 21  1  0
 21 22  2  0
 22 10  1  0
 22 16  1  0
  1 23  1  0
  1 24  1  0
  1 25  1  0
  5 26  1  1
  6 27  1  0
  7 28  1  0
  7 29  1  0
 13 30  1  0
 13 31  1  0
 15 32  1  0
 17 33  1  0
 18 34  1  0
 20 35  1  0
 20 36  1  0
 20 37  1  0
 21 38  1  0
M  END
>  <smiles>  (7) 
COC(=O)[C@@H](O)CC(=O)n1c(C(N)=O)cc2ccc(C)cc21

>  <score_type>  (7) 
oracle

>  <origin>  (7) 
adg

>  <m_score__min__energy>  (7) 
-6.5899999999999999

>  <m_primary>  (7) 
energy

$$$$
7:0
     RDKit          3D

 41 42  0  0  0  0  0  0  0  0999 V2000
  146.0360  160.8700  133.7290 C   0  0  0  0  0  0  0  0  0  0  0  0
  146.9150  159.8350  133.2670 N   0  0  0  0  0  0  0  0  0  0  0  0
  147.8460  160.2920  132.1910 C   0  0  0  0  0  0  0  0  0  0  0  0
  148.8070  159.2590  131.8200 C   0  0  0  0  0  0  0  0  0  0  0  0
  148.7250  158.6290  130.7130 O   0  0  0  0  0  0  0  0  0  0  0  0
  149.8670  158.8950  132.6420 O   0  0  0  0  0  0  0  0  0  0  0  0
  147.0510  158.5060  133.6520 C   0  0  0  0  0  0  0  0  0  0  0  0
  148.0250  158.3250  134.5160 O   0  0  0  0  0  0  0  0  0  0  0  0
  146.3870  157.3200  133.3100 N   0  0  0  0  0  0  0  0  0  0  0  0
  146.7810  156.0730  133.0640 C   0  0  0  0  0  0  0  0  0  0  0  0
  148.1120  155.5650  132.6850 C   0  0  0  0  0  0  0  0  0  0  0  0
  149.2080  156.4860  132.5210 N   0  0  0  0  0  0  0  0  0  0  0  0
  148.3790  154.3650  132.4860 O   0  0  0  0  0  0  0  0  0  0  0  0
  145.7010  155.1910  133.0020 C   0  0  0  0  0  0  0  0  0  0  0  0
  144.6020  155.9330  133.2120 C   0  0  0  0  0  0  0  0  0  0  0  0
  143.2650  155.5460  133.2510 C   0  0  0  0  0  0  0  0  0  0  0  0
  142.2840  156.4650  133.4830 C   0  0  0  0  0  0  0  0  0  0  0  0
  142.6610  157.7740  133.6740 C   0  0  0  0  0  0  0  0  0  0  0  0
  141.6550  158.7700  133.9200 N   0  0  0  0  0  0  0  0  0  0  0  0
  140.4910  158.8310  133.0950 C   0  0  0  0  0  0  0  0  0  0  0  0
  141.8320  159.7090  135.0090 C   0  0  0  0  0  0  0  0  0  0  0  0
  144.0070  158.1530  133.6330 C   0  0  0  0  0  0  0  0  0  0  0  0
  145.0130  157.2280  133.3970 C   0  0  0  0  0  0  0  0  0  0  0  0
  146.0275  160.8800  134.8289 H   0  0  0  0  0  0  0  0  0  0  0  0
  146.3877  161.8433  133.3562 H   0  0  0  0  0  0  0  0  0  0  0  0
  145.0186  160.6805  133.3562 H   0  0  0  0  0  0  0  0  0  0  0  0
  147.2559  160.5625  131.3030 H   0  0  0  0  0  0  0  0  0  0  0  0
  148.4090  161.1555  132.5751 H   0  0  0  0  0  0  0  0  0  0  0  0
  149.7470  158.4530  133.5450 H   0  0  0  0  0  0  0  0  0  0  0  0
  149.5450  156.7540  131.5520 H   0  0  0  0  0  0  0  0  0  0  0  0
  149.6240  156.8480  133.3960 H   0  0  0  0  0  0  0  0  0  0  0  0
  145.7420  154.1072  132.8183 H   0  0  0  0  0  0  0  0  0  0  0  0
  142.9977  154.4907  133.0935 H   0  0  0  0  0  0  0  0  0  0  0  0
  141.2252  156.1687  133.5163 H   0  0  0  0  0  0  0  0  0  0  0  0
  139.5938  158.8780  133.7297 H   0  0  0  0  0  0  0  0  0  0  0  0
  140.5383  159.7279  132.4599 H   0  0  0  0  0  0  0  0  0  0  0  0
  140.4443  157.9341  132.4599 H   0  0  0  0  0  0  0  0  0  0  0  0
  141.7324  159.1806  135.9686 H   0  0  0  0  0  0  0  0  0  0  0  0
  142.8316  160.1633  134.9426 H   0  0  0  0  0  0  0  0  0  0  0  0
  141.0664  160.4960  134.9426 H   0  0  0  0  0  0  0  0  0  0  0  0
  144.2734  159.2084  133.7915 H   0  0  0  0  0  0  0  0  0  0  0  0
  1  2  1  0
  2  3  1  0
  3  4  1  0
  4  5  2  0
  4  6  1  0
  2  7  1  0
  7  8  2  0
  7  9  1  0
  9 10  1  0
 10 11  1  0
 11 12  1  0
 11 13  2  0
 10 14  2  0
 14 15  1  0
 15 16  2  0
 16 17  1  0
 17 18  2  0
 18 19  1  0
 19 20  1  0
 19 21  1  0
 18 22  1  0
 22 23  2  0
 23  9  1  0
 23 15  1  0
  1 24  1  0
  1 25  1  0
  1 26  1  0
  3 27  1  0
  3 28  1  0
  6 29  1  0
 12 30  1  0
 12 31  1  0
 14 32  1  0
 16 33  1  0
 17 34  1  0
 20 35  1  0
 20 36  1  0
 20 37  1  0
 21 38  1  0
 21 39  1  0
 21 40  1  0
 22 41  1  0
M  END
>  <smiles>  (8) 
CN(CC(=O)O)C(=O)n1c(C(N)=O)cc2ccc(N(C)C)cc21

>  <score_type>  (8) 
oracle

>  <origin>  (8) 
adg

>  <m_score__min__energy>  (8) 
-6.5800000000000001

>  <m_primary>  (8) 
energy

$$$$
8:0
     RDKit          3D

 45 46  0  0  0  0  0  0  0  0999 V2000
  140.6690  153.8080  133.0200 C   0  0  0  0  0  0  0  0  0  0  0  0
  141.3910  152.5630  132.8590 N   0  0  0  0  0  0  0  0  0  0  0  0
  140.6850  151.2990  132.7500 C   0  0  0  0  0  0  0  0  0  0  0  0
  142.8250  152.6200  132.7920 C   0  0  0  0  0  0  0  0  0  0  0  0
  143.3270  153.7780  132.8680 O   0  0  0  0  0  0  0  0  0  0  0  0
  143.6440  151.4200  132.6420 C   0  0  0  0  0  0  0  0  0  0  0  0
  143.1200  150.3180  132.2480 O   0  0  0  0  0  0  0  0  0  0  0  0
  144.9930  151.5210  132.9400 O   0  0  0  0  0  0  0  0  0  0  0  0
  145.8660  151.8880  131.8610 C   0  0  0  0  0  0  0  0  0  0  0  0
  146.9880  152.4590  132.3230 O   0  0  0  0  0  0  0  0  0  0  0  0
  148.2560  152.4700  132.5590 C   0  0  0  0  0  0  0  0  0  0  0  0
  149.0170  151.5630  132.1260 O   0  0  0  0  0  0  0  0  0  0  0  0
  148.8130  153.5200  133.3200 O   0  0  0  0  0  0  0  0  0  0  0  0
  148.8680  154.8390  132.9600 C   0  0  0  0  0  0  0  0  0  0  0  0
  149.8760  155.1590  132.2380 O   0  0  0  0  0  0  0  0  0  0  0  0
  147.9230  155.8340  133.3250 N   0  0  0  0  0  0  0  0  0  0  0  0
  146.8740  155.6770  134.1420 C   0  0  0  0  0  0  0  0  0  0  0  0
  146.3660  154.5520  134.8880 C   0  0  0  0  0  0  0  0  0  0  0  0
  145.8050  153.3570  134.3900 N   0  0  0  0  0  0  0  0  0  0  0  0
  146.4100  154.6030  136.1770 O   0  0  0  0  0  0  0  0  0  0  0  0
  146.2510  156.9240  134.1830 C   0  0  0  0  0  0  0  0  0  0  0  0
  146.9250  157.8140  133.3950 C   0  0  0  0  0  0  0  0  0  0  0  0
  146.6910  159.1450  133.1280 C   0  0  0  0  0  0  0  0  0  0  0  0
  147.5400  159.8500  132.2760 C   0  0  0  0  0  0  0  0  0  0  0  0
  148.5930  159.1390  131.7410 C   0  0  0  0  0  0  0  0  0  0  0  0
  149.5010  159.9100  130.8350 C   0  0  0  0  0  0  0  0  0  0  0  0
  149.0940  159.6600  129.5580 F   0  0  0  0  0  0  0  0  0  0  0  0
  149.4850  161.2400  131.1780 F   0  0  0  0  0  0  0  0  0  0  0  0
  150.7770  159.4020  130.9970 F   0  0  0  0  0  0  0  0  0  0  0  0
  148.8190  157.8060  132.0170 C   0  0  0  0  0  0  0  0  0  0  0  0
  147.9860  157.0980  132.8570 C   0  0  0  0  0  0  0  0  0  0  0  0
  140.5440  154.0235  134.0914 H   0  0  0  0  0  0  0  0  0  0  0  0
  141.2342  154.6237  132.5454 H   0  0  0  0  0  0  0  0  0  0  0  0
  139.6803  153.7225  132.5454 H   0  0  0  0  0  0  0  0  0  0  0  0
  140.4687  150.9118  133.7566 H   0  0  0  0  0  0  0  0  0  0  0  0
  139.7416  151.4517  132.2054 H   0  0  0  0  0  0  0  0  0  0  0  0
  141.3098  150.5758  132.2054 H   0  0  0  0  0  0  0  0  0  0  0  0
  146.1305  150.9860  131.2897 H   0  0  0  0  0  0  0  0  0  0  0  0
  145.3435  152.6120  131.2185 H   0  0  0  0  0  0  0  0  0  0  0  0
  144.7570  153.3060  134.2380 H   0  0  0  0  0  0  0  0  0  0  0  0
  146.4410  152.5460  134.1930 H   0  0  0  0  0  0  0  0  0  0  0  0
  145.3476  157.1574  134.7655 H   0  0  0  0  0  0  0  0  0  0  0  0
  145.8312  159.6534  133.5887 H   0  0  0  0  0  0  0  0  0  0  0  0
  147.3788  160.9131  132.0439 H   0  0  0  0  0  0  0  0  0  0  0  0
  149.6803  157.2985  131.5580 H   0  0  0  0  0  0  0  0  0  0  0  0
  1  2  1  0
  2  3  1  0
  2  4  1  0
  4  5  2  0
  4  6  1  0
  6  7  2  0
  6  8  1  0
  8  9  1  0
  9 10  1  0
 10 11  1  0
 11 12  2  0
 11 13  1  0
 13 14  1  0
 14 15  2  0
 14 16  1  0
 16 17  1  0
 17 18  1  0
 18 19  1  0
 18 20  2  0
 17 21  2  0
 21 22  1  0
 22 23  2  0
 23 24  1  0
 24 25  2  0
 25 26  1  0
 26 27  1  0
 26 28  1  0
 26 29  1  0
 25 30  1  0
 30 31  2  0
 31 16  1  0
 31 22  1  0
  1 32  1  0
  1 33  1  0
  1 34  1  0
  3 35  1  0
  3 36  1  0
  3 37  1  0
  9 38  1  0
  9 39  1  0
 19 40  1  0
 19 41  1  0
 21 42  1  0
 23 43  1  0
 24 44  1  0
 30 45  1  0
M  END
>  <smiles>  (9) 
CN(C)C(=O)C(=O)OCOC(=O)OC(=O)n1c(C(N)=O)cc2ccc(C(F)(F)F)cc21

>  <score_type>  (9) 
oracle

>  <origin>  (9) 
adg

>  <m_score__min__energy>  (9) 
-6.0700000000000003

>  <m_primary>  (9) 
energy

$$$$
9:0
     RDKit          3D

 40 42  0  0  0  0  0  0  0  0999 V2000
  136.7300  159.8180  130.7210 C   0  0  0  0  0  0  0  0  0  0  0  0
  138.1740  159.8710  130.9260 N   0  0  0  0  0  0  0  0  0  0  0  0
  138.9640  160.8620  130.2220 C   0  0  0  0  0  0  0  0  0  0  0  0
  138.8010  158.9510  131.8120 C   0  0  0  0  0  0  0  0  0  0  0  0
  138.7860  157.6010  131.7920 N   0  0  0  0  0  0  0  0  0  0  0  0
  139.5130  157.1030  132.8210 C   0  0  0  0  0  0  0  0  0  0  0  0
  139.9860  158.1850  133.4870 N   0  0  0  0  0  0  0  0  0  0  0  0
  140.8240  158.2200  134.6710 C   0  0  0  0  0  0  0  0  0  0  0  0
  142.2270  157.9390  134.2980 C   0  0  0  0  0  0  0  0  0  0  0  0
  142.5840  156.6290  134.0920 C   0  0  0  0  0  0  0  0  0  0  0  0
  143.8830  156.3230  133.7440 C   0  0  0  0  0  0  0  0  0  0  0  0
  144.8020  157.3420  133.6070 C   0  0  0  0  0  0  0  0  0  0  0  0
  146.1350  157.3320  133.2770 C   0  0  0  0  0  0  0  0  0  0  0  0
  146.6220  158.6480  133.2750 C   0  0  0  0  0  0  0  0  0  0  0  0
  148.0070  158.9420  132.9590 C   0  0  0  0  0  0  0  0  0  0  0  0
  148.8750  159.4700  133.9700 N   0  0  0  0  0  0  0  0  0  0  0  0
  148.5450  158.7710  131.8380 O   0  0  0  0  0  0  0  0  0  0  0  0
  145.6000  159.4390  133.5990 N   0  0  0  0  0  0  0  0  0  0  0  0
  145.6200  160.8460  133.7210 C   0  0  0  0  0  0  0  0  0  0  0  0
  144.6180  161.5850  133.8020 O   0  0  0  0  0  0  0  0  0  0  0  0
  146.8550  161.5300  133.7630 O   0  0  0  0  0  0  0  0  0  0  0  0
  144.4880  158.6750  133.8050 C   0  0  0  0  0  0  0  0  0  0  0  0
  143.1800  158.9430  134.1530 C   0  0  0  0  0  0  0  0  0  0  0  0
  139.5540  159.2750  132.8760 N   0  0  0  0  0  0  0  0  0  0  0  0
  136.2216  159.7993  131.6963 H   0  0  0  0  0  0  0  0  0  0  0  0
  136.4070  160.7049  130.1561 H   0  0  0  0  0  0  0  0  0  0  0  0
  136.4729  158.9098  130.1561 H   0  0  0  0  0  0  0  0  0  0  0  0
  139.4777  161.5064  130.9506 H   0  0  0  0  0  0  0  0  0  0  0  0
  139.7091  160.3559  129.5906 H   0  0  0  0  0  0  0  0  0  0  0  0
  138.3046  161.4756  129.5906 H   0  0  0  0  0  0  0  0  0  0  0  0
  139.6836  156.0440  133.0647 H   0  0  0  0  0  0  0  0  0  0  0  0
  140.7613  159.2159  135.1339 H   0  0  0  0  0  0  0  0  0  0  0  0
  140.4776  157.4581  135.3847 H   0  0  0  0  0  0  0  0  0  0  0  0
  141.8381  155.8283  134.2039 H   0  0  0  0  0  0  0  0  0  0  0  0
  144.1826  155.2778  133.5776 H   0  0  0  0  0  0  0  0  0  0  0  0
  146.7278  156.4336  133.0499 H   0  0  0  0  0  0  0  0  0  0  0  0
  148.7170  160.4910  134.2030 H   0  0  0  0  0  0  0  0  0  0  0  0
  149.6040  158.9040  134.4440 H   0  0  0  0  0  0  0  0  0  0  0  0
  147.2000  161.9880  132.9100 H   0  0  0  0  0  0  0  0  0  0  0  0
  142.8796  159.9876  134.3219 H   0  0  0  0  0  0  0  0  0  0  0  0
  1  2  1  0
  2  3  1  0
  2  4  1  0
  4  5  1  0
  5  6  2  0
  6  7  1  0
  7  8  1  0
  8  9  1  0
  9 10  2  0
 10 11  1  0
 11 12  2  0
 12 13  1  0
 13 14  2  0
 14 15  1  0
 15 16  1  0
 15 17  2  0
 14 18  1  0
 18 19  1  0
 19 20  2  0
 19 21  1  0
 18 22  1  0
 22 23  2  0
  7 24  1  0
 24  4  2  0
 23  9  1  0
 22 12  1  0
  1 25  1  0
  1 26  1  0
  1 27  1  0
  3 28  1  0
  3 29  1  0
  3 30  1  0
  6 31  1  0
  8 32  1  0
  8 33  1  0
 10 34  1  0
 11 35  1  0
 13 36  1  0
 16 37  1  0
 16 38  1  0
 21 39  1  0
 23 40  1  0
M  END
>  <smiles>  (10) 
CN(C)c1ncn(Cc2ccc3cc(C(N)=O)n(C(=O)O)c3c2)n1

>  <score_type>  (10) 
oracle

>  <origin>  (10) 
adg

>  <m_score__min__energy>  (10) 
-7.71

>  <m_primary>  (10) 
energy

$$$$
10:0
     RDKit          3D

 38 39  0  0  0  0  0  0  0  0999 V2000
  138.3560  149.2210  129.5810 C   0  0  0  0  0  0  0  0  0  0  0  0
  139.2950  148.7590  130.5780 N   0  0  0  0  0  0  0  0  0  0  0  0
  139.8670  147.4370  130.4080 C   0  0  0  0  0  0  0  0  0  0  0  0
  139.6560  149.5630  131.6900 C   0  0  0  0  0  0  0  0  0  0  0  0
  139.1240  150.6950  131.7750 O   0  0  0  0  0  0  0  0  0  0  0  0
  140.6260  149.0420  132.6860 C   0  0  0  0  0  0  0  0  0  0  0  0
  141.9840  149.2710  132.3170 N   0  0  0  0  0  0  0  0  0  0  0  0
  142.6040  150.5350  132.5170 C   0  0  0  0  0  0  0  0  0  0  0  0
  143.9790  150.6310  132.5770 C   0  0  0  0  0  0  0  0  0  0  0  0
  144.5670  151.8580  132.7710 C   0  0  0  0  0  0  0  0  0  0  0  0
  143.7710  152.9760  132.9020 C   0  0  0  0  0  0  0  0  0  0  0  0
  144.0810  154.3000  133.1000 C   0  0  0  0  0  0  0  0  0  0  0  0
  142.8950  155.0460  133.1640 C   0  0  0  0  0  0  0  0  0  0  0  0
  142.9080  156.4820  133.3670 C   0  0  0  0  0  0  0  0  0  0  0  0
  142.1980  157.3380  132.4390 N   0  0  0  0  0  0  0  0  0  0  0  0
  143.4860  157.0870  134.2920 O   0  0  0  0  0  0  0  0  0  0  0  0
  141.8830  154.1870  133.0080 N   0  0  0  0  0  0  0  0  0  0  0  0
  140.5130  154.4860  133.0020 C   0  0  0  0  0  0  0  0  0  0  0  0
  140.0120  155.6370  133.0520 O   0  0  0  0  0  0  0  0  0  0  0  0
  139.5610  153.4480  132.9380 O   0  0  0  0  0  0  0  0  0  0  0  0
  142.3900  152.9320  132.8480 C   0  0  0  0  0  0  0  0  0  0  0  0
  141.8320  151.6820  132.6520 C   0  0  0  0  0  0  0  0  0  0  0  0
  137.4759  149.6540  130.0789 H   0  0  0  0  0  0  0  0  0  0  0  0
  138.8352  149.9862  128.9526 H   0  0  0  0  0  0  0  0  0  0  0  0
  138.0422  148.3744  128.9526 H   0  0  0  0  0  0  0  0  0  0  0  0
  140.0599  146.9912  131.3950 H   0  0  0  0  0  0  0  0  0  0  0  0
  139.1632  146.8019  129.8501 H   0  0  0  0  0  0  0  0  0  0  0  0
  140.8118  147.5152  129.8501 H   0  0  0  0  0  0  0  0  0  0  0  0
  140.4372  149.5363  133.6504 H   0  0  0  0  0  0  0  0  0  0  0  0
  140.4816  147.9532  132.7460 H   0  0  0  0  0  0  0  0  0  0  0  0
  142.5290  148.4890  131.8920 H   0  0  0  0  0  0  0  0  0  0  0  0
  144.6014  149.7303  132.4701 H   0  0  0  0  0  0  0  0  0  0  0  0
  145.6622  151.9472  132.8213 H   0  0  0  0  0  0  0  0  0  0  0  0
  145.0976  154.7096  133.1935 H   0  0  0  0  0  0  0  0  0  0  0  0
  142.5270  158.3060  132.2290 H   0  0  0  0  0  0  0  0  0  0  0  0
  141.3380  156.9760  131.9680 H   0  0  0  0  0  0  0  0  0  0  0  0
  139.5970  152.7510  132.1940 H   0  0  0  0  0  0  0  0  0  0  0  0
  140.7368  151.5927  132.6011 H   0  0  0  0  0  0  0  0  0  0  0  0
  1  2  1  0
  2  3  1  0
  2  4  1  0
  4  5  2  0
  4  6  1  0
  6  7  1  0
  7  8  1  0
  8  9  2  0
  9 10  1  0
 10 11  2  0
 11 12  1  0
 12 13  2  0
 13 14  1  0
 14 15  1  0
 14 16  2  0
 13 17  1  0
 17 18  1  0
 18 19  2  0
 18 20  1  0
 17 21  1  0
 21 22  2  0
 22  8  1  0
 21 11  1  0
  1 23  1  0
  1 24  1  0
  1 25  1  0
  3 26  1  0
  3 27  1  0
  3 28  1  0
  6 29  1  0
  6 30  1  0
  7 31  1  0
  9 32  1  0
 10 33  1  0
 12 34  1  0
 15 35  1  0
 15 36  1  0
 20 37  1  0
 22 38  1  0
M  END
>  <smiles>  (11) 
CN(C)C(=O)CNc1ccc2cc(C(N)=O)n(C(=O)O)c2c1

>  <score_type>  (11) 
oracle

>  <origin>  (11) 
adg

>  <m_score__min__energy>  (11) 
-7.1600000000000001

>  <m_primary>  (11) 
energy

$$$$
11:0
     RDKit          3D

 43 45  0  0  0  0  0  0  0  0999 V2000
  146.0230  154.2500  136.0510 C   0  0  0  0  0  0  0  0  0  0  0  0
  145.7960  154.5660  134.6530 N   0  0  0  0  0  0  0  0  0  0  0  0
  144.5980  154.0750  133.9580 C   0  0  0  0  0  0  0  0  0  0  0  0
  146.7530  155.3610  133.9580 C   0  0  0  0  0  0  0  0  0  0  0  0
  147.9240  154.7470  133.5770 C   0  0  0  0  0  0  0  0  0  0  0  0
  148.8460  155.5150  132.9060 C   0  0  0  0  0  0  0  0  0  0  0  0
  148.5740  156.8510  132.6410 C   0  0  0  0  0  0  0  0  0  0  0  0
  149.3430  157.7660  132.0030 C   0  0  0  0  0  0  0  0  0  0  0  0
  148.6020  158.9540  132.0070 C   0  0  0  0  0  0  0  0  0  0  0  0
  149.1400  160.1120  131.2940 C   0  0  0  0  0  0  0  0  0  0  0  0
  148.2720  161.2070  130.9260 N   0  0  0  0  0  0  0  0  0  0  0  0
  150.3350  160.2530  130.9550 O   0  0  0  0  0  0  0  0  0  0  0  0
  147.4320  158.8080  132.6180 N   0  0  0  0  0  0  0  0  0  0  0  0
  146.4420  159.6800  133.0800 C   0  0  0  0  0  0  0  0  0  0  0  0
  146.9250  160.8680  133.4110 O   0  0  0  0  0  0  0  0  0  0  0  0
  145.0740  159.6030  133.2640 N   0  0  0  0  0  0  0  0  0  0  0  0
  144.0930  158.5930  132.9860 C   0  0  0  0  0  0  0  0  0  0  0  0
  143.4230  158.3240  134.3390 C   0  0  0  0  0  0  0  0  0  0  0  0
  142.5690  159.3830  134.5600 O   0  0  0  0  0  0  0  0  0  0  0  0
  142.9980  160.5890  134.1170 C   0  0  0  0  0  0  0  0  0  0  0  0
  144.4430  160.8050  133.9000 C   0  0  0  0  0  0  0  0  0  0  0  0
  147.4200  157.4790  133.0100 C   0  0  0  0  0  0  0  0  0  0  0  0
  146.4950  156.6950  133.6860 C   0  0  0  0  0  0  0  0  0  0  0  0
  145.4974  154.9816  136.6823 H   0  0  0  0  0  0  0  0  0  0  0  0
  145.6423  153.2404  136.2652 H   0  0  0  0  0  0  0  0  0  0  0  0
  147.1013  154.2884  136.2652 H   0  0  0  0  0  0  0  0  0  0  0  0
  143.8452  153.7665  134.6983 H   0  0  0  0  0  0  0  0  0  0  0  0
  144.1854  154.8765  133.3277 H   0  0  0  0  0  0  0  0  0  0  0  0
  144.8666  153.2144  133.3277 H   0  0  0  0  0  0  0  0  0  0  0  0
  148.1143  153.6867  133.7998 H   0  0  0  0  0  0  0  0  0  0  0  0
  149.7983  155.0718  132.5793 H   0  0  0  0  0  0  0  0  0  0  0  0
  150.3424  157.6083  131.5713 H   0  0  0  0  0  0  0  0  0  0  0  0
  147.6140  161.6070  131.6340 H   0  0  0  0  0  0  0  0  0  0  0  0
  148.3360  161.5690  129.9380 H   0  0  0  0  0  0  0  0  0  0  0  0
  143.3574  158.9569  132.2536 H   0  0  0  0  0  0  0  0  0  0  0  0
  144.5388  157.6855  132.5528 H   0  0  0  0  0  0  0  0  0  0  0  0
  142.8596  157.3799  134.3050 H   0  0  0  0  0  0  0  0  0  0  0  0
  144.1666  158.2326  135.1445 H   0  0  0  0  0  0  0  0  0  0  0  0
  142.4974  160.7747  133.1553 H   0  0  0  0  0  0  0  0  0  0  0  0
  142.7525  161.2732  134.9426 H   0  0  0  0  0  0  0  0  0  0  0  0
  144.5822  161.6754  133.2420 H   0  0  0  0  0  0  0  0  0  0  0  0
  144.9225  160.9794  134.8745 H   0  0  0  0  0  0  0  0  0  0  0  0
  145.5427  157.1396  134.0107 H   0  0  0  0  0  0  0  0  0  0  0  0
  1  2  1  0
  2  3  1  0
  2  4  1  0
  4  5  2  0
  5  6  1  0
  6  7  2  0
  7  8  1  0
  8  9  2  0
  9 10  1  0
 10 11  1  0
 10 12  2  0
  9 13  1  0
 13 14  1  0
 14 15  2  0
 14 16  1  0
 16 17  1  0
 17 18  1  0
 18 19  1  0
 19 20  1  0
 20 21  1  0
 13 22  1  0
 22 23  2  0
 23  4  1  0
 22  7  1  0
 21 16  1  0
  1 24  1  0
  1 25  1  0
  1 26  1  0
  3 27  1  0
  3 28  1  0
  3 29  1  0
  5 30  1  0
  6 31  1  0
  8 32  1  0
 11 33  1  0
 11 34  1  0
 17 35  1  0
 17 36  1  0
 18 37  1  0
 18 38  1  0
 20 39  1  0
 20 40  1  0
 21 41  1  0
 21 42  1  0
 23 43  1  0
M  END
>  <smiles>  (12) 
CN(C)c1ccc2cc(C(N)=O)n(C(=O)N3CCOCC3)c2c1

>  <score_type>  (12) 
oracle

>  <origin>  (12) 
adg

>  <m_score__min__energy>  (12) 
-7.5599999999999996

>  <m_primary>  (12) 
energy

$$$$
12:0
     RDKit          3D

 50 51  0  0  0  0  0  0  0  0999 V2000
  140.6830  151.2760  132.6030 C   0  0  0  0  0  0  0  0  0  0  0  0
  141.8500  151.9630  132.8130 C   0  0  0  0  0  0  0  0  0  0  0  0
  143.0270  151.1040  132.9830 C   0  0  0  0  0  0  0  0  0  0  0  0
  141.7140  153.3760  132.8370 C   0  0  0  0  0  0  0  0  0  0  0  0
  140.4850  153.7880  132.6650 O   0  0  0  0  0  0  0  0  0  0  0  0
  142.6790  154.3990  133.0180 N   0  0  0  0  0  0  0  0  0  0  0  0
  143.9000  154.2960  132.2560 C   0  0  0  0  0  0  0  0  0  0  0  0
  142.3740  155.4230  133.9450 C   0  0  0  0  0  0  0  0  0  0  0  0
  142.3310  155.0150  135.1710 O   0  0  0  0  0  0  0  0  0  0  0  0
  142.1020  156.7840  133.7640 N   0  0  0  0  0  0  0  0  0  0  0  0
  141.0210  157.5460  133.8880 C   0  0  0  0  0  0  0  0  0  0  0  0
  139.5910  157.1610  133.8480 C   0  0  0  0  0  0  0  0  0  0  0  0
  139.1310  156.0160  133.1500 N   0  0  0  0  0  0  0  0  0  0  0  0
  138.7260  157.8570  134.4360 O   0  0  0  0  0  0  0  0  0  0  0  0
  141.3290  158.9090  133.8520 C   0  0  0  0  0  0  0  0  0  0  0  0
  142.6770  158.9690  133.6880 C   0  0  0  0  0  0  0  0  0  0  0  0
  143.4920  160.0860  133.5870 C   0  0  0  0  0  0  0  0  0  0  0  0
  144.8500  159.9190  133.4240 C   0  0  0  0  0  0  0  0  0  0  0  0
  145.3570  158.6400  133.3650 C   0  0  0  0  0  0  0  0  0  0  0  0
  146.8390  158.4270  133.1870 C   0  0  0  0  0  0  0  0  0  0  0  0
  147.5710  159.7450  133.1760 C   0  0  0  0  0  0  0  0  0  0  0  0
  148.7500  159.6710  132.3450 N   0  0  0  0  0  0  0  0  0  0  0  0
  149.2150  158.3500  132.0700 C   0  0  0  0  0  0  0  0  0  0  0  0
  148.5050  160.3790  131.1010 C   0  0  0  0  0  0  0  0  0  0  0  0
  144.5090  157.5330  133.4680 C   0  0  0  0  0  0  0  0  0  0  0  0
  143.1400  157.6850  133.6340 C   0  0  0  0  0  0  0  0  0  0  0  0
  139.7397  151.8242  132.4630 H   0  0  0  0  0  0  0  0  0  0  0  0
  140.6896  150.1764  132.5745 H   0  0  0  0  0  0  0  0  0  0  0  0
  143.2241  150.9602  134.0556 H   0  0  0  0  0  0  0  0  0  0  0  0
  142.8402  150.1284  132.5104 H   0  0  0  0  0  0  0  0  0  0  0  0
  143.8992  151.5794  132.5104 H   0  0  0  0  0  0  0  0  0  0  0  0
  144.7560  154.2238  132.9430 H   0  0  0  0  0  0  0  0  0  0  0  0
  143.8619  153.3979  131.6220 H   0  0  0  0  0  0  0  0  0  0  0  0
  144.0129  155.1878  131.6220 H   0  0  0  0  0  0  0  0  0  0  0  0
  139.8100  155.2960  132.7970 H   0  0  0  0  0  0  0  0  0  0  0  0
  138.1240  155.8480  132.9610 H   0  0  0  0  0  0  0  0  0  0  0  0
  140.6293  159.7534  133.9381 H   0  0  0  0  0  0  0  0  0  0  0  0
  143.0587  161.0958  133.6365 H   0  0  0  0  0  0  0  0  0  0  0  0
  145.5163  160.7905  133.3426 H   0  0  0  0  0  0  0  0  0  0  0  0
  147.2172  157.8112  134.0163 H   0  0  0  0  0  0  0  0  0  0  0  0
  147.0098  157.9204  132.2256 H   0  0  0  0  0  0  0  0  0  0  0  0
  146.9022  160.5255  132.7841 H   0  0  0  0  0  0  0  0  0  0  0  0
  147.8794  159.9852  134.2042 H   0  0  0  0  0  0  0  0  0  0  0  0
  149.4008  157.8221  133.0170 H   0  0  0  0  0  0  0  0  0  0  0  0
  148.4541  157.8067  131.4905 H   0  0  0  0  0  0  0  0  0  0  0  0
  150.1485  158.4031  131.4905 H   0  0  0  0  0  0  0  0  0  0  0  0
  148.1526  161.3973  131.3219 H   0  0  0  0  0  0  0  0  0  0  0  0
  149.4372  160.4317  130.5194 H   0  0  0  0  0  0  0  0  0  0  0  0
  147.7396  159.8443  130.5194 H   0  0  0  0  0  0  0  0  0  0  0  0
  144.9362  156.5207  133.4163 H   0  0  0  0  0  0  0  0  0  0  0  0
  1  2  2  0
  2  3  1  0
  2  4  1  0
  4  5  2  0
  4  6  1  0
  6  7  1  0
  6  8  1  0
  8  9  2  0
  8 10  1  0
 10 11  1  0
 11 12  1  0
 12 13  1  0
 12 14  2  0
 11 15  2  0
 15 16  1  0
 16 17  2  0
 17 18  1  0
 18 19  2  0
 19 20  1  0
 20 21  1  0
 21 22  1  0
 22 23  1  0
 22 24  1  0
 19 25  1  0
 25 26  2  0
 26 10  1  0
 26 16  1  0
  1 27  1  0
  1 28  1  0
  3 29  1  0
  3 30  1  0
  3 31  1  0
  7 32  1  0
  7 33  1  0
  7 34  1  0
 13 35  1  0
 13 36  1  0
 15 37  1  0
 17 38  1  0
 18 39  1  0
 20 40  1  0
 20 41  1  0
 21 42  1  0
 21 43  1  0
 23 44  1  0
 23 45  1  0
 23 46  1  0
 24 47  1  0
 24 48  1  0
 24 49  1  0
 25 50  1  0
M  END
>  <smiles>  (13) 
C=C(C)C(=O)N(C)C(=O)n1c(C(N)=O)cc2ccc(CCN(C)C)cc21

>  <score_type>  (13) 
oracle

>  <origin>  (13) 
adg

>  <m_score__min__energy>  (13) 
-8.3900000000000006

>  <m_primary>  (13) 
energy

$$$$
13:0
     RDKit          3D

 37 38  0  0  0  0  0  0  0  0999 V2000
  148.9920  157.4540  132.5770 N   0  0  0  0  0  0  0  0  0  0  0  0
  148.2520  158.5650  132.9890 C   0  0  0  0  0  0  0  0  0  0  0  0
  148.9420  159.6500  133.1370 O   0  0  0  0  0  0  0  0  0  0  0  0
  146.8480  158.6790  133.2560 C   0  0  0  0  0  0  0  0  0  0  0  0
  146.2830  159.9800  133.3690 C   0  0  0  0  0  0  0  0  0  0  0  0
  144.9560  159.8340  133.5670 C   0  0  0  0  0  0  0  0  0  0  0  0
  143.9750  160.7960  133.7380 C   0  0  0  0  0  0  0  0  0  0  0  0
  142.6630  160.4300  133.9360 C   0  0  0  0  0  0  0  0  0  0  0  0
  142.3690  159.1010  133.9550 C   0  0  0  0  0  0  0  0  0  0  0  0
  140.9560  158.6980  134.1680 C   0  0  0  0  0  0  0  0  0  0  0  0
  140.7610  157.2440  134.0170 C   0  0  0  0  0  0  0  0  0  0  0  0
  140.4020  156.5110  134.9750 O   0  0  0  0  0  0  0  0  0  0  0  0
  140.9800  156.6700  132.7900 O   0  0  0  0  0  0  0  0  0  0  0  0
  143.3680  158.1380  133.7820 C   0  0  0  0  0  0  0  0  0  0  0  0
  144.6930  158.4890  133.5810 C   0  0  0  0  0  0  0  0  0  0  0  0
  145.8560  157.7760  133.3940 N   0  0  0  0  0  0  0  0  0  0  0  0
  145.8450  156.3830  133.3380 C   0  0  0  0  0  0  0  0  0  0  0  0
  146.9470  155.8410  132.9160 O   0  0  0  0  0  0  0  0  0  0  0  0
  144.8200  155.4330  133.6550 C   0  0  0  0  0  0  0  0  0  0  0  0
  144.7220  154.7080  134.6700 O   0  0  0  0  0  0  0  0  0  0  0  0
  143.7600  155.2520  132.7380 O   0  0  0  0  0  0  0  0  0  0  0  0
  143.3870  153.9480  132.3270 C   0  0  0  0  0  0  0  0  0  0  0  0
  142.1880  153.4550  133.0540 C   0  0  0  0  0  0  0  0  0  0  0  0
  141.6930  152.3110  132.8790 O   0  0  0  0  0  0  0  0  0  0  0  0
  141.6070  154.3260  133.9660 O   0  0  0  0  0  0  0  0  0  0  0  0
  148.6290  156.7440  131.8900 H   0  0  0  0  0  0  0  0  0  0  0  0
  149.9680  157.2710  132.9430 H   0  0  0  0  0  0  0  0  0  0  0  0
  146.8292  160.9328  133.3063 H   0  0  0  0  0  0  0  0  0  0  0  0
  144.2464  161.8618  133.7154 H   0  0  0  0  0  0  0  0  0  0  0  0
  141.8772  161.1872  134.0745 H   0  0  0  0  0  0  0  0  0  0  0  0
  140.6533  158.9921  135.1838 H   0  0  0  0  0  0  0  0  0  0  0  0
  140.3434  159.2012  133.4054 H   0  0  0  0  0  0  0  0  0  0  0  0
  141.7240  155.9970  132.6030 H   0  0  0  0  0  0  0  0  0  0  0  0
  143.0944  157.0729  133.8062 H   0  0  0  0  0  0  0  0  0  0  0  0
  143.1665  153.9651  131.2495 H   0  0  0  0  0  0  0  0  0  0  0  0
  144.2229  153.2694  132.5522 H   0  0  0  0  0  0  0  0  0  0  0  0
  141.9860  155.2740  134.1210 H   0  0  0  0  0  0  0  0  0  0  0  0
  1  2  1  0
  2  3  2  0
  2  4  1  0
  4  5  2  0
  5  6  1  0
  6  7  2  0
  7  8  1  0
  8  9  2  0
  9 10  1  0
 10 11  1  0
 11 12  2  0
 11 13  1  0
  9 14  1  0
 14 15  2  0
 15 16  1  0
 16 17  1  0
 17 18  2  0
 17 19  1  0
 19 20  2  0
 19 21  1  0
 21 22  1  0
 22 23  1  0
 23 24  2  0
 23 25  1  0
 16  4  1  0
 15  6  1  0
  1 26  1  0
  1 27  1  0
  5 28  1  0
  7 29  1  0
  8 30  1  0
 10 31  1  0
 10 32  1  0
 13 33  1  0
 14 34  1  0
 22 35  1  0
 22 36  1  0
 25 37  1  0
M  END
>  <smiles>  (14) 
NC(=O)c1cc2ccc(CC(=O)O)cc2n1C(=O)C(=O)OCC(=O)O

>  <score_type>  (14) 
oracle

>  <origin>  (14) 
adg

>  <m_score__min__energy>  (14) 
-5.9100000000000001

>  <m_primary>  (14) 
energy

$$$$
14:0
     RDKit          3D

 41 42  0  0  0  0  0  0  0  0999 V2000
  141.3310  159.2920  134.3610 C   0  0  0  0  0  0  0  0  0  0  0  0
  142.7530  159.5480  134.0510 C   0  0  0  0  0  0  0  0  0  0  0  0
  143.1920  160.8530  134.0310 C   0  0  0  0  0  0  0  0  0  0  0  0
  144.5030  161.0780  133.7460 C   0  0  0  0  0  0  0  0  0  0  0  0
  145.3630  160.0360  133.4840 C   0  0  0  0  0  0  0  0  0  0  0  0
  146.6920  160.0410  133.1790 C   0  0  0  0  0  0  0  0  0  0  0  0
  147.1040  158.7030  133.0010 C   0  0  0  0  0  0  0  0  0  0  0  0
  148.4740  158.4220  132.6640 C   0  0  0  0  0  0  0  0  0  0  0  0
  149.1380  157.2190  132.4690 N   0  0  0  0  0  0  0  0  0  0  0  0
  149.2250  159.4690  132.5070 O   0  0  0  0  0  0  0  0  0  0  0  0
  146.0350  157.9010  133.1990 N   0  0  0  0  0  0  0  0  0  0  0  0
  145.9060  156.5110  133.2370 C   0  0  0  0  0  0  0  0  0  0  0  0
  144.7850  156.0050  132.8210 O   0  0  0  0  0  0  0  0  0  0  0  0
  146.8310  155.4630  133.6830 C   0  0  1  0  0  0  0  0  0  0  0  0
  146.1980  154.3290  134.4250 C   0  0  0  0  0  0  0  0  0  0  0  0
  147.4990  154.9320  132.4950 O   0  0  0  0  0  0  0  0  0  0  0  0
  148.6900  154.2370  132.6030 C   0  0  0  0  0  0  0  0  0  0  0  0
  149.8260  154.8050  132.5150 O   0  0  0  0  0  0  0  0  0  0  0  0
  148.6010  152.7680  132.8310 C   0  0  2  0  0  0  0  0  0  0  0  0
  149.7930  152.0570  132.2430 C   0  0  0  0  0  0  0  0  0  0  0  0
  147.4250  152.2490  132.2530 O   0  0  0  0  0  0  0  0  0  0  0  0
  144.9720  158.7250  133.4920 C   0  0  0  0  0  0  0  0  0  0  0  0
  143.6340  158.4990  133.7840 C   0  0  0  0  0  0  0  0  0  0  0  0
  141.1923  159.2670  135.4519 H   0  0  0  0  0  0  0  0  0  0  0  0
  140.7120  160.0932  133.9309 H   0  0  0  0  0  0  0  0  0  0  0  0
  141.0302  158.3253  133.9309 H   0  0  0  0  0  0  0  0  0  0  0  0
  142.5049  161.6865  134.2388 H   0  0  0  0  0  0  0  0  0  0  0  0
  144.8822  162.1104  133.7246 H   0  0  0  0  0  0  0  0  0  0  0  0
  147.3309  160.9317  133.0877 H   0  0  0  0  0  0  0  0  0  0  0  0
  148.7640  156.5430  131.7430 H   0  0  0  0  0  0  0  0  0  0  0  0
  149.9830  156.9660  133.0050 H   0  0  0  0  0  0  0  0  0  0  0  0
  147.5207  155.9331  134.3994 H   0  0  0  0  0  0  0  0  0  0  0  0
  146.2936  154.5002  135.5074 H   0  0  0  0  0  0  0  0  0  0  0  0
  145.1332  154.2641  134.1567 H   0  0  0  0  0  0  0  0  0  0  0  0
  146.7017  153.3886  134.1567 H   0  0  0  0  0  0  0  0  0  0  0  0
  148.5826  152.6010  133.9181 H   0  0  0  0  0  0  0  0  0  0  0  0
  150.4304  151.6768  133.0549 H   0  0  0  0  0  0  0  0  0  0  0  0
  149.4491  151.2163  131.6225 H   0  0  0  0  0  0  0  0  0  0  0  0
  150.3693  152.7590  131.6225 H   0  0  0  0  0  0  0  0  0  0  0  0
  147.0750  152.9880  131.6840 H   0  0  0  0  0  0  0  0  0  0  0  0
  143.2580  157.4655  133.8055 H   0  0  0  0  0  0  0  0  0  0  0  0
  1  2  1  0
  2  3  2  0
  3  4  1  0
  4  5  2  0
  5  6  1  0
  6  7  2  0
  7  8  1  0
  8  9  1  0
  8 10  2  0
  7 11  1  0
 11 12  1  0
 12 13  2  0
 12 14  1  0
 14 15  1  0
 14 16  1  0
 16 17  1  0
 17 18  2  0
 17 19  1  0
 19 20  1  0
 19 21  1  0
 11 22  1  0
 22 23  2  0
 23  2  1  0
 22  5  1  0
  1 24  1  0
  1 25  1  0
  1 26  1  0
  3 27  1  0
  4 28  1  0
  6 29  1  0
  9 30  1  0
  9 31  1  0
 14 32  1  1
 15 33  1  0
 15 34  1  0
 15 35  1  0
 19 36  1  1
 20 37  1  0
 20 38  1  0
 20 39  1  0
 21 40  1  0
 23 41  1  0
M  END
>  <smiles>  (15) 
Cc1ccc2cc(C(N)=O)n(C(=O)[C@@H](C)OC(=O)[C@H](C)O)c2c1

>  <score_type>  (15) 
oracle

>  <origin>  (15) 
adg

>  <m_score__min__energy>  (15) 
-7.0999999999999996

>  <m_primary>  (15) 
energy

$$$$
15:0
     RDKit          3D

 42 43  0  0  0  0  0  0  0  0999 V2000
  141.5650  158.4190  135.0170 C   0  0  0  0  0  0  0  0  0  0  0  0
  142.8840  158.8330  134.4630 C   0  0  0  0  0  0  0  0  0  0  0  0
  143.1400  160.1840  134.4040 C   0  0  0  0  0  0  0  0  0  0  0  0
  144.3610  160.5630  133.8910 C   0  0  0  0  0  0  0  0  0  0  0  0
  145.2690  159.6210  133.4640 C   0  0  0  0  0  0  0  0  0  0  0  0
  146.5000  159.7770  132.9150 C   0  0  0  0  0  0  0  0  0  0  0  0
  147.0420  158.5090  132.6210 C   0  0  0  0  0  0  0  0  0  0  0  0
  148.3580  158.4080  132.0380 C   0  0  0  0  0  0  0  0  0  0  0  0
  149.1760  157.2160  132.2970 N   0  0  0  0  0  0  0  0  0  0  0  0
  148.9450  159.2240  131.3050 O   0  0  0  0  0  0  0  0  0  0  0  0
  146.1140  157.5780  133.0020 N   0  0  0  0  0  0  0  0  0  0  0  0
  146.2880  156.2120  132.7890 C   0  0  0  0  0  0  0  0  0  0  0  0
  145.2920  155.6570  132.1630 O   0  0  0  0  0  0  0  0  0  0  0  0
  147.3310  155.2900  133.1050 C   0  0  0  0  0  0  0  0  0  0  0  0
  148.3760  155.4560  133.7650 O   0  0  0  0  0  0  0  0  0  0  0  0
  147.2310  153.9090  132.6140 N   0  0  0  0  0  0  0  0  0  0  0  0
  148.3280  153.0110  132.9760 C   0  0  0  0  0  0  0  0  0  0  0  0
  148.5800  152.9680  134.4470 C   0  0  0  0  0  0  0  0  0  0  0  0
  149.5740  153.5900  132.2970 C   0  0  0  0  0  0  0  0  0  0  0  0
  148.0770  151.6850  132.3310 C   0  0  0  0  0  0  0  0  0  0  0  0
  146.7610  151.6820  131.8610 O   0  0  0  0  0  0  0  0  0  0  0  0
  145.0420  158.2590  133.5110 C   0  0  0  0  0  0  0  0  0  0  0  0
  143.8170  157.8940  134.0240 C   0  0  0  0  0  0  0  0  0  0  0  0
  141.6083  158.4326  136.1161 H   0  0  0  0  0  0  0  0  0  0  0  0
  140.7873  159.1162  134.6721 H   0  0  0  0  0  0  0  0  0  0  0  0
  141.3252  157.4024  134.6721 H   0  0  0  0  0  0  0  0  0  0  0  0
  142.4049  160.9256  134.7499 H   0  0  0  0  0  0  0  0  0  0  0  0
  144.6133  161.6314  133.8218 H   0  0  0  0  0  0  0  0  0  0  0  0
  146.9967  160.7406  132.7287 H   0  0  0  0  0  0  0  0  0  0  0  0
  149.9820  157.2970  132.9540 H   0  0  0  0  0  0  0  0  0  0  0  0
  148.9220  156.3220  131.8130 H   0  0  0  0  0  0  0  0  0  0  0  0
  146.4220  153.6010  132.0450 H   0  0  0  0  0  0  0  0  0  0  0  0
  147.6347  153.1293  134.9858 H   0  0  0  0  0  0  0  0  0  0  0  0
  148.9944  151.9862  134.7195 H   0  0  0  0  0  0  0  0  0  0  0  0
  149.2966  153.7569  134.7195 H   0  0  0  0  0  0  0  0  0  0  0  0
  150.2888  153.9221  133.0643 H   0  0  0  0  0  0  0  0  0  0  0  0
  150.0423  152.8172  131.6697 H   0  0  0  0  0  0  0  0  0  0  0  0
  149.2853  154.4462  131.6697 H   0  0  0  0  0  0  0  0  0  0  0  0
  148.7742  151.5384  131.4929 H   0  0  0  0  0  0  0  0  0  0  0  0
  148.2289  150.8704  133.0544 H   0  0  0  0  0  0  0  0  0  0  0  0
  146.6850  152.3370  131.1300 H   0  0  0  0  0  0  0  0  0  0  0  0
  143.5659  156.8251  134.0897 H   0  0  0  0  0  0  0  0  0  0  0  0
  1  2  1  0
  2  3  2  0
  3  4  1  0
  4  5  2  0
  5  6  1  0
  6  7  2  0
  7  8  1  0
  8  9  1  0
  8 10  2  0
  7 11  1  0
 11 12  1  0
 12 13  2  0
 12 14  1  0
 14 15  2  0
 14 16  1  0
 16 17  1  0
 17 18  1  0
 17 19  1  0
 17 20  1  0
 20 21  1  0
 11 22  1  0
 22 23  2  0
 23  2  1  0
 22  5  1  0
  1 24  1  0
  1 25  1  0
  1 26  1  0
  3 27  1  0
  4 28  1  0
  6 29  1  0
  9 30  1  0
  9 31  1  0
 16 32  1  0
 18 33  1  0
 18 34  1  0
 18 35  1  0
 19 36  1  0
 19 37  1  0
 19 38  1  0
 20 39  1  0
 20 40  1  0
 21 41  1  0
 23 42  1  0
M  END
>  <smiles>  (16) 
Cc1ccc2cc(C(N)=O)n(C(=O)C(=O)NC(C)(C)CO)c2c1

>  <score_type>  (16) 
oracle

>  <origin>  (16) 
adg

>  <m_score__min__energy>  (16) 
-8.0600000000000005

>  <m_primary>  (16) 
energy

$$$$
16:0
     RDKit          3D

 32 33  0  0  0  0  0  0  0  0999 V2000
  141.3550  157.4890  137.6280 C   0  0  0  0  0  0  0  0  0  0  0  0
  142.1080  158.4290  136.8490 O   0  0  0  0  0  0  0  0  0  0  0  0
  141.4610  159.2100  135.9010 C   0  0  0  0  0  0  0  0  0  0  0  0
  140.6590  160.1160  136.2430 O   0  0  0  0  0  0  0  0  0  0  0  0
  141.7610  158.9240  134.4750 C   0  0  0  0  0  0  0  0  0  0  0  0
  143.1260  159.3620  134.0980 C   0  0  0  0  0  0  0  0  0  0  0  0
  143.4050  160.7110  134.1220 C   0  0  0  0  0  0  0  0  0  0  0  0
  144.6630  161.1510  133.7770 C   0  0  0  0  0  0  0  0  0  0  0  0
  145.6290  160.2310  133.4110 C   0  0  0  0  0  0  0  0  0  0  0  0
  146.9400  160.3820  133.0280 C   0  0  0  0  0  0  0  0  0  0  0  0
  147.4940  159.1350  132.7610 C   0  0  0  0  0  0  0  0  0  0  0  0
  148.8680  158.9730  132.3340 C   0  0  0  0  0  0  0  0  0  0  0  0
  149.4570  157.6550  132.3460 N   0  0  0  0  0  0  0  0  0  0  0  0
  149.6320  159.8820  131.9420 O   0  0  0  0  0  0  0  0  0  0  0  0
  146.5290  158.2260  132.9800 N   0  0  0  0  0  0  0  0  0  0  0  0
  146.6170  156.8230  132.8420 C   0  0  0  0  0  0  0  0  0  0  0  0
  145.9550  156.0740  133.6380 O   0  0  0  0  0  0  0  0  0  0  0  0
  147.3690  156.1510  131.9050 O   0  0  0  0  0  0  0  0  0  0  0  0
  145.3920  158.8740  133.3740 C   0  0  0  0  0  0  0  0  0  0  0  0
  144.1230  158.4610  133.7250 C   0  0  0  0  0  0  0  0  0  0  0  0
  141.5146  157.6883  138.6980 H   0  0  0  0  0  0  0  0  0  0  0  0
  140.2855  157.5904  137.3917 H   0  0  0  0  0  0  0  0  0  0  0  0
  141.6874  156.4674  137.3917 H   0  0  0  0  0  0  0  0  0  0  0  0
  141.6753  157.8407  134.3040 H   0  0  0  0  0  0  0  0  0  0  0  0
  141.0416  159.4814  133.8572 H   0  0  0  0  0  0  0  0  0  0  0  0
  142.6275  161.4319  134.4150 H   0  0  0  0  0  0  0  0  0  0  0  0
  144.8981  162.2255  133.7922 H   0  0  0  0  0  0  0  0  0  0  0  0
  147.4700  161.3423  132.9453 H   0  0  0  0  0  0  0  0  0  0  0  0
  149.9750  157.2950  133.1790 H   0  0  0  0  0  0  0  0  0  0  0  0
  149.3210  157.1010  131.4620 H   0  0  0  0  0  0  0  0  0  0  0  0
  147.2450  156.2270  130.9020 H   0  0  0  0  0  0  0  0  0  0  0  0
  143.8902  157.3860  133.7101 H   0  0  0  0  0  0  0  0  0  0  0  0
  1  2  1  0
  2  3  1  0
  3  4  2  0
  3  5  1  0
  5  6  1  0
  6  7  2  0
  7  8  1  0
  8  9  2  0
  9 10  1  0
 10 11  2  0
 11 12  1  0
 12 13  1  0
 12 14  2  0
 11 15  1  0
 15 16  1  0
 16 17  2  0
 16 18  1  0
 15 19  1  0
 19 20  2  0
 20  6  1  0
 19  9  1  0
  1 21  1  0
  1 22  1  0
  1 23  1  0
  5 24  1  0
  5 25  1  0
  7 26  1  0
  8 27  1  0
 10 28  1  0
 13 29  1  0
 13 30  1  0
 18 31  1  0
 20 32  1  0
M  END
>  <smiles>  (17) 
COC(=O)Cc1ccc2cc(C(N)=O)n(C(=O)O)c2c1

>  <score_type>  (17) 
oracle

>  <origin>  (17) 
adg

>  <m_score__min__energy>  (17) 
-6.5300000000000002

>  <m_primary>  (17) 
energy

$$$$
17:0
     RDKit          3D

 33 34  0  0  0  0  0  0  0  0999 V2000
  145.4600  155.1330  134.7250 C   0  0  0  0  0  0  0  0  0  0  0  0
  146.6000  155.5960  133.9770 N   0  0  0  0  0  0  0  0  0  0  0  0
  147.7270  154.6440  134.0690 C   0  0  0  0  0  0  0  0  0  0  0  0
  148.1070  154.4050  135.2440 O   0  0  0  0  0  0  0  0  0  0  0  0
  148.4530  153.9230  132.6200 S   0  0  0  0  0  0  0  0  0  0  0  0
  146.8130  156.7370  133.2310 C   0  0  0  0  0  0  0  0  0  0  0  0
  147.7390  156.5550  132.2990 O   0  0  0  0  0  0  0  0  0  0  0  0
  146.3030  158.0340  133.1910 N   0  0  0  0  0  0  0  0  0  0  0  0
  147.0660  159.1110  132.8530 C   0  0  0  0  0  0  0  0  0  0  0  0
  148.4100  159.2160  132.3050 C   0  0  0  0  0  0  0  0  0  0  0  0
  149.5190  158.5640  132.9710 N   0  0  0  0  0  0  0  0  0  0  0  0
  148.7450  159.8340  131.2680 O   0  0  0  0  0  0  0  0  0  0  0  0
  146.3040  160.2760  133.0330 C   0  0  0  0  0  0  0  0  0  0  0  0
  145.0770  159.9140  133.4800 C   0  0  0  0  0  0  0  0  0  0  0  0
  143.9940  160.6860  133.8260 C   0  0  0  0  0  0  0  0  0  0  0  0
  142.8450  160.1030  134.2970 C   0  0  0  0  0  0  0  0  0  0  0  0
  142.8220  158.7410  134.4090 C   0  0  0  0  0  0  0  0  0  0  0  0
  141.5680  158.1090  134.9250 C   0  0  0  0  0  0  0  0  0  0  0  0
  141.0740  158.9340  135.9200 F   0  0  0  0  0  0  0  0  0  0  0  0
  140.6380  158.0200  133.8830 F   0  0  0  0  0  0  0  0  0  0  0  0
  141.9130  156.8620  135.3830 F   0  0  0  0  0  0  0  0  0  0  0  0
  143.9230  157.9820  134.0540 C   0  0  0  0  0  0  0  0  0  0  0  0
  145.0950  158.5310  133.5730 C   0  0  0  0  0  0  0  0  0  0  0  0
  145.6689  155.2178  135.8017 H   0  0  0  0  0  0  0  0  0  0  0  0
  144.5822  155.7459  134.4724 H   0  0  0  0  0  0  0  0  0  0  0  0
  145.2581  154.0816  134.4724 H   0  0  0  0  0  0  0  0  0  0  0  0
  148.0770  154.5740  131.4430 H   0  0  0  0  0  0  0  0  0  0  0  0
  149.3430  157.5960  133.3420 H   0  0  0  0  0  0  0  0  0  0  0  0
  150.4440  159.0360  133.0760 H   0  0  0  0  0  0  0  0  0  0  0  0
  146.6440  161.3049  132.8439 H   0  0  0  0  0  0  0  0  0  0  0  0
  144.0489  161.7799  133.7245 H   0  0  0  0  0  0  0  0  0  0  0  0
  141.9716  160.7112  134.5751 H   0  0  0  0  0  0  0  0  0  0  0  0
  143.8617  156.8888  134.1601 H   0  0  0  0  0  0  0  0  0  0  0  0
  1  2  1  0
  2  3  1  0
  3  4  2  0
  3  5  1  0
  2  6  1  0
  6  7  2  0
  6  8  1  0
  8  9  1  0
  9 10  1  0
 10 11  1  0
 10 12  2  0
  9 13  2  0
 13 14  1  0
 14 15  2  0
 15 16  1  0
 16 17  2  0
 17 18  1  0
 18 19  1  0
 18 20  1  0
 18 21  1  0
 17 22  1  0
 22 23  2  0
 23  8  1  0
 23 14  1  0
  1 24  1  0
  1 25  1  0
  1 26  1  0
  5 27  1  0
 11 28  1  0
 11 29  1  0
 13 30  1  0
 15 31  1  0
 16 32  1  0
 22 33  1  0
M  END
>  <smiles>  (18) 
CN(C(=O)S)C(=O)n1c(C(N)=O)cc2ccc(C(F)(F)F)cc21

>  <score_type>  (18) 
oracle

>  <origin>  (18) 
adg

>  <m_score__min__energy>  (18) 
-6.5099999999999998

>  <m_primary>  (18) 
energy

$$$$
18:0
     RDKit          3D

 45 46  0  0  0  0  0  0  0  0999 V2000
  145.5120  152.0130  132.4950 C   0  0  0  0  0  0  0  0  0  0  0  0
  145.1970  153.4350  132.4270 N   0  0  0  0  0  0  0  0  0  0  0  0
  143.9260  153.8710  131.9250 C   0  0  0  0  0  0  0  0  0  0  0  0
  143.1030  154.5750  132.9530 C   0  0  0  0  0  0  0  0  0  0  0  0
  142.6050  154.0000  133.9460 O   0  0  0  0  0  0  0  0  0  0  0  0
  142.9030  155.9330  132.7640 O   0  0  0  0  0  0  0  0  0  0  0  0
  146.1630  154.3900  132.8620 C   0  0  0  0  0  0  0  0  0  0  0  0
  147.2520  153.9870  133.3920 O   0  0  0  0  0  0  0  0  0  0  0  0
  145.9010  155.7920  132.7010 N   0  0  0  0  0  0  0  0  0  0  0  0
  146.8350  156.7610  133.1210 C   0  0  0  0  0  0  0  0  0  0  0  0
  147.9230  156.2650  133.5880 O   0  0  0  0  0  0  0  0  0  0  0  0
  146.6970  158.1620  133.0700 N   0  0  0  0  0  0  0  0  0  0  0  0
  147.5820  159.1440  132.8680 C   0  0  0  0  0  0  0  0  0  0  0  0
  148.9430  159.1190  132.3710 C   0  0  0  0  0  0  0  0  0  0  0  0
  149.5460  157.8400  132.0830 N   0  0  0  0  0  0  0  0  0  0  0  0
  149.6830  160.1010  132.1530 O   0  0  0  0  0  0  0  0  0  0  0  0
  146.9490  160.3900  133.0840 C   0  0  0  0  0  0  0  0  0  0  0  0
  145.6520  160.1300  133.4170 C   0  0  0  0  0  0  0  0  0  0  0  0
  144.6340  161.0100  133.7190 C   0  0  0  0  0  0  0  0  0  0  0  0
  143.3990  160.5140  134.0280 C   0  0  0  0  0  0  0  0  0  0  0  0
  143.1980  159.1540  134.0310 C   0  0  0  0  0  0  0  0  0  0  0  0
  141.9040  158.6200  134.3540 N   0  0  0  0  0  0  0  0  0  0  0  0
  141.7650  157.7280  135.4740 C   0  0  0  0  0  0  0  0  0  0  0  0
  140.7690  158.9800  133.5560 C   0  0  0  0  0  0  0  0  0  0  0  0
  144.2490  158.2840  133.7200 C   0  0  0  0  0  0  0  0  0  0  0  0
  145.5130  158.7660  133.4030 C   0  0  0  0  0  0  0  0  0  0  0  0
  145.5807  151.7026  133.5481 H   0  0  0  0  0  0  0  0  0  0  0  0
  144.7195  151.4375  131.9941 H   0  0  0  0  0  0  0  0  0  0  0  0
  146.4733  151.8260  131.9941 H   0  0  0  0  0  0  0  0  0  0  0  0
  144.0985  154.5580  131.0834 H   0  0  0  0  0  0  0  0  0  0  0  0
  143.3693  152.9742  131.6155 H   0  0  0  0  0  0  0  0  0  0  0  0
  142.4680  156.3260  131.9450 H   0  0  0  0  0  0  0  0  0  0  0  0
  145.0120  156.0390  132.2710 H   0  0  0  0  0  0  0  0  0  0  0  0
  149.9880  157.3730  132.9060 H   0  0  0  0  0  0  0  0  0  0  0  0
  149.5310  157.4310  131.1210 H   0  0  0  0  0  0  0  0  0  0  0  0
  147.4152  161.3827  132.9993 H   0  0  0  0  0  0  0  0  0  0  0  0
  144.8137  162.0952  133.7112 H   0  0  0  0  0  0  0  0  0  0  0  0
  142.5723  161.1973  134.2724 H   0  0  0  0  0  0  0  0  0  0  0  0
  141.8539  158.2985  136.4103 H   0  0  0  0  0  0  0  0  0  0  0  0
  140.7800  157.2400  135.4341 H   0  0  0  0  0  0  0  0  0  0  0  0
  142.5548  156.9634  135.4341 H   0  0  0  0  0  0  0  0  0  0  0  0
  139.9283  159.2466  134.2134 H   0  0  0  0  0  0  0  0  0  0  0  0
  141.0254  159.8409  132.9211 H   0  0  0  0  0  0  0  0  0  0  0  0
  140.4823  158.1287  132.9211 H   0  0  0  0  0  0  0  0  0  0  0  0
  144.0712  157.1985  133.7266 H   0  0  0  0  0  0  0  0  0  0  0  0
  1  2  1  0
  2  3  1  0
  3  4  1  0
  4  5  2  0
  4  6  1  0
  2  7  1  0
  7  8  2  0
  7  9  1  0
  9 10  1  0
 10 11  2  0
 10 12  1  0
 12 13  1  0
 13 14  1  0
 14 15  1  0
 14 16  2  0
 13 17  2  0
 17 18  1  0
 18 19  2  0
 19 20  1  0
 20 21  2  0
 21 22  1  0
 22 23  1  0
 22 24  1  0
 21 25  1  0
 25 26  2  0
 26 12  1  0
 26 18  1  0
  1 27  1  0
  1 28  1  0
  1 29  1  0
  3 30  1  0
  3 31  1  0
  6 32  1  0
  9 33  1  0
 15 34  1  0
 15 35  1  0
 17 36  1  0
 19 37  1  0
 20 38  1  0
 23 39  1  0
 23 40  1  0
 23 41  1  0
 24 42  1  0
 24 43  1  0
 24 44  1  0
 25 45  1  0
M  END
>  <smiles>  (19) 
CN(CC(=O)O)C(=O)NC(=O)n1c(C(N)=O)cc2ccc(N(C)C)cc21

>  <score_type>  (19) 
oracle

>  <origin>  (19) 
adg

>  <m_score__min__energy>  (19) 
-7.5899999999999999

>  <m_primary>  (19) 
energy

$$$$
19:0
     RDKit          3D

 55 56  0  0  0  0  0  0  0  0999 V2000
  148.8850  160.8640  131.4870 C   0  0  0  0  0  0  0  0  0  0  0  0
  148.2190  159.6450  132.0350 C   0  0  0  0  0  0  0  0  0  0  0  0
  148.9070  158.4600  132.1590 C   0  0  0  0  0  0  0  0  0  0  0  0
  148.2850  157.3390  132.6660 C   0  0  0  0  0  0  0  0  0  0  0  0
  146.9580  157.4350  133.0460 C   0  0  0  0  0  0  0  0  0  0  0  0
  146.0900  156.5070  133.5740 C   0  0  0  0  0  0  0  0  0  0  0  0
  144.8400  157.1090  133.7890 C   0  0  0  0  0  0  0  0  0  0  0  0
  143.7280  156.3610  134.3400 C   0  0  0  0  0  0  0  0  0  0  0  0
  142.4650  156.3350  133.6320 N   0  0  0  0  0  0  0  0  0  0  0  0
  143.7320  155.7070  135.4040 O   0  0  0  0  0  0  0  0  0  0  0  0
  144.9550  158.3740  133.3970 N   0  0  0  0  0  0  0  0  0  0  0  0
  143.9260  159.3650  133.4330 C   0  0  0  0  0  0  0  0  0  0  0  0
  144.1510  160.5960  133.5100 O   0  0  0  0  0  0  0  0  0  0  0  0
  142.6220  158.9650  133.3830 O   0  0  0  0  0  0  0  0  0  0  0  0
  141.4530  159.6860  133.3760 C   0  0  0  0  0  0  0  0  0  0  0  0
  140.4120  159.3810  132.3520 C   0  0  0  0  0  0  0  0  0  0  0  0
  139.4120  158.4110  132.6800 N   0  0  0  0  0  0  0  0  0  0  0  0
  138.0160  158.6310  132.2620 C   0  0  0  0  0  0  0  0  0  0  0  0
  139.6780  157.1840  133.3490 C   0  0  0  0  0  0  0  0  0  0  0  0
  139.5060  157.0160  134.5840 O   0  0  0  0  0  0  0  0  0  0  0  0
  140.1540  156.1130  132.6080 O   0  0  0  0  0  0  0  0  0  0  0  0
  140.0130  154.7710  133.0100 C   0  0  0  0  0  0  0  0  0  0  0  0
  141.1390  154.2580  133.6710 O   0  0  0  0  0  0  0  0  0  0  0  0
  141.9280  153.3580  132.9820 C   0  0  0  0  0  0  0  0  0  0  0  0
  142.8750  153.8040  132.2760 O   0  0  0  0  0  0  0  0  0  0  0  0
  141.6820  151.8760  133.0540 C   0  0  0  0  0  0  0  0  0  0  0  0
  142.9510  151.1640  132.6660 C   0  0  0  0  0  0  0  0  0  0  0  0
  141.3720  151.5580  134.4880 C   0  0  0  0  0  0  0  0  0  0  0  0
  146.2250  158.5970  132.9440 C   0  0  0  0  0  0  0  0  0  0  0  0
  146.8830  159.6980  132.4310 C   0  0  0  0  0  0  0  0  0  0  0  0
  149.2310  161.4973  132.3172 H   0  0  0  0  0  0  0  0  0  0  0  0
  149.7455  160.5657  130.8701 H   0  0  0  0  0  0  0  0  0  0  0  0
  148.1691  161.4269  130.8701 H   0  0  0  0  0  0  0  0  0  0  0  0
  149.9617  158.4066  131.8512 H   0  0  0  0  0  0  0  0  0  0  0  0
  148.8314  156.3896  132.7662 H   0  0  0  0  0  0  0  0  0  0  0  0
  146.3368  155.4577  133.7933 H   0  0  0  0  0  0  0  0  0  0  0  0
  142.3880  155.8830  132.6900 H   0  0  0  0  0  0  0  0  0  0  0  0
  141.6240  156.7860  134.0940 H   0  0  0  0  0  0  0  0  0  0  0  0
  140.9842  159.5464  134.3613 H   0  0  0  0  0  0  0  0  0  0  0  0
  141.7779  160.7055  133.1208 H   0  0  0  0  0  0  0  0  0  0  0  0
  139.8918  160.3229  132.1235 H   0  0  0  0  0  0  0  0  0  0  0  0
  140.9700  158.9299  131.5183 H   0  0  0  0  0  0  0  0  0  0  0  0
  137.3781  158.7315  133.1525 H   0  0  0  0  0  0  0  0  0  0  0  0
  137.9538  159.5500  131.6607 H   0  0  0  0  0  0  0  0  0  0  0  0
  137.6741  157.7756  131.6607 H   0  0  0  0  0  0  0  0  0  0  0  0
  139.1502  154.7008  133.6887 H   0  0  0  0  0  0  0  0  0  0  0  0
  139.8781  154.1745  132.0957 H   0  0  0  0  0  0  0  0  0  0  0  0
  140.8625  151.5678  132.3882 H   0  0  0  0  0  0  0  0  0  0  0  0
  143.4930  150.8599  133.5736 H   0  0  0  0  0  0  0  0  0  0  0  0
  142.7040  150.2727  132.0705 H   0  0  0  0  0  0  0  0  0  0  0  0
  143.5829  151.8393  132.0705 H   0  0  0  0  0  0  0  0  0  0  0  0
  141.9878  152.1897  135.1451 H   0  0  0  0  0  0  0  0  0  0  0  0
  140.3074  151.7526  134.6849 H   0  0  0  0  0  0  0  0  0  0  0  0
  141.5936  150.4987  134.6849 H   0  0  0  0  0  0  0  0  0  0  0  0
  146.3355  160.6469  132.3317 H   0  0  0  0  0  0  0  0  0  0  0  0
  1  2  1  0
  2  3  2  0
  3  4  1  0
  4  5  2  0
  5  6  1  0
  6  7  2  0
  7  8  1  0
  8  9  1  0
  8 10  2  0
  7 11  1  0
 11 12  1  0
 12 13  2  0
 12 14  1  0
 14 15  1  0
 15 16  1  0
 16 17  1  0
 17 18  1  0
 17 19  1  0
 19 20  2  0
 19 21  1  0
 21 22  1  0
 22 23  1  0
 23 24  1  0
 24 25  2  0
 24 26  1  0
 26 27  1  0
 26 28  1  0
 11 29  1  0
 29 30  2  0
 30  2  1  0
 29  5  1  0
  1 31  1  0
  1 32  1  0
  1 33  1  0
  3 34  1  0
  4 35  1  0
  6 36  1  0
  9 37  1  0
  9 38  1  0
 15 39  1  0
 15 40  1  0
 16 41  1  0
 16 42  1  0
 18 43  1  0
 18 44  1  0
 18 45  1  0
 22 46  1  0
 22 47  1  0
 26 48  1  0
 27 49  1  0
 27 50  1  0
 27 51  1  0
 28 52  1  0
 28 53  1  0
 28 54  1  0
 30 55  1  0
M  END
>  <smiles>  (20) 
Cc1ccc2cc(C(N)=O)n(C(=O)OCCN(C)C(=O)OCOC(=O)C(C)C)c2c1

>  <score_type>  (20) 
oracle

>  <origin>  (20) 
adg

>  <m_score__min__energy>  (20) 
-7.9100000000000001

>  <m_primary>  (20) 
energy

$$$$
20:0
     RDKit          3D

 44 46  0  0  0  0  0  0  0  0999 V2000
  147.7340  154.2700  135.6770 C   0  0  0  0  0  0  0  0  0  0  0  0
  147.2750  154.5720  134.3080 N   0  0  0  0  0  0  0  0  0  0  0  0
  147.5810  153.6060  133.3050 C   0  0  0  0  0  0  0  0  0  0  0  0
  148.9600  153.8850  132.7600 C   0  0  0  0  0  0  0  0  0  0  0  0
  149.7710  152.9510  132.5270 O   0  0  0  0  0  0  0  0  0  0  0  0
  149.2590  155.2260  132.5370 O   0  0  0  0  0  0  0  0  0  0  0  0
  146.5650  155.7930  134.1670 C   0  0  0  0  0  0  0  0  0  0  0  0
  145.7790  156.0220  135.1640 O   0  0  0  0  0  0  0  0  0  0  0  0
  146.6920  156.6920  133.0470 C   0  0  0  0  0  0  0  0  0  0  0  0
  146.8480  156.1110  131.9120 O   0  0  0  0  0  0  0  0  0  0  0  0
  146.6590  158.0960  133.0230 N   0  0  0  0  0  0  0  0  0  0  0  0
  147.6180  159.0180  132.8720 C   0  0  0  0  0  0  0  0  0  0  0  0
  148.9680  158.9160  132.3430 C   0  0  0  0  0  0  0  0  0  0  0  0
  149.5740  157.6050  132.2230 N   0  0  0  0  0  0  0  0  0  0  0  0
  149.6900  159.8630  131.9640 O   0  0  0  0  0  0  0  0  0  0  0  0
  147.0950  160.3020  133.1410 C   0  0  0  0  0  0  0  0  0  0  0  0
  145.7830  160.1300  133.4550 C   0  0  0  0  0  0  0  0  0  0  0  0
  144.8320  161.0730  133.7940 C   0  0  0  0  0  0  0  0  0  0  0  0
  143.5430  160.6810  134.0800 C   0  0  0  0  0  0  0  0  0  0  0  0
  143.2600  159.3410  134.0110 C   0  0  0  0  0  0  0  0  0  0  0  0
  141.9290  158.9320  134.3060 N   0  0  0  0  0  0  0  0  0  0  0  0
  140.7890  158.5750  133.4900 C   0  0  0  0  0  0  0  0  0  0  0  0
  140.0110  158.1910  134.7090 C   0  0  0  0  0  0  0  0  0  0  0  0
  141.1690  158.7040  135.5160 C   0  0  0  0  0  0  0  0  0  0  0  0
  144.2220  158.4030  133.6700 C   0  0  0  0  0  0  0  0  0  0  0  0
  145.5250  158.7860  133.3800 C   0  0  0  0  0  0  0  0  0  0  0  0
  147.0440  154.7240  136.4036 H   0  0  0  0  0  0  0  0  0  0  0  0
  147.7564  153.1801  135.8241 H   0  0  0  0  0  0  0  0  0  0  0  0
  148.7438  154.6807  135.8241 H   0  0  0  0  0  0  0  0  0  0  0  0
  147.5547  152.5976  133.7437 H   0  0  0  0  0  0  0  0  0  0  0  0
  146.8411  153.6655  132.4932 H   0  0  0  0  0  0  0  0  0  0  0  0
  148.7250  155.7500  131.8510 H   0  0  0  0  0  0  0  0  0  0  0  0
  149.9820  157.2380  133.1210 H   0  0  0  0  0  0  0  0  0  0  0  0
  149.5930  157.0930  131.3230 H   0  0  0  0  0  0  0  0  0  0  0  0
  147.6423  161.2555  133.1038 H   0  0  0  0  0  0  0  0  0  0  0  0
  145.1045  162.1379  133.8356 H   0  0  0  0  0  0  0  0  0  0  0  0
  142.7703  161.4146  134.3533 H   0  0  0  0  0  0  0  0  0  0  0  0
  140.3572  159.4196  132.9330 H   0  0  0  0  0  0  0  0  0  0  0  0
  140.9068  157.8577  132.6644 H   0  0  0  0  0  0  0  0  0  0  0  0
  139.0711  158.7451  134.8487 H   0  0  0  0  0  0  0  0  0  0  0  0
  139.6090  157.1765  134.8474 H   0  0  0  0  0  0  0  0  0  0  0  0
  140.9473  159.6197  136.0838 H   0  0  0  0  0  0  0  0  0  0  0  0
  141.5916  158.0914  136.3260 H   0  0  0  0  0  0  0  0  0  0  0  0
  143.9489  157.3382  133.6284 H   0  0  0  0  0  0  0  0  0  0  0  0
  1  2  1  0
  2  3  1  0
  3  4  1  0
  4  5  2  0
  4  6  1  0
  2  7  1  0
  7  8  2  0
  7  9  1  0
  9 10  2  0
  9 11  1  0
 11 12  1  0
 12 13  1  0
 13 14  1  0
 13 15  2  0
 12 16  2  0
 16 17  1  0
 17 18  2  0
 18 19  1  0
 19 20  2  0
 20 21  1  0
 21 22  1  0
 22 23  1  0
 23 24  1  0
 20 25  1  0
 25 26  2  0
 26 11  1  0
 26 17  1  0
 24 21  1  0
  1 27  1  0
  1 28  1  0
  1 29  1  0
  3 30  1  0
  3 31  1  0
  6 32  1  0
 14 33  1  0
 14 34  1  0
 16 35  1  0
 18 36  1  0
 19 37  1  0
 22 38  1  0
 22 39  1  0
 23 40  1  0
 23 41  1  0
 24 42  1  0
 24 43  1  0
 25 44  1  0
M  END
>  <smiles>  (21) 
CN(CC(=O)O)C(=O)C(=O)n1c(C(N)=O)cc2ccc(N3CCC3)cc21

>  <score_type>  (21) 
oracle

>  <origin>  (21) 
adg

>  <m_score__min__energy>  (21) 
-7.6600000000000001

>  <m_primary>  (21) 
energy

$$$$
21:0
     RDKit          3D

 32 33  0  0  0  0  0  0  0  0999 V2000
  148.0050  160.4620  130.6580 C   0  0  0  0  0  0  0  0  0  0  0  0
  148.5230  159.6530  131.6490 C   0  0  0  0  0  0  0  0  0  0  0  0
  149.8630  159.2200  131.4150 C   0  0  0  0  0  0  0  0  0  0  0  0
  150.7370  159.7420  130.6860 O   0  0  0  0  0  0  0  0  0  0  0  0
  150.3090  158.0500  132.0720 O   0  0  0  0  0  0  0  0  0  0  0  0
  147.6320  159.5120  132.7570 C   0  0  0  0  0  0  0  0  0  0  0  0
  147.8400  160.4780  133.6400 O   0  0  0  0  0  0  0  0  0  0  0  0
  146.6280  158.6240  133.1300 N   0  0  0  0  0  0  0  0  0  0  0  0
  145.3260  158.7310  133.3840 C   0  0  0  0  0  0  0  0  0  0  0  0
  144.5900  159.9640  133.7450 C   0  0  0  0  0  0  0  0  0  0  0  0
  145.0620  161.2460  133.3550 N   0  0  0  0  0  0  0  0  0  0  0  0
  143.5210  159.9370  134.4080 O   0  0  0  0  0  0  0  0  0  0  0  0
  144.6940  157.5110  133.4810 C   0  0  0  0  0  0  0  0  0  0  0  0
  145.6690  156.5770  133.2800 C   0  0  0  0  0  0  0  0  0  0  0  0
  145.5660  155.2010  133.2750 C   0  0  0  0  0  0  0  0  0  0  0  0
  146.6760  154.4390  133.0500 C   0  0  0  0  0  0  0  0  0  0  0  0
  147.8690  155.0870  132.8340 C   0  0  0  0  0  0  0  0  0  0  0  0
  149.0730  154.2550  132.5900 C   0  0  0  0  0  0  0  0  0  0  0  0
  147.9630  156.4840  132.8420 C   0  0  0  0  0  0  0  0  0  0  0  0
  146.8360  157.2590  133.0700 C   0  0  0  0  0  0  0  0  0  0  0  0
  146.9789  160.8488  130.7441 H   0  0  0  0  0  0  0  0  0  0  0  0
  148.6183  160.7200  129.7820 H   0  0  0  0  0  0  0  0  0  0  0  0
  150.0060  157.8790  133.0380 H   0  0  0  0  0  0  0  0  0  0  0  0
  146.0780  161.5210  133.4160 H   0  0  0  0  0  0  0  0  0  0  0  0
  144.3740  161.9170  133.0050 H   0  0  0  0  0  0  0  0  0  0  0  0
  143.6276  157.3278  133.6789 H   0  0  0  0  0  0  0  0  0  0  0  0
  144.5928  154.7198  133.4517 H   0  0  0  0  0  0  0  0  0  0  0  0
  146.6177  153.3406  133.0418 H   0  0  0  0  0  0  0  0  0  0  0  0
  149.5109  153.9524  133.5527 H   0  0  0  0  0  0  0  0  0  0  0  0
  148.7898  153.3590  132.0182 H   0  0  0  0  0  0  0  0  0  0  0  0
  149.8110  154.8368  132.0182 H   0  0  0  0  0  0  0  0  0  0  0  0
  148.9348  156.9686  132.6667 H   0  0  0  0  0  0  0  0  0  0  0  0
  1  2  2  0
  2  3  1  0
  3  4  2  0
  3  5  1  0
  2  6  1  0
  6  7  2  0
  6  8  1  0
  8  9  1  0
  9 10  1  0
 10 11  1  0
 10 12  2  0
  9 13  2  0
 13 14  1  0
 14 15  2  0
 15 16  1  0
 16 17  2  0
 17 18  1  0
 17 19  1  0
 19 20  2  0
 20  8  1  0
 20 14  1  0
  1 21  1  0
  1 22  1  0
  5 23  1  0
 11 24  1  0
 11 25  1  0
 13 26  1  0
 15 27  1  0
 16 28  1  0
 18 29  1  0
 18 30  1  0
 18 31  1  0
 19 32  1  0
M  END
>  <smiles>  (22) 
C=C(C(=O)O)C(=O)n1c(C(N)=O)cc2ccc(C)cc21

>  <score_type>  (22) 
oracle

>  <origin>  (22) 
adg

>  <m_score__min__energy>  (22) 
-6.7800000000000002

>  <m_primary>  (22) 
energy

$$$$
22:0
     RDKit          3D

 48 49  0  0  0  0  0  0  0  0999 V2000
  150.7380  150.3870  130.4290 C   0  0  0  0  0  0  0  0  0  0  0  0
  149.8580  149.6640  131.2300 O   0  0  0  0  0  0  0  0  0  0  0  0
  149.3490  150.3840  132.2660 C   0  0  0  0  0  0  0  0  0  0  0  0
  149.9310  151.7090  132.5770 C   0  0  0  0  0  0  0  0  0  0  0  0
  149.2970  152.8470  132.1930 O   0  0  0  0  0  0  0  0  0  0  0  0
  149.4120  154.1230  132.5620 C   0  0  0  0  0  0  0  0  0  0  0  0
  150.3440  154.8600  132.2410 O   0  0  0  0  0  0  0  0  0  0  0  0
  148.4150  154.6850  133.3740 O   0  0  0  0  0  0  0  0  0  0  0  0
  147.0390  154.3550  133.1500 C   0  0  0  0  0  0  0  0  0  0  0  0
  146.4530  155.5570  132.6770 O   0  0  0  0  0  0  0  0  0  0  0  0
  145.8840  156.4880  133.5210 C   0  0  0  0  0  0  0  0  0  0  0  0
  145.2250  155.9710  134.4930 O   0  0  0  0  0  0  0  0  0  0  0  0
  145.9660  157.8870  133.4040 N   0  0  0  0  0  0  0  0  0  0  0  0
  147.0230  158.6230  133.0250 C   0  0  0  0  0  0  0  0  0  0  0  0
  148.3590  158.2620  132.6310 C   0  0  0  0  0  0  0  0  0  0  0  0
  148.9380  156.9790  132.6050 N   0  0  0  0  0  0  0  0  0  0  0  0
  149.1520  159.2020  132.2510 O   0  0  0  0  0  0  0  0  0  0  0  0
  146.5940  159.9530  133.0720 C   0  0  0  0  0  0  0  0  0  0  0  0
  145.2840  160.0120  133.4770 C   0  0  0  0  0  0  0  0  0  0  0  0
  144.4300  161.0630  133.6750 C   0  0  0  0  0  0  0  0  0  0  0  0
  143.1370  160.8600  134.0930 C   0  0  0  0  0  0  0  0  0  0  0  0
  142.7330  159.5670  134.3040 C   0  0  0  0  0  0  0  0  0  0  0  0
  141.4110  159.3300  134.7320 N   0  0  0  0  0  0  0  0  0  0  0  0
  141.1260  159.3810  136.1570 C   0  0  0  0  0  0  0  0  0  0  0  0
  140.3270  159.0380  133.8140 C   0  0  0  0  0  0  0  0  0  0  0  0
  143.6090  158.4970  134.1010 C   0  0  0  0  0  0  0  0  0  0  0  0
  144.9070  158.7030  133.6810 C   0  0  0  0  0  0  0  0  0  0  0  0
  151.4307  150.9561  131.0664 H   0  0  0  0  0  0  0  0  0  0  0  0
  151.3094  149.6941  129.7939 H   0  0  0  0  0  0  0  0  0  0  0  0
  150.1691  151.0820  129.7939 H   0  0  0  0  0  0  0  0  0  0  0  0
  148.2816  150.5433  132.0534 H   0  0  0  0  0  0  0  0  0  0  0  0
  149.5903  149.7770  133.1511 H   0  0  0  0  0  0  0  0  0  0  0  0
  150.0339  151.7592  133.6710 H   0  0  0  0  0  0  0  0  0  0  0  0
  150.8513  151.7229  131.9746 H   0  0  0  0  0  0  0  0  0  0  0  0
  146.9488  153.5573  132.3979 H   0  0  0  0  0  0  0  0  0  0  0  0
  146.5469  153.9821  134.0603 H   0  0  0  0  0  0  0  0  0  0  0  0
  149.4380  156.6290  133.4740 H   0  0  0  0  0  0  0  0  0  0  0  0
  148.8820  156.3780  131.7290 H   0  0  0  0  0  0  0  0  0  0  0  0
  147.2158  160.8250  132.8210 H   0  0  0  0  0  0  0  0  0  0  0  0
  144.7852  162.0886  133.4963 H   0  0  0  0  0  0  0  0  0  0  0  0
  142.4506  161.7046  134.2526 H   0  0  0  0  0  0  0  0  0  0  0  0
  142.0546  159.2148  136.7228 H   0  0  0  0  0  0  0  0  0  0  0  0
  140.7121  160.3675  136.4131 H   0  0  0  0  0  0  0  0  0  0  0  0
  140.3957  158.5993  136.4131 H   0  0  0  0  0  0  0  0  0  0  0  0
  139.4190  158.7934  134.3847 H   0  0  0  0  0  0  0  0  0  0  0  0
  140.1363  159.9168  133.1805 H   0  0  0  0  0  0  0  0  0  0  0  0
  140.6035  158.1823  133.1805 H   0  0  0  0  0  0  0  0  0  0  0  0
  143.2566  157.4704  134.2796 H   0  0  0  0  0  0  0  0  0  0  0  0
  1  2  1  0
  2  3  1  0
  3  4  1  0
  4  5  1  0
  5  6  1  0
  6  7  2  0
  6  8  1  0
  8  9  1  0
  9 10  1  0
 10 11  1  0
 11 12  2  0
 11 13  1  0
 13 14  1  0
 14 15  1  0
 15 16  1  0
 15 17  2  0
 14 18  2  0
 18 19  1  0
 19 20  2  0
 20 21  1  0
 21 22  2  0
 22 23  1  0
 23 24  1  0
 23 25  1  0
 22 26  1  0
 26 27  2  0
 27 13  1  0
 27 19  1  0
  1 28  1  0
  1 29  1  0
  1 30  1  0
  3 31  1  0
  3 32  1  0
  4 33  1  0
  4 34  1  0
  9 35  1  0
  9 36  1  0
 16 37  1  0
 16 38  1  0
 18 39  1  0
 20 40  1  0
 21 41  1  0
 24 42  1  0
 24 43  1  0
 24 44  1  0
 25 45  1  0
 25 46  1  0
 25 47  1  0
 26 48  1  0
M  END
>  <smiles>  (23) 
COCCOC(=O)OCOC(=O)n1c(C(N)=O)cc2ccc(N(C)C)cc21

>  <score_type>  (23) 
oracle

>  <origin>  (23) 
adg

>  <m_score__min__energy>  (23) 
-6.5899999999999999

>  <m_primary>  (23) 
energy

$$$$
23:0
     RDKit          3D

 43 44  0  0  0  0  0  0  0  0999 V2000
  141.9910  156.7080  134.6280 C   0  0  0  0  0  0  0  0  0  0  0  0
  143.0370  157.6800  134.1970 C   0  0  0  0  0  0  0  0  0  0  0  0
  142.6620  158.9850  133.9700 C   0  0  0  0  0  0  0  0  0  0  0  0
  143.6350  159.8720  133.5740 C   0  0  0  0  0  0  0  0  0  0  0  0
  144.9380  159.4390  133.4150 C   0  0  0  0  0  0  0  0  0  0  0  0
  146.0350  160.1470  133.0340 C   0  0  0  0  0  0  0  0  0  0  0  0
  147.1190  159.2450  133.0250 C   0  0  0  0  0  0  0  0  0  0  0  0
  148.4210  159.7180  132.5910 C   0  0  0  0  0  0  0  0  0  0  0  0
  149.6080  158.9830  132.9950 N   0  0  0  0  0  0  0  0  0  0  0  0
  148.6540  160.7190  131.8830 O   0  0  0  0  0  0  0  0  0  0  0  0
  146.7020  158.0240  133.3940 N   0  0  0  0  0  0  0  0  0  0  0  0
  147.3790  156.8470  133.7110 C   0  0  0  0  0  0  0  0  0  0  0  0
  148.2330  156.9360  134.6800 O   0  0  0  0  0  0  0  0  0  0  0  0
  147.2970  155.5330  133.1290 C   0  0  0  0  0  0  0  0  0  0  0  0
  146.5230  155.1390  132.2310 O   0  0  0  0  0  0  0  0  0  0  0  0
  148.1990  154.4700  133.5910 N   0  0  0  0  0  0  0  0  0  0  0  0
  148.0090  153.2080  132.9270 C   0  0  0  0  0  0  0  0  0  0  0  0
  149.2450  152.6380  132.3600 C   0  0  0  0  0  0  0  0  0  0  0  0
  149.4690  151.2460  132.3950 N   0  0  0  0  0  0  0  0  0  0  0  0
  149.9530  150.8130  133.7250 C   0  0  0  0  0  0  0  0  0  0  0  0
  150.3780  150.6710  131.4560 C   0  0  0  0  0  0  0  0  0  0  0  0
  145.3500  158.1530  133.6290 C   0  0  0  0  0  0  0  0  0  0  0  0
  144.3640  157.2600  134.0300 C   0  0  0  0  0  0  0  0  0  0  0  0
  141.9534  156.6730  135.7268 H   0  0  0  0  0  0  0  0  0  0  0  0
  141.0127  157.0250  134.2375 H   0  0  0  0  0  0  0  0  0  0  0  0
  142.2355  155.7091  134.2375 H   0  0  0  0  0  0  0  0  0  0  0  0
  141.6185  159.3074  134.1011 H   0  0  0  0  0  0  0  0  0  0  0  0
  143.3770  160.9243  133.3841 H   0  0  0  0  0  0  0  0  0  0  0  0
  146.0700  161.2171  132.7815 H   0  0  0  0  0  0  0  0  0  0  0  0
  150.4750  158.9880  132.4520 H   0  0  0  0  0  0  0  0  0  0  0  0
  149.5870  158.4130  133.8910 H   0  0  0  0  0  0  0  0  0  0  0  0
  148.8630  154.6880  134.3400 H   0  0  0  0  0  0  0  0  0  0  0  0
  147.5998  152.4920  133.6550 H   0  0  0  0  0  0  0  0  0  0  0  0
  147.3263  153.3908  132.0841 H   0  0  0  0  0  0  0  0  0  0  0  0
  149.2738  152.9361  131.3015 H   0  0  0  0  0  0  0  0  0  0  0  0
  150.0286  153.0332  133.0232 H   0  0  0  0  0  0  0  0  0  0  0  0
  149.3784  151.3271  134.5095 H   0  0  0  0  0  0  0  0  0  0  0  0
  149.8214  149.7257  133.8270 H   0  0  0  0  0  0  0  0  0  0  0  0
  151.0190  151.0644  133.8270 H   0  0  0  0  0  0  0  0  0  0  0  0
  151.1878  150.1587  131.9961 H   0  0  0  0  0  0  0  0  0  0  0  0
  149.8431  149.9466  130.8242 H   0  0  0  0  0  0  0  0  0  0  0  0
  150.8034  151.4647  130.8242 H   0  0  0  0  0  0  0  0  0  0  0  0
  144.6282  156.2091  134.2190 H   0  0  0  0  0  0  0  0  0  0  0  0
  1  2  1  0
  2  3  2  0
  3  4  1  0
  4  5  2  0
  5  6  1  0
  6  7  2  0
  7  8  1  0
  8  9  1  0
  8 10  2  0
  7 11  1  0
 11 12  1  0
 12 13  2  0
 12 14  1  0
 14 15  2  0
 14 16  1  0
 16 17  1  0
 17 18  1  0
 18 19  1  0
 19 20  1  0
 19 21  1  0
 11 22  1  0
 22 23  2  0
 23  2  1  0
 22  5  1  0
  1 24  1  0
  1 25  1  0
  1 26  1  0
  3 27  1  0
  4 28  1  0
  6 29  1  0
  9 30  1  0
  9 31  1  0
 16 32  1  0
 17 33  1  0
 17 34  1  0
 18 35  1  0
 18 36  1  0
 20 37  1  0
 20 38  1  0
 20 39  1  0
 21 40  1  0
 21 41  1  0
 21 42  1  0
 23 43  1  0
M  END
>  <smiles>  (24) 
Cc1ccc2cc(C(N)=O)n(C(=O)C(=O)NCCN(C)C)c2c1

>  <score_type>  (24) 
oracle

>  <origin>  (24) 
adg

>  <m_score__min__energy>  (24) 
-7.8300000000000001

>  <m_primary>  (24) 
energy

$$$$
24:0
     RDKit          3D

 35 36  0  0  0  0  0  0  0  0999 V2000
  146.0940  151.4120  132.4890 N   0  0  0  0  0  0  0  0  0  0  0  0
  145.1750  152.5220  132.6140 C   0  0  0  0  0  0  0  0  0  0  0  0
  143.9670  152.2060  132.5330 O   0  0  0  0  0  0  0  0  0  0  0  0
  145.6970  153.8570  132.8150 C   0  0  0  0  0  0  0  0  0  0  0  0
  144.8560  154.9610  133.0140 C   0  0  0  0  0  0  0  0  0  0  0  0
  145.6200  156.0920  133.1750 C   0  0  0  0  0  0  0  0  0  0  0  0
  145.2680  157.4080  133.3960 C   0  0  0  0  0  0  0  0  0  0  0  0
  146.2660  158.3510  133.5220 C   0  0  0  0  0  0  0  0  0  0  0  0
  147.5890  157.9770  133.4270 C   0  0  0  0  0  0  0  0  0  0  0  0
  148.6700  158.9870  133.5600 C   0  0  0  0  0  0  0  0  0  0  0  0
  149.2780  159.2700  132.2300 C   0  0  0  0  0  0  0  0  0  0  0  0
  149.3280  160.4280  131.7370 O   0  0  0  0  0  0  0  0  0  0  0  0
  149.8040  158.1940  131.5310 O   0  0  0  0  0  0  0  0  0  0  0  0
  147.9000  156.6400  133.2030 C   0  0  0  0  0  0  0  0  0  0  0  0
  146.9280  155.6660  133.0730 C   0  0  0  0  0  0  0  0  0  0  0  0
  146.9560  154.3170  132.8560 N   0  0  0  0  0  0  0  0  0  0  0  0
  148.1430  153.5610  132.7030 C   0  0  0  0  0  0  0  0  0  0  0  0
  149.0020  153.7400  131.8060 O   0  0  0  0  0  0  0  0  0  0  0  0
  148.4230  152.5240  133.5920 O   0  0  0  0  0  0  0  0  0  0  0  0
  149.5220  151.6520  133.3650 C   0  0  0  0  0  0  0  0  0  0  0  0
  149.3230  150.9000  132.1210 C   0  0  0  0  0  0  0  0  0  0  0  0
  150.1760  150.0320  131.8110 O   0  0  0  0  0  0  0  0  0  0  0  0
  148.2520  151.0840  131.2600 O   0  0  0  0  0  0  0  0  0  0  0  0
  147.0220  151.4620  132.9870 H   0  0  0  0  0  0  0  0  0  0  0  0
  145.8700  150.5720  131.9290 H   0  0  0  0  0  0  0  0  0  0  0  0
  143.7568  154.9272  133.0376 H   0  0  0  0  0  0  0  0  0  0  0  0
  144.2099  157.6995  133.4703 H   0  0  0  0  0  0  0  0  0  0  0  0
  146.0054  159.4049  133.6989 H   0  0  0  0  0  0  0  0  0  0  0  0
  148.2499  159.9163  133.9723 H   0  0  0  0  0  0  0  0  0  0  0  0
  149.4466  158.5942  134.2327 H   0  0  0  0  0  0  0  0  0  0  0  0
  149.1770  157.5160  131.1210 H   0  0  0  0  0  0  0  0  0  0  0  0
  148.9576  156.3472  133.1266 H   0  0  0  0  0  0  0  0  0  0  0  0
  150.4459  152.2441  133.2879 H   0  0  0  0  0  0  0  0  0  0  0  0
  149.5984  150.9446  134.2039 H   0  0  0  0  0  0  0  0  0  0  0  0
  147.8020  152.0040  131.2350 H   0  0  0  0  0  0  0  0  0  0  0  0
  1  2  1  0
  2  3  2  0
  2  4  1  0
  4  5  2  0
  5  6  1  0
  6  7  2  0
  7  8  1  0
  8  9  2  0
  9 10  1  0
 10 11  1  0
 11 12  2  0
 11 13  1  0
  9 14  1  0
 14 15  2  0
 15 16  1  0
 16 17  1  0
 17 18  2  0
 17 19  1  0
 19 20  1  0
 20 21  1  0
 21 22  2  0
 21 23  1  0
 16  4  1  0
 15  6  1  0
  1 24  1  0
  1 25  1  0
  5 26  1  0
  7 27  1  0
  8 28  1  0
 10 29  1  0
 10 30  1  0
 13 31  1  0
 14 32  1  0
 20 33  1  0
 20 34  1  0
 23 35  1  0
M  END
>  <smiles>  (25) 
NC(=O)c1cc2ccc(CC(=O)O)cc2n1C(=O)OCC(=O)O

>  <score_type>  (25) 
oracle

>  <origin>  (25) 
adg

>  <m_score__min__energy>  (25) 
-6.3399999999999999

>  <m_primary>  (25) 
energy

$$$$
25:0
     RDKit          3D

 48 49  0  0  0  0  0  0  0  0999 V2000
  136.4750  160.1120  130.5050 C   0  0  0  0  0  0  0  0  0  0  0  0
  137.2260  159.3840  131.4850 O   0  0  0  0  0  0  0  0  0  0  0  0
  138.5800  159.1710  131.1720 C   0  0  0  0  0  0  0  0  0  0  0  0
  138.8810  158.0240  130.7890 O   0  0  0  0  0  0  0  0  0  0  0  0
  139.4860  160.3140  131.3290 C   0  0  0  0  0  0  0  0  0  0  0  0
  139.7170  160.5310  132.7140 O   0  0  0  0  0  0  0  0  0  0  0  0
  140.9670  160.2600  133.2700 C   0  0  0  0  0  0  0  0  0  0  0  0
  141.6660  161.3110  133.4600 O   0  0  0  0  0  0  0  0  0  0  0  0
  141.4860  159.0050  133.6150 N   0  0  0  0  0  0  0  0  0  0  0  0
  140.8290  157.9030  134.0330 C   0  0  0  0  0  0  0  0  0  0  0  0
  139.4370  157.6560  134.2550 C   0  0  0  0  0  0  0  0  0  0  0  0
  138.5010  157.0920  133.3600 N   0  0  0  0  0  0  0  0  0  0  0  0
  138.9310  157.9720  135.3970 O   0  0  0  0  0  0  0  0  0  0  0  0
  141.8080  156.9290  134.2420 C   0  0  0  0  0  0  0  0  0  0  0  0
  143.0300  157.4340  133.9550 C   0  0  0  0  0  0  0  0  0  0  0  0
  144.2820  156.8660  134.0060 C   0  0  0  0  0  0  0  0  0  0  0  0
  145.3800  157.6300  133.6500 C   0  0  0  0  0  0  0  0  0  0  0  0
  145.2350  158.9280  133.2530 C   0  0  0  0  0  0  0  0  0  0  0  0
  146.3620  159.7300  132.8970 N   0  0  0  0  0  0  0  0  0  0  0  0
  147.6510  159.6440  133.4820 C   0  0  0  0  0  0  0  0  0  0  0  0
  148.7580  160.1200  132.5730 C   0  0  0  0  0  0  0  0  0  0  0  0
  148.2740  160.3090  131.2140 N   0  0  0  0  0  0  0  0  0  0  0  0
  148.7940  161.6170  130.7860 C   0  0  0  0  0  0  0  0  0  0  0  0
  148.8430  159.3570  130.2830 C   0  0  0  0  0  0  0  0  0  0  0  0
  143.9480  159.4600  133.2170 C   0  0  0  0  0  0  0  0  0  0  0  0
  142.8280  158.7370  133.5610 C   0  0  0  0  0  0  0  0  0  0  0  0
  135.7738  160.7918  131.0111 H   0  0  0  0  0  0  0  0  0  0  0  0
  137.1626  160.6963  129.8759 H   0  0  0  0  0  0  0  0  0  0  0  0
  135.9123  159.4066  129.8759 H   0  0  0  0  0  0  0  0  0  0  0  0
  140.4400  160.1011  130.8244 H   0  0  0  0  0  0  0  0  0  0  0  0
  139.0347  161.2117  130.8812 H   0  0  0  0  0  0  0  0  0  0  0  0
  138.3310  156.0420  133.3340 H   0  0  0  0  0  0  0  0  0  0  0  0
  137.9630  157.7440  132.7130 H   0  0  0  0  0  0  0  0  0  0  0  0
  141.6142  155.9032  134.5886 H   0  0  0  0  0  0  0  0  0  0  0  0
  144.4085  155.8208  134.3248 H   0  0  0  0  0  0  0  0  0  0  0  0
  146.3850  157.1843  133.6876 H   0  0  0  0  0  0  0  0  0  0  0  0
  146.2110  160.4510  132.1270 H   0  0  0  0  0  0  0  0  0  0  0  0
  147.6610  160.2587  134.3942 H   0  0  0  0  0  0  0  0  0  0  0  0
  147.8402  158.5811  133.6929 H   0  0  0  0  0  0  0  0  0  0  0  0
  149.1480  161.0762  132.9519 H   0  0  0  0  0  0  0  0  0  0  0  0
  149.5510  159.3578  132.5590 H   0  0  0  0  0  0  0  0  0  0  0  0
  149.0351  162.2234  131.6716 H   0  0  0  0  0  0  0  0  0  0  0  0
  149.7025  161.4710  130.1832 H   0  0  0  0  0  0  0  0  0  0  0  0
  148.0333  162.1346  130.1832 H   0  0  0  0  0  0  0  0  0  0  0  0
  149.3292  158.5436  130.8416 H   0  0  0  0  0  0  0  0  0  0  0  0
  148.0451  158.9413  129.6501 H   0  0  0  0  0  0  0  0  0  0  0  0
  149.5870  159.8629  129.6501 H   0  0  0  0  0  0  0  0  0  0  0  0
  143.8208  160.5054  132.8992 H   0  0  0  0  0  0  0  0  0  0  0  0
  1  2  1  0
  2  3  1  0
  3  4  2  0
  3  5  1  0
  5  6  1  0
  6  7  1  0
  7  8  2  0
  7  9  1  0
  9 10  1  0
 10 11  1  0
 11 12  1  0
 11 13  2  0
 10 14  2  0
 14 15  1  0
 15 16  2  0
 16 17  1  0
 17 18  2  0
 18 19  1  0
 19 20  1  0
 20 21  1  0
 21 22  1  0
 22 23  1  0
 22 24  1  0
 18 25  1  0
 25 26  2  0
 26  9  1  0
 26 15  1  0
  1 27  1  0
  1 28  1  0
  1 29  1  0
  5 30  1  0
  5 31  1  0
 12 32  1  0
 12 33  1  0
 14 34  1  0
 16 35  1  0
 17 36  1  0
 19 37  1  0
 20 38  1  0
 20 39  1  0
 21 40  1  0
 21 41  1  0
 23 42  1  0
 23 43  1  0
 23 44  1  0
 24 45  1  0
 24 46  1  0
 24 47  1  0
 25 48  1  0
M  END
>  <smiles>  (26) 
COC(=O)COC(=O)n1c(C(N)=O)cc2ccc(NCCN(C)C)cc21

>  <score_type>  (26) 
oracle

>  <origin>  (26) 
adg

>  <m_score__min__energy>  (26) 
-7.0099999999999998

>  <m_primary>  (26) 
energy

$$$$
26:0
     RDKit          3D

 36 37  0  0  0  0  0  0  0  0999 V2000
  141.6650  156.0380  133.4150 N   0  0  0  0  0  0  0  0  0  0  0  0
  141.8490  157.4340  133.7570 C   0  0  0  0  0  0  0  0  0  0  0  0
  140.8160  158.0210  134.1160 O   0  0  0  0  0  0  0  0  0  0  0  0
  143.1760  158.0030  133.6540 C   0  0  0  0  0  0  0  0  0  0  0  0
  143.4210  159.3780  133.8050 C   0  0  0  0  0  0  0  0  0  0  0  0
  144.7640  159.6280  133.6560 C   0  0  0  0  0  0  0  0  0  0  0  0
  145.4920  160.8050  133.7130 C   0  0  0  0  0  0  0  0  0  0  0  0
  146.8560  160.7570  133.5220 C   0  0  0  0  0  0  0  0  0  0  0  0
  147.4620  159.5640  133.2790 C   0  0  0  0  0  0  0  0  0  0  0  0
  148.9410  159.5380  133.0750 C   0  0  0  0  0  0  0  0  0  0  0  0
  149.2590  158.7150  131.8580 C   0  0  0  0  0  0  0  0  0  0  0  0
  149.5670  157.3990  132.2180 O   0  0  0  0  0  0  0  0  0  0  0  0
  146.7060  158.3860  133.2240 C   0  0  0  0  0  0  0  0  0  0  0  0
  145.3390  158.3990  133.4130 C   0  0  0  0  0  0  0  0  0  0  0  0
  144.3650  157.4450  133.4170 N   0  0  0  0  0  0  0  0  0  0  0  0
  144.6190  156.0710  133.1970 C   0  0  0  0  0  0  0  0  0  0  0  0
  144.1660  155.3970  132.2380 O   0  0  0  0  0  0  0  0  0  0  0  0
  145.4330  155.3520  134.0810 O   0  0  0  0  0  0  0  0  0  0  0  0
  146.4380  154.4730  133.5740 C   0  0  0  0  0  0  0  0  0  0  0  0
  147.3860  155.1140  132.6630 C   0  0  0  0  0  0  0  0  0  0  0  0
  148.6310  154.9050  132.8440 O   0  0  0  0  0  0  0  0  0  0  0  0
  146.9840  155.9380  131.6170 O   0  0  0  0  0  0  0  0  0  0  0  0
  141.1450  155.4560  134.1350 H   0  0  0  0  0  0  0  0  0  0  0  0
  142.0210  155.6430  132.5210 H   0  0  0  0  0  0  0  0  0  0  0  0
  142.6541  160.1391  134.0112 H   0  0  0  0  0  0  0  0  0  0  0  0
  144.9890  161.7636  133.9078 H   0  0  0  0  0  0  0  0  0  0  0  0
  147.4524  161.6803  133.5659 H   0  0  0  0  0  0  0  0  0  0  0  0
  149.3105  160.5641  132.9317 H   0  0  0  0  0  0  0  0  0  0  0  0
  149.4274  159.0958  133.9569 H   0  0  0  0  0  0  0  0  0  0  0  0
  148.3875  158.7112  131.1868 H   0  0  0  0  0  0  0  0  0  0  0  0
  150.1296  159.1559  131.3504 H   0  0  0  0  0  0  0  0  0  0  0  0
  148.9720  156.7500  131.7900 H   0  0  0  0  0  0  0  0  0  0  0  0
  147.2128  157.4300  133.0259 H   0  0  0  0  0  0  0  0  0  0  0  0
  147.0004  154.0631  134.4258 H   0  0  0  0  0  0  0  0  0  0  0  0
  145.9177  153.6954  132.9956 H   0  0  0  0  0  0  0  0  0  0  0  0
  146.0310  155.9770  131.2740 H   0  0  0  0  0  0  0  0  0  0  0  0
  1  2  1  0
  2  3  2  0
  2  4  1  0
  4  5  2  0
  5  6  1  0
  6  7  2  0
  7  8  1  0
  8  9  2  0
  9 10  1  0
 10 11  1  0
 11 12  1  0
  9 13  1  0
 13 14  2  0
 14 15  1  0
 15 16  1  0
 16 17  2  0
 16 18  1  0
 18 19  1  0
 19 20  1  0
 20 21  2  0
 20 22  1  0
 15  4  1  0
 14  6  1  0
  1 23  1  0
  1 24  1  0
  5 25  1  0
  7 26  1  0
  8 27  1  0
 10 28  1  0
 10 29  1  0
 11 30  1  0
 11 31  1  0
 12 32  1  0
 13 33  1  0
 19 34  1  0
 19 35  1  0
 22 36  1  0
M  END
>  <smiles>  (27) 
NC(=O)c1cc2ccc(CCO)cc2n1C(=O)OCC(=O)O

>  <score_type>  (27) 
oracle

>  <origin>  (27) 
adg

>  <m_score__min__energy>  (27) 
-6.5899999999999999

>  <m_primary>  (27) 
energy

$$$$
27:0
     RDKit          3D

 42 44  0  0  0  0  0  0  0  0999 V2000
  142.0900  153.0770  135.4390 C   0  0  0  0  0  0  0  0  0  0  0  0
  141.7480  153.5880  134.1390 N   0  0  0  0  0  0  0  0  0  0  0  0
  141.8590  152.5530  133.0620 C   0  0  0  0  0  0  0  0  0  0  0  0
  141.0760  151.3330  133.3600 C   0  0  0  0  0  0  0  0  0  0  0  0
  141.2020  150.0320  132.7220 C   0  0  0  0  0  0  0  0  0  0  0  0
  140.0840  150.9670  132.2380 C   0  0  0  0  0  0  0  0  0  0  0  0
  141.3690  154.8480  133.7170 C   0  0  0  0  0  0  0  0  0  0  0  0
  140.2480  154.8180  133.0090 O   0  0  0  0  0  0  0  0  0  0  0  0
  141.8490  156.1550  133.8480 N   0  0  0  0  0  0  0  0  0  0  0  0
  141.0060  157.2300  133.9630 C   0  0  0  0  0  0  0  0  0  0  0  0
  139.5760  157.3290  134.1910 C   0  0  0  0  0  0  0  0  0  0  0  0
  138.5430  156.9040  133.3350 N   0  0  0  0  0  0  0  0  0  0  0  0
  139.1450  157.8530  135.2930 O   0  0  0  0  0  0  0  0  0  0  0  0
  141.7830  158.3990  133.9310 C   0  0  0  0  0  0  0  0  0  0  0  0
  143.0780  158.0500  133.7990 C   0  0  0  0  0  0  0  0  0  0  0  0
  144.2100  158.8300  133.6950 C   0  0  0  0  0  0  0  0  0  0  0  0
  145.4510  158.2620  133.5290 C   0  0  0  0  0  0  0  0  0  0  0  0
  145.5100  156.8910  133.4700 C   0  0  0  0  0  0  0  0  0  0  0  0
  146.8480  156.2280  133.2860 C   0  0  0  0  0  0  0  0  0  0  0  0
  147.2520  155.5850  134.4440 F   0  0  0  0  0  0  0  0  0  0  0  0
  146.8070  155.3160  132.2710 F   0  0  0  0  0  0  0  0  0  0  0  0
  148.1080  157.5110  132.7990 P   0  0  0  0  0  0  0  0  0  0  0  0
  144.3660  156.1270  133.5760 C   0  0  0  0  0  0  0  0  0  0  0  0
  143.1060  156.6610  133.7480 C   0  0  0  0  0  0  0  0  0  0  0  0
  141.6558  153.7258  136.2139 H   0  0  0  0  0  0  0  0  0  0  0  0
  141.6915  152.0576  135.5487 H   0  0  0  0  0  0  0  0  0  0  0  0
  143.1843  153.0567  135.5487 H   0  0  0  0  0  0  0  0  0  0  0  0
  141.4921  152.9852  132.1193 H   0  0  0  0  0  0  0  0  0  0  0  0
  142.9168  152.2599  132.9904 H   0  0  0  0  0  0  0  0  0  0  0  0
  141.0978  151.5742  134.4330 H   0  0  0  0  0  0  0  0  0  0  0  0
  142.0622  149.8277  132.0675 H   0  0  0  0  0  0  0  0  0  0  0  0
  141.2276  148.9966  133.0925 H   0  0  0  0  0  0  0  0  0  0  0  0
  140.1482  151.4534  131.2535 H   0  0  0  0  0  0  0  0  0  0  0  0
  138.9912  150.9129  132.1250 H   0  0  0  0  0  0  0  0  0  0  0  0
  137.7390  157.5280  133.0270 H   0  0  0  0  0  0  0  0  0  0  0  0
  138.4800  155.9190  132.9330 H   0  0  0  0  0  0  0  0  0  0  0  0
  141.3991  159.4274  134.0018 H   0  0  0  0  0  0  0  0  0  0  0  0
  144.1188  159.9250  133.7457 H   0  0  0  0  0  0  0  0  0  0  0  0
  146.3579  158.8791  133.4470 H   0  0  0  0  0  0  0  0  0  0  0  0
  148.6140  157.1290  131.4870 H   0  0  0  0  0  0  0  0  0  0  0  0
  149.2260  157.4850  133.7310 H   0  0  0  0  0  0  0  0  0  0  0  0
  144.4641  155.0328  133.5203 H   0  0  0  0  0  0  0  0  0  0  0  0
  1  2  1  0
  2  3  1  0
  3  4  1  0
  4  5  1  0
  5  6  1  0
  2  7  1  0
  7  8  2  0
  7  9  1  0
  9 10  1  0
 10 11  1  0
 11 12  1  0
 11 13  2  0
 10 14  2  0
 14 15  1  0
 15 16  2  0
 16 17  1  0
 17 18  2  0
 18 19  1  0
 19 20  1  0
 19 21  1  0
 19 22  1  0
 18 23  1  0
 23 24  2  0
  6  4  1  0
 24  9  1  0
 24 15  1  0
  1 25  1  0
  1 26  1  0
  1 27  1  0
  3 28  1  0
  3 29  1  0
  4 30  1  0
  5 31  1  0
  5 32  1  0
  6 33  1  0
  6 34  1  0
 12 35  1  0
 12 36  1  0
 14 37  1  0
 16 38  1  0
 17 39  1  0
 22 40  1  0
 22 41  1  0
 23 42  1  0
M  END
>  <smiles>  (28) 
CN(CC1CC1)C(=O)n1c(C(N)=O)cc2ccc(C(F)(F)P)cc21

>  <score_type>  (28) 
oracle

>  <origin>  (28) 
adg

>  <m_score__min__energy>  (28) 
-8.5099999999999998

>  <m_primary>  (28) 
energy

$$$$
28:0
     RDKit          3D

 37 38  0  0  0  0  0  0  0  0999 V2000
  140.5780  158.9600  132.5760 C   0  0  0  0  0  0  0  0  0  0  0  0
  140.8180  159.3650  133.9980 C   0  0  0  0  0  0  0  0  0  0  0  0
  141.9520  158.5860  134.5820 C   0  0  0  0  0  0  0  0  0  0  0  0
  143.2830  159.0980  134.1560 C   0  0  0  0  0  0  0  0  0  0  0  0
  143.5190  160.4430  134.1220 C   0  0  0  0  0  0  0  0  0  0  0  0
  144.7540  160.8990  133.7250 C   0  0  0  0  0  0  0  0  0  0  0  0
  145.7350  159.9980  133.3670 C   0  0  0  0  0  0  0  0  0  0  0  0
  147.0260  160.1700  132.9440 C   0  0  0  0  0  0  0  0  0  0  0  0
  147.6220  158.9240  132.7030 C   0  0  0  0  0  0  0  0  0  0  0  0
  148.9810  158.7920  132.2450 C   0  0  0  0  0  0  0  0  0  0  0  0
  149.5960  157.4820  132.2280 N   0  0  0  0  0  0  0  0  0  0  0  0
  149.7230  159.7160  131.8430 O   0  0  0  0  0  0  0  0  0  0  0  0
  146.6820  158.0130  132.9860 N   0  0  0  0  0  0  0  0  0  0  0  0
  146.8180  156.6070  132.8950 C   0  0  0  0  0  0  0  0  0  0  0  0
  146.0500  155.8440  132.2650 O   0  0  0  0  0  0  0  0  0  0  0  0
  147.8850  155.9510  133.5440 O   0  0  0  0  0  0  0  0  0  0  0  0
  148.5180  154.8460  133.0060 C   0  0  0  0  0  0  0  0  0  0  0  0
  149.5290  155.0470  132.2850 O   0  0  0  0  0  0  0  0  0  0  0  0
  147.9800  153.4910  133.3010 C   0  0  0  0  0  0  0  0  0  0  0  0
  146.7640  153.2910  132.7070 F   0  0  0  0  0  0  0  0  0  0  0  0
  148.9200  152.5180  132.9660 F   0  0  0  0  0  0  0  0  0  0  0  0
  147.7700  153.4490  134.6800 F   0  0  0  0  0  0  0  0  0  0  0  0
  145.5390  158.6250  133.3880 C   0  0  0  0  0  0  0  0  0  0  0  0
  144.2900  158.2000  133.7900 C   0  0  0  0  0  0  0  0  0  0  0  0
  140.0173  158.0139  132.5539 H   0  0  0  0  0  0  0  0  0  0  0  0
  139.9975  159.7422  132.0649 H   0  0  0  0  0  0  0  0  0  0  0  0
  141.5429  158.8265  132.0649 H   0  0  0  0  0  0  0  0  0  0  0  0
  141.0603  160.4374  134.0326 H   0  0  0  0  0  0  0  0  0  0  0  0
  139.9091  159.1615  134.5832 H   0  0  0  0  0  0  0  0  0  0  0  0
  141.8886  158.6416  135.6788 H   0  0  0  0  0  0  0  0  0  0  0  0
  141.8639  157.5509  134.2202 H   0  0  0  0  0  0  0  0  0  0  0  0
  142.7298  161.1535  134.4090 H   0  0  0  0  0  0  0  0  0  0  0  0
  144.9590  161.9793  133.6930 H   0  0  0  0  0  0  0  0  0  0  0  0
  147.5225  161.1427  132.8126 H   0  0  0  0  0  0  0  0  0  0  0  0
  149.7160  157.0420  133.1670 H   0  0  0  0  0  0  0  0  0  0  0  0
  149.8900  157.0350  131.3290 H   0  0  0  0  0  0  0  0  0  0  0  0
  144.0796  157.1208  133.8237 H   0  0  0  0  0  0  0  0  0  0  0  0
  1  2  1  0
  2  3  1  0
  3  4  1  0
  4  5  2  0
  5  6  1  0
  6  7  2  0
  7  8  1  0
  8  9  2  0
  9 10  1  0
 10 11  1  0
 10 12  2  0
  9 13  1  0
 13 14  1  0
 14 15  2  0
 14 16  1  0
 16 17  1  0
 17 18  2  0
 17 19  1  0
 19 20  1  0
 19 21  1  0
 19 22  1  0
 13 23  1  0
 23 24  2  0
 24  4  1  0
 23  7  1  0
  1 25  1  0
  1 26  1  0
  1 27  1  0
  2 28  1  0
  2 29  1  0
  3 30  1  0
  3 31  1  0
  5 32  1  0
  6 33  1  0
  8 34  1  0
 11 35  1  0
 11 36  1  0
 24 37  1  0
M  END
>  <smiles>  (29) 
CCCc1ccc2cc(C(N)=O)n(C(=O)OC(=O)C(F)(F)F)c2c1

>  <score_type>  (29) 
oracle

>  <origin>  (29) 
adg

>  <m_score__min__energy>  (29) 
-6.9199999999999999

>  <m_primary>  (29) 
energy

$$$$
29:0
     RDKit          3D

 45 46  0  0  1  0  0  0  0  0999 V2000
  140.5960  156.7690  132.9980 C   0  0  0  0  0  0  0  0  0  0  0  0
  139.9820  158.0890  133.3260 C   0  0  0  0  0  0  0  0  0  0  0  0
  139.6350  158.8510  132.0400 C   0  0  0  0  0  0  0  0  0  0  0  0
  138.7360  157.8730  134.1410 C   0  0  0  0  0  0  0  0  0  0  0  0
  140.9110  159.0030  134.0940 C   0  0  2  0  0  0  0  0  0  0  0  0
  141.6560  159.8560  133.1630 N   0  0  0  0  0  0  0  0  0  0  0  0
  141.8840  158.2350  134.8900 C   0  0  0  0  0  0  0  0  0  0  0  0
  141.4050  157.3850  135.7040 O   0  0  0  0  0  0  0  0  0  0  0  0
  143.2560  158.3600  134.8230 O   0  0  0  0  0  0  0  0  0  0  0  0
  143.9940  157.9200  133.7420 C   0  0  0  0  0  0  0  0  0  0  0  0
  143.5240  158.2830  132.6040 O   0  0  0  0  0  0  0  0  0  0  0  0
  145.1590  157.1450  133.7820 N   0  0  0  0  0  0  0  0  0  0  0  0
  145.3650  155.9120  134.2740 C   0  0  0  0  0  0  0  0  0  0  0  0
  144.4200  155.0470  134.9570 C   0  0  0  0  0  0  0  0  0  0  0  0
  143.6410  155.5930  136.0530 N   0  0  0  0  0  0  0  0  0  0  0  0
  144.1960  153.8590  134.7000 O   0  0  0  0  0  0  0  0  0  0  0  0
  146.6960  155.5350  134.0610 C   0  0  0  0  0  0  0  0  0  0  0  0
  147.3000  156.5860  133.4190 C   0  0  0  0  0  0  0  0  0  0  0  0
  148.6030  156.7160  132.9880 C   0  0  0  0  0  0  0  0  0  0  0  0
  149.0020  157.8740  132.3570 C   0  0  0  0  0  0  0  0  0  0  0  0
  148.0800  158.8660  132.1770 C   0  0  0  0  0  0  0  0  0  0  0  0
  148.5270  160.1190  131.4910 C   0  0  0  0  0  0  0  0  0  0  0  0
  149.9160  160.1400  131.4140 F   0  0  0  0  0  0  0  0  0  0  0  0
  148.0200  160.1420  130.2060 F   0  0  0  0  0  0  0  0  0  0  0  0
  148.0970  161.1870  132.2370 F   0  0  0  0  0  0  0  0  0  0  0  0
  146.7620  158.7220  132.6180 C   0  0  0  0  0  0  0  0  0  0  0  0
  146.3490  157.5500  133.2610 C   0  0  0  0  0  0  0  0  0  0  0  0
  140.8430  156.2380  133.9291 H   0  0  0  0  0  0  0  0  0  0  0  0
  139.8844  156.1692  132.4115 H   0  0  0  0  0  0  0  0  0  0  0  0
  141.5131  156.9268  132.4115 H   0  0  0  0  0  0  0  0  0  0  0  0
  139.1919  159.8240  132.2986 H   0  0  0  0  0  0  0  0  0  0  0  0
  140.5496  159.0098  131.4498 H   0  0  0  0  0  0  0  0  0  0  0  0
  138.9148  158.2654  131.4498 H   0  0  0  0  0  0  0  0  0  0  0  0
  138.9859  157.9163  135.2114 H   0  0  0  0  0  0  0  0  0  0  0  0
  138.0021  158.6573  133.9038 H   0  0  0  0  0  0  0  0  0  0  0  0
  138.3089  156.8874  133.9038 H   0  0  0  0  0  0  0  0  0  0  0  0
  140.2904  159.6115  134.7682 H   0  0  0  0  0  0  0  0  0  0  0  0
  142.6050  159.9770  133.5900 H   0  0  0  0  0  0  0  0  0  0  0  0
  141.8200  159.3940  132.2460 H   0  0  0  0  0  0  0  0  0  0  0  0
  143.9550  155.4580  137.0390 H   0  0  0  0  0  0  0  0  0  0  0  0
  142.7730  156.1110  135.7810 H   0  0  0  0  0  0  0  0  0  0  0  0
  147.1652  154.5834  134.3513 H   0  0  0  0  0  0  0  0  0  0  0  0
  149.3214  155.8984  133.1473 H   0  0  0  0  0  0  0  0  0  0  0  0
  150.0375  157.9968  132.0067 H   0  0  0  0  0  0  0  0  0  0  0  0
  146.0420  159.5381  132.4581 H   0  0  0  0  0  0  0  0  0  0  0  0
  1  2  1  0
  2  3  1  0
  2  4  1  0
  2  5  1  0
  5  6  1  0
  5  7  1  0
  7  8  2  0
  7  9  1  0
  9 10  1  0
 10 11  2  0
 10 12  1  0
 12 13  1  0
 13 14  1  0
 14 15  1  0
 14 16  2  0
 13 17  2  0
 17 18  1  0
 18 19  2  0
 19 20  1  0
 20 21  2  0
 21 22  1  0
 22 23  1  0
 22 24  1  0
 22 25  1  0
 21 26  1  0
 26 27  2  0
 27 12  1  0
 27 18  1  0
  1 28  1  0
  1 29  1  0
  1 30  1  0
  3 31  1  0
  3 32  1  0
  3 33  1  0
  4 34  1  0
  4 35  1  0
  4 36  1  0
  5 37  1  1
  6 38  1  0
  6 39  1  0
 15 40  1  0
 15 41  1  0
 17 42  1  0
 19 43  1  0
 20 44  1  0
 26 45  1  0
M  END
>  <smiles>  (30) 
CC(C)(C)C(N)C(=O)OC(=O)n1c(C(N)=O)cc2ccc(C(F)(F)F)cc21

>  <score_type>  (30) 
oracle

>  <origin>  (30) 
adg

>  <m_score__min__energy>  (30) 
-7.9000000000000004

>  <m_primary>  (30) 
energy

$$$$
30:0
     RDKit          3D

 44 45  0  0  0  0  0  0  0  0999 V2000
  140.7890  158.6810  135.5950 C   0  0  0  0  0  0  0  0  0  0  0  0
  141.4420  158.3520  134.3300 N   0  0  0  0  0  0  0  0  0  0  0  0
  140.7320  157.4590  133.4530 C   0  0  0  0  0  0  0  0  0  0  0  0
  139.2550  157.6810  133.5160 C   0  0  0  0  0  0  0  0  0  0  0  0
  138.4310  156.7610  133.7280 O   0  0  0  0  0  0  0  0  0  0  0  0
  138.8180  158.9990  133.3230 O   0  0  0  0  0  0  0  0  0  0  0  0
  139.2440  159.7400  132.2220 C   0  0  0  0  0  0  0  0  0  0  0  0
  140.2220  160.5400  132.3150 O   0  0  0  0  0  0  0  0  0  0  0  0
  138.4910  159.5380  130.9550 C   0  0  0  0  0  0  0  0  0  0  0  0
  138.7540  158.3090  130.4010 F   0  0  0  0  0  0  0  0  0  0  0  0
  137.1340  159.7340  131.2190 F   0  0  0  0  0  0  0  0  0  0  0  0
  138.8710  160.4950  130.0050 F   0  0  0  0  0  0  0  0  0  0  0  0
  142.7140  158.9190  134.0390 C   0  0  0  0  0  0  0  0  0  0  0  0
  142.9510  160.2770  134.0220 C   0  0  0  0  0  0  0  0  0  0  0  0
  144.1930  160.8100  133.7400 C   0  0  0  0  0  0  0  0  0  0  0  0
  145.2100  159.9220  133.4710 C   0  0  0  0  0  0  0  0  0  0  0  0
  146.5260  160.1480  133.1630 C   0  0  0  0  0  0  0  0  0  0  0  0
  147.1740  158.9190  132.9730 C   0  0  0  0  0  0  0  0  0  0  0  0
  148.5760  158.8310  132.6340 C   0  0  0  0  0  0  0  0  0  0  0  0
  149.2020  157.5290  132.5340 N   0  0  0  0  0  0  0  0  0  0  0  0
  149.3450  159.7920  132.4070 O   0  0  0  0  0  0  0  0  0  0  0  0
  146.2420  157.9780  133.1690 N   0  0  0  0  0  0  0  0  0  0  0  0
  146.4270  156.5760  133.0830 C   0  0  0  0  0  0  0  0  0  0  0  0
  145.7400  155.8000  133.8370 O   0  0  0  0  0  0  0  0  0  0  0  0
  147.3010  155.9280  132.2410 O   0  0  0  0  0  0  0  0  0  0  0  0
  148.1530  154.9150  132.6390 C   0  0  0  0  0  0  0  0  0  0  0  0
  149.4160  155.0790  132.5620 O   0  0  0  0  0  0  0  0  0  0  0  0
  147.5790  153.6240  133.1610 C   0  0  0  0  0  0  0  0  0  0  0  0
  148.3980  152.5850  132.7930 F   0  0  0  0  0  0  0  0  0  0  0  0
  146.3350  153.3730  132.6160 F   0  0  0  0  0  0  0  0  0  0  0  0
  147.5130  153.7110  134.5390 F   0  0  0  0  0  0  0  0  0  0  0  0
  145.0530  158.5540  133.4690 C   0  0  0  0  0  0  0  0  0  0  0  0
  143.7840  158.0830  133.7600 C   0  0  0  0  0  0  0  0  0  0  0  0
  141.4270  158.3596  136.4314 H   0  0  0  0  0  0  0  0  0  0  0  0
  140.6283  159.7677  135.6530 H   0  0  0  0  0  0  0  0  0  0  0  0
  139.8201  158.1635  135.6530 H   0  0  0  0  0  0  0  0  0  0  0  0
  141.0740  157.6261  132.4210 H   0  0  0  0  0  0  0  0  0  0  0  0
  140.9378  156.4272  133.7741 H   0  0  0  0  0  0  0  0  0  0  0  0
  142.1188  160.9620  134.2415 H   0  0  0  0  0  0  0  0  0  0  0  0
  144.3625  161.8968  133.7307 H   0  0  0  0  0  0  0  0  0  0  0  0
  146.9994  161.1373  133.0782 H   0  0  0  0  0  0  0  0  0  0  0  0
  149.1080  157.0470  131.6090 H   0  0  0  0  0  0  0  0  0  0  0  0
  149.7020  157.1330  133.3450 H   0  0  0  0  0  0  0  0  0  0  0  0
  143.6172  156.9958  133.7703 H   0  0  0  0  0  0  0  0  0  0  0  0
  1  2  1  0
  2  3  1  0
  3  4  1  0
  4  5  2  0
  4  6  1  0
  6  7  1  0
  7  8  2  0
  7  9  1  0
  9 10  1  0
  9 11  1  0
  9 12  1  0
  2 13  1  0
 13 14  2  0
 14 15  1  0
 15 16  2  0
 16 17  1  0
 17 18  2  0
 18 19  1  0
 19 20  1  0
 19 21  2  0
 18 22  1  0
 22 23  1  0
 23 24  2  0
 23 25  1  0
 25 26  1  0
 26 27  2  0
 26 28  1  0
 28 29  1  0
 28 30  1  0
 28 31  1  0
 22 32  1  0
 32 33  2  0
 33 13  1  0
 32 16  1  0
  1 34  1  0
  1 35  1  0
  1 36  1  0
  3 37  1  0
  3 38  1  0
 14 39  1  0
 15 40  1  0
 17 41  1  0
 20 42  1  0
 20 43  1  0
 33 44  1  0
M  END
>  <smiles>  (31) 
CN(CC(=O)OC(=O)C(F)(F)F)c1ccc2cc(C(N)=O)n(C(=O)OC(=O)C(F)(F)F)c2c1

>  <score_type>  (31) 
oracle

>  <origin>  (31) 
adg

>  <m_score__min__energy>  (31) 
-7.1699999999999999

>  <m_primary>  (31) 
energy

$$$$
31:0
     RDKit          3D

 44 46  0  0  1  0  0  0  0  0999 V2000
  141.3980  155.6080  133.2850 N   0  0  0  0  0  0  0  0  0  0  0  0
  141.5680  156.9470  133.7970 C   0  0  0  0  0  0  0  0  0  0  0  0
  140.5600  157.4440  134.3210 O   0  0  0  0  0  0  0  0  0  0  0  0
  142.8660  157.5820  133.6620 C   0  0  0  0  0  0  0  0  0  0  0  0
  143.0670  158.9360  133.8660 C   0  0  0  0  0  0  0  0  0  0  0  0
  144.3810  159.2470  133.6700 C   0  0  0  0  0  0  0  0  0  0  0  0
  145.0610  160.4390  133.7530 C   0  0  0  0  0  0  0  0  0  0  0  0
  146.4130  160.4920  133.5040 C   0  0  0  0  0  0  0  0  0  0  0  0
  147.0570  159.3200  133.1710 C   0  0  0  0  0  0  0  0  0  0  0  0
  148.5150  159.3830  132.9040 C   0  0  0  0  0  0  0  0  0  0  0  0
  148.8900  160.4990  132.2170 F   0  0  0  0  0  0  0  0  0  0  0  0
  148.9340  158.2600  132.2140 F   0  0  0  0  0  0  0  0  0  0  0  0
  149.1850  159.3620  134.1220 F   0  0  0  0  0  0  0  0  0  0  0  0
  146.3520  158.1180  133.0920 C   0  0  0  0  0  0  0  0  0  0  0  0
  144.9970  158.0460  133.3380 C   0  0  0  0  0  0  0  0  0  0  0  0
  144.0640  157.0580  133.3400 N   0  0  0  0  0  0  0  0  0  0  0  0
  144.3650  155.7230  133.0440 C   0  0  0  0  0  0  0  0  0  0  0  0
  145.3050  155.1740  133.7060 O   0  0  0  0  0  0  0  0  0  0  0  0
  143.7570  154.9240  132.1100 O   0  0  0  0  0  0  0  0  0  0  0  0
  143.3340  153.6080  132.2920 C   0  0  0  0  0  0  0  0  0  0  0  0
  141.9580  153.3990  132.2870 O   0  0  0  0  0  0  0  0  0  0  0  0
  141.2680  152.4490  132.9860 C   0  0  0  0  0  0  0  0  0  0  0  0
  140.9860  152.6700  134.1920 O   0  0  0  0  0  0  0  0  0  0  0  0
  140.8810  151.1920  132.2810 C   0  0  1  0  0  0  0  0  0  0  0  0
  141.2670  149.9930  133.1540 C   0  0  0  0  0  0  0  0  0  0  0  0
  140.4530  148.8970  132.4970 C   0  0  0  0  0  0  0  0  0  0  0  0
  139.3870  149.6450  131.6850 C   0  0  0  0  0  0  0  0  0  0  0  0
  139.4570  151.0140  132.2190 N   0  0  0  0  0  0  0  0  0  0  0  0
  141.5260  155.5060  132.2610 H   0  0  0  0  0  0  0  0  0  0  0  0
  141.1630  154.8170  133.9170 H   0  0  0  0  0  0  0  0  0  0  0  0
  142.2830  159.6554  134.1450 H   0  0  0  0  0  0  0  0  0  0  0  0
  144.5194  161.3582  134.0208 H   0  0  0  0  0  0  0  0  0  0  0  0
  146.9638  161.4420  133.5688 H   0  0  0  0  0  0  0  0  0  0  0  0
  146.8944  157.1990  132.8250 H   0  0  0  0  0  0  0  0  0  0  0  0
  143.7687  153.0009  131.4842 H   0  0  0  0  0  0  0  0  0  0  0  0
  143.6709  153.3271  133.3008 H   0  0  0  0  0  0  0  0  0  0  0  0
  141.3568  151.2553  131.2912 H   0  0  0  0  0  0  0  0  0  0  0  0
  142.3457  149.7839  133.1021 H   0  0  0  0  0  0  0  0  0  0  0  0
  141.0712  150.1271  134.2281 H   0  0  0  0  0  0  0  0  0  0  0  0
  141.0857  148.2849  131.8375 H   0  0  0  0  0  0  0  0  0  0  0  0
  140.0119  148.2063  133.2307 H   0  0  0  0  0  0  0  0  0  0  0  0
  139.6250  149.6278  130.6112 H   0  0  0  0  0  0  0  0  0  0  0  0
  138.3856  149.1984  131.7729 H   0  0  0  0  0  0  0  0  0  0  0  0
  139.1040  150.9270  133.2140 H   0  0  0  0  0  0  0  0  0  0  0  0
  1  2  1  0
  2  3  2  0
  2  4  1  0
  4  5  2  0
  5  6  1  0
  6  7  2  0
  7  8  1  0
  8  9  2  0
  9 10  1  0
 10 11  1  0
 10 12  1  0
 10 13  1  0
  9 14  1  0
 14 15  2  0
 15 16  1  0
 16 17  1  0
 17 18  2  0
 17 19  1  0
 19 20  1  0
 20 21  1  0
 21 22  1  0
 22 23  2  0
 22 24  1  0
 24 25  1  0
 25 26  1  0
 26 27  1  0
 27 28  1  0
 16  4  1  0
 28 24  1  0
 15  6  1  0
  1 29  1  0
  1 30  1  0
  5 31  1  0
  7 32  1  0
  8 33  1  0
 14 34  1  0
 20 35  1  0
 20 36  1  0
 24 37  1  6
 25 38  1  0
 25 39  1  0
 26 40  1  0
 26 41  1  0
 27 42  1  0
 27 43  1  0
 28 44  1  0
M  END
>  <smiles>  (32) 
NC(=O)c1cc2ccc(C(F)(F)F)cc2n1C(=O)OCOC(=O)C1CCCN1

>  <score_type>  (32) 
oracle

>  <origin>  (32) 
adg

>  <m_score__min__energy>  (32) 
-7.5899999999999999

>  <m_primary>  (32) 
energy

$$$$
32:0
     RDKit          3D

 41 42  0  0  1  0  0  0  0  0999 V2000
  145.1090  152.5960  132.2570 C   0  0  0  0  0  0  0  0  0  0  0  0
  145.8920  153.0210  133.4630 C   0  0  2  0  0  0  0  0  0  0  0  0
  145.0080  153.2820  134.4930 F   0  0  0  0  0  0  0  0  0  0  0  0
  146.7070  154.2450  133.1940 C   0  0  0  0  0  0  0  0  0  0  0  0
  148.0340  154.1190  132.8650 C   0  0  0  0  0  0  0  0  0  0  0  0
  148.7710  155.2580  132.6210 C   0  0  0  0  0  0  0  0  0  0  0  0
  148.1660  156.5010  132.7090 C   0  0  0  0  0  0  0  0  0  0  0  0
  148.6520  157.7710  132.5210 C   0  0  0  0  0  0  0  0  0  0  0  0
  147.6380  158.7020  132.7290 C   0  0  0  0  0  0  0  0  0  0  0  0
  147.8300  160.1220  132.6070 C   0  0  0  0  0  0  0  0  0  0  0  0
  146.9910  160.9880  133.4020 N   0  0  0  0  0  0  0  0  0  0  0  0
  148.6470  160.7140  131.8830 O   0  0  0  0  0  0  0  0  0  0  0  0
  146.5300  157.9900  133.0450 N   0  0  0  0  0  0  0  0  0  0  0  0
  145.2410  158.4730  133.3460 C   0  0  0  0  0  0  0  0  0  0  0  0
  144.8120  159.5420  132.7860 O   0  0  0  0  0  0  0  0  0  0  0  0
  144.3210  157.8780  134.2430 N   0  0  0  0  0  0  0  0  0  0  0  0
  143.2000  157.3480  133.8210 C   0  0  0  0  0  0  0  0  0  0  0  0
  142.9690  157.4130  132.4070 N   0  0  0  0  0  0  0  0  0  0  0  0
  142.2690  156.7480  134.7140 N   0  0  0  0  0  0  0  0  0  0  0  0
  141.3440  157.4680  135.5310 C   0  0  0  0  0  0  0  0  0  0  0  0
  142.2570  155.2900  134.7990 C   0  0  0  0  0  0  0  0  0  0  0  0
  146.8360  156.6650  133.0360 C   0  0  0  0  0  0  0  0  0  0  0  0
  146.1230  155.5010  133.2760 C   0  0  0  0  0  0  0  0  0  0  0  0
  144.1844  152.0941  132.5783 H   0  0  0  0  0  0  0  0  0  0  0  0
  144.8556  153.4804  131.6540 H   0  0  0  0  0  0  0  0  0  0  0  0
  145.7125  151.9017  131.6540 H   0  0  0  0  0  0  0  0  0  0  0  0
  146.5836  152.2087  133.7312 H   0  0  0  0  0  0  0  0  0  0  0  0
  148.5013  153.1255  132.7973 H   0  0  0  0  0  0  0  0  0  0  0  0
  149.8361  155.1801  132.3573 H   0  0  0  0  0  0  0  0  0  0  0  0
  149.6886  158.0166  132.2467 H   0  0  0  0  0  0  0  0  0  0  0  0
  147.3410  161.2290  134.3440 H   0  0  0  0  0  0  0  0  0  0  0  0
  146.0780  161.3460  133.0310 H   0  0  0  0  0  0  0  0  0  0  0  0
  143.3510  158.2130  131.8530 H   0  0  0  0  0  0  0  0  0  0  0  0
  142.4280  156.6820  131.8940 H   0  0  0  0  0  0  0  0  0  0  0  0
  141.5746  157.2885  136.5915 H   0  0  0  0  0  0  0  0  0  0  0  0
  141.4243  158.5436  135.3153 H   0  0  0  0  0  0  0  0  0  0  0  0
  140.3210  157.1261  135.3153 H   0  0  0  0  0  0  0  0  0  0  0  0
  142.2545  154.9843  135.8557 H   0  0  0  0  0  0  0  0  0  0  0  0
  141.3556  154.9012  134.3027 H   0  0  0  0  0  0  0  0  0  0  0  0
  143.1519  154.8864  134.3027 H   0  0  0  0  0  0  0  0  0  0  0  0
  145.0579  155.5754  133.5405 H   0  0  0  0  0  0  0  0  0  0  0  0
  1  2  1  0
  2  3  1  0
  2  4  1  0
  4  5  2  0
  5  6  1  0
  6  7  2  0
  7  8  1  0
  8  9  2  0
  9 10  1  0
 10 11  1  0
 10 12  2  0
  9 13  1  0
 13 14  1  0
 14 15  2  0
 14 16  1  0
 16 17  2  0
 17 18  1  0
 17 19  1  0
 19 20  1  0
 19 21  1  0
 13 22  1  0
 22 23  2  0
 23  4  1  0
 22  7  1  0
  1 24  1  0
  1 25  1  0
  1 26  1  0
  2 27  1  1
  5 28  1  0
  6 29  1  0
  8 30  1  0
 11 31  1  0
 11 32  1  0
 18 33  1  0
 18 34  1  0
 20 35  1  0
 20 36  1  0
 20 37  1  0
 21 38  1  0
 21 39  1  0
 21 40  1  0
 23 41  1  0
M  END
>  <smiles>  (33) 
CC(F)c1ccc2cc(C(N)=O)n(C(=O)N=C(N)N(C)C)c2c1

>  <score_type>  (33) 
oracle

>  <origin>  (33) 
adg

>  <m_score__min__energy>  (33) 
-7.7599999999999998

>  <m_primary>  (33) 
energy

$$$$
33:0
     RDKit          3D

 39 40  0  0  0  0  0  0  0  0999 V2000
  149.7330  151.2320  133.8780 C   0  0  0  0  0  0  0  0  0  0  0  0
  149.8530  151.8680  132.5160 C   0  0  0  0  0  0  0  0  0  0  0  0
  148.6820  151.4960  131.6270 C   0  0  0  0  0  0  0  0  0  0  0  0
  149.9410  153.2960  132.5450 N   0  0  0  0  0  0  0  0  0  0  0  0
  148.8330  154.1550  132.8850 C   0  0  0  0  0  0  0  0  0  0  0  0
  147.6940  153.6350  133.4600 C   0  0  0  0  0  0  0  0  0  0  0  0
  146.6700  154.4820  133.7590 C   0  0  0  0  0  0  0  0  0  0  0  0
  146.7630  155.8310  133.4950 C   0  0  0  0  0  0  0  0  0  0  0  0
  145.8830  156.8330  133.7070 C   0  0  0  0  0  0  0  0  0  0  0  0
  146.4590  158.0400  133.2600 C   0  0  0  0  0  0  0  0  0  0  0  0
  145.7460  159.2820  133.3580 C   0  0  0  0  0  0  0  0  0  0  0  0
  146.5160  160.5210  133.3480 N   0  0  0  0  0  0  0  0  0  0  0  0
  144.5230  159.4900  133.4530 O   0  0  0  0  0  0  0  0  0  0  0  0
  147.6940  157.7510  132.7770 N   0  0  0  0  0  0  0  0  0  0  0  0
  148.6720  158.5670  132.2040 C   0  0  0  0  0  0  0  0  0  0  0  0
  149.2950  159.3810  132.9860 O   0  0  0  0  0  0  0  0  0  0  0  0
  149.1340  158.6620  130.8100 C   0  0  0  0  0  0  0  0  0  0  0  0
  149.1660  160.1180  130.3780 C   0  0  0  0  0  0  0  0  0  0  0  0
  150.1700  160.6430  129.8560 O   0  0  0  0  0  0  0  0  0  0  0  0
  148.0370  160.8890  130.5720 O   0  0  0  0  0  0  0  0  0  0  0  0
  147.8790  156.3940  132.9230 C   0  0  0  0  0  0  0  0  0  0  0  0
  148.9100  155.5240  132.6250 C   0  0  0  0  0  0  0  0  0  0  0  0
  149.8775  151.9978  134.6543 H   0  0  0  0  0  0  0  0  0  0  0  0
  148.7344  150.7836  133.9866 H   0  0  0  0  0  0  0  0  0  0  0  0
  150.4996  150.4506  133.9866 H   0  0  0  0  0  0  0  0  0  0  0  0
  150.7971  151.4727  132.1131 H   0  0  0  0  0  0  0  0  0  0  0  0
  147.8195  151.2220  132.2523 H   0  0  0  0  0  0  0  0  0  0  0  0
  148.4167  152.3541  130.9919 H   0  0  0  0  0  0  0  0  0  0  0  0
  148.9605  150.6421  130.9919 H   0  0  0  0  0  0  0  0  0  0  0  0
  150.8530  153.7940  132.3110 H   0  0  0  0  0  0  0  0  0  0  0  0
  147.6133  152.5588  133.6731 H   0  0  0  0  0  0  0  0  0  0  0  0
  145.7540  154.0825  134.2187 H   0  0  0  0  0  0  0  0  0  0  0  0
  144.8836  156.7256  134.1538 H   0  0  0  0  0  0  0  0  0  0  0  0
  146.4260  161.1860  134.1570 H   0  0  0  0  0  0  0  0  0  0  0  0
  147.1500  160.7230  132.5230 H   0  0  0  0  0  0  0  0  0  0  0  0
  150.1445  158.2348  130.7300 H   0  0  0  0  0  0  0  0  0  0  0  0
  148.4441  158.1046  130.1593 H   0  0  0  0  0  0  0  0  0  0  0  0
  147.7230  161.5450  129.8460 H   0  0  0  0  0  0  0  0  0  0  0  0
  149.8255  155.9252  132.1658 H   0  0  0  0  0  0  0  0  0  0  0  0
  1  2  1  0
  2  3  1  0
  2  4  1  0
  4  5  1  0
  5  6  2  0
  6  7  1  0
  7  8  2  0
  8  9  1  0
  9 10  2  0
 10 11  1  0
 11 12  1  0
 11 13  2  0
 10 14  1  0
 14 15  1  0
 15 16  2  0
 15 17  1  0
 17 18  1  0
 18 19  2  0
 18 20  1  0
 14 21  1  0
 21 22  2  0
 22  5  1  0
 21  8  1  0
  1 23  1  0
  1 24  1  0
  1 25  1  0
  2 26  1  0
  3 27  1  0
  3 28  1  0
  3 29  1  0
  4 30  1  0
  6 31  1  0
  7 32  1  0
  9 33  1  0
 12 34  1  0
 12 35  1  0
 17 36  1  0
 17 37  1  0
 20 38  1  0
 22 39  1  0
M  END
>  <smiles>  (34) 
CC(C)Nc1ccc2cc(C(N)=O)n(C(=O)CC(=O)O)c2c1

>  <score_type>  (34) 
oracle

>  <origin>  (34) 
adg

>  <m_score__min__energy>  (34) 
-7.3399999999999999

>  <m_primary>  (34) 
energy

$$$$
34:0
     RDKit          3D

 38 40  0  0  0  0  0  0  0  0999 V2000
  149.2050  157.5570  132.3680 N   0  0  0  0  0  0  0  0  0  0  0  0
  148.6500  158.8460  132.7660 C   0  0  0  0  0  0  0  0  0  0  0  0
  149.4870  159.7460  132.8620 O   0  0  0  0  0  0  0  0  0  0  0  0
  147.2220  158.9180  132.9990 C   0  0  0  0  0  0  0  0  0  0  0  0
  146.6420  160.1910  133.2250 C   0  0  0  0  0  0  0  0  0  0  0  0
  145.3230  159.9930  133.4600 C   0  0  0  0  0  0  0  0  0  0  0  0
  144.3300  160.9110  133.7300 C   0  0  0  0  0  0  0  0  0  0  0  0
  143.0320  160.5090  133.9370 C   0  0  0  0  0  0  0  0  0  0  0  0
  142.7700  159.1610  133.8620 C   0  0  0  0  0  0  0  0  0  0  0  0
  141.4280  158.6920  134.0710 N   0  0  0  0  0  0  0  0  0  0  0  0
  140.6270  158.3020  132.9160 C   0  0  0  0  0  0  0  0  0  0  0  0
  139.1850  158.1060  133.2980 C   0  0  0  0  0  0  0  0  0  0  0  0
  139.1820  157.2600  134.4200 O   0  0  0  0  0  0  0  0  0  0  0  0
  139.5830  157.9550  135.5350 C   0  0  0  0  0  0  0  0  0  0  0  0
  140.9190  158.6230  135.4280 C   0  0  0  0  0  0  0  0  0  0  0  0
  143.7860  158.2440  133.5870 C   0  0  0  0  0  0  0  0  0  0  0  0
  145.0980  158.6370  133.3790 C   0  0  0  0  0  0  0  0  0  0  0  0
  146.2700  157.9800  133.0910 N   0  0  0  0  0  0  0  0  0  0  0  0
  146.3080  156.5830  132.9870 C   0  0  0  0  0  0  0  0  0  0  0  0
  145.1820  156.0480  132.6080 O   0  0  0  0  0  0  0  0  0  0  0  0
  147.3490  155.6370  133.2080 C   0  0  0  0  0  0  0  0  0  0  0  0
  148.4070  155.7440  133.8570 O   0  0  0  0  0  0  0  0  0  0  0  0
  147.2110  154.3390  132.6120 O   0  0  0  0  0  0  0  0  0  0  0  0
  149.9180  157.1090  132.9840 H   0  0  0  0  0  0  0  0  0  0  0  0
  148.8920  157.0970  131.4830 H   0  0  0  0  0  0  0  0  0  0  0  0
  147.1650  161.1586  133.2120 H   0  0  0  0  0  0  0  0  0  0  0  0
  144.5804  161.9809  133.7805 H   0  0  0  0  0  0  0  0  0  0  0  0
  142.2353  161.2358  134.1538 H   0  0  0  0  0  0  0  0  0  0  0  0
  140.6921  159.0899  132.1511 H   0  0  0  0  0  0  0  0  0  0  0  0
  141.0173  157.3506  132.5254 H   0  0  0  0  0  0  0  0  0  0  0  0
  138.7235  159.0724  133.5493 H   0  0  0  0  0  0  0  0  0  0  0  0
  138.6091  157.6696  132.4686 H   0  0  0  0  0  0  0  0  0  0  0  0
  138.8308  158.7309  135.7403 H   0  0  0  0  0  0  0  0  0  0  0  0
  139.6794  157.2102  136.3387 H   0  0  0  0  0  0  0  0  0  0  0  0
  140.8274  159.6477  135.8174 H   0  0  0  0  0  0  0  0  0  0  0  0
  141.6299  158.0164  136.0082 H   0  0  0  0  0  0  0  0  0  0  0  0
  143.5365  157.1740  133.5337 H   0  0  0  0  0  0  0  0  0  0  0  0
  146.5110  154.1750  131.8950 H   0  0  0  0  0  0  0  0  0  0  0  0
  1  2  1  0
  2  3  2  0
  2  4  1  0
  4  5  2  0
  5  6  1  0
  6  7  2  0
  7  8  1  0
  8  9  2  0
  9 10  1  0
 10 11  1  0
 11 12  1  0
 12 13  1  0
 13 14  1  0
 14 15  1  0
  9 16  1  0
 16 17  2  0
 17 18  1  0
 18 19  1  0
 19 20  2  0
 19 21  1  0
 21 22  2  0
 21 23  1  0
 18  4  1  0
 17  6  1  0
 15 10  1  0
  1 24  1  0
  1 25  1  0
  5 26  1  0
  7 27  1  0
  8 28  1  0
 11 29  1  0
 11 30  1  0
 12 31  1  0
 12 32  1  0
 14 33  1  0
 14 34  1  0
 15 35  1  0
 15 36  1  0
 16 37  1  0
 23 38  1  0
M  END
>  <smiles>  (35) 
NC(=O)c1cc2ccc(N3CCOCC3)cc2n1C(=O)C(=O)O

>  <score_type>  (35) 
oracle

>  <origin>  (35) 
adg

>  <m_score__min__energy>  (35) 
-7.5800000000000001

>  <m_primary>  (35) 
energy

$$$$
35:0
     RDKit          3D

 38 39  0  0  0  0  0  0  0  0999 V2000
  148.4830  156.7210  132.7780 C   0  0  0  0  0  0  0  0  0  0  0  0
  147.5790  157.8820  133.0210 C   0  0  0  0  0  0  0  0  0  0  0  0
  148.1290  159.1240  133.1710 C   0  0  0  0  0  0  0  0  0  0  0  0
  147.3020  160.2040  133.3950 C   0  0  0  0  0  0  0  0  0  0  0  0
  145.9350  160.0060  133.4640 C   0  0  0  0  0  0  0  0  0  0  0  0
  144.9010  160.8850  133.6740 C   0  0  0  0  0  0  0  0  0  0  0  0
  143.6870  160.1840  133.6540 C   0  0  0  0  0  0  0  0  0  0  0  0
  142.4120  160.8440  133.8470 C   0  0  0  0  0  0  0  0  0  0  0  0
  141.2620  160.0570  134.2170 N   0  0  0  0  0  0  0  0  0  0  0  0
  142.1920  162.0690  133.7240 O   0  0  0  0  0  0  0  0  0  0  0  0
  143.9880  158.8970  133.4360 N   0  0  0  0  0  0  0  0  0  0  0  0
  143.0940  157.8070  133.3350 C   0  0  0  0  0  0  0  0  0  0  0  0
  143.0150  157.1620  132.2300 O   0  0  0  0  0  0  0  0  0  0  0  0
  142.2670  157.3470  134.3320 O   0  0  0  0  0  0  0  0  0  0  0  0
  141.1520  156.5420  134.0120 C   0  0  0  0  0  0  0  0  0  0  0  0
  139.9820  157.3690  133.6870 C   0  0  0  0  0  0  0  0  0  0  0  0
  139.5280  158.2860  134.4270 O   0  0  0  0  0  0  0  0  0  0  0  0
  139.3220  157.1420  132.4980 O   0  0  0  0  0  0  0  0  0  0  0  0
  138.7400  158.2090  131.7790 C   0  0  0  0  0  0  0  0  0  0  0  0
  139.5660  159.4290  131.8220 C   0  0  0  0  0  0  0  0  0  0  0  0
  139.0060  160.5570  131.9990 O   0  0  0  0  0  0  0  0  0  0  0  0
  140.9360  159.3990  131.6750 O   0  0  0  0  0  0  0  0  0  0  0  0
  145.3420  158.7700  133.3180 C   0  0  0  0  0  0  0  0  0  0  0  0
  146.1950  157.7040  133.0940 C   0  0  0  0  0  0  0  0  0  0  0  0
  148.8091  156.3022  133.7415 H   0  0  0  0  0  0  0  0  0  0  0  0
  147.9447  155.9504  132.2066 H   0  0  0  0  0  0  0  0  0  0  0  0
  149.3620  157.0540  132.2066 H   0  0  0  0  0  0  0  0  0  0  0  0
  149.2190  159.2604  133.1137 H   0  0  0  0  0  0  0  0  0  0  0  0
  147.7247  161.2121  133.5175 H   0  0  0  0  0  0  0  0  0  0  0  0
  145.0083  161.9682  133.8328 H   0  0  0  0  0  0  0  0  0  0  0  0
  140.3850  160.1890  133.6650 H   0  0  0  0  0  0  0  0  0  0  0  0
  141.3130  159.3700  135.0200 H   0  0  0  0  0  0  0  0  0  0  0  0
  141.3998  155.9125  133.1446 H   0  0  0  0  0  0  0  0  0  0  0  0
  140.9086  155.9175  134.8842 H   0  0  0  0  0  0  0  0  0  0  0  0
  138.6161  157.9026  130.7299 H   0  0  0  0  0  0  0  0  0  0  0  0
  137.7719  158.4414  132.2468 H   0  0  0  0  0  0  0  0  0  0  0  0
  141.4670  158.5420  131.5730 H   0  0  0  0  0  0  0  0  0  0  0  0
  145.7748  156.6949  132.9708 H   0  0  0  0  0  0  0  0  0  0  0  0
  1  2  1  0
  2  3  2  0
  3  4  1  0
  4  5  2  0
  5  6  1  0
  6  7  2  0
  7  8  1  0
  8  9  1  0
  8 10  2  0
  7 11  1  0
 11 12  1  0
 12 13  2  0
 12 14  1  0
 14 15  1  0
 15 16  1  0
 16 17  2  0
 16 18  1  0
 18 19  1  0
 19 20  1  0
 20 21  2  0
 20 22  1  0
 11 23  1  0
 23 24  2  0
 24  2  1  0
 23  5  1  0
  1 25  1  0
  1 26  1  0
  1 27  1  0
  3 28  1  0
  4 29  1  0
  6 30  1  0
  9 31  1  0
  9 32  1  0
 15 33  1  0
 15 34  1  0
 19 35  1  0
 19 36  1  0
 22 37  1  0
 24 38  1  0
M  END
>  <smiles>  (36) 
Cc1ccc2cc(C(N)=O)n(C(=O)OCC(=O)OCC(=O)O)c2c1

>  <score_type>  (36) 
oracle

>  <origin>  (36) 
adg

>  <m_score__min__energy>  (36) 
-6.54

>  <m_primary>  (36) 
energy

$$$$
36:0
     RDKit          3D

 58 59  0  0  1  0  0  0  0  0999 V2000
  141.4620  159.3500  136.0510 C   0  0  0  0  0  0  0  0  0  0  0  0
  142.1830  158.4910  135.1260 N   0  0  0  0  0  0  0  0  0  0  0  0
  143.3420  158.9870  134.4500 C   0  0  0  0  0  0  0  0  0  0  0  0
  143.4320  160.3180  134.1480 C   0  0  0  0  0  0  0  0  0  0  0  0
  144.5530  160.7750  133.4990 C   0  0  0  0  0  0  0  0  0  0  0  0
  145.5500  159.8810  133.1720 C   0  0  0  0  0  0  0  0  0  0  0  0
  146.7360  160.1080  132.5350 C   0  0  0  0  0  0  0  0  0  0  0  0
  147.4050  158.8690  132.4390 C   0  0  0  0  0  0  0  0  0  0  0  0
  148.7190  158.8150  131.8350 C   0  0  0  0  0  0  0  0  0  0  0  0
  149.8120  158.2320  132.6000 N   0  0  0  0  0  0  0  0  0  0  0  0
  149.0590  159.2160  130.7070 O   0  0  0  0  0  0  0  0  0  0  0  0
  146.6450  157.9150  133.0000 N   0  0  0  0  0  0  0  0  0  0  0  0
  146.7650  156.5160  133.0520 C   0  0  0  0  0  0  0  0  0  0  0  0
  147.9190  156.0070  132.8580 O   0  0  0  0  0  0  0  0  0  0  0  0
  145.7550  155.5630  133.3060 N   0  0  0  0  0  0  0  0  0  0  0  0
  146.0120  154.1450  133.2740 C   0  0  0  0  0  0  0  0  0  0  0  0
  147.1640  153.7850  133.0130 O   0  0  0  0  0  0  0  0  0  0  0  0
  145.0100  153.2690  133.5230 O   0  0  0  0  0  0  0  0  0  0  0  0
  143.8780  152.9700  132.7710 C   0  0  0  0  0  0  0  0  0  0  0  0
  142.5510  153.1510  133.4100 C   0  0  1  0  0  0  0  0  0  0  0  0
  141.7790  154.2680  132.9270 N   0  0  0  0  0  0  0  0  0  0  0  0
  142.0030  155.5330  133.5340 C   0  0  0  0  0  0  0  0  0  0  0  0
  142.8380  155.6400  134.4420 O   0  0  0  0  0  0  0  0  0  0  0  0
  141.2630  156.6070  133.0710 O   0  0  0  0  0  0  0  0  0  0  0  0
  139.8610  156.6950  133.2250 C   0  0  0  0  0  0  0  0  0  0  0  0
  139.2400  157.7560  132.3520 C   0  0  0  0  0  0  0  0  0  0  0  0
  139.6090  157.1330  134.6540 C   0  0  0  0  0  0  0  0  0  0  0  0
  139.1850  155.3810  133.0080 C   0  0  0  0  0  0  0  0  0  0  0  0
  141.7610  151.9130  133.0670 C   0  0  0  0  0  0  0  0  0  0  0  0
  142.1330  150.7960  133.5050 O   0  0  0  0  0  0  0  0  0  0  0  0
  140.6230  151.9630  132.2750 O   0  0  0  0  0  0  0  0  0  0  0  0
  145.5110  158.5430  133.4500 C   0  0  0  0  0  0  0  0  0  0  0  0
  144.3680  158.0960  134.1090 C   0  0  0  0  0  0  0  0  0  0  0  0
  141.7044  159.0612  137.0844 H   0  0  0  0  0  0  0  0  0  0  0  0
  141.7560  160.3968  135.8843 H   0  0  0  0  0  0  0  0  0  0  0  0
  140.3801  159.2420  135.8843 H   0  0  0  0  0  0  0  0  0  0  0  0
  141.8560  157.5220  134.9560 H   0  0  0  0  0  0  0  0  0  0  0  0
  142.6213  161.0099  134.4200 H   0  0  0  0  0  0  0  0  0  0  0  0
  144.6538  161.8402  133.2436 H   0  0  0  0  0  0  0  0  0  0  0  0
  147.1023  161.0770  132.1651 H   0  0  0  0  0  0  0  0  0  0  0  0
  149.6870  157.2830  132.9810 H   0  0  0  0  0  0  0  0  0  0  0  0
  150.6660  158.8270  132.7130 H   0  0  0  0  0  0  0  0  0  0  0  0
  144.8060  155.8400  133.5200 H   0  0  0  0  0  0  0  0  0  0  0  0
  143.9007  153.6100  131.8766 H   0  0  0  0  0  0  0  0  0  0  0  0
  143.9488  151.8882  132.5850 H   0  0  0  0  0  0  0  0  0  0  0  0
  142.7291  153.3318  134.4803 H   0  0  0  0  0  0  0  0  0  0  0  0
  141.0870  154.0960  132.1670 H   0  0  0  0  0  0  0  0  0  0  0  0
  138.7857  158.5322  132.9853 H   0  0  0  0  0  0  0  0  0  0  0  0
  140.0158  158.2086  131.7169 H   0  0  0  0  0  0  0  0  0  0  0  0
  138.4655  157.3012  131.7169 H   0  0  0  0  0  0  0  0  0  0  0  0
  140.0356  156.3915  135.3454 H   0  0  0  0  0  0  0  0  0  0  0  0
  140.0827  158.1106  134.8268 H   0  0  0  0  0  0  0  0  0  0  0  0
  138.5257  157.2148  134.8268 H   0  0  0  0  0  0  0  0  0  0  0  0
  138.9501  154.9244  133.9808 H   0  0  0  0  0  0  0  0  0  0  0  0
  138.2549  155.5363  132.4417 H   0  0  0  0  0  0  0  0  0  0  0  0
  139.8522  154.7145  132.4417 H   0  0  0  0  0  0  0  0  0  0  0  0
  140.6130  152.1330  131.2970 H   0  0  0  0  0  0  0  0  0  0  0  0
  144.2698  157.0306  134.3647 H   0  0  0  0  0  0  0  0  0  0  0  0
  1  2  1  0
  2  3  1  0
  3  4  2  0
  4  5  1  0
  5  6  2  0
  6  7  1  0
  7  8  2  0
  8  9  1  0
  9 10  1  0
  9 11  2  0
  8 12  1  0
 12 13  1  0
 13 14  2  0
 13 15  1  0
 15 16  1  0
 16 17  2  0
 16 18  1  0
 18 19  1  0
 19 20  1  0
 20 21  1  0
 21 22  1  0
 22 23  2  0
 22 24  1  0
 24 25  1  0
 25 26  1  0
 25 27  1  0
 25 28  1  0
 20 29  1  0
 29 30  2  0
 29 31  1  0
 12 32  1  0
 32 33  2  0
 33  3  1  0
 32  6  1  0
  1 34  1  0
  1 35  1  0
  1 36  1  0
  2 37  1  0
  4 38  1  0
  5 39  1  0
  7 40  1  0
 10 41  1  0
 10 42  1  0
 15 43  1  0
 19 44  1  0
 19 45  1  0
 20 46  1  1
 21 47  1  0
 26 48  1  0
 26 49  1  0
 26 50  1  0
 27 51  1  0
 27 52  1  0
 27 53  1  0
 28 54  1  0
 28 55  1  0
 28 56  1  0
 31 57  1  0
 33 58  1  0
M  END
>  <smiles>  (37) 
CNc1ccc2cc(C(N)=O)n(C(=O)NC(=O)OCC(NC(=O)OC(C)(C)C)C(=O)O)c2c1

>  <score_type>  (37) 
oracle

>  <origin>  (37) 
adg

>  <m_score__min__energy>  (37) 
-9.3699999999999992

>  <m_primary>  (37) 
energy

$$$$
37:0
     RDKit          3D

 39 40  0  0  0  0  0  0  0  0999 V2000
  141.5390  159.4470  134.4290 C   0  0  0  0  0  0  0  0  0  0  0  0
  142.9750  159.7190  134.0760 C   0  0  0  0  0  0  0  0  0  0  0  0
  143.4500  161.0120  134.0620 C   0  0  0  0  0  0  0  0  0  0  0  0
  144.7660  161.2130  133.7350 C   0  0  0  0  0  0  0  0  0  0  0  0
  145.5840  160.1510  133.4300 C   0  0  0  0  0  0  0  0  0  0  0  0
  146.9140  160.0940  133.0770 C   0  0  0  0  0  0  0  0  0  0  0  0
  147.2800  158.7560  132.8660 C   0  0  0  0  0  0  0  0  0  0  0  0
  148.6210  158.3930  132.4850 C   0  0  0  0  0  0  0  0  0  0  0  0
  149.2120  157.1190  132.5060 N   0  0  0  0  0  0  0  0  0  0  0  0
  149.3830  159.3380  132.0720 O   0  0  0  0  0  0  0  0  0  0  0  0
  146.1800  158.0250  133.0920 N   0  0  0  0  0  0  0  0  0  0  0  0
  146.0540  156.6290  133.0060 C   0  0  0  0  0  0  0  0  0  0  0  0
  145.0550  155.9570  133.3590 O   0  0  0  0  0  0  0  0  0  0  0  0
  147.1060  155.8600  132.4890 O   0  0  0  0  0  0  0  0  0  0  0  0
  147.1580  154.4690  132.7250 C   0  0  0  0  0  0  0  0  0  0  0  0
  148.5400  153.9380  132.5970 C   0  0  0  0  0  0  0  0  0  0  0  0
  149.5690  154.6570  132.6740 O   0  0  0  0  0  0  0  0  0  0  0  0
  148.6880  152.5410  132.3760 N   0  0  0  0  0  0  0  0  0  0  0  0
  150.0300  152.0210  132.2520 C   0  0  0  0  0  0  0  0  0  0  0  0
  147.5740  151.6440  132.2750 C   0  0  0  0  0  0  0  0  0  0  0  0
  145.1510  158.8490  133.4330 C   0  0  0  0  0  0  0  0  0  0  0  0
  143.8190  158.6460  133.7640 C   0  0  0  0  0  0  0  0  0  0  0  0
  141.4280  159.4260  135.5232 H   0  0  0  0  0  0  0  0  0  0  0  0
  140.9021  160.2405  134.0110 H   0  0  0  0  0  0  0  0  0  0  0  0
  141.2363  158.4756  134.0110 H   0  0  0  0  0  0  0  0  0  0  0  0
  142.7921  161.8590  134.3062 H   0  0  0  0  0  0  0  0  0  0  0  0
  145.1719  162.2352  133.7165 H   0  0  0  0  0  0  0  0  0  0  0  0
  147.5838  160.9608  132.9763 H   0  0  0  0  0  0  0  0  0  0  0  0
  149.1280  156.5270  131.6330 H   0  0  0  0  0  0  0  0  0  0  0  0
  149.7290  156.7670  133.3650 H   0  0  0  0  0  0  0  0  0  0  0  0
  146.7918  154.2667  133.7423 H   0  0  0  0  0  0  0  0  0  0  0  0
  146.5297  153.9710  131.9719 H   0  0  0  0  0  0  0  0  0  0  0  0
  150.4536  151.8568  133.2538 H   0  0  0  0  0  0  0  0  0  0  0  0
  150.0046  151.0676  131.7039 H   0  0  0  0  0  0  0  0  0  0  0  0
  150.6536  152.7426  131.7039 H   0  0  0  0  0  0  0  0  0  0  0  0
  147.2322  151.3688  133.2837 H   0  0  0  0  0  0  0  0  0  0  0  0
  146.7543  152.1371  131.7319 H   0  0  0  0  0  0  0  0  0  0  0  0
  147.8809  150.7380  131.7319 H   0  0  0  0  0  0  0  0  0  0  0  0
  143.4180  157.6219  133.7817 H   0  0  0  0  0  0  0  0  0  0  0  0
  1  2  1  0
  2  3  2  0
  3  4  1  0
  4  5  2  0
  5  6  1  0
  6  7  2  0
  7  8  1  0
  8  9  1  0
  8 10  2  0
  7 11  1  0
 11 12  1  0
 12 13  2  0
 12 14  1  0
 14 15  1  0
 15 16  1  0
 16 17  2  0
 16 18  1  0
 18 19  1  0
 18 20  1  0
 11 21  1  0
 21 22  2  0
 22  2  1  0
 21  5  1  0
  1 23  1  0
  1 24  1  0
  1 25  1  0
  3 26  1  0
  4 27  1  0
  6 28  1  0
  9 29  1  0
  9 30  1  0
 15 31  1  0
 15 32  1  0
 19 33  1  0
 19 34  1  0
 19 35  1  0
 20 36  1  0
 20 37  1  0
 20 38  1  0
 22 39  1  0
M  END
>  <smiles>  (38) 
Cc1ccc2cc(C(N)=O)n(C(=O)OCC(=O)N(C)C)c2c1

>  <score_type>  (38) 
oracle

>  <origin>  (38) 
adg

>  <m_score__min__energy>  (38) 
-6.8799999999999999

>  <m_primary>  (38) 
energy

$$$$
38:0
     RDKit          3D

 32 33  0  0  0  0  0  0  0  0999 V2000
  148.9000  156.4680  132.6810 N   0  0  0  0  0  0  0  0  0  0  0  0
  147.8090  155.9910  133.5340 C   0  0  0  0  0  0  0  0  0  0  0  0
  148.0960  154.9420  134.1270 O   0  0  0  0  0  0  0  0  0  0  0  0
  146.5900  156.7540  133.5870 C   0  0  0  0  0  0  0  0  0  0  0  0
  145.3450  156.1220  133.7310 C   0  0  0  0  0  0  0  0  0  0  0  0
  144.3760  157.0700  133.7490 C   0  0  0  0  0  0  0  0  0  0  0  0
  143.0120  156.9450  133.8850 C   0  0  0  0  0  0  0  0  0  0  0  0
  142.1900  158.0370  133.9000 C   0  0  0  0  0  0  0  0  0  0  0  0
  142.7740  159.2720  133.7750 C   0  0  0  0  0  0  0  0  0  0  0  0
  141.9020  160.4750  133.7900 C   0  0  0  0  0  0  0  0  0  0  0  0
  140.9550  160.3450  132.8070 F   0  0  0  0  0  0  0  0  0  0  0  0
  142.6830  161.6110  133.6240 F   0  0  0  0  0  0  0  0  0  0  0  0
  141.2530  160.4960  135.0070 F   0  0  0  0  0  0  0  0  0  0  0  0
  144.1570  159.3820  133.6360 C   0  0  0  0  0  0  0  0  0  0  0  0
  144.9960  158.2930  133.6160 C   0  0  0  0  0  0  0  0  0  0  0  0
  146.3440  158.1010  133.5170 N   0  0  0  0  0  0  0  0  0  0  0  0
  147.3400  159.0740  133.2880 C   0  0  0  0  0  0  0  0  0  0  0  0
  148.3300  159.0240  134.0530 O   0  0  0  0  0  0  0  0  0  0  0  0
  147.3610  160.1070  132.2880 C   0  0  0  0  0  0  0  0  0  0  0  0
  148.3910  160.2130  131.4870 C   0  0  0  0  0  0  0  0  0  0  0  0
  149.5870  159.4640  131.3900 C   0  0  0  0  0  0  0  0  0  0  0  0
  150.3620  159.8120  130.3980 O   0  0  0  0  0  0  0  0  0  0  0  0
  150.1290  158.4390  132.1110 O   0  0  0  0  0  0  0  0  0  0  0  0
  149.8780  156.4090  132.9740 H   0  0  0  0  0  0  0  0  0  0  0  0
  148.6390  156.8820  131.7380 H   0  0  0  0  0  0  0  0  0  0  0  0
  145.1825  155.0373  133.8153 H   0  0  0  0  0  0  0  0  0  0  0  0
  142.5726  155.9415  133.9841 H   0  0  0  0  0  0  0  0  0  0  0  0
  141.1006  157.9295  134.0083 H   0  0  0  0  0  0  0  0  0  0  0  0
  144.5967  160.3855  133.5379 H   0  0  0  0  0  0  0  0  0  0  0  0
  146.5156  160.8048  132.1965 H   0  0  0  0  0  0  0  0  0  0  0  0
  148.3122  161.0326  130.7576 H   0  0  0  0  0  0  0  0  0  0  0  0
  149.9530  158.2940  133.1160 H   0  0  0  0  0  0  0  0  0  0  0  0
  1  2  1  0
  2  3  2  0
  2  4  1  0
  4  5  2  0
  5  6  1  0
  6  7  2  0
  7  8  1  0
  8  9  2  0
  9 10  1  0
 10 11  1  0
 10 12  1  0
 10 13  1  0
  9 14  1  0
 14 15  2  0
 15 16  1  0
 16 17  1  0
 17 18  2  0
 17 19  1  0
 19 20  2  0
 20 21  1  0
 21 22  2  0
 21 23  1  0
 16  4  1  0
 15  6  1  0
  1 24  1  0
  1 25  1  0
  5 26  1  0
  7 27  1  0
  8 28  1  0
 14 29  1  0
 19 30  1  0
 20 31  1  0
 23 32  1  0
M  END
>  <smiles>  (39) 
NC(=O)c1cc2ccc(C(F)(F)F)cc2n1C(=O)/C=C\C(=O)O

>  <score_type>  (39) 
oracle

>  <origin>  (39) 
adg

>  <m_score__min__energy>  (39) 
-6.5

>  <m_primary>  (39) 
energy

$$$$
39:0
     RDKit          2D

 43 46  0  0  0  0  0  0  0  0999 V2000
    3.5260   -1.2990    0.0000 C   0  0  0  0  0  0  0  0  0  0  0  0
    2.7760    0.0000    0.0000 C   0  0  0  0  0  0  0  0  0  0  0  0
    3.5260    1.2990    0.0000 O   0  0  0  0  0  0  0  0  0  0  0  0
    1.2760    0.0000    0.0000 N   0  0  0  0  0  0  0  0  0  0  0  0
    0.3943    1.2135    0.0000 C   0  0  0  0  0  0  0  0  0  0  0  0
    0.8578    2.6401    0.0000 C   0  0  0  0  0  0  0  0  0  0  0  0
   -0.1459    3.7548    0.0000 N   0  0  0  0  0  0  0  0  0  0  0  0
    2.3250    2.9520    0.0000 O   0  0  0  0  0  0  0  0  0  0  0  0
   -1.0323    0.7500    0.0000 C   0  0  0  0  0  0  0  0  0  0  0  0
   -1.0323   -0.7500    0.0000 C   0  0  0  0  0  0  0  0  0  0  0  0
   -2.1470   -1.7537    0.0000 C   0  0  0  0  0  0  0  0  0  0  0  0
   -1.8351   -3.2209    0.0000 C   0  0  0  0  0  0  0  0  0  0  0  0
   -0.4086   -3.6844    0.0000 C   0  0  0  0  0  0  0  0  0  0  0  0
   -0.0967   -5.1517    0.0000 N   0  0  0  0  0  0  0  0  0  0  0  0
   -1.2114   -6.1554    0.0000 C   0  0  0  0  0  0  0  0  0  0  0  0
   -0.8995   -7.6226    0.0000 C   0  0  0  0  0  0  0  0  0  0  0  0
   -0.1495   -8.9216    0.0000 C   0  0  0  0  0  0  0  0  0  0  0  0
    1.3177   -8.6098    0.0000 C   0  0  0  0  0  0  0  0  0  0  0  0
    1.4745   -7.1180    0.0000 C   0  0  0  0  0  0  0  0  0  0  0  0
    1.3299   -5.6152    0.0000 C   0  0  0  0  0  0  0  0  0  0  0  0
    0.1042   -6.5079    0.0000 N   0  0  0  0  0  0  0  0  0  0  0  0
    0.7062   -2.6807    0.0000 C   0  0  0  0  0  0  0  0  0  0  0  0
    0.3943   -1.2135    0.0000 C   0  0  0  0  0  0  0  0  0  0  0  0
    4.8250   -0.5490    0.0000 H   0  0  0  0  0  0  0  0  0  0  0  0
    2.2269   -2.0490    0.0000 H   0  0  0  0  0  0  0  0  0  0  0  0
    4.2760   -2.5981    0.0000 H   0  0  0  0  0  0  0  0  0  0  0  0
    0.3177    5.1814    0.0000 H   0  0  0  0  0  0  0  0  0  0  0  0
   -1.6131    3.4430    0.0000 H   0  0  0  0  0  0  0  0  0  0  0  0
   -2.2458    1.6317    0.0000 H   0  0  0  0  0  0  0  0  0  0  0  0
   -3.5736   -1.2902    0.0000 H   0  0  0  0  0  0  0  0  0  0  0  0
   -2.9499   -4.2246    0.0000 H   0  0  0  0  0  0  0  0  0  0  0  0
   -2.6603   -6.5435    0.0000 H   0  0  0  0  0  0  0  0  0  0  0  0
   -2.0063   -4.8833    0.0000 H   0  0  0  0  0  0  0  0  0  0  0  0
   -2.3993   -7.6488    0.0000 H   0  0  0  0  0  0  0  0  0  0  0  0
   -1.5199   -9.5317    0.0000 H   0  0  0  0  0  0  0  0  0  0  0  0
    0.3140  -10.3482    0.0000 H   0  0  0  0  0  0  0  0  0  0  0  0
    1.4745  -10.1015    0.0000 H   0  0  0  0  0  0  0  0  0  0  0  0
    2.8177   -8.6098    0.0000 H   0  0  0  0  0  0  0  0  0  0  0  0
    2.8553   -6.5319    0.0000 H   0  0  0  0  0  0  0  0  0  0  0  0
    1.5387   -4.1298    0.0000 H   0  0  0  0  0  0  0  0  0  0  0  0
    2.8114   -5.3805    0.0000 H   0  0  0  0  0  0  0  0  0  0  0  0
    0.1320   -5.7112    0.0000 H   0  0  0  0  0  0  0  0  0  0  0  0
    2.1328   -3.1443    0.0000 H   0  0  0  0  0  0  0  0  0  0  0  0
  1  2  1  0
  2  3  2  0
  2  4  1  0
  4  5  1  0
  5  6  1  0
  6  7  1  0
  6  8  2  0
  5  9  2  0
  9 10  1  0
 10 11  2  0
 11 12  1  0
 12 13  2  0
 13 14  1  0
 14 15  1  0
 15 16  1  0
 16 17  1  0
 17 18  1  0
 18 19  1  0
 19 20  1  0
 19 21  1  0
 13 22  1  0
 22 23  2  0
 23  4  1  0
 23 10  1  0
 20 14  1  0
 21 16  1  0
  1 24  1  0
  1 25  1  0
  1 26  1  0
  7 27  1  0
  7 28  1  0
  9 29  1  0
 11 30  1  0
 12 31  1  0
 15 32  1  0
 15 33  1  0
 16 34  1  6
 17 35  1  0
 17 36  1  0
 18 37  1  0
 18 38  1  0
 19 39  1  1
 20 40  1  0
 20 41  1  0
 21 42  1  0
 22 43  1  0
M  END
>  <smiles>  (40) 
CC(=O)n1c(C(N)=O)cc2ccc(N3C[C@@H]4CC[C@@H](C3)N4)cc21

>  <m_score__min__energy>  (40) 
nan

>  <m_primary>  (40) 
energy

$$$$
40:0
     RDKit          3D

 47 48  0  0  0  0  0  0  0  0999 V2000
  149.6020  162.6450  129.8210 C   0  0  0  0  0  0  0  0  0  0  0  0
  149.3590  161.6040  130.4070 C   0  0  0  0  0  0  0  0  0  0  0  0
  149.0680  160.3880  131.1200 C   0  0  0  0  0  0  0  0  0  0  0  0
  149.9800  159.3690  131.1690 C   0  0  0  0  0  0  0  0  0  0  0  0
  149.6430  158.2400  131.8600 C   0  0  0  0  0  0  0  0  0  0  0  0
  148.4190  158.1420  132.4840 C   0  0  0  0  0  0  0  0  0  0  0  0
  147.8750  157.1140  133.1830 C   0  0  0  0  0  0  0  0  0  0  0  0
  146.5800  157.4900  133.5980 C   0  0  0  0  0  0  0  0  0  0  0  0
  145.7880  156.5730  134.3860 C   0  0  0  0  0  0  0  0  0  0  0  0
  144.3320  156.7280  134.4410 N   0  0  0  0  0  0  0  0  0  0  0  0
  146.1860  155.6080  135.0720 O   0  0  0  0  0  0  0  0  0  0  0  0
  146.3430  158.7590  133.1410 N   0  0  0  0  0  0  0  0  0  0  0  0
  145.1120  159.3910  133.2820 C   0  0  0  0  0  0  0  0  0  0  0  0
  144.1350  158.6800  132.7290 O   0  0  0  0  0  0  0  0  0  0  0  0
  144.6320  160.5510  133.8490 N   0  0  0  0  0  0  0  0  0  0  0  0
  145.2480  161.7980  134.2090 C   0  0  0  0  0  0  0  0  0  0  0  0
  143.1810  160.5640  134.1560 C   0  0  0  0  0  0  0  0  0  0  0  0
  142.5650  161.5760  133.7380 O   0  0  0  0  0  0  0  0  0  0  0  0
  142.5940  159.5420  134.8390 O   0  0  0  0  0  0  0  0  0  0  0  0
  141.2450  159.5200  135.2500 C   0  0  0  0  0  0  0  0  0  0  0  0
  140.6730  158.2520  135.2350 O   0  0  0  0  0  0  0  0  0  0  0  0
  139.4150  157.9500  134.7010 C   0  0  0  0  0  0  0  0  0  0  0  0
  138.3950  158.2280  135.3830 O   0  0  0  0  0  0  0  0  0  0  0  0
  139.3770  157.3250  133.3640 C   0  0  0  0  0  0  0  0  0  0  0  0
  139.9600  155.9270  133.3710 C   0  0  0  0  0  0  0  0  0  0  0  0
  141.3990  156.0590  133.7310 C   0  0  0  0  0  0  0  0  0  0  0  0
  141.9760  155.2110  134.4950 O   0  0  0  0  0  0  0  0  0  0  0  0
  142.2050  157.0900  133.2740 O   0  0  0  0  0  0  0  0  0  0  0  0
  147.4670  159.1450  132.4630 C   0  0  0  0  0  0  0  0  0  0  0  0
  147.8350  160.2700  131.7580 C   0  0  0  0  0  0  0  0  0  0  0  0
  149.8213  163.5843  129.2922 H   0  0  0  0  0  0  0  0  0  0  0  0
  150.9549  159.4564  130.6672 H   0  0  0  0  0  0  0  0  0  0  0  0
  150.3543  157.4030  131.9186 H   0  0  0  0  0  0  0  0  0  0  0  0
  148.3618  156.1497  133.3911 H   0  0  0  0  0  0  0  0  0  0  0  0
  143.9600  157.7190  134.5100 H   0  0  0  0  0  0  0  0  0  0  0  0
  143.7100  155.8990  134.4120 H   0  0  0  0  0  0  0  0  0  0  0  0
  145.2901  161.8833  135.3049 H   0  0  0  0  0  0  0  0  0  0  0  0
  146.2680  161.8350  133.7989 H   0  0  0  0  0  0  0  0  0  0  0  0
  144.6575  162.6305  133.7989 H   0  0  0  0  0  0  0  0  0  0  0  0
  141.1887  159.9135  136.2757 H   0  0  0  0  0  0  0  0  0  0  0  0
  140.6817  160.1335  134.5315 H   0  0  0  0  0  0  0  0  0  0  0  0
  138.3312  157.2713  133.0273 H   0  0  0  0  0  0  0  0  0  0  0  0
  139.9842  157.9415  132.6848 H   0  0  0  0  0  0  0  0  0  0  0  0
  139.4400  155.3042  134.1138 H   0  0  0  0  0  0  0  0  0  0  0  0
  139.8429  155.4472  132.3881 H   0  0  0  0  0  0  0  0  0  0  0  0
  142.3410  157.9710  133.7920 H   0  0  0  0  0  0  0  0  0  0  0  0
  147.1266  161.1092  131.6963 H   0  0  0  0  0  0  0  0  0  0  0  0
  1  2  3  0
  2  3  1  0
  3  4  2  0
  4  5  1  0
  5  6  2  0
  6  7  1  0
  7  8  2  0
  8  9  1  0
  9 10  1  0
  9 11  2  0
  8 12  1  0
 12 13  1  0
 13 14  2  0
 13 15  1  0
 15 16  1  0
 15 17  1  0
 17 18  2  0
 17 19  1  0
 19 20  1  0
 20 21  1  0
 21 22  1  0
 22 23  2  0
 22 24  1  0
 24 25  1  0
 25 26  1  0
 26 27  2  0
 26 28  1  0
 12 29  1  0
 29 30  2  0
 30  3  1  0
 29  6  1  0
  1 31  1  0
  4 32  1  0
  5 33  1  0
  7 34  1  0
 10 35  1  0
 10 36  1  0
 16 37  1  0
 16 38  1  0
 16 39  1  0
 20 40  1  0
 20 41  1  0
 24 42  1  0
 24 43  1  0
 25 44  1  0
 25 45  1  0
 28 46  1  0
 30 47  1  0
M  END
>  <smiles>  (41) 
C#Cc1ccc2cc(C(N)=O)n(C(=O)N(C)C(=O)OCOC(=O)CCC(=O)O)c2c1

>  <score_type>  (41) 
oracle

>  <origin>  (41) 
adg

>  <m_score__min__energy>  (41) 
-7.04

>  <m_primary>  (41) 
energy

$$$$
41:0
     RDKit          3D

 41 42  0  0  0  0  0  0  0  0999 V2000
  148.7140  153.9910  132.6310 C   0  0  0  0  0  0  0  0  0  0  0  0
  148.3060  155.3170  132.6050 O   0  0  0  0  0  0  0  0  0  0  0  0
  146.9560  155.5130  132.6370 C   0  0  0  0  0  0  0  0  0  0  0  0
  146.3730  156.4840  133.5380 C   0  0  0  0  0  0  0  0  0  0  0  0
  146.1380  155.9860  134.7210 O   0  0  0  0  0  0  0  0  0  0  0  0
  146.0170  157.8300  133.4180 N   0  0  0  0  0  0  0  0  0  0  0  0
  146.9250  158.8190  133.1850 C   0  0  0  0  0  0  0  0  0  0  0  0
  148.3240  158.8150  132.8230 C   0  0  0  0  0  0  0  0  0  0  0  0
  149.0980  157.7170  132.3820 N   0  0  0  0  0  0  0  0  0  0  0  0
  149.0100  159.9180  132.8840 O   0  0  0  0  0  0  0  0  0  0  0  0
  146.2340  160.0500  133.2610 C   0  0  0  0  0  0  0  0  0  0  0  0
  144.9280  159.8030  133.5380 C   0  0  0  0  0  0  0  0  0  0  0  0
  143.8840  160.6790  133.7280 C   0  0  0  0  0  0  0  0  0  0  0  0
  142.6320  160.1660  134.0360 C   0  0  0  0  0  0  0  0  0  0  0  0
  142.4540  158.8020  134.1480 C   0  0  0  0  0  0  0  0  0  0  0  0
  141.1570  158.3330  134.4750 N   0  0  0  0  0  0  0  0  0  0  0  0
  141.0590  157.4770  135.6680 C   0  0  0  0  0  0  0  0  0  0  0  0
  139.9470  158.6010  133.7760 C   0  0  0  0  0  0  0  0  0  0  0  0
  139.5580  157.5200  132.7890 C   0  0  0  0  0  0  0  0  0  0  0  0
  139.1250  156.3520  133.3590 O   0  0  0  0  0  0  0  0  0  0  0  0
  143.5410  157.9760  133.9450 C   0  0  0  0  0  0  0  0  0  0  0  0
  144.8040  158.4320  133.6330 C   0  0  0  0  0  0  0  0  0  0  0  0
  148.8161  153.6592  133.6748 H   0  0  0  0  0  0  0  0  0  0  0  0
  147.9662  153.3672  132.1194 H   0  0  0  0  0  0  0  0  0  0  0  0
  149.6831  153.8955  132.1194 H   0  0  0  0  0  0  0  0  0  0  0  0
  146.6568  155.8079  131.6204 H   0  0  0  0  0  0  0  0  0  0  0  0
  146.5779  154.5568  133.0278 H   0  0  0  0  0  0  0  0  0  0  0  0
  149.9650  157.4950  132.9560 H   0  0  0  0  0  0  0  0  0  0  0  0
  148.9040  157.1260  131.5660 H   0  0  0  0  0  0  0  0  0  0  0  0
  146.6812  161.0449  133.1190 H   0  0  0  0  0  0  0  0  0  0  0  0
  144.0388  161.7643  133.6375 H   0  0  0  0  0  0  0  0  0  0  0  0
  141.7816  160.8463  134.1908 H   0  0  0  0  0  0  0  0  0  0  0  0
  141.1302  158.0990  136.5724 H   0  0  0  0  0  0  0  0  0  0  0  0
  140.0945  156.9482  135.6617 H   0  0  0  0  0  0  0  0  0  0  0  0
  141.8791  156.7439  135.6617 H   0  0  0  0  0  0  0  0  0  0  0  0
  139.1369  158.7055  134.5128 H   0  0  0  0  0  0  0  0  0  0  0  0
  140.1099  159.5209  133.1953 H   0  0  0  0  0  0  0  0  0  0  0  0
  138.7497  157.9112  132.1536 H   0  0  0  0  0  0  0  0  0  0  0  0
  140.4698  157.2712  132.2262 H   0  0  0  0  0  0  0  0  0  0  0  0
  138.3300  155.9970  132.9180 H   0  0  0  0  0  0  0  0  0  0  0  0
  143.3907  156.8903  134.0376 H   0  0  0  0  0  0  0  0  0  0  0  0
  1  2  1  0
  2  3  1  0
  3  4  1  0
  4  5  2  0
  4  6  1  0
  6  7  1  0
  7  8  1  0
  8  9  1  0
  8 10  2  0
  7 11  2  0
 11 12  1  0
 12 13  2  0
 13 14  1  0
 14 15  2  0
 15 16  1  0
 16 17  1  0
 16 18  1  0
 18 19  1  0
 19 20  1  0
 15 21  1  0
 21 22  2  0
 22  6  1  0
 22 12  1  0
  1 23  1  0
  1 24  1  0
  1 25  1  0
  3 26  1  0
  3 27  1  0
  9 28  1  0
  9 29  1  0
 11 30  1  0
 13 31  1  0
 14 32  1  0
 17 33  1  0
 17 34  1  0
 17 35  1  0
 18 36  1  0
 18 37  1  0
 19 38  1  0
 19 39  1  0
 20 40  1  0
 21 41  1  0
M  END
>  <smiles>  (42) 
COCC(=O)n1c(C(N)=O)cc2ccc(N(C)CCO)cc21

>  <score_type>  (42) 
oracle

>  <origin>  (42) 
adg

>  <m_score__min__energy>  (42) 
-6.7199999999999998

>  <m_primary>  (42) 
energy

$$$$
42:0
     RDKit          3D

 37 38  0  0  0  0  0  0  0  0999 V2000
  149.7430  160.4750  129.8420 C   0  0  0  0  0  0  0  0  0  0  0  0
  150.1370  159.9690  131.1450 N   0  0  0  0  0  0  0  0  0  0  0  0
  149.1820  159.2560  131.9170 C   0  0  0  0  0  0  0  0  0  0  0  0
  148.1850  159.9520  132.5480 C   0  0  0  0  0  0  0  0  0  0  0  0
  147.2660  159.2640  133.2910 C   0  0  0  0  0  0  0  0  0  0  0  0
  147.3630  157.8900  133.3870 C   0  0  0  0  0  0  0  0  0  0  0  0
  146.5880  156.9770  134.0540 C   0  0  0  0  0  0  0  0  0  0  0  0
  147.1020  155.6870  133.8410 C   0  0  0  0  0  0  0  0  0  0  0  0
  146.4970  154.5070  134.4180 C   0  0  0  0  0  0  0  0  0  0  0  0
  146.2990  153.3450  133.5920 N   0  0  0  0  0  0  0  0  0  0  0  0
  146.1130  154.3800  135.6030 O   0  0  0  0  0  0  0  0  0  0  0  0
  148.1780  155.8320  133.0510 N   0  0  0  0  0  0  0  0  0  0  0  0
  149.0270  154.8070  132.5660 C   0  0  0  0  0  0  0  0  0  0  0  0
  150.2300  154.9650  132.2450 O   0  0  0  0  0  0  0  0  0  0  0  0
  148.5380  153.5120  132.4140 O   0  0  0  0  0  0  0  0  0  0  0  0
  149.3580  152.4260  132.0540 C   0  0  0  0  0  0  0  0  0  0  0  0
  148.9950  151.1220  132.6830 C   0  0  0  0  0  0  0  0  0  0  0  0
  147.6620  150.6260  132.2670 C   0  0  0  0  0  0  0  0  0  0  0  0
  147.3850  149.3800  132.2270 O   0  0  0  0  0  0  0  0  0  0  0  0
  146.7080  151.5740  131.9150 O   0  0  0  0  0  0  0  0  0  0  0  0
  148.3500  157.1550  132.7680 C   0  0  0  0  0  0  0  0  0  0  0  0
  149.2690  157.8720  132.0220 C   0  0  0  0  0  0  0  0  0  0  0  0
  149.0719  161.3369  129.9710 H   0  0  0  0  0  0  0  0  0  0  0  0
  150.6380  160.7875  129.2840 H   0  0  0  0  0  0  0  0  0  0  0  0
  149.2207  159.6839  129.2840 H   0  0  0  0  0  0  0  0  0  0  0  0
  151.1110  160.1350  131.4930 H   0  0  0  0  0  0  0  0  0  0  0  0
  148.1246  161.0467  132.4584 H   0  0  0  0  0  0  0  0  0  0  0  0
  146.4566  159.8005  133.8077 H   0  0  0  0  0  0  0  0  0  0  0  0
  145.7025  157.2168  134.6609 H   0  0  0  0  0  0  0  0  0  0  0  0
  146.8040  152.4860  133.9140 H   0  0  0  0  0  0  0  0  0  0  0  0
  145.6980  153.3630  132.7390 H   0  0  0  0  0  0  0  0  0  0  0  0
  149.3027  152.3046  130.9621 H   0  0  0  0  0  0  0  0  0  0  0  0
  150.3670  152.6707  132.4173 H   0  0  0  0  0  0  0  0  0  0  0  0
  149.7506  150.3745  132.3996 H   0  0  0  0  0  0  0  0  0  0  0  0
  148.9604  151.2814  133.7708 H   0  0  0  0  0  0  0  0  0  0  0  0
  146.9750  152.4750  131.4910 H   0  0  0  0  0  0  0  0  0  0  0  0
  150.0803  157.3393  131.5044 H   0  0  0  0  0  0  0  0  0  0  0  0
  1  2  1  0
  2  3  1  0
  3  4  2  0
  4  5  1  0
  5  6  2  0
  6  7  1  0
  7  8  2  0
  8  9  1  0
  9 10  1  0
  9 11  2  0
  8 12  1  0
 12 13  1  0
 13 14  2  0
 13 15  1  0
 15 16  1  0
 16 17  1  0
 17 18  1  0
 18 19  2  0
 18 20  1  0
 12 21  1  0
 21 22  2  0
 22  3  1  0
 21  6  1  0
  1 23  1  0
  1 24  1  0
  1 25  1  0
  2 26  1  0
  4 27  1  0
  5 28  1  0
  7 29  1  0
 10 30  1  0
 10 31  1  0
 16 32  1  0
 16 33  1  0
 17 34  1  0
 17 35  1  0
 20 36  1  0
 22 37  1  0
M  END
>  <smiles>  (43) 
CNc1ccc2cc(C(N)=O)n(C(=O)OCCC(=O)O)c2c1

>  <score_type>  (43) 
oracle

>  <origin>  (43) 
adg

>  <m_score__min__energy>  (43) 
-6.46

>  <m_primary>  (43) 
energy

$$$$
43:0
     RDKit          3D

 69 71  0  0  0  0  0  0  0  0999 V2000
  139.7790  149.6440  129.6160 C   0  0  0  0  0  0  0  0  0  0  0  0
  140.0190  149.5010  131.0880 C   0  0  0  0  0  0  0  0  0  0  0  0
  140.1450  148.0100  131.3720 C   0  0  0  0  0  0  0  0  0  0  0  0
  138.7800  149.9660  131.8660 C   0  0  0  0  0  0  0  0  0  0  0  0
  141.1820  150.1190  131.5610 O   0  0  0  0  0  0  0  0  0  0  0  0
  141.3200  150.6780  132.8270 C   0  0  0  0  0  0  0  0  0  0  0  0
  140.9710  150.0030  133.8310 O   0  0  0  0  0  0  0  0  0  0  0  0
  141.8570  152.0050  132.9430 N   0  0  0  0  0  0  0  0  0  0  0  0
  141.1770  153.1640  133.0640 C   0  0  0  0  0  0  0  0  0  0  0  0
  142.0870  154.1550  133.1400 N   0  0  0  0  0  0  0  0  0  0  0  0
  143.3230  153.6260  133.0670 C   0  0  0  0  0  0  0  0  0  0  0  0
  144.5450  154.4270  133.1190 C   0  0  0  0  0  0  0  0  0  0  0  0
  145.7580  153.7780  133.1250 C   0  0  0  0  0  0  0  0  0  0  0  0
  146.8910  154.5530  133.1750 C   0  0  0  0  0  0  0  0  0  0  0  0
  146.8060  155.9250  133.2160 C   0  0  0  0  0  0  0  0  0  0  0  0
  147.7950  156.8650  133.2680 C   0  0  0  0  0  0  0  0  0  0  0  0
  147.1870  158.1360  133.2950 C   0  0  0  0  0  0  0  0  0  0  0  0
  147.9800  159.3350  133.3500 C   0  0  0  0  0  0  0  0  0  0  0  0
  147.2890  160.6130  133.4140 N   0  0  0  0  0  0  0  0  0  0  0  0
  149.2180  159.4590  133.3500 O   0  0  0  0  0  0  0  0  0  0  0  0
  145.8420  157.9590  133.2600 N   0  0  0  0  0  0  0  0  0  0  0  0
  144.7940  158.8830  133.2710 C   0  0  0  0  0  0  0  0  0  0  0  0
  144.9740  159.9830  132.6430 O   0  0  0  0  0  0  0  0  0  0  0  0
  143.4760  158.8010  133.9050 C   0  0  0  0  0  0  0  0  0  0  0  0
  142.6120  157.9880  133.0990 O   0  0  0  0  0  0  0  0  0  0  0  0
  141.0210  158.2980  133.7030 Si  0  0  0  0  0  4  0  0  0  0  0  0
  140.6260  160.0670  133.2370 C   0  0  0  0  0  0  0  0  0  0  0  0
  139.7450  157.2020  132.8970 C   0  0  0  0  0  0  0  0  0  0  0  0
  140.9060  158.0910  135.5390 C   0  0  0  0  0  0  0  0  0  0  0  0
  141.3680  159.3400  136.2710 C   0  0  0  0  0  0  0  0  0  0  0  0
  141.6900  156.8830  135.9990 C   0  0  0  0  0  0  0  0  0  0  0  0
  139.4550  157.8680  135.9080 C   0  0  0  0  0  0  0  0  0  0  0  0
  145.6210  156.6050  133.2120 C   0  0  0  0  0  0  0  0  0  0  0  0
  144.4720  155.8220  133.1620 C   0  0  0  0  0  0  0  0  0  0  0  0
  143.1890  152.2580  132.9420 C   0  0  0  0  0  0  0  0  0  0  0  0
  138.8450  150.2005  129.4491 H   0  0  0  0  0  0  0  0  0  0  0  0
  140.6176  150.1898  129.1591 H   0  0  0  0  0  0  0  0  0  0  0  0
  139.6982  148.6467  129.1591 H   0  0  0  0  0  0  0  0  0  0  0  0
  140.1591  147.8437  132.4593 H   0  0  0  0  0  0  0  0  0  0  0  0
  139.2885  147.4791  130.9309 H   0  0  0  0  0  0  0  0  0  0  0  0
  141.0784  147.6303  130.9309 H   0  0  0  0  0  0  0  0  0  0  0  0
  138.9761  149.8924  132.9459 H   0  0  0  0  0  0  0  0  0  0  0  0
  138.5536  151.0103  131.6048 H   0  0  0  0  0  0  0  0  0  0  0  0
  137.9224  149.3285  131.6048 H   0  0  0  0  0  0  0  0  0  0  0  0
  140.0834  153.2787  133.0949 H   0  0  0  0  0  0  0  0  0  0  0  0
  145.8183  152.6802  133.0910 H   0  0  0  0  0  0  0  0  0  0  0  0
  147.8792  154.0699  133.1823 H   0  0  0  0  0  0  0  0  0  0  0  0
  148.8766  156.6652  133.2857 H   0  0  0  0  0  0  0  0  0  0  0  0
  147.4700  161.1670  134.2830 H   0  0  0  0  0  0  0  0  0  0  0  0
  146.6860  160.8920  132.6330 H   0  0  0  0  0  0  0  0  0  0  0  0
  143.5762  158.3521  134.9042 H   0  0  0  0  0  0  0  0  0  0  0  0
  143.0493  159.8104  133.9999 H   0  0  0  0  0  0  0  0  0  0  0  0
  140.4923  160.6656  134.1501 H   0  0  0  0  0  0  0  0  0  0  0  0
  141.4533  160.4833  132.6435 H   0  0  0  0  0  0  0  0  0  0  0  0
  139.7002  160.0919  132.6435 H   0  0  0  0  0  0  0  0  0  0  0  0
  139.1542  156.6945  133.6738 H   0  0  0  0  0  0  0  0  0  0  0  0
  139.0789  157.8139  132.2709 H   0  0  0  0  0  0  0  0  0  0  0  0
  140.2493  156.4512  132.2709 H   0  0  0  0  0  0  0  0  0  0  0  0
  141.3062  159.1728  137.3565 H   0  0  0  0  0  0  0  0  0  0  0  0
  142.4085  159.5641  135.9932 H   0  0  0  0  0  0  0  0  0  0  0  0
  140.7238  160.1872  135.9932 H   0  0  0  0  0  0  0  0  0  0  0  0
  141.7084  156.8547  137.0985 H   0  0  0  0  0  0  0  0  0  0  0  0
  141.2127  155.9687  135.6166 H   0  0  0  0  0  0  0  0  0  0  0  0
  142.7194  156.9466  135.6166 H   0  0  0  0  0  0  0  0  0  0  0  0
  139.3534  157.8524  137.0032 H   0  0  0  0  0  0  0  0  0  0  0  0
  138.8421  158.6825  135.4945 H   0  0  0  0  0  0  0  0  0  0  0  0
  139.1150  156.9071  135.4945 H   0  0  0  0  0  0  0  0  0  0  0  0
  143.4865  156.3107  133.1562 H   0  0  0  0  0  0  0  0  0  0  0  0
  144.0007  151.5204  132.8583 H   0  0  0  0  0  0  0  0  0  0  0  0
  1  2  1  0
  2  3  1  0
  2  4  1  0
  2  5  1  0
  5  6  1  0
  6  7  2  0
  6  8  1  0
  8  9  1  0
  9 10  2  0
 10 11  1  0
 11 12  1  0
 12 13  2  0
 13 14  1  0
 14 15  2  0
 15 16  1  0
 16 17  2  0
 17 18  1  0
 18 19  1  0
 18 20  2  0
 17 21  1  0
 21 22  1  0
 22 23  2  0
 22 24  1  0
 24 25  1  0
 25 26  1  0
 26 27  1  0
 26 28  1  0
 26 29  1  0
 29 30  1  0
 29 31  1  0
 29 32  1  0
 21 33  1  0
 33 34  2  0
 11 35  2  0
 35  8  1  0
 34 12  1  0
 33 15  1  0
  1 36  1  0
  1 37  1  0
  1 38  1  0
  3 39  1  0
  3 40  1  0
  3 41  1  0
  4 42  1  0
  4 43  1  0
  4 44  1  0
  9 45  1  0
 13 46  1  0
 14 47  1  0
 16 48  1  0
 19 49  1  0
 19 50  1  0
 24 51  1  0
 24 52  1  0
 27 53  1  0
 27 54  1  0
 27 55  1  0
 28 56  1  0
 28 57  1  0
 28 58  1  0
 30 59  1  0
 30 60  1  0
 30 61  1  0
 31 62  1  0
 31 63  1  0
 31 64  1  0
 32 65  1  0
 32 66  1  0
 32 67  1  0
 34 68  1  0
 35 69  1  0
M  END
>  <smiles>  (44) 
CC(C)(C)OC(=O)n1cnc(-c2ccc3cc(C(N)=O)n(C(=O)CO[Si](C)(C)C(C)(C)C)c3c2)c1

>  <score_type>  (44) 
oracle

>  <origin>  (44) 
adg

>  <m_score__min__energy>  (44) 
-10.359999999999999

>  <m_primary>  (44) 
energy

$$$$
44:0
     RDKit          3D

 41 43  0  0  0  0  0  0  0  0999 V2000
  141.4130  159.3060  134.5140 C   0  0  0  0  0  0  0  0  0  0  0  0
  142.8320  159.5500  134.1520 C   0  0  0  0  0  0  0  0  0  0  0  0
  143.2440  160.8600  134.0740 C   0  0  0  0  0  0  0  0  0  0  0  0
  144.5560  161.1170  133.7410 C   0  0  0  0  0  0  0  0  0  0  0  0
  145.4230  160.0740  133.4930 C   0  0  0  0  0  0  0  0  0  0  0  0
  146.7570  160.0560  133.1470 C   0  0  0  0  0  0  0  0  0  0  0  0
  147.1820  158.7260  133.0080 C   0  0  0  0  0  0  0  0  0  0  0  0
  148.5380  158.4020  132.6500 C   0  0  0  0  0  0  0  0  0  0  0  0
  149.1450  157.1340  132.6100 N   0  0  0  0  0  0  0  0  0  0  0  0
  149.3030  159.3780  132.3230 O   0  0  0  0  0  0  0  0  0  0  0  0
  146.1120  157.9600  133.2680 N   0  0  0  0  0  0  0  0  0  0  0  0
  146.0490  156.5500  133.2530 C   0  0  0  0  0  0  0  0  0  0  0  0
  145.1920  155.8600  132.6560 O   0  0  0  0  0  0  0  0  0  0  0  0
  147.0130  155.7930  133.9540 O   0  0  0  0  0  0  0  0  0  0  0  0
  147.5760  154.6860  133.3600 C   0  0  0  0  0  0  0  0  0  0  0  0
  146.9390  153.6210  133.1500 O   0  0  0  0  0  0  0  0  0  0  0  0
  148.9270  154.7360  132.9640 O   0  0  0  0  0  0  0  0  0  0  0  0
  149.4100  153.7130  132.1140 C   0  0  0  0  0  0  0  0  0  0  0  0
  149.5420  152.4320  132.8570 C   0  0  0  0  0  0  0  0  0  0  0  0
  149.4570  152.2280  134.1450 O   0  0  0  0  0  0  0  0  0  0  0  0
  149.6270  150.9560  134.4390 C   0  0  0  0  0  0  0  0  0  0  0  0
  149.5900  150.5210  135.6070 O   0  0  0  0  0  0  0  0  0  0  0  0
  149.8260  150.3380  133.3010 O   0  0  0  0  0  0  0  0  0  0  0  0
  149.7850  151.1870  132.2980 C   0  0  0  0  0  0  0  0  0  0  0  0
  149.9650  150.8760  130.8450 C   0  0  0  0  0  0  0  0  0  0  0  0
  145.0480  158.7490  133.5600 C   0  0  0  0  0  0  0  0  0  0  0  0
  143.7230  158.5140  133.8990 C   0  0  0  0  0  0  0  0  0  0  0  0
  141.3118  159.2886  135.6092 H   0  0  0  0  0  0  0  0  0  0  0  0
  140.7857  160.1095  134.1005 H   0  0  0  0  0  0  0  0  0  0  0  0
  141.0901  158.3392  134.1005 H   0  0  0  0  0  0  0  0  0  0  0  0
  142.5423  161.6834  134.2729 H   0  0  0  0  0  0  0  0  0  0  0  0
  144.9122  162.1555  133.6729 H   0  0  0  0  0  0  0  0  0  0  0  0
  147.3891  160.9446  133.0025 H   0  0  0  0  0  0  0  0  0  0  0  0
  149.6280  156.7600  133.4610 H   0  0  0  0  0  0  0  0  0  0  0  0
  149.1000  156.5850  131.6990 H   0  0  0  0  0  0  0  0  0  0  0  0
  148.7073  153.5755  131.2789 H   0  0  0  0  0  0  0  0  0  0  0  0
  150.4002  154.0059  131.7349 H   0  0  0  0  0  0  0  0  0  0  0  0
  150.5134  149.9285  130.7380 H   0  0  0  0  0  0  0  0  0  0  0  0
  148.9796  150.7856  130.3646 H   0  0  0  0  0  0  0  0  0  0  0  0
  150.5343  151.6854  130.3646 H   0  0  0  0  0  0  0  0  0  0  0  0
  143.3670  157.4756  133.9696 H   0  0  0  0  0  0  0  0  0  0  0  0
  1  2  1  0
  2  3  2  0
  3  4  1  0
  4  5  2  0
  5  6  1  0
  6  7  2  0
  7  8  1  0
  8  9  1  0
  8 10  2  0
  7 11  1  0
 11 12  1  0
 12 13  2  0
 12 14  1  0
 14 15  1  0
 15 16  2  0
 15 17  1  0
 17 18  1  0
 18 19  1  0
 19 20  1  0
 20 21  1  0
 21 22  2  0
 21 23  1  0
 23 24  1  0
 24 25  1  0
 11 26  1  0
 26 27  2  0
 27  2  1  0
 26  5  1  0
 24 19  2  0
  1 28  1  0
  1 29  1  0
  1 30  1  0
  3 31  1  0
  4 32  1  0
  6 33  1  0
  9 34  1  0
  9 35  1  0
 18 36  1  0
 18 37  1  0
 25 38  1  0
 25 39  1  0
 25 40  1  0
 27 41  1  0
M  END
>  <smiles>  (45) 
Cc1ccc2cc(C(N)=O)n(C(=O)OC(=O)OCc3oc(=O)oc3C)c2c1

>  <score_type>  (45) 
oracle

>  <origin>  (45) 
adg

>  <m_score__min__energy>  (45) 
-7.7199999999999998

>  <m_primary>  (45) 
energy

$$$$
46:0
     RDKit          3D

 37 39  0  0  0  0  0  0  0  0999 V2000
  141.5920  158.7370  137.5340 C   0  0  0  0  0  0  0  0  0  0  0  0
  142.0400  158.4570  136.2260 O   0  0  0  0  0  0  0  0  0  0  0  0
  141.0980  158.5080  135.2030 C   0  0  0  0  0  0  0  0  0  0  0  0
  139.8060  158.1470  135.3860 N   0  0  0  0  0  0  0  0  0  0  0  0
  138.8920  158.1920  134.4080 C   0  0  0  0  0  0  0  0  0  0  0  0
  139.3100  158.6300  133.1650 C   0  0  0  0  0  0  0  0  0  0  0  0
  138.1700  158.7180  131.8260 Cl  0  0  0  0  0  0  0  0  0  0  0  0
  140.6080  159.0140  132.9040 C   0  0  0  0  0  0  0  0  0  0  0  0
  141.5090  158.9460  133.9530 C   0  0  0  0  0  0  0  0  0  0  0  0
  142.9130  159.3360  133.7630 C   0  0  0  0  0  0  0  0  0  0  0  0
  143.2590  160.6660  133.8230 C   0  0  0  0  0  0  0  0  0  0  0  0
  144.5680  161.0090  133.6440 C   0  0  0  0  0  0  0  0  0  0  0  0
  145.5210  160.0440  133.4080 C   0  0  0  0  0  0  0  0  0  0  0  0
  146.8790  160.1190  133.1980 C   0  0  0  0  0  0  0  0  0  0  0  0
  147.4000  158.8420  133.0040 C   0  0  0  0  0  0  0  0  0  0  0  0
  148.8030  158.6210  132.7610 C   0  0  0  0  0  0  0  0  0  0  0  0
  149.4580  157.4160  132.4720 N   0  0  0  0  0  0  0  0  0  0  0  0
  149.5670  159.6540  132.8130 O   0  0  0  0  0  0  0  0  0  0  0  0
  146.3610  157.9930  133.0970 N   0  0  0  0  0  0  0  0  0  0  0  0
  146.3950  156.5920  132.9700 C   0  0  0  0  0  0  0  0  0  0  0  0
  146.9580  155.9800  131.7930 N   0  0  0  0  0  0  0  0  0  0  0  0
  145.9680  155.7700  133.8130 O   0  0  0  0  0  0  0  0  0  0  0  0
  145.2190  158.6980  133.3400 C   0  0  0  0  0  0  0  0  0  0  0  0
  143.8930  158.3660  133.5230 C   0  0  0  0  0  0  0  0  0  0  0  0
  142.2910  158.3001  138.2624 H   0  0  0  0  0  0  0  0  0  0  0  0
  141.5438  159.8262  137.6798 H   0  0  0  0  0  0  0  0  0  0  0  0
  140.5918  158.3030  137.6798 H   0  0  0  0  0  0  0  0  0  0  0  0
  137.8489  157.8920  134.5868 H   0  0  0  0  0  0  0  0  0  0  0  0
  140.9146  159.3595  131.9057 H   0  0  0  0  0  0  0  0  0  0  0  0
  142.4970  161.4367  134.0112 H   0  0  0  0  0  0  0  0  0  0  0  0
  144.8644  162.0674  133.6888 H   0  0  0  0  0  0  0  0  0  0  0  0
  147.4658  161.0493  133.1853 H   0  0  0  0  0  0  0  0  0  0  0  0
  149.5700  157.1170  131.4650 H   0  0  0  0  0  0  0  0  0  0  0  0
  149.8360  156.8260  133.2710 H   0  0  0  0  0  0  0  0  0  0  0  0
  146.3040  155.8030  131.0110 H   0  0  0  0  0  0  0  0  0  0  0  0
  147.9680  155.7610  131.8130 H   0  0  0  0  0  0  0  0  0  0  0  0
  143.5968  157.3075  133.4790 H   0  0  0  0  0  0  0  0  0  0  0  0
  1  2  1  0
  2  3  1  0
  3  4  2  0
  4  5  1  0
  5  6  2  0
  6  7  1  0
  6  8  1  0
  8  9  2  0
  9 10  1  0
 10 11  2  0
 11 12  1  0
 12 13  2  0
 13 14  1  0
 14 15  2  0
 15 16  1  0
 16 17  1  0
 16 18  2  0
 15 19  1  0
 19 20  1  0
 20 21  1  0
 20 22  2  0
 19 23  1  0
 23 24  2  0
  9  3  1  0
 24 10  1  0
 23 13  1  0
  1 25  1  0
  1 26  1  0
  1 27  1  0
  5 28  1  0
  8 29  1  0
 11 30  1  0
 12 31  1  0
 14 32  1  0
 17 33  1  0
 17 34  1  0
 21 35  1  0
 21 36  1  0
 24 37  1  0
M  END
>  <smiles>  (46) 
COc1ncc(Cl)cc1-c1ccc2cc(C(N)=O)n(C(N)=O)c2c1

>  <score_type>  (46) 
oracle

>  <origin>  (46) 
adg

>  <m_score__min__energy>  (46) 
-8.8300000000000001

>  <m_primary>  (46) 
energy

$$$$
47:0
     RDKit          3D

 37 38  0  0  1  0  0  0  0  0999 V2000
  139.7640  155.0800  133.3140 N   0  0  0  0  0  0  0  0  0  0  0  0
  139.4780  156.1700  133.0240 C   0  0  0  0  0  0  0  0  0  0  0  0
  139.1420  157.5370  132.6600 C   0  0  0  0  0  0  0  0  0  0  0  0
  140.3220  158.2610  132.3540 O   0  0  0  0  0  0  0  0  0  0  0  0
  140.7930  159.1820  133.2810 C   0  0  0  0  0  0  0  0  0  0  0  0
  140.4130  160.3650  133.3040 O   0  0  0  0  0  0  0  0  0  0  0  0
  141.7900  158.6990  134.2650 C   0  0  2  0  0  0  0  0  0  0  0  0
  141.4400  159.2870  135.6230 C   0  0  0  0  0  0  0  0  0  0  0  0
  140.3400  158.5470  136.2310 C   0  0  0  0  0  0  0  0  0  0  0  0
  139.4750  157.9730  136.7110 N   0  0  0  0  0  0  0  0  0  0  0  0
  143.1620  159.1580  133.9410 C   0  0  0  0  0  0  0  0  0  0  0  0
  143.4640  160.4880  134.0320 C   0  0  0  0  0  0  0  0  0  0  0  0
  144.7400  160.9160  133.7300 C   0  0  0  0  0  0  0  0  0  0  0  0
  145.6940  159.9900  133.3400 C   0  0  0  0  0  0  0  0  0  0  0  0
  147.0110  160.1270  132.9880 C   0  0  0  0  0  0  0  0  0  0  0  0
  147.5450  158.8740  132.6720 C   0  0  0  0  0  0  0  0  0  0  0  0
  148.9080  158.6910  132.2640 C   0  0  0  0  0  0  0  0  0  0  0  0
  149.4850  157.3640  132.3210 N   0  0  0  0  0  0  0  0  0  0  0  0
  149.6930  159.5740  131.8470 O   0  0  0  0  0  0  0  0  0  0  0  0
  146.5530  157.9870  132.8330 N   0  0  0  0  0  0  0  0  0  0  0  0
  146.5960  156.5860  132.6350 C   0  0  0  0  0  0  0  0  0  0  0  0
  145.6960  155.8360  133.1530 O   0  0  0  0  0  0  0  0  0  0  0  0
  147.5540  155.9110  131.9070 O   0  0  0  0  0  0  0  0  0  0  0  0
  145.4240  158.6410  133.2370 C   0  0  0  0  0  0  0  0  0  0  0  0
  144.1370  158.2480  133.5470 C   0  0  0  0  0  0  0  0  0  0  0  0
  138.4817  157.5280  131.7803 H   0  0  0  0  0  0  0  0  0  0  0  0
  138.6305  158.0206  133.5053 H   0  0  0  0  0  0  0  0  0  0  0  0
  141.7659  157.5993  134.2538 H   0  0  0  0  0  0  0  0  0  0  0  0
  142.3207  159.2312  136.2797 H   0  0  0  0  0  0  0  0  0  0  0  0
  141.1332  160.3348  135.4890 H   0  0  0  0  0  0  0  0  0  0  0  0
  142.6958  161.2110  134.3435 H   0  0  0  0  0  0  0  0  0  0  0  0
  144.9979  161.9832  133.7982 H   0  0  0  0  0  0  0  0  0  0  0  0
  147.5638  161.0775  132.9585 H   0  0  0  0  0  0  0  0  0  0  0  0
  149.6220  156.7820  131.4790 H   0  0  0  0  0  0  0  0  0  0  0  0
  149.7600  157.0310  133.2930 H   0  0  0  0  0  0  0  0  0  0  0  0
  147.3490  155.2340  131.1700 H   0  0  0  0  0  0  0  0  0  0  0  0
  143.8748  157.1818  133.4802 H   0  0  0  0  0  0  0  0  0  0  0  0
  1  2  3  0
  2  3  1  0
  3  4  1  0
  4  5  1  0
  5  6  2  0
  5  7  1  0
  7  8  1  0
  8  9  1  0
  9 10  3  0
  7 11  1  0
 11 12  2  0
 12 13  1  0
 13 14  2  0
 14 15  1  0
 15 16  2  0
 16 17  1  0
 17 18  1  0
 17 19  2  0
 16 20  1  0
 20 21  1  0
 21 22  2  0
 21 23  1  0
 20 24  1  0
 24 25  2  0
 25 11  1  0
 24 14  1  0
  3 26  1  0
  3 27  1  0
  7 28  1  1
  8 29  1  0
  8 30  1  0
 12 31  1  0
 13 32  1  0
 15 33  1  0
 18 34  1  0
 18 35  1  0
 23 36  1  0
 25 37  1  0
M  END
>  <smiles>  (47) 
N#CCOC(=O)C(CC#N)c1ccc2cc(C(N)=O)n(C(=O)O)c2c1

>  <score_type>  (47) 
oracle

>  <origin>  (47) 
adg

>  <m_score__min__energy>  (47) 
-8.1099999999999994

>  <m_primary>  (47) 
energy

$$$$
48:0
     RDKit          3D

 34 35  0  0  0  0  0  0  0  0999 V2000
  141.6500  157.7880  135.0190 C   0  0  0  0  0  0  0  0  0  0  0  0
  142.8630  158.3800  134.4040 C   0  0  0  0  0  0  0  0  0  0  0  0
  142.7820  159.6680  133.9260 C   0  0  0  0  0  0  0  0  0  0  0  0
  143.8940  160.2120  133.3610 C   0  0  0  0  0  0  0  0  0  0  0  0
  145.0690  159.4750  133.2790 C   0  0  0  0  0  0  0  0  0  0  0  0
  146.2640  159.8270  132.7620 C   0  0  0  0  0  0  0  0  0  0  0  0
  147.1050  158.7180  132.9310 C   0  0  0  0  0  0  0  0  0  0  0  0
  148.5090  158.8420  132.5310 C   0  0  0  0  0  0  0  0  0  0  0  0
  149.3020  157.6500  132.3300 N   0  0  0  0  0  0  0  0  0  0  0  0
  149.1110  159.9120  132.3390 O   0  0  0  0  0  0  0  0  0  0  0  0
  146.4640  157.7090  133.5230 N   0  0  0  0  0  0  0  0  0  0  0  0
  146.7640  156.3560  133.7360 C   0  0  0  0  0  0  0  0  0  0  0  0
  147.1490  156.1060  134.9710 O   0  0  0  0  0  0  0  0  0  0  0  0
  146.7390  155.2220  132.9470 N   0  0  0  0  0  0  0  0  0  0  0  0
  145.6680  154.5500  132.2600 C   0  0  0  0  0  0  0  0  0  0  0  0
  148.0340  154.5440  132.7390 C   0  0  0  0  0  0  0  0  0  0  0  0
  149.0210  155.3130  132.6000 O   0  0  0  0  0  0  0  0  0  0  0  0
  148.1210  153.1410  132.7060 N   0  0  0  0  0  0  0  0  0  0  0  0
  149.4300  152.3050  132.2570 P   0  0  0  0  0  0  0  0  0  0  0  0
  145.1910  158.1920  133.7420 C   0  0  0  0  0  0  0  0  0  0  0  0
  144.0460  157.6500  134.3160 C   0  0  0  0  0  0  0  0  0  0  0  0
  141.7366  157.8302  136.1148 H   0  0  0  0  0  0  0  0  0  0  0  0
  140.7630  158.3545  134.6992 H   0  0  0  0  0  0  0  0  0  0  0  0
  141.5508  156.7402  134.6992 H   0  0  0  0  0  0  0  0  0  0  0  0
  141.8458  160.2409  133.9985 H   0  0  0  0  0  0  0  0  0  0  0  0
  143.8625  161.2388  132.9678 H   0  0  0  0  0  0  0  0  0  0  0  0
  146.5261  160.7905  132.3005 H   0  0  0  0  0  0  0  0  0  0  0  0
  149.1300  157.1740  131.4090 H   0  0  0  0  0  0  0  0  0  0  0  0
  149.9770  157.3090  133.0450 H   0  0  0  0  0  0  0  0  0  0  0  0
  144.9757  154.1156  132.9962 H   0  0  0  0  0  0  0  0  0  0  0  0
  145.1274  155.2711  131.6293 H   0  0  0  0  0  0  0  0  0  0  0  0
  146.0822  153.7496  131.6293 H   0  0  0  0  0  0  0  0  0  0  0  0
  150.6310  153.0100  131.8530 H   0  0  0  0  0  0  0  0  0  0  0  0
  144.0753  156.6229  134.7088 H   0  0  0  0  0  0  0  0  0  0  0  0
  1  2  1  0
  2  3  2  0
  3  4  1  0
  4  5  2  0
  5  6  1  0
  6  7  2  0
  7  8  1  0
  8  9  1  0
  8 10  2  0
  7 11  1  0
 11 12  1  0
 12 13  2  0
 12 14  1  0
 14 15  1  0
 14 16  1  0
 16 17  2  0
 16 18  1  0
 18 19  2  3
 11 20  1  0
 20 21  2  0
 21  2  1  0
 20  5  1  0
  1 22  1  0
  1 23  1  0
  1 24  1  0
  3 25  1  0
  4 26  1  0
  6 27  1  0
  9 28  1  0
  9 29  1  0
 15 30  1  0
 15 31  1  0
 15 32  1  0
 19 33  1  0
 21 34  1  0
M  END
>  <smiles>  (48) 
Cc1ccc2cc(C(N)=O)n(C(=O)N(C)C(=O)N=P)c2c1

>  <score_type>  (48) 
oracle

>  <origin>  (48) 
adg

>  <m_score__min__energy>  (48) 
-7.3200000000000003

>  <m_primary>  (48) 
energy

$$$$
49:0
     RDKit          3D

 43 45  0  0  1  0  0  0  0  0999 V2000
  148.5020  161.2480  130.7450 C   0  0  0  0  0  0  0  0  0  0  0  0
  148.8770  159.8670  130.8040 N   0  0  0  0  0  0  0  0  0  0  0  0
  150.2760  159.7430  130.4790 C   0  0  0  0  0  0  0  0  0  0  0  0
  148.6060  159.3590  132.1340 C   0  0  2  0  0  0  0  0  0  0  0  0
  148.1170  157.9360  132.1030 C   0  0  0  0  0  0  0  0  0  0  0  0
  147.2090  157.8860  133.3370 C   0  0  0  0  0  0  0  0  0  0  0  0
  146.4840  159.1320  133.2010 N   0  0  0  0  0  0  0  0  0  0  0  0
  145.1040  159.3500  133.4570 C   0  0  0  0  0  0  0  0  0  0  0  0
  144.6710  160.6170  133.7800 C   0  0  0  0  0  0  0  0  0  0  0  0
  143.3280  160.7890  134.0210 C   0  0  0  0  0  0  0  0  0  0  0  0
  142.4510  159.7400  133.9420 C   0  0  0  0  0  0  0  0  0  0  0  0
  141.0900  159.6590  134.1340 C   0  0  0  0  0  0  0  0  0  0  0  0
  140.6720  158.3350  133.9300 C   0  0  0  0  0  0  0  0  0  0  0  0
  139.2930  157.9500  134.0640 C   0  0  0  0  0  0  0  0  0  0  0  0
  138.4710  157.3000  133.1270 N   0  0  0  0  0  0  0  0  0  0  0  0
  138.7230  158.2300  135.1790 O   0  0  0  0  0  0  0  0  0  0  0  0
  141.7750  157.6310  133.6180 N   0  0  0  0  0  0  0  0  0  0  0  0
  141.8660  156.2530  133.3240 C   0  0  0  0  0  0  0  0  0  0  0  0
  140.8320  155.5120  133.4970 O   0  0  0  0  0  0  0  0  0  0  0  0
  142.9710  155.5880  132.8590 O   0  0  0  0  0  0  0  0  0  0  0  0
  142.8490  158.4610  133.6220 C   0  0  0  0  0  0  0  0  0  0  0  0
  144.2080  158.2940  133.3800 C   0  0  0  0  0  0  0  0  0  0  0  0
  147.4550  160.1080  132.7520 C   0  0  0  0  0  0  0  0  0  0  0  0
  148.3948  161.6428  131.7661 H   0  0  0  0  0  0  0  0  0  0  0  0
  149.2783  161.8163  130.2118 H   0  0  0  0  0  0  0  0  0  0  0  0
  147.5448  161.3456  130.2118 H   0  0  0  0  0  0  0  0  0  0  0  0
  150.8647  159.6908  131.4067 H   0  0  0  0  0  0  0  0  0  0  0  0
  150.4361  158.8271  129.8911 H   0  0  0  0  0  0  0  0  0  0  0  0
  150.5947  160.6164  129.8911 H   0  0  0  0  0  0  0  0  0  0  0  0
  149.5513  159.4613  132.6871 H   0  0  0  0  0  0  0  0  0  0  0  0
  147.5525  157.7270  131.1823 H   0  0  0  0  0  0  0  0  0  0  0  0
  148.9240  157.1886  132.1147 H   0  0  0  0  0  0  0  0  0  0  0  0
  146.5319  157.0197  133.3048 H   0  0  0  0  0  0  0  0  0  0  0  0
  147.7471  157.7776  134.2903 H   0  0  0  0  0  0  0  0  0  0  0  0
  145.3740  161.4608  133.8429 H   0  0  0  0  0  0  0  0  0  0  0  0
  142.9508  161.7887  134.2823 H   0  0  0  0  0  0  0  0  0  0  0  0
  140.4339  160.4994  134.4046 H   0  0  0  0  0  0  0  0  0  0  0  0
  137.9120  157.8770  132.4600 H   0  0  0  0  0  0  0  0  0  0  0  0
  138.4380  156.2370  133.1330 H   0  0  0  0  0  0  0  0  0  0  0  0
  143.1970  155.4240  131.8810 H   0  0  0  0  0  0  0  0  0  0  0  0
  144.5841  157.2937  133.1195 H   0  0  0  0  0  0  0  0  0  0  0  0
  146.9983  160.7748  132.0058 H   0  0  0  0  0  0  0  0  0  0  0  0
  147.8035  160.7209  133.5963 H   0  0  0  0  0  0  0  0  0  0  0  0
  1  2  1  0
  2  3  1  0
  2  4  1  0
  4  5  1  0
  5  6  1  0
  6  7  1  0
  7  8  1  0
  8  9  2  0
  9 10  1  0
 10 11  2  0
 11 12  1  0
 12 13  2  0
 13 14  1  0
 14 15  1  0
 14 16  2  0
 13 17  1  0
 17 18  1  0
 18 19  2  0
 18 20  1  0
 17 21  1  0
 21 22  2  0
  7 23  1  0
 23  4  1  0
 22  8  1  0
 21 11  1  0
  1 24  1  0
  1 25  1  0
  1 26  1  0
  3 27  1  0
  3 28  1  0
  3 29  1  0
  4 30  1  1
  5 31  1  0
  5 32  1  0
  6 33  1  0
  6 34  1  0
  9 35  1  0
 10 36  1  0
 12 37  1  0
 15 38  1  0
 15 39  1  0
 20 40  1  0
 22 41  1  0
 23 42  1  0
 23 43  1  0
M  END
>  <smiles>  (49) 
CN(C)C1CCN(c2ccc3cc(C(N)=O)n(C(=O)O)c3c2)C1

>  <score_type>  (49) 
oracle

>  <origin>  (49) 
adg

>  <m_score__min__energy>  (49) 
-7.9000000000000004

>  <m_primary>  (49) 
energy

$$$$
50:0
     RDKit          3D

 42 43  0  0  0  0  0  0  0  0999 V2000
  148.8880  161.4770  130.5610 C   0  0  0  0  0  0  0  0  0  0  0  0
  148.7180  160.2430  131.3440 C   0  0  0  0  0  0  0  0  0  0  0  0
  149.8020  159.4080  131.4980 C   0  0  0  0  0  0  0  0  0  0  0  0
  149.6620  158.2480  132.2280 C   0  0  0  0  0  0  0  0  0  0  0  0
  148.4360  157.9520  132.7890 C   0  0  0  0  0  0  0  0  0  0  0  0
  148.0280  156.8840  133.5490 C   0  0  0  0  0  0  0  0  0  0  0  0
  146.6750  157.0400  133.8810 C   0  0  0  0  0  0  0  0  0  0  0  0
  145.9550  156.0720  134.6800 C   0  0  0  0  0  0  0  0  0  0  0  0
  144.5220  155.9620  134.5290 N   0  0  0  0  0  0  0  0  0  0  0  0
  146.4510  155.2880  135.5180 O   0  0  0  0  0  0  0  0  0  0  0  0
  146.2750  158.1930  133.3240 N   0  0  0  0  0  0  0  0  0  0  0  0
  144.9900  158.7780  133.3820 C   0  0  0  0  0  0  0  0  0  0  0  0
  144.8540  159.9570  133.8630 O   0  0  0  0  0  0  0  0  0  0  0  0
  143.8180  158.1910  132.9580 O   0  0  0  0  0  0  0  0  0  0  0  0
  142.5690  158.7120  133.3290 C   0  0  0  0  0  0  0  0  0  0  0  0
  141.9920  158.0290  134.5180 C   0  0  0  0  0  0  0  0  0  0  0  0
  142.6060  157.9650  135.6140 O   0  0  0  0  0  0  0  0  0  0  0  0
  140.7210  157.4400  134.4020 N   0  0  0  0  0  0  0  0  0  0  0  0
  139.5370  157.9870  135.0290 C   0  0  0  0  0  0  0  0  0  0  0  0
  140.5290  156.2130  133.6210 C   0  0  0  0  0  0  0  0  0  0  0  0
  141.7700  155.4210  133.7460 C   0  0  0  0  0  0  0  0  0  0  0  0
  141.9210  154.5640  134.6740 O   0  0  0  0  0  0  0  0  0  0  0  0
  142.8480  155.5520  132.8740 O   0  0  0  0  0  0  0  0  0  0  0  0
  147.3260  158.7580  132.6600 C   0  0  0  0  0  0  0  0  0  0  0  0
  147.4900  159.9160  131.9230 C   0  0  0  0  0  0  0  0  0  0  0  0
  149.0057  162.3313  131.2439 H   0  0  0  0  0  0  0  0  0  0  0  0
  149.7824  161.3886  129.9269 H   0  0  0  0  0  0  0  0  0  0  0  0
  148.0030  161.6337  129.9269 H   0  0  0  0  0  0  0  0  0  0  0  0
  150.7700  159.6645  131.0428 H   0  0  0  0  0  0  0  0  0  0  0  0
  150.5155  157.5671  132.3619 H   0  0  0  0  0  0  0  0  0  0  0  0
  148.6634  156.0381  133.8503 H   0  0  0  0  0  0  0  0  0  0  0  0
  144.0440  155.0290  134.6280 H   0  0  0  0  0  0  0  0  0  0  0  0
  143.9730  156.8480  134.3160 H   0  0  0  0  0  0  0  0  0  0  0  0
  142.6883  159.7807  133.5605 H   0  0  0  0  0  0  0  0  0  0  0  0
  141.8792  158.5525  132.4871 H   0  0  0  0  0  0  0  0  0  0  0  0
  139.6449  157.9371  136.1226 H   0  0  0  0  0  0  0  0  0  0  0  0
  139.4097  159.0352  134.7205 H   0  0  0  0  0  0  0  0  0  0  0  0
  138.6564  157.4045  134.7205 H   0  0  0  0  0  0  0  0  0  0  0  0
  139.6758  155.6429  134.0173 H   0  0  0  0  0  0  0  0  0  0  0  0
  140.3185  156.4480  132.5672 H   0  0  0  0  0  0  0  0  0  0  0  0
  142.8770  156.3430  132.2230 H   0  0  0  0  0  0  0  0  0  0  0  0
  146.6346  160.5946  131.7897 H   0  0  0  0  0  0  0  0  0  0  0  0
  1  2  1  0
  2  3  2  0
  3  4  1  0
  4  5  2  0
  5  6  1  0
  6  7  2  0
  7  8  1  0
  8  9  1  0
  8 10  2  0
  7 11  1  0
 11 12  1  0
 12 13  2  0
 12 14  1  0
 14 15  1  0
 15 16  1  0
 16 17  2  0
 16 18  1  0
 18 19  1  0
 18 20  1  0
 20 21  1  0
 21 22  2  0
 21 23  1  0
 11 24  1  0
 24 25  2  0
 25  2  1  0
 24  5  1  0
  1 26  1  0
  1 27  1  0
  1 28  1  0
  3 29  1  0
  4 30  1  0
  6 31  1  0
  9 32  1  0
  9 33  1  0
 15 34  1  0
 15 35  1  0
 19 36  1  0
 19 37  1  0
 19 38  1  0
 20 39  1  0
 20 40  1  0
 23 41  1  0
 25 42  1  0
M  END
>  <smiles>  (50) 
Cc1ccc2cc(C(N)=O)n(C(=O)OCC(=O)N(C)CC(=O)O)c2c1

>  <score_type>  (50) 
oracle

>  <origin>  (50) 
adg

>  <m_score__min__energy>  (50) 
-6.0800000000000001

>  <m_primary>  (50) 
energy

$$$$
52:0
     RDKit          3D

 37 38  0  0  1  0  0  0  0  0999 V2000
  140.2980  159.3810  132.5700 C   0  0  0  0  0  0  0  0  0  0  0  0
  140.4460  158.3400  133.6350 C   0  0  1  0  0  0  0  0  0  0  0  0
  141.4860  158.5580  134.5780 N   0  0  0  0  0  0  0  0  0  0  0  0
  142.7740  159.0280  134.1860 C   0  0  0  0  0  0  0  0  0  0  0  0
  143.0000  160.3830  134.1190 C   0  0  0  0  0  0  0  0  0  0  0  0
  144.2480  160.8160  133.7380 C   0  0  0  0  0  0  0  0  0  0  0  0
  145.2420  159.9190  133.4350 C   0  0  0  0  0  0  0  0  0  0  0  0
  146.5270  160.1180  133.0430 C   0  0  0  0  0  0  0  0  0  0  0  0
  147.1380  158.8630  132.8550 C   0  0  0  0  0  0  0  0  0  0  0  0
  148.5100  158.7640  132.4360 C   0  0  0  0  0  0  0  0  0  0  0  0
  149.0970  157.4360  132.2980 N   0  0  0  0  0  0  0  0  0  0  0  0
  149.3160  159.6690  132.1620 O   0  0  0  0  0  0  0  0  0  0  0  0
  146.2190  157.9150  133.1340 N   0  0  0  0  0  0  0  0  0  0  0  0
  146.2990  156.5210  133.0970 C   0  0  0  0  0  0  0  0  0  0  0  0
  145.3450  155.8760  132.5270 O   0  0  0  0  0  0  0  0  0  0  0  0
  147.3390  155.6180  133.6240 C   0  0  0  0  0  0  0  0  0  0  0  0
  147.8690  154.8720  132.5110 O   0  0  0  0  0  0  0  0  0  0  0  0
  145.0580  158.5600  133.4890 C   0  0  0  0  0  0  0  0  0  0  0  0
  143.7990  158.1330  133.8730 C   0  0  0  0  0  0  0  0  0  0  0  0
  139.1360  158.0600  134.3280 C   0  0  0  0  0  0  0  0  0  0  0  0
  138.0950  157.7690  133.6830 O   0  0  0  0  0  0  0  0  0  0  0  0
  139.1250  158.1390  135.7200 O   0  0  0  0  0  0  0  0  0  0  0  0
  140.1579  160.3667  133.0377 H   0  0  0  0  0  0  0  0  0  0  0  0
  141.2029  159.3971  131.9448 H   0  0  0  0  0  0  0  0  0  0  0  0
  139.4245  159.1443  131.9448 H   0  0  0  0  0  0  0  0  0  0  0  0
  140.7636  157.4451  133.0797 H   0  0  0  0  0  0  0  0  0  0  0  0
  141.3280  158.3730  135.6150 H   0  0  0  0  0  0  0  0  0  0  0  0
  142.2035  161.1011  134.3637 H   0  0  0  0  0  0  0  0  0  0  0  0
  144.4526  161.8950  133.6752 H   0  0  0  0  0  0  0  0  0  0  0  0
  147.0097  161.0956  132.8968 H   0  0  0  0  0  0  0  0  0  0  0  0
  148.5960  156.6930  131.7510 H   0  0  0  0  0  0  0  0  0  0  0  0
  150.0210  157.2610  132.7570 H   0  0  0  0  0  0  0  0  0  0  0  0
  148.1397  156.2039  134.0988 H   0  0  0  0  0  0  0  0  0  0  0  0
  146.9164  154.9392  134.3794 H   0  0  0  0  0  0  0  0  0  0  0  0
  147.1210  154.8210  131.8650 H   0  0  0  0  0  0  0  0  0  0  0  0
  143.5991  157.0530  133.9337 H   0  0  0  0  0  0  0  0  0  0  0  0
  138.7100  158.9480  136.1720 H   0  0  0  0  0  0  0  0  0  0  0  0
  1  2  1  0
  2  3  1  0
  3  4  1  0
  4  5  2  0
  5  6  1  0
  6  7  2  0
  7  8  1  0
  8  9  2  0
  9 10  1  0
 10 11  1  0
 10 12  2  0
  9 13  1  0
 13 14  1  0
 14 15  2  0
 14 16  1  0
 16 17  1  0
 13 18  1  0
 18 19  2  0
  2 20  1  0
 20 21  2  0
 20 22  1  0
 19  4  1  0
 18  7  1  0
  1 23  1  0
  1 24  1  0
  1 25  1  0
  2 26  1  6
  3 27  1  0
  5 28  1  0
  6 29  1  0
  8 30  1  0
 11 31  1  0
 11 32  1  0
 16 33  1  0
 16 34  1  0
 17 35  1  0
 19 36  1  0
 22 37  1  0
M  END
>  <smiles>  (51) 
CC(Nc1ccc2cc(C(N)=O)n(C(=O)CO)c2c1)C(=O)O

>  <score_type>  (51) 
oracle

>  <origin>  (51) 
adg

>  <m_score__min__energy>  (51) 
-6.7599999999999998

>  <m_primary>  (51) 
energy

$$$$
53:0
     RDKit          3D

 48 51  0  0  1  0  0  0  0  0999 V2000
  149.2890  157.8600  131.4980 N   0  0  0  0  0  0  0  0  0  0  0  0
  148.6510  158.8870  132.2680 C   0  0  0  0  0  0  0  0  0  0  0  0
  149.3750  159.8880  132.5080 O   0  0  0  0  0  0  0  0  0  0  0  0
  147.2880  158.7120  132.6960 C   0  0  0  0  0  0  0  0  0  0  0  0
  146.4470  159.7890  132.9800 C   0  0  0  0  0  0  0  0  0  0  0  0
  145.2110  159.3340  133.3620 C   0  0  0  0  0  0  0  0  0  0  0  0
  144.0830  160.0050  133.7300 C   0  0  0  0  0  0  0  0  0  0  0  0
  142.9730  159.2580  134.0670 C   0  0  0  0  0  0  0  0  0  0  0  0
  142.9740  157.8800  134.0430 C   0  0  0  0  0  0  0  0  0  0  0  0
  141.8560  157.0920  134.4000 N   0  0  0  0  0  0  0  0  0  0  0  0
  141.5350  155.8180  133.9300 C   0  0  0  0  0  0  0  0  0  0  0  0
  142.4900  154.8050  133.9850 C   0  0  0  0  0  0  0  0  0  0  0  0
  142.2450  153.5250  133.5600 C   0  0  0  0  0  0  0  0  0  0  0  0
  141.0160  153.1750  133.0500 C   0  0  0  0  0  0  0  0  0  0  0  0
  140.8450  151.8630  132.6410 O   0  0  0  0  0  0  0  0  0  0  0  0
  141.2990  150.7270  133.3050 C   0  0  1  0  0  0  0  0  0  0  0  0
  140.3240  149.5530  133.1510 C   0  0  0  0  0  0  0  0  0  0  0  0
  140.6480  149.1110  131.7320 C   0  0  0  0  0  0  0  0  0  0  0  0
  142.0540  149.3080  131.5560 N   0  0  0  0  0  0  0  0  0  0  0  0
  142.5330  150.1260  132.6250 C   0  0  0  0  0  0  0  0  0  0  0  0
  140.0510  154.1440  132.9810 C   0  0  0  0  0  0  0  0  0  0  0  0
  140.3050  155.4450  133.4150 C   0  0  0  0  0  0  0  0  0  0  0  0
  144.1630  157.2590  133.6560 C   0  0  0  0  0  0  0  0  0  0  0  0
  145.2950  157.9560  133.3110 C   0  0  0  0  0  0  0  0  0  0  0  0
  146.5540  157.6030  132.9070 N   0  0  0  0  0  0  0  0  0  0  0  0
  146.9900  156.2620  132.7450 C   0  0  0  0  0  0  0  0  0  0  0  0
  148.0300  155.7730  133.2180 O   0  0  0  0  0  0  0  0  0  0  0  0
  146.2050  155.3690  131.9900 O   0  0  0  0  0  0  0  0  0  0  0  0
  149.2070  156.8600  131.7750 H   0  0  0  0  0  0  0  0  0  0  0  0
  149.8510  158.0770  130.6440 H   0  0  0  0  0  0  0  0  0  0  0  0
  146.7338  160.8485  132.9079 H   0  0  0  0  0  0  0  0  0  0  0  0
  144.0585  161.1044  133.7573 H   0  0  0  0  0  0  0  0  0  0  0  0
  142.0531  159.7818  134.3660 H   0  0  0  0  0  0  0  0  0  0  0  0
  141.1950  157.5290  135.1060 H   0  0  0  0  0  0  0  0  0  0  0  0
  143.4856  155.0431  134.3877 H   0  0  0  0  0  0  0  0  0  0  0  0
  143.0407  152.7684  133.6275 H   0  0  0  0  0  0  0  0  0  0  0  0
  141.4569  151.0723  134.3374 H   0  0  0  0  0  0  0  0  0  0  0  0
  140.5283  148.7564  133.8815 H   0  0  0  0  0  0  0  0  0  0  0  0
  139.2678  149.8076  133.3229 H   0  0  0  0  0  0  0  0  0  0  0  0
  140.3932  148.0494  131.5972 H   0  0  0  0  0  0  0  0  0  0  0  0
  140.0703  149.6872  130.9943 H   0  0  0  0  0  0  0  0  0  0  0  0
  142.5700  148.4210  131.5620 H   0  0  0  0  0  0  0  0  0  0  0  0
  143.1027  149.5172  133.3425 H   0  0  0  0  0  0  0  0  0  0  0  0
  143.2026  150.9145  132.2510 H   0  0  0  0  0  0  0  0  0  0  0  0
  139.0594  153.8923  132.5768 H   0  0  0  0  0  0  0  0  0  0  0  0
  139.5048  156.1967  133.3461 H   0  0  0  0  0  0  0  0  0  0  0  0
  144.1946  156.1599  133.6260 H   0  0  0  0  0  0  0  0  0  0  0  0
  145.6460  155.7010  131.1890 H   0  0  0  0  0  0  0  0  0  0  0  0
  1  2  1  0
  2  3  2  0
  2  4  1  0
  4  5  2  0
  5  6  1  0
  6  7  2  0
  7  8  1  0
  8  9  2  0
  9 10  1  0
 10 11  1  0
 11 12  2  0
 12 13  1  0
 13 14  2  0
 14 15  1  0
 15 16  1  0
 16 17  1  0
 17 18  1  0
 18 19  1  0
 19 20  1  0
 14 21  1  0
 21 22  2  0
  9 23  1  0
 23 24  2  0
 24 25  1  0
 25 26  1  0
 26 27  2  0
 26 28  1  0
 25  4  1  0
 24  6  1  0
 22 11  1  0
 20 16  1  0
  1 29  1  0
  1 30  1  0
  5 31  1  0
  7 32  1  0
  8 33  1  0
 10 34  1  0
 12 35  1  0
 13 36  1  0
 16 37  1  1
 17 38  1  0
 17 39  1  0
 18 40  1  0
 18 41  1  0
 19 42  1  0
 20 43  1  0
 20 44  1  0
 21 45  1  0
 22 46  1  0
 23 47  1  0
 28 48  1  0
M  END
>  <smiles>  (52) 
NC(=O)c1cc2ccc(Nc3ccc(OC4CCNC4)cc3)cc2n1C(=O)O

>  <score_type>  (52) 
oracle

>  <origin>  (52) 
adg

>  <m_score__min__energy>  (52) 
-9.0099999999999998

>  <m_primary>  (52) 
energy

$$$$
54:0
     RDKit          3D

 42 43  0  0  0  0  0  0  0  0999 V2000
  143.1580  157.4900  132.9810 C   0  0  0  0  0  0  0  0  0  0  0  0
  143.1950  158.4990  133.6250 C   0  0  0  0  0  0  0  0  0  0  0  0
  143.2170  159.7420  134.4180 C   0  0  0  0  0  0  0  0  0  0  0  0
  144.1450  160.7120  133.7670 C   0  0  0  0  0  0  0  0  0  0  0  0
  145.1120  160.0090  133.0250 O   0  0  0  0  0  0  0  0  0  0  0  0
  146.4580  160.0040  133.2000 C   0  0  0  0  0  0  0  0  0  0  0  0
  146.9750  161.0860  133.6410 O   0  0  0  0  0  0  0  0  0  0  0  0
  147.3370  158.9210  132.9400 N   0  0  0  0  0  0  0  0  0  0  0  0
  148.4350  158.9360  132.1650 C   0  0  0  0  0  0  0  0  0  0  0  0
  149.0370  160.0040  131.3930 C   0  0  0  0  0  0  0  0  0  0  0  0
  148.2100  161.1030  130.9370 N   0  0  0  0  0  0  0  0  0  0  0  0
  150.2380  160.0890  131.0640 O   0  0  0  0  0  0  0  0  0  0  0  0
  148.9830  157.6520  132.2030 C   0  0  0  0  0  0  0  0  0  0  0  0
  148.2070  156.8540  133.0090 C   0  0  0  0  0  0  0  0  0  0  0  0
  148.3330  155.5250  133.3570 C   0  0  0  0  0  0  0  0  0  0  0  0
  147.3970  154.9630  134.1990 C   0  0  0  0  0  0  0  0  0  0  0  0
  146.3570  155.7340  134.6740 C   0  0  0  0  0  0  0  0  0  0  0  0
  145.3760  155.1790  135.5360 N   0  0  0  0  0  0  0  0  0  0  0  0
  144.1980  154.5260  135.0080 C   0  0  0  0  0  0  0  0  0  0  0  0
  143.4450  153.7590  136.0160 C   0  0  0  0  0  0  0  0  0  0  0  0
  143.8760  153.8090  137.2160 O   0  0  0  0  0  0  0  0  0  0  0  0
  142.3140  153.0030  135.7400 O   0  0  0  0  0  0  0  0  0  0  0  0
  142.0210  152.6080  134.4110 C   0  0  0  0  0  0  0  0  0  0  0  0
  146.2610  157.0770  134.2990 C   0  0  0  0  0  0  0  0  0  0  0  0
  147.1880  157.6650  133.4570 C   0  0  0  0  0  0  0  0  0  0  0  0
  143.1240  156.5632  132.3895 H   0  0  0  0  0  0  0  0  0  0  0  0
  142.2049  160.1708  134.4612 H   0  0  0  0  0  0  0  0  0  0  0  0
  143.5594  159.5264  135.4409 H   0  0  0  0  0  0  0  0  0  0  0  0
  143.5750  161.3709  133.0955 H   0  0  0  0  0  0  0  0  0  0  0  0
  144.6431  161.3177  134.5384 H   0  0  0  0  0  0  0  0  0  0  0  0
  148.3580  161.5120  130.0000 H   0  0  0  0  0  0  0  0  0  0  0  0
  147.4580  161.4810  131.5660 H   0  0  0  0  0  0  0  0  0  0  0  0
  149.8913  157.3305  131.6722 H   0  0  0  0  0  0  0  0  0  0  0  0
  149.1676  154.9228  132.9686 H   0  0  0  0  0  0  0  0  0  0  0  0
  147.4794  153.9055  134.4903 H   0  0  0  0  0  0  0  0  0  0  0  0
  145.5050  155.2420  136.5710 H   0  0  0  0  0  0  0  0  0  0  0  0
  143.5329  155.2952  134.5886 H   0  0  0  0  0  0  0  0  0  0  0  0
  144.5410  153.8087  134.2479 H   0  0  0  0  0  0  0  0  0  0  0  0
  141.3657  151.7246  134.4271 H   0  0  0  0  0  0  0  0  0  0  0  0
  141.5136  153.4315  133.8872 H   0  0  0  0  0  0  0  0  0  0  0  0
  142.9563  152.3613  133.8872 H   0  0  0  0  0  0  0  0  0  0  0  0
  145.4267  157.6822  134.6833 H   0  0  0  0  0  0  0  0  0  0  0  0
  1  2  3  0
  2  3  1  0
  3  4  1  0
  4  5  1  0
  5  6  1  0
  6  7  2  0
  6  8  1  0
  8  9  1  0
  9 10  1  0
 10 11  1  0
 10 12  2  0
  9 13  2  0
 13 14  1  0
 14 15  2  0
 15 16  1  0
 16 17  2  0
 17 18  1  0
 18 19  1  0
 19 20  1  0
 20 21  2  0
 20 22  1  0
 22 23  1  0
 17 24  1  0
 24 25  2  0
 25  8  1  0
 25 14  1  0
  1 26  1  0
  3 27  1  0
  3 28  1  0
  4 29  1  0
  4 30  1  0
 11 31  1  0
 11 32  1  0
 13 33  1  0
 15 34  1  0
 16 35  1  0
 18 36  1  0
 19 37  1  0
 19 38  1  0
 23 39  1  0
 23 40  1  0
 23 41  1  0
 24 42  1  0
M  END
>  <smiles>  (53) 
C#CCCOC(=O)n1c(C(N)=O)cc2ccc(NCC(=O)OC)cc21

>  <score_type>  (53) 
oracle

>  <origin>  (53) 
adg

>  <m_score__min__energy>  (53) 
-7.3799999999999999

>  <m_primary>  (53) 
energy

$$$$
55:0
     RDKit          3D

 45 47  0  0  0  0  0  0  0  0999 V2000
  149.1770  150.4840  132.4110 C   0  0  0  0  0  0  0  0  0  0  0  0
  148.9550  151.9340  132.5170 N   0  0  0  0  0  0  0  0  0  0  0  0
  147.7900  152.5790  132.7130 C   0  0  0  0  0  0  0  0  0  0  0  0
  148.0750  153.9320  132.7440 C   0  0  0  0  0  0  0  0  0  0  0  0
  147.1780  155.0640  132.9280 C   0  0  0  0  0  0  0  0  0  0  0  0
  145.8150  154.8690  132.8770 C   0  0  0  0  0  0  0  0  0  0  0  0
  144.9620  155.9400  133.0510 C   0  0  0  0  0  0  0  0  0  0  0  0
  145.4950  157.1940  133.2740 C   0  0  0  0  0  0  0  0  0  0  0  0
  144.9010  158.4170  133.4760 C   0  0  0  0  0  0  0  0  0  0  0  0
  145.8870  159.3980  133.6580 C   0  0  0  0  0  0  0  0  0  0  0  0
  145.5770  160.7950  133.8950 C   0  0  0  0  0  0  0  0  0  0  0  0
  146.6580  161.7550  133.7990 N   0  0  0  0  0  0  0  0  0  0  0  0
  144.4740  161.2730  134.1780 O   0  0  0  0  0  0  0  0  0  0  0  0
  147.0680  158.7650  133.5640 N   0  0  0  0  0  0  0  0  0  0  0  0
  148.3570  159.3410  133.6810 C   0  0  0  0  0  0  0  0  0  0  0  0
  149.2220  158.9930  134.5230 O   0  0  0  0  0  0  0  0  0  0  0  0
  148.7470  160.3720  132.8270 O   0  0  0  0  0  0  0  0  0  0  0  0
  148.8380  160.0990  131.4430 C   0  0  0  0  0  0  0  0  0  0  0  0
  149.9690  160.8480  130.7900 C   0  0  0  0  0  0  0  0  0  0  0  0
  147.5420  160.4030  130.7220 C   0  0  0  0  0  0  0  0  0  0  0  0
  149.1260  158.6260  131.2430 C   0  0  0  0  0  0  0  0  0  0  0  0
  146.8540  157.4370  133.3330 C   0  0  0  0  0  0  0  0  0  0  0  0
  147.6770  156.3430  133.1550 C   0  0  0  0  0  0  0  0  0  0  0  0
  149.4490  154.0590  132.5580 C   0  0  0  0  0  0  0  0  0  0  0  0
  149.9390  152.8270  132.4260 N   0  0  0  0  0  0  0  0  0  0  0  0
  149.2437  150.0486  133.4190 H   0  0  0  0  0  0  0  0  0  0  0  0
  148.3389  150.0235  131.8674 H   0  0  0  0  0  0  0  0  0  0  0  0
  150.1145  150.2954  131.8674 H   0  0  0  0  0  0  0  0  0  0  0  0
  146.7982  152.1171  132.8270 H   0  0  0  0  0  0  0  0  0  0  0  0
  145.4079  153.8629  132.6982 H   0  0  0  0  0  0  0  0  0  0  0  0
  143.8721  155.7964  133.0125 H   0  0  0  0  0  0  0  0  0  0  0  0
  143.8163  158.5990  133.4924 H   0  0  0  0  0  0  0  0  0  0  0  0
  146.7700  162.5210  134.4950 H   0  0  0  0  0  0  0  0  0  0  0  0
  147.3130  161.6260  132.9870 H   0  0  0  0  0  0  0  0  0  0  0  0
  150.6195  161.2788  131.5654 H   0  0  0  0  0  0  0  0  0  0  0  0
  150.5528  160.1574  130.1637 H   0  0  0  0  0  0  0  0  0  0  0  0
  149.5610  161.6551  130.1637 H   0  0  0  0  0  0  0  0  0  0  0  0
  146.7473  160.5894  131.4593 H   0  0  0  0  0  0  0  0  0  0  0  0
  147.6737  161.2946  130.0914 H   0  0  0  0  0  0  0  0  0  0  0  0
  147.2634  159.5458  130.0914 H   0  0  0  0  0  0  0  0  0  0  0  0
  149.2220  158.1349  132.2226 H   0  0  0  0  0  0  0  0  0  0  0  0
  148.3012  158.1642  130.6806 H   0  0  0  0  0  0  0  0  0  0  0  0
  150.0641  158.5089  130.6806 H   0  0  0  0  0  0  0  0  0  0  0  0
  148.7668  156.4876  133.1940 H   0  0  0  0  0  0  0  0  0  0  0  0
  150.0212  154.9979  132.5261 H   0  0  0  0  0  0  0  0  0  0  0  0
  1  2  1  0
  2  3  1  0
  3  4  2  0
  4  5  1  0
  5  6  2  0
  6  7  1  0
  7  8  2  0
  8  9  1  0
  9 10  2  0
 10 11  1  0
 11 12  1  0
 11 13  2  0
 10 14  1  0
 14 15  1  0
 15 16  2  0
 15 17  1  0
 17 18  1  0
 18 19  1  0
 18 20  1  0
 18 21  1  0
 14 22  1  0
 22 23  2  0
  4 24  1  0
 24 25  2  0
 25  2  1  0
 23  5  1  0
 22  8  1  0
  1 26  1  0
  1 27  1  0
  1 28  1  0
  3 29  1  0
  6 30  1  0
  7 31  1  0
  9 32  1  0
 12 33  1  0
 12 34  1  0
 19 35  1  0
 19 36  1  0
 19 37  1  0
 20 38  1  0
 20 39  1  0
 20 40  1  0
 21 41  1  0
 21 42  1  0
 21 43  1  0
 23 44  1  0
 24 45  1  0
M  END
>  <smiles>  (54) 
Cn1cc(-c2ccc3cc(C(N)=O)n(C(=O)OC(C)(C)C)c3c2)cn1

>  <score_type>  (54) 
oracle

>  <origin>  (54) 
adg

>  <m_score__min__energy>  (54) 
-8.1199999999999992

>  <m_primary>  (54) 
energy

$$$$
56:0
     RDKit          3D

 85 89  0  0  0  0  0  0  0  0999 V2000
  149.7270  161.5460  130.8330 C   0  0  0  0  0  0  0  0  0  0  0  0
  149.0310  160.5420  129.9150 C   0  0  0  0  0  0  0  0  0  0  0  0
  147.5590  160.8000  129.9760 C   0  0  0  0  0  0  0  0  0  0  0  0
  149.5830  160.8230  128.5150 C   0  0  0  0  0  0  0  0  0  0  0  0
  149.4210  159.2660  130.3590 O   0  0  0  0  0  0  0  0  0  0  0  0
  149.5510  158.8890  131.6880 C   0  0  0  0  0  0  0  0  0  0  0  0
  150.7260  158.5290  132.0410 O   0  0  0  0  0  0  0  0  0  0  0  0
  148.4950  158.8900  132.6070 N   0  0  0  0  0  0  0  0  0  0  0  0
  147.1380  159.2900  132.2640 C   0  0  0  0  0  0  0  0  0  0  0  0
  146.2280  159.1860  133.4360 C   0  0  0  0  0  0  0  0  0  0  0  0
  146.3920  158.0540  134.2800 N   0  0  0  0  0  0  0  0  0  0  0  0
  145.2670  157.1550  134.3170 C   0  0  0  0  0  0  0  0  0  0  0  0
  144.0390  157.7980  134.8610 C   0  0  0  0  0  0  0  0  0  0  0  0
  142.9330  157.8570  133.8010 C   0  0  0  0  0  0  0  0  0  0  0  0
  142.6920  156.4990  133.4150 N   0  0  0  0  0  0  0  0  0  0  0  0
  141.4130  155.8950  133.5520 C   0  0  0  0  0  0  0  0  0  0  0  0
  140.4260  156.5240  134.0210 O   0  0  0  0  0  0  0  0  0  0  0  0
  141.1730  154.5120  133.1560 C   0  0  0  0  0  0  0  0  0  0  0  0
  142.2630  153.7050  132.9080 C   0  0  0  0  0  0  0  0  0  0  0  0
  142.1140  152.3850  132.5290 C   0  0  0  0  0  0  0  0  0  0  0  0
  140.8330  151.8560  132.3940 C   0  0  0  0  0  0  0  0  0  0  0  0
  140.6900  150.4580  131.9900 C   0  0  0  0  0  0  0  0  0  0  0  0
  141.2960  149.4980  132.7660 C   0  0  0  0  0  0  0  0  0  0  0  0
  141.1720  148.1750  132.4010 C   0  0  0  0  0  0  0  0  0  0  0  0
  140.4500  147.8450  131.2760 C   0  0  0  0  0  0  0  0  0  0  0  0
  140.1910  146.6250  130.7230 C   0  0  0  0  0  0  0  0  0  0  0  0
  139.4080  146.8320  129.5810 C   0  0  0  0  0  0  0  0  0  0  0  0
  138.9500  145.7420  128.7470 C   0  0  0  0  0  0  0  0  0  0  0  0
  139.4920  144.4270  128.9500 N   0  0  0  0  0  0  0  0  0  0  0  0
  138.0990  145.8250  127.8330 O   0  0  0  0  0  0  0  0  0  0  0  0
  139.1940  148.1500  129.4390 N   0  0  0  0  0  0  0  0  0  0  0  0
  138.4730  148.8530  128.4580 C   0  0  0  0  0  0  0  0  0  0  0  0
  137.4910  149.6070  128.7920 O   0  0  0  0  0  0  0  0  0  0  0  0
  138.7110  148.8290  127.0900 O   0  0  0  0  0  0  0  0  0  0  0  0
  139.1020  147.6320  126.4350 C   0  0  0  0  0  0  0  0  0  0  0  0
  137.9680  147.1280  125.6490 C   0  0  0  0  0  0  0  0  0  0  0  0
  137.2410  147.9800  125.0670 O   0  0  0  0  0  0  0  0  0  0  0  0
  137.6230  145.8010  125.4880 O   0  0  0  0  0  0  0  0  0  0  0  0
  139.8270  148.7700  130.4700 C   0  0  0  0  0  0  0  0  0  0  0  0
  139.9640  150.1000  130.8570 C   0  0  0  0  0  0  0  0  0  0  0  0
  139.7470  152.6460  132.6370 C   0  0  0  0  0  0  0  0  0  0  0  0
  139.9110  153.9730  133.0180 C   0  0  0  0  0  0  0  0  0  0  0  0
  143.7910  155.7350  132.8740 C   0  0  0  0  0  0  0  0  0  0  0  0
  145.1090  156.4570  133.0070 C   0  0  0  0  0  0  0  0  0  0  0  0
  147.6720  157.4340  134.2840 C   0  0  0  0  0  0  0  0  0  0  0  0
  148.7270  158.4800  133.9740 C   0  0  0  0  0  0  0  0  0  0  0  0
  149.5391  161.2749  131.8824 H   0  0  0  0  0  0  0  0  0  0  0  0
  150.8096  161.5312  130.6387 H   0  0  0  0  0  0  0  0  0  0  0  0
  149.3334  162.5546  130.6387 H   0  0  0  0  0  0  0  0  0  0  0  0
  147.2398  160.8559  131.0272 H   0  0  0  0  0  0  0  0  0  0  0  0
  147.3324  161.7516  129.4728 H   0  0  0  0  0  0  0  0  0  0  0  0
  147.0223  159.9822  129.4728 H   0  0  0  0  0  0  0  0  0  0  0  0
  150.5604  161.3206  128.5993 H   0  0  0  0  0  0  0  0  0  0  0  0
  149.7000  159.8748  127.9699 H   0  0  0  0  0  0  0  0  0  0  0  0
  148.8851  161.4756  127.9699 H   0  0  0  0  0  0  0  0  0  0  0  0
  147.1504  160.3321  131.9121 H   0  0  0  0  0  0  0  0  0  0  0  0
  146.7672  158.6163  131.4775 H   0  0  0  0  0  0  0  0  0  0  0  0
  146.3768  160.0846  134.0528 H   0  0  0  0  0  0  0  0  0  0  0  0
  145.2203  159.0803  133.0077 H   0  0  0  0  0  0  0  0  0  0  0  0
  145.4698  156.3571  135.0466 H   0  0  0  0  0  0  0  0  0  0  0  0
  143.6803  157.2163  135.7229 H   0  0  0  0  0  0  0  0  0  0  0  0
  144.2873  158.8255  135.1653 H   0  0  0  0  0  0  0  0  0  0  0  0
  142.0206  158.3032  134.2234 H   0  0  0  0  0  0  0  0  0  0  0  0
  143.2277  158.4768  132.9414 H   0  0  0  0  0  0  0  0  0  0  0  0
  143.2753  154.1221  133.0145 H   0  0  0  0  0  0  0  0  0  0  0  0
  142.9975  151.7587  132.3360 H   0  0  0  0  0  0  0  0  0  0  0  0
  141.8690  149.7809  133.6613 H   0  0  0  0  0  0  0  0  0  0  0  0
  141.6468  147.3875  133.0046 H   0  0  0  0  0  0  0  0  0  0  0  0
  140.5356  145.6530  131.1058 H   0  0  0  0  0  0  0  0  0  0  0  0
  139.0740  143.7640  129.6630 H   0  0  0  0  0  0  0  0  0  0  0  0
  140.3200  144.0950  128.3910 H   0  0  0  0  0  0  0  0  0  0  0  0
  139.9520  147.8369  125.7675 H   0  0  0  0  0  0  0  0  0  0  0  0
  139.4028  146.8805  127.1798 H   0  0  0  0  0  0  0  0  0  0  0  0
  136.8840  145.3990  126.0540 H   0  0  0  0  0  0  0  0  0  0  0  0
  139.4876  150.8867  130.2536 H   0  0  0  0  0  0  0  0  0  0  0  0
  138.7344  152.2297  132.5306 H   0  0  0  0  0  0  0  0  0  0  0  0
  139.0268  154.5983  133.2110 H   0  0  0  0  0  0  0  0  0  0  0  0
  143.8557  154.7780  133.4125 H   0  0  0  0  0  0  0  0  0  0  0  0
  143.5983  155.5800  131.8022 H   0  0  0  0  0  0  0  0  0  0  0  0
  145.9218  155.7234  132.9014 H   0  0  0  0  0  0  0  0  0  0  0  0
  145.1417  157.2256  132.2208 H   0  0  0  0  0  0  0  0  0  0  0  0
  147.8666  156.9956  135.2739 H   0  0  0  0  0  0  0  0  0  0  0  0
  147.7025  156.6382  133.5252 H   0  0  0  0  0  0  0  0  0  0  0  0
  148.6240  159.3392  134.6531 H   0  0  0  0  0  0  0  0  0  0  0  0
  149.7425  158.0784  134.1065 H   0  0  0  0  0  0  0  0  0  0  0  0
  1  2  1  0
  2  3  1  0
  2  4  1  0
  2  5  1  0
  5  6  1  0
  6  7  2  0
  6  8  1  0
  8  9  1  0
  9 10  1  0
 10 11  1  0
 11 12  1  0
 12 13  1  0
 13 14  1  0
 14 15  1  0
 15 16  1  0
 16 17  2  0
 16 18  1  0
 18 19  2  0
 19 20  1  0
 20 21  2  0
 21 22  1  0
 22 23  2  0
 23 24  1  0
 24 25  2  0
 25 26  1  0
 26 27  2  0
 27 28  1  0
 28 29  1  0
 28 30  2  0
 27 31  1  0
 31 32  1  0
 32 33  2  0
 32 34  1  0
 34 35  1  0
 35 36  1  0
 36 37  2  0
 36 38  1  0
 31 39  1  0
 39 40  2  0
 21 41  1  0
 41 42  2  0
 15 43  1  0
 43 44  1  0
 11 45  1  0
 45 46  1  0
 46  8  1  0
 44 12  1  0
 42 18  1  0
 40 22  1  0
 39 25  1  0
  1 47  1  0
  1 48  1  0
  1 49  1  0
  3 50  1  0
  3 51  1  0
  3 52  1  0
  4 53  1  0
  4 54  1  0
  4 55  1  0
  9 56  1  0
  9 57  1  0
 10 58  1  0
 10 59  1  0
 12 60  1  0
 13 61  1  0
 13 62  1  0
 14 63  1  0
 14 64  1  0
 19 65  1  0
 20 66  1  0
 23 67  1  0
 24 68  1  0
 26 69  1  0
 29 70  1  0
 29 71  1  0
 35 72  1  0
 35 73  1  0
 38 74  1  0
 40 75  1  0
 41 76  1  0
 42 77  1  0
 43 78  1  0
 43 79  1  0
 44 80  1  0
 44 81  1  0
 45 82  1  0
 45 83  1  0
 46 84  1  0
 46 85  1  0
M  END
>  <smiles>  (55) 
CC(C)(C)OC(=O)N1CCN(C2CCN(C(=O)c3ccc(-c4ccc5cc(C(N)=O)n(C(=O)OCC(=O)O)c5c4)cc3)CC2)CC1

>  <score_type>  (55) 
oracle

>  <origin>  (55) 
adg

>  <m_score__min__energy>  (55) 
-0.35999999999999999

>  <m_primary>  (55) 
energy

$$$$
57:0
     RDKit          3D

 40 41  0  0  0  0  0  0  0  0999 V2000
  141.1340  159.5450  135.7550 C   0  0  0  0  0  0  0  0  0  0  0  0
  141.5420  159.7360  134.3780 N   0  0  0  0  0  0  0  0  0  0  0  0
  140.5650  159.7430  133.3330 C   0  0  0  0  0  0  0  0  0  0  0  0
  142.9260  159.9140  134.1030 C   0  0  0  0  0  0  0  0  0  0  0  0
  143.4540  161.1830  134.0000 C   0  0  0  0  0  0  0  0  0  0  0  0
  144.7970  161.3410  133.7330 C   0  0  0  0  0  0  0  0  0  0  0  0
  145.5880  160.2220  133.5720 C   0  0  0  0  0  0  0  0  0  0  0  0
  146.9290  160.0920  133.3060 C   0  0  0  0  0  0  0  0  0  0  0  0
  147.2470  158.7250  133.2400 C   0  0  0  0  0  0  0  0  0  0  0  0
  148.5990  158.2790  132.9690 C   0  0  0  0  0  0  0  0  0  0  0  0
  148.8680  156.8700  132.7740 N   0  0  0  0  0  0  0  0  0  0  0  0
  149.6100  159.0140  132.8810 O   0  0  0  0  0  0  0  0  0  0  0  0
  146.1210  158.0430  133.4620 N   0  0  0  0  0  0  0  0  0  0  0  0
  145.9620  156.6440  133.4920 C   0  0  0  0  0  0  0  0  0  0  0  0
  145.1720  156.1400  134.3640 O   0  0  0  0  0  0  0  0  0  0  0  0
  146.5750  155.7370  132.6690 O   0  0  0  0  0  0  0  0  0  0  0  0
  146.0960  154.4850  132.2770 C   0  0  0  0  0  0  0  0  0  0  0  0
  146.6760  153.4080  132.9150 O   0  0  0  0  0  0  0  0  0  0  0  0
  148.2400  153.8230  133.4590 P   0  0  0  0  0  0  0  0  0  0  0  0
  149.0550  154.3860  132.3190 O   0  0  0  0  0  0  0  0  0  0  0  0
  148.9710  152.4360  134.0730 O   0  0  0  0  0  0  0  0  0  0  0  0
  148.0840  154.9800  134.6750 O   0  0  0  0  0  0  0  0  0  0  0  0
  145.1060  158.9350  133.6670 C   0  0  0  0  0  0  0  0  0  0  0  0
  143.7550  158.8060  133.9360 C   0  0  0  0  0  0  0  0  0  0  0  0
  141.9235  159.9146  136.4260 H   0  0  0  0  0  0  0  0  0  0  0  0
  140.2036  160.1011  135.9423 H   0  0  0  0  0  0  0  0  0  0  0  0
  140.9652  158.4743  135.9423 H   0  0  0  0  0  0  0  0  0  0  0  0
  139.5571  159.7502  133.7734 H   0  0  0  0  0  0  0  0  0  0  0  0
  140.6998  160.6402  132.7110 H   0  0  0  0  0  0  0  0  0  0  0  0
  140.6869  158.8440  132.7110 H   0  0  0  0  0  0  0  0  0  0  0  0
  142.8079  162.0637  134.1300 H   0  0  0  0  0  0  0  0  0  0  0  0
  145.2330  162.3474  133.6493 H   0  0  0  0  0  0  0  0  0  0  0  0
  147.6377  160.9217  133.1674 H   0  0  0  0  0  0  0  0  0  0  0  0
  148.5670  156.4410  131.8580 H   0  0  0  0  0  0  0  0  0  0  0  0
  149.3380  156.3340  133.5220 H   0  0  0  0  0  0  0  0  0  0  0  0
  145.0146  154.4567  132.4764 H   0  0  0  0  0  0  0  0  0  0  0  0
  146.3492  154.3812  131.2116 H   0  0  0  0  0  0  0  0  0  0  0  0
  148.3190  151.6880  134.0790 H   0  0  0  0  0  0  0  0  0  0  0  0
  147.1510  155.2860  134.6970 H   0  0  0  0  0  0  0  0  0  0  0  0
  143.3220  157.7984  134.0207 H   0  0  0  0  0  0  0  0  0  0  0  0
  1  2  1  0
  2  3  1  0
  2  4  1  0
  4  5  2  0
  5  6  1  0
  6  7  2  0
  7  8  1  0
  8  9  2  0
  9 10  1  0
 10 11  1  0
 10 12  2  0
  9 13  1  0
 13 14  1  0
 14 15  2  0
 14 16  1  0
 16 17  1  0
 17 18  1  0
 18 19  1  0
 19 20  2  0
 19 21  1  0
 19 22  1  0
 13 23  1  0
 23 24  2  0
 24  4  1  0
 23  7  1  0
  1 25  1  0
  1 26  1  0
  1 27  1  0
  3 28  1  0
  3 29  1  0
  3 30  1  0
  5 31  1  0
  6 32  1  0
  8 33  1  0
 11 34  1  0
 11 35  1  0
 17 36  1  0
 17 37  1  0
 21 38  1  0
 22 39  1  0
 24 40  1  0
M  END
>  <smiles>  (56) 
CN(C)c1ccc2cc(C(N)=O)n(C(=O)OCOP(=O)(O)O)c2c1

>  <score_type>  (56) 
oracle

>  <origin>  (56) 
adg

>  <m_score__min__energy>  (56) 
-6.5599999999999996

>  <m_primary>  (56) 
energy

$$$$
58:0
     RDKit          3D

 42 44  0  0  0  0  0  0  0  0999 V2000
  147.2100  152.3960  132.6050 C   0  0  0  0  0  0  0  0  0  0  0  0
  148.3980  153.2560  132.7530 C   0  0  0  0  0  0  0  0  0  0  0  0
  149.5850  152.9060  131.9060 C   0  0  0  0  0  0  0  0  0  0  0  0
  148.4780  154.3130  133.5860 C   0  0  0  0  0  0  0  0  0  0  0  0
  147.3570  154.6710  134.4100 C   0  0  0  0  0  0  0  0  0  0  0  0
  147.2450  153.9450  135.4630 O   0  0  0  0  0  0  0  0  0  0  0  0
  146.3800  155.6650  134.2600 N   0  0  0  0  0  0  0  0  0  0  0  0
  145.1010  155.5360  134.7100 C   0  0  0  0  0  0  0  0  0  0  0  0
  144.3950  154.4890  135.4020 C   0  0  0  0  0  0  0  0  0  0  0  0
  144.8800  154.0320  136.7050 N   0  0  0  0  0  0  0  0  0  0  0  0
  143.3720  153.8740  135.0430 O   0  0  0  0  0  0  0  0  0  0  0  0
  144.4470  156.7330  134.3680 C   0  0  0  0  0  0  0  0  0  0  0  0
  145.2990  157.5680  133.7290 C   0  0  0  0  0  0  0  0  0  0  0  0
  145.1090  158.8290  133.2150 C   0  0  0  0  0  0  0  0  0  0  0  0
  146.1380  159.4970  132.5970 C   0  0  0  0  0  0  0  0  0  0  0  0
  147.3500  158.8550  132.5160 C   0  0  0  0  0  0  0  0  0  0  0  0
  148.4480  159.4990  131.8870 N   0  0  0  0  0  0  0  0  0  0  0  0
  148.8180  160.8580  131.5450 C   0  0  0  0  0  0  0  0  0  0  0  0
  149.5970  160.2780  130.3780 C   0  0  0  0  0  0  0  0  0  0  0  0
  148.8340  160.0980  129.2500 O   0  0  0  0  0  0  0  0  0  0  0  0
  149.7040  159.0670  131.3040 C   0  0  0  0  0  0  0  0  0  0  0  0
  147.5260  157.5710  133.0440 C   0  0  0  0  0  0  0  0  0  0  0  0
  146.5120  156.8910  133.6640 C   0  0  0  0  0  0  0  0  0  0  0  0
  146.8301  152.1210  133.6000 H   0  0  0  0  0  0  0  0  0  0  0  0
  146.4300  152.9401  132.0523 H   0  0  0  0  0  0  0  0  0  0  0  0
  147.4833  151.4851  132.0523 H   0  0  0  0  0  0  0  0  0  0  0  0
  150.4371  152.6548  132.5547 H   0  0  0  0  0  0  0  0  0  0  0  0
  149.3403  152.0418  131.2710 H   0  0  0  0  0  0  0  0  0  0  0  0
  149.8483  153.7647  131.2710 H   0  0  0  0  0  0  0  0  0  0  0  0
  149.4049  154.9034  133.6349 H   0  0  0  0  0  0  0  0  0  0  0  0
  145.6300  153.3270  136.7780 H   0  0  0  0  0  0  0  0  0  0  0  0
  144.3930  154.4890  137.5070 H   0  0  0  0  0  0  0  0  0  0  0  0
  143.3932  156.9585  134.5884 H   0  0  0  0  0  0  0  0  0  0  0  0
  144.1224  159.3081  133.2995 H   0  0  0  0  0  0  0  0  0  0  0  0
  145.9971  160.5064  132.1832 H   0  0  0  0  0  0  0  0  0  0  0  0
  147.9758  161.5051  131.2587 H   0  0  0  0  0  0  0  0  0  0  0  0
  149.2865  161.5328  132.2765 H   0  0  0  0  0  0  0  0  0  0  0  0
  150.4663  160.7494  129.8962 H   0  0  0  0  0  0  0  0  0  0  0  0
  148.2240  160.8290  129.0230 H   0  0  0  0  0  0  0  0  0  0  0  0
  149.6648  158.0927  130.7949 H   0  0  0  0  0  0  0  0  0  0  0  0
  150.5976  158.8789  131.9173 H   0  0  0  0  0  0  0  0  0  0  0  0
  148.5124  157.0917  132.9581 H   0  0  0  0  0  0  0  0  0  0  0  0
  1  2  1  0
  2  3  1  0
  2  4  2  3
  4  5  1  0
  5  6  2  0
  5  7  1  0
  7  8  1  0
  8  9  1  0
  9 10  1  0
  9 11  2  0
  8 12  2  0
 12 13  1  0
 13 14  2  0
 14 15  1  0
 15 16  2  0
 16 17  1  0
 17 18  1  0
 18 19  1  0
 19 20  1  0
 19 21  1  0
 16 22  1  0
 22 23  2  0
 23  7  1  0
 23 13  1  0
 21 17  1  0
  1 24  1  0
  1 25  1  0
  1 26  1  0
  3 27  1  0
  3 28  1  0
  3 29  1  0
  4 30  1  0
 10 31  1  0
 10 32  1  0
 12 33  1  0
 14 34  1  0
 15 35  1  0
 18 36  1  0
 18 37  1  0
 19 38  1  0
 20 39  1  0
 21 40  1  0
 21 41  1  0
 22 42  1  0
M  END
>  <smiles>  (57) 
CC(C)=CC(=O)n1c(C(N)=O)cc2ccc(N3CC(O)C3)cc21

>  <score_type>  (57) 
oracle

>  <origin>  (57) 
adg

>  <m_score__min__energy>  (57) 
-8.4399999999999995

>  <m_primary>  (57) 
energy

$$$$
59:0
     RDKit          3D

 45 46  0  0  0  0  0  0  0  0999 V2000
  140.2410  149.8440  132.9250 C   0  0  0  0  0  0  0  0  0  0  0  0
  141.2450  150.9330  132.9280 C   0  0  0  0  0  0  0  0  0  0  0  0
  142.5680  150.6050  132.7800 C   0  0  0  0  0  0  0  0  0  0  0  0
  143.4830  151.6290  132.7860 C   0  0  0  0  0  0  0  0  0  0  0  0
  143.0860  152.9370  132.9320 C   0  0  0  0  0  0  0  0  0  0  0  0
  143.8100  154.0840  132.9650 C   0  0  0  0  0  0  0  0  0  0  0  0
  142.9370  155.1650  133.1360 C   0  0  0  0  0  0  0  0  0  0  0  0
  143.4160  156.5190  133.2060 C   0  0  0  0  0  0  0  0  0  0  0  0
  142.8980  157.4680  132.2310 N   0  0  0  0  0  0  0  0  0  0  0  0
  144.2280  157.0320  133.9900 O   0  0  0  0  0  0  0  0  0  0  0  0
  141.6720  154.6660  133.2070 N   0  0  0  0  0  0  0  0  0  0  0  0
  140.4440  155.3050  133.3740 C   0  0  0  0  0  0  0  0  0  0  0  0
  139.4710  154.9310  132.6090 O   0  0  0  0  0  0  0  0  0  0  0  0
  140.0350  156.3690  134.2990 C   0  0  0  0  0  0  0  0  0  0  0  0
  140.1870  157.7180  133.5970 C   0  0  0  0  0  0  0  0  0  0  0  0
  140.4500  157.6940  132.3560 O   0  0  0  0  0  0  0  0  0  0  0  0
  140.0460  158.9000  134.2710 O   0  0  0  0  0  0  0  0  0  0  0  0
  140.7430  159.1880  135.4790 C   0  0  0  0  0  0  0  0  0  0  0  0
  142.2080  159.1680  135.1330 C   0  0  0  0  0  0  0  0  0  0  0  0
  142.5750  159.9310  133.9910 N   0  0  0  0  0  0  0  0  0  0  0  0
  141.7310  161.0360  133.6740 C   0  0  0  0  0  0  0  0  0  0  0  0
  143.9700  160.1190  133.7680 C   0  0  0  0  0  0  0  0  0  0  0  0
  141.7720  153.3020  133.0820 C   0  0  0  0  0  0  0  0  0  0  0  0
  140.8520  152.2670  133.0760 C   0  0  0  0  0  0  0  0  0  0  0  0
  139.9910  149.5729  133.9614 H   0  0  0  0  0  0  0  0  0  0  0  0
  139.3328  150.1840  132.4057 H   0  0  0  0  0  0  0  0  0  0  0  0
  140.6535  148.9664  132.4057 H   0  0  0  0  0  0  0  0  0  0  0  0
  142.8853  149.5585  132.6607 H   0  0  0  0  0  0  0  0  0  0  0  0
  144.5525  151.3985  132.6719 H   0  0  0  0  0  0  0  0  0  0  0  0
  144.9039  154.1532  132.8725 H   0  0  0  0  0  0  0  0  0  0  0  0
  142.8800  157.2600  131.2230 H   0  0  0  0  0  0  0  0  0  0  0  0
  142.5370  158.3910  132.6080 H   0  0  0  0  0  0  0  0  0  0  0  0
  138.9851  156.2209  134.5917 H   0  0  0  0  0  0  0  0  0  0  0  0
  140.6657  156.3436  135.1999 H   0  0  0  0  0  0  0  0  0  0  0  0
  140.4543  160.1791  135.8589 H   0  0  0  0  0  0  0  0  0  0  0  0
  140.5061  158.4541  136.2634 H   0  0  0  0  0  0  0  0  0  0  0  0
  142.7660  159.5594  135.9964 H   0  0  0  0  0  0  0  0  0  0  0  0
  142.4477  158.1225  134.8890 H   0  0  0  0  0  0  0  0  0  0  0  0
  141.3741  161.5033  134.6036 H   0  0  0  0  0  0  0  0  0  0  0  0
  142.2977  161.7737  133.0869 H   0  0  0  0  0  0  0  0  0  0  0  0
  140.8702  160.6833  133.0869 H   0  0  0  0  0  0  0  0  0  0  0  0
  144.4897  160.1890  134.7350 H   0  0  0  0  0  0  0  0  0  0  0  0
  144.3685  159.2664  133.1985 H   0  0  0  0  0  0  0  0  0  0  0  0
  144.1285  161.0466  133.1985 H   0  0  0  0  0  0  0  0  0  0  0  0
  139.7832  152.5004  133.1908 H   0  0  0  0  0  0  0  0  0  0  0  0
  1  2  1  0
  2  3  2  0
  3  4  1  0
  4  5  2  0
  5  6  1  0
  6  7  2  0
  7  8  1  0
  8  9  1  0
  8 10  2  0
  7 11  1  0
 11 12  1  0
 12 13  2  0
 12 14  1  0
 14 15  1  0
 15 16  2  0
 15 17  1  0
 17 18  1  0
 18 19  1  0
 19 20  1  0
 20 21  1  0
 20 22  1  0
 11 23  1  0
 23 24  2  0
 24  2  1  0
 23  5  1  0
  1 25  1  0
  1 26  1  0
  1 27  1  0
  3 28  1  0
  4 29  1  0
  6 30  1  0
  9 31  1  0
  9 32  1  0
 14 33  1  0
 14 34  1  0
 18 35  1  0
 18 36  1  0
 19 37  1  0
 19 38  1  0
 21 39  1  0
 21 40  1  0
 21 41  1  0
 22 42  1  0
 22 43  1  0
 22 44  1  0
 24 45  1  0
M  END
>  <smiles>  (58) 
Cc1ccc2cc(C(N)=O)n(C(=O)CC(=O)OCCN(C)C)c2c1

>  <score_type>  (58) 
oracle

>  <origin>  (58) 
adg

>  <m_score__min__energy>  (58) 
-6.9500000000000002

>  <m_primary>  (58) 
energy

$$$$
60:0
     RDKit          3D

 48 49  0  0  0  0  0  0  0  0999 V2000
  138.5400  157.8990  133.3890 C   0  0  0  0  0  0  0  0  0  0  0  0
  138.9640  158.3850  132.1280 N   0  0  0  0  0  0  0  0  0  0  0  0
  137.9240  159.1630  131.4690 C   0  0  0  0  0  0  0  0  0  0  0  0
  140.2550  158.9030  131.9640 C   0  0  0  0  0  0  0  0  0  0  0  0
  140.5460  160.1960  132.6340 C   0  0  0  0  0  0  0  0  0  0  0  0
  141.0400  160.0700  134.0420 C   0  0  0  0  0  0  0  0  0  0  0  0
  142.5040  160.2440  134.0940 N   0  0  0  0  0  0  0  0  0  0  0  0
  143.3600  159.1340  133.8260 C   0  0  0  0  0  0  0  0  0  0  0  0
  142.8640  157.8520  133.7660 C   0  0  0  0  0  0  0  0  0  0  0  0
  143.7140  156.7960  133.5130 C   0  0  0  0  0  0  0  0  0  0  0  0
  145.0630  157.0510  133.3220 C   0  0  0  0  0  0  0  0  0  0  0  0
  146.1200  156.2140  133.0550 C   0  0  0  0  0  0  0  0  0  0  0  0
  147.2950  156.9700  132.9440 C   0  0  0  0  0  0  0  0  0  0  0  0
  148.5750  156.3530  132.6590 C   0  0  0  0  0  0  0  0  0  0  0  0
  149.6830  157.1860  132.2410 N   0  0  0  0  0  0  0  0  0  0  0  0
  148.8410  155.1390  132.7340 O   0  0  0  0  0  0  0  0  0  0  0  0
  146.9450  158.2390  133.1430 N   0  0  0  0  0  0  0  0  0  0  0  0
  147.8070  159.3620  133.1380 C   0  0  0  0  0  0  0  0  0  0  0  0
  148.8560  159.4680  133.8190 O   0  0  0  0  0  0  0  0  0  0  0  0
  147.5130  160.4620  132.3330 O   0  0  0  0  0  0  0  0  0  0  0  0
  148.1470  160.6360  131.0730 C   0  0  0  0  0  0  0  0  0  0  0  0
  149.1100  159.5260  130.8110 C   0  0  0  0  0  0  0  0  0  0  0  0
  148.8410  158.6410  129.9640 O   0  0  0  0  0  0  0  0  0  0  0  0
  150.3200  159.4220  131.4740 O   0  0  0  0  0  0  0  0  0  0  0  0
  145.6030  158.3170  133.3730 C   0  0  0  0  0  0  0  0  0  0  0  0
  144.7270  159.3530  133.6280 C   0  0  0  0  0  0  0  0  0  0  0  0
  139.0372  158.4689  134.1877 H   0  0  0  0  0  0  0  0  0  0  0  0
  137.4499  158.0158  133.4793 H   0  0  0  0  0  0  0  0  0  0  0  0
  138.8035  156.8349  133.4793 H   0  0  0  0  0  0  0  0  0  0  0  0
  137.2864  159.6400  132.2279 H   0  0  0  0  0  0  0  0  0  0  0  0
  138.3880  159.9375  130.8407 H   0  0  0  0  0  0  0  0  0  0  0  0
  137.3120  158.4991  130.8407 H   0  0  0  0  0  0  0  0  0  0  0  0
  140.9647  158.1586  132.3541 H   0  0  0  0  0  0  0  0  0  0  0  0
  140.3490  159.1082  130.8874 H   0  0  0  0  0  0  0  0  0  0  0  0
  141.3132  160.7219  132.0468 H   0  0  0  0  0  0  0  0  0  0  0  0
  139.5928  160.7426  132.6853 H   0  0  0  0  0  0  0  0  0  0  0  0
  140.5616  160.8411  134.6637 H   0  0  0  0  0  0  0  0  0  0  0  0
  140.7874  159.0680  134.4191 H   0  0  0  0  0  0  0  0  0  0  0  0
  142.9310  161.1690  134.3220 H   0  0  0  0  0  0  0  0  0  0  0  0
  141.7902  157.6696  133.9197 H   0  0  0  0  0  0  0  0  0  0  0  0
  143.3275  155.7673  133.4635 H   0  0  0  0  0  0  0  0  0  0  0  0
  146.0541  155.1215  132.9455 H   0  0  0  0  0  0  0  0  0  0  0  0
  149.8630  157.1690  131.2100 H   0  0  0  0  0  0  0  0  0  0  0  0
  150.2370  157.7430  132.9260 H   0  0  0  0  0  0  0  0  0  0  0  0
  147.3826  160.6455  130.2820 H   0  0  0  0  0  0  0  0  0  0  0  0
  148.6977  161.5882  131.0819 H   0  0  0  0  0  0  0  0  0  0  0  0
  150.3270  159.4850  132.5040 H   0  0  0  0  0  0  0  0  0  0  0  0
  145.1156  160.3809  133.6769 H   0  0  0  0  0  0  0  0  0  0  0  0
  1  2  1  0
  2  3  1  0
  2  4  1  0
  4  5  1  0
  5  6  1  0
  6  7  1  0
  7  8  1  0
  8  9  2  0
  9 10  1  0
 10 11  2  0
 11 12  1  0
 12 13  2  0
 13 14  1  0
 14 15  1  0
 14 16  2  0
 13 17  1  0
 17 18  1  0
 18 19  2  0
 18 20  1  0
 20 21  1  0
 21 22  1  0
 22 23  2  0
 22 24  1  0
 17 25  1  0
 25 26  2  0
 26  8  1  0
 25 11  1  0
  1 27  1  0
  1 28  1  0
  1 29  1  0
  3 30  1  0
  3 31  1  0
  3 32  1  0
  4 33  1  0
  4 34  1  0
  5 35  1  0
  5 36  1  0
  6 37  1  0
  6 38  1  0
  7 39  1  0
  9 40  1  0
 10 41  1  0
 12 42  1  0
 15 43  1  0
 15 44  1  0
 21 45  1  0
 21 46  1  0
 24 47  1  0
 26 48  1  0
M  END
>  <smiles>  (59) 
CN(C)CCCNc1ccc2cc(C(N)=O)n(C(=O)OCC(=O)O)c2c1

>  <score_type>  (59) 
oracle

>  <origin>  (59) 
adg

>  <m_score__min__energy>  (59) 
-7.2599999999999998

>  <m_primary>  (59) 
energy

$$$$
61:0
     RDKit          3D

 46 47  0  0  1  0  0  0  0  0999 V2000
  150.0300  160.0940  129.4510 C   0  0  0  0  0  0  0  0  0  0  0  0
  148.8740  160.1240  130.1150 C   0  0  0  0  0  0  0  0  0  0  0  0
  148.8230  160.7080  131.4790 C   0  0  0  0  0  0  0  0  0  0  0  0
  148.1820  159.7710  132.3240 O   0  0  0  0  0  0  0  0  0  0  0  0
  148.7500  158.5440  132.5320 C   0  0  0  0  0  0  0  0  0  0  0  0
  149.9340  158.2400  132.2140 O   0  0  0  0  0  0  0  0  0  0  0  0
  147.9380  157.4850  133.1700 C   0  0  1  0  0  0  0  0  0  0  0  0
  148.4560  157.1260  134.5440 C   0  0  0  0  0  0  0  0  0  0  0  0
  147.6670  156.2150  135.2150 O   0  0  0  0  0  0  0  0  0  0  0  0
  146.5660  157.9290  133.2070 N   0  0  0  0  0  0  0  0  0  0  0  0
  145.4700  156.9620  133.3200 C   0  0  0  0  0  0  0  0  0  0  0  0
  145.9020  155.7920  133.3750 O   0  0  0  0  0  0  0  0  0  0  0  0
  144.1340  157.4500  133.3540 C   0  0  0  0  0  0  0  0  0  0  0  0
  144.0370  158.7270  133.1010 O   0  0  0  0  0  0  0  0  0  0  0  0
  142.8900  156.8470  133.5970 N   0  0  0  0  0  0  0  0  0  0  0  0
  142.7810  155.6130  134.1830 C   0  0  0  0  0  0  0  0  0  0  0  0
  143.7270  154.7220  134.7860 C   0  0  0  0  0  0  0  0  0  0  0  0
  144.7150  155.2500  135.7310 N   0  0  0  0  0  0  0  0  0  0  0  0
  143.8500  153.4890  134.6220 O   0  0  0  0  0  0  0  0  0  0  0  0
  141.4050  155.3000  134.1790 C   0  0  0  0  0  0  0  0  0  0  0  0
  140.7040  156.2990  133.6170 C   0  0  0  0  0  0  0  0  0  0  0  0
  139.3520  156.4340  133.3820 C   0  0  0  0  0  0  0  0  0  0  0  0
  138.8520  157.5550  132.7620 C   0  0  0  0  0  0  0  0  0  0  0  0
  139.7450  158.5220  132.3900 C   0  0  0  0  0  0  0  0  0  0  0  0
  139.2040  159.7350  131.7180 C   0  0  0  0  0  0  0  0  0  0  0  0
  139.6530  160.9080  132.2410 F   0  0  0  0  0  0  0  0  0  0  0  0
  137.8080  159.6500  131.7180 F   0  0  0  0  0  0  0  0  0  0  0  0
  139.5450  159.7270  130.3580 F   0  0  0  0  0  0  0  0  0  0  0  0
  141.1110  158.3720  132.6340 C   0  0  0  0  0  0  0  0  0  0  0  0
  141.6370  157.2660  133.2530 C   0  0  0  0  0  0  0  0  0  0  0  0
  150.0726  159.6623  128.4402 H   0  0  0  0  0  0  0  0  0  0  0  0
  150.9410  160.5010  129.9141 H   0  0  0  0  0  0  0  0  0  0  0  0
  147.9617  159.7176  129.6539 H   0  0  0  0  0  0  0  0  0  0  0  0
  149.8431  160.9031  131.8415 H   0  0  0  0  0  0  0  0  0  0  0  0
  148.2716  161.6598  131.4705 H   0  0  0  0  0  0  0  0  0  0  0  0
  148.0079  156.5604  132.5782 H   0  0  0  0  0  0  0  0  0  0  0  0
  149.4634  156.6980  134.4342 H   0  0  0  0  0  0  0  0  0  0  0  0
  148.4547  158.0511  135.1391 H   0  0  0  0  0  0  0  0  0  0  0  0
  147.1210  155.7180  134.5520 H   0  0  0  0  0  0  0  0  0  0  0  0
  146.3910  158.9470  133.1500 H   0  0  0  0  0  0  0  0  0  0  0  0
  144.3490  155.6140  136.6370 H   0  0  0  0  0  0  0  0  0  0  0  0
  145.7320  155.2450  135.4710 H   0  0  0  0  0  0  0  0  0  0  0  0
  140.9693  154.3722  134.5783 H   0  0  0  0  0  0  0  0  0  0  0  0
  138.6643  155.6344  133.6946 H   0  0  0  0  0  0  0  0  0  0  0  0
  137.7746  157.6697  132.5724 H   0  0  0  0  0  0  0  0  0  0  0  0
  141.7943  159.1736  132.3170 H   0  0  0  0  0  0  0  0  0  0  0  0
  1  2  2  0
  2  3  1  0
  3  4  1  0
  4  5  1  0
  5  6  2  0
  5  7  1  0
  7  8  1  0
  8  9  1  0
  7 10  1  0
 10 11  1  0
 11 12  2  0
 11 13  1  0
 13 14  2  0
 13 15  1  0
 15 16  1  0
 16 17  1  0
 17 18  1  0
 17 19  2  0
 16 20  2  0
 20 21  1  0
 21 22  2  0
 22 23  1  0
 23 24  2  0
 24 25  1  0
 25 26  1  0
 25 27  1  0
 25 28  1  0
 24 29  1  0
 29 30  2  0
 30 15  1  0
 30 21  1  0
  1 31  1  0
  1 32  1  0
  2 33  1  0
  3 34  1  0
  3 35  1  0
  7 36  1  6
  8 37  1  0
  8 38  1  0
  9 39  1  0
 10 40  1  0
 18 41  1  0
 18 42  1  0
 20 43  1  0
 22 44  1  0
 23 45  1  0
 29 46  1  0
M  END
>  <smiles>  (60) 
C=CCOC(=O)C(CO)NC(=O)C(=O)n1c(C(N)=O)cc2ccc(C(F)(F)F)cc21

>  <score_type>  (60) 
oracle

>  <origin>  (60) 
adg

>  <m_score__min__energy>  (60) 
-7.75

>  <m_primary>  (60) 
energy

$$$$
62:0
     RDKit          3D

 31 32  0  0  0  0  0  0  0  0999 V2000
  149.2200  161.2220  130.6200 C   0  0  0  0  0  0  0  0  0  0  0  0
  148.4760  160.5770  131.6550 O   0  0  0  0  0  0  0  0  0  0  0  0
  148.9670  159.2830  132.0810 C   0  0  0  0  0  0  0  0  0  0  0  0
  149.9690  158.9600  131.4280 O   0  0  0  0  0  0  0  0  0  0  0  0
  148.2530  158.6380  133.1240 C   0  0  0  0  0  0  0  0  0  0  0  0
  148.6280  159.0190  134.3190 O   0  0  0  0  0  0  0  0  0  0  0  0
  147.2280  157.6850  133.1570 N   0  0  0  0  0  0  0  0  0  0  0  0
  145.9240  158.0150  133.3980 C   0  0  0  0  0  0  0  0  0  0  0  0
  145.2320  159.2720  133.5380 C   0  0  0  0  0  0  0  0  0  0  0  0
  145.8190  160.4880  132.9700 N   0  0  0  0  0  0  0  0  0  0  0  0
  144.1410  159.4950  134.1020 O   0  0  0  0  0  0  0  0  0  0  0  0
  145.1950  156.8080  133.4430 C   0  0  0  0  0  0  0  0  0  0  0  0
  146.0400  155.7660  133.2320 C   0  0  0  0  0  0  0  0  0  0  0  0
  145.8000  154.4110  133.1960 C   0  0  0  0  0  0  0  0  0  0  0  0
  146.8340  153.5300  132.9790 C   0  0  0  0  0  0  0  0  0  0  0  0
  148.0840  154.0430  132.8060 C   0  0  0  0  0  0  0  0  0  0  0  0
  149.2040  153.0890  132.5720 C   0  0  0  0  0  0  0  0  0  0  0  0
  150.3600  153.7990  132.2310 F   0  0  0  0  0  0  0  0  0  0  0  0
  149.4870  152.3830  133.7150 F   0  0  0  0  0  0  0  0  0  0  0  0
  148.9240  152.1730  131.5830 F   0  0  0  0  0  0  0  0  0  0  0  0
  148.3050  155.4150  132.8450 C   0  0  0  0  0  0  0  0  0  0  0  0
  147.2960  156.3250  133.0570 C   0  0  0  0  0  0  0  0  0  0  0  0
  149.9787  161.8797  131.0692 H   0  0  0  0  0  0  0  0  0  0  0  0
  149.7154  160.4628  129.9969 H   0  0  0  0  0  0  0  0  0  0  0  0
  148.5388  161.8201  129.9969 H   0  0  0  0  0  0  0  0  0  0  0  0
  145.2290  161.1750  132.4640 H   0  0  0  0  0  0  0  0  0  0  0  0
  146.8430  160.6700  133.0730 H   0  0  0  0  0  0  0  0  0  0  0  0
  144.1127  156.7241  133.6209 H   0  0  0  0  0  0  0  0  0  0  0  0
  144.7779  154.0314  133.3413 H   0  0  0  0  0  0  0  0  0  0  0  0
  146.6569  152.4448  132.9462 H   0  0  0  0  0  0  0  0  0  0  0  0
  149.3296  155.7882  132.7003 H   0  0  0  0  0  0  0  0  0  0  0  0
  1  2  1  0
  2  3  1  0
  3  4  2  0
  3  5  1  0
  5  6  2  0
  5  7  1  0
  7  8  1  0
  8  9  1  0
  9 10  1  0
  9 11  2  0
  8 12  2  0
 12 13  1  0
 13 14  2  0
 14 15  1  0
 15 16  2  0
 16 17  1  0
 17 18  1  0
 17 19  1  0
 17 20  1  0
 16 21  1  0
 21 22  2  0
 22  7  1  0
 22 13  1  0
  1 23  1  0
  1 24  1  0
  1 25  1  0
 10 26  1  0
 10 27  1  0
 12 28  1  0
 14 29  1  0
 15 30  1  0
 21 31  1  0
M  END
>  <smiles>  (61) 
COC(=O)C(=O)n1c(C(N)=O)cc2ccc(C(F)(F)F)cc21

>  <score_type>  (61) 
oracle

>  <origin>  (61) 
adg

>  <m_score__min__energy>  (61) 
-6.0999999999999996

>  <m_primary>  (61) 
energy

$$$$
63:0
     RDKit          3D

 46 47  0  0  0  0  0  0  0  0999 V2000
  149.5830  157.4920  132.0400 N   0  0  0  0  0  0  0  0  0  0  0  0
  149.0950  158.8070  132.3920 C   0  0  0  0  0  0  0  0  0  0  0  0
  149.9460  159.7170  132.3080 O   0  0  0  0  0  0  0  0  0  0  0  0
  147.7140  158.9650  132.7980 C   0  0  0  0  0  0  0  0  0  0  0  0
  147.1360  160.2250  133.0000 C   0  0  0  0  0  0  0  0  0  0  0  0
  145.8260  160.0690  133.3780 C   0  0  0  0  0  0  0  0  0  0  0  0
  144.8460  160.9870  133.6890 C   0  0  0  0  0  0  0  0  0  0  0  0
  143.5860  160.5610  134.0450 C   0  0  0  0  0  0  0  0  0  0  0  0
  143.3350  159.2060  134.0820 C   0  0  0  0  0  0  0  0  0  0  0  0
  141.9640  158.7570  134.4710 C   0  0  0  0  0  0  0  0  0  0  0  0
  141.0310  159.0770  133.3430 C   0  0  0  0  0  0  0  0  0  0  0  0
  140.8780  160.2990  133.0860 O   0  0  0  0  0  0  0  0  0  0  0  0
  140.3960  158.0590  132.6500 O   0  0  0  0  0  0  0  0  0  0  0  0
  139.0910  158.2490  132.1400 C   0  0  0  0  0  0  0  0  0  0  0  0
  139.0310  159.2750  131.0270 C   0  0  0  0  0  0  0  0  0  0  0  0
  140.2670  159.3690  130.4340 O   0  0  0  0  0  0  0  0  0  0  0  0
  144.3410  158.2990  133.7650 C   0  0  0  0  0  0  0  0  0  0  0  0
  145.6130  158.6990  133.4040 C   0  0  0  0  0  0  0  0  0  0  0  0
  146.7590  158.0640  133.0530 N   0  0  0  0  0  0  0  0  0  0  0  0
  146.8690  156.6620  132.9850 C   0  0  0  0  0  0  0  0  0  0  0  0
  146.9820  156.1290  131.8320 O   0  0  0  0  0  0  0  0  0  0  0  0
  146.8680  155.7880  134.0440 O   0  0  0  0  0  0  0  0  0  0  0  0
  146.7860  154.4150  133.8680 C   0  0  0  0  0  0  0  0  0  0  0  0
  145.6910  153.8490  133.5520 O   0  0  0  0  0  0  0  0  0  0  0  0
  147.9510  153.6810  134.0520 O   0  0  0  0  0  0  0  0  0  0  0  0
  148.4780  152.9330  132.9710 C   0  0  0  0  0  0  0  0  0  0  0  0
  149.6080  153.6670  132.2830 C   0  0  0  0  0  0  0  0  0  0  0  0
  149.5520  155.0460  132.5830 O   0  0  0  0  0  0  0  0  0  0  0  0
  150.5500  157.1840  132.2770 H   0  0  0  0  0  0  0  0  0  0  0  0
  148.9840  156.8020  131.5360 H   0  0  0  0  0  0  0  0  0  0  0  0
  147.6515  161.1887  132.8752 H   0  0  0  0  0  0  0  0  0  0  0  0
  145.0712  162.0631  133.6527 H   0  0  0  0  0  0  0  0  0  0  0  0
  142.7971  161.2859  134.2944 H   0  0  0  0  0  0  0  0  0  0  0  0
  141.9657  157.6729  134.6572 H   0  0  0  0  0  0  0  0  0  0  0  0
  141.6415  159.2700  135.3891 H   0  0  0  0  0  0  0  0  0  0  0  0
  138.7242  157.2880  131.7503 H   0  0  0  0  0  0  0  0  0  0  0  0
  138.4679  158.6238  132.9653 H   0  0  0  0  0  0  0  0  0  0  0  0
  138.2866  158.9640  130.2793 H   0  0  0  0  0  0  0  0  0  0  0  0
  138.7432  160.2530  131.4401 H   0  0  0  0  0  0  0  0  0  0  0  0
  140.9870  159.4060  131.1200 H   0  0  0  0  0  0  0  0  0  0  0  0
  144.1152  157.2231  133.8032 H   0  0  0  0  0  0  0  0  0  0  0  0
  148.8560  151.9729  133.3522 H   0  0  0  0  0  0  0  0  0  0  0  0
  147.6735  152.7757  132.2375 H   0  0  0  0  0  0  0  0  0  0  0  0
  150.5692  153.2592  132.6290 H   0  0  0  0  0  0  0  0  0  0  0  0
  149.5113  153.5335  131.1954 H   0  0  0  0  0  0  0  0  0  0  0  0
  148.6580  155.2560  132.9010 H   0  0  0  0  0  0  0  0  0  0  0  0
  1  2  1  0
  2  3  2  0
  2  4  1  0
  4  5  2  0
  5  6  1  0
  6  7  2  0
  7  8  1  0
  8  9  2  0
  9 10  1  0
 10 11  1  0
 11 12  2  0
 11 13  1  0
 13 14  1  0
 14 15  1  0
 15 16  1  0
  9 17  1  0
 17 18  2  0
 18 19  1  0
 19 20  1  0
 20 21  2  0
 20 22  1  0
 22 23  1  0
 23 24  2  0
 23 25  1  0
 25 26  1  0
 26 27  1  0
 27 28  1  0
 19  4  1  0
 18  6  1  0
  1 29  1  0
  1 30  1  0
  5 31  1  0
  7 32  1  0
  8 33  1  0
 10 34  1  0
 10 35  1  0
 14 36  1  0
 14 37  1  0
 15 38  1  0
 15 39  1  0
 16 40  1  0
 17 41  1  0
 26 42  1  0
 26 43  1  0
 27 44  1  0
 27 45  1  0
 28 46  1  0
M  END
>  <smiles>  (62) 
NC(=O)c1cc2ccc(CC(=O)OCCO)cc2n1C(=O)OC(=O)OCCO

>  <score_type>  (62) 
oracle

>  <origin>  (62) 
adg

>  <m_score__min__energy>  (62) 
-5.7800000000000002

>  <m_primary>  (62) 
energy

$$$$
64:0
     RDKit          3D

 31 32  0  0  0  0  0  0  0  0999 V2000
  148.3470  161.2370  130.9770 N   0  0  0  0  0  0  0  0  0  0  0  0
  149.1040  160.1560  131.4690 C   0  0  0  0  0  0  0  0  0  0  0  0
  150.3730  160.2830  131.3310 O   0  0  0  0  0  0  0  0  0  0  0  0
  148.6350  158.9570  132.0920 C   0  0  0  0  0  0  0  0  0  0  0  0
  149.2830  157.7230  131.9130 C   0  0  0  0  0  0  0  0  0  0  0  0
  148.6210  156.7470  132.6230 C   0  0  0  0  0  0  0  0  0  0  0  0
  148.8730  155.3970  132.7590 C   0  0  0  0  0  0  0  0  0  0  0  0
  148.0430  154.6220  133.5440 C   0  0  0  0  0  0  0  0  0  0  0  0
  146.9790  155.2270  134.1740 C   0  0  0  0  0  0  0  0  0  0  0  0
  146.0710  154.4130  135.0240 C   0  0  0  0  0  0  0  0  0  0  0  0
  145.4310  153.4230  134.3360 F   0  0  0  0  0  0  0  0  0  0  0  0
  146.8630  153.8150  136.0120 F   0  0  0  0  0  0  0  0  0  0  0  0
  145.1140  155.2280  135.5980 F   0  0  0  0  0  0  0  0  0  0  0  0
  146.7450  156.5980  134.0200 C   0  0  0  0  0  0  0  0  0  0  0  0
  147.5700  157.3830  133.2360 C   0  0  0  0  0  0  0  0  0  0  0  0
  147.5900  158.7100  132.9080 N   0  0  0  0  0  0  0  0  0  0  0  0
  146.6440  159.6380  133.3770 C   0  0  0  0  0  0  0  0  0  0  0  0
  146.7030  160.8840  133.2460 O   0  0  0  0  0  0  0  0  0  0  0  0
  145.4990  159.1890  134.0650 O   0  0  0  0  0  0  0  0  0  0  0  0
  144.2200  159.3190  133.5410 C   0  0  0  0  0  0  0  0  0  0  0  0
  143.6580  158.3580  132.9410 O   0  0  0  0  0  0  0  0  0  0  0  0
  143.5460  160.6020  133.7050 C   0  0  0  0  0  0  0  0  0  0  0  0
  142.2940  160.6980  133.8760 O   0  0  0  0  0  0  0  0  0  0  0  0
  144.2500  161.8010  133.6850 O   0  0  0  0  0  0  0  0  0  0  0  0
  148.0120  161.2480  129.9690 H   0  0  0  0  0  0  0  0  0  0  0  0
  148.1240  162.0440  131.6330 H   0  0  0  0  0  0  0  0  0  0  0  0
  150.1816  157.5617  131.2995 H   0  0  0  0  0  0  0  0  0  0  0  0
  149.7313  154.9406  132.2443 H   0  0  0  0  0  0  0  0  0  0  0  0
  148.2279  153.5442  133.6635 H   0  0  0  0  0  0  0  0  0  0  0  0
  145.8883  157.0600  134.5325 H   0  0  0  0  0  0  0  0  0  0  0  0
  145.2190  161.8250  133.3310 H   0  0  0  0  0  0  0  0  0  0  0  0
  1  2  1  0
  2  3  2  0
  2  4  1  0
  4  5  2  0
  5  6  1  0
  6  7  2  0
  7  8  1  0
  8  9  2  0
  9 10  1  0
 10 11  1  0
 10 12  1  0
 10 13  1  0
  9 14  1  0
 14 15  2  0
 15 16  1  0
 16 17  1  0
 17 18  2  0
 17 19  1  0
 19 20  1  0
 20 21  2  0
 20 22  1  0
 22 23  2  0
 22 24  1  0
 16  4  1  0
 15  6  1  0
  1 25  1  0
  1 26  1  0
  5 27  1  0
  7 28  1  0
  8 29  1  0
 14 30  1  0
 24 31  1  0
M  END
>  <smiles>  (63) 
NC(=O)c1cc2ccc(C(F)(F)F)cc2n1C(=O)OC(=O)C(=O)O

>  <score_type>  (63) 
oracle

>  <origin>  (63) 
adg

>  <m_score__min__energy>  (63) 
-6.3200000000000003

>  <m_primary>  (63) 
energy

$$$$
65:0
     RDKit          3D

 45 47  0  0  0  0  0  0  0  0999 V2000
  149.5040  157.4750  132.2530 N   0  0  0  0  0  0  0  0  0  0  0  0
  148.8440  158.7640  132.2140 C   0  0  0  0  0  0  0  0  0  0  0  0
  149.5380  159.6830  131.7360 O   0  0  0  0  0  0  0  0  0  0  0  0
  147.4920  158.8860  132.7080 C   0  0  0  0  0  0  0  0  0  0  0  0
  146.8620  160.1280  132.8450 C   0  0  0  0  0  0  0  0  0  0  0  0
  145.5910  159.9580  133.3320 C   0  0  0  0  0  0  0  0  0  0  0  0
  144.5990  160.8670  133.6300 C   0  0  0  0  0  0  0  0  0  0  0  0
  143.4000  160.3910  134.1160 C   0  0  0  0  0  0  0  0  0  0  0  0
  143.1910  159.0450  134.3010 C   0  0  0  0  0  0  0  0  0  0  0  0
  141.9630  158.5240  134.7910 N   0  0  0  0  0  0  0  0  0  0  0  0
  141.6730  158.6040  136.2080 C   0  0  0  0  0  0  0  0  0  0  0  0
  140.1900  158.9390  136.4300 C   0  0  0  0  0  0  0  0  0  0  0  0
  139.4710  157.7150  135.8370 C   0  0  0  0  0  0  0  0  0  0  0  0
  138.8380  158.2070  134.6980 O   0  0  0  0  0  0  0  0  0  0  0  0
  139.7400  158.5590  133.7400 C   0  0  0  0  0  0  0  0  0  0  0  0
  141.0820  157.9290  133.8050 C   0  0  0  0  0  0  0  0  0  0  0  0
  144.2250  158.1700  133.9840 C   0  0  0  0  0  0  0  0  0  0  0  0
  145.4420  158.5920  133.4970 C   0  0  0  0  0  0  0  0  0  0  0  0
  146.5980  157.9830  133.1140 N   0  0  0  0  0  0  0  0  0  0  0  0
  146.7760  156.5920  133.1570 C   0  0  0  0  0  0  0  0  0  0  0  0
  146.2580  155.8990  132.2340 O   0  0  0  0  0  0  0  0  0  0  0  0
  147.4660  155.8840  134.1180 O   0  0  0  0  0  0  0  0  0  0  0  0
  147.5890  154.4720  134.1010 C   0  0  0  0  0  0  0  0  0  0  0  0
  148.6220  154.1060  133.1180 C   0  0  0  0  0  0  0  0  0  0  0  0
  149.1390  152.9670  133.0100 O   0  0  0  0  0  0  0  0  0  0  0  0
  149.0660  155.0850  132.2390 O   0  0  0  0  0  0  0  0  0  0  0  0
  149.7540  157.0800  131.3160 H   0  0  0  0  0  0  0  0  0  0  0  0
  149.7020  157.0010  133.1400 H   0  0  0  0  0  0  0  0  0  0  0  0
  147.3188  161.0978  132.5985 H   0  0  0  0  0  0  0  0  0  0  0  0
  144.7599  161.9453  133.4837 H   0  0  0  0  0  0  0  0  0  0  0  0
  142.5961  161.1010  134.3601 H   0  0  0  0  0  0  0  0  0  0  0  0
  141.9014  157.6372  136.6804 H   0  0  0  0  0  0  0  0  0  0  0  0
  142.2902  159.3969  136.6556 H   0  0  0  0  0  0  0  0  0  0  0  0
  139.9650  159.0502  137.5010 H   0  0  0  0  0  0  0  0  0  0  0  0
  139.8845  159.8894  135.9679 H   0  0  0  0  0  0  0  0  0  0  0  0
  140.1934  156.9288  135.5726 H   0  0  0  0  0  0  0  0  0  0  0  0
  138.7652  157.2575  136.5459 H   0  0  0  0  0  0  0  0  0  0  0  0
  139.3020  158.3037  132.7638 H   0  0  0  0  0  0  0  0  0  0  0  0
  139.9229  159.6312  133.9044 H   0  0  0  0  0  0  0  0  0  0  0  0
  140.9535  156.8649  134.0525 H   0  0  0  0  0  0  0  0  0  0  0  0
  141.5536  158.0800  132.8228 H   0  0  0  0  0  0  0  0  0  0  0  0
  144.0631  157.0917  134.1290 H   0  0  0  0  0  0  0  0  0  0  0  0
  147.8820  154.1128  135.0986 H   0  0  0  0  0  0  0  0  0  0  0  0
  146.6277  154.0127  133.8270 H   0  0  0  0  0  0  0  0  0  0  0  0
  148.4140  155.7860  131.9080 H   0  0  0  0  0  0  0  0  0  0  0  0
  1  2  1  0
  2  3  2  0
  2  4  1  0
  4  5  2  0
  5  6  1  0
  6  7  2  0
  7  8  1  0
  8  9  2  0
  9 10  1  0
 10 11  1  0
 11 12  1  0
 12 13  1  0
 13 14  1  0
 14 15  1  0
 15 16  1  0
  9 17  1  0
 17 18  2  0
 18 19  1  0
 19 20  1  0
 20 21  2  0
 20 22  1  0
 22 23  1  0
 23 24  1  0
 24 25  2  0
 24 26  1  0
 19  4  1  0
 18  6  1  0
 16 10  1  0
  1 27  1  0
  1 28  1  0
  5 29  1  0
  7 30  1  0
  8 31  1  0
 11 32  1  0
 11 33  1  0
 12 34  1  0
 12 35  1  0
 13 36  1  0
 13 37  1  0
 15 38  1  0
 15 39  1  0
 16 40  1  0
 16 41  1  0
 17 42  1  0
 23 43  1  0
 23 44  1  0
 26 45  1  0
M  END
>  <smiles>  (64) 
NC(=O)c1cc2ccc(N3CCCOCC3)cc2n1C(=O)OCC(=O)O

>  <score_type>  (64) 
oracle

>  <origin>  (64) 
adg

>  <m_score__min__energy>  (64) 
-5.5999999999999996

>  <m_primary>  (64) 
energy

$$$$
66:0
     RDKit          3D

 42 44  0  0  0  0  0  0  0  0999 V2000
  137.9880  148.9100  131.4000 N   0  0  0  0  0  0  0  0  0  0  0  0
  139.3820  148.5800  131.3270 C   0  0  0  0  0  0  0  0  0  0  0  0
  139.6880  147.4660  130.8270 O   0  0  0  0  0  0  0  0  0  0  0  0
  140.3600  149.5330  131.8270 C   0  0  0  0  0  0  0  0  0  0  0  0
  141.7010  149.1620  131.8370 C   0  0  0  0  0  0  0  0  0  0  0  0
  142.6810  150.0330  132.3040 C   0  0  0  0  0  0  0  0  0  0  0  0
  142.2550  151.2860  132.7570 C   0  0  0  0  0  0  0  0  0  0  0  0
  140.9110  151.6050  132.7260 C   0  0  0  0  0  0  0  0  0  0  0  0
  140.5420  152.8630  133.1890 O   0  0  0  0  0  0  0  0  0  0  0  0
  141.4580  153.9890  133.0020 C   0  0  0  0  0  0  0  0  0  0  0  0
  140.6720  155.2410  133.1980 C   0  0  0  0  0  0  0  0  0  0  0  0
  139.4190  155.0010  133.3310 O   0  0  0  0  0  0  0  0  0  0  0  0
  141.1910  156.5460  133.2410 N   0  0  0  0  0  0  0  0  0  0  0  0
  140.4710  157.6780  133.0900 C   0  0  0  0  0  0  0  0  0  0  0  0
  139.0670  157.9400  132.9110 C   0  0  0  0  0  0  0  0  0  0  0  0
  137.9850  157.5550  133.7310 N   0  0  0  0  0  0  0  0  0  0  0  0
  138.6830  158.6220  131.8750 O   0  0  0  0  0  0  0  0  0  0  0  0
  141.3940  158.7420  133.1690 C   0  0  0  0  0  0  0  0  0  0  0  0
  142.6380  158.2570  133.3650 C   0  0  0  0  0  0  0  0  0  0  0  0
  143.8500  158.8920  133.5050 C   0  0  0  0  0  0  0  0  0  0  0  0
  144.9910  158.1730  133.6960 C   0  0  0  0  0  0  0  0  0  0  0  0
  144.9090  156.8100  133.7460 C   0  0  0  0  0  0  0  0  0  0  0  0
  146.1430  156.0070  133.9540 C   0  0  0  0  0  0  0  0  0  0  0  0
  145.9360  155.0680  134.9340 F   0  0  0  0  0  0  0  0  0  0  0  0
  147.1820  156.8570  134.2680 F   0  0  0  0  0  0  0  0  0  0  0  0
  146.4870  155.3980  132.7590 F   0  0  0  0  0  0  0  0  0  0  0  0
  143.6740  156.1770  133.6040 C   0  0  0  0  0  0  0  0  0  0  0  0
  142.5000  156.8690  133.4110 C   0  0  0  0  0  0  0  0  0  0  0  0
  139.9690  150.7560  132.2730 N   0  0  0  0  0  0  0  0  0  0  0  0
  137.6250  149.5000  132.1830 H   0  0  0  0  0  0  0  0  0  0  0  0
  137.3410  148.5530  130.6600 H   0  0  0  0  0  0  0  0  0  0  0  0
  141.9908  148.1661  131.4706 H   0  0  0  0  0  0  0  0  0  0  0  0
  143.7435  149.7486  132.3163 H   0  0  0  0  0  0  0  0  0  0  0  0
  142.9869  152.0143  133.1363 H   0  0  0  0  0  0  0  0  0  0  0  0
  142.2727  153.9373  133.7393 H   0  0  0  0  0  0  0  0  0  0  0  0
  141.9039  153.9639  131.9968 H   0  0  0  0  0  0  0  0  0  0  0  0
  137.7350  158.0610  134.6320 H   0  0  0  0  0  0  0  0  0  0  0  0
  137.4130  156.7290  133.3920 H   0  0  0  0  0  0  0  0  0  0  0  0
  141.1378  159.8083  133.0836 H   0  0  0  0  0  0  0  0  0  0  0  0
  143.8983  159.9901  133.4624 H   0  0  0  0  0  0  0  0  0  0  0  0
  145.9606  158.6803  133.8079 H   0  0  0  0  0  0  0  0  0  0  0  0
  143.6369  155.0785  133.6481 H   0  0  0  0  0  0  0  0  0  0  0  0
  1  2  1  0
  2  3  2  0
  2  4  1  0
  4  5  2  0
  5  6  1  0
  6  7  2  0
  7  8  1  0
  8  9  1  0
  9 10  1  0
 10 11  1  0
 11 12  2  0
 11 13  1  0
 13 14  1  0
 14 15  1  0
 15 16  1  0
 15 17  2  0
 14 18  2  0
 18 19  1  0
 19 20  2  0
 20 21  1  0
 21 22  2  0
 22 23  1  0
 23 24  1  0
 23 25  1  0
 23 26  1  0
 22 27  1  0
 27 28  2  0
  8 29  2  0
 29  4  1  0
 28 13  1  0
 28 19  1  0
  1 30  1  0
  1 31  1  0
  5 32  1  0
  6 33  1  0
  7 34  1  0
 10 35  1  0
 10 36  1  0
 16 37  1  0
 16 38  1  0
 18 39  1  0
 20 40  1  0
 21 41  1  0
 27 42  1  0
M  END
>  <smiles>  (65) 
NC(=O)c1cccc(OCC(=O)n2c(C(N)=O)cc3ccc(C(F)(F)F)cc32)n1

>  <score_type>  (65) 
oracle

>  <origin>  (65) 
adg

>  <m_score__min__energy>  (65) 
-8.6500000000000004

>  <m_primary>  (65) 
energy

$$$$
67:0
     RDKit          3D

 30 31  0  0  0  0  0  0  0  0999 V2000
  141.3530  157.9610  132.2370 N   0  0  0  0  0  0  0  0  0  0  0  0
  140.9030  158.4530  133.4950 C   0  0  0  0  0  0  0  0  0  0  0  0
  139.7250  158.8760  133.6240 O   0  0  0  0  0  0  0  0  0  0  0  0
  141.8870  158.4320  134.6120 C   0  0  0  0  0  0  0  0  0  0  0  0
  143.2130  158.9410  134.1750 C   0  0  0  0  0  0  0  0  0  0  0  0
  143.4090  160.3030  134.1000 C   0  0  0  0  0  0  0  0  0  0  0  0
  144.6360  160.7840  133.6950 C   0  0  0  0  0  0  0  0  0  0  0  0
  145.6480  159.8990  133.3720 C   0  0  0  0  0  0  0  0  0  0  0  0
  146.9210  160.1070  132.9550 C   0  0  0  0  0  0  0  0  0  0  0  0
  147.5580  158.8790  132.7570 C   0  0  0  0  0  0  0  0  0  0  0  0
  148.9310  158.7800  132.3090 C   0  0  0  0  0  0  0  0  0  0  0  0
  149.5590  157.4800  132.2290 N   0  0  0  0  0  0  0  0  0  0  0  0
  149.6660  159.7340  131.9690 O   0  0  0  0  0  0  0  0  0  0  0  0
  146.6570  157.9340  133.0590 N   0  0  0  0  0  0  0  0  0  0  0  0
  146.8450  156.5320  133.0080 C   0  0  0  0  0  0  0  0  0  0  0  0
  147.7460  155.8980  133.5960 O   0  0  0  0  0  0  0  0  0  0  0  0
  145.9700  155.7360  132.2430 O   0  0  0  0  0  0  0  0  0  0  0  0
  145.4890  158.5240  133.4350 C   0  0  0  0  0  0  0  0  0  0  0  0
  144.2540  158.0700  133.8420 C   0  0  0  0  0  0  0  0  0  0  0  0
  141.3760  158.6080  131.4380 H   0  0  0  0  0  0  0  0  0  0  0  0
  141.6560  156.9630  132.1230 H   0  0  0  0  0  0  0  0  0  0  0  0
  141.5128  159.0643  135.4307 H   0  0  0  0  0  0  0  0  0  0  0  0
  142.0085  157.3914  134.9473 H   0  0  0  0  0  0  0  0  0  0  0  0
  142.5967  160.9977  134.3600 H   0  0  0  0  0  0  0  0  0  0  0  0
  144.8092  161.8683  133.6291 H   0  0  0  0  0  0  0  0  0  0  0  0
  147.3826  161.0928  132.7965 H   0  0  0  0  0  0  0  0  0  0  0  0
  149.5780  156.9290  133.1140 H   0  0  0  0  0  0  0  0  0  0  0  0
  149.9660  157.1070  131.3640 H   0  0  0  0  0  0  0  0  0  0  0  0
  145.8100  155.9250  131.2730 H   0  0  0  0  0  0  0  0  0  0  0  0
  144.0812  156.9856  133.9071 H   0  0  0  0  0  0  0  0  0  0  0  0
  1  2  1  0
  2  3  2  0
  2  4  1  0
  4  5  1  0
  5  6  2  0
  6  7  1  0
  7  8  2  0
  8  9  1  0
  9 10  2  0
 10 11  1  0
 11 12  1  0
 11 13  2  0
 10 14  1  0
 14 15  1  0
 15 16  2  0
 15 17  1  0
 14 18  1  0
 18 19  2  0
 19  5  1  0
 18  8  1  0
  1 20  1  0
  1 21  1  0
  4 22  1  0
  4 23  1  0
  6 24  1  0
  7 25  1  0
  9 26  1  0
 12 27  1  0
 12 28  1  0
 17 29  1  0
 19 30  1  0
M  END
>  <smiles>  (66) 
NC(=O)Cc1ccc2cc(C(N)=O)n(C(=O)O)c2c1

>  <score_type>  (66) 
oracle

>  <origin>  (66) 
adg

>  <m_score__min__energy>  (66) 
-6.9800000000000004

>  <m_primary>  (66) 
energy

$$$$
68:0
     RDKit          3D

 38 40  0  0  0  0  0  0  0  0999 V2000
  138.4210  158.2390  132.9960 C   0  0  0  0  0  0  0  0  0  0  0  0
  139.6760  158.4550  133.7530 C   0  0  0  0  0  0  0  0  0  0  0  0
  140.8220  158.7440  133.5600 N   0  0  0  0  0  0  0  0  0  0  0  0
  141.7840  158.8790  134.4150 C   0  0  0  0  0  0  0  0  0  0  0  0
  143.1770  159.2430  134.0690 C   0  0  0  0  0  0  0  0  0  0  0  0
  143.5870  160.5530  134.0340 C   0  0  0  0  0  0  0  0  0  0  0  0
  144.8780  160.9130  133.7150 C   0  0  0  0  0  0  0  0  0  0  0  0
  145.7590  159.8960  133.4270 C   0  0  0  0  0  0  0  0  0  0  0  0
  147.0870  159.9410  133.0810 C   0  0  0  0  0  0  0  0  0  0  0  0
  147.5600  158.6350  132.8850 C   0  0  0  0  0  0  0  0  0  0  0  0
  148.9280  158.3550  132.5100 C   0  0  0  0  0  0  0  0  0  0  0  0
  149.3720  156.9850  132.4330 N   0  0  0  0  0  0  0  0  0  0  0  0
  149.8050  159.2040  132.2330 O   0  0  0  0  0  0  0  0  0  0  0  0
  146.5200  157.8140  133.1130 N   0  0  0  0  0  0  0  0  0  0  0  0
  146.5160  156.3990  133.0350 C   0  0  0  0  0  0  0  0  0  0  0  0
  145.4610  155.8130  132.6040 O   0  0  0  0  0  0  0  0  0  0  0  0
  147.5440  155.5670  133.3800 O   0  0  0  0  0  0  0  0  0  0  0  0
  147.6260  154.2020  133.0280 C   0  0  0  0  0  0  0  0  0  0  0  0
  149.0110  153.7530  132.7810 C   0  0  0  0  0  0  0  0  0  0  0  0
  149.3040  152.5540  133.0870 O   0  0  0  0  0  0  0  0  0  0  0  0
  149.9940  154.5660  132.2390 O   0  0  0  0  0  0  0  0  0  0  0  0
  145.4240  158.5620  133.4420 C   0  0  0  0  0  0  0  0  0  0  0  0
  144.1170  158.2560  133.7680 C   0  0  0  0  0  0  0  0  0  0  0  0
  141.4150  158.6530  135.7410 C   0  0  0  0  0  0  0  0  0  0  0  0
  139.6630  158.2520  135.6430 S   0  0  0  0  0  0  0  0  0  0  0  0
  137.5881  158.0956  133.7001 H   0  0  0  0  0  0  0  0  0  0  0  0
  138.2192  159.1156  132.3629 H   0  0  0  0  0  0  0  0  0  0  0  0
  138.5239  157.3454  132.3629 H   0  0  0  0  0  0  0  0  0  0  0  0
  142.8587  161.3432  134.2690 H   0  0  0  0  0  0  0  0  0  0  0  0
  145.1908  161.9673  133.6915 H   0  0  0  0  0  0  0  0  0  0  0  0
  147.6860  160.8574  132.9742 H   0  0  0  0  0  0  0  0  0  0  0  0
  149.4730  156.5770  131.4800 H   0  0  0  0  0  0  0  0  0  0  0  0
  149.5780  156.4450  133.3170 H   0  0  0  0  0  0  0  0  0  0  0  0
  147.2039  153.6024  133.8479 H   0  0  0  0  0  0  0  0  0  0  0  0
  147.0646  154.0689  132.0915 H   0  0  0  0  0  0  0  0  0  0  0  0
  150.8110  154.1160  131.8110 H   0  0  0  0  0  0  0  0  0  0  0  0
  143.8071  157.2008  133.7911 H   0  0  0  0  0  0  0  0  0  0  0  0
  142.0482  158.7073  136.6389 H   0  0  0  0  0  0  0  0  0  0  0  0
  1  2  1  0
  2  3  2  0
  3  4  1  0
  4  5  1  0
  5  6  2  0
  6  7  1  0
  7  8  2  0
  8  9  1  0
  9 10  2  0
 10 11  1  0
 11 12  1  0
 11 13  2  0
 10 14  1  0
 14 15  1  0
 15 16  2  0
 15 17  1  0
 17 18  1  0
 18 19  1  0
 19 20  2  0
 19 21  1  0
 14 22  1  0
 22 23  2  0
  4 24  2  0
 24 25  1  0
 25  2  1  0
 23  5  1  0
 22  8  1  0
  1 26  1  0
  1 27  1  0
  1 28  1  0
  6 29  1  0
  7 30  1  0
  9 31  1  0
 12 32  1  0
 12 33  1  0
 18 34  1  0
 18 35  1  0
 21 36  1  0
 23 37  1  0
 24 38  1  0
M  END
>  <smiles>  (67) 
Cc1nc(-c2ccc3cc(C(N)=O)n(C(=O)OCC(=O)O)c3c2)cs1

>  <score_type>  (67) 
oracle

>  <origin>  (67) 
adg

>  <m_score__min__energy>  (67) 
-7.8200000000000003

>  <m_primary>  (67) 
energy

$$$$
69:0
     RDKit          3D

 46 47  0  0  0  0  0  0  0  0999 V2000
  139.1140  147.2060  130.2960 C   0  0  0  0  0  0  0  0  0  0  0  0
  139.4520  148.4980  130.7970 N   0  0  0  0  0  0  0  0  0  0  0  0
  139.1020  149.6060  129.9670 C   0  0  0  0  0  0  0  0  0  0  0  0
  140.7420  148.5940  131.4330 C   0  0  0  0  0  0  0  0  0  0  0  0
  140.4900  149.0720  132.8430 C   0  0  0  0  0  0  0  0  0  0  0  0
  140.1810  150.4690  132.9520 N   0  0  0  0  0  0  0  0  0  0  0  0
  141.1330  151.5160  133.0000 C   0  0  0  0  0  0  0  0  0  0  0  0
  142.4760  151.2670  132.8810 C   0  0  0  0  0  0  0  0  0  0  0  0
  143.3410  152.3340  132.9220 C   0  0  0  0  0  0  0  0  0  0  0  0
  142.8580  153.6150  133.0770 C   0  0  0  0  0  0  0  0  0  0  0  0
  143.5190  154.7940  133.1760 C   0  0  0  0  0  0  0  0  0  0  0  0
  142.5740  155.8250  133.3570 C   0  0  0  0  0  0  0  0  0  0  0  0
  143.0270  157.1930  133.4720 C   0  0  0  0  0  0  0  0  0  0  0  0
  142.3320  158.2620  132.7510 N   0  0  0  0  0  0  0  0  0  0  0  0
  143.9900  157.6260  134.1430 O   0  0  0  0  0  0  0  0  0  0  0  0
  141.3280  155.2550  133.3670 N   0  0  0  0  0  0  0  0  0  0  0  0
  140.1740  155.9870  133.6340 C   0  0  0  0  0  0  0  0  0  0  0  0
  139.1120  155.4420  133.0650 O   0  0  0  0  0  0  0  0  0  0  0  0
  139.8410  157.1260  134.3400 N   0  0  0  0  0  0  0  0  0  0  0  0
  139.9300  157.4740  135.7290 C   0  0  0  0  0  0  0  0  0  0  0  0
  139.2870  158.2380  133.5390 C   0  0  0  0  0  0  0  0  0  0  0  0
  139.9450  159.3050  133.5700 O   0  0  0  0  0  0  0  0  0  0  0  0
  138.1200  158.0770  132.8190 O   0  0  0  0  0  0  0  0  0  0  0  0
  141.5110  153.9110  133.1990 C   0  0  0  0  0  0  0  0  0  0  0  0
  140.6810  152.8150  133.1560 C   0  0  0  0  0  0  0  0  0  0  0  0
  138.9349  146.5215  131.1382 H   0  0  0  0  0  0  0  0  0  0  0  0
  138.2043  147.2774  129.6817 H   0  0  0  0  0  0  0  0  0  0  0  0
  139.9421  146.8228  129.6817 H   0  0  0  0  0  0  0  0  0  0  0  0
  138.8306  150.4653  130.5978 H   0  0  0  0  0  0  0  0  0  0  0  0
  139.9594  149.8736  129.3319 H   0  0  0  0  0  0  0  0  0  0  0  0
  138.2465  149.3326  129.3319 H   0  0  0  0  0  0  0  0  0  0  0  0
  141.2328  147.6097  131.4474 H   0  0  0  0  0  0  0  0  0  0  0  0
  141.4027  149.2861  130.8903 H   0  0  0  0  0  0  0  0  0  0  0  0
  139.6447  148.5002  133.2536 H   0  0  0  0  0  0  0  0  0  0  0  0
  141.4264  148.9147  133.3984 H   0  0  0  0  0  0  0  0  0  0  0  0
  139.1460  150.7090  132.9990 H   0  0  0  0  0  0  0  0  0  0  0  0
  142.8511  150.2405  132.7560 H   0  0  0  0  0  0  0  0  0  0  0  0
  144.4240  152.1646  132.8306 H   0  0  0  0  0  0  0  0  0  0  0  0
  144.6099  154.9248  133.1239 H   0  0  0  0  0  0  0  0  0  0  0  0
  142.1170  158.0330  131.7610 H   0  0  0  0  0  0  0  0  0  0  0  0
  142.1020  159.1480  133.2340 H   0  0  0  0  0  0  0  0  0  0  0  0
  139.7040  156.5902  136.3436 H   0  0  0  0  0  0  0  0  0  0  0  0
  140.9473  157.8268  135.9542 H   0  0  0  0  0  0  0  0  0  0  0  0
  139.2070  158.2718  135.9542 H   0  0  0  0  0  0  0  0  0  0  0  0
  137.7470  157.1430  132.6230 H   0  0  0  0  0  0  0  0  0  0  0  0
  139.5976  152.9800  133.2509 H   0  0  0  0  0  0  0  0  0  0  0  0
  1  2  1  0
  2  3  1  0
  2  4  1  0
  4  5  1  0
  5  6  1  0
  6  7  1  0
  7  8  2  0
  8  9  1  0
  9 10  2  0
 10 11  1  0
 11 12  2  0
 12 13  1  0
 13 14  1  0
 13 15  2  0
 12 16  1  0
 16 17  1  0
 17 18  2  0
 17 19  1  0
 19 20  1  0
 19 21  1  0
 21 22  2  0
 21 23  1  0
 16 24  1  0
 24 25  2  0
 25  7  1  0
 24 10  1  0
  1 26  1  0
  1 27  1  0
  1 28  1  0
  3 29  1  0
  3 30  1  0
  3 31  1  0
  4 32  1  0
  4 33  1  0
  5 34  1  0
  5 35  1  0
  6 36  1  0
  8 37  1  0
  9 38  1  0
 11 39  1  0
 14 40  1  0
 14 41  1  0
 20 42  1  0
 20 43  1  0
 20 44  1  0
 23 45  1  0
 25 46  1  0
M  END
>  <smiles>  (68) 
CN(C)CCNc1ccc2cc(C(N)=O)n(C(=O)N(C)C(=O)O)c2c1

>  <score_type>  (68) 
oracle

>  <origin>  (68) 
adg

>  <m_score__min__energy>  (68) 
-7.1200000000000001

>  <m_primary>  (68) 
energy

$$$$
70:0
     RDKit          3D

 41 42  0  0  0  0  0  0  0  0999 V2000
  139.9880  147.1270  130.4770 C   0  0  0  0  0  0  0  0  0  0  0  0
  139.9970  148.4700  131.1140 C   0  0  0  0  0  0  0  0  0  0  0  0
  138.7890  149.1120  131.2790 C   0  0  0  0  0  0  0  0  0  0  0  0
  138.7930  150.3530  131.8690 C   0  0  0  0  0  0  0  0  0  0  0  0
  139.9790  150.9250  132.2780 C   0  0  0  0  0  0  0  0  0  0  0  0
  140.2460  152.1340  132.8820 C   0  0  0  0  0  0  0  0  0  0  0  0
  141.6260  152.2520  133.0980 C   0  0  0  0  0  0  0  0  0  0  0  0
  142.1950  153.4200  133.7200 C   0  0  0  0  0  0  0  0  0  0  0  0
  143.4580  153.5480  134.3280 N   0  0  0  0  0  0  0  0  0  0  0  0
  141.4800  154.4730  133.7290 O   0  0  0  0  0  0  0  0  0  0  0  0
  142.1780  151.1260  132.6270 N   0  0  0  0  0  0  0  0  0  0  0  0
  143.5360  150.7630  132.6050 C   0  0  0  0  0  0  0  0  0  0  0  0
  143.8770  149.5870  132.2210 O   0  0  0  0  0  0  0  0  0  0  0  0
  144.6030  151.5620  132.9660 O   0  0  0  0  0  0  0  0  0  0  0  0
  145.1440  152.4320  131.9840 C   0  0  0  0  0  0  0  0  0  0  0  0
  146.0110  153.3790  132.5190 O   0  0  0  0  0  0  0  0  0  0  0  0
  145.7160  154.7340  132.5150 C   0  0  0  0  0  0  0  0  0  0  0  0
  144.6410  155.2120  132.0650 O   0  0  0  0  0  0  0  0  0  0  0  0
  146.7160  155.6960  133.0720 C   0  0  0  0  0  0  0  0  0  0  0  0
  147.0020  155.3720  134.5430 C   0  0  0  0  0  0  0  0  0  0  0  0
  145.8690  154.5790  135.0760 C   0  0  0  0  0  0  0  0  0  0  0  0
  144.8870  155.1790  135.5550 O   0  0  0  0  0  0  0  0  0  0  0  0
  145.8490  153.1820  135.0660 O   0  0  0  0  0  0  0  0  0  0  0  0
  141.2000  150.3130  132.1280 C   0  0  0  0  0  0  0  0  0  0  0  0
  141.1930  149.0640  131.5350 C   0  0  0  0  0  0  0  0  0  0  0  0
  139.9828  146.3513  131.2569 H   0  0  0  0  0  0  0  0  0  0  0  0
  139.0892  147.0239  129.8514 H   0  0  0  0  0  0  0  0  0  0  0  0
  140.8854  147.0119  129.8514 H   0  0  0  0  0  0  0  0  0  0  0  0
  137.8495  148.6450  130.9483 H   0  0  0  0  0  0  0  0  0  0  0  0
  137.8457  150.8925  132.0157 H   0  0  0  0  0  0  0  0  0  0  0  0
  139.4934  152.8892  133.1527 H   0  0  0  0  0  0  0  0  0  0  0  0
  144.2480  153.8770  133.7310 H   0  0  0  0  0  0  0  0  0  0  0  0
  143.5660  153.3190  135.3570 H   0  0  0  0  0  0  0  0  0  0  0  0
  145.6941  151.8296  131.2460 H   0  0  0  0  0  0  0  0  0  0  0  0
  144.3045  152.9748  131.5250 H   0  0  0  0  0  0  0  0  0  0  0  0
  147.6502  155.6229  132.4958 H   0  0  0  0  0  0  0  0  0  0  0  0
  146.3097  156.7158  133.0021 H   0  0  0  0  0  0  0  0  0  0  0  0
  147.9321  154.7900  134.6212 H   0  0  0  0  0  0  0  0  0  0  0  0
  147.1169  156.3018  135.1195 H   0  0  0  0  0  0  0  0  0  0  0  0
  146.0110  152.6620  134.1920 H   0  0  0  0  0  0  0  0  0  0  0  0
  142.1428  148.5280  131.3916 H   0  0  0  0  0  0  0  0  0  0  0  0
  1  2  1  0
  2  3  2  0
  3  4  1  0
  4  5  2  0
  5  6  1  0
  6  7  2  0
  7  8  1  0
  8  9  1  0
  8 10  2  0
  7 11  1  0
 11 12  1  0
 12 13  2  0
 12 14  1  0
 14 15  1  0
 15 16  1  0
 16 17  1  0
 17 18  2  0
 17 19  1  0
 19 20  1  0
 20 21  1  0
 21 22  2  0
 21 23  1  0
 11 24  1  0
 24 25  2  0
 25  2  1  0
 24  5  1  0
  1 26  1  0
  1 27  1  0
  1 28  1  0
  3 29  1  0
  4 30  1  0
  6 31  1  0
  9 32  1  0
  9 33  1  0
 15 34  1  0
 15 35  1  0
 19 36  1  0
 19 37  1  0
 20 38  1  0
 20 39  1  0
 23 40  1  0
 25 41  1  0
M  END
>  <smiles>  (69) 
Cc1ccc2cc(C(N)=O)n(C(=O)OCOC(=O)CCC(=O)O)c2c1

>  <score_type>  (69) 
oracle

>  <origin>  (69) 
adg

>  <m_score__min__energy>  (69) 
-5.9800000000000004

>  <m_primary>  (69) 
energy

$$$$
71:0
     RDKit          3D

 38 39  0  0  0  0  0  0  0  0999 V2000
  141.9760  158.4580  134.8900 C   0  0  0  0  0  0  0  0  0  0  0  0
  143.2540  158.9530  134.3340 C   0  0  0  0  0  0  0  0  0  0  0  0
  143.3610  160.2890  134.0390 C   0  0  0  0  0  0  0  0  0  0  0  0
  144.5430  160.7620  133.5210 C   0  0  0  0  0  0  0  0  0  0  0  0
  145.5910  159.8940  133.3090 C   0  0  0  0  0  0  0  0  0  0  0  0
  146.8420  160.1140  132.8140 C   0  0  0  0  0  0  0  0  0  0  0  0
  147.5620  158.9060  132.7860 C   0  0  0  0  0  0  0  0  0  0  0  0
  148.9150  158.8520  132.3070 C   0  0  0  0  0  0  0  0  0  0  0  0
  149.5990  157.5790  132.2520 N   0  0  0  0  0  0  0  0  0  0  0  0
  149.6190  159.8100  131.9110 O   0  0  0  0  0  0  0  0  0  0  0  0
  146.7230  157.9550  133.2700 N   0  0  0  0  0  0  0  0  0  0  0  0
  147.0400  156.5930  133.4210 C   0  0  0  0  0  0  0  0  0  0  0  0
  147.4090  156.1290  134.5590 O   0  0  0  0  0  0  0  0  0  0  0  0
  147.0030  155.5530  132.3640 C   0  0  0  0  0  0  0  0  0  0  0  0
  148.1890  154.6180  132.5480 C   0  0  0  0  0  0  0  0  0  0  0  0
  149.3160  155.1980  132.5840 O   0  0  0  0  0  0  0  0  0  0  0  0
  148.0200  153.2240  132.6670 N   0  0  0  0  0  0  0  0  0  0  0  0
  146.7590  152.5520  132.6300 C   0  0  0  0  0  0  0  0  0  0  0  0
  149.2380  152.4280  132.8390 C   0  0  0  0  0  0  0  0  0  0  0  0
  145.5310  158.5400  133.5890 C   0  0  0  0  0  0  0  0  0  0  0  0
  144.3360  158.0920  134.1080 C   0  0  0  0  0  0  0  0  0  0  0  0
  142.0227  158.4761  135.9889 H   0  0  0  0  0  0  0  0  0  0  0  0
  141.1530  159.1024  134.5473 H   0  0  0  0  0  0  0  0  0  0  0  0
  141.8018  157.4273  134.5473 H   0  0  0  0  0  0  0  0  0  0  0  0
  142.5150  160.9699  134.2142 H   0  0  0  0  0  0  0  0  0  0  0  0
  144.6514  161.8291  133.2768 H   0  0  0  0  0  0  0  0  0  0  0  0
  147.2300  161.0896  132.4858 H   0  0  0  0  0  0  0  0  0  0  0  0
  149.7320  157.0620  131.3660 H   0  0  0  0  0  0  0  0  0  0  0  0
  149.9550  157.2050  133.1660 H   0  0  0  0  0  0  0  0  0  0  0  0
  146.0667  154.9809  132.4420 H   0  0  0  0  0  0  0  0  0  0  0  0
  147.0542  156.0279  131.3731 H   0  0  0  0  0  0  0  0  0  0  0  0
  146.4118  152.3670  133.6573 H   0  0  0  0  0  0  0  0  0  0  0  0
  146.0250  153.1786  132.1021 H   0  0  0  0  0  0  0  0  0  0  0  0
  146.8698  151.5933  132.1021 H   0  0  0  0  0  0  0  0  0  0  0  0
  149.4409  152.2954  133.9120 H   0  0  0  0  0  0  0  0  0  0  0  0
  149.1024  151.4437  132.3671 H   0  0  0  0  0  0  0  0  0  0  0  0
  150.0851  152.9473  132.3671 H   0  0  0  0  0  0  0  0  0  0  0  0
  144.2280  157.0250  134.3526 H   0  0  0  0  0  0  0  0  0  0  0  0
  1  2  1  0
  2  3  2  0
  3  4  1  0
  4  5  2  0
  5  6  1  0
  6  7  2  0
  7  8  1  0
  8  9  1  0
  8 10  2  0
  7 11  1  0
 11 12  1  0
 12 13  2  0
 12 14  1  0
 14 15  1  0
 15 16  2  0
 15 17  1  0
 17 18  1  0
 17 19  1  0
 11 20  1  0
 20 21  2  0
 21  2  1  0
 20  5  1  0
  1 22  1  0
  1 23  1  0
  1 24  1  0
  3 25  1  0
  4 26  1  0
  6 27  1  0
  9 28  1  0
  9 29  1  0
 14 30  1  0
 14 31  1  0
 18 32  1  0
 18 33  1  0
 18 34  1  0
 19 35  1  0
 19 36  1  0
 19 37  1  0
 21 38  1  0
M  END
>  <smiles>  (70) 
Cc1ccc2cc(C(N)=O)n(C(=O)CC(=O)N(C)C)c2c1

>  <score_type>  (70) 
oracle

>  <origin>  (70) 
adg

>  <m_score__min__energy>  (70) 
-7.3600000000000003

>  <m_primary>  (70) 
energy

$$$$
72:0
     RDKit          3D

 36 37  0  0  1  0  0  0  0  0999 V2000
  145.0980  160.3090  133.1050 N   0  0  0  0  0  0  0  0  0  0  0  0
  143.7550  160.3290  133.6340 C   0  0  0  0  0  0  0  0  0  0  0  0
  143.1080  161.3710  133.3680 O   0  0  0  0  0  0  0  0  0  0  0  0
  143.2610  159.2040  134.3970 C   0  0  0  0  0  0  0  0  0  0  0  0
  142.4040  159.3810  135.4940 C   0  0  0  0  0  0  0  0  0  0  0  0
  142.0890  158.1600  136.0350 C   0  0  0  0  0  0  0  0  0  0  0  0
  141.2960  157.8080  137.1050 C   0  0  0  0  0  0  0  0  0  0  0  0
  141.1420  156.4870  137.4470 C   0  0  0  0  0  0  0  0  0  0  0  0
  141.7980  155.5470  136.6910 C   0  0  0  0  0  0  0  0  0  0  0  0
  141.6510  154.0980  137.0360 C   0  0  0  0  0  0  0  0  0  0  0  0
  140.9240  153.9240  138.1980 F   0  0  0  0  0  0  0  0  0  0  0  0
  142.9150  153.5560  137.2100 F   0  0  0  0  0  0  0  0  0  0  0  0
  142.5970  155.9120  135.6100 C   0  0  0  0  0  0  0  0  0  0  0  0
  142.7620  157.2330  135.2550 C   0  0  0  0  0  0  0  0  0  0  0  0
  143.4490  157.8990  134.2890 N   0  0  0  0  0  0  0  0  0  0  0  0
  144.2390  157.2330  133.3310 C   0  0  0  0  0  0  0  0  0  0  0  0
  143.7290  156.2410  132.7120 O   0  0  0  0  0  0  0  0  0  0  0  0
  145.5340  157.5430  132.9810 O   0  0  0  0  0  0  0  0  0  0  0  0
  146.6350  157.5980  133.8420 C   0  0  2  0  0  0  0  0  0  0  0  0
  147.4530  158.7240  133.6480 O   0  0  0  0  0  0  0  0  0  0  0  0
  147.8050  159.1570  132.3660 C   0  0  0  0  0  0  0  0  0  0  0  0
  147.2370  160.1630  131.8390 O   0  0  0  0  0  0  0  0  0  0  0  0
  148.7960  158.4910  131.6270 O   0  0  0  0  0  0  0  0  0  0  0  0
  147.4860  156.4140  133.5250 C   0  0  0  0  0  0  0  0  0  0  0  0
  146.9690  155.2680  133.4400 O   0  0  0  0  0  0  0  0  0  0  0  0
  148.8400  156.5540  133.3220 O   0  0  0  0  0  0  0  0  0  0  0  0
  145.4830  159.3740  132.8500 H   0  0  0  0  0  0  0  0  0  0  0  0
  145.6530  161.1830  132.9840 H   0  0  0  0  0  0  0  0  0  0  0  0
  142.0401  160.3509  135.8639 H   0  0  0  0  0  0  0  0  0  0  0  0
  140.7842  158.5881  137.6877 H   0  0  0  0  0  0  0  0  0  0  0  0
  140.5130  156.1912  138.2996 H   0  0  0  0  0  0  0  0  0  0  0  0
  141.1132  153.5965  136.2179 H   0  0  0  0  0  0  0  0  0  0  0  0
  143.1065  155.1299  135.0280 H   0  0  0  0  0  0  0  0  0  0  0  0
  146.2461  157.6316  134.8704 H   0  0  0  0  0  0  0  0  0  0  0  0
  148.6480  157.5150  131.3910 H   0  0  0  0  0  0  0  0  0  0  0  0
  149.3200  157.4400  133.4490 H   0  0  0  0  0  0  0  0  0  0  0  0
  1  2  1  0
  2  3  2  0
  2  4  1  0
  4  5  2  0
  5  6  1  0
  6  7  2  0
  7  8  1  0
  8  9  2  0
  9 10  1  0
 10 11  1  0
 10 12  1  0
  9 13  1  0
 13 14  2  0
 14 15  1  0
 15 16  1  0
 16 17  2  0
 16 18  1  0
 18 19  1  0
 19 20  1  0
 20 21  1  0
 21 22  2  0
 21 23  1  0
 19 24  1  0
 24 25  2  0
 24 26  1  0
 15  4  1  0
 14  6  1  0
  1 27  1  0
  1 28  1  0
  5 29  1  0
  7 30  1  0
  8 31  1  0
 10 32  1  0
 13 33  1  0
 19 34  1  1
 23 35  1  0
 26 36  1  0
M  END
>  <smiles>  (71) 
NC(=O)c1cc2ccc(C(F)F)cc2n1C(=O)OC(OC(=O)O)C(=O)O

>  <score_type>  (71) 
oracle

>  <origin>  (71) 
adg

>  <m_score__min__energy>  (71) 
-5.9500000000000002

>  <m_primary>  (71) 
energy

$$$$
73:0
     RDKit          3D

 40 41  0  0  0  0  0  0  0  0999 V2000
  140.9980  160.5450  133.3870 C   0  0  0  0  0  0  0  0  0  0  0  0
  140.6360  159.1070  133.2680 C   0  0  0  0  0  0  0  0  0  0  0  0
  139.3060  158.7830  133.1220 C   0  0  0  0  0  0  0  0  0  0  0  0
  138.9930  157.4500  133.0160 C   0  0  0  0  0  0  0  0  0  0  0  0
  139.9710  156.4830  133.0530 C   0  0  0  0  0  0  0  0  0  0  0  0
  139.8800  155.1230  133.0180 C   0  0  0  0  0  0  0  0  0  0  0  0
  141.1510  154.5840  133.1350 C   0  0  0  0  0  0  0  0  0  0  0  0
  141.3570  153.1480  133.1090 C   0  0  0  0  0  0  0  0  0  0  0  0
  141.6520  152.3550  131.9780 N   0  0  0  0  0  0  0  0  0  0  0  0
  141.2650  152.5140  134.2050 O   0  0  0  0  0  0  0  0  0  0  0  0
  142.0440  155.6130  133.2440 N   0  0  0  0  0  0  0  0  0  0  0  0
  143.3880  155.4670  133.5540 C   0  0  0  0  0  0  0  0  0  0  0  0
  143.7930  156.1870  134.5730 O   0  0  0  0  0  0  0  0  0  0  0  0
  144.4320  154.7030  133.0120 N   0  0  0  0  0  0  0  0  0  0  0  0
  145.0590  154.8710  131.7600 C   0  0  0  0  0  0  0  0  0  0  0  0
  144.5980  154.5050  130.6420 O   0  0  0  0  0  0  0  0  0  0  0  0
  146.3320  155.4900  131.6300 O   0  0  0  0  0  0  0  0  0  0  0  0
  144.7110  153.4500  133.7260 C   0  0  0  0  0  0  0  0  0  0  0  0
  143.9290  153.4140  135.3070 S   0  0  0  0  0  0  0  0  0  0  0  0
  146.2410  153.4290  133.8930 C   0  0  0  0  0  0  0  0  0  0  0  0
  146.7510  153.5900  135.0180 O   0  0  0  0  0  0  0  0  0  0  0  0
  147.0730  153.2280  132.8120 O   0  0  0  0  0  0  0  0  0  0  0  0
  144.5170  152.2310  132.9080 C   0  0  0  0  0  0  0  0  0  0  0  0
  143.7280  151.3580  133.3890 O   0  0  0  0  0  0  0  0  0  0  0  0
  145.0990  151.9520  131.7090 O   0  0  0  0  0  0  0  0  0  0  0  0
  141.3270  156.7790  133.1970 C   0  0  0  0  0  0  0  0  0  0  0  0
  141.6070  158.1200  133.3030 C   0  0  0  0  0  0  0  0  0  0  0  0
  141.0670  160.8190  134.4501 H   0  0  0  0  0  0  0  0  0  0  0  0
  141.9683  160.7204  132.8994 H   0  0  0  0  0  0  0  0  0  0  0  0
  140.2264  161.1589  132.8994 H   0  0  0  0  0  0  0  0  0  0  0  0
  138.5269  159.5590  133.0915 H   0  0  0  0  0  0  0  0  0  0  0  0
  137.9411  157.1500  132.8994 H   0  0  0  0  0  0  0  0  0  0  0  0
  138.9486  154.5471  132.9138 H   0  0  0  0  0  0  0  0  0  0  0  0
  140.9800  152.3090  131.1680 H   0  0  0  0  0  0  0  0  0  0  0  0
  142.5180  151.7760  131.8690 H   0  0  0  0  0  0  0  0  0  0  0  0
  147.1740  154.9560  131.4800 H   0  0  0  0  0  0  0  0  0  0  0  0
  142.9970  152.4000  135.5000 H   0  0  0  0  0  0  0  0  0  0  0  0
  146.7030  153.3680  131.8810 H   0  0  0  0  0  0  0  0  0  0  0  0
  145.6380  152.6660  131.2160 H   0  0  0  0  0  0  0  0  0  0  0  0
  142.6570  158.4256  133.4218 H   0  0  0  0  0  0  0  0  0  0  0  0
  1  2  1  0
  2  3  2  0
  3  4  1  0
  4  5  2  0
  5  6  1  0
  6  7  2  0
  7  8  1  0
  8  9  1  0
  8 10  2  0
  7 11  1  0
 11 12  1  0
 12 13  2  0
 12 14  1  0
 14 15  1  0
 15 16  2  0
 15 17  1  0
 14 18  1  0
 18 19  1  0
 18 20  1  0
 20 21  2  0
 20 22  1  0
 18 23  1  0
 23 24  2  0
 23 25  1  0
 11 26  1  0
 26 27  2  0
 27  2  1  0
 26  5  1  0
  1 28  1  0
  1 29  1  0
  1 30  1  0
  3 31  1  0
  4 32  1  0
  6 33  1  0
  9 34  1  0
  9 35  1  0
 17 36  1  0
 19 37  1  0
 22 38  1  0
 25 39  1  0
 27 40  1  0
M  END
>  <smiles>  (72) 
Cc1ccc2cc(C(N)=O)n(C(=O)N(C(=O)O)C(S)(C(=O)O)C(=O)O)c2c1

>  <score_type>  (72) 
oracle

>  <origin>  (72) 
adg

>  <m_score__min__energy>  (72) 
-5.9299999999999997

>  <m_primary>  (72) 
energy

$$$$
74:0
     RDKit          3D

 39 41  0  0  0  0  0  0  0  0999 V2000
  138.3710  148.9060  131.0120 C   0  0  0  0  0  0  0  0  0  0  0  0
  139.4780  149.4940  131.7560 N   0  0  0  0  0  0  0  0  0  0  0  0
  139.7550  150.7950  131.8610 C   0  0  0  0  0  0  0  0  0  0  0  0
  140.8800  150.9350  132.6490 C   0  0  0  0  0  0  0  0  0  0  0  0
  141.5660  152.1570  133.0500 C   0  0  0  0  0  0  0  0  0  0  0  0
  142.8630  152.0550  133.5060 C   0  0  0  0  0  0  0  0  0  0  0  0
  143.5340  153.1950  133.8920 C   0  0  0  0  0  0  0  0  0  0  0  0
  142.8980  154.4200  133.8160 C   0  0  0  0  0  0  0  0  0  0  0  0
  143.3280  155.6850  134.1290 C   0  0  0  0  0  0  0  0  0  0  0  0
  142.2960  156.5990  133.8700 C   0  0  0  0  0  0  0  0  0  0  0  0
  142.4400  158.0140  134.0990 C   0  0  0  0  0  0  0  0  0  0  0  0
  141.9280  158.9370  133.1120 N   0  0  0  0  0  0  0  0  0  0  0  0
  142.9750  158.5570  135.0880 O   0  0  0  0  0  0  0  0  0  0  0  0
  141.2550  155.8840  133.4040 N   0  0  0  0  0  0  0  0  0  0  0  0
  139.9870  156.3750  133.0060 C   0  0  0  0  0  0  0  0  0  0  0  0
  139.1060  155.5320  132.6040 O   0  0  0  0  0  0  0  0  0  0  0  0
  139.5890  157.6800  133.0040 O   0  0  0  0  0  0  0  0  0  0  0  0
  138.6220  158.2440  132.1730 C   0  0  0  0  0  0  0  0  0  0  0  0
  139.1810  159.2870  131.2670 C   0  0  0  0  0  0  0  0  0  0  0  0
  138.4370  160.0770  130.6040 O   0  0  0  0  0  0  0  0  0  0  0  0
  140.5600  159.3900  131.1500 O   0  0  0  0  0  0  0  0  0  0  0  0
  141.6100  154.5640  133.3670 C   0  0  0  0  0  0  0  0  0  0  0  0
  140.9550  153.4050  132.9850 C   0  0  0  0  0  0  0  0  0  0  0  0
  141.2600  149.6420  133.0080 C   0  0  0  0  0  0  0  0  0  0  0  0
  140.3690  148.7970  132.4360 N   0  0  0  0  0  0  0  0  0  0  0  0
  137.6251  148.5098  131.7167 H   0  0  0  0  0  0  0  0  0  0  0  0
  137.9050  149.6754  130.3789 H   0  0  0  0  0  0  0  0  0  0  0  0
  138.7476  148.0891  130.3789 H   0  0  0  0  0  0  0  0  0  0  0  0
  139.1852  151.6148  131.3992 H   0  0  0  0  0  0  0  0  0  0  0  0
  143.3571  151.0738  133.5611 H   0  0  0  0  0  0  0  0  0  0  0  0
  144.5692  153.1307  134.2583 H   0  0  0  0  0  0  0  0  0  0  0  0
  144.3234  155.9414  134.5206 H   0  0  0  0  0  0  0  0  0  0  0  0
  142.4730  159.1090  132.2380 H   0  0  0  0  0  0  0  0  0  0  0  0
  141.0240  159.3810  133.3440 H   0  0  0  0  0  0  0  0  0  0  0  0
  138.1765  157.4469  131.5597 H   0  0  0  0  0  0  0  0  0  0  0  0
  137.8726  158.7288  132.8160 H   0  0  0  0  0  0  0  0  0  0  0  0
  141.1470  158.5860  131.3660 H   0  0  0  0  0  0  0  0  0  0  0  0
  139.9199  153.4735  132.6190 H   0  0  0  0  0  0  0  0  0  0  0  0
  142.1189  149.3619  133.6356 H   0  0  0  0  0  0  0  0  0  0  0  0
  1  2  1  0
  2  3  1  0
  3  4  2  0
  4  5  1  0
  5  6  2  0
  6  7  1  0
  7  8  2  0
  8  9  1  0
  9 10  2  0
 10 11  1  0
 11 12  1  0
 11 13  2  0
 10 14  1  0
 14 15  1  0
 15 16  2  0
 15 17  1  0
 17 18  1  0
 18 19  1  0
 19 20  2  0
 19 21  1  0
 14 22  1  0
 22 23  2  0
  4 24  1  0
 24 25  2  0
 25  2  1  0
 23  5  1  0
 22  8  1  0
  1 26  1  0
  1 27  1  0
  1 28  1  0
  3 29  1  0
  6 30  1  0
  7 31  1  0
  9 32  1  0
 12 33  1  0
 12 34  1  0
 18 35  1  0
 18 36  1  0
 21 37  1  0
 23 38  1  0
 24 39  1  0
M  END
>  <smiles>  (73) 
Cn1cc(-c2ccc3cc(C(N)=O)n(C(=O)OCC(=O)O)c3c2)cn1

>  <score_type>  (73) 
oracle

>  <origin>  (73) 
adg

>  <m_score__min__energy>  (73) 
-7.2300000000000004

>  <m_primary>  (73) 
energy

$$$$
75:0
     RDKit          3D

 42 44  0  0  1  0  0  0  0  0999 V2000
  149.1970  150.1860  132.2930 C   0  0  0  0  0  0  0  0  0  0  0  0
  148.0080  150.9550  132.4550 N   0  0  0  0  0  0  0  0  0  0  0  0
  148.2130  152.3650  132.5570 C   0  0  2  0  0  0  0  0  0  0  0  0
  149.4740  152.8540  131.9040 C   0  0  0  0  0  0  0  0  0  0  0  0
  149.6020  154.2490  132.5510 C   0  0  0  0  0  0  0  0  0  0  0  0
  148.5930  154.3390  133.5660 N   0  0  0  0  0  0  0  0  0  0  0  0
  147.8190  155.2880  134.2140 C   0  0  0  0  0  0  0  0  0  0  0  0
  147.7830  155.0940  135.5120 O   0  0  0  0  0  0  0  0  0  0  0  0
  147.0580  156.3970  133.8300 N   0  0  0  0  0  0  0  0  0  0  0  0
  145.7460  156.5440  134.1920 C   0  0  0  0  0  0  0  0  0  0  0  0
  144.8020  155.6620  134.8430 C   0  0  0  0  0  0  0  0  0  0  0  0
  145.2410  154.8510  135.9830 N   0  0  0  0  0  0  0  0  0  0  0  0
  143.6050  155.4790  134.5620 O   0  0  0  0  0  0  0  0  0  0  0  0
  145.3140  157.8090  133.7350 C   0  0  0  0  0  0  0  0  0  0  0  0
  146.3480  158.4180  133.1050 C   0  0  0  0  0  0  0  0  0  0  0  0
  146.4250  159.6580  132.5120 C   0  0  0  0  0  0  0  0  0  0  0  0
  147.5990  160.0920  131.9450 C   0  0  0  0  0  0  0  0  0  0  0  0
  148.6760  159.2460  131.9970 C   0  0  0  0  0  0  0  0  0  0  0  0
  149.9840  159.6720  131.3940 C   0  0  0  0  0  0  0  0  0  0  0  0
  148.5750  158.0060  132.5970 C   0  0  0  0  0  0  0  0  0  0  0  0
  147.4140  157.5360  133.1740 C   0  0  0  0  0  0  0  0  0  0  0  0
  148.4560  152.8760  133.9540 C   0  0  0  0  0  0  0  0  0  0  0  0
  149.6019  149.9242  133.2817 H   0  0  0  0  0  0  0  0  0  0  0  0
  148.9656  149.2660  131.7361 H   0  0  0  0  0  0  0  0  0  0  0  0
  149.9412  150.7743  131.7361 H   0  0  0  0  0  0  0  0  0  0  0  0
  147.5330  150.6540  133.3360 H   0  0  0  0  0  0  0  0  0  0  0  0
  147.2774  152.7169  132.0979 H   0  0  0  0  0  0  0  0  0  0  0  0
  150.3333  152.2124  132.1486 H   0  0  0  0  0  0  0  0  0  0  0  0
  149.4489  152.8590  130.8043 H   0  0  0  0  0  0  0  0  0  0  0  0
  150.5995  154.3665  132.9995 H   0  0  0  0  0  0  0  0  0  0  0  0
  149.4722  155.0417  131.7995 H   0  0  0  0  0  0  0  0  0  0  0  0
  146.0820  154.2360  135.8850 H   0  0  0  0  0  0  0  0  0  0  0  0
  144.7190  154.8890  136.8740 H   0  0  0  0  0  0  0  0  0  0  0  0
  144.3064  158.2296  133.8683 H   0  0  0  0  0  0  0  0  0  0  0  0
  145.5378  160.3079  132.4919 H   0  0  0  0  0  0  0  0  0  0  0  0
  147.6716  161.0804  131.4677 H   0  0  0  0  0  0  0  0  0  0  0  0
  150.6992  159.9049  132.1966 H   0  0  0  0  0  0  0  0  0  0  0  0
  150.3835  158.8575  130.7719 H   0  0  0  0  0  0  0  0  0  0  0  0
  149.8272  160.5655  130.7719 H   0  0  0  0  0  0  0  0  0  0  0  0
  149.4657  157.3607  132.6155 H   0  0  0  0  0  0  0  0  0  0  0  0
  149.3736  152.4675  134.4024 H   0  0  0  0  0  0  0  0  0  0  0  0
  147.7039  152.6274  134.7173 H   0  0  0  0  0  0  0  0  0  0  0  0
  1  2  1  0
  2  3  1  0
  3  4  1  0
  4  5  1  0
  5  6  1  0
  6  7  1  0
  7  8  2  0
  7  9  1  0
  9 10  1  0
 10 11  1  0
 11 12  1  0
 11 13  2  0
 10 14  2  0
 14 15  1  0
 15 16  2  0
 16 17  1  0
 17 18  2  0
 18 19  1  0
 18 20  1  0
 20 21  2  0
  6 22  1  0
 22  3  1  0
 21  9  1  0
 21 15  1  0
  1 23  1  0
  1 24  1  0
  1 25  1  0
  2 26  1  0
  3 27  1  6
  4 28  1  0
  4 29  1  0
  5 30  1  0
  5 31  1  0
 12 32  1  0
 12 33  1  0
 14 34  1  0
 16 35  1  0
 17 36  1  0
 19 37  1  0
 19 38  1  0
 19 39  1  0
 20 40  1  0
 22 41  1  0
 22 42  1  0
M  END
>  <smiles>  (74) 
CNC1CCN(C(=O)n2c(C(N)=O)cc3ccc(C)cc32)C1

>  <score_type>  (74) 
oracle

>  <origin>  (74) 
adg

>  <m_score__min__energy>  (74) 
-8.1999999999999993

>  <m_primary>  (74) 
energy

$$$$
76:0
     RDKit          3D

 64 67  0  0  0  0  0  0  0  0999 V2000
  142.1460  159.2970  135.6360 C   0  0  0  0  0  0  0  0  0  0  0  0
  141.6700  159.4730  134.1860 C   0  0  0  0  0  0  0  0  0  0  0  0
  141.9860  160.8830  133.7290 C   0  0  0  0  0  0  0  0  0  0  0  0
  142.4640  158.5210  133.3350 C   0  0  0  0  0  0  0  0  0  0  0  0
  140.2810  159.2100  134.1880 O   0  0  0  0  0  0  0  0  0  0  0  0
  139.6560  158.2430  133.4190 C   0  0  0  0  0  0  0  0  0  0  0  0
  139.0140  158.6140  132.3970 O   0  0  0  0  0  0  0  0  0  0  0  0
  139.7450  156.8530  133.7910 N   0  0  0  0  0  0  0  0  0  0  0  0
  140.5270  156.4920  134.9850 C   0  0  0  0  0  0  0  0  0  0  0  0
  141.6720  155.6270  134.4990 C   0  0  0  0  0  0  0  0  0  0  0  0
  141.1980  154.6360  133.5460 N   0  0  0  0  0  0  0  0  0  0  0  0
  142.1550  153.6940  133.0470 C   0  0  0  0  0  0  0  0  0  0  0  0
  141.8190  152.7920  132.2240 O   0  0  0  0  0  0  0  0  0  0  0  0
  143.5550  153.7130  133.4440 C   0  0  0  0  0  0  0  0  0  0  0  0
  144.4660  152.7960  132.9370 C   0  0  0  0  0  0  0  0  0  0  0  0
  145.6520  153.0340  133.4570 N   0  0  0  0  0  0  0  0  0  0  0  0
  145.5030  154.1010  134.2950 C   0  0  0  0  0  0  0  0  0  0  0  0
  146.6650  154.6390  135.0530 C   0  0  0  0  0  0  0  0  0  0  0  0
  147.4030  155.5650  134.1550 C   0  0  0  0  0  0  0  0  0  0  0  0
  148.4980  155.0500  133.4550 C   0  0  0  0  0  0  0  0  0  0  0  0
  149.1870  155.8920  132.6110 C   0  0  0  0  0  0  0  0  0  0  0  0
  148.7890  157.2090  132.4750 C   0  0  0  0  0  0  0  0  0  0  0  0
  149.3010  158.2340  131.7060 C   0  0  0  0  0  0  0  0  0  0  0  0
  148.5390  159.3940  131.9150 C   0  0  0  0  0  0  0  0  0  0  0  0
  148.8520  160.6300  131.2440 C   0  0  0  0  0  0  0  0  0  0  0  0
  149.5730  160.8130  130.0500 N   0  0  0  0  0  0  0  0  0  0  0  0
  148.4300  161.7010  131.7910 O   0  0  0  0  0  0  0  0  0  0  0  0
  147.5890  159.0580  132.7940 N   0  0  0  0  0  0  0  0  0  0  0  0
  146.5630  159.8770  133.3110 C   0  0  0  0  0  0  0  0  0  0  0  0
  145.3590  159.4360  133.3850 O   0  0  0  0  0  0  0  0  0  0  0  0
  146.7050  161.1700  133.7730 O   0  0  0  0  0  0  0  0  0  0  0  0
  147.7200  157.7520  133.1440 C   0  0  0  0  0  0  0  0  0  0  0  0
  147.0270  156.9010  133.9940 C   0  0  0  0  0  0  0  0  0  0  0  0
  144.2210  154.5140  134.2850 N   0  0  0  0  0  0  0  0  0  0  0  0
  139.8490  154.5530  133.0710 C   0  0  0  0  0  0  0  0  0  0  0  0
  139.0830  155.8240  133.0250 C   0  0  0  0  0  0  0  0  0  0  0  0
  141.3415  159.5945  136.3247 H   0  0  0  0  0  0  0  0  0  0  0  0
  142.4072  158.2428  135.8108 H   0  0  0  0  0  0  0  0  0  0  0  0
  143.0302  159.9276  135.8108 H   0  0  0  0  0  0  0  0  0  0  0  0
  142.1308  161.5293  134.6073 H   0  0  0  0  0  0  0  0  0  0  0  0
  142.9047  160.8751  133.1240 H   0  0  0  0  0  0  0  0  0  0  0  0
  141.1518  161.2680  133.1240 H   0  0  0  0  0  0  0  0  0  0  0  0
  143.0336  157.8381  133.9825 H   0  0  0  0  0  0  0  0  0  0  0  0
  141.7799  157.9390  132.7000 H   0  0  0  0  0  0  0  0  0  0  0  0
  143.1594  159.0895  132.7000 H   0  0  0  0  0  0  0  0  0  0  0  0
  140.9150  157.3977  135.4741 H   0  0  0  0  0  0  0  0  0  0  0  0
  139.9081  155.9586  135.7216 H   0  0  0  0  0  0  0  0  0  0  0  0
  142.4252  156.2644  134.0128 H   0  0  0  0  0  0  0  0  0  0  0  0
  142.1130  155.1060  135.3616 H   0  0  0  0  0  0  0  0  0  0  0  0
  144.2340  151.9982  132.2161 H   0  0  0  0  0  0  0  0  0  0  0  0
  146.3127  155.1817  135.9426 H   0  0  0  0  0  0  0  0  0  0  0  0
  147.3207  153.8201  135.3838 H   0  0  0  0  0  0  0  0  0  0  0  0
  148.8013  153.9995  133.5753 H   0  0  0  0  0  0  0  0  0  0  0  0
  150.0530  155.5172  132.0456 H   0  0  0  0  0  0  0  0  0  0  0  0
  150.1691  158.1545  131.0352 H   0  0  0  0  0  0  0  0  0  0  0  0
  150.6270  160.9330  130.1500 H   0  0  0  0  0  0  0  0  0  0  0  0
  149.1170  160.8440  129.0880 H   0  0  0  0  0  0  0  0  0  0  0  0
  147.0270  161.8910  133.1320 H   0  0  0  0  0  0  0  0  0  0  0  0
  146.1622  157.2872  134.5535 H   0  0  0  0  0  0  0  0  0  0  0  0
  143.8090  155.2970  134.8190 H   0  0  0  0  0  0  0  0  0  0  0  0
  139.8787  154.1437  132.0504 H   0  0  0  0  0  0  0  0  0  0  0  0
  139.3217  153.9218  133.8015 H   0  0  0  0  0  0  0  0  0  0  0  0
  138.9952  156.1538  131.9793 H   0  0  0  0  0  0  0  0  0  0  0  0
  138.0870  155.6497  133.4581 H   0  0  0  0  0  0  0  0  0  0  0  0
  1  2  1  0
  2  3  1  0
  2  4  1  0
  2  5  1  0
  5  6  1  0
  6  7  2  0
  6  8  1  0
  8  9  1  0
  9 10  1  0
 10 11  1  0
 11 12  1  0
 12 13  2  0
 12 14  1  0
 14 15  2  0
 15 16  1  0
 16 17  2  0
 17 18  1  0
 18 19  1  0
 19 20  2  0
 20 21  1  0
 21 22  2  0
 22 23  1  0
 23 24  2  0
 24 25  1  0
 25 26  1  0
 25 27  2  0
 24 28  1  0
 28 29  1  0
 29 30  2  0
 29 31  1  0
 28 32  1  0
 32 33  2  0
 17 34  1  0
 11 35  1  0
 35 36  1  0
 36  8  1  0
 34 14  1  0
 33 19  1  0
 32 22  1  0
  1 37  1  0
  1 38  1  0
  1 39  1  0
  3 40  1  0
  3 41  1  0
  3 42  1  0
  4 43  1  0
  4 44  1  0
  4 45  1  0
  9 46  1  0
  9 47  1  0
 10 48  1  0
 10 49  1  0
 15 50  1  0
 18 51  1  0
 18 52  1  0
 20 53  1  0
 21 54  1  0
 23 55  1  0
 26 56  1  0
 26 57  1  0
 31 58  1  0
 33 59  1  0
 34 60  1  0
 35 61  1  0
 35 62  1  0
 36 63  1  0
 36 64  1  0
M  END
>  <smiles>  (75) 
CC(C)(C)OC(=O)N1CCN(C(=O)c2cnc(Cc3ccc4cc(C(N)=O)n(C(=O)O)c4c3)[nH]2)CC1

>  <score_type>  (75) 
oracle

>  <origin>  (75) 
adg

>  <m_score__min__energy>  (75) 
-9.5700000000000003

>  <m_primary>  (75) 
energy

$$$$
77:0
     RDKit          3D

 30 31  0  0  0  0  0  0  0  0999 V2000
  145.0790  157.3130  134.3670 N   0  0  0  0  0  0  0  0  0  0  0  0
  146.4670  157.0720  134.0380 C   0  0  0  0  0  0  0  0  0  0  0  0
  146.9290  156.0060  134.5020 O   0  0  0  0  0  0  0  0  0  0  0  0
  147.1860  158.0360  133.2320 C   0  0  0  0  0  0  0  0  0  0  0  0
  148.3930  157.7210  132.5940 C   0  0  0  0  0  0  0  0  0  0  0  0
  148.8430  158.8070  131.9100 C   0  0  0  0  0  0  0  0  0  0  0  0
  149.9780  158.9910  131.1330 C   0  0  0  0  0  0  0  0  0  0  0  0
  150.1930  160.2190  130.5430 C   0  0  0  0  0  0  0  0  0  0  0  0
  149.2880  161.2420  130.7320 C   0  0  0  0  0  0  0  0  0  0  0  0
  149.5110  162.5100  130.1230 N   0  0  0  0  0  0  0  0  0  0  0  0
  148.1560  161.0180  131.5220 C   0  0  0  0  0  0  0  0  0  0  0  0
  147.9130  159.8030  132.1240 C   0  0  0  0  0  0  0  0  0  0  0  0
  146.9240  159.3080  132.9260 N   0  0  0  0  0  0  0  0  0  0  0  0
  145.8010  160.0580  133.3500 C   0  0  0  0  0  0  0  0  0  0  0  0
  145.8410  161.1660  133.9290 O   0  0  0  0  0  0  0  0  0  0  0  0
  144.5050  159.5620  133.1260 O   0  0  0  0  0  0  0  0  0  0  0  0
  143.3770  160.1400  133.7550 C   0  0  0  0  0  0  0  0  0  0  0  0
  142.3780  159.0550  133.9540 C   0  0  0  0  0  0  0  0  0  0  0  0
  142.6740  157.8930  134.1730 O   0  0  0  0  0  0  0  0  0  0  0  0
  144.7650  158.3170  134.5020 H   0  0  0  0  0  0  0  0  0  0  0  0
  144.4000  156.5180  134.4710 H   0  0  0  0  0  0  0  0  0  0  0  0
  148.8989  156.7453  132.6393 H   0  0  0  0  0  0  0  0  0  0  0  0
  150.6955  158.1696  130.9898 H   0  0  0  0  0  0  0  0  0  0  0  0
  151.0861  160.3822  129.9219 H   0  0  0  0  0  0  0  0  0  0  0  0
  150.3370  163.1090  130.3390 H   0  0  0  0  0  0  0  0  0  0  0  0
  148.8240  162.8790  129.4180 H   0  0  0  0  0  0  0  0  0  0  0  0
  147.4371  161.8378  131.6673 H   0  0  0  0  0  0  0  0  0  0  0  0
  143.6657  160.5688  134.7260 H   0  0  0  0  0  0  0  0  0  0  0  0
  142.9574  160.9477  133.1373 H   0  0  0  0  0  0  0  0  0  0  0  0
  141.3109  159.3167  133.9003 H   0  0  0  0  0  0  0  0  0  0  0  0
  1  2  1  0
  2  3  2  0
  2  4  1  0
  4  5  2  0
  5  6  1  0
  6  7  2  0
  7  8  1  0
  8  9  2  0
  9 10  1  0
  9 11  1  0
 11 12  2  0
 12 13  1  0
 13 14  1  0
 14 15  2  0
 14 16  1  0
 16 17  1  0
 17 18  1  0
 18 19  2  0
 13  4  1  0
 12  6  1  0
  1 20  1  0
  1 21  1  0
  5 22  1  0
  7 23  1  0
  8 24  1  0
 10 25  1  0
 10 26  1  0
 11 27  1  0
 17 28  1  0
 17 29  1  0
 18 30  1  0
M  END
>  <smiles>  (76) 
NC(=O)c1cc2ccc(N)cc2n1C(=O)OCC=O

>  <score_type>  (76) 
oracle

>  <origin>  (76) 
adg

>  <m_score__min__energy>  (76) 
-5.5300000000000002

>  <m_primary>  (76) 
energy

$$$$
78:0
     RDKit          3D

 32 33  0  0  0  0  0  0  0  0999 V2000
  144.4260  160.4590  133.7430 C   0  0  0  0  0  0  0  0  0  0  0  0
  145.3310  159.7120  132.9160 O   0  0  0  0  0  0  0  0  0  0  0  0
  146.7100  159.9300  133.1050 C   0  0  0  0  0  0  0  0  0  0  0  0
  146.9970  161.0360  133.6140 O   0  0  0  0  0  0  0  0  0  0  0  0
  147.6400  158.9340  132.7250 N   0  0  0  0  0  0  0  0  0  0  0  0
  148.6970  159.0900  131.9160 C   0  0  0  0  0  0  0  0  0  0  0  0
  149.2020  160.2480  131.2110 C   0  0  0  0  0  0  0  0  0  0  0  0
  148.3230  161.3680  130.9680 N   0  0  0  0  0  0  0  0  0  0  0  0
  150.3630  160.3920  130.7710 O   0  0  0  0  0  0  0  0  0  0  0  0
  149.3200  157.8410  131.8330 C   0  0  0  0  0  0  0  0  0  0  0  0
  148.6290  156.9320  132.5990 C   0  0  0  0  0  0  0  0  0  0  0  0
  148.8410  155.5890  132.8390 C   0  0  0  0  0  0  0  0  0  0  0  0
  147.9840  154.9060  133.6590 C   0  0  0  0  0  0  0  0  0  0  0  0
  146.9240  155.5720  134.2300 C   0  0  0  0  0  0  0  0  0  0  0  0
  146.0110  154.8020  135.1150 C   0  0  0  0  0  0  0  0  0  0  0  0
  146.7840  154.2810  136.2860 C   0  0  0  0  0  0  0  0  0  0  0  0
  147.9690  154.6260  136.5260 O   0  0  0  0  0  0  0  0  0  0  0  0
  146.1800  153.3790  137.1500 O   0  0  0  0  0  0  0  0  0  0  0  0
  146.7280  156.9300  133.9730 C   0  0  0  0  0  0  0  0  0  0  0  0
  147.5810  157.6420  133.1480 C   0  0  0  0  0  0  0  0  0  0  0  0
  144.6556  160.2695  134.8019 H   0  0  0  0  0  0  0  0  0  0  0  0
  144.5362  161.5326  133.5304 H   0  0  0  0  0  0  0  0  0  0  0  0
  143.3927  160.1473  133.5304 H   0  0  0  0  0  0  0  0  0  0  0  0
  147.7990  161.8210  131.7610 H   0  0  0  0  0  0  0  0  0  0  0  0
  148.2060  161.7310  129.9960 H   0  0  0  0  0  0  0  0  0  0  0  0
  150.2234  157.6198  131.2456 H   0  0  0  0  0  0  0  0  0  0  0  0
  149.6931  155.0713  132.3743 H   0  0  0  0  0  0  0  0  0  0  0  0
  148.1410  153.8359  133.8594 H   0  0  0  0  0  0  0  0  0  0  0  0
  145.2029  155.4583  135.4703 H   0  0  0  0  0  0  0  0  0  0  0  0
  145.5764  153.9607  134.5553 H   0  0  0  0  0  0  0  0  0  0  0  0
  145.5170  153.7120  137.8680 H   0  0  0  0  0  0  0  0  0  0  0  0
  145.8751  157.4466  134.4374 H   0  0  0  0  0  0  0  0  0  0  0  0
  1  2  1  0
  2  3  1  0
  3  4  2  0
  3  5  1  0
  5  6  1  0
  6  7  1  0
  7  8  1  0
  7  9  2  0
  6 10  2  0
 10 11  1  0
 11 12  2  0
 12 13  1  0
 13 14  2  0
 14 15  1  0
 15 16  1  0
 16 17  2  0
 16 18  1  0
 14 19  1  0
 19 20  2  0
 20  5  1  0
 20 11  1  0
  1 21  1  0
  1 22  1  0
  1 23  1  0
  8 24  1  0
  8 25  1  0
 10 26  1  0
 12 27  1  0
 13 28  1  0
 15 29  1  0
 15 30  1  0
 18 31  1  0
 19 32  1  0
M  END
>  <smiles>  (77) 
COC(=O)n1c(C(N)=O)cc2ccc(CC(=O)O)cc21

>  <score_type>  (77) 
oracle

>  <origin>  (77) 
adg

>  <m_score__min__energy>  (77) 
-6.4699999999999998

>  <m_primary>  (77) 
energy

$$$$
80:0
     RDKit          3D

 33 34  0  0  0  0  0  0  0  0999 V2000
  145.4250  154.9730  134.8530 C   0  0  0  0  0  0  0  0  0  0  0  0
  146.3820  155.4830  134.1330 C   0  0  0  0  0  0  0  0  0  0  0  0
  147.7540  154.8540  134.4780 C   0  0  0  0  0  0  0  0  0  0  0  0
  148.2520  153.9310  133.0180 S   0  0  0  0  0  0  0  0  0  0  0  0
  146.4290  156.5060  133.1550 C   0  0  0  0  0  0  0  0  0  0  0  0
  146.7160  156.0510  131.9480 O   0  0  0  0  0  0  0  0  0  0  0  0
  146.2330  157.8910  133.1590 N   0  0  0  0  0  0  0  0  0  0  0  0
  147.2620  158.7810  133.0210 C   0  0  0  0  0  0  0  0  0  0  0  0
  148.6570  158.5830  132.6680 C   0  0  0  0  0  0  0  0  0  0  0  0
  149.0380  157.4780  131.7970 N   0  0  0  0  0  0  0  0  0  0  0  0
  149.6290  159.2780  133.0370 O   0  0  0  0  0  0  0  0  0  0  0  0
  146.7600  160.0670  133.2110 C   0  0  0  0  0  0  0  0  0  0  0  0
  145.4400  159.9830  133.4630 C   0  0  0  0  0  0  0  0  0  0  0  0
  144.5170  160.9660  133.7460 C   0  0  0  0  0  0  0  0  0  0  0  0
  143.2060  160.6440  134.0200 C   0  0  0  0  0  0  0  0  0  0  0  0
  142.8640  159.3220  134.0010 C   0  0  0  0  0  0  0  0  0  0  0  0
  141.4470  158.9720  134.3010 C   0  0  0  0  0  0  0  0  0  0  0  0
  141.0780  159.2930  135.5830 F   0  0  0  0  0  0  0  0  0  0  0  0
  140.5900  159.6250  133.4050 F   0  0  0  0  0  0  0  0  0  0  0  0
  141.2500  157.6310  134.1210 F   0  0  0  0  0  0  0  0  0  0  0  0
  143.8040  158.3460  133.7140 C   0  0  0  0  0  0  0  0  0  0  0  0
  145.1220  158.6290  133.4300 C   0  0  0  0  0  0  0  0  0  0  0  0
  144.3905  155.3222  134.7196 H   0  0  0  0  0  0  0  0  0  0  0  0
  145.6508  154.1929  135.5949 H   0  0  0  0  0  0  0  0  0  0  0  0
  148.4897  155.6401  134.7034 H   0  0  0  0  0  0  0  0  0  0  0  0
  147.6902  154.2055  135.3642 H   0  0  0  0  0  0  0  0  0  0  0  0
  147.6880  154.3990  131.8390 H   0  0  0  0  0  0  0  0  0  0  0  0
  148.5060  156.5640  131.9020 H   0  0  0  0  0  0  0  0  0  0  0  0
  149.8010  157.5820  131.1010 H   0  0  0  0  0  0  0  0  0  0  0  0
  147.3454  160.9971  133.1630 H   0  0  0  0  0  0  0  0  0  0  0  0
  144.8307  162.0203  133.7532 H   0  0  0  0  0  0  0  0  0  0  0  0
  142.4624  161.4226  134.2457 H   0  0  0  0  0  0  0  0  0  0  0  0
  143.4826  157.2940  133.7128 H   0  0  0  0  0  0  0  0  0  0  0  0
  1  2  2  0
  2  3  1  0
  3  4  1  0
  2  5  1  0
  5  6  2  0
  5  7  1  0
  7  8  1  0
  8  9  1  0
  9 10  1  0
  9 11  2  0
  8 12  2  0
 12 13  1  0
 13 14  2  0
 14 15  1  0
 15 16  2  0
 16 17  1  0
 17 18  1  0
 17 19  1  0
 17 20  1  0
 16 21  1  0
 21 22  2  0
 22  7  1  0
 22 13  1  0
  1 23  1  0
  1 24  1  0
  3 25  1  0
  3 26  1  0
  4 27  1  0
 10 28  1  0
 10 29  1  0
 12 30  1  0
 14 31  1  0
 15 32  1  0
 21 33  1  0
M  END
>  <smiles>  (78) 
C=C(CS)C(=O)n1c(C(N)=O)cc2ccc(C(F)(F)F)cc21

>  <score_type>  (78) 
oracle

>  <origin>  (78) 
adg

>  <m_score__min__energy>  (78) 
-7.0499999999999998

>  <m_primary>  (78) 
energy

$$$$
81:0
     RDKit          3D

 39 40  0  0  0  0  0  0  0  0999 V2000
  147.6590  152.3380  132.5230 N   0  0  0  0  0  0  0  0  0  0  0  0
  148.6710  153.3750  132.5150 C   0  0  0  0  0  0  0  0  0  0  0  0
  149.8400  152.9530  132.4130 O   0  0  0  0  0  0  0  0  0  0  0  0
  148.2700  154.7620  132.6200 C   0  0  0  0  0  0  0  0  0  0  0  0
  149.2010  155.8070  132.6090 C   0  0  0  0  0  0  0  0  0  0  0  0
  148.5400  157.0050  132.7230 C   0  0  0  0  0  0  0  0  0  0  0  0
  149.0240  158.2810  132.7570 C   0  0  0  0  0  0  0  0  0  0  0  0
  148.1080  159.3080  132.8800 C   0  0  0  0  0  0  0  0  0  0  0  0
  146.7600  159.0760  132.9650 C   0  0  0  0  0  0  0  0  0  0  0  0
  145.8040  160.1060  133.1080 N   0  0  0  0  0  0  0  0  0  0  0  0
  144.4150  159.9220  133.4340 C   0  0  0  0  0  0  0  0  0  0  0  0
  143.7130  161.1540  133.8950 C   0  0  0  0  0  0  0  0  0  0  0  0
  144.5890  162.2650  133.8070 O   0  0  0  0  0  0  0  0  0  0  0  0
  146.3250  157.7490  132.9240 C   0  0  0  0  0  0  0  0  0  0  0  0
  147.1920  156.6870  132.8030 C   0  0  0  0  0  0  0  0  0  0  0  0
  147.0620  155.3300  132.7380 N   0  0  0  0  0  0  0  0  0  0  0  0
  145.8110  154.6650  132.7920 C   0  0  0  0  0  0  0  0  0  0  0  0
  144.9640  154.9860  131.9120 O   0  0  0  0  0  0  0  0  0  0  0  0
  145.4350  153.7180  133.6990 O   0  0  0  0  0  0  0  0  0  0  0  0
  144.4310  152.7790  133.6660 C   0  0  0  0  0  0  0  0  0  0  0  0
  144.4840  151.7340  132.6110 C   0  0  0  0  0  0  0  0  0  0  0  0
  145.4560  151.9510  131.6730 O   0  0  0  0  0  0  0  0  0  0  0  0
  147.6580  151.7300  131.6680 H   0  0  0  0  0  0  0  0  0  0  0  0
  147.0110  152.2350  133.3170 H   0  0  0  0  0  0  0  0  0  0  0  0
  150.2911  155.6873  132.5226 H   0  0  0  0  0  0  0  0  0  0  0  0
  150.1030  158.4839  132.6890 H   0  0  0  0  0  0  0  0  0  0  0  0
  148.4725  160.3454  132.9107 H   0  0  0  0  0  0  0  0  0  0  0  0
  146.1080  161.1150  132.9690 H   0  0  0  0  0  0  0  0  0  0  0  0
  143.8992  159.5496  132.5366 H   0  0  0  0  0  0  0  0  0  0  0  0
  144.3853  159.2149  134.2761 H   0  0  0  0  0  0  0  0  0  0  0  0
  142.8322  161.3319  133.2606 H   0  0  0  0  0  0  0  0  0  0  0  0
  143.3955  161.0226  134.9400 H   0  0  0  0  0  0  0  0  0  0  0  0
  145.1200  162.2160  132.9950 H   0  0  0  0  0  0  0  0  0  0  0  0
  145.2462  157.5448  132.9911 H   0  0  0  0  0  0  0  0  0  0  0  0
  144.4346  152.2628  134.6374 H   0  0  0  0  0  0  0  0  0  0  0  0
  143.5241  153.3565  133.4336 H   0  0  0  0  0  0  0  0  0  0  0  0
  144.6756  150.7636  133.0922 H   0  0  0  0  0  0  0  0  0  0  0  0
  143.5179  151.7571  132.0855 H   0  0  0  0  0  0  0  0  0  0  0  0
  145.7020  152.9110  131.6020 H   0  0  0  0  0  0  0  0  0  0  0  0
  1  2  1  0
  2  3  2  0
  2  4  1  0
  4  5  2  0
  5  6  1  0
  6  7  2  0
  7  8  1  0
  8  9  2  0
  9 10  1  0
 10 11  1  0
 11 12  1  0
 12 13  1  0
  9 14  1  0
 14 15  2  0
 15 16  1  0
 16 17  1  0
 17 18  2  0
 17 19  1  0
 19 20  1  0
 20 21  1  0
 21 22  1  0
 16  4  1  0
 15  6  1  0
  1 23  1  0
  1 24  1  0
  5 25  1  0
  7 26  1  0
  8 27  1  0
 10 28  1  0
 11 29  1  0
 11 30  1  0
 12 31  1  0
 12 32  1  0
 13 33  1  0
 14 34  1  0
 20 35  1  0
 20 36  1  0
 21 37  1  0
 21 38  1  0
 22 39  1  0
M  END
>  <smiles>  (79) 
NC(=O)c1cc2ccc(NCCO)cc2n1C(=O)OCCO

>  <score_type>  (79) 
oracle

>  <origin>  (79) 
adg

>  <m_score__min__energy>  (79) 
-5.6900000000000004

>  <m_primary>  (79) 
energy

$$$$
82:0
     RDKit          3D

 45 46  0  0  0  0  0  0  0  0999 V2000
  147.7500  155.5550  135.2440 C   0  0  0  0  0  0  0  0  0  0  0  0
  147.4740  155.6790  133.8370 N   0  0  0  0  0  0  0  0  0  0  0  0
  148.2570  154.7310  133.0250 C   0  0  0  0  0  0  0  0  0  0  0  0
  149.4140  155.0360  132.6340 O   0  0  0  0  0  0  0  0  0  0  0  0
  147.7660  153.5100  132.6710 O   0  0  0  0  0  0  0  0  0  0  0  0
  148.5340  152.3210  132.6300 C   0  0  0  0  0  0  0  0  0  0  0  0
  147.6550  151.1540  132.2320 C   0  0  0  0  0  0  0  0  0  0  0  0
  149.5640  152.5460  131.5160 C   0  0  0  0  0  0  0  0  0  0  0  0
  149.2160  152.0250  133.9240 C   0  0  0  0  0  0  0  0  0  0  0  0
  146.6380  156.5170  133.1340 C   0  0  0  0  0  0  0  0  0  0  0  0
  145.9210  155.8590  132.2310 O   0  0  0  0  0  0  0  0  0  0  0  0
  146.3330  157.8810  133.1230 N   0  0  0  0  0  0  0  0  0  0  0  0
  147.2870  158.8360  132.8920 C   0  0  0  0  0  0  0  0  0  0  0  0
  148.6630  158.7490  132.4530 C   0  0  0  0  0  0  0  0  0  0  0  0
  149.3060  157.4460  132.3330 N   0  0  0  0  0  0  0  0  0  0  0  0
  149.4210  159.6960  132.1430 O   0  0  0  0  0  0  0  0  0  0  0  0
  146.6900  160.0970  133.0770 C   0  0  0  0  0  0  0  0  0  0  0  0
  145.3930  159.9150  133.4150 C   0  0  0  0  0  0  0  0  0  0  0  0
  144.4170  160.8370  133.7210 C   0  0  0  0  0  0  0  0  0  0  0  0
  143.1550  160.4310  134.0800 C   0  0  0  0  0  0  0  0  0  0  0  0
  142.9150  159.0810  134.1210 C   0  0  0  0  0  0  0  0  0  0  0  0
  141.5700  158.5920  134.5050 C   0  0  0  0  0  0  0  0  0  0  0  0
  140.9180  159.5820  135.1850 F   0  0  0  0  0  0  0  0  0  0  0  0
  143.9140  158.1650  133.8080 C   0  0  0  0  0  0  0  0  0  0  0  0
  145.1860  158.5430  133.4420 C   0  0  0  0  0  0  0  0  0  0  0  0
  146.8955  155.9389  135.8205 H   0  0  0  0  0  0  0  0  0  0  0  0
  147.9147  154.4964  135.4935 H   0  0  0  0  0  0  0  0  0  0  0  0
  148.6508  156.1349  135.4935 H   0  0  0  0  0  0  0  0  0  0  0  0
  147.2782  150.6537  133.1362 H   0  0  0  0  0  0  0  0  0  0  0  0
  146.8067  151.5207  131.6353 H   0  0  0  0  0  0  0  0  0  0  0  0
  148.2416  150.4399  131.6353 H   0  0  0  0  0  0  0  0  0  0  0  0
  150.5461  152.7606  131.9626 H   0  0  0  0  0  0  0  0  0  0  0  0
  149.6340  151.6420  130.8933 H   0  0  0  0  0  0  0  0  0  0  0  0
  149.2506  153.3969  130.8933 H   0  0  0  0  0  0  0  0  0  0  0  0
  148.5587  152.3103  134.7586 H   0  0  0  0  0  0  0  0  0  0  0  0
  149.4384  150.9494  133.9836 H   0  0  0  0  0  0  0  0  0  0  0  0
  150.1536  152.5971  133.9836 H   0  0  0  0  0  0  0  0  0  0  0  0
  149.1350  156.8670  131.4690 H   0  0  0  0  0  0  0  0  0  0  0  0
  149.9280  157.1130  133.1180 H   0  0  0  0  0  0  0  0  0  0  0  0
  147.1940  161.0684  132.9654 H   0  0  0  0  0  0  0  0  0  0  0  0
  144.6508  161.9110  133.6774 H   0  0  0  0  0  0  0  0  0  0  0  0
  142.3680  161.1594  134.3249 H   0  0  0  0  0  0  0  0  0  0  0  0
  141.0010  158.3278  133.6014 H   0  0  0  0  0  0  0  0  0  0  0  0
  141.6649  157.7009  135.1430 H   0  0  0  0  0  0  0  0  0  0  0  0
  143.6772  157.0918  133.8550 H   0  0  0  0  0  0  0  0  0  0  0  0
  1  2  1  0
  2  3  1  0
  3  4  2  0
  3  5  1  0
  5  6  1  0
  6  7  1  0
  6  8  1  0
  6  9  1  0
  2 10  1  0
 10 11  2  0
 10 12  1  0
 12 13  1  0
 13 14  1  0
 14 15  1  0
 14 16  2  0
 13 17  2  0
 17 18  1  0
 18 19  2  0
 19 20  1  0
 20 21  2  0
 21 22  1  0
 22 23  1  0
 21 24  1  0
 24 25  2  0
 25 12  1  0
 25 18  1  0
  1 26  1  0
  1 27  1  0
  1 28  1  0
  7 29  1  0
  7 30  1  0
  7 31  1  0
  8 32  1  0
  8 33  1  0
  8 34  1  0
  9 35  1  0
  9 36  1  0
  9 37  1  0
 15 38  1  0
 15 39  1  0
 17 40  1  0
 19 41  1  0
 20 42  1  0
 22 43  1  0
 22 44  1  0
 24 45  1  0
M  END
>  <smiles>  (80) 
CN(C(=O)OC(C)(C)C)C(=O)n1c(C(N)=O)cc2ccc(CF)cc21

>  <score_type>  (80) 
oracle

>  <origin>  (80) 
adg

>  <m_score__min__energy>  (80) 
-7.4900000000000002

>  <m_primary>  (80) 
energy

$$$$
83:0
     RDKit          3D

 41 42  0  0  0  0  0  0  0  0999 V2000
  148.9110  153.8030  132.5820 C   0  0  0  0  0  0  0  0  0  0  0  0
  148.4710  154.9210  132.7390 C   0  0  0  0  0  0  0  0  0  0  0  0
  147.9670  156.2520  132.9100 C   0  0  0  0  0  0  0  0  0  0  0  0
  148.8880  157.2740  132.9310 C   0  0  0  0  0  0  0  0  0  0  0  0
  148.4460  158.5630  133.0930 C   0  0  0  0  0  0  0  0  0  0  0  0
  147.0960  158.8190  133.2320 C   0  0  0  0  0  0  0  0  0  0  0  0
  146.4060  159.9740  133.4030 C   0  0  0  0  0  0  0  0  0  0  0  0
  145.0450  159.7070  133.4920 C   0  0  0  0  0  0  0  0  0  0  0  0
  144.0540  160.7460  133.6770 C   0  0  0  0  0  0  0  0  0  0  0  0
  142.6730  160.4660  133.3560 N   0  0  0  0  0  0  0  0  0  0  0  0
  144.2660  161.9030  134.0980 O   0  0  0  0  0  0  0  0  0  0  0  0
  144.9130  158.3760  133.3750 N   0  0  0  0  0  0  0  0  0  0  0  0
  143.7110  157.6320  133.4050 C   0  0  0  0  0  0  0  0  0  0  0  0
  142.6720  157.9030  132.7590 O   0  0  0  0  0  0  0  0  0  0  0  0
  143.6130  156.4800  134.2100 O   0  0  0  0  0  0  0  0  0  0  0  0
  142.3910  156.1360  134.8000 C   0  0  0  0  0  0  0  0  0  0  0  0
  141.7600  155.1140  134.4160 O   0  0  0  0  0  0  0  0  0  0  0  0
  141.8390  156.9020  135.8190 O   0  0  0  0  0  0  0  0  0  0  0  0
  140.8620  157.8740  135.5430 C   0  0  0  0  0  0  0  0  0  0  0  0
  141.2810  159.0460  135.3590 O   0  0  0  0  0  0  0  0  0  0  0  0
  139.5210  157.5200  135.4840 O   0  0  0  0  0  0  0  0  0  0  0  0
  138.7580  157.9260  134.3560 C   0  0  0  0  0  0  0  0  0  0  0  0
  139.3450  157.4300  133.0700 C   0  0  0  0  0  0  0  0  0  0  0  0
  139.6920  158.6280  132.1840 C   0  0  0  0  0  0  0  0  0  0  0  0
  140.3940  159.5920  132.9060 O   0  0  0  0  0  0  0  0  0  0  0  0
  146.1400  157.8100  133.2160 C   0  0  0  0  0  0  0  0  0  0  0  0
  146.6170  156.5290  133.0510 C   0  0  0  0  0  0  0  0  0  0  0  0
  149.3104  152.7880  132.4395 H   0  0  0  0  0  0  0  0  0  0  0  0
  149.9615  157.0612  132.8197 H   0  0  0  0  0  0  0  0  0  0  0  0
  149.1676  159.3931  133.1122 H   0  0  0  0  0  0  0  0  0  0  0  0
  146.8574  160.9753  133.4625 H   0  0  0  0  0  0  0  0  0  0  0  0
  142.3810  160.0840  132.4380 H   0  0  0  0  0  0  0  0  0  0  0  0
  141.9930  160.6790  134.1240 H   0  0  0  0  0  0  0  0  0  0  0  0
  137.7373  157.5284  134.4566 H   0  0  0  0  0  0  0  0  0  0  0  0
  138.7570  159.0256  134.3259 H   0  0  0  0  0  0  0  0  0  0  0  0
  140.2563  156.8508  133.2801 H   0  0  0  0  0  0  0  0  0  0  0  0
  138.6176  156.7857  132.5544 H   0  0  0  0  0  0  0  0  0  0  0  0
  140.3118  158.2861  131.3420 H   0  0  0  0  0  0  0  0  0  0  0  0
  138.7574  159.0756  131.8152 H   0  0  0  0  0  0  0  0  0  0  0  0
  141.0840  159.2120  133.5080 H   0  0  0  0  0  0  0  0  0  0  0  0
  145.9000  155.6951  133.0304 H   0  0  0  0  0  0  0  0  0  0  0  0
  1  2  3  0
  2  3  1  0
  3  4  2  0
  4  5  1  0
  5  6  2  0
  6  7  1  0
  7  8  2  0
  8  9  1  0
  9 10  1  0
  9 11  2  0
  8 12  1  0
 12 13  1  0
 13 14  2  0
 13 15  1  0
 15 16  1  0
 16 17  2  0
 16 18  1  0
 18 19  1  0
 19 20  2  0
 19 21  1  0
 21 22  1  0
 22 23  1  0
 23 24  1  0
 24 25  1  0
 12 26  1  0
 26 27  2  0
 27  3  1  0
 26  6  1  0
  1 28  1  0
  4 29  1  0
  5 30  1  0
  7 31  1  0
 10 32  1  0
 10 33  1  0
 22 34  1  0
 22 35  1  0
 23 36  1  0
 23 37  1  0
 24 38  1  0
 24 39  1  0
 25 40  1  0
 27 41  1  0
M  END
>  <smiles>  (81) 
C#Cc1ccc2cc(C(N)=O)n(C(=O)OC(=O)OC(=O)OCCCO)c2c1

>  <score_type>  (81) 
oracle

>  <origin>  (81) 
adg

>  <m_score__min__energy>  (81) 
-6.7199999999999998

>  <m_primary>  (81) 
energy

$$$$
85:0
     RDKit          3D

 50 52  0  0  0  0  0  0  0  0999 V2000
  150.3530  151.1100  131.9830 C   0  0  0  0  0  0  0  0  0  0  0  0
  149.7420  151.9230  133.0390 N   0  0  0  0  0  0  0  0  0  0  0  0
  149.6030  151.3960  134.3760 C   0  0  0  0  0  0  0  0  0  0  0  0
  149.3090  153.2260  132.6710 C   0  0  0  0  0  0  0  0  0  0  0  0
  149.4620  153.6160  131.4890 O   0  0  0  0  0  0  0  0  0  0  0  0
  148.7300  154.0030  133.6710 O   0  0  0  0  0  0  0  0  0  0  0  0
  147.3370  154.1000  133.8030 C   0  0  0  0  0  0  0  0  0  0  0  0
  146.8120  154.9530  132.7720 O   0  0  0  0  0  0  0  0  0  0  0  0
  145.8210  155.8600  133.0160 C   0  0  0  0  0  0  0  0  0  0  0  0
  144.6680  155.3390  133.2460 O   0  0  0  0  0  0  0  0  0  0  0  0
  145.9330  157.2660  133.0430 N   0  0  0  0  0  0  0  0  0  0  0  0
  147.0180  158.0270  132.7340 C   0  0  0  0  0  0  0  0  0  0  0  0
  148.3190  157.6660  132.2640 C   0  0  0  0  0  0  0  0  0  0  0  0
  149.0800  156.5320  132.6080 N   0  0  0  0  0  0  0  0  0  0  0  0
  148.8880  158.4460  131.4270 O   0  0  0  0  0  0  0  0  0  0  0  0
  146.6300  159.3580  132.9430 C   0  0  0  0  0  0  0  0  0  0  0  0
  145.3310  159.4030  133.3680 C   0  0  0  0  0  0  0  0  0  0  0  0
  144.5100  160.4600  133.7000 C   0  0  0  0  0  0  0  0  0  0  0  0
  143.2110  160.2190  134.1080 C   0  0  0  0  0  0  0  0  0  0  0  0
  142.7610  158.9380  134.1770 C   0  0  0  0  0  0  0  0  0  0  0  0
  141.4250  158.6710  134.5930 N   0  0  0  0  0  0  0  0  0  0  0  0
  141.1910  158.1600  135.9250 C   0  0  0  0  0  0  0  0  0  0  0  0
  139.7750  158.1620  136.3680 C   0  0  0  0  0  0  0  0  0  0  0  0
  138.8170  158.2470  135.3900 O   0  0  0  0  0  0  0  0  0  0  0  0
  139.2290  157.8800  134.1400 C   0  0  0  0  0  0  0  0  0  0  0  0
  140.2980  158.8950  133.7090 C   0  0  0  0  0  0  0  0  0  0  0  0
  143.6080  157.8880  133.8370 C   0  0  0  0  0  0  0  0  0  0  0  0
  144.9120  158.0930  133.4250 C   0  0  0  0  0  0  0  0  0  0  0  0
  150.9546  150.3095  132.4383 H   0  0  0  0  0  0  0  0  0  0  0  0
  149.5634  150.6657  131.3592 H   0  0  0  0  0  0  0  0  0  0  0  0
  150.9994  151.7448  131.3592 H   0  0  0  0  0  0  0  0  0  0  0  0
  149.8126  152.1908  135.1070 H   0  0  0  0  0  0  0  0  0  0  0  0
  148.5768  151.0269  134.5198 H   0  0  0  0  0  0  0  0  0  0  0  0
  150.3137  150.5688  134.5198 H   0  0  0  0  0  0  0  0  0  0  0  0
  146.8903  153.0989  133.7123 H   0  0  0  0  0  0  0  0  0  0  0  0
  147.0926  154.5251  134.7877 H   0  0  0  0  0  0  0  0  0  0  0  0
  148.8820  155.6160  132.1210 H   0  0  0  0  0  0  0  0  0  0  0  0
  149.8210  156.6530  133.3290 H   0  0  0  0  0  0  0  0  0  0  0  0
  147.2747  160.2357  132.7881 H   0  0  0  0  0  0  0  0  0  0  0  0
  144.8872  161.4916  133.6404 H   0  0  0  0  0  0  0  0  0  0  0  0
  142.5482  161.0556  134.3741 H   0  0  0  0  0  0  0  0  0  0  0  0
  141.5559  157.1228  135.9595 H   0  0  0  0  0  0  0  0  0  0  0  0
  141.7230  158.8389  136.6077 H   0  0  0  0  0  0  0  0  0  0  0  0
  139.5999  157.2292  136.9240 H   0  0  0  0  0  0  0  0  0  0  0  0
  139.6619  159.0824  136.9596 H   0  0  0  0  0  0  0  0  0  0  0  0
  139.6568  156.8669  134.1646 H   0  0  0  0  0  0  0  0  0  0  0  0
  138.3859  157.8709  133.4335 H   0  0  0  0  0  0  0  0  0  0  0  0
  140.5906  158.7239  132.6625 H   0  0  0  0  0  0  0  0  0  0  0  0
  139.9282  159.9289  133.7739 H   0  0  0  0  0  0  0  0  0  0  0  0
  143.2268  156.8580  133.8981 H   0  0  0  0  0  0  0  0  0  0  0  0
  1  2  1  0
  2  3  1  0
  2  4  1  0
  4  5  2  0
  4  6  1  0
  6  7  1  0
  7  8  1  0
  8  9  1  0
  9 10  2  0
  9 11  1  0
 11 12  1  0
 12 13  1  0
 13 14  1  0
 13 15  2  0
 12 16  2  0
 16 17  1  0
 17 18  2  0
 18 19  1  0
 19 20  2  0
 20 21  1  0
 21 22  1  0
 22 23  1  0
 23 24  1  0
 24 25  1  0
 25 26  1  0
 20 27  1  0
 27 28  2  0
 28 11  1  0
 28 17  1  0
 26 21  1  0
  1 29  1  0
  1 30  1  0
  1 31  1  0
  3 32  1  0
  3 33  1  0
  3 34  1  0
  7 35  1  0
  7 36  1  0
 14 37  1  0
 14 38  1  0
 16 39  1  0
 18 40  1  0
 19 41  1  0
 22 42  1  0
 22 43  1  0
 23 44  1  0
 23 45  1  0
 25 46  1  0
 25 47  1  0
 26 48  1  0
 26 49  1  0
 27 50  1  0
M  END
>  <smiles>  (82) 
CN(C)C(=O)OCOC(=O)n1c(C(N)=O)cc2ccc(N3CCOCC3)cc21

>  <score_type>  (82) 
oracle

>  <origin>  (82) 
adg

>  <m_score__min__energy>  (82) 
-8.3800000000000008

>  <m_primary>  (82) 
energy

$$$$
86:0
     RDKit          3D

 31 32  0  0  0  0  0  0  0  0999 V2000
  145.9170  158.1540  133.6110 N   0  0  0  0  0  0  0  0  0  0  0  0
  145.2160  156.9030  133.4100 C   0  0  0  0  0  0  0  0  0  0  0  0
  143.9660  157.0030  133.4650 O   0  0  0  0  0  0  0  0  0  0  0  0
  145.9670  155.7060  133.1730 C   0  0  0  0  0  0  0  0  0  0  0  0
  145.3620  154.4870  132.8400 C   0  0  0  0  0  0  0  0  0  0  0  0
  146.3170  153.5190  132.6710 C   0  0  0  0  0  0  0  0  0  0  0  0
  146.2210  152.1840  132.3440 C   0  0  0  0  0  0  0  0  0  0  0  0
  147.3520  151.4080  132.2320 C   0  0  0  0  0  0  0  0  0  0  0  0
  148.5730  152.0080  132.4560 C   0  0  0  0  0  0  0  0  0  0  0  0
  149.7870  151.2360  132.3520 N   0  0  0  0  0  0  0  0  0  0  0  0
  150.3940  150.7540  133.4550 F   0  0  0  0  0  0  0  0  0  0  0  0
  150.3110  151.0020  131.1530 F   0  0  0  0  0  0  0  0  0  0  0  0
  148.6530  153.3640  132.7880 C   0  0  0  0  0  0  0  0  0  0  0  0
  147.5270  154.1550  132.9030 C   0  0  0  0  0  0  0  0  0  0  0  0
  147.2870  155.4560  133.1990 N   0  0  0  0  0  0  0  0  0  0  0  0
  148.3120  156.3830  133.4890 C   0  0  0  0  0  0  0  0  0  0  0  0
  148.4400  156.7460  134.7100 O   0  0  0  0  0  0  0  0  0  0  0  0
  149.1890  156.9390  132.6070 O   0  0  0  0  0  0  0  0  0  0  0  0
  148.8770  158.1650  131.9720 C   0  0  0  0  0  0  0  0  0  0  0  0
  148.3280  159.1540  132.9360 C   0  0  0  0  0  0  0  0  0  0  0  0
  147.4180  159.9820  132.6210 O   0  0  0  0  0  0  0  0  0  0  0  0
  148.8560  159.1410  134.2190 O   0  0  0  0  0  0  0  0  0  0  0  0
  145.5080  159.0660  133.3220 H   0  0  0  0  0  0  0  0  0  0  0  0
  146.8750  158.1150  134.0690 H   0  0  0  0  0  0  0  0  0  0  0  0
  144.2788  154.3300  132.7303 H   0  0  0  0  0  0  0  0  0  0  0  0
  145.2320  151.7347  132.1710 H   0  0  0  0  0  0  0  0  0  0  0  0
  147.2840  150.3414  131.9717 H   0  0  0  0  0  0  0  0  0  0  0  0
  149.6416  153.8136  132.9626 H   0  0  0  0  0  0  0  0  0  0  0  0
  149.7917  158.5763  131.5200 H   0  0  0  0  0  0  0  0  0  0  0  0
  148.1135  157.9712  131.2042 H   0  0  0  0  0  0  0  0  0  0  0  0
  149.3790  158.3310  134.5640 H   0  0  0  0  0  0  0  0  0  0  0  0
  1  2  1  0
  2  3  2  0
  2  4  1  0
  4  5  2  0
  5  6  1  0
  6  7  2  0
  7  8  1  0
  8  9  2  0
  9 10  1  0
 10 11  1  0
 10 12  1  0
  9 13  1  0
 13 14  2  0
 14 15  1  0
 15 16  1  0
 16 17  2  0
 16 18  1  0
 18 19  1  0
 19 20  1  0
 20 21  2  0
 20 22  1  0
 15  4  1  0
 14  6  1  0
  1 23  1  0
  1 24  1  0
  5 25  1  0
  7 26  1  0
  8 27  1  0
 13 28  1  0
 19 29  1  0
 19 30  1  0
 22 31  1  0
M  END
>  <smiles>  (83) 
NC(=O)c1cc2ccc(N(F)F)cc2n1C(=O)OCC(=O)O

>  <score_type>  (83) 
oracle

>  <origin>  (83) 
adg

>  <m_score__min__energy>  (83) 
-6.25

>  <m_primary>  (83) 
energy

$$$$
87:0
     RDKit          3D

 37 38  0  0  0  0  0  0  0  0999 V2000
  145.4350  154.5830  132.2440 C   0  0  0  0  0  0  0  0  0  0  0  0
  146.4620  155.6400  132.5400 C   0  0  1  0  0  0  0  0  0  0  0  0
  146.0810  156.6270  133.5380 C   0  0  0  0  0  0  0  0  0  0  0  0
  145.6200  156.1100  134.6310 O   0  0  0  0  0  0  0  0  0  0  0  0
  146.1260  158.0300  133.5050 N   0  0  0  0  0  0  0  0  0  0  0  0
  147.1320  158.8800  133.1840 C   0  0  0  0  0  0  0  0  0  0  0  0
  148.5290  158.6540  132.9280 C   0  0  0  0  0  0  0  0  0  0  0  0
  148.9790  157.2880  132.7510 N   0  0  0  0  0  0  0  0  0  0  0  0
  149.4480  159.4910  132.8350 O   0  0  0  0  0  0  0  0  0  0  0  0
  146.6250  160.1980  133.2150 C   0  0  0  0  0  0  0  0  0  0  0  0
  145.3090  160.1320  133.5590 C   0  0  0  0  0  0  0  0  0  0  0  0
  144.3890  161.1450  133.7190 C   0  0  0  0  0  0  0  0  0  0  0  0
  143.1070  160.8540  134.0700 C   0  0  0  0  0  0  0  0  0  0  0  0
  142.7640  159.5450  134.2570 C   0  0  0  0  0  0  0  0  0  0  0  0
  141.3540  159.2130  134.6450 C   0  0  0  0  0  0  0  0  0  0  0  0
  141.0520  159.7180  135.8760 F   0  0  0  0  0  0  0  0  0  0  0  0
  141.2350  157.8310  134.6240 F   0  0  0  0  0  0  0  0  0  0  0  0
  140.5250  159.7460  133.6630 F   0  0  0  0  0  0  0  0  0  0  0  0
  143.7030  158.5240  134.0930 C   0  0  0  0  0  0  0  0  0  0  0  0
  145.0190  158.8030  133.7330 C   0  0  0  0  0  0  0  0  0  0  0  0
  147.8820  154.6550  133.1590 S   0  0  0  0  0  0  0  0  0  0  0  0
  147.3120  152.9720  133.1640 C   0  0  0  0  0  0  0  0  0  0  0  0
  148.1110  155.0890  134.5790 O   0  0  0  0  0  0  0  0  0  0  0  0
  149.0600  154.8730  132.2920 O   0  0  0  0  0  0  0  0  0  0  0  0
  145.0422  154.1787  133.1886 H   0  0  0  0  0  0  0  0  0  0  0  0
  144.6115  155.0243  131.6634 H   0  0  0  0  0  0  0  0  0  0  0  0
  145.8998  153.7725  131.6634 H   0  0  0  0  0  0  0  0  0  0  0  0
  146.6483  156.2490  131.6431 H   0  0  0  0  0  0  0  0  0  0  0  0
  149.2370  156.6860  133.5550 H   0  0  0  0  0  0  0  0  0  0  0  0
  149.0160  156.9810  131.7500 H   0  0  0  0  0  0  0  0  0  0  0  0
  147.1926  161.1152  132.9994 H   0  0  0  0  0  0  0  0  0  0  0  0
  144.6914  162.1910  133.5627 H   0  0  0  0  0  0  0  0  0  0  0  0
  142.3638  161.6545  134.2002 H   0  0  0  0  0  0  0  0  0  0  0  0
  143.3970  157.4793  134.2513 H   0  0  0  0  0  0  0  0  0  0  0  0
  147.1953  152.6275  134.2021 H   0  0  0  0  0  0  0  0  0  0  0  0
  146.3432  152.9114  132.6465 H   0  0  0  0  0  0  0  0  0  0  0  0
  148.0446  152.3352  132.6465 H   0  0  0  0  0  0  0  0  0  0  0  0
  1  2  1  0
  2  3  1  0
  3  4  2  0
  3  5  1  0
  5  6  1  0
  6  7  1  0
  7  8  1  0
  7  9  2  0
  6 10  2  0
 10 11  1  0
 11 12  2  0
 12 13  1  0
 13 14  2  0
 14 15  1  0
 15 16  1  0
 15 17  1  0
 15 18  1  0
 14 19  1  0
 19 20  2  0
  2 21  1  0
 21 22  1  0
 21 23  2  0
 21 24  2  0
 20  5  1  0
 20 11  1  0
  1 25  1  0
  1 26  1  0
  1 27  1  0
  2 28  1  6
  8 29  1  0
  8 30  1  0
 10 31  1  0
 12 32  1  0
 13 33  1  0
 19 34  1  0
 22 35  1  0
 22 36  1  0
 22 37  1  0
M  END
>  <smiles>  (84) 
C[C@@H](C(=O)n1c(C(N)=O)cc2ccc(C(F)(F)F)cc21)S(C)(=O)=O

>  <score_type>  (84) 
oracle

>  <origin>  (84) 
adg

>  <m_score__min__energy>  (84) 
-6.8200000000000003

>  <m_primary>  (84) 
energy

$$$$
88:0
     RDKit          3D

 42 43  0  0  0  0  0  0  0  0999 V2000
  146.8300  155.7980  135.0430 C   0  0  0  0  0  0  0  0  0  0  0  0
  147.0850  155.7610  133.7630 C   0  0  0  0  0  0  0  0  0  0  0  0
  147.5510  154.0800  133.1660 S   0  0  0  0  0  0  0  0  0  0  0  0
  147.1040  156.7880  132.7740 C   0  0  0  0  0  0  0  0  0  0  0  0
  147.3520  156.3400  131.5650 O   0  0  0  0  0  0  0  0  0  0  0  0
  146.9040  158.1750  132.8210 N   0  0  0  0  0  0  0  0  0  0  0  0
  147.7050  159.2230  132.7220 C   0  0  0  0  0  0  0  0  0  0  0  0
  149.0570  159.3300  132.1320 C   0  0  0  0  0  0  0  0  0  0  0  0
  149.8450  158.2050  131.7830 N   0  0  0  0  0  0  0  0  0  0  0  0
  149.5680  160.4630  131.9020 O   0  0  0  0  0  0  0  0  0  0  0  0
  147.0610  160.4140  133.0810 C   0  0  0  0  0  0  0  0  0  0  0  0
  145.7910  160.0560  133.4070 C   0  0  0  0  0  0  0  0  0  0  0  0
  144.7410  160.8510  133.8290 C   0  0  0  0  0  0  0  0  0  0  0  0
  143.5370  160.2890  134.1080 C   0  0  0  0  0  0  0  0  0  0  0  0
  143.3970  158.9320  133.9620 C   0  0  0  0  0  0  0  0  0  0  0  0
  142.1340  158.3410  134.2560 N   0  0  0  0  0  0  0  0  0  0  0  0
  141.0030  159.1920  134.4890 C   0  0  0  0  0  0  0  0  0  0  0  0
  140.2660  159.4420  133.2170 C   0  0  0  0  0  0  0  0  0  0  0  0
  140.3890  160.5180  132.5860 O   0  0  0  0  0  0  0  0  0  0  0  0
  139.3990  158.4260  132.7070 N   0  0  0  0  0  0  0  0  0  0  0  0
  138.6840  158.6710  131.4710 C   0  0  0  0  0  0  0  0  0  0  0  0
  139.2380  157.1720  133.4150 C   0  0  0  0  0  0  0  0  0  0  0  0
  144.4670  158.1350  133.5350 C   0  0  0  0  0  0  0  0  0  0  0  0
  145.7090  158.6990  133.2430 C   0  0  0  0  0  0  0  0  0  0  0  0
  146.5402  156.7465  135.5189 H   0  0  0  0  0  0  0  0  0  0  0  0
  146.9049  154.8807  135.6455 H   0  0  0  0  0  0  0  0  0  0  0  0
  147.7120  154.1110  131.7820 H   0  0  0  0  0  0  0  0  0  0  0  0
  149.3150  157.3500  131.4670 H   0  0  0  0  0  0  0  0  0  0  0  0
  150.8850  158.2450  131.8440 H   0  0  0  0  0  0  0  0  0  0  0  0
  147.4922  161.4258  133.0959 H   0  0  0  0  0  0  0  0  0  0  0  0
  144.8810  161.9365  133.9384 H   0  0  0  0  0  0  0  0  0  0  0  0
  142.6921  160.9082  134.4438 H   0  0  0  0  0  0  0  0  0  0  0  0
  142.0540  157.3110  134.2950 H   0  0  0  0  0  0  0  0  0  0  0  0
  140.3276  158.7072  135.2093 H   0  0  0  0  0  0  0  0  0  0  0  0
  141.3578  160.1533  134.8891 H   0  0  0  0  0  0  0  0  0  0  0  0
  137.6661  159.0198  131.6992 H   0  0  0  0  0  0  0  0  0  0  0  0
  139.2127  159.4392  130.8877 H   0  0  0  0  0  0  0  0  0  0  0  0
  138.6304  157.7400  130.8877 H   0  0  0  0  0  0  0  0  0  0  0  0
  139.2618  157.3573  134.4990 H   0  0  0  0  0  0  0  0  0  0  0  0
  138.2742  156.7178  133.1417 H   0  0  0  0  0  0  0  0  0  0  0  0
  140.0558  156.4890  133.1417 H   0  0  0  0  0  0  0  0  0  0  0  0
  144.3258  157.0493  133.4285 H   0  0  0  0  0  0  0  0  0  0  0  0
  1  2  2  0
  2  3  1  0
  2  4  1  0
  4  5  2  0
  4  6  1  0
  6  7  1  0
  7  8  1  0
  8  9  1  0
  8 10  2  0
  7 11  2  0
 11 12  1  0
 12 13  2  0
 13 14  1  0
 14 15  2  0
 15 16  1  0
 16 17  1  0
 17 18  1  0
 18 19  2  0
 18 20  1  0
 20 21  1  0
 20 22  1  0
 15 23  1  0
 23 24  2  0
 24  6  1  0
 24 12  1  0
  1 25  1  0
  1 26  1  0
  3 27  1  0
  9 28  1  0
  9 29  1  0
 11 30  1  0
 13 31  1  0
 14 32  1  0
 16 33  1  0
 17 34  1  0
 17 35  1  0
 21 36  1  0
 21 37  1  0
 21 38  1  0
 22 39  1  0
 22 40  1  0
 22 41  1  0
 23 42  1  0
M  END
>  <smiles>  (85) 
C=C(S)C(=O)n1c(C(N)=O)cc2ccc(NCC(=O)N(C)C)cc21

>  <score_type>  (85) 
oracle

>  <origin>  (85) 
adg

>  <m_score__min__energy>  (85) 
-7.7199999999999998

>  <m_primary>  (85) 
energy

$$$$
89:0
     RDKit          3D

 46 47  0  0  0  0  0  0  0  0999 V2000
  138.3660  160.4660  129.7130 C   0  0  0  0  0  0  0  0  0  0  0  0
  137.4040  160.0880  130.7890 C   0  0  0  0  0  0  0  0  0  0  0  0
  137.9660  159.3740  131.8630 O   0  0  0  0  0  0  0  0  0  0  0  0
  139.3130  159.5520  132.1560 C   0  0  0  0  0  0  0  0  0  0  0  0
  139.8350  160.7090  132.2370 O   0  0  0  0  0  0  0  0  0  0  0  0
  140.0630  158.4010  132.3570 O   0  0  0  0  0  0  0  0  0  0  0  0
  139.9070  157.6480  133.5470 C   0  0  0  0  0  0  0  0  0  0  0  0
  140.1770  158.4190  134.7080 O   0  0  0  0  0  0  0  0  0  0  0  0
  141.4780  158.3750  135.2880 C   0  0  0  0  0  0  0  0  0  0  0  0
  141.7210  159.3760  135.9960 O   0  0  0  0  0  0  0  0  0  0  0  0
  142.3060  157.2820  135.0220 N   0  0  0  0  0  0  0  0  0  0  0  0
  142.1590  156.1450  136.0060 C   0  0  0  0  0  0  0  0  0  0  0  0
  143.3260  157.0680  134.1040 C   0  0  0  0  0  0  0  0  0  0  0  0
  143.2040  155.8600  133.5570 O   0  0  0  0  0  0  0  0  0  0  0  0
  144.4140  157.7670  133.6290 N   0  0  0  0  0  0  0  0  0  0  0  0
  144.4540  159.1260  133.5020 C   0  0  0  0  0  0  0  0  0  0  0  0
  143.4090  160.1290  133.5870 C   0  0  0  0  0  0  0  0  0  0  0  0
  142.0650  159.9770  133.1670 N   0  0  0  0  0  0  0  0  0  0  0  0
  143.6610  161.2980  134.0800 O   0  0  0  0  0  0  0  0  0  0  0  0
  145.7620  159.5060  133.1670 C   0  0  0  0  0  0  0  0  0  0  0  0
  146.5200  158.3820  133.0920 C   0  0  0  0  0  0  0  0  0  0  0  0
  147.8640  158.2350  132.8360 C   0  0  0  0  0  0  0  0  0  0  0  0
  148.4590  156.9980  132.8570 C   0  0  0  0  0  0  0  0  0  0  0  0
  147.6540  155.9170  133.1450 C   0  0  0  0  0  0  0  0  0  0  0  0
  148.2910  154.5680  133.1720 C   0  0  0  0  0  0  0  0  0  0  0  0
  147.4870  153.6220  132.5720 F   0  0  0  0  0  0  0  0  0  0  0  0
  148.4680  154.2250  134.5170 F   0  0  0  0  0  0  0  0  0  0  0  0
  149.5370  154.6570  132.6100 F   0  0  0  0  0  0  0  0  0  0  0  0
  146.3070  156.0860  133.3980 C   0  0  0  0  0  0  0  0  0  0  0  0
  145.6790  157.3140  133.3800 C   0  0  0  0  0  0  0  0  0  0  0  0
  139.2985  160.8324  130.1670 H   0  0  0  0  0  0  0  0  0  0  0  0
  138.5828  159.5862  129.0893 H   0  0  0  0  0  0  0  0  0  0  0  0
  137.9259  161.2581  129.0893 H   0  0  0  0  0  0  0  0  0  0  0  0
  136.9584  161.0110  131.1884 H   0  0  0  0  0  0  0  0  0  0  0  0
  136.6690  159.4154  130.3228 H   0  0  0  0  0  0  0  0  0  0  0  0
  138.8722  157.2787  133.5996 H   0  0  0  0  0  0  0  0  0  0  0  0
  140.6272  156.8171  133.5180 H   0  0  0  0  0  0  0  0  0  0  0  0
  142.2099  156.5389  137.0318 H   0  0  0  0  0  0  0  0  0  0  0  0
  141.1893  155.6493  135.8513 H   0  0  0  0  0  0  0  0  0  0  0  0
  142.9707  155.4190  135.8513 H   0  0  0  0  0  0  0  0  0  0  0  0
  141.2420  160.1230  133.8010 H   0  0  0  0  0  0  0  0  0  0  0  0
  141.7970  159.7070  132.1740 H   0  0  0  0  0  0  0  0  0  0  0  0
  146.1123  160.5345  132.9952 H   0  0  0  0  0  0  0  0  0  0  0  0
  148.4719  159.1237  132.6107 H   0  0  0  0  0  0  0  0  0  0  0  0
  149.5328  156.8748  132.6526 H   0  0  0  0  0  0  0  0  0  0  0  0
  145.7035  155.1950  133.6257 H   0  0  0  0  0  0  0  0  0  0  0  0
  1  2  1  0
  2  3  1  0
  3  4  1  0
  4  5  2  0
  4  6  1  0
  6  7  1  0
  7  8  1  0
  8  9  1  0
  9 10  2  0
  9 11  1  0
 11 12  1  0
 11 13  1  0
 13 14  2  0
 13 15  1  0
 15 16  1  0
 16 17  1  0
 17 18  1  0
 17 19  2  0
 16 20  2  0
 20 21  1  0
 21 22  2  0
 22 23  1  0
 23 24  2  0
 24 25  1  0
 25 26  1  0
 25 27  1  0
 25 28  1  0
 24 29  1  0
 29 30  2  0
 30 15  1  0
 30 21  1  0
  1 31  1  0
  1 32  1  0
  1 33  1  0
  2 34  1  0
  2 35  1  0
  7 36  1  0
  7 37  1  0
 12 38  1  0
 12 39  1  0
 12 40  1  0
 18 41  1  0
 18 42  1  0
 20 43  1  0
 22 44  1  0
 23 45  1  0
 29 46  1  0
M  END
>  <smiles>  (86) 
CCOC(=O)OCOC(=O)N(C)C(=O)n1c(C(N)=O)cc2ccc(C(F)(F)F)cc21

>  <score_type>  (86) 
oracle

>  <origin>  (86) 
adg

>  <m_score__min__energy>  (86) 
-5.6100000000000003

>  <m_primary>  (86) 
energy

$$$$
90:0
     RDKit          3D

 58 59  0  0  0  0  0  0  0  0999 V2000
  140.6380  159.7820  133.4300 C   0  0  0  0  0  0  0  0  0  0  0  0
  140.0480  158.5510  133.9870 N   0  0  0  0  0  0  0  0  0  0  0  0
  139.6100  157.5740  133.0480 C   0  0  0  0  0  0  0  0  0  0  0  0
  139.9760  156.1630  133.3190 C   0  0  0  0  0  0  0  0  0  0  0  0
  140.8710  156.0340  134.4290 N   0  0  0  0  0  0  0  0  0  0  0  0
  142.2890  155.9980  134.1400 C   0  0  0  0  0  0  0  0  0  0  0  0
  142.9560  154.7900  133.9920 C   0  0  0  0  0  0  0  0  0  0  0  0
  144.3060  154.7610  133.7180 C   0  0  0  0  0  0  0  0  0  0  0  0
  144.9760  155.9610  133.5940 C   0  0  0  0  0  0  0  0  0  0  0  0
  146.2990  156.2320  133.3280 C   0  0  0  0  0  0  0  0  0  0  0  0
  146.4970  157.6230  133.3030 C   0  0  0  0  0  0  0  0  0  0  0  0
  147.7990  158.1840  133.0450 C   0  0  0  0  0  0  0  0  0  0  0  0
  148.9400  157.5330  132.5450 N   0  0  0  0  0  0  0  0  0  0  0  0
  147.9620  159.4350  133.2950 O   0  0  0  0  0  0  0  0  0  0  0  0
  145.3050  158.1720  133.5520 N   0  0  0  0  0  0  0  0  0  0  0  0
  145.0060  159.5400  133.6270 C   0  0  0  0  0  0  0  0  0  0  0  0
  145.6200  160.4870  132.7430 N   0  0  0  0  0  0  0  0  0  0  0  0
  144.1980  160.0650  134.4470 O   0  0  0  0  0  0  0  0  0  0  0  0
  144.3710  157.1900  133.7310 C   0  0  0  0  0  0  0  0  0  0  0  0
  143.0180  157.1770  134.0040 C   0  0  0  0  0  0  0  0  0  0  0  0
  139.9650  158.4930  135.3920 C   0  0  0  0  0  0  0  0  0  0  0  0
  138.9520  157.9070  135.8820 O   0  0  0  0  0  0  0  0  0  0  0  0
  140.8720  159.0110  136.2880 O   0  0  0  0  0  0  0  0  0  0  0  0
  141.5840  158.0730  137.1020 C   0  0  0  0  0  0  0  0  0  0  0  0
  140.8310  156.9280  137.3570 O   0  0  0  0  0  0  0  0  0  0  0  0
  141.3460  155.7020  137.7280 C   0  0  0  0  0  0  0  0  0  0  0  0
  141.8680  154.9510  136.8590 O   0  0  0  0  0  0  0  0  0  0  0  0
  141.2570  155.3120  139.1710 C   0  0  0  0  0  0  0  0  0  0  0  0
  142.2380  154.2340  139.5150 C   0  0  0  0  0  0  0  0  0  0  0  0
  139.8630  154.7390  139.3770 C   0  0  0  0  0  0  0  0  0  0  0  0
  141.4080  156.5040  140.0890 C   0  0  0  0  0  0  0  0  0  0  0  0
  140.9541  160.4415  134.2517 H   0  0  0  0  0  0  0  0  0  0  0  0
  141.5100  159.5233  132.8114 H   0  0  0  0  0  0  0  0  0  0  0  0
  139.8901  160.2997  132.8114 H   0  0  0  0  0  0  0  0  0  0  0  0
  138.5123  157.6282  133.0015 H   0  0  0  0  0  0  0  0  0  0  0  0
  140.1291  157.8272  132.1118 H   0  0  0  0  0  0  0  0  0  0  0  0
  139.0590  155.5960  133.5371 H   0  0  0  0  0  0  0  0  0  0  0  0
  140.4893  155.7729  132.4277 H   0  0  0  0  0  0  0  0  0  0  0  0
  140.6260  155.9640  135.4240 H   0  0  0  0  0  0  0  0  0  0  0  0
  142.4011  153.8458  134.0945 H   0  0  0  0  0  0  0  0  0  0  0  0
  144.8367  153.8047  133.6010 H   0  0  0  0  0  0  0  0  0  0  0  0
  147.0807  155.4763  133.1608 H   0  0  0  0  0  0  0  0  0  0  0  0
  149.5950  157.1060  133.2430 H   0  0  0  0  0  0  0  0  0  0  0  0
  149.1190  157.4920  131.4980 H   0  0  0  0  0  0  0  0  0  0  0  0
  145.1790  160.7430  131.8240 H   0  0  0  0  0  0  0  0  0  0  0  0
  146.5320  160.9050  133.0720 H   0  0  0  0  0  0  0  0  0  0  0  0
  142.4939  158.1373  134.1189 H   0  0  0  0  0  0  0  0  0  0  0  0
  142.5089  157.7818  136.5826 H   0  0  0  0  0  0  0  0  0  0  0  0
  141.8049  158.5567  138.0650 H   0  0  0  0  0  0  0  0  0  0  0  0
  142.3179  154.1462  140.6086 H   0  0  0  0  0  0  0  0  0  0  0  0
  141.8941  153.2775  139.0945 H   0  0  0  0  0  0  0  0  0  0  0  0
  143.2226  154.4865  139.0945 H   0  0  0  0  0  0  0  0  0  0  0  0
  139.6569  154.6543  140.4542 H   0  0  0  0  0  0  0  0  0  0  0  0
  139.1206  155.4049  138.9129 H   0  0  0  0  0  0  0  0  0  0  0  0
  139.8035  153.7435  138.9129 H   0  0  0  0  0  0  0  0  0  0  0  0
  141.3655  156.1684  141.1357 H   0  0  0  0  0  0  0  0  0  0  0  0
  142.3752  156.9925  139.8996 H   0  0  0  0  0  0  0  0  0  0  0  0
  140.5932  157.2182  139.8996 H   0  0  0  0  0  0  0  0  0  0  0  0
  1  2  1  0
  2  3  1  0
  3  4  1  0
  4  5  1  0
  5  6  1  0
  6  7  2  0
  7  8  1  0
  8  9  2  0
  9 10  1  0
 10 11  2  0
 11 12  1  0
 12 13  1  0
 12 14  2  0
 11 15  1  0
 15 16  1  0
 16 17  1  0
 16 18  2  0
 15 19  1  0
 19 20  2  0
  2 21  1  0
 21 22  2  0
 21 23  1  0
 23 24  1  0
 24 25  1  0
 25 26  1  0
 26 27  2  0
 26 28  1  0
 28 29  1  0
 28 30  1  0
 28 31  1  0
 20  6  1  0
 19  9  1  0
  1 32  1  0
  1 33  1  0
  1 34  1  0
  3 35  1  0
  3 36  1  0
  4 37  1  0
  4 38  1  0
  5 39  1  0
  7 40  1  0
  8 41  1  0
 10 42  1  0
 13 43  1  0
 13 44  1  0
 17 45  1  0
 17 46  1  0
 20 47  1  0
 24 48  1  0
 24 49  1  0
 29 50  1  0
 29 51  1  0
 29 52  1  0
 30 53  1  0
 30 54  1  0
 30 55  1  0
 31 56  1  0
 31 57  1  0
 31 58  1  0
M  END
>  <smiles>  (87) 
CN(CCNc1ccc2cc(C(N)=O)n(C(N)=O)c2c1)C(=O)OCOC(=O)C(C)(C)C

>  <score_type>  (87) 
oracle

>  <origin>  (87) 
adg

>  <m_score__min__energy>  (87) 
-7.3700000000000001

>  <m_primary>  (87) 
energy

$$$$
91:0
     RDKit          3D

 35 36  0  0  0  0  0  0  0  0999 V2000
  149.1820  156.4740  132.5730 N   0  0  0  0  0  0  0  0  0  0  0  0
  148.0140  155.6350  132.7400 C   0  0  0  0  0  0  0  0  0  0  0  0
  148.2390  154.4100  132.6500 O   0  0  0  0  0  0  0  0  0  0  0  0
  146.7290  156.2490  132.9870 C   0  0  0  0  0  0  0  0  0  0  0  0
  145.5260  155.5670  132.7800 C   0  0  0  0  0  0  0  0  0  0  0  0
  144.4700  156.3820  133.0910 C   0  0  0  0  0  0  0  0  0  0  0  0
  143.1070  156.1800  133.0560 C   0  0  0  0  0  0  0  0  0  0  0  0
  142.2470  157.1810  133.4270 C   0  0  0  0  0  0  0  0  0  0  0  0
  142.7760  158.3730  133.8280 C   0  0  0  0  0  0  0  0  0  0  0  0
  141.8350  159.4500  134.2270 C   0  0  0  0  0  0  0  0  0  0  0  0
  141.6820  159.3980  135.6100 F   0  0  0  0  0  0  0  0  0  0  0  0
  142.3300  160.6860  133.9020 F   0  0  0  0  0  0  0  0  0  0  0  0
  140.6190  159.3290  133.5790 F   0  0  0  0  0  0  0  0  0  0  0  0
  144.1560  158.5720  133.8620 C   0  0  0  0  0  0  0  0  0  0  0  0
  145.0440  157.5810  133.4930 C   0  0  0  0  0  0  0  0  0  0  0  0
  146.3930  157.4670  133.4190 N   0  0  0  0  0  0  0  0  0  0  0  0
  147.2800  158.5170  133.7620 C   0  0  0  0  0  0  0  0  0  0  0  0
  148.1410  158.2640  134.6680 O   0  0  0  0  0  0  0  0  0  0  0  0
  147.3120  159.7670  133.2300 O   0  0  0  0  0  0  0  0  0  0  0  0
  147.1830  160.1120  131.8820 C   0  0  0  0  0  0  0  0  0  0  0  0
  148.3530  160.6450  131.3460 O   0  0  0  0  0  0  0  0  0  0  0  0
  149.4480  159.3900  131.1190 P   0  0  0  0  0  0  0  0  0  0  0  0
  148.7680  158.2910  130.3070 O   0  0  0  0  0  0  0  0  0  0  0  0
  150.7630  159.9640  130.2390 O   0  0  0  0  0  0  0  0  0  0  0  0
  149.9860  158.7740  132.5990 O   0  0  0  0  0  0  0  0  0  0  0  0
  149.5500  156.7320  131.6510 H   0  0  0  0  0  0  0  0  0  0  0  0
  149.6080  156.7840  133.4900 H   0  0  0  0  0  0  0  0  0  0  0  0
  145.4405  154.5308  132.4210 H   0  0  0  0  0  0  0  0  0  0  0  0
  142.7067  155.2092  132.7282 H   0  0  0  0  0  0  0  0  0  0  0  0
  141.1581  157.0271  133.4020 H   0  0  0  0  0  0  0  0  0  0  0  0
  144.5479  159.5454  134.1919 H   0  0  0  0  0  0  0  0  0  0  0  0
  146.9149  159.2098  131.3126 H   0  0  0  0  0  0  0  0  0  0  0  0
  146.4044  160.8859  131.8117 H   0  0  0  0  0  0  0  0  0  0  0  0
  151.0690  160.8430  130.6020 H   0  0  0  0  0  0  0  0  0  0  0  0
  149.3860  159.1200  133.3140 H   0  0  0  0  0  0  0  0  0  0  0  0
  1  2  1  0
  2  3  2  0
  2  4  1  0
  4  5  2  0
  5  6  1  0
  6  7  2  0
  7  8  1  0
  8  9  2  0
  9 10  1  0
 10 11  1  0
 10 12  1  0
 10 13  1  0
  9 14  1  0
 14 15  2  0
 15 16  1  0
 16 17  1  0
 17 18  2  0
 17 19  1  0
 19 20  1  0
 20 21  1  0
 21 22  1  0
 22 23  2  0
 22 24  1  0
 22 25  1  0
 16  4  1  0
 15  6  1  0
  1 26  1  0
  1 27  1  0
  5 28  1  0
  7 29  1  0
  8 30  1  0
 14 31  1  0
 20 32  1  0
 20 33  1  0
 24 34  1  0
 25 35  1  0
M  END
>  <smiles>  (88) 
NC(=O)c1cc2ccc(C(F)(F)F)cc2n1C(=O)OCOP(=O)(O)O

>  <score_type>  (88) 
oracle

>  <origin>  (88) 
adg

>  <m_score__min__energy>  (88) 
-5.9800000000000004

>  <m_primary>  (88) 
energy

$$$$
92:0
     RDKit          3D

 50 51  0  0  0  0  0  0  0  0999 V2000
  139.4880  159.6250  131.2000 C   0  0  0  0  0  0  0  0  0  0  0  0
  140.3990  158.7010  131.8440 N   0  0  0  0  0  0  0  0  0  0  0  0
  140.0140  157.8140  132.8840 C   0  0  0  0  0  0  0  0  0  0  0  0
  138.8090  157.8310  133.2710 O   0  0  0  0  0  0  0  0  0  0  0  0
  141.0370  156.9090  133.4730 C   0  0  0  0  0  0  0  0  0  0  0  0
  141.7970  157.5730  134.5060 N   0  0  0  0  0  0  0  0  0  0  0  0
  141.3880  157.3780  135.8830 C   0  0  0  0  0  0  0  0  0  0  0  0
  142.9190  158.4190  134.2310 C   0  0  0  0  0  0  0  0  0  0  0  0
  142.8550  159.7840  134.3750 C   0  0  0  0  0  0  0  0  0  0  0  0
  143.9480  160.5590  134.0970 C   0  0  0  0  0  0  0  0  0  0  0  0
  145.1110  159.9770  133.6730 C   0  0  0  0  0  0  0  0  0  0  0  0
  146.3180  160.4950  133.3340 C   0  0  0  0  0  0  0  0  0  0  0  0
  147.1960  159.4710  132.9600 C   0  0  0  0  0  0  0  0  0  0  0  0
  148.5550  159.7200  132.5480 C   0  0  0  0  0  0  0  0  0  0  0  0
  149.6030  158.8290  132.9890 N   0  0  0  0  0  0  0  0  0  0  0  0
  148.9450  160.6630  131.8210 O   0  0  0  0  0  0  0  0  0  0  0  0
  146.4950  158.3320  133.0810 N   0  0  0  0  0  0  0  0  0  0  0  0
  146.9670  157.0280  132.8060 C   0  0  0  0  0  0  0  0  0  0  0  0
  148.0670  156.7450  132.2790 O   0  0  0  0  0  0  0  0  0  0  0  0
  146.1740  155.9150  133.1320 O   0  0  0  0  0  0  0  0  0  0  0  0
  146.4800  155.0910  134.2400 C   0  0  0  0  0  0  0  0  0  0  0  0
  147.4110  155.7770  135.2180 C   0  0  0  0  0  0  0  0  0  0  0  0
  147.2470  153.9130  133.6730 C   0  0  0  0  0  0  0  0  0  0  0  0
  145.2960  154.5630  134.9710 C   0  0  0  0  0  0  0  0  0  0  0  0
  145.2340  158.6020  133.5090 C   0  0  0  0  0  0  0  0  0  0  0  0
  144.1120  157.8590  133.8000 C   0  0  0  0  0  0  0  0  0  0  0  0
  138.9337  160.1872  131.9660 H   0  0  0  0  0  0  0  0  0  0  0  0
  140.0588  160.3253  130.5725 H   0  0  0  0  0  0  0  0  0  0  0  0
  138.7797  159.0642  130.5725 H   0  0  0  0  0  0  0  0  0  0  0  0
  141.3980  158.7170  131.4930 H   0  0  0  0  0  0  0  0  0  0  0  0
  140.5324  156.0332  133.9071 H   0  0  0  0  0  0  0  0  0  0  0  0
  141.7303  156.6049  132.6750 H   0  0  0  0  0  0  0  0  0  0  0  0
  142.1738  157.7526  136.5554 H   0  0  0  0  0  0  0  0  0  0  0  0
  140.4534  157.9274  136.0692 H   0  0  0  0  0  0  0  0  0  0  0  0
  141.2264  156.3060  136.0692 H   0  0  0  0  0  0  0  0  0  0  0  0
  141.9213  160.2557  134.7151 H   0  0  0  0  0  0  0  0  0  0  0  0
  143.8913  161.6512  134.2146 H   0  0  0  0  0  0  0  0  0  0  0  0
  146.5704  161.5655  133.3506 H   0  0  0  0  0  0  0  0  0  0  0  0
  150.6080  159.0180  132.8140 H   0  0  0  0  0  0  0  0  0  0  0  0
  149.3910  157.9450  133.5090 H   0  0  0  0  0  0  0  0  0  0  0  0
  147.0972  155.5458  136.2466 H   0  0  0  0  0  0  0  0  0  0  0  0
  148.4387  155.4186  135.0588 H   0  0  0  0  0  0  0  0  0  0  0  0
  147.3732  156.8648  135.0588 H   0  0  0  0  0  0  0  0  0  0  0  0
  147.6442  153.3029  134.4976 H   0  0  0  0  0  0  0  0  0  0  0  0
  146.5740  153.3005  133.0549 H   0  0  0  0  0  0  0  0  0  0  0  0
  148.0794  154.2806  133.0549 H   0  0  0  0  0  0  0  0  0  0  0  0
  145.4695  154.6404  136.0545 H   0  0  0  0  0  0  0  0  0  0  0  0
  144.4059  155.1495  134.6994 H   0  0  0  0  0  0  0  0  0  0  0  0
  145.1375  153.5089  134.6994 H   0  0  0  0  0  0  0  0  0  0  0  0
  144.1647  156.7663  133.6848 H   0  0  0  0  0  0  0  0  0  0  0  0
  1  2  1  0
  2  3  1  0
  3  4  2  0
  3  5  1  0
  5  6  1  0
  6  7  1  0
  6  8  1  0
  8  9  2  0
  9 10  1  0
 10 11  2  0
 11 12  1  0
 12 13  2  0
 13 14  1  0
 14 15  1  0
 14 16  2  0
 13 17  1  0
 17 18  1  0
 18 19  2  0
 18 20  1  0
 20 21  1  0
 21 22  1  0
 21 23  1  0
 21 24  1  0
 17 25  1  0
 25 26  2  0
 26  8  1  0
 25 11  1  0
  1 27  1  0
  1 28  1  0
  1 29  1  0
  2 30  1  0
  5 31  1  0
  5 32  1  0
  7 33  1  0
  7 34  1  0
  7 35  1  0
  9 36  1  0
 10 37  1  0
 12 38  1  0
 15 39  1  0
 15 40  1  0
 22 41  1  0
 22 42  1  0
 22 43  1  0
 23 44  1  0
 23 45  1  0
 23 46  1  0
 24 47  1  0
 24 48  1  0
 24 49  1  0
 26 50  1  0
M  END
>  <smiles>  (89) 
CNC(=O)CN(C)c1ccc2cc(C(N)=O)n(C(=O)OC(C)(C)C)c2c1

>  <score_type>  (89) 
oracle

>  <origin>  (89) 
adg

>  <m_score__min__energy>  (89) 
-7.9400000000000004

>  <m_primary>  (89) 
energy

$$$$
93:0
     RDKit          3D

 42 43  0  0  0  0  0  0  0  0999 V2000
  150.0490  160.4890  131.4910 C   0  0  0  0  0  0  0  0  0  0  0  0
  148.9590  159.5250  131.5050 N   0  0  0  0  0  0  0  0  0  0  0  0
  148.7300  158.6250  130.3950 C   0  0  0  0  0  0  0  0  0  0  0  0
  148.1340  159.5180  132.6670 C   0  0  0  0  0  0  0  0  0  0  0  0
  148.6320  159.0130  133.7400 N   0  0  0  0  0  0  0  0  0  0  0  0
  146.8170  160.0280  132.7020 N   0  0  0  0  0  0  0  0  0  0  0  0
  145.9390  159.6620  133.7370 C   0  0  0  0  0  0  0  0  0  0  0  0
  144.7200  158.8780  133.4320 C   0  0  0  0  0  0  0  0  0  0  0  0
  144.9220  157.4200  133.3310 C   0  0  0  0  0  0  0  0  0  0  0  0
  143.8500  156.5730  133.3870 C   0  0  0  0  0  0  0  0  0  0  0  0
  144.0050  155.2070  133.2950 C   0  0  0  0  0  0  0  0  0  0  0  0
  145.2860  154.7130  133.1440 C   0  0  0  0  0  0  0  0  0  0  0  0
  145.7480  153.4260  133.0270 C   0  0  0  0  0  0  0  0  0  0  0  0
  147.1440  153.4500  132.8940 C   0  0  0  0  0  0  0  0  0  0  0  0
  147.9210  152.2380  132.7490 C   0  0  0  0  0  0  0  0  0  0  0  0
  148.9770  151.9550  133.6940 N   0  0  0  0  0  0  0  0  0  0  0  0
  147.7750  151.3700  131.8600 O   0  0  0  0  0  0  0  0  0  0  0  0
  147.5100  154.7360  132.9310 N   0  0  0  0  0  0  0  0  0  0  0  0
  148.8180  155.2590  132.8350 C   0  0  0  0  0  0  0  0  0  0  0  0
  149.8050  154.4750  132.6290 O   0  0  0  0  0  0  0  0  0  0  0  0
  149.1600  156.5950  132.9460 O   0  0  0  0  0  0  0  0  0  0  0  0
  146.4070  155.5120  133.0810 C   0  0  0  0  0  0  0  0  0  0  0  0
  146.1870  156.8780  133.1790 C   0  0  0  0  0  0  0  0  0  0  0  0
  150.3311  160.7385  132.5245 H   0  0  0  0  0  0  0  0  0  0  0  0
  150.9149  160.0558  130.9689 H   0  0  0  0  0  0  0  0  0  0  0  0
  149.7249  161.4014  130.9689 H   0  0  0  0  0  0  0  0  0  0  0  0
  148.4758  157.6261  130.7793 H   0  0  0  0  0  0  0  0  0  0  0  0
  147.8996  159.0039  129.7810 H   0  0  0  0  0  0  0  0  0  0  0  0
  149.6405  158.5609  129.7810 H   0  0  0  0  0  0  0  0  0  0  0  0
  149.6080  158.6510  133.6630 H   0  0  0  0  0  0  0  0  0  0  0  0
  146.5540  160.6850  131.9150 H   0  0  0  0  0  0  0  0  0  0  0  0
  146.5249  159.0709  134.4562 H   0  0  0  0  0  0  0  0  0  0  0  0
  145.5391  160.6269  134.0821 H   0  0  0  0  0  0  0  0  0  0  0  0
  143.9858  159.0658  134.2293 H   0  0  0  0  0  0  0  0  0  0  0  0
  144.3831  159.2099  132.4389 H   0  0  0  0  0  0  0  0  0  0  0  0
  142.8402  156.9920  133.5083 H   0  0  0  0  0  0  0  0  0  0  0  0
  143.1374  154.5323  133.3403 H   0  0  0  0  0  0  0  0  0  0  0  0
  145.1234  152.5206  133.0361 H   0  0  0  0  0  0  0  0  0  0  0  0
  148.8490  151.2420  134.4540 H   0  0  0  0  0  0  0  0  0  0  0  0
  149.8510  152.5060  133.5610 H   0  0  0  0  0  0  0  0  0  0  0  0
  149.3730  157.0110  133.8510 H   0  0  0  0  0  0  0  0  0  0  0  0
  147.0512  157.5571  133.1342 H   0  0  0  0  0  0  0  0  0  0  0  0
  1  2  1  0
  2  3  1  0
  2  4  1  0
  4  5  2  3
  4  6  1  0
  6  7  1  0
  7  8  1  0
  8  9  1  0
  9 10  2  0
 10 11  1  0
 11 12  2  0
 12 13  1  0
 13 14  2  0
 14 15  1  0
 15 16  1  0
 15 17  2  0
 14 18  1  0
 18 19  1  0
 19 20  2  0
 19 21  1  0
 18 22  1  0
 22 23  2  0
 23  9  1  0
 22 12  1  0
  1 24  1  0
  1 25  1  0
  1 26  1  0
  3 27  1  0
  3 28  1  0
  3 29  1  0
  5 30  1  0
  6 31  1  0
  7 32  1  0
  7 33  1  0
  8 34  1  0
  8 35  1  0
 10 36  1  0
 11 37  1  0
 13 38  1  0
 16 39  1  0
 16 40  1  0
 21 41  1  0
 23 42  1  0
M  END
>  <smiles>  (90) 
CN(C)C(=N)NCCc1ccc2cc(C(N)=O)n(C(=O)O)c2c1

>  <score_type>  (90) 
oracle

>  <origin>  (90) 
adg

>  <m_score__min__energy>  (90) 
-7.7999999999999998

>  <m_primary>  (90) 
energy

$$$$
94:0
     RDKit          3D

 38 39  0  0  0  0  0  0  0  0999 V2000
  149.6790  158.9260  132.2710 C   0  0  0  0  0  0  0  0  0  0  0  0
  148.2260  158.9340  132.6640 C   0  0  0  0  0  0  0  0  0  0  0  0
  147.6580  160.1200  133.0250 C   0  0  0  0  0  0  0  0  0  0  0  0
  146.3300  160.1180  133.3830 C   0  0  0  0  0  0  0  0  0  0  0  0
  145.6210  158.9360  133.3670 C   0  0  0  0  0  0  0  0  0  0  0  0
  144.3130  158.7060  133.6790 C   0  0  0  0  0  0  0  0  0  0  0  0
  144.0900  157.3230  133.4940 C   0  0  0  0  0  0  0  0  0  0  0  0
  142.7480  156.8070  133.6920 C   0  0  0  0  0  0  0  0  0  0  0  0
  142.1780  155.6740  133.0780 N   0  0  0  0  0  0  0  0  0  0  0  0
  141.9780  157.4410  134.4980 O   0  0  0  0  0  0  0  0  0  0  0  0
  145.2190  156.7310  133.0920 N   0  0  0  0  0  0  0  0  0  0  0  0
  145.5840  155.3790  132.9520 C   0  0  0  0  0  0  0  0  0  0  0  0
  146.6630  155.0240  133.5400 O   0  0  0  0  0  0  0  0  0  0  0  0
  144.9100  154.3200  132.2460 C   0  0  0  0  0  0  0  0  0  0  0  0
  144.2060  154.4920  131.1900 O   0  0  0  0  0  0  0  0  0  0  0  0
  144.9610  152.9480  132.6580 N   0  0  0  0  0  0  0  0  0  0  0  0
  146.2270  152.2690  132.3380 C   0  0  0  0  0  0  0  0  0  0  0  0
  143.9330  152.2380  133.3370 C   0  0  0  0  0  0  0  0  0  0  0  0
  142.6440  152.9690  133.4340 C   0  0  0  0  0  0  0  0  0  0  0  0
  142.1110  153.2520  134.5420 O   0  0  0  0  0  0  0  0  0  0  0  0
  142.0370  153.3340  132.2410 O   0  0  0  0  0  0  0  0  0  0  0  0
  146.1520  157.7240  133.0120 C   0  0  0  0  0  0  0  0  0  0  0  0
  147.5040  157.7500  132.6520 C   0  0  0  0  0  0  0  0  0  0  0  0
  150.3037  158.9226  133.1764 H   0  0  0  0  0  0  0  0  0  0  0  0
  149.8926  158.0267  131.6747 H   0  0  0  0  0  0  0  0  0  0  0  0
  149.9025  159.8229  131.6747 H   0  0  0  0  0  0  0  0  0  0  0  0
  148.2445  161.0506  133.0297 H   0  0  0  0  0  0  0  0  0  0  0  0
  145.8362  161.0548  133.6805 H   0  0  0  0  0  0  0  0  0  0  0  0
  143.5755  159.4519  134.0101 H   0  0  0  0  0  0  0  0  0  0  0  0
  142.4860  155.4630  132.0950 H   0  0  0  0  0  0  0  0  0  0  0  0
  141.4910  155.0800  133.5680 H   0  0  0  0  0  0  0  0  0  0  0  0
  146.7411  151.9933  133.2706 H   0  0  0  0  0  0  0  0  0  0  0  0
  146.0185  151.3616  131.7521 H   0  0  0  0  0  0  0  0  0  0  0  0
  146.8675  152.9446  131.7521 H   0  0  0  0  0  0  0  0  0  0  0  0
  143.7541  151.2947  132.8003 H   0  0  0  0  0  0  0  0  0  0  0  0
  144.2854  152.0846  134.3677 H   0  0  0  0  0  0  0  0  0  0  0  0
  142.5090  153.1680  131.3440 H   0  0  0  0  0  0  0  0  0  0  0  0
  148.0025  156.8156  132.3545 H   0  0  0  0  0  0  0  0  0  0  0  0
  1  2  1  0
  2  3  2  0
  3  4  1  0
  4  5  2  0
  5  6  1  0
  6  7  2  0
  7  8  1  0
  8  9  1  0
  8 10  2  0
  7 11  1  0
 11 12  1  0
 12 13  2  0
 12 14  1  0
 14 15  2  0
 14 16  1  0
 16 17  1  0
 16 18  1  0
 18 19  1  0
 19 20  2  0
 19 21  1  0
 11 22  1  0
 22 23  2  0
 23  2  1  0
 22  5  1  0
  1 24  1  0
  1 25  1  0
  1 26  1  0
  3 27  1  0
  4 28  1  0
  6 29  1  0
  9 30  1  0
  9 31  1  0
 17 32  1  0
 17 33  1  0
 17 34  1  0
 18 35  1  0
 18 36  1  0
 21 37  1  0
 23 38  1  0
M  END
>  <smiles>  (91) 
Cc1ccc2cc(C(N)=O)n(C(=O)C(=O)N(C)CC(=O)O)c2c1

>  <score_type>  (91) 
oracle

>  <origin>  (91) 
adg

>  <m_score__min__energy>  (91) 
-5.9000000000000004

>  <m_primary>  (91) 
energy

$$$$
