0:0
     RDKit          3D

 37 38  0  0  0  0  0  0  0  0999 V2000
  140.0070  156.5610  133.0780 C   0  0  0  0  0  0  0  0  0  0  0  0
  139.2930  155.2180  132.9860 C   0  0  0  0  0  0  0  0  0  0  0  0
  140.2180  154.1770  132.6780 O   0  0  0  0  0  0  0  0  0  0  0  0
  141.1490  153.6750  133.5940 C   0  0  0  0  0  0  0  0  0  0  0  0
  141.3420  154.2630  134.6930 O   0  0  0  0  0  0  0  0  0  0  0  0
  141.9060  152.5000  133.2670 N   0  0  0  0  0  0  0  0  0  0  0  0
  143.2540  152.3170  133.3630 C   0  0  0  0  0  0  0  0  0  0  0  0
  144.2170  153.2620  133.9650 C   0  0  0  0  0  0  0  0  0  0  0  0
  144.0400  153.6940  135.3120 N   0  0  0  0  0  0  0  0  0  0  0  0
  145.1780  153.7220  133.2930 O   0  0  0  0  0  0  0  0  0  0  0  0
  143.6110  151.0580  132.8850 C   0  0  0  0  0  0  0  0  0  0  0  0
  142.4320  150.4670  132.4960 C   0  0  0  0  0  0  0  0  0  0  0  0
  142.2010  149.2160  131.9310 C   0  0  0  0  0  0  0  0  0  0  0  0
  140.8790  148.8770  131.5970 C   0  0  0  0  0  0  0  0  0  0  0  0
  139.8190  149.7860  131.8350 C   0  0  0  0  0  0  0  0  0  0  0  0
  138.4160  149.4340  131.4290 C   0  0  0  0  0  0  0  0  0  0  0  0
  138.4410  148.5440  130.2290 C   0  0  0  0  0  0  0  0  0  0  0  0
  138.4800  149.0510  129.0730 O   0  0  0  0  0  0  0  0  0  0  0  0
  138.3740  147.1580  130.3990 O   0  0  0  0  0  0  0  0  0  0  0  0
  139.1060  146.2510  129.5840 C   0  0  0  0  0  0  0  0  0  0  0  0
  140.0930  151.0520  132.4000 C   0  0  0  0  0  0  0  0  0  0  0  0
  141.4170  151.3560  132.7380 C   0  0  0  0  0  0  0  0  0  0  0  0
  140.1494  156.8289  134.1353 H   0  0  0  0  0  0  0  0  0  0  0  0
  140.9865  156.4902  132.5825 H   0  0  0  0  0  0  0  0  0  0  0  0
  139.4005  157.3334  132.5825 H   0  0  0  0  0  0  0  0  0  0  0  0
  138.8099  154.9988  133.9496 H   0  0  0  0  0  0  0  0  0  0  0  0
  138.5400  155.2711  132.1859 H   0  0  0  0  0  0  0  0  0  0  0  0
  143.1060  153.6360  135.7760 H   0  0  0  0  0  0  0  0  0  0  0  0
  144.6219  150.6279  132.8304 H   0  0  0  0  0  0  0  0  0  0  0  0
  143.0285  148.5139  131.7514 H   0  0  0  0  0  0  0  0  0  0  0  0
  140.6652  147.8965  131.1465 H   0  0  0  0  0  0  0  0  0  0  0  0
  137.9161  148.9131  132.2589 H   0  0  0  0  0  0  0  0  0  0  0  0
  137.8681  150.3559  131.1843 H   0  0  0  0  0  0  0  0  0  0  0  0
  139.6680  145.5547  130.2238 H   0  0  0  0  0  0  0  0  0  0  0  0
  138.4092  145.6843  128.9489 H   0  0  0  0  0  0  0  0  0  0  0  0
  139.8070  146.8125  128.9489 H   0  0  0  0  0  0  0  0  0  0  0  0
  139.2862  151.7802  132.5699 H   0  0  0  0  0  0  0  0  0  0  0  0
  1  2  1  0
  2  3  1  0
  3  4  1  0
  4  5  2  0
  4  6  1  0
  6  7  1  0
  7  8  1  0
  8  9  1  0
  8 10  2  0
  7 11  2  0
 11 12  1  0
 12 13  2  0
 13 14  1  0
 14 15  2  0
 15 16  1  0
 16 17  1  0
 17 18  2  0
 17 19  1  0
 19 20  1  0
 15 21  1  0
 21 22  2  0
 22  6  1  0
 22 12  1  0
  1 23  1  0
  1 24  1  0
  1 25  1  0
  2 26  1  0
  2 27  1  0
  9 28  1  0
 11 29  1  0
 13 30  1  0
 14 31  1  0
 16 32  1  0
 16 33  1  0
 20 34  1  0
 20 35  1  0
 20 36  1  0
 21 37  1  0
M  CHG  1   9  -1
M  END
>  <UniqueID>  (1) 
1

>  <SMILES>  (1) 
CCOC(=O)n1c(C([NH-])=O)cc2ccc(CC(=O)OC)cc21

>  <Energy>  (1) 
67.50672771465318

>  <Genealogy>  (1) 
CCOC(=O)n1c(C([NH-])=O)cc2ccc(CC(=O)OC)cc21 (protonated)
CCOC(=O)n1c(C([NH-])=O)cc2ccc(CC(=O)OC)cc21 (3D coordinates assigned)
CCOC(=O)n1c(C([NH-])=O)cc2ccc(CC(=O)OC)cc21 (optimized conformer: 67.50672771465318 kcal/mol)

>  <smiles>  (1) 
CCOC(=O)n1c(C(N)=O)cc2ccc(CC(=O)OC)cc21

>  <score_type>  (1) 
oracle

>  <origin>  (1) 
adg

>  <m_score__min__energy>  (1) 
-5.8499999999999996

>  <m_primary>  (1) 
energy

$$$$
1:0
     RDKit          3D

 53 55  0  0  0  0  0  0  0  0999 V2000
  150.1240  150.3150  131.1700 C   0  0  0  0  0  0  0  0  0  0  0  0
  149.3780  150.5790  132.4840 C   0  0  0  0  0  0  0  0  0  0  0  0
  148.1500  149.6710  132.6130 C   0  0  0  0  0  0  0  0  0  0  0  0
  148.9920  152.0420  132.6080 C   0  0  0  0  0  0  0  0  0  0  0  0
  147.6580  152.3960  132.8730 C   0  0  0  0  0  0  0  0  0  0  0  0
  147.2900  153.7390  132.9910 C   0  0  0  0  0  0  0  0  0  0  0  0
  148.2470  154.7590  132.8460 C   0  0  0  0  0  0  0  0  0  0  0  0
  147.8560  156.1850  132.9760 C   0  0  0  0  0  0  0  0  0  0  0  0
  148.8390  157.2080  132.9070 C   0  0  0  0  0  0  0  0  0  0  0  0
  148.4780  158.5610  133.0190 C   0  0  0  0  0  0  0  0  0  0  0  0
  147.1340  158.8650  133.2080 C   0  0  0  0  0  0  0  0  0  0  0  0
  146.5100  160.0860  133.3240 C   0  0  0  0  0  0  0  0  0  0  0  0
  145.1560  159.7950  133.4870 C   0  0  0  0  0  0  0  0  0  0  0  0
  144.1270  160.8270  133.7360 C   0  0  0  0  0  0  0  0  0  0  0  0
  142.7650  160.6050  133.3800 N   0  0  0  0  0  0  0  0  0  0  0  0
  144.4460  161.8990  134.3140 O   0  0  0  0  0  0  0  0  0  0  0  0
  144.9520  158.4480  133.4640 N   0  0  0  0  0  0  0  0  0  0  0  0
  143.7030  157.7410  133.5140 C   0  0  0  0  0  0  0  0  0  0  0  0
  142.8730  157.8720  132.5740 O   0  0  0  0  0  0  0  0  0  0  0  0
  143.4390  156.8910  134.5980 O   0  0  0  0  0  0  0  0  0  0  0  0
  143.4100  155.4580  134.5680 C   0  0  0  0  0  0  0  0  0  0  0  0
  144.5710  154.8730  135.3940 C   0  0  0  0  0  0  0  0  0  0  0  0
  142.0560  154.9340  135.0840 C   0  0  0  0  0  0  0  0  0  0  0  0
  143.5800  155.0330  133.1010 C   0  0  0  0  0  0  0  0  0  0  0  0
  146.1720  157.8930  133.2950 C   0  0  0  0  0  0  0  0  0  0  0  0
  146.4990  156.5380  133.1670 C   0  0  0  0  0  0  0  0  0  0  0  0
  149.5800  154.4040  132.5810 C   0  0  0  0  0  0  0  0  0  0  0  0
  149.9490  153.0620  132.4630 C   0  0  0  0  0  0  0  0  0  0  0  0
  151.1398  149.9555  131.3909 H   0  0  0  0  0  0  0  0  0  0  0  0
  149.5839  149.5534  130.5884 H   0  0  0  0  0  0  0  0  0  0  0  0
  150.1832  151.2468  130.5884 H   0  0  0  0  0  0  0  0  0  0  0  0
  150.0608  150.3401  133.3127 H   0  0  0  0  0  0  0  0  0  0  0  0
  147.9264  149.5057  133.6773 H   0  0  0  0  0  0  0  0  0  0  0  0
  147.2871  150.1500  132.1272 H   0  0  0  0  0  0  0  0  0  0  0  0
  148.3551  148.7057  132.1272 H   0  0  0  0  0  0  0  0  0  0  0  0
  146.8975  151.6097  132.9885 H   0  0  0  0  0  0  0  0  0  0  0  0
  146.2420  154.0006  133.1992 H   0  0  0  0  0  0  0  0  0  0  0  0
  149.8956  156.9375  132.7641 H   0  0  0  0  0  0  0  0  0  0  0  0
  149.2356  159.3562  132.9590 H   0  0  0  0  0  0  0  0  0  0  0  0
  146.9795  161.0803  133.2944 H   0  0  0  0  0  0  0  0  0  0  0  0
  142.5140  160.0000  132.5660 H   0  0  0  0  0  0  0  0  0  0  0  0
  144.3507  154.9840  136.4660 H   0  0  0  0  0  0  0  0  0  0  0  0
  144.6916  153.8065  135.1530 H   0  0  0  0  0  0  0  0  0  0  0  0
  145.4999  155.4107  135.1530 H   0  0  0  0  0  0  0  0  0  0  0  0
  142.0577  154.9347  136.1840 H   0  0  0  0  0  0  0  0  0  0  0  0
  141.2477  155.5843  134.7182 H   0  0  0  0  0  0  0  0  0  0  0  0
  141.8960  153.9090  134.7182 H   0  0  0  0  0  0  0  0  0  0  0  0
  143.9883  154.0124  133.0599 H   0  0  0  0  0  0  0  0  0  0  0  0
  142.6028  155.0576  132.5965 H   0  0  0  0  0  0  0  0  0  0  0  0
  144.2706  155.7248  132.5965 H   0  0  0  0  0  0  0  0  0  0  0  0
  145.7183  155.7645  133.2139 H   0  0  0  0  0  0  0  0  0  0  0  0
  150.3405  155.1903  132.4653 H   0  0  0  0  0  0  0  0  0  0  0  0
  150.9971  152.8009  132.2549 H   0  0  0  0  0  0  0  0  0  0  0  0
  1  2  1  0
  2  3  1  0
  2  4  1  0
  4  5  2  0
  5  6  1  0
  6  7  2  0
  7  8  1  0
  8  9  2  0
  9 10  1  0
 10 11  2  0
 11 12  1  0
 12 13  2  0
 13 14  1  0
 14 15  1  0
 14 16  2  0
 13 17  1  0
 17 18  1  0
 18 19  2  0
 18 20  1  0
 20 21  1  0
 21 22  1  0
 21 23  1  0
 21 24  1  0
 17 25  1  0
 25 26  2  0
  7 27  1  0
 27 28  2  0
 28  4  1  0
 26  8  1  0
 25 11  1  0
  1 29  1  0
  1 30  1  0
  1 31  1  0
  2 32  1  0
  3 33  1  0
  3 34  1  0
  3 35  1  0
  5 36  1  0
  6 37  1  0
  9 38  1  0
 10 39  1  0
 12 40  1  0
 15 41  1  0
 22 42  1  0
 22 43  1  0
 22 44  1  0
 23 45  1  0
 23 46  1  0
 23 47  1  0
 24 48  1  0
 24 49  1  0
 24 50  1  0
 26 51  1  0
 27 52  1  0
 28 53  1  0
M  CHG  1  15  -1
M  END
>  <UniqueID>  (2) 
2

>  <SMILES>  (2) 
CC(C)c1ccc(-c2ccc3cc(C([NH-])=O)n(C(=O)OC(C)(C)C)c3c2)cc1

>  <Energy>  (2) 
90.49717710731288

>  <Genealogy>  (2) 
CC(C)c1ccc(-c2ccc3cc(C([NH-])=O)n(C(=O)OC(C)(C)C)c3c2)cc1 (protonated)
CC(C)c1ccc(-c2ccc3cc(C([NH-])=O)n(C(=O)OC(C)(C)C)c3c2)cc1 (3D coordinates assigned)
CC(C)c1ccc(-c2ccc3cc(C([NH-])=O)n(C(=O)OC(C)(C)C)c3c2)cc1 (optimized conformer: 90.49717710731288 kcal/mol)

>  <smiles>  (2) 
CC(C)c1ccc(-c2ccc3cc(C(N)=O)n(C(=O)OC(C)(C)C)c3c2)cc1

>  <score_type>  (2) 
oracle

>  <origin>  (2) 
adg

>  <m_score__min__energy>  (2) 
-9.3800000000000008

>  <m_primary>  (2) 
energy

$$$$
2:0
     RDKit          3D

 26 27  0  0  0  0  0  0  0  0999 V2000
  149.3270  162.0060  130.3580 C   0  0  0  0  0  0  0  0  0  0  0  0
  149.0930  160.7070  131.0680 C   0  0  0  0  0  0  0  0  0  0  0  0
  150.1240  159.7380  131.1330 C   0  0  0  0  0  0  0  0  0  0  0  0
  149.9240  158.5260  131.8130 C   0  0  0  0  0  0  0  0  0  0  0  0
  148.6970  158.3220  132.4370 C   0  0  0  0  0  0  0  0  0  0  0  0
  148.2300  157.2300  133.1310 C   0  0  0  0  0  0  0  0  0  0  0  0
  146.9380  157.5680  133.5230 C   0  0  0  0  0  0  0  0  0  0  0  0
  146.0820  156.6890  134.3440 C   0  0  0  0  0  0  0  0  0  0  0  0
  144.6630  156.6750  134.1820 N   0  0  0  0  0  0  0  0  0  0  0  0
  146.6080  155.9780  135.2420 O   0  0  0  0  0  0  0  0  0  0  0  0
  146.6100  158.8160  133.0800 N   0  0  0  0  0  0  0  0  0  0  0  0
  145.3330  159.4680  133.1820 C   0  0  0  0  0  0  0  0  0  0  0  0
  145.2190  160.7310  133.8320 N   0  0  0  0  0  0  0  0  0  0  0  0
  144.3040  158.9210  132.7040 O   0  0  0  0  0  0  0  0  0  0  0  0
  147.7000  159.2650  132.4170 C   0  0  0  0  0  0  0  0  0  0  0  0
  147.8640  160.4720  131.7240 C   0  0  0  0  0  0  0  0  0  0  0  0
  149.4713  162.8073  131.0976 H   0  0  0  0  0  0  0  0  0  0  0  0
  150.2246  161.9228  129.7276 H   0  0  0  0  0  0  0  0  0  0  0  0
  148.4568  162.2413  129.7276 H   0  0  0  0  0  0  0  0  0  0  0  0
  151.0902  159.9368  130.6463 H   0  0  0  0  0  0  0  0  0  0  0  0
  150.7133  157.7608  131.8513 H   0  0  0  0  0  0  0  0  0  0  0  0
  148.7640  156.2898  133.3331 H   0  0  0  0  0  0  0  0  0  0  0  0
  144.1820  157.3750  133.5750 H   0  0  0  0  0  0  0  0  0  0  0  0
  144.0790  156.0160  134.7420 H   0  0  0  0  0  0  0  0  0  0  0  0
  145.4910  161.6130  133.3440 H   0  0  0  0  0  0  0  0  0  0  0  0
  147.0560  161.2178  131.6916 H   0  0  0  0  0  0  0  0  0  0  0  0
  1  2  1  0
  2  3  2  0
  3  4  1  0
  4  5  2  0
  5  6  1  0
  6  7  2  0
  7  8  1  0
  8  9  1  0
  8 10  2  0
  7 11  1  0
 11 12  1  0
 12 13  1  0
 12 14  2  0
 11 15  1  0
 15 16  2  0
 16  2  1  0
 15  5  1  0
  1 17  1  0
  1 18  1  0
  1 19  1  0
  3 20  1  0
  4 21  1  0
  6 22  1  0
  9 23  1  0
  9 24  1  0
 13 25  1  0
 16 26  1  0
M  CHG  1  13  -1
M  END
>  <UniqueID>  (3) 
3

>  <SMILES>  (3) 
Cc1ccc2cc(C(N)=O)n(C([NH-])=O)c2c1

>  <Energy>  (3) 
65.4278807188012

>  <Genealogy>  (3) 
Cc1ccc2cc(C(N)=O)n(C([NH-])=O)c2c1 (protonated)
Cc1ccc2cc(C(N)=O)n(C([NH-])=O)c2c1 (3D coordinates assigned)
Cc1ccc2cc(C(N)=O)n(C([NH-])=O)c2c1 (optimized conformer: 65.4278807188012 kcal/mol)

>  <smiles>  (3) 
Cc1ccc2cc(C(N)=O)n(C(N)=O)c2c1

>  <score_type>  (3) 
oracle

>  <origin>  (3) 
adg

>  <m_score__min__energy>  (3) 
-6.3099999999999996

>  <m_primary>  (3) 
energy

$$$$
3:0
     RDKit          3D

 52 53  0  0  0  0  0  0  0  0999 V2000
  137.3450  160.0840  130.8840 C   0  0  0  0  0  0  0  0  0  0  0  0
  138.7490  159.5130  131.0870 C   0  0  0  0  0  0  0  0  0  0  0  0
  139.1300  159.4040  132.5820 C   0  0  1  0  0  0  0  0  0  0  0  0
  138.5040  158.1760  133.2700 C   0  0  0  0  0  0  0  0  0  0  0  0
  139.3860  157.0030  133.2840 C   0  0  0  0  0  0  0  0  0  0  0  0
  140.0930  156.0270  133.3070 C   0  0  0  0  0  0  0  0  0  0  0  0
  140.9370  154.8630  133.3410 C   0  0  0  0  0  0  0  0  0  0  0  0
  142.2470  154.9600  133.8610 C   0  0  0  0  0  0  0  0  0  0  0  0
  143.0870  153.8330  133.8850 C   0  0  0  0  0  0  0  0  0  0  0  0
  142.5880  152.6370  133.3750 C   0  0  0  0  0  0  0  0  0  0  0  0
  143.1760  151.3960  133.2990 C   0  0  0  0  0  0  0  0  0  0  0  0
  142.2220  150.5730  132.7080 C   0  0  0  0  0  0  0  0  0  0  0  0
  142.4670  149.1550  132.3780 C   0  0  0  0  0  0  0  0  0  0  0  0
  141.4540  148.1650  132.5680 N   0  0  0  0  0  0  0  0  0  0  0  0
  143.5690  148.8200  131.8660 O   0  0  0  0  0  0  0  0  0  0  0  0
  141.0810  151.2700  132.4410 N   0  0  0  0  0  0  0  0  0  0  0  0
  139.8390  150.7540  131.9330 C   0  0  0  0  0  0  0  0  0  0  0  0
  139.8260  149.7210  131.2130 O   0  0  0  0  0  0  0  0  0  0  0  0
  138.6380  151.3870  132.2330 O   0  0  0  0  0  0  0  0  0  0  0  0
  141.3220  152.5350  132.8550 C   0  0  0  0  0  0  0  0  0  0  0  0
  140.4560  153.6360  132.8450 C   0  0  0  0  0  0  0  0  0  0  0  0
  140.5760  159.4730  132.8310 N   0  0  0  0  0  0  0  0  0  0  0  0
  141.2480  159.8280  134.0450 C   0  0  0  0  0  0  0  0  0  0  0  0
  142.4410  160.2260  133.9780 O   0  0  0  0  0  0  0  0  0  0  0  0
  140.6040  159.6980  135.2840 O   0  0  0  0  0  0  0  0  0  0  0  0
  140.8170  158.6540  136.2470 C   0  0  0  0  0  0  0  0  0  0  0  0
  141.2860  159.2440  137.5900 C   0  0  0  0  0  0  0  0  0  0  0  0
  141.9250  157.7450  135.6960 C   0  0  0  0  0  0  0  0  0  0  0  0
  139.5350  157.8220  136.4380 C   0  0  0  0  0  0  0  0  0  0  0  0
  136.8808  160.2728  131.8632 H   0  0  0  0  0  0  0  0  0  0  0  0
  137.4105  161.0270  130.3214 H   0  0  0  0  0  0  0  0  0  0  0  0
  136.7338  159.3630  130.3214 H   0  0  0  0  0  0  0  0  0  0  0  0
  138.7909  158.5099  130.6376 H   0  0  0  0  0  0  0  0  0  0  0  0
  139.4629  160.1991  130.6078 H   0  0  0  0  0  0  0  0  0  0  0  0
  138.6923  160.3009  133.0445 H   0  0  0  0  0  0  0  0  0  0  0  0
  138.2633  158.4436  134.3094 H   0  0  0  0  0  0  0  0  0  0  0  0
  137.6084  157.9020  132.6931 H   0  0  0  0  0  0  0  0  0  0  0  0
  142.6116  155.9225  134.2491 H   0  0  0  0  0  0  0  0  0  0  0  0
  144.1064  153.8939  134.2938 H   0  0  0  0  0  0  0  0  0  0  0  0
  144.1851  151.1141  133.6339 H   0  0  0  0  0  0  0  0  0  0  0  0
  141.6590  147.1610  132.3690 H   0  0  0  0  0  0  0  0  0  0  0  0
  140.4800  148.4350  132.8270 H   0  0  0  0  0  0  0  0  0  0  0  0
  139.4294  153.5447  132.4606 H   0  0  0  0  0  0  0  0  0  0  0  0
  140.8349  158.6765  138.4173 H   0  0  0  0  0  0  0  0  0  0  0  0
  142.3821  159.1796  137.6560 H   0  0  0  0  0  0  0  0  0  0  0  0
  140.9760  160.2973  137.6560 H   0  0  0  0  0  0  0  0  0  0  0  0
  142.4773  157.2919  136.5324 H   0  0  0  0  0  0  0  0  0  0  0  0
  141.4761  156.9516  135.0804 H   0  0  0  0  0  0  0  0  0  0  0  0
  142.6154  158.3403  135.0804 H   0  0  0  0  0  0  0  0  0  0  0  0
  139.3377  157.6940  137.5126 H   0  0  0  0  0  0  0  0  0  0  0  0
  138.6869  158.3423  135.9689 H   0  0  0  0  0  0  0  0  0  0  0  0
  139.6648  156.8355  135.9689 H   0  0  0  0  0  0  0  0  0  0  0  0
  1  2  1  0
  2  3  1  0
  3  4  1  0
  4  5  1  0
  5  6  3  0
  6  7  1  0
  7  8  2  0
  8  9  1  0
  9 10  2  0
 10 11  1  0
 11 12  2  0
 12 13  1  0
 13 14  1  0
 13 15  2  0
 12 16  1  0
 16 17  1  0
 17 18  2  0
 17 19  1  0
 16 20  1  0
 20 21  2  0
  3 22  1  0
 22 23  1  0
 23 24  2  0
 23 25  1  0
 25 26  1  0
 26 27  1  0
 26 28  1  0
 26 29  1  0
 21  7  1  0
 20 10  1  0
  1 30  1  0
  1 31  1  0
  1 32  1  0
  2 33  1  0
  2 34  1  0
  3 35  1  1
  4 36  1  0
  4 37  1  0
  8 38  1  0
  9 39  1  0
 11 40  1  0
 14 41  1  0
 14 42  1  0
 21 43  1  0
 27 44  1  0
 27 45  1  0
 27 46  1  0
 28 47  1  0
 28 48  1  0
 28 49  1  0
 29 50  1  0
 29 51  1  0
 29 52  1  0
M  CHG  2  19  -1  22  -1
M  END
>  <UniqueID>  (4) 
4

>  <SMILES>  (4) 
CC[C@@H](CC#Cc1ccc2cc(C(N)=O)n(C(=O)[O-])c2c1)[N-]C(=O)OC(C)(C)C

>  <Energy>  (4) 
75.62745545876312

>  <Genealogy>  (4) 
CCC(CC#Cc1ccc2cc(C(N)=O)n(C(=O)[O-])c2c1)[N-]C(=O)OC(C)(C)C (protonated)
CC[C@@H](CC#Cc1ccc2cc(C(N)=O)n(C(=O)[O-])c2c1)[N-]C(=O)OC(C)(C)C (chirality)
CC[C@@H](CC#Cc1ccc2cc(C(N)=O)n(C(=O)[O-])c2c1)[N-]C(=O)OC(C)(C)C (3D coordinates assigned)
CC[C@@H](CC#Cc1ccc2cc(C(N)=O)n(C(=O)[O-])c2c1)[N-]C(=O)OC(C)(C)C (optimized conformer: 75.62745545876312 kcal/mol)

>  <smiles>  (4) 
CCC(CC#Cc1ccc2cc(C(N)=O)n(C(=O)O)c2c1)NC(=O)OC(C)(C)C

>  <score_type>  (4) 
oracle

>  <origin>  (4) 
adg

>  <m_score__min__energy>  (4) 
-8.6400000000000006

>  <m_primary>  (4) 
energy

$$$$
4:0
     RDKit          3D

 32 33  0  0  0  0  0  0  0  0999 V2000
  146.2630  163.1130  134.3130 C   0  0  0  0  0  0  0  0  0  0  0  0
  144.7800  162.7260  134.3420 C   0  0  0  0  0  0  0  0  0  0  0  0
  143.9670  163.5820  133.3640 C   0  0  0  0  0  0  0  0  0  0  0  0
  144.5960  161.2480  134.0590 C   0  0  0  0  0  0  0  0  0  0  0  0
  143.2930  160.6830  134.0780 C   0  0  0  0  0  0  0  0  0  0  0  0
  143.0990  159.3140  133.8320 C   0  0  0  0  0  0  0  0  0  0  0  0
  144.2190  158.5340  133.5630 C   0  0  0  0  0  0  0  0  0  0  0  0
  144.3160  157.1820  133.3250 C   0  0  0  0  0  0  0  0  0  0  0  0
  145.6730  156.9410  133.1330 C   0  0  0  0  0  0  0  0  0  0  0  0
  146.2190  155.6150  132.7790 C   0  0  0  0  0  0  0  0  0  0  0  0
  147.3360  155.4860  131.9000 N   0  0  0  0  0  0  0  0  0  0  0  0
  145.6540  154.5760  133.2160 O   0  0  0  0  0  0  0  0  0  0  0  0
  146.3920  158.0920  133.2630 N   0  0  0  0  0  0  0  0  0  0  0  0
  147.8230  158.2360  133.2550 C   0  0  0  0  0  0  0  0  0  0  0  0
  148.5140  158.5980  134.4480 N   0  0  0  0  0  0  0  0  0  0  0  0
  148.4740  158.0560  132.1920 O   0  0  0  0  0  0  0  0  0  0  0  0
  145.4850  159.0600  133.5220 C   0  0  0  0  0  0  0  0  0  0  0  0
  145.7090  160.4170  133.7830 C   0  0  0  0  0  0  0  0  0  0  0  0
  146.6367  163.2105  135.3430 H   0  0  0  0  0  0  0  0  0  0  0  0
  146.8350  162.3341  133.7876 H   0  0  0  0  0  0  0  0  0  0  0  0
  146.3814  164.0721  133.7876 H   0  0  0  0  0  0  0  0  0  0  0  0
  144.4006  162.9231  135.3555 H   0  0  0  0  0  0  0  0  0  0  0  0
  143.3169  164.2665  133.9287 H   0  0  0  0  0  0  0  0  0  0  0  0
  144.6516  164.1654  132.7308 H   0  0  0  0  0  0  0  0  0  0  0  0
  143.3491  162.9284  132.7308 H   0  0  0  0  0  0  0  0  0  0  0  0
  142.4252  161.3256  134.2880 H   0  0  0  0  0  0  0  0  0  0  0  0
  142.0919  158.8719  133.8514 H   0  0  0  0  0  0  0  0  0  0  0  0
  143.4965  156.4490  133.2933 H   0  0  0  0  0  0  0  0  0  0  0  0
  147.7210  156.3130  131.3920 H   0  0  0  0  0  0  0  0  0  0  0  0
  147.7320  154.5420  131.6900 H   0  0  0  0  0  0  0  0  0  0  0  0
  149.3740  158.0860  134.7460 H   0  0  0  0  0  0  0  0  0  0  0  0
  146.7287  160.8294  133.7739 H   0  0  0  0  0  0  0  0  0  0  0  0
  1  2  1  0
  2  3  1  0
  2  4  1  0
  4  5  2  0
  5  6  1  0
  6  7  2  0
  7  8  1  0
  8  9  2  0
  9 10  1  0
 10 11  1  0
 10 12  2  0
  9 13  1  0
 13 14  1  0
 14 15  1  0
 14 16  2  0
 13 17  1  0
 17 18  2  0
 18  4  1  0
 17  7  1  0
  1 19  1  0
  1 20  1  0
  1 21  1  0
  2 22  1  0
  3 23  1  0
  3 24  1  0
  3 25  1  0
  5 26  1  0
  6 27  1  0
  8 28  1  0
 11 29  1  0
 11 30  1  0
 15 31  1  0
 18 32  1  0
M  CHG  1  15  -1
M  END
>  <UniqueID>  (5) 
5

>  <SMILES>  (5) 
CC(C)c1ccc2cc(C(N)=O)n(C([NH-])=O)c2c1

>  <Energy>  (5) 
68.09740875109999

>  <Genealogy>  (5) 
CC(C)c1ccc2cc(C(N)=O)n(C([NH-])=O)c2c1 (protonated)
CC(C)c1ccc2cc(C(N)=O)n(C([NH-])=O)c2c1 (3D coordinates assigned)
CC(C)c1ccc2cc(C(N)=O)n(C([NH-])=O)c2c1 (optimized conformer: 68.09740875109999 kcal/mol)

>  <smiles>  (5) 
CC(C)c1ccc2cc(C(N)=O)n(C(N)=O)c2c1

>  <score_type>  (5) 
oracle

>  <origin>  (5) 
adg

>  <m_score__min__energy>  (5) 
-6.5800000000000001

>  <m_primary>  (5) 
energy

$$$$
5:0
     RDKit          3D

 75 77  0  0  0  0  0  0  0  0999 V2000
  143.6890  154.6720  136.3050 C   0  0  0  0  0  0  0  0  0  0  0  0
  142.1930  154.3320  136.1460 C   0  0  0  0  0  0  0  0  0  0  0  0
  141.3680  154.9490  137.2920 C   0  0  0  0  0  0  0  0  0  0  0  0
  142.0250  152.8050  136.1750 C   0  0  0  0  0  0  0  0  0  0  0  0
  141.7050  154.7850  134.8740 O   0  0  0  0  0  0  0  0  0  0  0  0
  141.8350  154.1210  133.6460 C   0  0  0  0  0  0  0  0  0  0  0  0
  140.8940  154.1250  132.8060 O   0  0  0  0  0  0  0  0  0  0  0  0
  143.0680  153.4530  133.3320 N   0  0  0  0  0  0  0  0  0  0  0  0
  143.2660  152.1280  133.0770 C   0  0  0  0  0  0  0  0  0  0  0  0
  142.2570  151.0560  133.2120 C   0  0  0  0  0  0  0  0  0  0  0  0
  141.0120  151.2980  133.8620 N   0  0  0  0  0  0  0  0  0  0  0  0
  142.5220  149.8940  132.8010 O   0  0  0  0  0  0  0  0  0  0  0  0
  144.6000  151.8870  132.7560 C   0  0  0  0  0  0  0  0  0  0  0  0
  145.2220  153.1120  132.8350 C   0  0  0  0  0  0  0  0  0  0  0  0
  146.5530  153.4560  132.6290 C   0  0  0  0  0  0  0  0  0  0  0  0
  146.9170  154.8060  132.7700 C   0  0  0  0  0  0  0  0  0  0  0  0
  145.9480  155.7920  133.1000 C   0  0  0  0  0  0  0  0  0  0  0  0
  146.3290  157.1800  133.2350 N   0  0  0  0  0  0  0  0  0  0  0  0
  147.7000  157.6330  133.4200 C   0  0  0  0  0  0  0  0  0  0  0  0
  147.6060  159.1320  133.6590 C   0  0  0  0  0  0  0  0  0  0  0  0
  146.2590  159.5500  133.0640 C   0  0  2  0  0  0  0  0  0  0  0  0
  145.6520  160.7710  133.7860 C   0  0  0  0  0  0  0  0  0  0  0  0
  144.3230  161.0040  133.3540 O   0  0  0  0  0  0  0  0  0  0  0  0
  143.3670  160.3490  134.1690 C   0  0  0  0  0  0  0  0  0  0  0  0
  142.0630  160.5670  133.6810 O   0  0  0  0  0  0  0  0  0  0  0  0
  141.1300  159.0940  133.6370 Si  0  0  0  0  0  4  0  0  0  0  0  0
  139.5040  159.2570  132.7080 C   0  0  0  0  0  0  0  0  0  0  0  0
  142.1360  157.8190  132.7080 C   0  0  0  0  0  0  0  0  0  0  0  0
  140.8330  158.5050  135.4230 C   0  0  0  0  0  0  0  0  0  0  0  0
  140.6690  159.7320  136.3370 C   0  0  0  0  0  0  0  0  0  0  0  0
  142.0260  157.6620  135.9050 C   0  0  0  0  0  0  0  0  0  0  0  0
  139.5510  157.6560  135.4770 C   0  0  0  0  0  0  0  0  0  0  0  0
  145.3940  158.2900  133.1480 C   0  0  0  0  0  0  0  0  0  0  0  0
  144.6020  155.3960  133.2970 C   0  0  0  0  0  0  0  0  0  0  0  0
  144.2760  154.0410  133.1800 C   0  0  0  0  0  0  0  0  0  0  0  0
  143.9404  154.7291  137.3744 H   0  0  0  0  0  0  0  0  0  0  0  0
  144.2958  153.8889  135.8270 H   0  0  0  0  0  0  0  0  0  0  0  0
  143.8977  155.6405  135.8270 H   0  0  0  0  0  0  0  0  0  0  0  0
  141.7893  154.6339  138.2580 H   0  0  0  0  0  0  0  0  0  0  0  0
  141.4008  156.0460  137.2180 H   0  0  0  0  0  0  0  0  0  0  0  0
  140.3250  154.6075  137.2180 H   0  0  0  0  0  0  0  0  0  0  0  0
  141.9870  152.4601  137.2188 H   0  0  0  0  0  0  0  0  0  0  0  0
  141.0911  152.5291  135.6635 H   0  0  0  0  0  0  0  0  0  0  0  0
  142.8766  152.3326  135.6635 H   0  0  0  0  0  0  0  0  0  0  0  0
  140.6070  152.2600  133.9090 H   0  0  0  0  0  0  0  0  0  0  0  0
  145.0589  150.9220  132.4947 H   0  0  0  0  0  0  0  0  0  0  0  0
  147.2999  152.6934  132.3632 H   0  0  0  0  0  0  0  0  0  0  0  0
  147.9658  155.1035  132.6230 H   0  0  0  0  0  0  0  0  0  0  0  0
  148.1558  157.1336  134.2877 H   0  0  0  0  0  0  0  0  0  0  0  0
  148.3277  157.3982  132.5477 H   0  0  0  0  0  0  0  0  0  0  0  0
  147.6373  159.3535  134.7360 H   0  0  0  0  0  0  0  0  0  0  0  0
  148.4448  159.6749  133.1989 H   0  0  0  0  0  0  0  0  0  0  0  0
  146.3486  159.8978  132.0243 H   0  0  0  0  0  0  0  0  0  0  0  0
  145.6510  160.5846  134.8701 H   0  0  0  0  0  0  0  0  0  0  0  0
  146.2592  161.6572  133.5493 H   0  0  0  0  0  0  0  0  0  0  0  0
  143.5752  159.2689  134.1728 H   0  0  0  0  0  0  0  0  0  0  0  0
  143.4350  160.7545  135.1893 H   0  0  0  0  0  0  0  0  0  0  0  0
  138.6768  159.3399  133.4284 H   0  0  0  0  0  0  0  0  0  0  0  0
  139.5314  160.1569  132.0760 H   0  0  0  0  0  0  0  0  0  0  0  0
  139.3522  158.3696  132.0760 H   0  0  0  0  0  0  0  0  0  0  0  0
  142.6521  157.1649  133.4262 H   0  0  0  0  0  0  0  0  0  0  0  0
  141.4686  157.2149  132.0758 H   0  0  0  0  0  0  0  0  0  0  0  0
  142.8788  158.3276  132.0758 H   0  0  0  0  0  0  0  0  0  0  0  0
  140.7115  159.4138  137.3891 H   0  0  0  0  0  0  0  0  0  0  0  0
  141.4794  160.4486  136.1376 H   0  0  0  0  0  0  0  0  0  0  0  0
  139.6989  160.2107  136.1376 H   0  0  0  0  0  0  0  0  0  0  0  0
  142.0450  157.6486  137.0048 H   0  0  0  0  0  0  0  0  0  0  0  0
  141.9248  156.6338  135.5275 H   0  0  0  0  0  0  0  0  0  0  0  0
  142.9614  158.1008  135.5275 H   0  0  0  0  0  0  0  0  0  0  0  0
  139.2758  157.4738  136.5263 H   0  0  0  0  0  0  0  0  0  0  0  0
  138.7344  158.1925  134.9716 H   0  0  0  0  0  0  0  0  0  0  0  0
  139.7262  156.6948  134.9716 H   0  0  0  0  0  0  0  0  0  0  0  0
  144.7528  158.3231  134.0412 H   0  0  0  0  0  0  0  0  0  0  0  0
  144.7279  158.1943  132.2778 H   0  0  0  0  0  0  0  0  0  0  0  0
  143.8282  156.1400  133.5374 H   0  0  0  0  0  0  0  0  0  0  0  0
  1  2  1  0
  2  3  1  0
  2  4  1  0
  2  5  1  0
  5  6  1  0
  6  7  2  0
  6  8  1  0
  8  9  1  0
  9 10  1  0
 10 11  1  0
 10 12  2  0
  9 13  2  0
 13 14  1  0
 14 15  2  0
 15 16  1  0
 16 17  2  0
 17 18  1  0
 18 19  1  0
 19 20  1  0
 20 21  1  0
 21 22  1  0
 22 23  1  0
 23 24  1  0
 24 25  1  0
 25 26  1  0
 26 27  1  0
 26 28  1  0
 26 29  1  0
 29 30  1  0
 29 31  1  0
 29 32  1  0
 21 33  1  0
 17 34  1  0
 34 35  2  0
 35  8  1  0
 35 14  1  0
 33 18  1  0
  1 36  1  0
  1 37  1  0
  1 38  1  0
  3 39  1  0
  3 40  1  0
  3 41  1  0
  4 42  1  0
  4 43  1  0
  4 44  1  0
 11 45  1  0
 13 46  1  0
 15 47  1  0
 16 48  1  0
 19 49  1  0
 19 50  1  0
 20 51  1  0
 20 52  1  0
 21 53  1  6
 22 54  1  0
 22 55  1  0
 24 56  1  0
 24 57  1  0
 27 58  1  0
 27 59  1  0
 27 60  1  0
 28 61  1  0
 28 62  1  0
 28 63  1  0
 30 64  1  0
 30 65  1  0
 30 66  1  0
 31 67  1  0
 31 68  1  0
 31 69  1  0
 32 70  1  0
 32 71  1  0
 32 72  1  0
 33 73  1  0
 33 74  1  0
 34 75  1  0
M  CHG  1  11  -1
M  END
>  <UniqueID>  (6) 
6

>  <SMILES>  (6) 
CC(C)(C)OC(=O)n1c(C([NH-])=O)cc2ccc(N3CC[C@H](COCO[Si](C)(C)C(C)(C)C)C3)cc21

>  <Energy>  (6) 
98.47312729327848

>  <Genealogy>  (6) 
CC(C)(C)OC(=O)n1c(C([NH-])=O)cc2ccc(N3CCC(COCO[Si](C)(C)C(C)(C)C)C3)cc21 (protonated)
CC(C)(C)OC(=O)n1c(C([NH-])=O)cc2ccc(N3CC[C@H](COCO[Si](C)(C)C(C)(C)C)C3)cc21 (chirality)
CC(C)(C)OC(=O)n1c(C([NH-])=O)cc2ccc(N3CC[C@H](COCO[Si](C)(C)C(C)(C)C)C3)cc21 (3D coordinates assigned)
CC(C)(C)OC(=O)n1c(C([NH-])=O)cc2ccc(N3CC[C@H](COCO[Si](C)(C)C(C)(C)C)C3)cc21 (nonaromatic ring conformer: 98.47312729327848 kcal/mol)

>  <smiles>  (6) 
CC(C)(C)OC(=O)n1c(C(N)=O)cc2ccc(N3CCC(COCO[Si](C)(C)C(C)(C)C)C3)cc21

>  <score_type>  (6) 
oracle

>  <origin>  (6) 
adg

>  <m_score__min__energy>  (6) 
-8.9600000000000009

>  <m_primary>  (6) 
energy

$$$$
6:0
     RDKit          3D

 50 53  0  0  0  0  0  0  0  0999 V2000
  138.7600  157.0590  133.2610 N   0  0  0  0  0  0  0  0  0  0  0  0
  139.3740  157.8640  134.2670 C   0  0  0  0  0  0  0  0  0  0  0  0
  138.6960  158.2270  135.2660 O   0  0  0  0  0  0  0  0  0  0  0  0
  140.7620  158.3430  134.1190 C   0  0  0  0  0  0  0  0  0  0  0  0
  141.1410  159.6640  134.3420 C   0  0  0  0  0  0  0  0  0  0  0  0
  142.4800  159.7120  134.0340 C   0  0  0  0  0  0  0  0  0  0  0  0
  143.3660  160.7850  134.0760 C   0  0  0  0  0  0  0  0  0  0  0  0
  144.7030  160.5480  133.7240 C   0  0  0  0  0  0  0  0  0  0  0  0
  145.1370  159.2480  133.3510 C   0  0  0  0  0  0  0  0  0  0  0  0
  146.5530  159.0090  132.9720 C   0  0  0  0  0  0  0  0  0  0  0  0
  147.2040  157.8270  133.3650 C   0  0  0  0  0  0  0  0  0  0  0  0
  148.5370  157.6030  133.0120 C   0  0  0  0  0  0  0  0  0  0  0  0
  149.2350  158.5490  132.2590 C   0  0  0  0  0  0  0  0  0  0  0  0
  148.5980  159.7260  131.8430 C   0  0  0  0  0  0  0  0  0  0  0  0
  149.3640  160.7550  131.0630 C   0  0  0  0  0  0  0  0  0  0  0  0
  149.1180  160.5760  129.6950 O   0  0  0  0  0  0  0  0  0  0  0  0
  147.2640  159.9590  132.2140 C   0  0  0  0  0  0  0  0  0  0  0  0
  144.2040  158.1830  133.3280 C   0  0  0  0  0  0  0  0  0  0  0  0
  142.8710  158.4530  133.6560 C   0  0  0  0  0  0  0  0  0  0  0  0
  141.8240  157.5970  133.7050 N   0  0  0  0  0  0  0  0  0  0  0  0
  141.8550  156.1780  133.4740 C   0  0  0  0  0  0  0  0  0  0  0  0
  140.8490  155.5930  132.9880 O   0  0  0  0  0  0  0  0  0  0  0  0
  143.0030  155.4470  133.7940 O   0  0  0  0  0  0  0  0  0  0  0  0
  143.9300  154.9770  132.8180 C   0  0  0  0  0  0  0  0  0  0  0  0
  145.2950  154.8320  133.4310 C   0  0  0  0  0  0  0  0  0  0  0  0
  146.3860  154.4580  132.6280 C   0  0  0  0  0  0  0  0  0  0  0  0
  147.6550  154.3090  133.1970 C   0  0  0  0  0  0  0  0  0  0  0  0
  147.8440  154.5250  134.5640 C   0  0  0  0  0  0  0  0  0  0  0  0
  146.7610  154.8930  135.3680 C   0  0  0  0  0  0  0  0  0  0  0  0
  145.4890  155.0450  134.8050 C   0  0  0  0  0  0  0  0  0  0  0  0
  137.7940  156.6920  133.4010 H   0  0  0  0  0  0  0  0  0  0  0  0
  139.2270  156.9010  132.3420 H   0  0  0  0  0  0  0  0  0  0  0  0
  140.5055  160.4917  134.6899 H   0  0  0  0  0  0  0  0  0  0  0  0
  143.0280  161.7879  134.3760 H   0  0  0  0  0  0  0  0  0  0  0  0
  145.4239  161.3788  133.7370 H   0  0  0  0  0  0  0  0  0  0  0  0
  146.6606  157.0736  133.9542 H   0  0  0  0  0  0  0  0  0  0  0  0
  149.0390  156.6769  133.3288 H   0  0  0  0  0  0  0  0  0  0  0  0
  150.2869  158.3702  131.9917 H   0  0  0  0  0  0  0  0  0  0  0  0
  149.0405  161.7618  131.3660 H   0  0  0  0  0  0  0  0  0  0  0  0
  150.4400  160.6429  131.2620 H   0  0  0  0  0  0  0  0  0  0  0  0
  148.4700  161.2800  129.4320 H   0  0  0  0  0  0  0  0  0  0  0  0
  146.7694  160.8931  131.9094 H   0  0  0  0  0  0  0  0  0  0  0  0
  144.5207  157.1648  133.0579 H   0  0  0  0  0  0  0  0  0  0  0  0
  143.5955  154.0000  132.4390 H   0  0  0  0  0  0  0  0  0  0  0  0
  143.9811  155.7010  131.9914 H   0  0  0  0  0  0  0  0  0  0  0  0
  146.2419  154.2824  131.5517 H   0  0  0  0  0  0  0  0  0  0  0  0
  148.5079  154.0205  132.5652 H   0  0  0  0  0  0  0  0  0  0  0  0
  148.8436  154.4057  135.0074 H   0  0  0  0  0  0  0  0  0  0  0  0
  146.9091  155.0633  136.4446 H   0  0  0  0  0  0  0  0  0  0  0  0
  144.6386  155.3322  135.4409 H   0  0  0  0  0  0  0  0  0  0  0  0
  1  2  1  0
  2  3  2  0
  2  4  1  0
  4  5  2  0
  5  6  1  0
  6  7  2  0
  7  8  1  0
  8  9  2  0
  9 10  1  0
 10 11  2  0
 11 12  1  0
 12 13  2  0
 13 14  1  0
 14 15  1  0
 15 16  1  0
 14 17  2  0
  9 18  1  0
 18 19  2  0
 19 20  1  0
 20 21  1  0
 21 22  2  0
 21 23  1  0
 23 24  1  0
 24 25  1  0
 25 26  2  0
 26 27  1  0
 27 28  2  0
 28 29  1  0
 29 30  2  0
 20  4  1  0
 30 25  1  0
 19  6  1  0
 17 10  1  0
  1 31  1  0
  1 32  1  0
  5 33  1  0
  7 34  1  0
  8 35  1  0
 11 36  1  0
 12 37  1  0
 13 38  1  0
 15 39  1  0
 15 40  1  0
 16 41  1  0
 17 42  1  0
 18 43  1  0
 24 44  1  0
 24 45  1  0
 26 46  1  0
 27 47  1  0
 28 48  1  0
 29 49  1  0
 30 50  1  0
M  END
>  <UniqueID>  (7) 
7

>  <SMILES>  (7) 
NC(=O)c1cc2ccc(-c3cccc(CO)c3)cc2n1C(=O)OCc1ccccc1

>  <Energy>  (7) 
96.58746053848334

>  <Genealogy>  (7) 
NC(=O)c1cc2ccc(-c3cccc(CO)c3)cc2n1C(=O)OCc1ccccc1 (3D coordinates assigned)
NC(=O)c1cc2ccc(-c3cccc(CO)c3)cc2n1C(=O)OCc1ccccc1 (optimized conformer: 96.58746053848334 kcal/mol)

>  <smiles>  (7) 
NC(=O)c1cc2ccc(-c3cccc(CO)c3)cc2n1C(=O)OCc1ccccc1

>  <score_type>  (7) 
oracle

>  <origin>  (7) 
adg

>  <m_score__min__energy>  (7) 
-9.7799999999999994

>  <m_primary>  (7) 
energy

$$$$
7:0
     RDKit          3D

 37 39  0  0  0  0  0  0  0  0999 V2000
  148.8940  158.0880  131.8830 N   0  0  0  0  0  0  0  0  0  0  0  0
  148.4130  158.7100  133.0720 C   0  0  0  0  0  0  0  0  0  0  0  0
  149.2280  159.0090  133.9860 O   0  0  0  0  0  0  0  0  0  0  0  0
  146.9690  158.9550  133.2700 C   0  0  0  0  0  0  0  0  0  0  0  0
  146.4060  160.2290  133.3000 C   0  0  0  0  0  0  0  0  0  0  0  0
  145.0770  160.0340  133.5950 C   0  0  0  0  0  0  0  0  0  0  0  0
  144.0460  160.9590  133.7290 C   0  0  0  0  0  0  0  0  0  0  0  0
  142.7570  160.4730  134.0040 C   0  0  0  0  0  0  0  0  0  0  0  0
  142.5240  159.0810  134.1400 C   0  0  0  0  0  0  0  0  0  0  0  0
  141.1310  158.5700  134.3840 C   0  0  0  0  0  0  0  0  0  0  0  0
  140.6720  157.6840  133.2220 C   0  0  0  0  0  0  0  0  0  0  0  0
  139.7510  158.4460  132.3080 C   0  0  0  0  0  0  0  0  0  0  0  0
  140.2730  159.3710  131.3880 C   0  0  0  0  0  0  0  0  0  0  0  0
  139.4130  160.1030  130.5610 C   0  0  0  0  0  0  0  0  0  0  0  0
  138.0310  159.9220  130.6540 C   0  0  0  0  0  0  0  0  0  0  0  0
  137.5030  159.0130  131.5750 C   0  0  0  0  0  0  0  0  0  0  0  0
  138.3590  158.2810  132.4040 C   0  0  0  0  0  0  0  0  0  0  0  0
  143.5930  158.1710  133.9840 C   0  0  0  0  0  0  0  0  0  0  0  0
  144.8710  158.6840  133.7280 C   0  0  0  0  0  0  0  0  0  0  0  0
  146.0230  158.0070  133.5280 N   0  0  0  0  0  0  0  0  0  0  0  0
  146.1790  156.5790  133.4920 C   0  0  0  0  0  0  0  0  0  0  0  0
  145.6250  155.8580  134.3630 O   0  0  0  0  0  0  0  0  0  0  0  0
  146.9170  155.9790  132.4810 O   0  0  0  0  0  0  0  0  0  0  0  0
  148.4780  157.1940  131.5390 H   0  0  0  0  0  0  0  0  0  0  0  0
  146.9163  161.1876  133.1249 H   0  0  0  0  0  0  0  0  0  0  0  0
  144.2346  162.0375  133.6229 H   0  0  0  0  0  0  0  0  0  0  0  0
  141.9207  161.1789  134.1149 H   0  0  0  0  0  0  0  0  0  0  0  0
  141.1190  157.9823  135.3137 H   0  0  0  0  0  0  0  0  0  0  0  0
  140.4476  159.4279  134.4680 H   0  0  0  0  0  0  0  0  0  0  0  0
  141.5518  157.3499  132.6524 H   0  0  0  0  0  0  0  0  0  0  0  0
  140.1310  156.8169  133.6288 H   0  0  0  0  0  0  0  0  0  0  0  0
  141.3605  159.5203  131.3175 H   0  0  0  0  0  0  0  0  0  0  0  0
  139.8257  160.8213  129.8373 H   0  0  0  0  0  0  0  0  0  0  0  0
  137.3570  160.4960  130.0011 H   0  0  0  0  0  0  0  0  0  0  0  0
  136.4143  158.8733  131.6478 H   0  0  0  0  0  0  0  0  0  0  0  0
  137.9406  157.5729  133.1345 H   0  0  0  0  0  0  0  0  0  0  0  0
  143.4260  157.0865  134.0616 H   0  0  0  0  0  0  0  0  0  0  0  0
  1  2  1  0
  2  3  2  0
  2  4  1  0
  4  5  2  0
  5  6  1  0
  6  7  2  0
  7  8  1  0
  8  9  2  0
  9 10  1  0
 10 11  1  0
 11 12  1  0
 12 13  2  0
 13 14  1  0
 14 15  2  0
 15 16  1  0
 16 17  2  0
  9 18  1  0
 18 19  2  0
 19 20  1  0
 20 21  1  0
 21 22  2  0
 21 23  1  0
 20  4  1  0
 19  6  1  0
 17 12  1  0
  1 24  1  0
  5 25  1  0
  7 26  1  0
  8 27  1  0
 10 28  1  0
 10 29  1  0
 11 30  1  0
 11 31  1  0
 13 32  1  0
 14 33  1  0
 15 34  1  0
 16 35  1  0
 17 36  1  0
 18 37  1  0
M  CHG  2   1  -1  23  -1
M  END
>  <UniqueID>  (8) 
8

>  <SMILES>  (8) 
[NH-]C(=O)c1cc2ccc(CCc3ccccc3)cc2n1C(=O)[O-]

>  <Energy>  (8) 
76.14419305918705

>  <Genealogy>  (8) 
[NH-]C(=O)c1cc2ccc(CCc3ccccc3)cc2n1C(=O)[O-] (protonated)
[NH-]C(=O)c1cc2ccc(CCc3ccccc3)cc2n1C(=O)[O-] (3D coordinates assigned)
[NH-]C(=O)c1cc2ccc(CCc3ccccc3)cc2n1C(=O)[O-] (optimized conformer: 76.14419305918705 kcal/mol)

>  <smiles>  (8) 
NC(=O)c1cc2ccc(CCc3ccccc3)cc2n1C(=O)O

>  <score_type>  (8) 
oracle

>  <origin>  (8) 
adg

>  <m_score__min__energy>  (8) 
-8.0099999999999998

>  <m_primary>  (8) 
energy

$$$$
8:0
     RDKit          3D

 43 44  0  0  0  0  0  0  0  0999 V2000
  138.5400  160.4790  130.3450 C   0  0  0  0  0  0  0  0  0  0  0  0
  139.1510  159.8400  131.5920 C   0  0  0  0  0  0  0  0  0  0  0  0
  138.7260  158.3800  131.7540 C   0  0  0  0  0  0  0  0  0  0  0  0
  138.7250  158.0070  133.1650 N   0  0  0  0  0  0  0  0  0  0  0  0
  139.5340  156.9740  133.7380 C   0  0  0  0  0  0  0  0  0  0  0  0
  139.5670  155.8480  133.1720 O   0  0  0  0  0  0  0  0  0  0  0  0
  140.3880  157.2080  134.9570 C   0  0  0  0  0  0  0  0  0  0  0  0
  141.7830  156.7980  134.7120 N   0  0  0  0  0  0  0  0  0  0  0  0
  142.1270  155.3730  134.8060 C   0  0  0  0  0  0  0  0  0  0  0  0
  142.8060  157.7700  134.3590 C   0  0  0  0  0  0  0  0  0  0  0  0
  142.4970  159.1590  134.3020 C   0  0  0  0  0  0  0  0  0  0  0  0
  143.4760  160.1080  133.9680 C   0  0  0  0  0  0  0  0  0  0  0  0
  144.7560  159.6520  133.6790 C   0  0  0  0  0  0  0  0  0  0  0  0
  145.8930  160.3570  133.3590 C   0  0  0  0  0  0  0  0  0  0  0  0
  146.8840  159.3940  133.1840 C   0  0  0  0  0  0  0  0  0  0  0  0
  148.2660  159.7160  132.7780 C   0  0  0  0  0  0  0  0  0  0  0  0
  149.3800  158.9900  133.2990 N   0  0  0  0  0  0  0  0  0  0  0  0
  148.4650  160.6120  131.9140 O   0  0  0  0  0  0  0  0  0  0  0  0
  146.3840  158.1450  133.3980 N   0  0  0  0  0  0  0  0  0  0  0  0
  147.1110  156.9050  133.4070 C   0  0  0  0  0  0  0  0  0  0  0  0
  146.9790  155.9850  132.3260 N   0  0  0  0  0  0  0  0  0  0  0  0
  147.8800  156.6290  134.3670 O   0  0  0  0  0  0  0  0  0  0  0  0
  145.0770  158.3210  133.7020 C   0  0  0  0  0  0  0  0  0  0  0  0
  144.1310  157.3560  134.0630 C   0  0  0  0  0  0  0  0  0  0  0  0
  137.8087  161.2438  130.6457 H   0  0  0  0  0  0  0  0  0  0  0  0
  139.3349  160.9472  129.7460 H   0  0  0  0  0  0  0  0  0  0  0  0
  138.0366  159.7058  129.7460 H   0  0  0  0  0  0  0  0  0  0  0  0
  140.2473  159.8841  131.5128 H   0  0  0  0  0  0  0  0  0  0  0  0
  138.7928  160.3977  132.4699 H   0  0  0  0  0  0  0  0  0  0  0  0
  137.7141  158.2488  131.3431 H   0  0  0  0  0  0  0  0  0  0  0  0
  139.4377  157.7379  131.2144 H   0  0  0  0  0  0  0  0  0  0  0  0
  140.3669  158.2781  135.2108 H   0  0  0  0  0  0  0  0  0  0  0  0
  139.9868  156.6070  135.7864 H   0  0  0  0  0  0  0  0  0  0  0  0
  142.1973  155.0818  135.8644 H   0  0  0  0  0  0  0  0  0  0  0  0
  141.3476  154.7743  134.3120 H   0  0  0  0  0  0  0  0  0  0  0  0
  143.0937  155.1958  134.3120 H   0  0  0  0  0  0  0  0  0  0  0  0
  141.4730  159.4942  134.5236 H   0  0  0  0  0  0  0  0  0  0  0  0
  143.2366  161.1812  133.9361 H   0  0  0  0  0  0  0  0  0  0  0  0
  145.9973  161.4477  133.2620 H   0  0  0  0  0  0  0  0  0  0  0  0
  150.3530  159.2600  133.0340 H   0  0  0  0  0  0  0  0  0  0  0  0
  149.2420  158.1300  133.8750 H   0  0  0  0  0  0  0  0  0  0  0  0
  146.4530  156.2430  131.4620 H   0  0  0  0  0  0  0  0  0  0  0  0
  144.4095  156.2932  134.1167 H   0  0  0  0  0  0  0  0  0  0  0  0
  1  2  1  0
  2  3  1  0
  3  4  1  0
  4  5  1  0
  5  6  2  0
  5  7  1  0
  7  8  1  0
  8  9  1  0
  8 10  1  0
 10 11  2  0
 11 12  1  0
 12 13  2  0
 13 14  1  0
 14 15  2  0
 15 16  1  0
 16 17  1  0
 16 18  2  0
 15 19  1  0
 19 20  1  0
 20 21  1  0
 20 22  2  0
 19 23  1  0
 23 24  2  0
 24 10  1  0
 23 13  1  0
  1 25  1  0
  1 26  1  0
  1 27  1  0
  2 28  1  0
  2 29  1  0
  3 30  1  0
  3 31  1  0
  7 32  1  0
  7 33  1  0
  9 34  1  0
  9 35  1  0
  9 36  1  0
 11 37  1  0
 12 38  1  0
 14 39  1  0
 17 40  1  0
 17 41  1  0
 21 42  1  0
 24 43  1  0
M  CHG  2   4  -1  21  -1
M  END
>  <UniqueID>  (9) 
9

>  <SMILES>  (9) 
CCC[N-]C(=O)CN(C)c1ccc2cc(C(N)=O)n(C([NH-])=O)c2c1

>  <Energy>  (9) 
77.10349870653796

>  <Genealogy>  (9) 
CCC[N-]C(=O)CN(C)c1ccc2cc(C(N)=O)n(C([NH-])=O)c2c1 (protonated)
CCC[N-]C(=O)CN(C)c1ccc2cc(C(N)=O)n(C([NH-])=O)c2c1 (3D coordinates assigned)
CCC[N-]C(=O)CN(C)c1ccc2cc(C(N)=O)n(C([NH-])=O)c2c1 (optimized conformer: 77.10349870653796 kcal/mol)

>  <smiles>  (9) 
CCCNC(=O)CN(C)c1ccc2cc(C(N)=O)n(C(N)=O)c2c1

>  <score_type>  (9) 
oracle

>  <origin>  (9) 
adg

>  <m_score__min__energy>  (9) 
-7.4900000000000002

>  <m_primary>  (9) 
energy

$$$$
9:0
     RDKit          3D

 48 50  0  0  0  0  0  0  0  0999 V2000
  136.3780  159.8600  130.7200 C   0  0  0  0  0  0  0  0  0  0  0  0
  137.8950  159.9440  130.9840 C   0  0  0  0  0  0  0  0  0  0  0  0
  138.6120  160.4210  129.7040 C   0  0  0  0  0  0  0  0  0  0  0  0
  138.1340  160.8540  132.0310 O   0  0  0  0  0  0  0  0  0  0  0  0
  138.4050  158.5420  131.4090 C   0  0  0  0  0  0  0  0  0  0  0  0
  139.0710  158.5630  132.7270 N   0  0  0  0  0  0  0  0  0  0  0  0
  138.5220  157.8580  133.7570 C   0  0  0  0  0  0  0  0  0  0  0  0
  139.1340  157.8320  135.0000 C   0  0  0  0  0  0  0  0  0  0  0  0
  140.3180  158.5390  135.1820 C   0  0  0  0  0  0  0  0  0  0  0  0
  140.8770  158.5040  136.3120 O   0  0  0  0  0  0  0  0  0  0  0  0
  140.8580  159.2610  134.1480 N   0  0  0  0  0  0  0  0  0  0  0  0
  142.1380  159.9770  134.3260 C   0  0  0  0  0  0  0  0  0  0  0  0
  143.2960  159.0490  134.0660 C   0  0  0  0  0  0  0  0  0  0  0  0
  143.1710  157.6600  134.3240 C   0  0  0  0  0  0  0  0  0  0  0  0
  144.2540  156.7920  134.1100 C   0  0  0  0  0  0  0  0  0  0  0  0
  145.4490  157.3390  133.6520 C   0  0  0  0  0  0  0  0  0  0  0  0
  146.6410  156.7260  133.3460 C   0  0  0  0  0  0  0  0  0  0  0  0
  147.4890  157.7510  132.9310 C   0  0  0  0  0  0  0  0  0  0  0  0
  148.9150  157.5530  132.5910 C   0  0  0  0  0  0  0  0  0  0  0  0
  149.7790  158.6730  132.3900 N   0  0  0  0  0  0  0  0  0  0  0  0
  149.3750  156.3900  132.4420 O   0  0  0  0  0  0  0  0  0  0  0  0
  146.8430  158.9520  132.9760 N   0  0  0  0  0  0  0  0  0  0  0  0
  147.3500  160.2380  132.5780 C   0  0  0  0  0  0  0  0  0  0  0  0
  147.3320  161.2060  133.3850 O   0  0  0  0  0  0  0  0  0  0  0  0
  147.8750  160.4240  131.3060 O   0  0  0  0  0  0  0  0  0  0  0  0
  145.5950  158.6820  133.4190 C   0  0  0  0  0  0  0  0  0  0  0  0
  144.5260  159.5670  133.6030 C   0  0  0  0  0  0  0  0  0  0  0  0
  140.2290  159.2750  132.9250 C   0  0  0  0  0  0  0  0  0  0  0  0
  140.7190  159.9500  131.9750 O   0  0  0  0  0  0  0  0  0  0  0  0
  135.8400  159.8302  131.6790 H   0  0  0  0  0  0  0  0  0  0  0  0
  136.0563  160.7417  130.1463 H   0  0  0  0  0  0  0  0  0  0  0  0
  136.1556  158.9482  130.1463 H   0  0  0  0  0  0  0  0  0  0  0  0
  139.4988  161.0110  129.9787 H   0  0  0  0  0  0  0  0  0  0  0  0
  138.9217  159.5483  129.1103 H   0  0  0  0  0  0  0  0  0  0  0  0
  137.9267  161.0438  129.1103 H   0  0  0  0  0  0  0  0  0  0  0  0
  138.9990  161.3090  131.8530 H   0  0  0  0  0  0  0  0  0  0  0  0
  137.5484  157.8536  131.4566 H   0  0  0  0  0  0  0  0  0  0  0  0
  139.1443  158.2130  130.6639 H   0  0  0  0  0  0  0  0  0  0  0  0
  137.5844  157.3047  133.5997 H   0  0  0  0  0  0  0  0  0  0  0  0
  138.6906  157.2614  135.8294 H   0  0  0  0  0  0  0  0  0  0  0  0
  142.1833  160.8203  133.6212 H   0  0  0  0  0  0  0  0  0  0  0  0
  142.2007  160.3468  135.3601 H   0  0  0  0  0  0  0  0  0  0  0  0
  142.2165  157.2587  134.6953 H   0  0  0  0  0  0  0  0  0  0  0  0
  144.1606  155.7123  134.2987 H   0  0  0  0  0  0  0  0  0  0  0  0
  146.8757  155.6535  133.4143 H   0  0  0  0  0  0  0  0  0  0  0  0
  149.4510  159.6490  132.5580 H   0  0  0  0  0  0  0  0  0  0  0  0
  150.7740  158.5240  132.1110 H   0  0  0  0  0  0  0  0  0  0  0  0
  144.6411  160.6404  133.3920 H   0  0  0  0  0  0  0  0  0  0  0  0
  1  2  1  0
  2  3  1  0
  2  4  1  0
  2  5  1  0
  5  6  1  0
  6  7  1  0
  7  8  2  0
  8  9  1  0
  9 10  2  0
  9 11  1  0
 11 12  1  0
 12 13  1  0
 13 14  2  0
 14 15  1  0
 15 16  2  0
 16 17  1  0
 17 18  2  0
 18 19  1  0
 19 20  1  0
 19 21  2  0
 18 22  1  0
 22 23  1  0
 23 24  2  0
 23 25  1  0
 22 26  1  0
 26 27  2  0
 11 28  1  0
 28 29  2  0
 28  6  1  0
 27 13  1  0
 26 16  1  0
  1 30  1  0
  1 31  1  0
  1 32  1  0
  3 33  1  0
  3 34  1  0
  3 35  1  0
  4 36  1  0
  5 37  1  0
  5 38  1  0
  7 39  1  0
  8 40  1  0
 12 41  1  0
 12 42  1  0
 14 43  1  0
 15 44  1  0
 17 45  1  0
 20 46  1  0
 20 47  1  0
 27 48  1  0
M  CHG  1  25  -1
M  END
>  <UniqueID>  (10) 
10

>  <SMILES>  (10) 
CC(C)(O)Cn1ccc(=O)n(Cc2ccc3cc(C(N)=O)n(C(=O)[O-])c3c2)c1=O

>  <Energy>  (10) 
91.21147801021007

>  <Genealogy>  (10) 
CC(C)(O)Cn1ccc(=O)n(Cc2ccc3cc(C(N)=O)n(C(=O)[O-])c3c2)c1=O (protonated)
CC(C)(O)Cn1ccc(=O)n(Cc2ccc3cc(C(N)=O)n(C(=O)[O-])c3c2)c1=O (3D coordinates assigned)
CC(C)(O)Cn1ccc(=O)n(Cc2ccc3cc(C(N)=O)n(C(=O)[O-])c3c2)c1=O (optimized conformer: 91.21147801021007 kcal/mol)

>  <smiles>  (10) 
CC(C)(O)Cn1ccc(=O)n(Cc2ccc3cc(C(N)=O)n(C(=O)O)c3c2)c1=O

>  <score_type>  (10) 
oracle

>  <origin>  (10) 
adg

>  <m_score__min__energy>  (10) 
-8.3699999999999992

>  <m_primary>  (10) 
energy

$$$$
10:0
     RDKit          3D

 44 46  0  0  0  0  0  0  0  0999 V2000
  143.9810  155.0090  132.2210 C   0  0  0  0  0  0  0  0  0  0  0  0
  143.4180  154.3570  133.4920 C   0  0  0  0  0  0  0  0  0  0  0  0
  142.5170  153.1750  133.0880 C   0  0  0  0  0  0  0  0  0  0  0  0
  144.5920  153.8720  134.3640 C   0  0  0  0  0  0  0  0  0  0  0  0
  142.6580  155.3600  134.1810 O   0  0  0  0  0  0  0  0  0  0  0  0
  141.6270  156.1420  133.6380 C   0  0  0  0  0  0  0  0  0  0  0  0
  140.6900  155.6140  132.9820 O   0  0  0  0  0  0  0  0  0  0  0  0
  141.6380  157.5650  133.8450 N   0  0  0  0  0  0  0  0  0  0  0  0
  140.5700  158.3670  134.1210 C   0  0  0  0  0  0  0  0  0  0  0  0
  139.1990  157.8980  134.4230 C   0  0  0  0  0  0  0  0  0  0  0  0
  138.4740  157.1110  133.4770 N   0  0  0  0  0  0  0  0  0  0  0  0
  138.6460  158.2180  135.5080 O   0  0  0  0  0  0  0  0  0  0  0  0
  140.9650  159.7020  134.1740 C   0  0  0  0  0  0  0  0  0  0  0  0
  142.3170  159.6930  133.9210 C   0  0  0  0  0  0  0  0  0  0  0  0
  143.2180  160.7500  133.8390 C   0  0  0  0  0  0  0  0  0  0  0  0
  144.5560  160.4530  133.5320 C   0  0  0  0  0  0  0  0  0  0  0  0
  144.9710  159.1140  133.3050 C   0  0  0  0  0  0  0  0  0  0  0  0
  146.3860  158.8130  132.9680 C   0  0  0  0  0  0  0  0  0  0  0  0
  146.8890  157.5050  133.0720 C   0  0  0  0  0  0  0  0  0  0  0  0
  148.2210  157.2370  132.7520 C   0  0  0  0  0  0  0  0  0  0  0  0
  149.0450  158.2790  132.3280 C   0  0  0  0  0  0  0  0  0  0  0  0
  150.3410  158.0370  132.0140 F   0  0  0  0  0  0  0  0  0  0  0  0
  148.5500  159.5410  132.2290 N   0  0  0  0  0  0  0  0  0  0  0  0
  147.2580  159.8290  132.5360 C   0  0  0  0  0  0  0  0  0  0  0  0
  144.0220  158.0690  133.3980 C   0  0  0  0  0  0  0  0  0  0  0  0
  142.7000  158.3920  133.7250 C   0  0  0  0  0  0  0  0  0  0  0  0
  144.6765  155.8145  132.4993 H   0  0  0  0  0  0  0  0  0  0  0  0
  144.5147  154.2528  131.6265 H   0  0  0  0  0  0  0  0  0  0  0  0
  143.1551  155.4268  131.6265 H   0  0  0  0  0  0  0  0  0  0  0  0
  142.1376  152.6773  133.9926 H   0  0  0  0  0  0  0  0  0  0  0  0
  141.6707  153.5463  132.4914 H   0  0  0  0  0  0  0  0  0  0  0  0
  143.0992  152.4573  132.4914 H   0  0  0  0  0  0  0  0  0  0  0  0
  144.3289  153.9807  135.4265 H   0  0  0  0  0  0  0  0  0  0  0  0
  144.7997  152.8144  134.1440 H   0  0  0  0  0  0  0  0  0  0  0  0
  145.4856  154.4746  134.1440 H   0  0  0  0  0  0  0  0  0  0  0  0
  138.9160  156.7830  132.5910 H   0  0  0  0  0  0  0  0  0  0  0  0
  137.4930  156.8180  133.6830 H   0  0  0  0  0  0  0  0  0  0  0  0
  140.3303  160.5775  134.3754 H   0  0  0  0  0  0  0  0  0  0  0  0
  142.8923  161.7868  134.0094 H   0  0  0  0  0  0  0  0  0  0  0  0
  145.2919  161.2680  133.4666 H   0  0  0  0  0  0  0  0  0  0  0  0
  146.2309  156.6896  133.4067 H   0  0  0  0  0  0  0  0  0  0  0  0
  148.6168  156.2139  132.8335 H   0  0  0  0  0  0  0  0  0  0  0  0
  146.8918  160.8624  132.4462 H   0  0  0  0  0  0  0  0  0  0  0  0
  144.3168  157.0248  133.2172 H   0  0  0  0  0  0  0  0  0  0  0  0
  1  2  1  0
  2  3  1  0
  2  4  1  0
  2  5  1  0
  5  6  1  0
  6  7  2  0
  6  8  1  0
  8  9  1  0
  9 10  1  0
 10 11  1  0
 10 12  2  0
  9 13  2  0
 13 14  1  0
 14 15  2  0
 15 16  1  0
 16 17  2  0
 17 18  1  0
 18 19  2  0
 19 20  1  0
 20 21  2  0
 21 22  1  0
 21 23  1  0
 23 24  2  0
 17 25  1  0
 25 26  2  0
 26  8  1  0
 26 14  1  0
 24 18  1  0
  1 27  1  0
  1 28  1  0
  1 29  1  0
  3 30  1  0
  3 31  1  0
  3 32  1  0
  4 33  1  0
  4 34  1  0
  4 35  1  0
 11 36  1  0
 11 37  1  0
 13 38  1  0
 15 39  1  0
 16 40  1  0
 19 41  1  0
 20 42  1  0
 24 43  1  0
 25 44  1  0
M  END
>  <UniqueID>  (11) 
11

>  <SMILES>  (11) 
CC(C)(C)OC(=O)n1c(C(N)=O)cc2ccc(-c3ccc(F)nc3)cc21

>  <Energy>  (11) 
85.94327542055024

>  <Genealogy>  (11) 
CC(C)(C)OC(=O)n1c(C(N)=O)cc2ccc(-c3ccc(F)nc3)cc21 (3D coordinates assigned)
CC(C)(C)OC(=O)n1c(C(N)=O)cc2ccc(-c3ccc(F)nc3)cc21 (optimized conformer: 85.94327542055024 kcal/mol)

>  <smiles>  (11) 
CC(C)(C)OC(=O)n1c(C(N)=O)cc2ccc(-c3ccc(F)nc3)cc21

>  <score_type>  (11) 
oracle

>  <origin>  (11) 
adg

>  <m_score__min__energy>  (11) 
-7.9500000000000002

>  <m_primary>  (11) 
energy

$$$$
11:0
     RDKit          3D

 28 29  0  0  0  0  0  0  0  0999 V2000
  149.2600  160.9910  130.6120 C   0  0  0  0  0  0  0  0  0  0  0  0
  149.6050  159.8040  131.1170 C   0  0  0  0  0  0  0  0  0  0  0  0
  149.3970  159.4720  132.5680 C   0  0  0  0  0  0  0  0  0  0  0  0
  147.9570  159.1220  132.8340 C   0  0  0  0  0  0  0  0  0  0  0  0
  147.5170  157.7790  132.7230 C   0  0  0  0  0  0  0  0  0  0  0  0
  146.1790  157.4410  132.9870 C   0  0  0  0  0  0  0  0  0  0  0  0
  145.3120  158.4590  133.3730 C   0  0  0  0  0  0  0  0  0  0  0  0
  143.9700  158.4130  133.6680 C   0  0  0  0  0  0  0  0  0  0  0  0
  143.6160  159.7230  133.9850 C   0  0  0  0  0  0  0  0  0  0  0  0
  142.2680  160.1100  134.4530 C   0  0  0  0  0  0  0  0  0  0  0  0
  141.7350  159.5280  135.6410 N   0  0  0  0  0  0  0  0  0  0  0  0
  141.5970  160.9790  133.8370 O   0  0  0  0  0  0  0  0  0  0  0  0
  144.6950  160.5490  133.8840 N   0  0  0  0  0  0  0  0  0  0  0  0
  144.7310  161.9760  134.0590 C   0  0  0  0  0  0  0  0  0  0  0  0
  145.5760  162.5010  134.8300 O   0  0  0  0  0  0  0  0  0  0  0  0
  143.8520  162.7900  133.3560 O   0  0  0  0  0  0  0  0  0  0  0  0
  145.7280  159.7600  133.5110 C   0  0  0  0  0  0  0  0  0  0  0  0
  147.0500  160.1280  133.2370 C   0  0  0  0  0  0  0  0  0  0  0  0
  149.4250  161.2039  129.5455 H   0  0  0  0  0  0  0  0  0  0  0  0
  148.8108  161.7559  131.2625 H   0  0  0  0  0  0  0  0  0  0  0  0
  150.0531  159.0495  130.4538 H   0  0  0  0  0  0  0  0  0  0  0  0
  150.0322  158.6151  132.8368 H   0  0  0  0  0  0  0  0  0  0  0  0
  149.6644  160.3508  133.1732 H   0  0  0  0  0  0  0  0  0  0  0  0
  148.2293  156.9946  132.4276 H   0  0  0  0  0  0  0  0  0  0  0  0
  145.8274  156.4031  132.8915 H   0  0  0  0  0  0  0  0  0  0  0  0
  143.3147  157.5296  133.6563 H   0  0  0  0  0  0  0  0  0  0  0  0
  142.1770  159.7040  136.5690 H   0  0  0  0  0  0  0  0  0  0  0  0
  147.3752  161.1745  133.3329 H   0  0  0  0  0  0  0  0  0  0  0  0
  1  2  2  0
  2  3  1  0
  3  4  1  0
  4  5  2  0
  5  6  1  0
  6  7  2  0
  7  8  1  0
  8  9  2  0
  9 10  1  0
 10 11  1  0
 10 12  2  0
  9 13  1  0
 13 14  1  0
 14 15  2  0
 14 16  1  0
 13 17  1  0
 17 18  2  0
 18  4  1  0
 17  7  1  0
  1 19  1  0
  1 20  1  0
  2 21  1  0
  3 22  1  0
  3 23  1  0
  5 24  1  0
  6 25  1  0
  8 26  1  0
 11 27  1  0
 18 28  1  0
M  CHG  2  11  -1  16  -1
M  END
>  <UniqueID>  (12) 
12

>  <SMILES>  (12) 
C=CCc1ccc2cc(C([NH-])=O)n(C(=O)[O-])c2c1

>  <Energy>  (12) 
64.40829664081735

>  <Genealogy>  (12) 
C=CCc1ccc2cc(C([NH-])=O)n(C(=O)[O-])c2c1 (protonated)
C=CCc1ccc2cc(C([NH-])=O)n(C(=O)[O-])c2c1 (3D coordinates assigned)
C=CCc1ccc2cc(C([NH-])=O)n(C(=O)[O-])c2c1 (optimized conformer: 64.40829664081735 kcal/mol)

>  <smiles>  (12) 
C=CCc1ccc2cc(C(N)=O)n(C(=O)O)c2c1

>  <score_type>  (12) 
oracle

>  <origin>  (12) 
adg

>  <m_score__min__energy>  (12) 
-6.4500000000000002

>  <m_primary>  (12) 
energy

$$$$
12:0
     RDKit          3D

 58 59  0  0  0  0  0  0  0  0999 V2000
  140.9920  157.8500  136.4860 C   0  0  0  0  0  0  0  0  0  0  0  0
  141.4180  158.7630  135.3270 C   0  0  2  0  0  0  0  0  0  0  0  0
  140.2290  159.2330  134.4350 C   0  0  0  0  0  0  0  0  0  0  0  0
  139.8970  158.4450  133.1230 C   0  0  0  0  0  0  0  0  0  0  0  0
  138.3920  158.0970  133.1070 C   0  0  0  0  0  0  0  0  0  0  0  0
  140.1840  159.2900  131.8680 C   0  0  0  0  0  0  0  0  0  0  0  0
  140.6730  157.2410  133.0120 O   0  0  0  0  0  0  0  0  0  0  0  0
  140.3580  155.9900  133.5640 C   0  0  0  0  0  0  0  0  0  0  0  0
  139.2980  155.2300  132.9920 N   0  0  0  0  0  0  0  0  0  0  0  0
  140.9970  155.5220  134.5440 O   0  0  0  0  0  0  0  0  0  0  0  0
  142.4850  158.1430  134.5270 N   0  0  0  0  0  0  0  0  0  0  0  0
  143.6990  158.8070  134.1240 C   0  0  0  0  0  0  0  0  0  0  0  0
  143.8150  160.2250  134.1220 C   0  0  0  0  0  0  0  0  0  0  0  0
  145.0090  160.8460  133.7220 C   0  0  0  0  0  0  0  0  0  0  0  0
  146.0640  160.0360  133.3130 C   0  0  0  0  0  0  0  0  0  0  0  0
  147.3310  160.3740  132.8960 C   0  0  0  0  0  0  0  0  0  0  0  0
  147.9620  159.1640  132.6150 C   0  0  0  0  0  0  0  0  0  0  0  0
  149.3250  159.0680  132.0520 C   0  0  0  0  0  0  0  0  0  0  0  0
  149.8460  160.1400  131.2690 N   0  0  0  0  0  0  0  0  0  0  0  0
  150.0240  158.0350  132.2250 O   0  0  0  0  0  0  0  0  0  0  0  0
  147.1190  158.1200  132.8550 N   0  0  0  0  0  0  0  0  0  0  0  0
  147.3980  156.7150  132.7490 C   0  0  0  0  0  0  0  0  0  0  0  0
  147.2180  156.1210  131.6520 O   0  0  0  0  0  0  0  0  0  0  0  0
  147.8960  156.0280  133.8670 O   0  0  0  0  0  0  0  0  0  0  0  0
  147.4030  154.7880  134.3940 C   0  0  0  0  0  0  0  0  0  0  0  0
  145.8770  154.6890  134.2080 C   0  0  0  0  0  0  0  0  0  0  0  0
  147.7220  154.7780  135.8970 C   0  0  0  0  0  0  0  0  0  0  0  0
  148.1120  153.5960  133.7270 C   0  0  0  0  0  0  0  0  0  0  0  0
  145.9610  158.6710  133.2780 C   0  0  0  0  0  0  0  0  0  0  0  0
  144.7910  158.0230  133.6900 C   0  0  0  0  0  0  0  0  0  0  0  0
  141.2212  158.3413  137.4431 H   0  0  0  0  0  0  0  0  0  0  0  0
  139.9109  157.6571  136.4225 H   0  0  0  0  0  0  0  0  0  0  0  0
  141.5387  156.8976  136.4225 H   0  0  0  0  0  0  0  0  0  0  0  0
  141.8202  159.6766  135.7891 H   0  0  0  0  0  0  0  0  0  0  0  0
  139.3263  159.2055  135.0630 H   0  0  0  0  0  0  0  0  0  0  0  0
  140.5503  160.2203  134.0717 H   0  0  0  0  0  0  0  0  0  0  0  0
  138.0243  158.0120  134.1402 H   0  0  0  0  0  0  0  0  0  0  0  0
  137.8377  158.8907  132.5847 H   0  0  0  0  0  0  0  0  0  0  0  0
  138.2424  157.1406  132.5847 H   0  0  0  0  0  0  0  0  0  0  0  0
  140.5242  160.2915  132.1702 H   0  0  0  0  0  0  0  0  0  0  0  0
  140.9669  158.8022  131.2687 H   0  0  0  0  0  0  0  0  0  0  0  0
  139.2660  159.3799  131.2687 H   0  0  0  0  0  0  0  0  0  0  0  0
  138.3250  155.6080  132.9590 H   0  0  0  0  0  0  0  0  0  0  0  0
  142.3580  157.1660  134.1830 H   0  0  0  0  0  0  0  0  0  0  0  0
  142.9602  160.8414  134.4372 H   0  0  0  0  0  0  0  0  0  0  0  0
  145.1077  161.9415  133.7317 H   0  0  0  0  0  0  0  0  0  0  0  0
  147.7554  161.3846  132.8040 H   0  0  0  0  0  0  0  0  0  0  0  0
  150.7580  160.5880  131.5120 H   0  0  0  0  0  0  0  0  0  0  0  0
  145.3888  154.6573  135.1932 H   0  0  0  0  0  0  0  0  0  0  0  0
  145.5181  155.5657  133.6490 H   0  0  0  0  0  0  0  0  0  0  0  0
  145.6344  153.7732  133.6490 H   0  0  0  0  0  0  0  0  0  0  0  0
  146.7841  154.8074  136.4711 H   0  0  0  0  0  0  0  0  0  0  0  0
  148.2770  153.8620  136.1480 H   0  0  0  0  0  0  0  0  0  0  0  0
  148.3332  155.6574  136.1480 H   0  0  0  0  0  0  0  0  0  0  0  0
  148.5107  152.9257  134.5027 H   0  0  0  0  0  0  0  0  0  0  0  0
  147.3941  153.0460  133.1008 H   0  0  0  0  0  0  0  0  0  0  0  0
  148.9380  153.9643  133.1008 H   0  0  0  0  0  0  0  0  0  0  0  0
  144.7231  156.9252  133.6762 H   0  0  0  0  0  0  0  0  0  0  0  0
  1  2  1  0
  2  3  1  0
  3  4  1  0
  4  5  1  0
  4  6  1  0
  4  7  1  0
  7  8  1  0
  8  9  1  0
  8 10  2  0
  2 11  1  0
 11 12  1  0
 12 13  2  0
 13 14  1  0
 14 15  2  0
 15 16  1  0
 16 17  2  0
 17 18  1  0
 18 19  1  0
 18 20  2  0
 17 21  1  0
 21 22  1  0
 22 23  2  0
 22 24  1  0
 24 25  1  0
 25 26  1  0
 25 27  1  0
 25 28  1  0
 21 29  1  0
 29 30  2  0
 30 12  1  0
 29 15  1  0
  1 31  1  0
  1 32  1  0
  1 33  1  0
  2 34  1  1
  3 35  1  0
  3 36  1  0
  5 37  1  0
  5 38  1  0
  5 39  1  0
  6 40  1  0
  6 41  1  0
  6 42  1  0
  9 43  1  0
 11 44  1  0
 13 45  1  0
 14 46  1  0
 16 47  1  0
 19 48  1  0
 26 49  1  0
 26 50  1  0
 26 51  1  0
 27 52  1  0
 27 53  1  0
 27 54  1  0
 28 55  1  0
 28 56  1  0
 28 57  1  0
 30 58  1  0
M  CHG  2   9  -1  19  -1
M  END
>  <UniqueID>  (13) 
13

>  <SMILES>  (13) 
C[C@H](CC(C)(C)OC([NH-])=O)Nc1ccc2cc(C([NH-])=O)n(C(=O)OC(C)(C)C)c2c1

>  <Energy>  (13) 
91.41225580586085

>  <Genealogy>  (13) 
C[C@H](CC(C)(C)OC([NH-])=O)Nc1ccc2cc(C([NH-])=O)n(C(=O)OC(C)(C)C)c2c1 (protonated)
C[C@H](CC(C)(C)OC([NH-])=O)Nc1ccc2cc(C([NH-])=O)n(C(=O)OC(C)(C)C)c2c1 (3D coordinates assigned)
C[C@H](CC(C)(C)OC([NH-])=O)Nc1ccc2cc(C([NH-])=O)n(C(=O)OC(C)(C)C)c2c1 (optimized conformer: 91.41225580586085 kcal/mol)

>  <smiles>  (13) 
C[C@H](CC(C)(C)OC(N)=O)Nc1ccc2cc(C(N)=O)n(C(=O)OC(C)(C)C)c2c1

>  <score_type>  (13) 
oracle

>  <origin>  (13) 
adg

>  <m_score__min__energy>  (13) 
-8.4000000000000004

>  <m_primary>  (13) 
energy

$$$$
13:0
     RDKit          3D

 53 56  0  0  0  0  0  0  0  0999 V2000
  138.8710  158.2500  133.0420 C   0  0  0  0  0  0  0  0  0  0  0  0
  139.0240  157.2380  134.1020 N   0  0  0  0  0  0  0  0  0  0  0  0
  139.8570  156.1000  133.6590 C   0  0  0  0  0  0  0  0  0  0  0  0
  141.3230  156.5140  133.4390 C   0  0  0  0  0  0  0  0  0  0  0  0
  141.7440  157.4880  134.4530 N   0  0  0  0  0  0  0  0  0  0  0  0
  142.8890  158.3300  134.2170 C   0  0  0  0  0  0  0  0  0  0  0  0
  142.7770  159.7390  134.3350 C   0  0  0  0  0  0  0  0  0  0  0  0
  143.8780  160.5730  134.0750 C   0  0  0  0  0  0  0  0  0  0  0  0
  145.0760  159.9720  133.6990 C   0  0  0  0  0  0  0  0  0  0  0  0
  146.2810  160.5400  133.3520 C   0  0  0  0  0  0  0  0  0  0  0  0
  147.1180  159.4700  133.0400 C   0  0  0  0  0  0  0  0  0  0  0  0
  148.5460  159.6110  132.6800 C   0  0  0  0  0  0  0  0  0  0  0  0
  149.5000  158.6210  133.0700 N   0  0  0  0  0  0  0  0  0  0  0  0
  148.9320  160.5980  131.9990 O   0  0  0  0  0  0  0  0  0  0  0  0
  146.4560  158.2890  133.1900 N   0  0  0  0  0  0  0  0  0  0  0  0
  146.9400  156.9700  132.8920 C   0  0  0  0  0  0  0  0  0  0  0  0
  147.9800  156.8250  132.1950 O   0  0  0  0  0  0  0  0  0  0  0  0
  146.2660  155.8520  133.3990 O   0  0  0  0  0  0  0  0  0  0  0  0
  145.6340  154.8790  132.5720 C   0  0  0  0  0  0  0  0  0  0  0  0
  144.3900  154.3590  133.2370 C   0  0  0  0  0  0  0  0  0  0  0  0
  143.3910  153.7170  132.4870 C   0  0  0  0  0  0  0  0  0  0  0  0
  142.2550  153.2040  133.1210 C   0  0  0  0  0  0  0  0  0  0  0  0
  142.1090  153.3260  134.5060 C   0  0  0  0  0  0  0  0  0  0  0  0
  143.1010  153.9600  135.2590 C   0  0  0  0  0  0  0  0  0  0  0  0
  144.2390  154.4730  134.6290 C   0  0  0  0  0  0  0  0  0  0  0  0
  145.2070  158.6130  133.5910 C   0  0  0  0  0  0  0  0  0  0  0  0
  144.1220  157.7600  133.8270 C   0  0  0  0  0  0  0  0  0  0  0  0
  140.9710  157.5830  135.6940 C   0  0  0  0  0  0  0  0  0  0  0  0
  139.4850  157.8430  135.3800 C   0  0  0  0  0  0  0  0  0  0  0  0
  138.7214  159.2395  133.4986 H   0  0  0  0  0  0  0  0  0  0  0  0
  139.7767  158.2672  132.4180 H   0  0  0  0  0  0  0  0  0  0  0  0
  138.0006  157.9987  132.4180 H   0  0  0  0  0  0  0  0  0  0  0  0
  139.8210  155.3128  134.4265 H   0  0  0  0  0  0  0  0  0  0  0  0
  139.4573  155.7375  132.7004 H   0  0  0  0  0  0  0  0  0  0  0  0
  141.9641  155.6226  133.5062 H   0  0  0  0  0  0  0  0  0  0  0  0
  141.4150  156.9758  132.4449 H   0  0  0  0  0  0  0  0  0  0  0  0
  141.8166  160.1845  134.6337 H   0  0  0  0  0  0  0  0  0  0  0  0
  143.7956  161.6661  134.1657 H   0  0  0  0  0  0  0  0  0  0  0  0
  146.5304  161.6110  133.3264 H   0  0  0  0  0  0  0  0  0  0  0  0
  149.2320  157.8210  133.6840 H   0  0  0  0  0  0  0  0  0  0  0  0
  150.4980  158.7110  132.7760 H   0  0  0  0  0  0  0  0  0  0  0  0
  145.3658  155.3395  131.6097 H   0  0  0  0  0  0  0  0  0  0  0  0
  146.3290  154.0423  132.4082 H   0  0  0  0  0  0  0  0  0  0  0  0
  143.5026  153.6174  131.3972 H   0  0  0  0  0  0  0  0  0  0  0  0
  141.4748  152.7035  132.5288 H   0  0  0  0  0  0  0  0  0  0  0  0
  141.2140  152.9233  135.0027 H   0  0  0  0  0  0  0  0  0  0  0  0
  142.9864  154.0556  136.3488 H   0  0  0  0  0  0  0  0  0  0  0  0
  145.0193  154.9679  135.2258 H   0  0  0  0  0  0  0  0  0  0  0  0
  144.2269  156.6711  133.7115 H   0  0  0  0  0  0  0  0  0  0  0  0
  141.0642  156.6400  136.2526 H   0  0  0  0  0  0  0  0  0  0  0  0
  141.3609  158.4174  136.2954 H   0  0  0  0  0  0  0  0  0  0  0  0
  138.8800  157.4260  136.1986 H   0  0  0  0  0  0  0  0  0  0  0  0
  139.3659  158.9319  135.2789 H   0  0  0  0  0  0  0  0  0  0  0  0
  1  2  1  0
  2  3  1  0
  3  4  1  0
  4  5  1  0
  5  6  1  0
  6  7  2  0
  7  8  1  0
  8  9  2  0
  9 10  1  0
 10 11  2  0
 11 12  1  0
 12 13  1  0
 12 14  2  0
 11 15  1  0
 15 16  1  0
 16 17  2  0
 16 18  1  0
 18 19  1  0
 19 20  1  0
 20 21  2  0
 21 22  1  0
 22 23  2  0
 23 24  1  0
 24 25  2  0
 15 26  1  0
 26 27  2  0
  5 28  1  0
 28 29  1  0
 29  2  1  0
 27  6  1  0
 26  9  1  0
 25 20  1  0
  1 30  1  0
  1 31  1  0
  1 32  1  0
  3 33  1  0
  3 34  1  0
  4 35  1  0
  4 36  1  0
  7 37  1  0
  8 38  1  0
 10 39  1  0
 13 40  1  0
 13 41  1  0
 19 42  1  0
 19 43  1  0
 21 44  1  0
 22 45  1  0
 23 46  1  0
 24 47  1  0
 25 48  1  0
 27 49  1  0
 28 50  1  0
 28 51  1  0
 29 52  1  0
 29 53  1  0
M  END
>  <UniqueID>  (14) 
14

>  <SMILES>  (14) 
CN1CCN(c2ccc3cc(C(N)=O)n(C(=O)OCc4ccccc4)c3c2)CC1

>  <Energy>  (14) 
103.87802795266836

>  <Genealogy>  (14) 
CN1CCN(c2ccc3cc(C(N)=O)n(C(=O)OCc4ccccc4)c3c2)CC1 (3D coordinates assigned)
CN1CCN(c2ccc3cc(C(N)=O)n(C(=O)OCc4ccccc4)c3c2)CC1 (nonaromatic ring conformer: 103.87802795266836 kcal/mol)

>  <smiles>  (14) 
CN1CCN(c2ccc3cc(C(N)=O)n(C(=O)OCc4ccccc4)c3c2)CC1

>  <score_type>  (14) 
oracle

>  <origin>  (14) 
adg

>  <m_score__min__energy>  (14) 
-9.3399999999999999

>  <m_primary>  (14) 
energy

$$$$
14:0
     RDKit          3D

 39 40  0  0  0  0  0  0  0  0999 V2000
  145.0900  153.8980  133.1860 C   0  0  0  0  0  0  0  0  0  0  0  0
  145.7990  154.4110  134.3720 N   0  0  0  0  0  0  0  0  0  0  0  0
  145.1990  153.8400  135.5920 C   0  0  0  0  0  0  0  0  0  0  0  0
  147.2440  154.0930  134.2700 C   0  0  0  0  0  0  0  0  0  0  0  0
  147.7810  154.1650  132.8180 C   0  0  0  0  0  0  0  0  0  0  0  0
  148.8860  155.2170  132.6250 C   0  0  0  0  0  0  0  0  0  0  0  0
  148.3620  156.6240  132.7750 C   0  0  0  0  0  0  0  0  0  0  0  0
  149.2290  157.7320  132.6030 C   0  0  0  0  0  0  0  0  0  0  0  0
  148.7490  159.0460  132.7380 C   0  0  0  0  0  0  0  0  0  0  0  0
  147.4010  159.2190  133.0360 C   0  0  0  0  0  0  0  0  0  0  0  0
  146.6820  160.3730  133.2440 C   0  0  0  0  0  0  0  0  0  0  0  0
  145.3820  159.9560  133.5150 C   0  0  0  0  0  0  0  0  0  0  0  0
  144.2550  160.8910  133.7170 C   0  0  0  0  0  0  0  0  0  0  0  0
  142.9180  160.5090  133.4050 N   0  0  0  0  0  0  0  0  0  0  0  0
  144.4830  162.0620  134.1240 O   0  0  0  0  0  0  0  0  0  0  0  0
  145.2990  158.5940  133.4850 N   0  0  0  0  0  0  0  0  0  0  0  0
  144.1620  157.7710  133.7910 C   0  0  0  0  0  0  0  0  0  0  0  0
  143.1030  157.8710  133.1170 O   0  0  0  0  0  0  0  0  0  0  0  0
  144.2110  156.8740  134.8510 O   0  0  0  0  0  0  0  0  0  0  0  0
  146.5440  158.1590  133.1870 C   0  0  0  0  0  0  0  0  0  0  0  0
  147.0000  156.8400  133.0780 C   0  0  0  0  0  0  0  0  0  0  0  0
  144.2375  153.2812  133.5067 H   0  0  0  0  0  0  0  0  0  0  0  0
  144.7252  154.7426  132.5831 H   0  0  0  0  0  0  0  0  0  0  0  0
  145.7782  153.2873  132.5831 H   0  0  0  0  0  0  0  0  0  0  0  0
  145.6730  155.4510  134.3900 H   0  0  0  0  0  0  0  0  0  0  0  0
  145.6714  154.2895  136.4779 H   0  0  0  0  0  0  0  0  0  0  0  0
  144.1199  154.0529  135.6041 H   0  0  0  0  0  0  0  0  0  0  0  0
  145.3582  152.7516  135.6041 H   0  0  0  0  0  0  0  0  0  0  0  0
  147.8048  154.8107  134.8867 H   0  0  0  0  0  0  0  0  0  0  0  0
  147.3777  153.0582  134.6184 H   0  0  0  0  0  0  0  0  0  0  0  0
  148.1875  153.1792  132.5476 H   0  0  0  0  0  0  0  0  0  0  0  0
  146.9382  154.4588  132.1751 H   0  0  0  0  0  0  0  0  0  0  0  0
  149.6712  155.0488  133.3768 H   0  0  0  0  0  0  0  0  0  0  0  0
  149.2816  155.1097  131.6042 H   0  0  0  0  0  0  0  0  0  0  0  0
  150.2885  157.5617  132.3613 H   0  0  0  0  0  0  0  0  0  0  0  0
  149.4178  159.9102  132.6121 H   0  0  0  0  0  0  0  0  0  0  0  0
  147.0555  161.4069  133.2045 H   0  0  0  0  0  0  0  0  0  0  0  0
  142.7080  159.9250  132.5660 H   0  0  0  0  0  0  0  0  0  0  0  0
  146.3141  155.9927  133.2248 H   0  0  0  0  0  0  0  0  0  0  0  0
  1  2  1  0
  2  3  1  0
  2  4  1  0
  4  5  1  0
  5  6  1  0
  6  7  1  0
  7  8  2  0
  8  9  1  0
  9 10  2  0
 10 11  1  0
 11 12  2  0
 12 13  1  0
 13 14  1  0
 13 15  2  0
 12 16  1  0
 16 17  1  0
 17 18  2  0
 17 19  1  0
 16 20  1  0
 20 21  2  0
 21  7  1  0
 20 10  1  0
  1 22  1  0
  1 23  1  0
  1 24  1  0
  2 25  1  0
  3 26  1  0
  3 27  1  0
  3 28  1  0
  4 29  1  0
  4 30  1  0
  5 31  1  0
  5 32  1  0
  6 33  1  0
  6 34  1  0
  8 35  1  0
  9 36  1  0
 11 37  1  0
 14 38  1  0
 21 39  1  0
M  CHG  3   2   1  14  -1  19  -1
M  END
>  <UniqueID>  (15) 
15

>  <SMILES>  (15) 
C[NH+](C)CCCc1ccc2cc(C([NH-])=O)n(C(=O)[O-])c2c1

>  <Energy>  (15) 
78.77085319426415

>  <Genealogy>  (15) 
C[NH+](C)CCCc1ccc2cc(C([NH-])=O)n(C(=O)[O-])c2c1 (protonated)
C[NH+](C)CCCc1ccc2cc(C([NH-])=O)n(C(=O)[O-])c2c1 (3D coordinates assigned)
C[NH+](C)CCCc1ccc2cc(C([NH-])=O)n(C(=O)[O-])c2c1 (optimized conformer: 78.77085319426415 kcal/mol)

>  <smiles>  (15) 
CN(C)CCCc1ccc2cc(C(N)=O)n(C(=O)O)c2c1

>  <score_type>  (15) 
oracle

>  <origin>  (15) 
adg

>  <m_score__min__energy>  (15) 
-5.9500000000000002

>  <m_primary>  (15) 
energy

$$$$
15:0
     RDKit          3D

 52 54  0  0  0  0  0  0  0  0999 V2000
  138.7750  148.1530  129.1710 C   0  0  0  0  0  0  0  0  0  0  0  0
  138.9430  148.4710  130.5980 N   0  0  0  0  0  0  0  0  0  0  0  0
  140.1660  147.8320  131.1560 C   0  0  0  0  0  0  0  0  0  0  0  0
  141.2610  148.8390  131.5360 C   0  0  0  0  0  0  0  0  0  0  0  0
  140.7220  149.8560  132.5610 C   0  0  0  0  0  0  0  0  0  0  0  0
  141.6850  151.0200  132.7150 C   0  0  0  0  0  0  0  0  0  0  0  0
  143.0900  150.8160  132.6530 C   0  0  0  0  0  0  0  0  0  0  0  0
  143.9790  151.8940  132.7970 C   0  0  0  0  0  0  0  0  0  0  0  0
  143.4430  153.1590  133.0160 C   0  0  0  0  0  0  0  0  0  0  0  0
  144.0730  154.3730  133.1670 C   0  0  0  0  0  0  0  0  0  0  0  0
  143.0490  155.3000  133.3530 C   0  0  0  0  0  0  0  0  0  0  0  0
  143.2880  156.7280  133.6460 C   0  0  0  0  0  0  0  0  0  0  0  0
  142.9770  157.2770  134.9230 N   0  0  0  0  0  0  0  0  0  0  0  0
  143.8170  157.4640  132.7700 O   0  0  0  0  0  0  0  0  0  0  0  0
  141.8340  154.6820  133.3070 N   0  0  0  0  0  0  0  0  0  0  0  0
  140.5330  155.2850  133.3780 C   0  0  0  0  0  0  0  0  0  0  0  0
  139.6030  154.8490  132.6490 O   0  0  0  0  0  0  0  0  0  0  0  0
  140.3120  156.3360  134.2800 O   0  0  0  0  0  0  0  0  0  0  0  0
  139.8920  157.6670  133.9500 C   0  0  0  0  0  0  0  0  0  0  0  0
  140.1810  158.6320  135.1160 C   0  0  0  0  0  0  0  0  0  0  0  0
  138.3760  157.6160  133.7090 C   0  0  0  0  0  0  0  0  0  0  0  0
  140.5840  158.1480  132.6600 C   0  0  0  0  0  0  0  0  0  0  0  0
  142.0930  153.3730  133.1030 C   0  0  0  0  0  0  0  0  0  0  0  0
  141.1820  152.3220  132.9430 C   0  0  0  0  0  0  0  0  0  0  0  0
  139.2810  150.3240  132.2280 C   0  0  0  0  0  0  0  0  0  0  0  0
  138.8590  149.9350  130.8060 C   0  0  0  0  0  0  0  0  0  0  0  0
  138.2634  147.1846  129.0689 H   0  0  0  0  0  0  0  0  0  0  0  0
  138.1739  148.9379  128.6887 H   0  0  0  0  0  0  0  0  0  0  0  0
  139.7621  148.0988  128.6887 H   0  0  0  0  0  0  0  0  0  0  0  0
  139.8842  147.2670  132.0567 H   0  0  0  0  0  0  0  0  0  0  0  0
  140.5803  147.1828  130.3706 H   0  0  0  0  0  0  0  0  0  0  0  0
  142.1135  148.2995  131.9743 H   0  0  0  0  0  0  0  0  0  0  0  0
  141.5800  149.3781  130.6317 H   0  0  0  0  0  0  0  0  0  0  0  0
  140.6534  149.3459  133.5332 H   0  0  0  0  0  0  0  0  0  0  0  0
  143.4858  149.8026  132.4904 H   0  0  0  0  0  0  0  0  0  0  0  0
  145.0669  151.7424  132.7383 H   0  0  0  0  0  0  0  0  0  0  0  0
  145.1550  154.5700  133.1455 H   0  0  0  0  0  0  0  0  0  0  0  0
  142.0350  157.1400  135.3530 H   0  0  0  0  0  0  0  0  0  0  0  0
  140.0246  158.1098  136.0715 H   0  0  0  0  0  0  0  0  0  0  0  0
  141.2227  158.9799  135.0545 H   0  0  0  0  0  0  0  0  0  0  0  0
  139.5020  159.4952  135.0545 H   0  0  0  0  0  0  0  0  0  0  0  0
  137.8515  157.5983  134.6757 H   0  0  0  0  0  0  0  0  0  0  0  0
  138.0652  158.5042  133.1393 H   0  0  0  0  0  0  0  0  0  0  0  0
  138.1256  156.7089  133.1393 H   0  0  0  0  0  0  0  0  0  0  0  0
  141.4616  158.7580  132.9203 H   0  0  0  0  0  0  0  0  0  0  0  0
  140.9048  157.2772  132.0694 H   0  0  0  0  0  0  0  0  0  0  0  0
  139.8796  158.7522  132.0694 H   0  0  0  0  0  0  0  0  0  0  0  0
  140.0985  152.5050  132.9935 H   0  0  0  0  0  0  0  0  0  0  0  0
  138.5845  149.8619  132.9430 H   0  0  0  0  0  0  0  0  0  0  0  0
  139.2579  151.4215  132.2985 H   0  0  0  0  0  0  0  0  0  0  0  0
  137.8219  150.2612  130.6388 H   0  0  0  0  0  0  0  0  0  0  0  0
  139.5419  150.4249  130.0963 H   0  0  0  0  0  0  0  0  0  0  0  0
  1  2  1  0
  2  3  1  0
  3  4  1  0
  4  5  1  0
  5  6  1  0
  6  7  2  0
  7  8  1  0
  8  9  2  0
  9 10  1  0
 10 11  2  0
 11 12  1  0
 12 13  1  0
 12 14  2  0
 11 15  1  0
 15 16  1  0
 16 17  2  0
 16 18  1  0
 18 19  1  0
 19 20  1  0
 19 21  1  0
 19 22  1  0
 15 23  1  0
 23 24  2  0
  5 25  1  0
 25 26  1  0
 26  2  1  0
 24  6  1  0
 23  9  1  0
  1 27  1  0
  1 28  1  0
  1 29  1  0
  3 30  1  0
  3 31  1  0
  4 32  1  0
  4 33  1  0
  5 34  1  0
  7 35  1  0
  8 36  1  0
 10 37  1  0
 13 38  1  0
 20 39  1  0
 20 40  1  0
 20 41  1  0
 21 42  1  0
 21 43  1  0
 21 44  1  0
 22 45  1  0
 22 46  1  0
 22 47  1  0
 24 48  1  0
 25 49  1  0
 25 50  1  0
 26 51  1  0
 26 52  1  0
M  CHG  1  13  -1
M  END
>  <UniqueID>  (16) 
16

>  <SMILES>  (16) 
CN1CCC(c2ccc3cc(C([NH-])=O)n(C(=O)OC(C)(C)C)c3c2)CC1

>  <Energy>  (16) 
95.41069798087716

>  <Genealogy>  (16) 
CN1CCC(c2ccc3cc(C([NH-])=O)n(C(=O)OC(C)(C)C)c3c2)CC1 (protonated)
CN1CCC(c2ccc3cc(C([NH-])=O)n(C(=O)OC(C)(C)C)c3c2)CC1 (3D coordinates assigned)
CN1CCC(c2ccc3cc(C([NH-])=O)n(C(=O)OC(C)(C)C)c3c2)CC1 (nonaromatic ring conformer: 95.41069798087716 kcal/mol)

>  <smiles>  (16) 
CN1CCC(c2ccc3cc(C(N)=O)n(C(=O)OC(C)(C)C)c3c2)CC1

>  <score_type>  (16) 
oracle

>  <origin>  (16) 
adg

>  <m_score__min__energy>  (16) 
-8.2699999999999996

>  <m_primary>  (16) 
energy

$$$$
16:0
     RDKit          3D

 38 39  0  0  0  0  0  0  0  0999 V2000
  150.0190  159.5200  131.4350 C   0  0  0  0  0  0  0  0  0  0  0  0
  149.0160  158.7180  132.2080 C   0  0  0  0  0  0  0  0  0  0  0  0
  147.9270  159.3660  132.8420 C   0  0  0  0  0  0  0  0  0  0  0  0
  146.9520  158.6220  133.5260 C   0  0  0  0  0  0  0  0  0  0  0  0
  147.0900  157.2370  133.5570 C   0  0  0  0  0  0  0  0  0  0  0  0
  146.2730  156.2790  134.1130 C   0  0  0  0  0  0  0  0  0  0  0  0
  146.8840  155.0620  133.8230 C   0  0  0  0  0  0  0  0  0  0  0  0
  146.3670  153.7610  134.2910 C   0  0  0  0  0  0  0  0  0  0  0  0
  145.9860  152.7390  133.3670 N   0  0  0  0  0  0  0  0  0  0  0  0
  146.3100  153.5270  135.5280 O   0  0  0  0  0  0  0  0  0  0  0  0
  148.0250  155.2560  133.1050 N   0  0  0  0  0  0  0  0  0  0  0  0
  148.8750  154.2550  132.5240 C   0  0  0  0  0  0  0  0  0  0  0  0
  150.1010  154.4990  132.3550 O   0  0  0  0  0  0  0  0  0  0  0  0
  148.3290  153.0170  132.1510 O   0  0  0  0  0  0  0  0  0  0  0  0
  148.9290  151.7290  132.3440 C   0  0  0  0  0  0  0  0  0  0  0  0
  147.8070  150.6860  132.2310 C   0  0  0  0  0  0  0  0  0  0  0  0
  149.5600  151.6300  133.7460 C   0  0  0  0  0  0  0  0  0  0  0  0
  149.9810  151.4510  131.2530 C   0  0  0  0  0  0  0  0  0  0  0  0
  148.1400  156.5940  132.9520 C   0  0  0  0  0  0  0  0  0  0  0  0
  149.1140  157.3100  132.2450 C   0  0  0  0  0  0  0  0  0  0  0  0
  150.6821  160.0502  132.1345 H   0  0  0  0  0  0  0  0  0  0  0  0
  150.6164  158.8477  130.8016 H   0  0  0  0  0  0  0  0  0  0  0  0
  149.4946  160.2507  130.8016 H   0  0  0  0  0  0  0  0  0  0  0  0
  147.8446  160.4620  132.7980 H   0  0  0  0  0  0  0  0  0  0  0  0
  146.1050  159.1184  134.0222 H   0  0  0  0  0  0  0  0  0  0  0  0
  145.3371  156.4404  134.6680 H   0  0  0  0  0  0  0  0  0  0  0  0
  146.1820  152.8340  132.3460 H   0  0  0  0  0  0  0  0  0  0  0  0
  145.5820  151.8430  133.7160 H   0  0  0  0  0  0  0  0  0  0  0  0
  147.4833  150.3851  133.2383 H   0  0  0  0  0  0  0  0  0  0  0  0
  146.9556  151.1208  131.6869 H   0  0  0  0  0  0  0  0  0  0  0  0
  148.1786  149.8052  131.6869 H   0  0  0  0  0  0  0  0  0  0  0  0
  148.7778  151.7527  134.5096 H   0  0  0  0  0  0  0  0  0  0  0  0
  150.0371  150.6460  133.8647 H   0  0  0  0  0  0  0  0  0  0  0  0
  150.3156  152.4206  133.8647 H   0  0  0  0  0  0  0  0  0  0  0  0
  150.9413  151.1972  131.7258 H   0  0  0  0  0  0  0  0  0  0  0  0
  149.6469  150.6103  130.6272 H   0  0  0  0  0  0  0  0  0  0  0  0
  150.1058  152.3470  130.6272 H   0  0  0  0  0  0  0  0  0  0  0  0
  149.9350  156.7884  131.7313 H   0  0  0  0  0  0  0  0  0  0  0  0
  1  2  1  0
  2  3  2  0
  3  4  1  0
  4  5  2  0
  5  6  1  0
  6  7  2  0
  7  8  1  0
  8  9  1  0
  8 10  2  0
  7 11  1  0
 11 12  1  0
 12 13  2  0
 12 14  1  0
 14 15  1  0
 15 16  1  0
 15 17  1  0
 15 18  1  0
 11 19  1  0
 19 20  2  0
 20  2  1  0
 19  5  1  0
  1 21  1  0
  1 22  1  0
  1 23  1  0
  3 24  1  0
  4 25  1  0
  6 26  1  0
  9 27  1  0
  9 28  1  0
 16 29  1  0
 16 30  1  0
 16 31  1  0
 17 32  1  0
 17 33  1  0
 17 34  1  0
 18 35  1  0
 18 36  1  0
 18 37  1  0
 20 38  1  0
M  END
>  <UniqueID>  (17) 
17

>  <SMILES>  (17) 
Cc1ccc2cc(C(N)=O)n(C(=O)OC(C)(C)C)c2c1

>  <Energy>  (17) 
71.47726180286372

>  <Genealogy>  (17) 
Cc1ccc2cc(C(N)=O)n(C(=O)OC(C)(C)C)c2c1 (3D coordinates assigned)
Cc1ccc2cc(C(N)=O)n(C(=O)OC(C)(C)C)c2c1 (optimized conformer: 71.47726180286372 kcal/mol)

>  <smiles>  (17) 
Cc1ccc2cc(C(N)=O)n(C(=O)OC(C)(C)C)c2c1

>  <score_type>  (17) 
oracle

>  <origin>  (17) 
adg

>  <m_score__min__energy>  (17) 
-6.8499999999999996

>  <m_primary>  (17) 
energy

$$$$
17:0
     RDKit          3D

 44 45  0  0  0  0  0  0  0  0999 V2000
  138.3100  160.0010  130.9810 C   0  0  0  0  0  0  0  0  0  0  0  0
  139.2680  158.9800  131.5720 C   0  0  0  0  0  0  0  0  0  0  0  0
  138.7570  158.5130  132.8150 O   0  0  0  0  0  0  0  0  0  0  0  0
  139.5460  157.8400  133.7530 C   0  0  0  0  0  0  0  0  0  0  0  0
  139.6660  156.5850  133.7030 O   0  0  0  0  0  0  0  0  0  0  0  0
  140.2450  158.6120  134.8370 C   0  0  1  0  0  0  0  0  0  0  0  0
  140.2490  157.8240  136.1530 C   0  0  0  0  0  0  0  0  0  0  0  0
  141.6470  158.9920  134.4000 C   0  0  0  0  0  0  0  0  0  0  0  0
  141.9540  160.3510  134.1330 C   0  0  0  0  0  0  0  0  0  0  0  0
  143.2410  160.7310  133.7260 C   0  0  0  0  0  0  0  0  0  0  0  0
  144.2010  159.7350  133.5790 C   0  0  0  0  0  0  0  0  0  0  0  0
  145.5210  159.8400  133.2150 C   0  0  0  0  0  0  0  0  0  0  0  0
  146.0130  158.5410  133.2530 C   0  0  0  0  0  0  0  0  0  0  0  0
  147.4150  158.2120  132.9480 C   0  0  0  0  0  0  0  0  0  0  0  0
  147.7370  157.2650  131.9300 N   0  0  0  0  0  0  0  0  0  0  0  0
  148.3360  158.7140  133.6460 O   0  0  0  0  0  0  0  0  0  0  0  0
  145.0340  157.6520  133.5950 N   0  0  0  0  0  0  0  0  0  0  0  0
  145.1190  156.2110  133.5790 C   0  0  0  0  0  0  0  0  0  0  0  0
  145.5630  155.6110  132.5630 O   0  0  0  0  0  0  0  0  0  0  0  0
  144.6730  155.4650  134.6770 O   0  0  0  0  0  0  0  0  0  0  0  0
  143.4550  154.7240  134.6870 C   0  0  0  0  0  0  0  0  0  0  0  0
  142.6380  155.0450  135.9350 C   0  0  0  0  0  0  0  0  0  0  0  0
  143.9280  158.4100  133.8070 C   0  0  0  0  0  0  0  0  0  0  0  0
  142.6530  158.0080  134.2340 C   0  0  0  0  0  0  0  0  0  0  0  0
  137.8029  160.5415  131.7939 H   0  0  0  0  0  0  0  0  0  0  0  0
  138.8718  160.7148  130.3607 H   0  0  0  0  0  0  0  0  0  0  0  0
  137.5619  159.4857  130.3607 H   0  0  0  0  0  0  0  0  0  0  0  0
  139.3748  158.1331  130.8782 H   0  0  0  0  0  0  0  0  0  0  0  0
  140.2499  159.4490  131.7326 H   0  0  0  0  0  0  0  0  0  0  0  0
  139.6905  159.5445  135.0186 H   0  0  0  0  0  0  0  0  0  0  0  0
  140.2454  158.5254  137.0004 H   0  0  0  0  0  0  0  0  0  0  0  0
  139.3541  157.1862  136.2012 H   0  0  0  0  0  0  0  0  0  0  0  0
  141.1503  157.1953  136.2012 H   0  0  0  0  0  0  0  0  0  0  0  0
  141.1724  161.1166  134.2467 H   0  0  0  0  0  0  0  0  0  0  0  0
  143.4843  161.7855  133.5288 H   0  0  0  0  0  0  0  0  0  0  0  0
  146.0706  160.7554  132.9503 H   0  0  0  0  0  0  0  0  0  0  0  0
  148.7340  157.0380  131.7180 H   0  0  0  0  0  0  0  0  0  0  0  0
  146.9830  156.7510  131.4240 H   0  0  0  0  0  0  0  0  0  0  0  0
  142.8672  154.9835  133.7941 H   0  0  0  0  0  0  0  0  0  0  0  0
  143.6945  153.6504  134.6878 H   0  0  0  0  0  0  0  0  0  0  0  0
  143.2312  154.8119  136.8316 H   0  0  0  0  0  0  0  0  0  0  0  0
  142.3753  156.1132  135.9366 H   0  0  0  0  0  0  0  0  0  0  0  0
  141.7185  154.4413  135.9366 H   0  0  0  0  0  0  0  0  0  0  0  0
  142.4385  156.9482  134.4361 H   0  0  0  0  0  0  0  0  0  0  0  0
  1  2  1  0
  2  3  1  0
  3  4  1  0
  4  5  2  0
  4  6  1  0
  6  7  1  0
  6  8  1  0
  8  9  2  0
  9 10  1  0
 10 11  2  0
 11 12  1  0
 12 13  2  0
 13 14  1  0
 14 15  1  0
 14 16  2  0
 13 17  1  0
 17 18  1  0
 18 19  2  0
 18 20  1  0
 20 21  1  0
 21 22  1  0
 17 23  1  0
 23 24  2  0
 24  8  1  0
 23 11  1  0
  1 25  1  0
  1 26  1  0
  1 27  1  0
  2 28  1  0
  2 29  1  0
  6 30  1  1
  7 31  1  0
  7 32  1  0
  7 33  1  0
  9 34  1  0
 10 35  1  0
 12 36  1  0
 15 37  1  0
 15 38  1  0
 21 39  1  0
 21 40  1  0
 22 41  1  0
 22 42  1  0
 22 43  1  0
 24 44  1  0
M  END
>  <UniqueID>  (18) 
18

>  <SMILES>  (18) 
CCOC(=O)[C@@H](C)c1ccc2cc(C(N)=O)n(C(=O)OCC)c2c1

>  <Energy>  (18) 
73.39664722164046

>  <Genealogy>  (18) 
CCOC(=O)[C@@H](C)c1ccc2cc(C(N)=O)n(C(=O)OCC)c2c1 (chirality)
CCOC(=O)[C@@H](C)c1ccc2cc(C(N)=O)n(C(=O)OCC)c2c1 (3D coordinates assigned)
CCOC(=O)[C@@H](C)c1ccc2cc(C(N)=O)n(C(=O)OCC)c2c1 (optimized conformer: 73.39664722164046 kcal/mol)

>  <smiles>  (18) 
CCOC(=O)C(C)c1ccc2cc(C(N)=O)n(C(=O)OCC)c2c1

>  <score_type>  (18) 
oracle

>  <origin>  (18) 
adg

>  <m_score__min__energy>  (18) 
-6.6799999999999997

>  <m_primary>  (18) 
energy

$$$$
18:0
     RDKit          3D

 53 56  0  0  0  0  0  0  0  0999 V2000
  141.8680  159.7590  133.3380 C   0  0  0  0  0  0  0  0  0  0  0  0
  142.9660  159.4320  134.3010 C   0  0  0  0  0  0  0  0  0  0  0  0
  142.6960  159.3150  135.5260 O   0  0  0  0  0  0  0  0  0  0  0  0
  144.3280  159.3290  133.8580 N   0  0  0  0  0  0  0  0  0  0  0  0
  145.2600  160.3180  133.7610 C   0  0  0  0  0  0  0  0  0  0  0  0
  145.0160  161.7620  133.9590 C   0  0  0  0  0  0  0  0  0  0  0  0
  146.0320  162.6110  134.4860 N   0  0  0  0  0  0  0  0  0  0  0  0
  143.8820  162.2460  133.6970 O   0  0  0  0  0  0  0  0  0  0  0  0
  146.4870  159.7930  133.3610 C   0  0  0  0  0  0  0  0  0  0  0  0
  146.2720  158.4420  133.2050 C   0  0  0  0  0  0  0  0  0  0  0  0
  147.1490  157.4320  132.8230 C   0  0  0  0  0  0  0  0  0  0  0  0
  146.6550  156.1180  132.7630 C   0  0  0  0  0  0  0  0  0  0  0  0
  145.3020  155.8330  133.0880 C   0  0  0  0  0  0  0  0  0  0  0  0
  144.7930  154.4390  133.0260 C   0  0  0  0  0  0  0  0  0  0  0  0
  143.4690  154.1430  133.3950 C   0  0  0  0  0  0  0  0  0  0  0  0
  142.9920  152.8310  133.3400 C   0  0  0  0  0  0  0  0  0  0  0  0
  143.8270  151.7870  132.9280 C   0  0  0  0  0  0  0  0  0  0  0  0
  143.3010  150.4880  132.8830 O   0  0  0  0  0  0  0  0  0  0  0  0
  141.9490  150.1660  132.7120 C   0  0  0  0  0  0  0  0  0  0  0  0
  141.0450  150.8980  133.2020 O   0  0  0  0  0  0  0  0  0  0  0  0
  141.6000  149.0240  131.9210 N   0  0  0  0  0  0  0  0  0  0  0  0
  140.2070  148.6120  131.7110 C   0  0  0  0  0  0  0  0  0  0  0  0
  140.1580  147.3860  130.7750 C   0  0  0  0  0  0  0  0  0  0  0  0
  138.8660  147.3850  129.9460 C   0  0  0  0  0  0  0  0  0  0  0  0
  138.7190  148.5230  129.1020 O   0  0  0  0  0  0  0  0  0  0  0  0
  139.3140  149.7120  129.6110 C   0  0  0  0  0  0  0  0  0  0  0  0
  139.3670  149.7790  131.1450 C   0  0  0  0  0  0  0  0  0  0  0  0
  145.1460  152.0790  132.5370 C   0  0  0  0  0  0  0  0  0  0  0  0
  145.6240  153.3910  132.5910 C   0  0  0  0  0  0  0  0  0  0  0  0
  144.4430  156.8910  133.4710 C   0  0  0  0  0  0  0  0  0  0  0  0
  144.9600  158.1900  133.5080 C   0  0  0  0  0  0  0  0  0  0  0  0
  140.9594  160.0296  133.8960 H   0  0  0  0  0  0  0  0  0  0  0  0
  142.1751  160.6047  132.7051 H   0  0  0  0  0  0  0  0  0  0  0  0
  141.6624  158.8831  132.7051 H   0  0  0  0  0  0  0  0  0  0  0  0
  146.9640  162.2290  134.7600 H   0  0  0  0  0  0  0  0  0  0  0  0
  147.4275  160.3413  133.2033 H   0  0  0  0  0  0  0  0  0  0  0  0
  148.1973  157.6553  132.5754 H   0  0  0  0  0  0  0  0  0  0  0  0
  147.3247  155.2995  132.4604 H   0  0  0  0  0  0  0  0  0  0  0  0
  142.8027  154.9516  133.7300 H   0  0  0  0  0  0  0  0  0  0  0  0
  141.9508  152.6171  133.6231 H   0  0  0  0  0  0  0  0  0  0  0  0
  142.3790  148.4720  131.4940 H   0  0  0  0  0  0  0  0  0  0  0  0
  139.7704  148.3299  132.6804 H   0  0  0  0  0  0  0  0  0  0  0  0
  141.0225  147.4161  130.0955 H   0  0  0  0  0  0  0  0  0  0  0  0
  140.1846  146.4729  131.3879 H   0  0  0  0  0  0  0  0  0  0  0  0
  138.8601  146.4836  129.3156 H   0  0  0  0  0  0  0  0  0  0  0  0
  138.0294  147.4077  130.6599 H   0  0  0  0  0  0  0  0  0  0  0  0
  140.3427  149.7756  129.2266 H   0  0  0  0  0  0  0  0  0  0  0  0
  138.6839  150.5500  129.2782 H   0  0  0  0  0  0  0  0  0  0  0  0
  139.8218  150.7331  131.4498 H   0  0  0  0  0  0  0  0  0  0  0  0
  138.3429  149.7030  131.5392 H   0  0  0  0  0  0  0  0  0  0  0  0
  145.8047  151.2706  132.1869 H   0  0  0  0  0  0  0  0  0  0  0  0
  146.6600  153.6062  132.2904 H   0  0  0  0  0  0  0  0  0  0  0  0
  143.3928  156.6959  133.7335 H   0  0  0  0  0  0  0  0  0  0  0  0
  1  2  1  0
  2  3  2  0
  2  4  1  0
  4  5  1  0
  5  6  1  0
  6  7  1  0
  6  8  2  0
  5  9  2  0
  9 10  1  0
 10 11  2  0
 11 12  1  0
 12 13  2  0
 13 14  1  0
 14 15  2  0
 15 16  1  0
 16 17  2  0
 17 18  1  0
 18 19  1  0
 19 20  2  0
 19 21  1  0
 21 22  1  0
 22 23  1  0
 23 24  1  0
 24 25  1  0
 25 26  1  0
 26 27  1  0
 17 28  1  0
 28 29  2  0
 13 30  1  0
 30 31  2  0
 31  4  1  0
 31 10  1  0
 29 14  1  0
 27 22  1  0
  1 32  1  0
  1 33  1  0
  1 34  1  0
  7 35  1  0
  9 36  1  0
 11 37  1  0
 12 38  1  0
 15 39  1  0
 16 40  1  0
 21 41  1  0
 22 42  1  0
 23 43  1  0
 23 44  1  0
 24 45  1  0
 24 46  1  0
 26 47  1  0
 26 48  1  0
 27 49  1  0
 27 50  1  0
 28 51  1  0
 29 52  1  0
 30 53  1  0
M  CHG  1   7  -1
M  END
>  <UniqueID>  (19) 
19

>  <SMILES>  (19) 
CC(=O)n1c(C([NH-])=O)cc2ccc(-c3ccc(OC(=O)NC4CCOCC4)cc3)cc21

>  <Energy>  (19) 
113.17333643137258

>  <Genealogy>  (19) 
CC(=O)n1c(C([NH-])=O)cc2ccc(-c3ccc(OC(=O)NC4CCOCC4)cc3)cc21 (protonated)
CC(=O)n1c(C([NH-])=O)cc2ccc(-c3ccc(OC(=O)NC4CCOCC4)cc3)cc21 (3D coordinates assigned)
CC(=O)n1c(C([NH-])=O)cc2ccc(-c3ccc(OC(=O)NC4CCOCC4)cc3)cc21 (nonaromatic ring conformer: 113.17333643137258 kcal/mol)

>  <smiles>  (19) 
CC(=O)n1c(C(N)=O)cc2ccc(-c3ccc(OC(=O)NC4CCOCC4)cc3)cc21

>  <score_type>  (19) 
oracle

>  <origin>  (19) 
adg

>  <m_score__min__energy>  (19) 
-10.359999999999999

>  <m_primary>  (19) 
energy

$$$$
19:0
     RDKit          3D

 50 52  0  0  0  0  0  0  0  0999 V2000
  139.3520  147.0370  130.0720 C   0  0  0  0  0  0  0  0  0  0  0  0
  139.6150  148.4170  130.5060 N   0  0  0  0  0  0  0  0  0  0  0  0
  138.3830  149.1130  130.8870 C   0  0  0  0  0  0  0  0  0  0  0  0
  138.7950  150.2090  131.8480 C   0  0  0  0  0  0  0  0  0  0  0  0
  140.0420  149.6600  132.5400 C   0  0  2  0  0  0  0  0  0  0  0  0
  141.1120  150.7230  132.7200 C   0  0  0  0  0  0  0  0  0  0  0  0
  142.4840  150.3690  132.7990 C   0  0  0  0  0  0  0  0  0  0  0  0
  143.4730  151.3510  132.9600 C   0  0  0  0  0  0  0  0  0  0  0  0
  143.0670  152.6800  133.0180 C   0  0  0  0  0  0  0  0  0  0  0  0
  143.8130  153.8240  133.1790 C   0  0  0  0  0  0  0  0  0  0  0  0
  142.8960  154.8710  133.1510 C   0  0  0  0  0  0  0  0  0  0  0  0
  143.2900  156.2940  133.2080 C   0  0  0  0  0  0  0  0  0  0  0  0
  142.7440  157.2550  132.3000 N   0  0  0  0  0  0  0  0  0  0  0  0
  144.1790  156.6540  134.0240 O   0  0  0  0  0  0  0  0  0  0  0  0
  141.6270  154.3960  132.9950 N   0  0  0  0  0  0  0  0  0  0  0  0
  140.4040  155.1550  133.0230 C   0  0  0  0  0  0  0  0  0  0  0  0
  139.3040  154.5650  133.1870 O   0  0  0  0  0  0  0  0  0  0  0  0
  140.4510  156.5470  132.8450 O   0  0  0  0  0  0  0  0  0  0  0  0
  139.9270  157.5370  133.7410 C   0  0  0  0  0  0  0  0  0  0  0  0
  140.4980  158.9290  133.4130 C   0  0  0  0  0  0  0  0  0  0  0  0
  138.3890  157.5560  133.6890 C   0  0  0  0  0  0  0  0  0  0  0  0
  140.3700  157.1460  135.1540 C   0  0  0  0  0  0  0  0  0  0  0  0
  141.7490  153.0490  132.9130 C   0  0  0  0  0  0  0  0  0  0  0  0
  140.7410  152.0850  132.7780 C   0  0  0  0  0  0  0  0  0  0  0  0
  140.5000  148.4720  131.6780 C   0  0  0  0  0  0  0  0  0  0  0  0
  139.2291  146.3922  130.9547 H   0  0  0  0  0  0  0  0  0  0  0  0
  138.4328  147.0114  129.4683 H   0  0  0  0  0  0  0  0  0  0  0  0
  140.1973  146.6751  129.4683 H   0  0  0  0  0  0  0  0  0  0  0  0
  137.9000  149.5466  129.9989 H   0  0  0  0  0  0  0  0  0  0  0  0
  137.6613  148.4244  131.3508 H   0  0  0  0  0  0  0  0  0  0  0  0
  139.0283  151.1361  131.3039 H   0  0  0  0  0  0  0  0  0  0  0  0
  137.9971  150.4622  132.5616 H   0  0  0  0  0  0  0  0  0  0  0  0
  139.8281  149.3311  133.5676 H   0  0  0  0  0  0  0  0  0  0  0  0
  142.7759  149.3105  132.7331 H   0  0  0  0  0  0  0  0  0  0  0  0
  144.5359  151.0785  133.0379 H   0  0  0  0  0  0  0  0  0  0  0  0
  144.9035  153.8964  133.3035 H   0  0  0  0  0  0  0  0  0  0  0  0
  142.1600  156.9610  131.4920 H   0  0  0  0  0  0  0  0  0  0  0  0
  143.0420  158.2520  132.3510 H   0  0  0  0  0  0  0  0  0  0  0  0
  140.7178  159.4648  134.3482 H   0  0  0  0  0  0  0  0  0  0  0  0
  141.4230  158.8174  132.8282 H   0  0  0  0  0  0  0  0  0  0  0  0
  139.7611  159.4991  132.8282 H   0  0  0  0  0  0  0  0  0  0  0  0
  137.9875  157.5610  134.7131 H   0  0  0  0  0  0  0  0  0  0  0  0
  138.0512  158.4584  133.1584 H   0  0  0  0  0  0  0  0  0  0  0  0
  138.0290  156.6622  133.1584 H   0  0  0  0  0  0  0  0  0  0  0  0
  139.7587  157.6855  135.8924 H   0  0  0  0  0  0  0  0  0  0  0  0
  140.2404  156.0624  135.2922 H   0  0  0  0  0  0  0  0  0  0  0  0
  141.4291  157.4092  135.2922 H   0  0  0  0  0  0  0  0  0  0  0  0
  139.6836  152.3823  132.7185 H   0  0  0  0  0  0  0  0  0  0  0  0
  141.5417  148.6192  131.3568 H   0  0  0  0  0  0  0  0  0  0  0  0
  140.4493  147.5333  132.2492 H   0  0  0  0  0  0  0  0  0  0  0  0
  1  2  1  0
  2  3  1  0
  3  4  1  0
  4  5  1  0
  5  6  1  0
  6  7  2  0
  7  8  1  0
  8  9  2  0
  9 10  1  0
 10 11  2  0
 11 12  1  0
 12 13  1  0
 12 14  2  0
 11 15  1  0
 15 16  1  0
 16 17  2  0
 16 18  1  0
 18 19  1  0
 19 20  1  0
 19 21  1  0
 19 22  1  0
 15 23  1  0
 23 24  2  0
  5 25  1  0
 25  2  1  0
 24  6  1  0
 23  9  1  0
  1 26  1  0
  1 27  1  0
  1 28  1  0
  3 29  1  0
  3 30  1  0
  4 31  1  0
  4 32  1  0
  5 33  1  1
  7 34  1  0
  8 35  1  0
 10 36  1  0
 13 37  1  0
 13 38  1  0
 20 39  1  0
 20 40  1  0
 20 41  1  0
 21 42  1  0
 21 43  1  0
 21 44  1  0
 22 45  1  0
 22 46  1  0
 22 47  1  0
 24 48  1  0
 25 49  1  0
 25 50  1  0
M  END
>  <UniqueID>  (20) 
20

>  <SMILES>  (20) 
CN1CC[C@H](c2ccc3cc(C(N)=O)n(C(=O)OC(C)(C)C)c3c2)C1

>  <Energy>  (20) 
89.10811546628875

>  <Genealogy>  (20) 
CN1CC[C@H](c2ccc3cc(C(N)=O)n(C(=O)OC(C)(C)C)c3c2)C1 (3D coordinates assigned)
CN1CC[C@H](c2ccc3cc(C(N)=O)n(C(=O)OC(C)(C)C)c3c2)C1 (nonaromatic ring conformer: 89.10811546628875 kcal/mol)

>  <smiles>  (20) 
CN1CC[C@H](c2ccc3cc(C(N)=O)n(C(=O)OC(C)(C)C)c3c2)C1

>  <score_type>  (20) 
oracle

>  <origin>  (20) 
adg

>  <m_score__min__energy>  (20) 
-8.9900000000000002

>  <m_primary>  (20) 
energy

$$$$
20:0
     RDKit          3D

 56 58  0  0  0  0  0  0  0  0999 V2000
  138.9400  148.3700  129.8020 C   0  0  0  0  0  0  0  0  0  0  0  0
  140.0370  149.1170  130.5750 C   0  0  2  0  0  0  0  0  0  0  0  0
  140.7920  148.1740  131.5540 C   0  0  0  0  0  0  0  0  0  0  0  0
  141.1040  148.7810  132.9350 C   0  0  0  0  0  0  0  0  0  0  0  0
  141.5310  150.2550  132.8800 C   0  0  0  0  0  0  0  0  0  0  0  0
  140.6380  151.1440  131.9770 C   0  0  2  0  0  0  0  0  0  0  0  0
  140.1940  152.3820  132.6430 N   0  0  0  0  0  0  0  0  0  0  0  0
  140.9940  153.5270  133.0100 C   0  0  0  0  0  0  0  0  0  0  0  0
  142.4050  153.4570  133.1580 C   0  0  0  0  0  0  0  0  0  0  0  0
  143.1550  154.5990  133.4870 C   0  0  0  0  0  0  0  0  0  0  0  0
  142.4750  155.7990  133.6580 C   0  0  0  0  0  0  0  0  0  0  0  0
  142.9550  157.0560  133.9510 C   0  0  0  0  0  0  0  0  0  0  0  0
  141.8320  157.8790  133.9910 C   0  0  0  0  0  0  0  0  0  0  0  0
  141.8850  159.3090  134.3630 C   0  0  0  0  0  0  0  0  0  0  0  0
  140.9540  159.8610  135.2900 N   0  0  0  0  0  0  0  0  0  0  0  0
  142.7950  160.0430  133.8910 O   0  0  0  0  0  0  0  0  0  0  0  0
  140.7050  157.1620  133.7220 N   0  0  0  0  0  0  0  0  0  0  0  0
  139.3590  157.6450  133.5900 C   0  0  0  0  0  0  0  0  0  0  0  0
  138.6850  157.9040  134.6230 O   0  0  0  0  0  0  0  0  0  0  0  0
  138.8250  157.8460  132.3080 O   0  0  0  0  0  0  0  0  0  0  0  0
  138.7940  159.0850  131.5850 C   0  0  0  0  0  0  0  0  0  0  0  0
  139.7240  159.0220  130.3590 C   0  0  0  0  0  0  0  0  0  0  0  0
  137.3540  159.4270  131.1590 C   0  0  0  0  0  0  0  0  0  0  0  0
  139.3020  160.1770  132.5390 C   0  0  0  0  0  0  0  0  0  0  0  0
  141.1150  155.8900  133.5240 C   0  0  0  0  0  0  0  0  0  0  0  0
  140.3470  154.7720  133.1790 C   0  0  0  0  0  0  0  0  0  0  0  0
  139.4910  150.4080  131.2420 C   0  0  2  0  0  0  0  0  0  0  0  0
  138.3680  150.1880  132.0630 O   0  0  0  0  0  0  0  0  0  0  0  0
  138.2467  147.8979  130.5136 H   0  0  0  0  0  0  0  0  0  0  0  0
  138.3883  149.0809  129.1694 H   0  0  0  0  0  0  0  0  0  0  0  0
  139.3993  147.5962  129.1694 H   0  0  0  0  0  0  0  0  0  0  0  0
  140.7925  149.4570  129.8513 H   0  0  0  0  0  0  0  0  0  0  0  0
  140.1743  147.2769  131.7076 H   0  0  0  0  0  0  0  0  0  0  0  0
  141.7644  147.9610  131.0859 H   0  0  0  0  0  0  0  0  0  0  0  0
  140.2020  148.7040  133.5599 H   0  0  0  0  0  0  0  0  0  0  0  0
  141.9519  148.2163  133.3499 H   0  0  0  0  0  0  0  0  0  0  0  0
  141.5002  150.6611  133.9018 H   0  0  0  0  0  0  0  0  0  0  0  0
  142.5402  150.2748  132.4427 H   0  0  0  0  0  0  0  0  0  0  0  0
  141.3145  151.4475  131.1645 H   0  0  0  0  0  0  0  0  0  0  0  0
  139.2080  152.3740  132.9930 H   0  0  0  0  0  0  0  0  0  0  0  0
  142.9181  152.4949  133.0130 H   0  0  0  0  0  0  0  0  0  0  0  0
  144.2472  154.5448  133.6056 H   0  0  0  0  0  0  0  0  0  0  0  0
  144.0023  157.3480  134.1179 H   0  0  0  0  0  0  0  0  0  0  0  0
  139.9870  159.4770  135.3730 H   0  0  0  0  0  0  0  0  0  0  0  0
  140.7691  158.9512  130.6948 H   0  0  0  0  0  0  0  0  0  0  0  0
  139.4729  158.1388  129.7533 H   0  0  0  0  0  0  0  0  0  0  0  0
  139.5943  159.9310  129.7533 H   0  0  0  0  0  0  0  0  0  0  0  0
  136.7321  159.5747  132.0542 H   0  0  0  0  0  0  0  0  0  0  0  0
  137.3583  160.3491  130.5593 H   0  0  0  0  0  0  0  0  0  0  0  0
  136.9432  158.6014  130.5593 H   0  0  0  0  0  0  0  0  0  0  0  0
  139.1516  159.8537  133.5796 H   0  0  0  0  0  0  0  0  0  0  0  0
  140.3734  160.3507  132.3602 H   0  0  0  0  0  0  0  0  0  0  0  0
  138.7447  161.1084  132.3602 H   0  0  0  0  0  0  0  0  0  0  0  0
  139.2592  154.8608  133.0418 H   0  0  0  0  0  0  0  0  0  0  0  0
  139.1146  151.0616  130.4413 H   0  0  0  0  0  0  0  0  0  0  0  0
  138.5250  150.5880  132.9540 H   0  0  0  0  0  0  0  0  0  0  0  0
  1  2  1  0
  2  3  1  0
  3  4  1  0
  4  5  1  0
  5  6  1  0
  6  7  1  0
  7  8  1  0
  8  9  2  0
  9 10  1  0
 10 11  2  0
 11 12  1  0
 12 13  2  0
 13 14  1  0
 14 15  1  0
 14 16  2  0
 13 17  1  0
 17 18  1  0
 18 19  2  0
 18 20  1  0
 20 21  1  0
 21 22  1  0
 21 23  1  0
 21 24  1  0
 17 25  1  0
 25 26  2  0
  6 27  1  0
 27 28  1  0
 27  2  1  0
 26  8  1  0
 25 11  1  0
  1 29  1  0
  1 30  1  0
  1 31  1  0
  2 32  1  6
  3 33  1  0
  3 34  1  0
  4 35  1  0
  4 36  1  0
  5 37  1  0
  5 38  1  0
  6 39  1  6
  7 40  1  0
  9 41  1  0
 10 42  1  0
 12 43  1  0
 15 44  1  0
 22 45  1  0
 22 46  1  0
 22 47  1  0
 23 48  1  0
 23 49  1  0
 23 50  1  0
 24 51  1  0
 24 52  1  0
 24 53  1  0
 26 54  1  0
 27 55  1  6
 28 56  1  0
M  CHG  1  15  -1
M  END
>  <UniqueID>  (21) 
21

>  <SMILES>  (21) 
C[C@@H]1CCC[C@H](Nc2ccc3cc(C([NH-])=O)n(C(=O)OC(C)(C)C)c3c2)[C@@H]1O

>  <Energy>  (21) 
104.46927676438992

>  <Genealogy>  (21) 
C[C@@H]1CCC[C@H](Nc2ccc3cc(C([NH-])=O)n(C(=O)OC(C)(C)C)c3c2)[C@@H]1O (protonated)
C[C@@H]1CCC[C@H](Nc2ccc3cc(C([NH-])=O)n(C(=O)OC(C)(C)C)c3c2)[C@@H]1O (3D coordinates assigned)
C[C@@H]1CCC[C@H](Nc2ccc3cc(C([NH-])=O)n(C(=O)OC(C)(C)C)c3c2)[C@@H]1O (nonaromatic ring conformer: 104.46927676438992 kcal/mol)

>  <smiles>  (21) 
C[C@@H]1CCC[C@H](Nc2ccc3cc(C(N)=O)n(C(=O)OC(C)(C)C)c3c2)[C@@H]1O

>  <score_type>  (21) 
oracle

>  <origin>  (21) 
adg

>  <m_score__min__energy>  (21) 
-9.8000000000000007

>  <m_primary>  (21) 
energy

$$$$
21:0
     RDKit          3D

 25 26  0  0  0  0  0  0  0  0999 V2000
  149.2780  162.0360  130.3550 C   0  0  0  0  0  0  0  0  0  0  0  0
  149.0910  160.7320  131.0710 C   0  0  0  0  0  0  0  0  0  0  0  0
  150.1330  159.7740  131.0840 C   0  0  0  0  0  0  0  0  0  0  0  0
  149.9780  158.5580  131.7690 C   0  0  0  0  0  0  0  0  0  0  0  0
  148.7820  158.3390  132.4480 C   0  0  0  0  0  0  0  0  0  0  0  0
  148.3620  157.2410  133.1630 C   0  0  0  0  0  0  0  0  0  0  0  0
  147.0860  157.5660  133.6150 C   0  0  0  0  0  0  0  0  0  0  0  0
  146.2850  156.6810  134.4830 C   0  0  0  0  0  0  0  0  0  0  0  0
  144.8570  156.7220  134.4670 N   0  0  0  0  0  0  0  0  0  0  0  0
  146.8700  155.9130  135.2930 O   0  0  0  0  0  0  0  0  0  0  0  0
  146.7230  158.8090  133.1890 N   0  0  0  0  0  0  0  0  0  0  0  0
  145.4460  159.4510  133.3510 C   0  0  0  0  0  0  0  0  0  0  0  0
  145.3370  160.4750  134.0760 O   0  0  0  0  0  0  0  0  0  0  0  0
  144.3200  158.9500  132.7110 O   0  0  0  0  0  0  0  0  0  0  0  0
  147.7750  159.2710  132.4750 C   0  0  0  0  0  0  0  0  0  0  0  0
  147.8960  160.4820  131.7820 C   0  0  0  0  0  0  0  0  0  0  0  0
  149.3940  162.8451  131.0911 H   0  0  0  0  0  0  0  0  0  0  0  0
  150.1776  161.9823  129.7243 H   0  0  0  0  0  0  0  0  0  0  0  0
  148.3995  162.2373  129.7243 H   0  0  0  0  0  0  0  0  0  0  0  0
  151.0729  159.9840  130.5526 H   0  0  0  0  0  0  0  0  0  0  0  0
  150.7767  157.8017  131.7692 H   0  0  0  0  0  0  0  0  0  0  0  0
  148.9156  156.3070  133.3395 H   0  0  0  0  0  0  0  0  0  0  0  0
  144.3060  156.0620  135.0600 H   0  0  0  0  0  0  0  0  0  0  0  0
  144.3460  157.4610  133.9360 H   0  0  0  0  0  0  0  0  0  0  0  0
  147.0807  161.2203  131.7910 H   0  0  0  0  0  0  0  0  0  0  0  0
  1  2  1  0
  2  3  2  0
  3  4  1  0
  4  5  2  0
  5  6  1  0
  6  7  2  0
  7  8  1  0
  8  9  1  0
  8 10  2  0
  7 11  1  0
 11 12  1  0
 12 13  2  0
 12 14  1  0
 11 15  1  0
 15 16  2  0
 16  2  1  0
 15  5  1  0
  1 17  1  0
  1 18  1  0
  1 19  1  0
  3 20  1  0
  4 21  1  0
  6 22  1  0
  9 23  1  0
  9 24  1  0
 16 25  1  0
M  CHG  1  14  -1
M  END
>  <UniqueID>  (22) 
22

>  <SMILES>  (22) 
Cc1ccc2cc(C(N)=O)n(C(=O)[O-])c2c1

>  <Energy>  (22) 
64.94797129756687

>  <Genealogy>  (22) 
Cc1ccc2cc(C(N)=O)n(C(=O)[O-])c2c1 (protonated)
Cc1ccc2cc(C(N)=O)n(C(=O)[O-])c2c1 (3D coordinates assigned)
Cc1ccc2cc(C(N)=O)n(C(=O)[O-])c2c1 (optimized conformer: 64.94797129756687 kcal/mol)

>  <smiles>  (22) 
Cc1ccc2cc(C(N)=O)n(C(=O)O)c2c1

>  <score_type>  (22) 
oracle

>  <origin>  (22) 
adg

>  <m_score__min__energy>  (22) 
-5.9699999999999998

>  <m_primary>  (22) 
energy

$$$$
22:0
     RDKit          3D

 31 32  0  0  0  0  0  0  0  0999 V2000
  145.7680  162.7570  134.5380 C   0  0  0  0  0  0  0  0  0  0  0  0
  144.7910  161.6820  134.0790 C   0  0  0  0  0  0  0  0  0  0  0  0
  145.3290  160.3820  134.3110 O   0  0  0  0  0  0  0  0  0  0  0  0
  145.3880  159.3850  133.3310 C   0  0  0  0  0  0  0  0  0  0  0  0
  144.3600  159.0810  132.6660 O   0  0  0  0  0  0  0  0  0  0  0  0
  146.6210  158.6860  133.1000 N   0  0  0  0  0  0  0  0  0  0  0  0
  147.0050  157.4770  133.5990 C   0  0  0  0  0  0  0  0  0  0  0  0
  146.1540  156.5450  134.3690 C   0  0  0  0  0  0  0  0  0  0  0  0
  144.7490  156.7530  134.4780 N   0  0  0  0  0  0  0  0  0  0  0  0
  146.6690  155.5240  134.8990 O   0  0  0  0  0  0  0  0  0  0  0  0
  148.3110  157.1820  133.2150 C   0  0  0  0  0  0  0  0  0  0  0  0
  148.7160  158.2510  132.4490 C   0  0  0  0  0  0  0  0  0  0  0  0
  149.9350  158.4930  131.8230 C   0  0  0  0  0  0  0  0  0  0  0  0
  150.0880  159.7010  131.1230 C   0  0  0  0  0  0  0  0  0  0  0  0
  149.0270  160.6350  131.0580 C   0  0  0  0  0  0  0  0  0  0  0  0
  149.2200  161.9440  130.3520 C   0  0  0  0  0  0  0  0  0  0  0  0
  147.8090  160.3640  131.7190 C   0  0  0  0  0  0  0  0  0  0  0  0
  147.6770  159.1450  132.3940 C   0  0  0  0  0  0  0  0  0  0  0  0
  145.7930  162.7845  135.6374 H   0  0  0  0  0  0  0  0  0  0  0  0
  146.7729  162.5273  134.1540 H   0  0  0  0  0  0  0  0  0  0  0  0
  145.4436  163.7354  134.1540 H   0  0  0  0  0  0  0  0  0  0  0  0
  143.8488  161.7880  134.6367 H   0  0  0  0  0  0  0  0  0  0  0  0
  144.6110  161.8038  133.0007 H   0  0  0  0  0  0  0  0  0  0  0  0
  144.3310  157.6980  134.3300 H   0  0  0  0  0  0  0  0  0  0  0  0
  148.8946  156.2851  133.4699 H   0  0  0  0  0  0  0  0  0  0  0  0
  150.7539  157.7604  131.8748 H   0  0  0  0  0  0  0  0  0  0  0  0
  151.0412  159.9230  130.6208 H   0  0  0  0  0  0  0  0  0  0  0  0
  149.3384  162.7470  131.0944 H   0  0  0  0  0  0  0  0  0  0  0  0
  150.1201  161.8915  129.7219 H   0  0  0  0  0  0  0  0  0  0  0  0
  148.3430  162.1536  129.7219 H   0  0  0  0  0  0  0  0  0  0  0  0
  146.9849  161.0924  131.7038 H   0  0  0  0  0  0  0  0  0  0  0  0
  1  2  1  0
  2  3  1  0
  3  4  1  0
  4  5  2  0
  4  6  1  0
  6  7  1  0
  7  8  1  0
  8  9  1  0
  8 10  2  0
  7 11  2  0
 11 12  1  0
 12 13  2  0
 13 14  1  0
 14 15  2  0
 15 16  1  0
 15 17  1  0
 17 18  2  0
 18  6  1  0
 18 12  1  0
  1 19  1  0
  1 20  1  0
  1 21  1  0
  2 22  1  0
  2 23  1  0
  9 24  1  0
 11 25  1  0
 13 26  1  0
 14 27  1  0
 16 28  1  0
 16 29  1  0
 16 30  1  0
 17 31  1  0
M  CHG  1   9  -1
M  END
>  <UniqueID>  (23) 
23

>  <SMILES>  (23) 
CCOC(=O)n1c(C([NH-])=O)cc2ccc(C)cc21

>  <Energy>  (23) 
65.72889589624353

>  <Genealogy>  (23) 
CCOC(=O)n1c(C([NH-])=O)cc2ccc(C)cc21 (protonated)
CCOC(=O)n1c(C([NH-])=O)cc2ccc(C)cc21 (3D coordinates assigned)
CCOC(=O)n1c(C([NH-])=O)cc2ccc(C)cc21 (optimized conformer: 65.72889589624353 kcal/mol)

>  <smiles>  (23) 
CCOC(=O)n1c(C(N)=O)cc2ccc(C)cc21

>  <score_type>  (23) 
oracle

>  <origin>  (23) 
adg

>  <m_score__min__energy>  (23) 
-5.9000000000000004

>  <m_primary>  (23) 
energy

$$$$
23:0
     RDKit          3D

 60 63  0  0  0  0  0  0  0  0999 V2000
  138.8150  148.4510  128.7930 C   0  0  0  0  0  0  0  0  0  0  0  0
  139.0420  149.6910  129.4530 O   0  0  0  0  0  0  0  0  0  0  0  0
  139.5480  149.7720  130.7540 C   0  0  0  0  0  0  0  0  0  0  0  0
  140.2940  150.8360  131.1520 N   0  0  0  0  0  0  0  0  0  0  0  0
  140.7840  150.9340  132.3920 N   0  0  0  0  0  0  0  0  0  0  0  0
  141.5800  152.0880  132.7240 C   0  0  0  0  0  0  0  0  0  0  0  0
  140.9770  153.3080  133.0460 C   0  0  0  0  0  0  0  0  0  0  0  0
  141.7480  154.4270  133.3960 C   0  0  0  0  0  0  0  0  0  0  0  0
  141.0170  155.7090  133.7060 C   0  0  0  0  0  0  0  0  0  0  0  0
  143.1630  154.3060  133.4920 C   0  0  0  0  0  0  0  0  0  0  0  0
  144.0120  155.4410  134.0650 C   0  0  0  0  0  0  0  0  0  0  0  0
  144.5880  155.1890  135.4810 C   0  0  0  0  0  0  0  0  0  0  0  0
  146.1060  154.9300  135.5710 C   0  0  0  0  0  0  0  0  0  0  0  0
  146.9130  155.6720  134.5360 C   0  0  0  0  0  0  0  0  0  0  0  0
  148.0250  155.0530  133.9130 C   0  0  0  0  0  0  0  0  0  0  0  0
  148.7970  155.7520  132.9690 C   0  0  0  0  0  0  0  0  0  0  0  0
  148.4230  157.0570  132.6590 C   0  0  0  0  0  0  0  0  0  0  0  0
  149.0290  157.9800  131.8370 C   0  0  0  0  0  0  0  0  0  0  0  0
  148.2570  159.1350  131.9460 C   0  0  0  0  0  0  0  0  0  0  0  0
  148.5260  160.3750  131.1880 C   0  0  0  0  0  0  0  0  0  0  0  0
  148.8230  160.3050  129.7950 N   0  0  0  0  0  0  0  0  0  0  0  0
  148.4710  161.5000  131.7510 O   0  0  0  0  0  0  0  0  0  0  0  0
  147.2120  158.9330  132.7980 N   0  0  0  0  0  0  0  0  0  0  0  0
  146.2420  159.8950  133.2430 C   0  0  0  0  0  0  0  0  0  0  0  0
  146.6560  161.1850  133.6930 N   0  0  0  0  0  0  0  0  0  0  0  0
  145.0160  159.6030  133.2370 O   0  0  0  0  0  0  0  0  0  0  0  0
  147.3290  157.6570  133.2260 C   0  0  0  0  0  0  0  0  0  0  0  0
  146.5470  156.9870  134.1710 C   0  0  0  0  0  0  0  0  0  0  0  0
  143.7740  153.1010  133.0370 C   0  0  0  0  0  0  0  0  0  0  0  0
  145.2730  152.9410  132.9360 C   0  0  0  0  0  0  0  0  0  0  0  0
  142.9730  152.0090  132.6730 C   0  0  0  0  0  0  0  0  0  0  0  0
  140.5540  149.9250  133.2920 C   0  0  0  0  0  0  0  0  0  0  0  0
  141.0450  149.9650  134.4520 O   0  0  0  0  0  0  0  0  0  0  0  0
  139.8090  148.8530  132.9240 N   0  0  0  0  0  0  0  0  0  0  0  0
  139.2970  148.7560  131.6730 C   0  0  0  0  0  0  0  0  0  0  0  0
  138.6060  147.7540  131.3520 O   0  0  0  0  0  0  0  0  0  0  0  0
  138.6699  147.6583  129.5417 H   0  0  0  0  0  0  0  0  0  0  0  0
  137.9164  148.5298  128.1635 H   0  0  0  0  0  0  0  0  0  0  0  0
  139.6833  148.2063  128.1635 H   0  0  0  0  0  0  0  0  0  0  0  0
  139.8804  153.3918  133.0246 H   0  0  0  0  0  0  0  0  0  0  0  0
  140.9449  155.8355  134.7963 H   0  0  0  0  0  0  0  0  0  0  0  0
  141.5667  156.5582  133.2739 H   0  0  0  0  0  0  0  0  0  0  0  0
  140.0062  155.6684  133.2739 H   0  0  0  0  0  0  0  0  0  0  0  0
  144.8560  155.6125  133.3807 H   0  0  0  0  0  0  0  0  0  0  0  0
  143.3384  156.3054  134.1607 H   0  0  0  0  0  0  0  0  0  0  0  0
  144.3629  156.0732  136.0955 H   0  0  0  0  0  0  0  0  0  0  0  0
  144.1132  154.2590  135.8269 H   0  0  0  0  0  0  0  0  0  0  0  0
  146.4521  155.2400  136.5681 H   0  0  0  0  0  0  0  0  0  0  0  0
  146.2590  153.8564  135.3868 H   0  0  0  0  0  0  0  0  0  0  0  0
  148.2865  154.0160  134.1705 H   0  0  0  0  0  0  0  0  0  0  0  0
  149.6692  155.2829  132.4902 H   0  0  0  0  0  0  0  0  0  0  0  0
  149.9311  157.8363  131.2242 H   0  0  0  0  0  0  0  0  0  0  0  0
  148.1970  160.7540  129.0900 H   0  0  0  0  0  0  0  0  0  0  0  0
  147.6700  161.4220  133.7670 H   0  0  0  0  0  0  0  0  0  0  0  0
  145.9470  161.8890  133.9960 H   0  0  0  0  0  0  0  0  0  0  0  0
  145.6676  157.4719  134.6199 H   0  0  0  0  0  0  0  0  0  0  0  0
  145.7057  152.8948  133.9463 H   0  0  0  0  0  0  0  0  0  0  0  0
  145.5070  152.0128  132.3941 H   0  0  0  0  0  0  0  0  0  0  0  0
  145.6976  153.7989  132.3941 H   0  0  0  0  0  0  0  0  0  0  0  0
  143.4501  151.0748  132.3418 H   0  0  0  0  0  0  0  0  0  0  0  0
  1  2  1  0
  2  3  1  0
  3  4  2  0
  4  5  1  0
  5  6  1  0
  6  7  2  0
  7  8  1  0
  8  9  1  0
  8 10  2  0
 10 11  1  0
 11 12  1  0
 12 13  1  0
 13 14  1  0
 14 15  2  0
 15 16  1  0
 16 17  2  0
 17 18  1  0
 18 19  2  0
 19 20  1  0
 20 21  1  0
 20 22  2  0
 19 23  1  0
 23 24  1  0
 24 25  1  0
 24 26  2  0
 23 27  1  0
 27 28  2  0
 10 29  1  0
 29 30  1  0
 29 31  2  0
  5 32  1  0
 32 33  2  0
 32 34  1  0
 34 35  1  0
 35 36  2  0
 35  3  1  0
 31  6  1  0
 28 14  1  0
 27 17  1  0
  1 37  1  0
  1 38  1  0
  1 39  1  0
  7 40  1  0
  9 41  1  0
  9 42  1  0
  9 43  1  0
 11 44  1  0
 11 45  1  0
 12 46  1  0
 12 47  1  0
 13 48  1  0
 13 49  1  0
 15 50  1  0
 16 51  1  0
 18 52  1  0
 21 53  1  0
 25 54  1  0
 25 55  1  0
 28 56  1  0
 30 57  1  0
 30 58  1  0
 30 59  1  0
 31 60  1  0
M  CHG  2  21  -1  34  -1
M  END
>  <UniqueID>  (24) 
24

>  <SMILES>  (24) 
COc1nn(-c2cc(C)c(CCCc3ccc4cc(C([NH-])=O)n(C(N)=O)c4c3)c(C)c2)c(=O)[n-]c1=O

>  <Energy>  (24) 
107.48814434921246

>  <Genealogy>  (24) 
COc1nn(-c2cc(C)c(CCCc3ccc4cc(C([NH-])=O)n(C(N)=O)c4c3)c(C)c2)c(=O)[n-]c1=O (protonated)
COc1nn(-c2cc(C)c(CCCc3ccc4cc(C([NH-])=O)n(C(N)=O)c4c3)c(C)c2)c(=O)[n-]c1=O (3D coordinates assigned)
COc1nn(-c2cc(C)c(CCCc3ccc4cc(C([NH-])=O)n(C(N)=O)c4c3)c(C)c2)c(=O)[n-]c1=O (optimized conformer: 107.48814434921246 kcal/mol)

>  <smiles>  (24) 
COc1nn(-c2cc(C)c(CCCc3ccc4cc(C(N)=O)n(C(N)=O)c4c3)c(C)c2)c(=O)[nH]c1=O

>  <score_type>  (24) 
oracle

>  <origin>  (24) 
adg

>  <m_score__min__energy>  (24) 
-10.449999999999999

>  <m_primary>  (24) 
energy

$$$$
24:0
     RDKit          3D

 67 72  0  0  0  0  0  0  0  0999 V2000
  139.3750  155.9810  132.9590 N   0  0  0  0  0  0  0  0  0  0  0  0
  139.5000  157.2970  133.5100 C   0  0  0  0  0  0  0  0  0  0  0  0
  138.4660  157.9230  133.8730 O   0  0  0  0  0  0  0  0  0  0  0  0
  140.8150  157.9590  133.6040 C   0  0  0  0  0  0  0  0  0  0  0  0
  140.9630  159.3430  133.5810 C   0  0  0  0  0  0  0  0  0  0  0  0
  142.3180  159.5600  133.6310 C   0  0  0  0  0  0  0  0  0  0  0  0
  143.0220  160.7610  133.6110 C   0  0  0  0  0  0  0  0  0  0  0  0
  144.4230  160.7030  133.6690 C   0  0  0  0  0  0  0  0  0  0  0  0
  145.0900  159.4560  133.7690 C   0  0  0  0  0  0  0  0  0  0  0  0
  146.5940  159.4020  133.7630 C   0  0  0  0  0  0  0  0  0  0  0  0
  147.0320  158.0180  133.5470 N   0  0  0  0  0  0  0  0  0  0  0  0
  146.6670  157.1060  134.4500 N   0  0  0  0  0  0  0  0  0  0  0  0
  146.9530  155.7830  134.3200 C   0  0  0  0  0  0  0  0  0  0  0  0
  146.5090  154.8660  135.3920 C   0  0  0  0  0  0  0  0  0  0  0  0
  145.1500  154.6930  135.6940 C   0  0  0  0  0  0  0  0  0  0  0  0
  144.7690  153.8410  136.7310 C   0  0  0  0  0  0  0  0  0  0  0  0
  145.7510  153.1630  137.4540 C   0  0  0  0  0  0  0  0  0  0  0  0
  147.0610  153.3300  137.1410 N   0  0  0  0  0  0  0  0  0  0  0  0
  147.4580  154.1450  136.1300 C   0  0  0  0  0  0  0  0  0  0  0  0
  147.6450  155.3430  133.1700 C   0  0  0  0  0  0  0  0  0  0  0  0
  147.8760  153.9080  132.8740 C   0  0  0  0  0  0  0  0  0  0  0  0
  149.1830  153.3990  132.7960 C   0  0  0  0  0  0  0  0  0  0  0  0
  149.3950  152.0460  132.5130 C   0  0  0  0  0  0  0  0  0  0  0  0
  148.3080  151.1960  132.3010 C   0  0  0  0  0  0  0  0  0  0  0  0
  147.0090  151.6960  132.3620 C   0  0  0  0  0  0  0  0  0  0  0  0
  146.7890  153.0460  132.6360 C   0  0  0  0  0  0  0  0  0  0  0  0
  148.0480  156.3010  132.2340 C   0  0  0  0  0  0  0  0  0  0  0  0
  147.7250  157.6430  132.4280 C   0  0  0  0  0  0  0  0  0  0  0  0
  148.0630  158.4900  131.5570 O   0  0  0  0  0  0  0  0  0  0  0  0
  144.3430  158.2570  133.7810 C   0  0  0  0  0  0  0  0  0  0  0  0
  142.9430  158.3370  133.7000 C   0  0  0  0  0  0  0  0  0  0  0  0
  142.0260  157.3340  133.6880 N   0  0  0  0  0  0  0  0  0  0  0  0
  142.2620  155.9170  133.8450 C   0  0  0  0  0  0  0  0  0  0  0  0
  141.3790  155.1810  134.3720 O   0  0  0  0  0  0  0  0  0  0  0  0
  143.4790  155.3570  133.4500 O   0  0  0  0  0  0  0  0  0  0  0  0
  143.6140  154.5190  132.3050 C   0  0  0  0  0  0  0  0  0  0  0  0
  142.9520  153.2040  132.5910 C   0  0  0  0  0  0  0  0  0  0  0  0
  143.7350  152.0580  132.8210 C   0  0  0  0  0  0  0  0  0  0  0  0
  143.1280  150.8050  132.9830 C   0  0  0  0  0  0  0  0  0  0  0  0
  141.7360  150.6870  132.9050 C   0  0  0  0  0  0  0  0  0  0  0  0
  140.9470  151.8230  132.6700 C   0  0  0  0  0  0  0  0  0  0  0  0
  141.5530  153.0790  132.5220 C   0  0  0  0  0  0  0  0  0  0  0  0
  140.2020  155.4860  132.5570 H   0  0  0  0  0  0  0  0  0  0  0  0
  138.4400  155.5230  132.8980 H   0  0  0  0  0  0  0  0  0  0  0  0
  140.1661  160.0998  133.5331 H   0  0  0  0  0  0  0  0  0  0  0  0
  142.4964  161.7255  133.5516 H   0  0  0  0  0  0  0  0  0  0  0  0
  145.0089  161.6334  133.6366 H   0  0  0  0  0  0  0  0  0  0  0  0
  146.9808  160.0396  132.9544 H   0  0  0  0  0  0  0  0  0  0  0  0
  146.9781  159.7621  134.7288 H   0  0  0  0  0  0  0  0  0  0  0  0
  144.3849  155.2290  135.1133 H   0  0  0  0  0  0  0  0  0  0  0  0
  143.7053  153.7052  136.9761 H   0  0  0  0  0  0  0  0  0  0  0  0
  145.4634  152.4931  138.2777 H   0  0  0  0  0  0  0  0  0  0  0  0
  148.5272  154.2397  135.8895 H   0  0  0  0  0  0  0  0  0  0  0  0
  150.0421  154.0666  132.9580 H   0  0  0  0  0  0  0  0  0  0  0  0
  150.4200  151.6508  132.4573 H   0  0  0  0  0  0  0  0  0  0  0  0
  148.4773  150.1307  132.0856 H   0  0  0  0  0  0  0  0  0  0  0  0
  146.1544  151.0243  132.1936 H   0  0  0  0  0  0  0  0  0  0  0  0
  145.7619  153.4385  132.6662 H   0  0  0  0  0  0  0  0  0  0  0  0
  148.6196  155.9955  131.3452 H   0  0  0  0  0  0  0  0  0  0  0  0
  144.8469  157.2818  133.8523 H   0  0  0  0  0  0  0  0  0  0  0  0
  143.1319  154.9955  131.4386 H   0  0  0  0  0  0  0  0  0  0  0  0
  144.6790  154.3613  132.0793 H   0  0  0  0  0  0  0  0  0  0  0  0
  144.8302  152.1458  132.8740 H   0  0  0  0  0  0  0  0  0  0  0  0
  143.7459  149.9146  133.1714 H   0  0  0  0  0  0  0  0  0  0  0  0
  141.2600  149.7030  133.0280 H   0  0  0  0  0  0  0  0  0  0  0  0
  139.8532  151.7285  132.6018 H   0  0  0  0  0  0  0  0  0  0  0  0
  140.9313  153.9703  132.3512 H   0  0  0  0  0  0  0  0  0  0  0  0
  1  2  1  0
  2  3  2  0
  2  4  1  0
  4  5  2  0
  5  6  1  0
  6  7  2  0
  7  8  1  0
  8  9  2  0
  9 10  1  0
 10 11  1  0
 11 12  1  0
 12 13  2  0
 13 14  1  0
 14 15  2  0
 15 16  1  0
 16 17  2  0
 17 18  1  0
 18 19  2  0
 13 20  1  0
 20 21  1  0
 21 22  2  0
 22 23  1  0
 23 24  2  0
 24 25  1  0
 25 26  2  0
 20 27  2  0
 27 28  1  0
 28 29  2  0
  9 30  1  0
 30 31  2  0
 31 32  1  0
 32 33  1  0
 33 34  2  0
 33 35  1  0
 35 36  1  0
 36 37  1  0
 37 38  2  0
 38 39  1  0
 39 40  2  0
 40 41  1  0
 41 42  2  0
 32  4  1  0
 42 37  1  0
 31  6  1  0
 28 11  1  0
 19 14  1  0
 26 21  1  0
  1 43  1  0
  1 44  1  0
  5 45  1  0
  7 46  1  0
  8 47  1  0
 10 48  1  0
 10 49  1  0
 15 50  1  0
 16 51  1  0
 17 52  1  0
 19 53  1  0
 22 54  1  0
 23 55  1  0
 24 56  1  0
 25 57  1  0
 26 58  1  0
 27 59  1  0
 30 60  1  0
 36 61  1  0
 36 62  1  0
 38 63  1  0
 39 64  1  0
 40 65  1  0
 41 66  1  0
 42 67  1  0
M  END
>  <UniqueID>  (25) 
25

>  <SMILES>  (25) 
NC(=O)c1cc2ccc(Cn3nc(-c4cccnc4)c(-c4ccccc4)cc3=O)cc2n1C(=O)OCc1ccccc1

>  <Energy>  (25) 
124.20495461036927

>  <Genealogy>  (25) 
NC(=O)c1cc2ccc(Cn3nc(-c4cccnc4)c(-c4ccccc4)cc3=O)cc2n1C(=O)OCc1ccccc1 (3D coordinates assigned)
NC(=O)c1cc2ccc(Cn3nc(-c4cccnc4)c(-c4ccccc4)cc3=O)cc2n1C(=O)OCc1ccccc1 (optimized conformer: 124.20495461036927 kcal/mol)

>  <smiles>  (25) 
NC(=O)c1cc2ccc(Cn3nc(-c4cccnc4)c(-c4ccccc4)cc3=O)cc2n1C(=O)OCc1ccccc1

>  <score_type>  (25) 
oracle

>  <origin>  (25) 
adg

>  <m_score__min__energy>  (25) 
-12

>  <m_primary>  (25) 
energy

$$$$
25:0
     RDKit          3D

 49 51  0  0  0  0  0  0  0  0999 V2000
  140.9660  159.0090  133.7530 C   0  0  0  0  0  0  0  0  0  0  0  0
  141.7080  158.3390  134.9230 C   0  0  0  0  0  0  0  0  0  0  0  0
  141.3370  156.8460  135.0190 C   0  0  0  0  0  0  0  0  0  0  0  0
  141.3130  159.0360  136.2340 C   0  0  0  0  0  0  0  0  0  0  0  0
  143.1270  158.4960  134.7740 O   0  0  0  0  0  0  0  0  0  0  0  0
  143.8650  158.3260  133.5940 C   0  0  0  0  0  0  0  0  0  0  0  0
  143.3910  157.6840  132.6180 O   0  0  0  0  0  0  0  0  0  0  0  0
  145.1940  158.8620  133.5130 N   0  0  0  0  0  0  0  0  0  0  0  0
  145.5800  160.1680  133.5740 C   0  0  0  0  0  0  0  0  0  0  0  0
  144.7080  161.3190  133.8940 C   0  0  0  0  0  0  0  0  0  0  0  0
  143.2950  161.2390  133.7260 N   0  0  0  0  0  0  0  0  0  0  0  0
  145.2130  162.3660  134.3770 O   0  0  0  0  0  0  0  0  0  0  0  0
  146.9550  160.2800  133.3810 C   0  0  0  0  0  0  0  0  0  0  0  0
  147.4060  158.9910  133.2110 C   0  0  0  0  0  0  0  0  0  0  0  0
  148.6920  158.5150  132.9780 C   0  0  0  0  0  0  0  0  0  0  0  0
  148.8650  157.1290  132.8210 C   0  0  0  0  0  0  0  0  0  0  0  0
  147.7550  156.2460  132.8880 C   0  0  0  0  0  0  0  0  0  0  0  0
  147.9460  154.7830  132.7160 C   0  0  0  0  0  0  0  0  0  0  0  0
  149.2310  154.2480  132.5020 C   0  0  0  0  0  0  0  0  0  0  0  0
  149.4070  152.8700  132.3430 C   0  0  0  0  0  0  0  0  0  0  0  0
  148.3070  152.0120  132.3980 C   0  0  0  0  0  0  0  0  0  0  0  0
  148.3170  150.2280  132.2210 S   0  0  0  0  0  0  0  0  0  0  0  0
  148.4950  149.5570  133.4230 F   0  0  0  0  0  0  0  0  0  0  0  0
  148.9780  149.9380  134.0890 F   0  0  0  0  0  0  0  0  0  0  0  0
  149.2840  150.1800  134.1960 F   0  0  0  0  0  0  0  0  0  0  0  0
  148.3610  149.4850  133.0170 F   0  0  0  0  0  0  0  0  0  0  0  0
  150.0390  151.4740  135.0040 F   0  0  0  0  0  0  0  0  0  0  0  0
  147.0280  152.5290  132.6100 C   0  0  0  0  0  0  0  0  0  0  0  0
  146.8450  153.9070  132.7680 C   0  0  0  0  0  0  0  0  0  0  0  0
  146.4630  156.7720  133.1210 C   0  0  0  0  0  0  0  0  0  0  0  0
  146.3240  158.1540  133.2960 C   0  0  0  0  0  0  0  0  0  0  0  0
  140.2040  159.6970  134.1480 H   0  0  0  0  0  0  0  0  0  0  0  0
  141.6837  159.5710  133.1374 H   0  0  0  0  0  0  0  0  0  0  0  0
  140.4799  158.2378  133.1374 H   0  0  0  0  0  0  0  0  0  0  0  0
  141.2643  156.5535  136.0769 H   0  0  0  0  0  0  0  0  0  0  0  0
  140.3693  156.6761  134.5243 H   0  0  0  0  0  0  0  0  0  0  0  0
  142.1126  156.2429  134.5243 H   0  0  0  0  0  0  0  0  0  0  0  0
  141.6550  158.4324  137.0876 H   0  0  0  0  0  0  0  0  0  0  0  0
  141.7820  160.0301  136.2765 H   0  0  0  0  0  0  0  0  0  0  0  0
  140.2192  159.1445  136.2765 H   0  0  0  0  0  0  0  0  0  0  0  0
  142.8170  160.3170  133.6240 H   0  0  0  0  0  0  0  0  0  0  0  0
  147.5533  161.2029  133.3674 H   0  0  0  0  0  0  0  0  0  0  0  0
  149.5483  159.2029  132.9184 H   0  0  0  0  0  0  0  0  0  0  0  0
  149.8721  156.7236  132.6441 H   0  0  0  0  0  0  0  0  0  0  0  0
  150.1020  154.9186  132.4596 H   0  0  0  0  0  0  0  0  0  0  0  0
  150.4141  152.4611  132.1743 H   0  0  0  0  0  0  0  0  0  0  0  0
  146.1623  151.8518  132.6529 H   0  0  0  0  0  0  0  0  0  0  0  0
  145.8345  154.3086  132.9339 H   0  0  0  0  0  0  0  0  0  0  0  0
  145.5860  156.1094  133.1638 H   0  0  0  0  0  0  0  0  0  0  0  0
  1  2  1  0
  2  3  1  0
  2  4  1  0
  2  5  1  0
  5  6  1  0
  6  7  2  0
  6  8  1  0
  8  9  1  0
  9 10  1  0
 10 11  1  0
 10 12  2  0
  9 13  2  0
 13 14  1  0
 14 15  2  0
 15 16  1  0
 16 17  2  0
 17 18  1  0
 18 19  2  0
 19 20  1  0
 20 21  2  0
 21 22  1  0
 22 23  1  0
 22 24  1  0
 22 25  1  0
 22 26  1  0
 22 27  1  0
 21 28  1  0
 28 29  2  0
 17 30  1  0
 30 31  2  0
 31  8  1  0
 31 14  1  0
 29 18  1  0
  1 32  1  0
  1 33  1  0
  1 34  1  0
  3 35  1  0
  3 36  1  0
  3 37  1  0
  4 38  1  0
  4 39  1  0
  4 40  1  0
 11 41  1  0
 13 42  1  0
 15 43  1  0
 16 44  1  0
 19 45  1  0
 20 46  1  0
 28 47  1  0
 29 48  1  0
 30 49  1  0
M  CHG  1  11  -1
M  END
>  <UniqueID>  (26) 
26

>  <SMILES>  (26) 
CC(C)(C)OC(=O)n1c(C([NH-])=O)cc2ccc(-c3ccc(S(F)(F)(F)(F)F)cc3)cc21

>  <Energy>  (26) 
84.01272771020176

>  <Genealogy>  (26) 
CC(C)(C)OC(=O)n1c(C([NH-])=O)cc2ccc(-c3ccc(S(F)(F)(F)(F)F)cc3)cc21 (protonated)
CC(C)(C)OC(=O)n1c(C([NH-])=O)cc2ccc(-c3ccc(S(F)(F)(F)(F)F)cc3)cc21 (3D coordinates assigned)
CC(C)(C)OC(=O)n1c(C([NH-])=O)cc2ccc(-c3ccc(S(F)(F)(F)(F)F)cc3)cc21 (optimized conformer: 84.01272771020176 kcal/mol)

>  <smiles>  (26) 
CC(C)(C)OC(=O)n1c(C(N)=O)cc2ccc(-c3ccc(S(F)(F)(F)(F)F)cc3)cc21

>  <score_type>  (26) 
oracle

>  <origin>  (26) 
adg

>  <m_score__min__energy>  (26) 
-9.4100000000000001

>  <m_primary>  (26) 
energy

$$$$
26:0
     RDKit          3D

 54 56  0  0  0  0  0  0  0  0999 V2000
  139.5480  156.4490  132.8240 C   0  0  0  0  0  0  0  0  0  0  0  0
  140.4480  157.4000  132.2980 O   0  0  0  0  0  0  0  0  0  0  0  0
  139.7740  158.6110  132.0140 C   0  0  0  0  0  0  0  0  0  0  0  0
  140.2070  159.7040  132.9970 C   0  0  0  0  0  0  0  0  0  0  0  0
  141.2470  159.1800  133.9110 N   0  0  0  0  0  0  0  0  0  0  0  0
  142.4410  160.0550  133.9350 C   0  0  0  0  0  0  0  0  0  0  0  0
  143.6490  159.3230  133.3510 C   0  0  0  0  0  0  0  0  0  0  0  0
  143.2180  158.2060  132.6240 O   0  0  0  0  0  0  0  0  0  0  0  0
  140.7070  158.9790  135.2740 C   0  0  0  0  0  0  0  0  0  0  0  0
  141.1380  157.6370  135.8040 C   0  0  0  0  0  0  0  0  0  0  0  0
  140.7420  157.2100  137.0800 C   0  0  0  0  0  0  0  0  0  0  0  0
  141.1650  155.9720  137.5690 C   0  0  0  0  0  0  0  0  0  0  0  0
  141.9860  155.1510  136.7900 C   0  0  0  0  0  0  0  0  0  0  0  0
  142.3930  155.5620  135.5080 C   0  0  0  0  0  0  0  0  0  0  0  0
  143.2670  154.6930  134.6800 C   0  0  0  0  0  0  0  0  0  0  0  0
  142.7020  153.6940  133.8450 C   0  0  0  0  0  0  0  0  0  0  0  0
  143.5220  152.8560  133.0720 C   0  0  0  0  0  0  0  0  0  0  0  0
  144.8990  153.0390  133.1460 C   0  0  0  0  0  0  0  0  0  0  0  0
  145.9160  152.3540  132.5240 C   0  0  0  0  0  0  0  0  0  0  0  0
  147.0920  152.9550  132.9660 C   0  0  0  0  0  0  0  0  0  0  0  0
  148.4390  152.5920  132.4740 C   0  0  0  0  0  0  0  0  0  0  0  0
  149.4120  153.6020  132.1990 N   0  0  0  0  0  0  0  0  0  0  0  0
  148.7530  151.3820  132.3220 O   0  0  0  0  0  0  0  0  0  0  0  0
  146.8130  153.9710  133.8310 N   0  0  0  0  0  0  0  0  0  0  0  0
  147.7520  154.7850  134.5550 C   0  0  0  0  0  0  0  0  0  0  0  0
  148.4040  155.6850  133.9620 O   0  0  0  0  0  0  0  0  0  0  0  0
  147.9400  154.5960  135.9180 O   0  0  0  0  0  0  0  0  0  0  0  0
  145.4650  154.0090  133.9310 C   0  0  0  0  0  0  0  0  0  0  0  0
  144.6740  154.8480  134.7250 C   0  0  0  0  0  0  0  0  0  0  0  0
  141.9600  156.8090  135.0230 C   0  0  0  0  0  0  0  0  0  0  0  0
  139.5799  156.4827  133.9230 H   0  0  0  0  0  0  0  0  0  0  0  0
  138.5289  156.6788  132.4795 H   0  0  0  0  0  0  0  0  0  0  0  0
  139.8336  155.4441  132.4795 H   0  0  0  0  0  0  0  0  0  0  0  0
  140.0152  158.9287  130.9889 H   0  0  0  0  0  0  0  0  0  0  0  0
  138.6905  158.4492  132.1134 H   0  0  0  0  0  0  0  0  0  0  0  0
  140.6124  160.5588  132.4358 H   0  0  0  0  0  0  0  0  0  0  0  0
  139.3358  160.0245  133.5872 H   0  0  0  0  0  0  0  0  0  0  0  0
  142.2411  160.9576  133.3390 H   0  0  0  0  0  0  0  0  0  0  0  0
  142.6603  160.3313  134.9769 H   0  0  0  0  0  0  0  0  0  0  0  0
  144.2011  160.0022  132.6847 H   0  0  0  0  0  0  0  0  0  0  0  0
  144.3060  158.9936  134.1694 H   0  0  0  0  0  0  0  0  0  0  0  0
  142.3540  158.4640  132.2110 H   0  0  0  0  0  0  0  0  0  0  0  0
  141.0854  159.7713  135.9366 H   0  0  0  0  0  0  0  0  0  0  0  0
  139.6083  159.0177  135.2373 H   0  0  0  0  0  0  0  0  0  0  0  0
  140.0965  157.8520  137.6973 H   0  0  0  0  0  0  0  0  0  0  0  0
  140.8512  155.6418  138.5703 H   0  0  0  0  0  0  0  0  0  0  0  0
  142.3156  154.1776  137.1822 H   0  0  0  0  0  0  0  0  0  0  0  0
  141.6093  153.5748  133.8029 H   0  0  0  0  0  0  0  0  0  0  0  0
  143.0882  152.0777  132.4270 H   0  0  0  0  0  0  0  0  0  0  0  0
  145.8209  151.5099  131.8251 H   0  0  0  0  0  0  0  0  0  0  0  0
  150.3720  153.3330  131.8900 H   0  0  0  0  0  0  0  0  0  0  0  0
  149.1740  154.6170  132.2610 H   0  0  0  0  0  0  0  0  0  0  0  0
  145.1352  155.6108  135.3696 H   0  0  0  0  0  0  0  0  0  0  0  0
  142.2689  157.1395  134.0203 H   0  0  0  0  0  0  0  0  0  0  0  0
  1  2  1  0
  2  3  1  0
  3  4  1  0
  4  5  1  0
  5  6  1  0
  6  7  1  0
  7  8  1  0
  5  9  1  0
  9 10  1  0
 10 11  2  0
 11 12  1  0
 12 13  2  0
 13 14  1  0
 14 15  1  0
 15 16  2  0
 16 17  1  0
 17 18  2  0
 18 19  1  0
 19 20  2  0
 20 21  1  0
 21 22  1  0
 21 23  2  0
 20 24  1  0
 24 25  1  0
 25 26  2  0
 25 27  1  0
 24 28  1  0
 28 29  2  0
 14 30  2  0
 30 10  1  0
 29 15  1  0
 28 18  1  0
  1 31  1  0
  1 32  1  0
  1 33  1  0
  3 34  1  0
  3 35  1  0
  4 36  1  0
  4 37  1  0
  6 38  1  0
  6 39  1  0
  7 40  1  0
  7 41  1  0
  8 42  1  0
  9 43  1  0
  9 44  1  0
 11 45  1  0
 12 46  1  0
 13 47  1  0
 16 48  1  0
 17 49  1  0
 19 50  1  0
 22 51  1  0
 22 52  1  0
 29 53  1  0
 30 54  1  0
M  CHG  1  27  -1
M  END
>  <UniqueID>  (27) 
27

>  <SMILES>  (27) 
COCCN(CCO)Cc1cccc(-c2ccc3cc(C(N)=O)n(C(=O)[O-])c3c2)c1

>  <Energy>  (27) 
100.18290121170348

>  <Genealogy>  (27) 
COCCN(CCO)Cc1cccc(-c2ccc3cc(C(N)=O)n(C(=O)[O-])c3c2)c1 (protonated)
COCCN(CCO)Cc1cccc(-c2ccc3cc(C(N)=O)n(C(=O)[O-])c3c2)c1 (3D coordinates assigned)
COCCN(CCO)Cc1cccc(-c2ccc3cc(C(N)=O)n(C(=O)[O-])c3c2)c1 (optimized conformer: 100.18290121170348 kcal/mol)

>  <smiles>  (27) 
COCCN(CCO)Cc1cccc(-c2ccc3cc(C(N)=O)n(C(=O)O)c3c2)c1

>  <score_type>  (27) 
oracle

>  <origin>  (27) 
adg

>  <m_score__min__energy>  (27) 
-7.9199999999999999

>  <m_primary>  (27) 
energy

$$$$
27:0
     RDKit          3D

 47 49  0  0  0  0  0  0  0  0999 V2000
  148.7080  150.8660  132.4030 C   0  0  0  0  0  0  0  0  0  0  0  0
  148.4540  152.3310  132.6010 C   0  0  0  0  0  0  0  0  0  0  0  0
  147.1570  152.7950  132.8630 C   0  0  0  0  0  0  0  0  0  0  0  0
  146.9120  154.1630  133.0110 C   0  0  0  0  0  0  0  0  0  0  0  0
  147.9610  155.0930  132.8870 C   0  0  0  0  0  0  0  0  0  0  0  0
  147.7020  156.5480  133.0420 C   0  0  0  0  0  0  0  0  0  0  0  0
  148.7780  157.4750  133.0080 C   0  0  0  0  0  0  0  0  0  0  0  0
  148.5470  158.8500  133.1660 C   0  0  0  0  0  0  0  0  0  0  0  0
  147.2350  159.2760  133.3470 C   0  0  0  0  0  0  0  0  0  0  0  0
  146.7360  160.5420  133.5510 C   0  0  0  0  0  0  0  0  0  0  0  0
  145.3580  160.3790  133.6840 C   0  0  0  0  0  0  0  0  0  0  0  0
  144.4150  161.5060  133.8390 C   0  0  0  0  0  0  0  0  0  0  0  0
  143.0120  161.2760  133.7300 N   0  0  0  0  0  0  0  0  0  0  0  0
  144.8320  162.6630  134.1040 O   0  0  0  0  0  0  0  0  0  0  0  0
  145.0210  159.0630  133.5720 N   0  0  0  0  0  0  0  0  0  0  0  0
  143.7190  158.4750  133.7270 C   0  0  0  0  0  0  0  0  0  0  0  0
  143.2130  157.8200  132.7760 O   0  0  0  0  0  0  0  0  0  0  0  0
  143.0380  158.6190  134.9460 O   0  0  0  0  0  0  0  0  0  0  0  0
  141.6360  158.4070  135.1670 C   0  0  0  0  0  0  0  0  0  0  0  0
  140.8100  158.9910  134.0070 C   0  0  0  0  0  0  0  0  0  0  0  0
  141.1990  159.0230  136.5110 C   0  0  0  0  0  0  0  0  0  0  0  0
  141.4120  156.8890  135.2220 C   0  0  0  0  0  0  0  0  0  0  0  0
  146.1810  158.4010  133.3640 C   0  0  0  0  0  0  0  0  0  0  0  0
  146.3820  157.0230  133.2290 C   0  0  0  0  0  0  0  0  0  0  0  0
  149.2560  154.6230  132.6050 C   0  0  0  0  0  0  0  0  0  0  0  0
  149.4990  153.2550  132.4590 C   0  0  0  0  0  0  0  0  0  0  0  0
  148.7935  150.3730  133.3826 H   0  0  0  0  0  0  0  0  0  0  0  0
  147.8734  150.4219  131.8406 H   0  0  0  0  0  0  0  0  0  0  0  0
  149.6433  150.7288  131.8406 H   0  0  0  0  0  0  0  0  0  0  0  0
  146.3275  152.0781  132.9526 H   0  0  0  0  0  0  0  0  0  0  0  0
  145.8923  154.5152  133.2259 H   0  0  0  0  0  0  0  0  0  0  0  0
  149.8046  157.1105  132.8560 H   0  0  0  0  0  0  0  0  0  0  0  0
  149.3786  159.5698  133.1473 H   0  0  0  0  0  0  0  0  0  0  0  0
  147.3039  161.4829  133.5989 H   0  0  0  0  0  0  0  0  0  0  0  0
  142.6330  160.3080  133.6310 H   0  0  0  0  0  0  0  0  0  0  0  0
  139.9750  159.5814  134.4123 H   0  0  0  0  0  0  0  0  0  0  0  0
  141.4508  159.6379  133.3898 H   0  0  0  0  0  0  0  0  0  0  0  0
  140.4138  158.1711  133.3898 H   0  0  0  0  0  0  0  0  0  0  0  0
  141.6182  158.4321  137.3387 H   0  0  0  0  0  0  0  0  0  0  0  0
  141.5660  160.0579  136.5766 H   0  0  0  0  0  0  0  0  0  0  0  0
  140.1010  159.0185  136.5766 H   0  0  0  0  0  0  0  0  0  0  0  0
  141.3639  156.5633  136.2716 H   0  0  0  0  0  0  0  0  0  0  0  0
  140.4673  156.6392  134.7169 H   0  0  0  0  0  0  0  0  0  0  0  0
  142.2443  156.3770  134.7169 H   0  0  0  0  0  0  0  0  0  0  0  0
  145.5331  156.3245  133.2674 H   0  0  0  0  0  0  0  0  0  0  0  0
  150.0847  155.3385  132.4985 H   0  0  0  0  0  0  0  0  0  0  0  0
  150.5153  152.9010  132.2315 H   0  0  0  0  0  0  0  0  0  0  0  0
  1  2  1  0
  2  3  2  0
  3  4  1  0
  4  5  2  0
  5  6  1  0
  6  7  2  0
  7  8  1  0
  8  9  2  0
  9 10  1  0
 10 11  2  0
 11 12  1  0
 12 13  1  0
 12 14  2  0
 11 15  1  0
 15 16  1  0
 16 17  2  0
 16 18  1  0
 18 19  1  0
 19 20  1  0
 19 21  1  0
 19 22  1  0
 15 23  1  0
 23 24  2  0
  5 25  1  0
 25 26  2  0
 26  2  1  0
 24  6  1  0
 23  9  1  0
  1 27  1  0
  1 28  1  0
  1 29  1  0
  3 30  1  0
  4 31  1  0
  7 32  1  0
  8 33  1  0
 10 34  1  0
 13 35  1  0
 20 36  1  0
 20 37  1  0
 20 38  1  0
 21 39  1  0
 21 40  1  0
 21 41  1  0
 22 42  1  0
 22 43  1  0
 22 44  1  0
 24 45  1  0
 25 46  1  0
 26 47  1  0
M  CHG  1  13  -1
M  END
>  <UniqueID>  (28) 
28

>  <SMILES>  (28) 
Cc1ccc(-c2ccc3cc(C([NH-])=O)n(C(=O)OC(C)(C)C)c3c2)cc1

>  <Energy>  (28) 
87.37388730854285

>  <Genealogy>  (28) 
Cc1ccc(-c2ccc3cc(C([NH-])=O)n(C(=O)OC(C)(C)C)c3c2)cc1 (protonated)
Cc1ccc(-c2ccc3cc(C([NH-])=O)n(C(=O)OC(C)(C)C)c3c2)cc1 (3D coordinates assigned)
Cc1ccc(-c2ccc3cc(C([NH-])=O)n(C(=O)OC(C)(C)C)c3c2)cc1 (optimized conformer: 87.37388730854285 kcal/mol)

>  <smiles>  (28) 
Cc1ccc(-c2ccc3cc(C(N)=O)n(C(=O)OC(C)(C)C)c3c2)cc1

>  <score_type>  (28) 
oracle

>  <origin>  (28) 
adg

>  <m_score__min__energy>  (28) 
-8.6400000000000006

>  <m_primary>  (28) 
energy

$$$$
28:0
     RDKit          3D

 42 44  0  0  0  0  0  0  0  0999 V2000
  148.8590  152.8760  133.6080 C   0  0  0  0  0  0  0  0  0  0  0  0
  148.0520  154.0360  133.9950 N   0  0  0  0  0  0  0  0  0  0  0  0
  147.3440  154.0550  135.2780 C   0  0  0  0  0  0  0  0  0  0  0  0
  148.0310  155.1980  133.1430 C   0  0  0  0  0  0  0  0  0  0  0  0
  148.8990  155.3330  132.2380 O   0  0  0  0  0  0  0  0  0  0  0  0
  147.0400  156.2200  133.3190 N   0  0  0  0  0  0  0  0  0  0  0  0
  147.2320  157.5670  133.3390 C   0  0  0  0  0  0  0  0  0  0  0  0
  148.5420  158.2530  133.3300 C   0  0  0  0  0  0  0  0  0  0  0  0
  149.4710  158.0740  132.2590 N   0  0  0  0  0  0  0  0  0  0  0  0
  148.8620  158.9810  134.3070 O   0  0  0  0  0  0  0  0  0  0  0  0
  146.0090  158.2340  133.3540 C   0  0  0  0  0  0  0  0  0  0  0  0
  145.0530  157.2440  133.3360 C   0  0  0  0  0  0  0  0  0  0  0  0
  143.6650  157.3350  133.3030 C   0  0  0  0  0  0  0  0  0  0  0  0
  142.9280  156.1410  133.2300 C   0  0  0  0  0  0  0  0  0  0  0  0
  143.5840  154.8820  133.1760 C   0  0  0  0  0  0  0  0  0  0  0  0
  142.7960  153.6260  133.0900 C   0  0  0  0  0  0  0  0  0  0  0  0
  143.4440  152.3800  133.0310 C   0  0  0  0  0  0  0  0  0  0  0  0
  142.7030  151.1970  132.9500 C   0  0  0  0  0  0  0  0  0  0  0  0
  141.2980  151.2350  132.9260 C   0  0  0  0  0  0  0  0  0  0  0  0
  140.5110  149.9860  132.8380 C   0  0  0  0  0  0  0  0  0  0  0  0
  140.2590  149.3130  133.8730 O   0  0  0  0  0  0  0  0  0  0  0  0
  140.0350  149.5380  131.6110 O   0  0  0  0  0  0  0  0  0  0  0  0
  140.6500  152.4800  132.9840 C   0  0  0  0  0  0  0  0  0  0  0  0
  141.3910  153.6620  133.0660 C   0  0  0  0  0  0  0  0  0  0  0  0
  144.9970  154.8350  133.2020 C   0  0  0  0  0  0  0  0  0  0  0  0
  145.7020  156.0380  133.3050 C   0  0  0  0  0  0  0  0  0  0  0  0
  149.2174  152.3608  134.5114 H   0  0  0  0  0  0  0  0  0  0  0  0
  148.2455  152.1852  133.0110 H   0  0  0  0  0  0  0  0  0  0  0  0
  149.7200  153.2111  133.0110 H   0  0  0  0  0  0  0  0  0  0  0  0
  148.0745  154.0354  136.1002 H   0  0  0  0  0  0  0  0  0  0  0  0
  146.7371  154.9697  135.3484 H   0  0  0  0  0  0  0  0  0  0  0  0
  146.6890  153.1741  135.3484 H   0  0  0  0  0  0  0  0  0  0  0  0
  149.3340  157.3330  131.5390 H   0  0  0  0  0  0  0  0  0  0  0  0
  150.3620  158.6190  132.2470 H   0  0  0  0  0  0  0  0  0  0  0  0
  145.8427  159.3211  133.3756 H   0  0  0  0  0  0  0  0  0  0  0  0
  143.1601  158.3118  133.3331 H   0  0  0  0  0  0  0  0  0  0  0  0
  141.8289  156.1816  133.2145 H   0  0  0  0  0  0  0  0  0  0  0  0
  144.5429  152.3352  133.0487 H   0  0  0  0  0  0  0  0  0  0  0  0
  143.2236  150.2290  132.9047 H   0  0  0  0  0  0  0  0  0  0  0  0
  139.5511  152.5248  132.9647 H   0  0  0  0  0  0  0  0  0  0  0  0
  140.8699  154.6296  133.1122 H   0  0  0  0  0  0  0  0  0  0  0  0
  145.5292  153.8742  133.1426 H   0  0  0  0  0  0  0  0  0  0  0  0
  1  2  1  0
  2  3  1  0
  2  4  1  0
  4  5  2  0
  4  6  1  0
  6  7  1  0
  7  8  1  0
  8  9  1  0
  8 10  2  0
  7 11  2  0
 11 12  1  0
 12 13  2  0
 13 14  1  0
 14 15  2  0
 15 16  1  0
 16 17  2  0
 17 18  1  0
 18 19  2  0
 19 20  1  0
 20 21  2  0
 20 22  1  0
 19 23  1  0
 23 24  2  0
 15 25  1  0
 25 26  2  0
 26  6  1  0
 26 12  1  0
 24 16  1  0
  1 27  1  0
  1 28  1  0
  1 29  1  0
  3 30  1  0
  3 31  1  0
  3 32  1  0
  9 33  1  0
  9 34  1  0
 11 35  1  0
 13 36  1  0
 14 37  1  0
 17 38  1  0
 18 39  1  0
 23 40  1  0
 24 41  1  0
 25 42  1  0
M  CHG  1  22  -1
M  END
>  <UniqueID>  (29) 
29

>  <SMILES>  (29) 
CN(C)C(=O)n1c(C(N)=O)cc2ccc(-c3ccc(C(=O)[O-])cc3)cc21

>  <Energy>  (29) 
88.00525301646172

>  <Genealogy>  (29) 
CN(C)C(=O)n1c(C(N)=O)cc2ccc(-c3ccc(C(=O)[O-])cc3)cc21 (protonated)
CN(C)C(=O)n1c(C(N)=O)cc2ccc(-c3ccc(C(=O)[O-])cc3)cc21 (3D coordinates assigned)
CN(C)C(=O)n1c(C(N)=O)cc2ccc(-c3ccc(C(=O)[O-])cc3)cc21 (optimized conformer: 88.00525301646172 kcal/mol)

>  <smiles>  (29) 
CN(C)C(=O)n1c(C(N)=O)cc2ccc(-c3ccc(C(=O)O)cc3)cc21

>  <score_type>  (29) 
oracle

>  <origin>  (29) 
adg

>  <m_score__min__energy>  (29) 
-7.9900000000000002

>  <m_primary>  (29) 
energy

$$$$
29:0
     RDKit          3D

 54 56  0  0  0  0  0  0  0  0999 V2000
  139.5240  149.8060  131.8770 C   0  0  0  0  0  0  0  0  0  0  0  0
  140.5400  149.9500  132.9700 C   0  0  0  0  0  0  0  0  0  0  0  0
  140.2950  149.4270  134.0910 O   0  0  0  0  0  0  0  0  0  0  0  0
  141.7720  150.6790  132.7650 N   0  0  0  0  0  0  0  0  0  0  0  0
  142.9630  149.9970  132.2490 C   0  0  0  0  0  0  0  0  0  0  0  0
  141.8040  152.1080  132.9470 C   0  0  0  0  0  0  0  0  0  0  0  0
  140.6090  152.8390  133.0310 C   0  0  0  0  0  0  0  0  0  0  0  0
  140.6370  154.2250  133.2130 C   0  0  0  0  0  0  0  0  0  0  0  0
  141.8630  154.9060  133.3180 C   0  0  0  0  0  0  0  0  0  0  0  0
  141.8940  156.3780  133.5100 C   0  0  0  0  0  0  0  0  0  0  0  0
  140.6990  157.0880  133.8050 C   0  0  0  0  0  0  0  0  0  0  0  0
  140.7140  158.4820  133.9760 C   0  0  0  0  0  0  0  0  0  0  0  0
  141.9330  159.1410  133.8560 C   0  0  0  0  0  0  0  0  0  0  0  0
  142.2240  160.4830  133.9440 C   0  0  0  0  0  0  0  0  0  0  0  0
  143.5980  160.5770  133.7280 C   0  0  0  0  0  0  0  0  0  0  0  0
  144.3480  161.8470  133.8140 C   0  0  0  0  0  0  0  0  0  0  0  0
  145.7420  161.8550  134.1110 N   0  0  0  0  0  0  0  0  0  0  0  0
  143.7420  162.9420  133.6720 O   0  0  0  0  0  0  0  0  0  0  0  0
  144.1320  159.3430  133.5090 N   0  0  0  0  0  0  0  0  0  0  0  0
  145.4860  159.0270  133.1470 C   0  0  0  0  0  0  0  0  0  0  0  0
  146.0960  159.7530  132.3170 O   0  0  0  0  0  0  0  0  0  0  0  0
  146.1170  157.9240  133.7420 O   0  0  0  0  0  0  0  0  0  0  0  0
  147.5090  157.5830  133.6390 C   0  0  0  0  0  0  0  0  0  0  0  0
  147.7770  156.4720  134.6650 C   0  0  0  0  0  0  0  0  0  0  0  0
  148.3890  158.8000  133.9800 C   0  0  0  0  0  0  0  0  0  0  0  0
  147.8370  157.0510  132.2310 C   0  0  0  0  0  0  0  0  0  0  0  0
  143.0990  158.4740  133.5920 C   0  0  0  0  0  0  0  0  0  0  0  0
  143.1130  157.0890  133.3980 C   0  0  0  0  0  0  0  0  0  0  0  0
  143.0590  154.1710  133.2380 C   0  0  0  0  0  0  0  0  0  0  0  0
  143.0280  152.7850  133.0550 C   0  0  0  0  0  0  0  0  0  0  0  0
  138.5269  149.6647  132.3195 H   0  0  0  0  0  0  0  0  0  0  0  0
  139.5238  150.7131  131.2548 H   0  0  0  0  0  0  0  0  0  0  0  0
  139.7759  148.9346  131.2548 H   0  0  0  0  0  0  0  0  0  0  0  0
  143.5776  149.6451  133.0907 H   0  0  0  0  0  0  0  0  0  0  0  0
  142.6562  149.1377  131.6346 H   0  0  0  0  0  0  0  0  0  0  0  0
  143.5488  150.6965  131.6346 H   0  0  0  0  0  0  0  0  0  0  0  0
  139.6434  152.3179  132.9531 H   0  0  0  0  0  0  0  0  0  0  0  0
  139.6933  154.7868  133.2745 H   0  0  0  0  0  0  0  0  0  0  0  0
  139.7505  156.5391  133.9006 H   0  0  0  0  0  0  0  0  0  0  0  0
  139.7898  159.0357  134.1981 H   0  0  0  0  0  0  0  0  0  0  0  0
  141.5220  161.3063  134.1425 H   0  0  0  0  0  0  0  0  0  0  0  0
  146.4490  161.6170  133.3800 H   0  0  0  0  0  0  0  0  0  0  0  0
  147.6785  156.8803  135.6817 H   0  0  0  0  0  0  0  0  0  0  0  0
  147.0491  155.6594  134.5241 H   0  0  0  0  0  0  0  0  0  0  0  0
  148.7953  156.0806  134.5241 H   0  0  0  0  0  0  0  0  0  0  0  0
  148.4640  158.9037  135.0725 H   0  0  0  0  0  0  0  0  0  0  0  0
  149.3936  158.6565  133.5555 H   0  0  0  0  0  0  0  0  0  0  0  0
  147.9380  159.7091  133.5555 H   0  0  0  0  0  0  0  0  0  0  0  0
  148.4126  156.1175  132.3166 H   0  0  0  0  0  0  0  0  0  0  0  0
  146.9018  156.8564  131.6855 H   0  0  0  0  0  0  0  0  0  0  0  0
  148.4309  157.7992  131.6855 H   0  0  0  0  0  0  0  0  0  0  0  0
  144.0506  156.5637  133.1635 H   0  0  0  0  0  0  0  0  0  0  0  0
  144.0255  154.6897  133.3199 H   0  0  0  0  0  0  0  0  0  0  0  0
  143.9706  152.2212  132.9952 H   0  0  0  0  0  0  0  0  0  0  0  0
  1  2  1  0
  2  3  2  0
  2  4  1  0
  4  5  1  0
  4  6  1  0
  6  7  2  0
  7  8  1  0
  8  9  2  0
  9 10  1  0
 10 11  2  0
 11 12  1  0
 12 13  2  0
 13 14  1  0
 14 15  2  0
 15 16  1  0
 16 17  1  0
 16 18  2  0
 15 19  1  0
 19 20  1  0
 20 21  2  0
 20 22  1  0
 22 23  1  0
 23 24  1  0
 23 25  1  0
 23 26  1  0
 19 27  1  0
 27 28  2  0
  9 29  1  0
 29 30  2  0
 30  6  1  0
 28 10  1  0
 27 13  1  0
  1 31  1  0
  1 32  1  0
  1 33  1  0
  5 34  1  0
  5 35  1  0
  5 36  1  0
  7 37  1  0
  8 38  1  0
 11 39  1  0
 12 40  1  0
 14 41  1  0
 17 42  1  0
 24 43  1  0
 24 44  1  0
 24 45  1  0
 25 46  1  0
 25 47  1  0
 25 48  1  0
 26 49  1  0
 26 50  1  0
 26 51  1  0
 28 52  1  0
 29 53  1  0
 30 54  1  0
M  CHG  1  17  -1
M  END
>  <UniqueID>  (30) 
30

>  <SMILES>  (30) 
CC(=O)N(C)c1ccc(-c2ccc3cc(C([NH-])=O)n(C(=O)OC(C)(C)C)c3c2)cc1

>  <Energy>  (30) 
99.60995632324843

>  <Genealogy>  (30) 
CC(=O)N(C)c1ccc(-c2ccc3cc(C([NH-])=O)n(C(=O)OC(C)(C)C)c3c2)cc1 (protonated)
CC(=O)N(C)c1ccc(-c2ccc3cc(C([NH-])=O)n(C(=O)OC(C)(C)C)c3c2)cc1 (3D coordinates assigned)
CC(=O)N(C)c1ccc(-c2ccc3cc(C([NH-])=O)n(C(=O)OC(C)(C)C)c3c2)cc1 (optimized conformer: 99.60995632324843 kcal/mol)

>  <smiles>  (30) 
CC(=O)N(C)c1ccc(-c2ccc3cc(C(N)=O)n(C(=O)OC(C)(C)C)c3c2)cc1

>  <score_type>  (30) 
oracle

>  <origin>  (30) 
adg

>  <m_score__min__energy>  (30) 
-9.1400000000000006

>  <m_primary>  (30) 
energy

$$$$
30:0
     RDKit          3D

 47 49  0  0  0  0  0  0  0  0999 V2000
  148.3440  156.6010  134.3830 N   0  0  0  0  0  0  0  0  0  0  0  0
  147.5590  156.8210  133.2130 C   0  0  0  0  0  0  0  0  0  0  0  0
  147.6290  156.0020  132.2570 O   0  0  0  0  0  0  0  0  0  0  0  0
  146.6870  157.9600  133.1250 N   0  0  0  0  0  0  0  0  0  0  0  0
  147.0440  159.2600  132.9240 C   0  0  0  0  0  0  0  0  0  0  0  0
  148.4000  159.7440  132.5960 C   0  0  0  0  0  0  0  0  0  0  0  0
  149.5620  159.0110  132.9840 N   0  0  0  0  0  0  0  0  0  0  0  0
  148.5330  160.7950  131.9130 O   0  0  0  0  0  0  0  0  0  0  0  0
  145.9360  160.0970  133.0250 C   0  0  0  0  0  0  0  0  0  0  0  0
  144.8740  159.2630  133.2860 C   0  0  0  0  0  0  0  0  0  0  0  0
  143.5310  159.5650  133.4910 C   0  0  0  0  0  0  0  0  0  0  0  0
  142.6550  158.5050  133.7810 C   0  0  0  0  0  0  0  0  0  0  0  0
  143.1360  157.1770  133.8820 C   0  0  0  0  0  0  0  0  0  0  0  0
  142.1850  156.0490  134.1730 C   0  0  0  0  0  0  0  0  0  0  0  0
  140.8380  156.5940  134.6580 C   0  0  0  0  0  0  0  0  0  0  0  0
  139.6980  156.1590  133.7340 C   0  0  0  0  0  0  0  0  0  0  0  0
  139.8080  156.8140  132.4820 O   0  0  0  0  0  0  0  0  0  0  0  0
  138.8860  157.8840  132.3670 C   0  0  1  0  0  0  0  0  0  0  0  0
  139.4140  159.1120  133.1640 C   0  0  0  0  0  0  0  0  0  0  0  0
  139.8770  160.2290  132.2270 C   0  0  0  0  0  0  0  0  0  0  0  0
  138.7720  160.5900  131.2270 C   0  0  0  0  0  0  0  0  0  0  0  0
  137.9700  159.3470  130.8000 C   0  0  0  0  0  0  0  0  0  0  0  0
  138.7330  158.1700  130.9830 O   0  0  0  0  0  0  0  0  0  0  0  0
  144.5050  156.9080  133.6580 C   0  0  0  0  0  0  0  0  0  0  0  0
  145.3520  157.9780  133.3460 C   0  0  0  0  0  0  0  0  0  0  0  0
  149.2390  157.1170  134.5340 H   0  0  0  0  0  0  0  0  0  0  0  0
  149.4850  158.0540  133.3940 H   0  0  0  0  0  0  0  0  0  0  0  0
  150.5130  159.3900  132.7800 H   0  0  0  0  0  0  0  0  0  0  0  0
  145.9146  161.1916  132.9187 H   0  0  0  0  0  0  0  0  0  0  0  0
  143.1666  160.6010  133.4280 H   0  0  0  0  0  0  0  0  0  0  0  0
  141.5846  158.7091  133.9311 H   0  0  0  0  0  0  0  0  0  0  0  0
  142.0288  155.4616  133.2562 H   0  0  0  0  0  0  0  0  0  0  0  0
  142.6165  155.4145  134.9612 H   0  0  0  0  0  0  0  0  0  0  0  0
  140.6421  156.2151  135.6719 H   0  0  0  0  0  0  0  0  0  0  0  0
  140.8867  157.6929  134.6564 H   0  0  0  0  0  0  0  0  0  0  0  0
  139.7490  155.0709  133.5809 H   0  0  0  0  0  0  0  0  0  0  0  0
  138.7371  156.4275  134.1972 H   0  0  0  0  0  0  0  0  0  0  0  0
  137.9048  157.6224  132.7900 H   0  0  0  0  0  0  0  0  0  0  0  0
  138.6076  159.4952  133.8065 H   0  0  0  0  0  0  0  0  0  0  0  0
  140.2744  158.7884  133.7682 H   0  0  0  0  0  0  0  0  0  0  0  0
  140.1297  161.1186  132.8227 H   0  0  0  0  0  0  0  0  0  0  0  0
  140.7587  159.8803  131.6693 H   0  0  0  0  0  0  0  0  0  0  0  0
  138.0882  161.3131  131.6955 H   0  0  0  0  0  0  0  0  0  0  0  0
  139.2438  161.0209  130.3316 H   0  0  0  0  0  0  0  0  0  0  0  0
  137.0552  159.2819  131.4073 H   0  0  0  0  0  0  0  0  0  0  0  0
  137.7158  159.4404  129.7339 H   0  0  0  0  0  0  0  0  0  0  0  0
  144.8959  155.8821  133.7272 H   0  0  0  0  0  0  0  0  0  0  0  0
  1  2  1  0
  2  3  2  0
  2  4  1  0
  4  5  1  0
  5  6  1  0
  6  7  1  0
  6  8  2  0
  5  9  2  0
  9 10  1  0
 10 11  2  0
 11 12  1  0
 12 13  2  0
 13 14  1  0
 14 15  1  0
 15 16  1  0
 16 17  1  0
 17 18  1  0
 18 19  1  0
 19 20  1  0
 20 21  1  0
 21 22  1  0
 22 23  1  0
 13 24  1  0
 24 25  2  0
 25  4  1  0
 25 10  1  0
 23 18  1  0
  1 26  1  0
  7 27  1  0
  7 28  1  0
  9 29  1  0
 11 30  1  0
 12 31  1  0
 14 32  1  0
 14 33  1  0
 15 34  1  0
 15 35  1  0
 16 36  1  0
 16 37  1  0
 18 38  1  1
 19 39  1  0
 19 40  1  0
 20 41  1  0
 20 42  1  0
 21 43  1  0
 21 44  1  0
 22 45  1  0
 22 46  1  0
 24 47  1  0
M  CHG  1   1  -1
M  END
>  <UniqueID>  (31) 
31

>  <SMILES>  (31) 
[NH-]C(=O)n1c(C(N)=O)cc2ccc(CCCO[C@H]3CCCCO3)cc21

>  <Energy>  (31) 
92.78590964569143

>  <Genealogy>  (31) 
[NH-]C(=O)n1c(C(N)=O)cc2ccc(CCCOC3CCCCO3)cc21 (protonated)
[NH-]C(=O)n1c(C(N)=O)cc2ccc(CCCO[C@H]3CCCCO3)cc21 (chirality)
[NH-]C(=O)n1c(C(N)=O)cc2ccc(CCCO[C@H]3CCCCO3)cc21 (3D coordinates assigned)
[NH-]C(=O)n1c(C(N)=O)cc2ccc(CCCO[C@H]3CCCCO3)cc21 (nonaromatic ring conformer: 92.78590964569143 kcal/mol)

>  <smiles>  (31) 
NC(=O)c1cc2ccc(CCCOC3CCCCO3)cc2n1C(N)=O

>  <score_type>  (31) 
oracle

>  <origin>  (31) 
adg

>  <m_score__min__energy>  (31) 
-8.7300000000000004

>  <m_primary>  (31) 
energy

$$$$
31:0
     RDKit          3D

 36 38  0  0  0  0  0  0  0  0999 V2000
  148.7400  158.4150  131.4050 N   0  0  0  0  0  0  0  0  0  0  0  0
  148.3570  158.7720  132.7310 C   0  0  0  0  0  0  0  0  0  0  0  0
  149.2490  158.9820  133.5950 O   0  0  0  0  0  0  0  0  0  0  0  0
  146.9340  158.9480  133.0900 C   0  0  0  0  0  0  0  0  0  0  0  0
  146.3590  160.1860  133.3660 C   0  0  0  0  0  0  0  0  0  0  0  0
  145.0190  159.9330  133.5560 C   0  0  0  0  0  0  0  0  0  0  0  0
  143.9780  160.8010  133.8710 C   0  0  0  0  0  0  0  0  0  0  0  0
  142.6930  160.2560  134.0360 C   0  0  0  0  0  0  0  0  0  0  0  0
  142.4740  158.8630  133.8840 C   0  0  0  0  0  0  0  0  0  0  0  0
  141.1050  158.2830  134.1120 C   0  0  0  0  0  0  0  0  0  0  0  0
  140.1540  158.7520  133.0410 C   0  0  0  0  0  0  0  0  0  0  0  0
  140.0460  160.1240  132.7510 C   0  0  0  0  0  0  0  0  0  0  0  0
  139.1940  160.5650  131.7350 C   0  0  0  0  0  0  0  0  0  0  0  0
  138.4480  159.6430  130.9950 C   0  0  0  0  0  0  0  0  0  0  0  0
  137.6240  160.0740  130.0090 F   0  0  0  0  0  0  0  0  0  0  0  0
  138.5580  158.2770  131.2690 C   0  0  0  0  0  0  0  0  0  0  0  0
  139.4090  157.8290  132.2830 C   0  0  0  0  0  0  0  0  0  0  0  0
  139.5040  156.4970  132.5260 F   0  0  0  0  0  0  0  0  0  0  0  0
  143.5580  158.0130  133.5710 C   0  0  0  0  0  0  0  0  0  0  0  0
  144.8220  158.5860  133.3980 C   0  0  0  0  0  0  0  0  0  0  0  0
  145.9890  157.9660  133.1180 N   0  0  0  0  0  0  0  0  0  0  0  0
  146.1810  156.5500  132.9730 C   0  0  0  0  0  0  0  0  0  0  0  0
  146.9740  156.0340  131.9030 N   0  0  0  0  0  0  0  0  0  0  0  0
  145.6760  155.7570  133.8120 O   0  0  0  0  0  0  0  0  0  0  0  0
  148.6650  157.4290  131.0710 H   0  0  0  0  0  0  0  0  0  0  0  0
  146.8677  161.1598  133.4206 H   0  0  0  0  0  0  0  0  0  0  0  0
  144.1553  161.8804  133.9873 H   0  0  0  0  0  0  0  0  0  0  0  0
  141.8492  160.9161  134.2854 H   0  0  0  0  0  0  0  0  0  0  0  0
  141.1671  157.1850  134.0868 H   0  0  0  0  0  0  0  0  0  0  0  0
  140.7334  158.6167  135.0921 H   0  0  0  0  0  0  0  0  0  0  0  0
  140.6349  160.8532  133.3266 H   0  0  0  0  0  0  0  0  0  0  0  0
  139.1101  161.6399  131.5170 H   0  0  0  0  0  0  0  0  0  0  0  0
  137.9727  157.5519  130.6845 H   0  0  0  0  0  0  0  0  0  0  0  0
  143.4116  156.9279  133.4660 H   0  0  0  0  0  0  0  0  0  0  0  0
  147.4620  156.6800  131.2450 H   0  0  0  0  0  0  0  0  0  0  0  0
  147.1020  155.0030  131.7910 H   0  0  0  0  0  0  0  0  0  0  0  0
  1  2  1  0
  2  3  2  0
  2  4  1  0
  4  5  2  0
  5  6  1  0
  6  7  2  0
  7  8  1  0
  8  9  2  0
  9 10  1  0
 10 11  1  0
 11 12  2  0
 12 13  1  0
 13 14  2  0
 14 15  1  0
 14 16  1  0
 16 17  2  0
 17 18  1  0
  9 19  1  0
 19 20  2  0
 20 21  1  0
 21 22  1  0
 22 23  1  0
 22 24  2  0
 21  4  1  0
 20  6  1  0
 17 11  1  0
  1 25  1  0
  5 26  1  0
  7 27  1  0
  8 28  1  0
 10 29  1  0
 10 30  1  0
 12 31  1  0
 13 32  1  0
 16 33  1  0
 19 34  1  0
 23 35  1  0
 23 36  1  0
M  CHG  1   1  -1
M  END
>  <UniqueID>  (32) 
32

>  <SMILES>  (32) 
[NH-]C(=O)c1cc2ccc(Cc3ccc(F)cc3F)cc2n1C(N)=O

>  <Energy>  (32) 
76.28445516171412

>  <Genealogy>  (32) 
[NH-]C(=O)c1cc2ccc(Cc3ccc(F)cc3F)cc2n1C(N)=O (protonated)
[NH-]C(=O)c1cc2ccc(Cc3ccc(F)cc3F)cc2n1C(N)=O (3D coordinates assigned)
[NH-]C(=O)c1cc2ccc(Cc3ccc(F)cc3F)cc2n1C(N)=O (optimized conformer: 76.28445516171412 kcal/mol)

>  <smiles>  (32) 
NC(=O)c1cc2ccc(Cc3ccc(F)cc3F)cc2n1C(N)=O

>  <score_type>  (32) 
oracle

>  <origin>  (32) 
adg

>  <m_score__min__energy>  (32) 
-8.0899999999999999

>  <m_primary>  (32) 
energy

$$$$
32:0
     RDKit          3D

 50 53  0  0  0  0  0  0  0  0999 V2000
  141.7730  156.9270  139.6660 C   0  0  0  0  0  0  0  0  0  0  0  0
  140.9790  156.4070  138.4610 C   0  0  0  0  0  0  0  0  0  0  0  0
  140.7960  154.8860  138.5360 C   0  0  0  0  0  0  0  0  0  0  0  0
  141.6360  156.8150  137.1560 C   0  0  0  0  0  0  0  0  0  0  0  0
  141.5110  158.1330  136.6880 C   0  0  0  0  0  0  0  0  0  0  0  0
  142.1110  158.5210  135.4870 C   0  0  0  0  0  0  0  0  0  0  0  0
  142.8470  157.5970  134.7250 C   0  0  0  0  0  0  0  0  0  0  0  0
  143.4800  158.0130  133.4500 C   0  0  0  0  0  0  0  0  0  0  0  0
  142.8720  157.8360  132.3590 O   0  0  0  0  0  0  0  0  0  0  0  0
  144.7680  158.6480  133.4340 N   0  0  0  0  0  0  0  0  0  0  0  0
  145.0480  159.9780  133.5080 C   0  0  0  0  0  0  0  0  0  0  0  0
  144.0570  161.0590  133.6970 C   0  0  0  0  0  0  0  0  0  0  0  0
  142.6890  160.8350  133.3650 N   0  0  0  0  0  0  0  0  0  0  0  0
  144.4110  162.1870  134.1320 O   0  0  0  0  0  0  0  0  0  0  0  0
  146.4230  160.1900  133.4300 C   0  0  0  0  0  0  0  0  0  0  0  0
  146.9790  158.9350  133.3150 C   0  0  0  0  0  0  0  0  0  0  0  0
  148.3090  158.5480  133.2000 C   0  0  0  0  0  0  0  0  0  0  0  0
  148.5910  157.1770  133.0850 C   0  0  0  0  0  0  0  0  0  0  0  0
  147.5450  156.2140  133.0820 C   0  0  0  0  0  0  0  0  0  0  0  0
  147.8530  154.7670  132.9520 C   0  0  0  0  0  0  0  0  0  0  0  0
  146.9980  153.6940  133.1610 C   0  0  0  0  0  0  0  0  0  0  0  0
  147.6630  152.5400  132.9540 N   0  0  0  0  0  0  0  0  0  0  0  0
  148.9020  152.8520  132.6090 N   0  0  0  0  0  0  0  0  0  0  0  0
  149.9490  151.8690  132.3700 C   0  0  0  0  0  0  0  0  0  0  0  0
  149.0620  154.1870  132.6090 C   0  0  0  0  0  0  0  0  0  0  0  0
  146.2030  156.6530  133.2020 C   0  0  0  0  0  0  0  0  0  0  0  0
  145.9580  158.0230  133.3230 C   0  0  0  0  0  0  0  0  0  0  0  0
  142.9810  156.2810  135.1970 C   0  0  0  0  0  0  0  0  0  0  0  0
  142.3810  155.8930  136.3990 C   0  0  0  0  0  0  0  0  0  0  0  0
  141.2812  156.6049  140.5958 H   0  0  0  0  0  0  0  0  0  0  0  0
  142.7956  156.5231  139.6332 H   0  0  0  0  0  0  0  0  0  0  0  0
  141.8115  158.0258  139.6332 H   0  0  0  0  0  0  0  0  0  0  0  0
  139.9806  156.8677  138.4920 H   0  0  0  0  0  0  0  0  0  0  0  0
  140.7583  154.5727  139.5898 H   0  0  0  0  0  0  0  0  0  0  0  0
  139.8575  154.6045  138.0360 H   0  0  0  0  0  0  0  0  0  0  0  0
  141.6409  154.3899  138.0360 H   0  0  0  0  0  0  0  0  0  0  0  0
  140.9357  158.8666  137.2719 H   0  0  0  0  0  0  0  0  0  0  0  0
  142.0065  159.5579  135.1350 H   0  0  0  0  0  0  0  0  0  0  0  0
  142.4100  160.0420  132.7460 H   0  0  0  0  0  0  0  0  0  0  0  0
  146.9518  161.1542  133.4549 H   0  0  0  0  0  0  0  0  0  0  0  0
  149.1174  159.2940  133.1991 H   0  0  0  0  0  0  0  0  0  0  0  0
  149.6355  156.8436  132.9960 H   0  0  0  0  0  0  0  0  0  0  0  0
  145.9399  153.7732  133.4511 H   0  0  0  0  0  0  0  0  0  0  0  0
  150.3368  151.5049  133.3328 H   0  0  0  0  0  0  0  0  0  0  0  0
  149.5359  151.0249  131.7983 H   0  0  0  0  0  0  0  0  0  0  0  0
  150.7654  152.3345  131.7983 H   0  0  0  0  0  0  0  0  0  0  0  0
  149.9928  154.7252  132.3766 H   0  0  0  0  0  0  0  0  0  0  0  0
  145.3729  155.9313  133.1999 H   0  0  0  0  0  0  0  0  0  0  0  0
  143.5626  155.5497  134.6165 H   0  0  0  0  0  0  0  0  0  0  0  0
  142.4926  154.8583  136.7554 H   0  0  0  0  0  0  0  0  0  0  0  0
  1  2  1  0
  2  3  1  0
  2  4  1  0
  4  5  2  0
  5  6  1  0
  6  7  2  0
  7  8  1  0
  8  9  2  0
  8 10  1  0
 10 11  1  0
 11 12  1  0
 12 13  1  0
 12 14  2  0
 11 15  2  0
 15 16  1  0
 16 17  2  0
 17 18  1  0
 18 19  2  0
 19 20  1  0
 20 21  1  0
 21 22  2  0
 22 23  1  0
 23 24  1  0
 23 25  1  0
 19 26  1  0
 26 27  2  0
  7 28  1  0
 28 29  2  0
 29  4  1  0
 27 10  1  0
 27 16  1  0
 25 20  2  0
  1 30  1  0
  1 31  1  0
  1 32  1  0
  2 33  1  0
  3 34  1  0
  3 35  1  0
  3 36  1  0
  5 37  1  0
  6 38  1  0
 13 39  1  0
 15 40  1  0
 17 41  1  0
 18 42  1  0
 21 43  1  0
 24 44  1  0
 24 45  1  0
 24 46  1  0
 25 47  1  0
 26 48  1  0
 28 49  1  0
 29 50  1  0
M  CHG  1  13  -1
M  END
>  <UniqueID>  (33) 
33

>  <SMILES>  (33) 
CC(C)c1ccc(C(=O)n2c(C([NH-])=O)cc3ccc(-c4cnn(C)c4)cc32)cc1

>  <Energy>  (33) 
122.27920941423858

>  <Genealogy>  (33) 
CC(C)c1ccc(C(=O)n2c(C([NH-])=O)cc3ccc(-c4cnn(C)c4)cc32)cc1 (protonated)
CC(C)c1ccc(C(=O)n2c(C([NH-])=O)cc3ccc(-c4cnn(C)c4)cc32)cc1 (3D coordinates assigned)
CC(C)c1ccc(C(=O)n2c(C([NH-])=O)cc3ccc(-c4cnn(C)c4)cc32)cc1 (optimized conformer: 122.27920941423858 kcal/mol)

>  <smiles>  (33) 
CC(C)c1ccc(C(=O)n2c(C(N)=O)cc3ccc(-c4cnn(C)c4)cc32)cc1

>  <score_type>  (33) 
oracle

>  <origin>  (33) 
adg

>  <m_score__min__energy>  (33) 
-9.6500000000000004

>  <m_primary>  (33) 
energy

$$$$
33:0
     RDKit          3D

 32 33  0  0  0  0  0  0  0  0999 V2000
  140.8920  159.9720  132.8560 N   0  0  0  0  0  0  0  0  0  0  0  0
  141.7710  160.1350  133.9670 C   0  0  0  0  0  0  0  0  0  0  0  0
  141.2880  160.4210  135.0960 O   0  0  0  0  0  0  0  0  0  0  0  0
  143.2350  160.0180  133.8050 C   0  0  0  0  0  0  0  0  0  0  0  0
  144.1170  161.0790  134.0020 C   0  0  0  0  0  0  0  0  0  0  0  0
  145.3620  160.5820  133.6880 C   0  0  0  0  0  0  0  0  0  0  0  0
  146.6080  161.2030  133.7130 C   0  0  0  0  0  0  0  0  0  0  0  0
  147.7320  160.4380  133.3610 C   0  0  0  0  0  0  0  0  0  0  0  0
  147.5940  159.0720  133.0090 C   0  0  0  0  0  0  0  0  0  0  0  0
  148.8060  158.2690  132.6150 C   0  0  0  0  0  0  0  0  0  0  0  0
  149.2380  158.5550  131.1700 C   0  0  0  0  0  0  0  0  0  0  0  0
  150.1830  159.7530  131.0710 C   0  0  0  0  0  0  0  0  0  0  0  0
  149.2500  161.2750  130.3180 Br  0  0  0  0  0  0  0  0  0  0  0  0
  146.3130  158.4770  132.9930 C   0  0  0  0  0  0  0  0  0  0  0  0
  145.2100  159.2700  133.3240 C   0  0  0  0  0  0  0  0  0  0  0  0
  143.9090  158.9100  133.3880 N   0  0  0  0  0  0  0  0  0  0  0  0
  143.3790  157.5980  133.1380 C   0  0  0  0  0  0  0  0  0  0  0  0
  142.2690  157.4240  132.2580 N   0  0  0  0  0  0  0  0  0  0  0  0
  143.8990  156.5940  133.6920 O   0  0  0  0  0  0  0  0  0  0  0  0
  141.2620  159.7310  131.9090 H   0  0  0  0  0  0  0  0  0  0  0  0
  143.8707  162.0973  134.3372 H   0  0  0  0  0  0  0  0  0  0  0  0
  146.7089  162.2602  133.9996 H   0  0  0  0  0  0  0  0  0  0  0  0
  148.7287  160.9033  133.3584 H   0  0  0  0  0  0  0  0  0  0  0  0
  149.6358  158.5229  133.2910 H   0  0  0  0  0  0  0  0  0  0  0  0
  148.5465  157.2025  132.6882 H   0  0  0  0  0  0  0  0  0  0  0  0
  149.7506  157.6668  130.7721 H   0  0  0  0  0  0  0  0  0  0  0  0
  148.3338  158.7919  130.5900 H   0  0  0  0  0  0  0  0  0  0  0  0
  150.5497  160.0113  132.0754 H   0  0  0  0  0  0  0  0  0  0  0  0
  151.0299  159.4912  130.4197 H   0  0  0  0  0  0  0  0  0  0  0  0
  146.1864  157.4172  132.7270 H   0  0  0  0  0  0  0  0  0  0  0  0
  141.7870  158.2510  131.8400 H   0  0  0  0  0  0  0  0  0  0  0  0
  141.9030  156.4680  132.0540 H   0  0  0  0  0  0  0  0  0  0  0  0
  1  2  1  0
  2  3  2  0
  2  4  1  0
  4  5  2  0
  5  6  1  0
  6  7  2  0
  7  8  1  0
  8  9  2  0
  9 10  1  0
 10 11  1  0
 11 12  1  0
 12 13  1  0
  9 14  1  0
 14 15  2  0
 15 16  1  0
 16 17  1  0
 17 18  1  0
 17 19  2  0
 16  4  1  0
 15  6  1  0
  1 20  1  0
  5 21  1  0
  7 22  1  0
  8 23  1  0
 10 24  1  0
 10 25  1  0
 11 26  1  0
 11 27  1  0
 12 28  1  0
 12 29  1  0
 14 30  1  0
 18 31  1  0
 18 32  1  0
M  CHG  1   1  -1
M  END
>  <UniqueID>  (34) 
34

>  <SMILES>  (34) 
[NH-]C(=O)c1cc2ccc(CCCBr)cc2n1C(N)=O

>  <Energy>  (34) 
65.37538852031379

>  <Genealogy>  (34) 
[NH-]C(=O)c1cc2ccc(CCCBr)cc2n1C(N)=O (protonated)
[NH-]C(=O)c1cc2ccc(CCCBr)cc2n1C(N)=O (3D coordinates assigned)
[NH-]C(=O)c1cc2ccc(CCCBr)cc2n1C(N)=O (optimized conformer: 65.37538852031379 kcal/mol)

>  <smiles>  (34) 
NC(=O)c1cc2ccc(CCCBr)cc2n1C(N)=O

>  <score_type>  (34) 
oracle

>  <origin>  (34) 
adg

>  <m_score__min__energy>  (34) 
-7.6200000000000001

>  <m_primary>  (34) 
energy

$$$$
34:0
     RDKit          3D

 61 65  0  0  0  0  0  0  0  0999 V2000
  146.2830  160.7590  133.6780 N   0  0  0  0  0  0  0  0  0  0  0  0
  146.0460  159.5580  132.9480 C   0  0  0  0  0  0  0  0  0  0  0  0
  144.9110  159.3510  132.4400 O   0  0  0  0  0  0  0  0  0  0  0  0
  147.0910  158.5830  132.8020 N   0  0  0  0  0  0  0  0  0  0  0  0
  148.3510  158.7820  132.3200 C   0  0  0  0  0  0  0  0  0  0  0  0
  148.9290  160.0910  131.9390 C   0  0  0  0  0  0  0  0  0  0  0  0
  150.3010  160.1980  131.5640 N   0  0  0  0  0  0  0  0  0  0  0  0
  148.2180  161.1310  131.9630 O   0  0  0  0  0  0  0  0  0  0  0  0
  149.0580  157.5830  132.2990 C   0  0  0  0  0  0  0  0  0  0  0  0
  148.1830  156.6360  132.7830 C   0  0  0  0  0  0  0  0  0  0  0  0
  148.3580  155.2730  132.9640 C   0  0  0  0  0  0  0  0  0  0  0  0
  147.2730  154.5240  133.4470 C   0  0  0  0  0  0  0  0  0  0  0  0
  146.0140  155.1350  133.7330 C   0  0  0  0  0  0  0  0  0  0  0  0
  144.8860  154.3460  134.2270 N   0  0  0  0  0  0  0  0  0  0  0  0
  144.4670  154.5220  135.6410 C   0  0  0  0  0  0  0  0  0  0  0  0
  143.2380  153.7100  136.0820 C   0  0  0  0  0  0  0  0  0  0  0  0
  142.2470  153.4660  134.9450 C   0  0  0  0  0  0  0  0  0  0  0  0
  141.6270  154.7420  134.4140 C   0  0  0  0  0  0  0  0  0  0  0  0
  140.4060  154.7760  134.1020 O   0  0  0  0  0  0  0  0  0  0  0  0
  142.4430  155.9020  134.2140 N   0  0  0  0  0  0  0  0  0  0  0  0
  142.3070  156.7800  133.0580 C   0  0  0  0  0  0  0  0  0  0  0  0
  141.6840  158.1090  133.4840 C   0  0  0  0  0  0  0  0  0  0  0  0
  140.2160  158.1300  133.1900 C   0  0  0  0  0  0  0  0  0  0  0  0
  139.2150  157.4790  133.9030 C   0  0  0  0  0  0  0  0  0  0  0  0
  138.0000  157.7610  133.3780 N   0  0  0  0  0  0  0  0  0  0  0  0
  138.2260  158.5940  132.3470 C   0  0  0  0  0  0  0  0  0  0  0  0
  137.2790  159.1660  131.4990 C   0  0  0  0  0  0  0  0  0  0  0  0
  137.7390  160.0250  130.4830 C   0  0  0  0  0  0  0  0  0  0  0  0
  139.1200  160.2880  130.3390 C   0  0  0  0  0  0  0  0  0  0  0  0
  140.0530  159.6940  131.2100 C   0  0  0  0  0  0  0  0  0  0  0  0
  139.5660  158.8470  132.2050 C   0  0  0  0  0  0  0  0  0  0  0  0
  142.9940  152.6850  133.8650 C   0  0  0  0  0  0  0  0  0  0  0  0
  144.1420  153.5010  133.2640 C   0  0  0  0  0  0  0  0  0  0  0  0
  145.8950  156.5400  133.5290 C   0  0  0  0  0  0  0  0  0  0  0  0
  147.0040  157.2610  133.0730 C   0  0  0  0  0  0  0  0  0  0  0  0
  146.5220  161.6470  133.1860 H   0  0  0  0  0  0  0  0  0  0  0  0
  150.7100  161.1320  131.3390 H   0  0  0  0  0  0  0  0  0  0  0  0
  150.9040  159.3550  131.4790 H   0  0  0  0  0  0  0  0  0  0  0  0
  150.0947  157.4255  131.9666 H   0  0  0  0  0  0  0  0  0  0  0  0
  149.3202  154.7914  132.7356 H   0  0  0  0  0  0  0  0  0  0  0  0
  147.3953  153.4428  133.6087 H   0  0  0  0  0  0  0  0  0  0  0  0
  145.3119  154.2300  136.2820 H   0  0  0  0  0  0  0  0  0  0  0  0
  144.1763  155.5786  135.7366 H   0  0  0  0  0  0  0  0  0  0  0  0
  143.5793  152.7369  136.4649 H   0  0  0  0  0  0  0  0  0  0  0  0
  142.7165  154.2941  136.8546 H   0  0  0  0  0  0  0  0  0  0  0  0
  141.3879  152.8869  135.3145 H   0  0  0  0  0  0  0  0  0  0  0  0
  143.2998  156.9657  132.6224 H   0  0  0  0  0  0  0  0  0  0  0  0
  141.6576  156.2984  132.3121 H   0  0  0  0  0  0  0  0  0  0  0  0
  141.8369  158.2484  134.5644 H   0  0  0  0  0  0  0  0  0  0  0  0
  142.1669  158.9203  132.9195 H   0  0  0  0  0  0  0  0  0  0  0  0
  139.3868  156.8265  134.7717 H   0  0  0  0  0  0  0  0  0  0  0  0
  137.0770  157.4100  133.7140 H   0  0  0  0  0  0  0  0  0  0  0  0
  136.2066  158.9530  131.6198 H   0  0  0  0  0  0  0  0  0  0  0  0
  137.0188  160.4945  129.7968 H   0  0  0  0  0  0  0  0  0  0  0  0
  139.4681  160.9609  129.5415 H   0  0  0  0  0  0  0  0  0  0  0  0
  141.1304  159.8915  131.1090 H   0  0  0  0  0  0  0  0  0  0  0  0
  143.4048  151.7665  134.3097 H   0  0  0  0  0  0  0  0  0  0  0  0
  142.2829  152.4505  133.0592 H   0  0  0  0  0  0  0  0  0  0  0  0
  144.8545  152.7996  132.8052 H   0  0  0  0  0  0  0  0  0  0  0  0
  143.6809  154.1925  132.5434 H   0  0  0  0  0  0  0  0  0  0  0  0
  144.9420  157.0521  133.7278 H   0  0  0  0  0  0  0  0  0  0  0  0
  1  2  1  0
  2  3  2  0
  2  4  1  0
  4  5  1  0
  5  6  1  0
  6  7  1  0
  6  8  2  0
  5  9  2  0
  9 10  1  0
 10 11  2  0
 11 12  1  0
 12 13  2  0
 13 14  1  0
 14 15  1  0
 15 16  1  0
 16 17  1  0
 17 18  1  0
 18 19  2  0
 18 20  1  0
 20 21  1  0
 21 22  1  0
 22 23  1  0
 23 24  2  0
 24 25  1  0
 25 26  1  0
 26 27  2  0
 27 28  1  0
 28 29  2  0
 29 30  1  0
 30 31  2  0
 17 32  1  0
 32 33  1  0
 13 34  1  0
 34 35  2  0
 35  4  1  0
 35 10  1  0
 33 14  1  0
 31 23  1  0
 31 26  1  0
  1 36  1  0
  7 37  1  0
  7 38  1  0
  9 39  1  0
 11 40  1  0
 12 41  1  0
 15 42  1  0
 15 43  1  0
 16 44  1  0
 16 45  1  0
 17 46  1  0
 21 47  1  0
 21 48  1  0
 22 49  1  0
 22 50  1  0
 24 51  1  0
 25 52  1  0
 27 53  1  0
 28 54  1  0
 29 55  1  0
 30 56  1  0
 32 57  1  0
 32 58  1  0
 33 59  1  0
 33 60  1  0
 34 61  1  0
M  CHG  2   1  -1  20  -1
M  END
>  <UniqueID>  (35) 
35

>  <SMILES>  (35) 
[NH-]C(=O)n1c(C(N)=O)cc2ccc(N3CCC(C(=O)[N-]CCc4c[nH]c5ccccc45)CC3)cc21

>  <Energy>  (35) 
139.92118580434695

>  <Genealogy>  (35) 
[NH-]C(=O)n1c(C(N)=O)cc2ccc(N3CCC(C(=O)[N-]CCc4c[nH]c5ccccc45)CC3)cc21 (protonated)
[NH-]C(=O)n1c(C(N)=O)cc2ccc(N3CCC(C(=O)[N-]CCc4c[nH]c5ccccc45)CC3)cc21 (3D coordinates assigned)
[NH-]C(=O)n1c(C(N)=O)cc2ccc(N3CCC(C(=O)[N-]CCc4c[nH]c5ccccc45)CC3)cc21 (nonaromatic ring conformer: 139.92118580434695 kcal/mol)

>  <smiles>  (35) 
NC(=O)c1cc2ccc(N3CCC(C(=O)NCCc4c[nH]c5ccccc45)CC3)cc2n1C(N)=O

>  <score_type>  (35) 
oracle

>  <origin>  (35) 
adg

>  <m_score__min__energy>  (35) 
-11.710000000000001

>  <m_primary>  (35) 
energy

$$$$
35:0
     RDKit          3D

 45 49  0  0  0  0  0  0  0  0999 V2000
  149.6350  157.4850  132.2130 N   0  0  0  0  0  0  0  0  0  0  0  0
  149.0890  158.8000  132.2870 C   0  0  0  0  0  0  0  0  0  0  0  0
  149.7510  159.7680  131.8280 O   0  0  0  0  0  0  0  0  0  0  0  0
  147.7390  159.0330  132.8400 C   0  0  0  0  0  0  0  0  0  0  0  0
  147.1690  160.2990  132.9540 C   0  0  0  0  0  0  0  0  0  0  0  0
  145.8930  160.0840  133.4210 C   0  0  0  0  0  0  0  0  0  0  0  0
  144.8870  160.9960  133.7260 C   0  0  0  0  0  0  0  0  0  0  0  0
  143.6730  160.4940  134.2220 C   0  0  0  0  0  0  0  0  0  0  0  0
  143.4870  159.0980  134.4140 C   0  0  0  0  0  0  0  0  0  0  0  0
  142.1830  158.5580  134.9650 C   0  0  2  0  0  0  0  0  0  0  0  0
  142.2500  157.0430  135.2730 C   0  0  0  0  0  0  0  0  0  0  0  0
  141.2690  156.3530  134.3050 C   0  0  0  0  0  0  0  0  0  0  0  0
  140.6060  157.4330  133.5970 N   0  0  0  0  0  0  0  0  0  0  0  0
  141.0990  158.6370  133.9550 C   0  0  0  0  0  0  0  0  0  0  0  0
  140.6200  159.7880  133.4050 N   0  0  0  0  0  0  0  0  0  0  0  0
  139.6300  159.6970  132.4760 C   0  0  0  0  0  0  0  0  0  0  0  0
  139.1170  158.4840  132.0910 C   0  0  0  0  0  0  0  0  0  0  0  0
  139.6170  157.3140  132.6660 C   0  0  0  0  0  0  0  0  0  0  0  0
  139.1690  156.1830  132.3340 O   0  0  0  0  0  0  0  0  0  0  0  0
  138.0560  158.6280  131.0680 C   0  0  0  0  0  0  0  0  0  0  0  0
  137.9600  160.1530  130.8460 C   0  0  0  0  0  0  0  0  0  0  0  0
  138.9950  160.8300  131.7690 C   0  0  0  0  0  0  0  0  0  0  0  0
  144.5340  158.2060  134.0900 C   0  0  0  0  0  0  0  0  0  0  0  0
  145.7260  158.7320  133.5790 C   0  0  0  0  0  0  0  0  0  0  0  0
  146.8530  158.0720  133.2300 N   0  0  0  0  0  0  0  0  0  0  0  0
  147.0780  156.6580  133.3410 C   0  0  0  0  0  0  0  0  0  0  0  0
  147.1240  155.9380  132.3080 O   0  0  0  0  0  0  0  0  0  0  0  0
  147.2720  156.0730  134.5860 O   0  0  0  0  0  0  0  0  0  0  0  0
  149.0870  156.6980  131.8010 H   0  0  0  0  0  0  0  0  0  0  0  0
  147.6394  161.2655  132.7202 H   0  0  0  0  0  0  0  0  0  0  0  0
  145.0381  162.0762  133.5830 H   0  0  0  0  0  0  0  0  0  0  0  0
  142.8561  161.1895  134.4649 H   0  0  0  0  0  0  0  0  0  0  0  0
  141.9986  159.1638  135.8644 H   0  0  0  0  0  0  0  0  0  0  0  0
  143.2710  156.6674  135.1103 H   0  0  0  0  0  0  0  0  0  0  0  0
  141.9831  156.8390  136.3205 H   0  0  0  0  0  0  0  0  0  0  0  0
  141.8133  155.7073  133.6002 H   0  0  0  0  0  0  0  0  0  0  0  0
  140.5520  155.7103  134.8368 H   0  0  0  0  0  0  0  0  0  0  0  0
  141.0060  160.7180  133.6850 H   0  0  0  0  0  0  0  0  0  0  0  0
  138.3373  158.1138  130.1371 H   0  0  0  0  0  0  0  0  0  0  0  0
  137.1001  158.1837  131.3823 H   0  0  0  0  0  0  0  0  0  0  0  0
  138.1818  160.3930  129.7956 H   0  0  0  0  0  0  0  0  0  0  0  0
  136.9462  160.5119  131.0771 H   0  0  0  0  0  0  0  0  0  0  0  0
  139.7368  161.3908  131.1814 H   0  0  0  0  0  0  0  0  0  0  0  0
  138.5405  161.5594  132.4555 H   0  0  0  0  0  0  0  0  0  0  0  0
  144.4148  157.1223  134.2362 H   0  0  0  0  0  0  0  0  0  0  0  0
  1  2  1  0
  2  3  2  0
  2  4  1  0
  4  5  2  0
  5  6  1  0
  6  7  2  0
  7  8  1  0
  8  9  2  0
  9 10  1  0
 10 11  1  0
 11 12  1  0
 12 13  1  0
 13 14  1  0
 14 15  2  0
 15 16  1  0
 16 17  2  0
 17 18  1  0
 18 19  2  0
 17 20  1  0
 20 21  1  0
 21 22  1  0
  9 23  1  0
 23 24  2  0
 24 25  1  0
 25 26  1  0
 26 27  2  0
 26 28  1  0
 25  4  1  0
 24  6  1  0
 14 10  1  0
 22 16  1  0
 18 13  1  0
  1 29  1  0
  5 30  1  0
  7 31  1  0
  8 32  1  0
 10 33  1  1
 11 34  1  0
 11 35  1  0
 12 36  1  0
 12 37  1  0
 15 38  1  0
 20 39  1  0
 20 40  1  0
 21 41  1  0
 21 42  1  0
 22 43  1  0
 22 44  1  0
 23 45  1  0
M  CHG  3   1  -1  15   1  28  -1
M  END
>  <UniqueID>  (36) 
36

>  <SMILES>  (36) 
[NH-]C(=O)c1cc2ccc([C@@H]3CCn4c3[nH+]c3c(c4=O)CCC3)cc2n1C(=O)[O-]

>  <Energy>  (36) 
107.45231631597257

>  <Genealogy>  (36) 
[NH-]C(=O)c1cc2ccc(C3CCn4c3[nH+]c3c(c4=O)CCC3)cc2n1C(=O)[O-] (protonated)
[NH-]C(=O)c1cc2ccc([C@@H]3CCn4c3[nH+]c3c(c4=O)CCC3)cc2n1C(=O)[O-] (chirality)
[NH-]C(=O)c1cc2ccc([C@@H]3CCn4c3[nH+]c3c(c4=O)CCC3)cc2n1C(=O)[O-] (3D coordinates assigned)
[NH-]C(=O)c1cc2ccc([C@@H]3CCn4c3[nH+]c3c(c4=O)CCC3)cc2n1C(=O)[O-] (nonaromatic ring conformer: 107.45231631597257 kcal/mol)

>  <smiles>  (36) 
NC(=O)c1cc2ccc(C3CCn4c3nc3c(c4=O)CCC3)cc2n1C(=O)O

>  <score_type>  (36) 
oracle

>  <origin>  (36) 
adg

>  <m_score__min__energy>  (36) 
-8.5600000000000005

>  <m_primary>  (36) 
energy

$$$$
36:0
     RDKit          3D

 50 52  0  0  0  0  0  0  0  0999 V2000
  142.2470  149.9760  132.2030 C   0  0  0  0  0  0  0  0  0  0  0  0
  140.7890  150.2820  132.6000 C   0  0  0  0  0  0  0  0  0  0  0  0
  139.9110  150.2220  131.3420 C   0  0  0  0  0  0  0  0  0  0  0  0
  140.2740  149.2460  133.6170 C   0  0  0  0  0  0  0  0  0  0  0  0
  140.6790  151.6100  133.1320 O   0  0  0  0  0  0  0  0  0  0  0  0
  141.4410  152.1560  134.1760 C   0  0  0  0  0  0  0  0  0  0  0  0
  141.3610  151.6930  135.3470 O   0  0  0  0  0  0  0  0  0  0  0  0
  142.3210  153.2530  133.9060 N   0  0  0  0  0  0  0  0  0  0  0  0
  143.7260  153.2480  134.2700 C   0  0  0  0  0  0  0  0  0  0  0  0
  144.2390  154.6480  133.9530 C   0  0  0  0  0  0  0  0  0  0  0  0
  143.1890  155.2720  133.0220 C   0  0  2  0  0  0  0  0  0  0  0  0
  143.0150  156.7640  133.2360 C   0  0  0  0  0  0  0  0  0  0  0  0
  141.7190  157.3470  133.3070 C   0  0  0  0  0  0  0  0  0  0  0  0
  141.5620  158.7300  133.4970 C   0  0  0  0  0  0  0  0  0  0  0  0
  142.7090  159.5060  133.6210 C   0  0  0  0  0  0  0  0  0  0  0  0
  142.8450  160.8650  133.7920 C   0  0  0  0  0  0  0  0  0  0  0  0
  144.2190  161.0950  133.8440 C   0  0  0  0  0  0  0  0  0  0  0  0
  144.8140  162.4200  134.1120 C   0  0  0  0  0  0  0  0  0  0  0  0
  145.8900  162.5680  135.0350 N   0  0  0  0  0  0  0  0  0  0  0  0
  144.3380  163.4430  133.5510 O   0  0  0  0  0  0  0  0  0  0  0  0
  144.9040  159.9250  133.7000 N   0  0  0  0  0  0  0  0  0  0  0  0
  146.3260  159.7380  133.6150 C   0  0  0  0  0  0  0  0  0  0  0  0
  147.1890  160.8520  133.3890 N   0  0  0  0  0  0  0  0  0  0  0  0
  146.8150  158.5800  133.7060 O   0  0  0  0  0  0  0  0  0  0  0  0
  143.9650  158.9620  133.5700 C   0  0  0  0  0  0  0  0  0  0  0  0
  144.1550  157.5900  133.3660 C   0  0  0  0  0  0  0  0  0  0  0  0
  141.9010  154.4760  133.2470 C   0  0  0  0  0  0  0  0  0  0  0  0
  142.8551  149.8484  133.1107 H   0  0  0  0  0  0  0  0  0  0  0  0
  142.2786  149.0517  131.6075 H   0  0  0  0  0  0  0  0  0  0  0  0
  142.6475  150.8096  131.6075 H   0  0  0  0  0  0  0  0  0  0  0  0
  138.8535  150.1497  131.6360 H   0  0  0  0  0  0  0  0  0  0  0  0
  140.0640  151.1327  130.7443 H   0  0  0  0  0  0  0  0  0  0  0  0
  140.1864  149.3406  130.7443 H   0  0  0  0  0  0  0  0  0  0  0  0
  140.4562  149.6125  134.6380 H   0  0  0  0  0  0  0  0  0  0  0  0
  139.1948  149.0926  133.4696 H   0  0  0  0  0  0  0  0  0  0  0  0
  140.8033  148.2930  133.4696 H   0  0  0  0  0  0  0  0  0  0  0  0
  143.8438  153.0299  135.3417 H   0  0  0  0  0  0  0  0  0  0  0  0
  144.2851  152.4765  133.7203 H   0  0  0  0  0  0  0  0  0  0  0  0
  144.3345  155.2398  134.8753 H   0  0  0  0  0  0  0  0  0  0  0  0
  145.2336  154.6204  133.4839 H   0  0  0  0  0  0  0  0  0  0  0  0
  143.5089  155.2050  131.9717 H   0  0  0  0  0  0  0  0  0  0  0  0
  140.8293  156.7071  133.2120 H   0  0  0  0  0  0  0  0  0  0  0  0
  140.5618  159.1852  133.5462 H   0  0  0  0  0  0  0  0  0  0  0  0
  142.0405  161.6110  133.8709 H   0  0  0  0  0  0  0  0  0  0  0  0
  146.8720  162.6820  134.7010 H   0  0  0  0  0  0  0  0  0  0  0  0
  146.7950  161.8070  133.2370 H   0  0  0  0  0  0  0  0  0  0  0  0
  148.2230  160.7170  133.3400 H   0  0  0  0  0  0  0  0  0  0  0  0
  145.1678  157.1646  133.3082 H   0  0  0  0  0  0  0  0  0  0  0  0
  141.2056  155.0397  133.8863 H   0  0  0  0  0  0  0  0  0  0  0  0
  141.3716  154.2745  132.3040 H   0  0  0  0  0  0  0  0  0  0  0  0
  1  2  1  0
  2  3  1  0
  2  4  1  0
  2  5  1  0
  5  6  1  0
  6  7  2  0
  6  8  1  0
  8  9  1  0
  9 10  1  0
 10 11  1  0
 11 12  1  0
 12 13  2  0
 13 14  1  0
 14 15  2  0
 15 16  1  0
 16 17  2  0
 17 18  1  0
 18 19  1  0
 18 20  2  0
 17 21  1  0
 21 22  1  0
 22 23  1  0
 22 24  2  0
 21 25  1  0
 25 26  2  0
 11 27  1  0
 27  8  1  0
 26 12  1  0
 25 15  1  0
  1 28  1  0
  1 29  1  0
  1 30  1  0
  3 31  1  0
  3 32  1  0
  3 33  1  0
  4 34  1  0
  4 35  1  0
  4 36  1  0
  9 37  1  0
  9 38  1  0
 10 39  1  0
 10 40  1  0
 11 41  1  6
 13 42  1  0
 14 43  1  0
 16 44  1  0
 19 45  1  0
 23 46  1  0
 23 47  1  0
 26 48  1  0
 27 49  1  0
 27 50  1  0
M  CHG  1  19  -1
M  END
>  <UniqueID>  (37) 
37

>  <SMILES>  (37) 
CC(C)(C)OC(=O)N1CC[C@H](c2ccc3cc(C([NH-])=O)n(C(N)=O)c3c2)C1

>  <Energy>  (37) 
85.53179404725338

>  <Genealogy>  (37) 
CC(C)(C)OC(=O)N1CCC(c2ccc3cc(C([NH-])=O)n(C(N)=O)c3c2)C1 (protonated)
CC(C)(C)OC(=O)N1CC[C@H](c2ccc3cc(C([NH-])=O)n(C(N)=O)c3c2)C1 (chirality)
CC(C)(C)OC(=O)N1CC[C@H](c2ccc3cc(C([NH-])=O)n(C(N)=O)c3c2)C1 (3D coordinates assigned)
CC(C)(C)OC(=O)N1CC[C@H](c2ccc3cc(C([NH-])=O)n(C(N)=O)c3c2)C1 (nonaromatic ring conformer: 85.53179404725338 kcal/mol)

>  <smiles>  (37) 
CC(C)(C)OC(=O)N1CCC(c2ccc3cc(C(N)=O)n(C(N)=O)c3c2)C1

>  <score_type>  (37) 
oracle

>  <origin>  (37) 
adg

>  <m_score__min__energy>  (37) 
-8.7300000000000004

>  <m_primary>  (37) 
energy

$$$$
37:0
     RDKit          3D

 37 38  0  0  0  0  0  0  0  0999 V2000
  149.5680  161.8080  130.3490 C   0  0  0  0  0  0  0  0  0  0  0  0
  149.2300  160.3400  130.0890 C   0  0  0  0  0  0  0  0  0  0  0  0
  149.9910  159.3880  131.0230 C   0  0  0  0  0  0  0  0  0  0  0  0
  149.0790  158.7480  132.0380 C   0  0  0  0  0  0  0  0  0  0  0  0
  148.1390  159.5350  132.7500 C   0  0  0  0  0  0  0  0  0  0  0  0
  147.2600  158.9400  133.6710 C   0  0  0  0  0  0  0  0  0  0  0  0
  147.3460  157.5650  133.8610 C   0  0  0  0  0  0  0  0  0  0  0  0
  146.6000  156.7340  134.6660 C   0  0  0  0  0  0  0  0  0  0  0  0
  147.1090  155.4550  134.4480 C   0  0  0  0  0  0  0  0  0  0  0  0
  146.6480  154.2600  135.1860 C   0  0  0  0  0  0  0  0  0  0  0  0
  147.5780  153.3740  135.8030 N   0  0  0  0  0  0  0  0  0  0  0  0
  145.4130  154.0450  135.3150 O   0  0  0  0  0  0  0  0  0  0  0  0
  148.1220  155.4910  133.5360 N   0  0  0  0  0  0  0  0  0  0  0  0
  148.8500  154.3860  132.9800 C   0  0  0  0  0  0  0  0  0  0  0  0
  149.9550  154.5880  132.4050 O   0  0  0  0  0  0  0  0  0  0  0  0
  148.3410  153.0880  133.1040 O   0  0  0  0  0  0  0  0  0  0  0  0
  149.1650  151.9300  133.2180 C   0  0  0  0  0  0  0  0  0  0  0  0
  149.6110  151.4480  131.8430 C   0  0  0  0  0  0  0  0  0  0  0  0
  148.2580  156.7910  133.1900 C   0  0  0  0  0  0  0  0  0  0  0  0
  149.1330  157.3530  132.2530 C   0  0  0  0  0  0  0  0  0  0  0  0
  149.6095  161.9882  131.4333 H   0  0  0  0  0  0  0  0  0  0  0  0
  150.5441  162.0445  129.9004 H   0  0  0  0  0  0  0  0  0  0  0  0
  148.7936  162.4476  129.9004 H   0  0  0  0  0  0  0  0  0  0  0  0
  148.1502  160.1943  130.2401 H   0  0  0  0  0  0  0  0  0  0  0  0
  149.5287  160.1056  129.0566 H   0  0  0  0  0  0  0  0  0  0  0  0
  150.4611  158.5978  130.4192 H   0  0  0  0  0  0  0  0  0  0  0  0
  150.7466  159.9749  131.5659 H   0  0  0  0  0  0  0  0  0  0  0  0
  148.0973  160.6210  132.5800 H   0  0  0  0  0  0  0  0  0  0  0  0
  146.5260  159.5437  134.2250 H   0  0  0  0  0  0  0  0  0  0  0  0
  145.7773  157.0188  135.3383 H   0  0  0  0  0  0  0  0  0  0  0  0
  148.1270  152.6910  135.2370 H   0  0  0  0  0  0  0  0  0  0  0  0
  150.0524  152.1762  133.8196 H   0  0  0  0  0  0  0  0  0  0  0  0
  148.5854  151.1301  133.7020 H   0  0  0  0  0  0  0  0  0  0  0  0
  150.3539  150.6451  131.9591 H   0  0  0  0  0  0  0  0  0  0  0  0
  148.7413  151.0655  131.2887 H   0  0  0  0  0  0  0  0  0  0  0  0
  150.0597  152.2855  131.2887 H   0  0  0  0  0  0  0  0  0  0  0  0
  149.8447  156.7241  131.6981 H   0  0  0  0  0  0  0  0  0  0  0  0
  1  2  1  0
  2  3  1  0
  3  4  1  0
  4  5  2  0
  5  6  1  0
  6  7  2  0
  7  8  1  0
  8  9  2  0
  9 10  1  0
 10 11  1  0
 10 12  2  0
  9 13  1  0
 13 14  1  0
 14 15  2  0
 14 16  1  0
 16 17  1  0
 17 18  1  0
 13 19  1  0
 19 20  2  0
 20  4  1  0
 19  7  1  0
  1 21  1  0
  1 22  1  0
  1 23  1  0
  2 24  1  0
  2 25  1  0
  3 26  1  0
  3 27  1  0
  5 28  1  0
  6 29  1  0
  8 30  1  0
 11 31  1  0
 17 32  1  0
 17 33  1  0
 18 34  1  0
 18 35  1  0
 18 36  1  0
 20 37  1  0
M  CHG  1  11  -1
M  END
>  <UniqueID>  (38) 
38

>  <SMILES>  (38) 
CCCc1ccc2cc(C([NH-])=O)n(C(=O)OCC)c2c1

>  <Energy>  (38) 
67.10280501088491

>  <Genealogy>  (38) 
CCCc1ccc2cc(C([NH-])=O)n(C(=O)OCC)c2c1 (protonated)
CCCc1ccc2cc(C([NH-])=O)n(C(=O)OCC)c2c1 (3D coordinates assigned)
CCCc1ccc2cc(C([NH-])=O)n(C(=O)OCC)c2c1 (optimized conformer: 67.10280501088491 kcal/mol)

>  <smiles>  (38) 
CCCc1ccc2cc(C(N)=O)n(C(=O)OCC)c2c1

>  <score_type>  (38) 
oracle

>  <origin>  (38) 
adg

>  <m_score__min__energy>  (38) 
-6.6200000000000001

>  <m_primary>  (38) 
energy

$$$$
38:0
     RDKit          3D

 34 36  0  0  0  0  0  0  0  0999 V2000
  148.9170  157.6440  132.6580 N   0  0  0  0  0  0  0  0  0  0  0  0
  148.4210  158.6390  133.5540 C   0  0  0  0  0  0  0  0  0  0  0  0
  149.2330  159.2830  134.2710 O   0  0  0  0  0  0  0  0  0  0  0  0
  146.9840  158.9720  133.6050 C   0  0  0  0  0  0  0  0  0  0  0  0
  146.5050  160.2720  133.7320 C   0  0  0  0  0  0  0  0  0  0  0  0
  145.1350  160.1620  133.6720 C   0  0  0  0  0  0  0  0  0  0  0  0
  144.1570  161.1460  133.7560 C   0  0  0  0  0  0  0  0  0  0  0  0
  142.8110  160.7460  133.7000 C   0  0  0  0  0  0  0  0  0  0  0  0
  142.4650  159.3730  133.5790 C   0  0  0  0  0  0  0  0  0  0  0  0
  141.0460  158.9400  133.5230 C   0  0  0  0  0  0  0  0  0  0  0  0
  140.4830  158.1160  134.5150 C   0  0  0  0  0  0  0  0  0  0  0  0
  139.1450  157.7330  134.4140 C   0  0  0  0  0  0  0  0  0  0  0  0
  138.3760  158.1610  133.3310 C   0  0  0  0  0  0  0  0  0  0  0  0
  138.9620  158.9730  132.3510 C   0  0  0  0  0  0  0  0  0  0  0  0
  138.1590  159.4400  131.1730 C   0  0  0  0  0  0  0  0  0  0  0  0
  138.7070  158.9660  129.9940 F   0  0  0  0  0  0  0  0  0  0  0  0
  136.8610  158.9780  131.2820 F   0  0  0  0  0  0  0  0  0  0  0  0
  138.1500  160.8220  131.1360 F   0  0  0  0  0  0  0  0  0  0  0  0
  140.2700  159.3340  132.4740 N   0  0  0  0  0  0  0  0  0  0  0  0
  143.4940  158.4050  133.4880 C   0  0  0  0  0  0  0  0  0  0  0  0
  144.8260  158.8340  133.5260 C   0  0  0  0  0  0  0  0  0  0  0  0
  145.9540  158.0880  133.4860 N   0  0  0  0  0  0  0  0  0  0  0  0
  146.0390  156.6520  133.4560 C   0  0  0  0  0  0  0  0  0  0  0  0
  146.6320  156.0680  132.5110 O   0  0  0  0  0  0  0  0  0  0  0  0
  145.4630  155.8940  134.4680 O   0  0  0  0  0  0  0  0  0  0  0  0
  148.2990  157.2120  131.9360 H   0  0  0  0  0  0  0  0  0  0  0  0
  149.9320  157.3960  132.6600 H   0  0  0  0  0  0  0  0  0  0  0  0
  147.0958  161.1918  133.8543 H   0  0  0  0  0  0  0  0  0  0  0  0
  144.4286  162.2066  133.8631 H   0  0  0  0  0  0  0  0  0  0  0  0
  142.0160  161.5045  133.7504 H   0  0  0  0  0  0  0  0  0  0  0  0
  141.0936  157.7760  135.3645 H   0  0  0  0  0  0  0  0  0  0  0  0
  138.6962  157.0935  135.1884 H   0  0  0  0  0  0  0  0  0  0  0  0
  137.3202  157.8638  133.2475 H   0  0  0  0  0  0  0  0  0  0  0  0
  143.2516  157.3366  133.3894 H   0  0  0  0  0  0  0  0  0  0  0  0
  1  2  1  0
  2  3  2  0
  2  4  1  0
  4  5  2  0
  5  6  1  0
  6  7  2  0
  7  8  1  0
  8  9  2  0
  9 10  1  0
 10 11  2  0
 11 12  1  0
 12 13  2  0
 13 14  1  0
 14 15  1  0
 15 16  1  0
 15 17  1  0
 15 18  1  0
 14 19  2  0
  9 20  1  0
 20 21  2  0
 21 22  1  0
 22 23  1  0
 23 24  2  0
 23 25  1  0
 22  4  1  0
 21  6  1  0
 19 10  1  0
  1 26  1  0
  1 27  1  0
  5 28  1  0
  7 29  1  0
  8 30  1  0
 11 31  1  0
 12 32  1  0
 13 33  1  0
 20 34  1  0
M  CHG  1  25  -1
M  END
>  <UniqueID>  (39) 
39

>  <SMILES>  (39) 
NC(=O)c1cc2ccc(-c3cccc(C(F)(F)F)n3)cc2n1C(=O)[O-]

>  <Energy>  (39) 
80.78318045771488

>  <Genealogy>  (39) 
NC(=O)c1cc2ccc(-c3cccc(C(F)(F)F)n3)cc2n1C(=O)[O-] (protonated)
NC(=O)c1cc2ccc(-c3cccc(C(F)(F)F)n3)cc2n1C(=O)[O-] (3D coordinates assigned)
NC(=O)c1cc2ccc(-c3cccc(C(F)(F)F)n3)cc2n1C(=O)[O-] (optimized conformer: 80.78318045771488 kcal/mol)

>  <smiles>  (39) 
NC(=O)c1cc2ccc(-c3cccc(C(F)(F)F)n3)cc2n1C(=O)O

>  <score_type>  (39) 
oracle

>  <origin>  (39) 
adg

>  <m_score__min__energy>  (39) 
-7.6299999999999999

>  <m_primary>  (39) 
energy

$$$$
39:0
     RDKit          3D

 37 39  0  0  0  0  0  0  0  0999 V2000
  147.8720  155.0170  132.6140 C   0  0  0  0  0  0  0  0  0  0  0  0
  147.6530  156.4810  132.8510 C   0  0  0  0  0  0  0  0  0  0  0  0
  148.7430  157.3830  132.7760 C   0  0  0  0  0  0  0  0  0  0  0  0
  148.5430  158.7630  132.9490 C   0  0  0  0  0  0  0  0  0  0  0  0
  147.2460  159.2100  133.1880 C   0  0  0  0  0  0  0  0  0  0  0  0
  146.7700  160.4880  133.3690 C   0  0  0  0  0  0  0  0  0  0  0  0
  145.3960  160.3470  133.5550 C   0  0  0  0  0  0  0  0  0  0  0  0
  144.4970  161.4740  133.8820 C   0  0  0  0  0  0  0  0  0  0  0  0
  143.0890  161.3300  133.7070 N   0  0  0  0  0  0  0  0  0  0  0  0
  144.9600  162.5750  134.2790 O   0  0  0  0  0  0  0  0  0  0  0  0
  145.0370  159.0330  133.4820 N   0  0  0  0  0  0  0  0  0  0  0  0
  143.7200  158.4730  133.5750 C   0  0  0  0  0  0  0  0  0  0  0  0
  143.2430  157.8180  132.6070 O   0  0  0  0  0  0  0  0  0  0  0  0
  142.9730  158.6490  134.7450 O   0  0  0  0  0  0  0  0  0  0  0  0
  141.6520  158.1410  134.9150 C   0  0  0  0  0  0  0  0  0  0  0  0
  140.7640  158.5880  133.7940 C   0  0  0  0  0  0  0  0  0  0  0  0
  140.6020  159.8360  133.4220 O   0  0  0  0  0  0  0  0  0  0  0  0
  139.7570  159.8060  132.4180 C   0  0  0  0  0  0  0  0  0  0  0  0
  139.3630  160.8330  131.8060 O   0  0  0  0  0  0  0  0  0  0  0  0
  139.3650  158.5870  132.1230 O   0  0  0  0  0  0  0  0  0  0  0  0
  139.9850  157.7970  132.9680 C   0  0  0  0  0  0  0  0  0  0  0  0
  139.8230  156.3140  133.0190 C   0  0  0  0  0  0  0  0  0  0  0  0
  146.1810  158.3500  133.2630 C   0  0  0  0  0  0  0  0  0  0  0  0
  146.3480  156.9730  133.0790 C   0  0  0  0  0  0  0  0  0  0  0  0
  147.9498  154.4968  133.5801 H   0  0  0  0  0  0  0  0  0  0  0  0
  147.0252  154.6071  132.0440 H   0  0  0  0  0  0  0  0  0  0  0  0
  148.8017  154.8729  132.0440 H   0  0  0  0  0  0  0  0  0  0  0  0
  149.7552  156.9994  132.5805 H   0  0  0  0  0  0  0  0  0  0  0  0
  149.3852  159.4687  132.8972 H   0  0  0  0  0  0  0  0  0  0  0  0
  147.3504  161.4224  133.3673 H   0  0  0  0  0  0  0  0  0  0  0  0
  142.6650  160.3960  133.5130 H   0  0  0  0  0  0  0  0  0  0  0  0
  141.6872  157.0417  134.9313 H   0  0  0  0  0  0  0  0  0  0  0  0
  141.2452  158.5240  135.8625 H   0  0  0  0  0  0  0  0  0  0  0  0
  139.7871  155.9849  134.0680 H   0  0  0  0  0  0  0  0  0  0  0  0
  138.8884  156.0296  132.5133 H   0  0  0  0  0  0  0  0  0  0  0  0
  140.6741  155.8346  132.5133 H   0  0  0  0  0  0  0  0  0  0  0  0
  145.4856  156.2909  133.1110 H   0  0  0  0  0  0  0  0  0  0  0  0
  1  2  1  0
  2  3  2  0
  3  4  1  0
  4  5  2  0
  5  6  1  0
  6  7  2  0
  7  8  1  0
  8  9  1  0
  8 10  2  0
  7 11  1  0
 11 12  1  0
 12 13  2  0
 12 14  1  0
 14 15  1  0
 15 16  1  0
 16 17  1  0
 17 18  1  0
 18 19  2  0
 18 20  1  0
 20 21  1  0
 21 22  1  0
 11 23  1  0
 23 24  2  0
 24  2  1  0
 23  5  1  0
 21 16  2  0
  1 25  1  0
  1 26  1  0
  1 27  1  0
  3 28  1  0
  4 29  1  0
  6 30  1  0
  9 31  1  0
 15 32  1  0
 15 33  1  0
 22 34  1  0
 22 35  1  0
 22 36  1  0
 24 37  1  0
M  CHG  1   9  -1
M  END
>  <UniqueID>  (40) 
40

>  <SMILES>  (40) 
Cc1ccc2cc(C([NH-])=O)n(C(=O)OCc3oc(=O)oc3C)c2c1

>  <Energy>  (40) 
106.31509053898395

>  <Genealogy>  (40) 
Cc1ccc2cc(C([NH-])=O)n(C(=O)OCc3oc(=O)oc3C)c2c1 (protonated)
Cc1ccc2cc(C([NH-])=O)n(C(=O)OCc3oc(=O)oc3C)c2c1 (3D coordinates assigned)
Cc1ccc2cc(C([NH-])=O)n(C(=O)OCc3oc(=O)oc3C)c2c1 (optimized conformer: 106.31509053898395 kcal/mol)

>  <smiles>  (40) 
Cc1ccc2cc(C(N)=O)n(C(=O)OCc3oc(=O)oc3C)c2c1

>  <score_type>  (40) 
oracle

>  <origin>  (40) 
adg

>  <m_score__min__energy>  (40) 
-6.6299999999999999

>  <m_primary>  (40) 
energy

$$$$
40:0
     RDKit          3D

 42 44  0  0  0  0  0  0  0  0999 V2000
  140.8400  158.2740  133.0650 C   0  0  0  0  0  0  0  0  0  0  0  0
  140.1880  157.7680  134.3120 C   0  0  0  0  0  0  0  0  0  0  0  0
  139.0070  158.1230  134.5730 O   0  0  0  0  0  0  0  0  0  0  0  0
  140.8740  156.8650  135.1950 N   0  0  0  0  0  0  0  0  0  0  0  0
  141.4430  157.1420  136.4020 C   0  0  0  0  0  0  0  0  0  0  0  0
  141.3170  158.4100  137.1480 C   0  0  0  0  0  0  0  0  0  0  0  0
  140.2360  159.3100  136.8990 N   0  0  0  0  0  0  0  0  0  0  0  0
  142.1490  158.6800  138.0550 O   0  0  0  0  0  0  0  0  0  0  0  0
  142.1270  156.0310  136.8890 C   0  0  0  0  0  0  0  0  0  0  0  0
  141.9450  155.0500  135.9420 C   0  0  0  0  0  0  0  0  0  0  0  0
  142.4150  153.7410  135.9070 C   0  0  0  0  0  0  0  0  0  0  0  0
  142.0970  152.9560  134.7860 C   0  0  0  0  0  0  0  0  0  0  0  0
  141.3270  153.4870  133.7200 C   0  0  0  0  0  0  0  0  0  0  0  0
  141.0340  152.6500  132.5850 N   0  0  0  0  0  0  0  0  0  0  0  0
  141.7470  151.3920  132.3170 C   0  0  0  0  0  0  0  0  0  0  0  0
  140.8240  150.1540  132.1450 C   0  0  0  0  0  0  0  0  0  0  0  0
  139.4790  150.5270  131.4750 C   0  0  0  0  0  0  0  0  0  0  0  0
  138.7540  151.4650  132.2300 O   0  0  0  0  0  0  0  0  0  0  0  0
  140.6880  149.2710  133.3760 C   0  0  0  0  0  0  0  0  0  0  0  0
  141.3330  148.1860  132.7460 O   0  0  0  0  0  0  0  0  0  0  0  0
  141.4940  148.9230  131.5530 C   0  0  0  0  0  0  0  0  0  0  0  0
  140.8690  154.8260  133.7940 C   0  0  0  0  0  0  0  0  0  0  0  0
  141.1860  155.5770  134.9310 C   0  0  0  0  0  0  0  0  0  0  0  0
  141.6831  158.9283  133.3316 H   0  0  0  0  0  0  0  0  0  0  0  0
  141.2089  157.4234  132.4730 H   0  0  0  0  0  0  0  0  0  0  0  0
  140.1076  158.8425  132.4730 H   0  0  0  0  0  0  0  0  0  0  0  0
  140.1880  160.2220  137.4050 H   0  0  0  0  0  0  0  0  0  0  0  0
  139.4420  159.0400  136.2790 H   0  0  0  0  0  0  0  0  0  0  0  0
  142.6920  155.9543  137.8297 H   0  0  0  0  0  0  0  0  0  0  0  0
  143.0173  153.3330  136.7320 H   0  0  0  0  0  0  0  0  0  0  0  0
  142.4501  151.9155  134.7345 H   0  0  0  0  0  0  0  0  0  0  0  0
  140.2810  152.9710  131.9380 H   0  0  0  0  0  0  0  0  0  0  0  0
  142.3299  151.5174  131.3926 H   0  0  0  0  0  0  0  0  0  0  0  0
  142.3758  151.1943  133.1976 H   0  0  0  0  0  0  0  0  0  0  0  0
  139.6837  150.9533  130.4818 H   0  0  0  0  0  0  0  0  0  0  0  0
  138.8731  149.6120  131.3997 H   0  0  0  0  0  0  0  0  0  0  0  0
  138.3700  150.9850  133.0090 H   0  0  0  0  0  0  0  0  0  0  0  0
  141.2296  149.6544  134.2533 H   0  0  0  0  0  0  0  0  0  0  0  0
  139.6914  149.1176  133.8156 H   0  0  0  0  0  0  0  0  0  0  0  0
  142.5460  149.0859  131.2760 H   0  0  0  0  0  0  0  0  0  0  0  0
  141.1086  148.5058  130.6110 H   0  0  0  0  0  0  0  0  0  0  0  0
  140.2780  155.2647  132.9765 H   0  0  0  0  0  0  0  0  0  0  0  0
  1  2  1  0
  2  3  2  0
  2  4  1  0
  4  5  1  0
  5  6  1  0
  6  7  1  0
  6  8  2  0
  5  9  2  0
  9 10  1  0
 10 11  2  0
 11 12  1  0
 12 13  2  0
 13 14  1  0
 14 15  1  0
 15 16  1  0
 16 17  1  0
 17 18  1  0
 16 19  1  0
 19 20  1  0
 20 21  1  0
 13 22  1  0
 22 23  2  0
 23  4  1  0
 23 10  1  0
 21 16  1  0
  1 24  1  0
  1 25  1  0
  1 26  1  0
  7 27  1  0
  7 28  1  0
  9 29  1  0
 11 30  1  0
 12 31  1  0
 14 32  1  0
 15 33  1  0
 15 34  1  0
 17 35  1  0
 17 36  1  0
 18 37  1  0
 19 38  1  0
 19 39  1  0
 21 40  1  0
 21 41  1  0
 22 42  1  0
M  END
>  <UniqueID>  (41) 
41

>  <SMILES>  (41) 
CC(=O)n1c(C(N)=O)cc2ccc(NCC3(CO)COC3)cc21

>  <Energy>  (41) 
149.11930078286747

>  <Genealogy>  (41) 
CC(=O)n1c(C(N)=O)cc2ccc(NCC3(CO)COC3)cc21 (3D coordinates assigned)
CC(=O)n1c(C(N)=O)cc2ccc(NCC3(CO)COC3)cc21 (nonaromatic ring conformer: 149.11930078286747 kcal/mol)

>  <smiles>  (41) 
CC(=O)n1c(C(N)=O)cc2ccc(NCC3(CO)COC3)cc21

>  <score_type>  (41) 
oracle

>  <origin>  (41) 
adg

>  <m_score__min__energy>  (41) 
-7.1100000000000003

>  <m_primary>  (41) 
energy

$$$$
41:0
     RDKit          3D

 53 56  0  0  0  0  0  0  0  0999 V2000
  149.1940  158.5170  131.9780 C   0  0  0  0  0  0  0  0  0  0  0  0
  148.4830  159.8700  131.9750 C   0  0  0  0  0  0  0  0  0  0  0  0
  146.9550  159.7240  131.9600 C   0  0  0  0  0  0  0  0  0  0  0  0
  146.4070  159.4780  133.3390 C   0  0  0  0  0  0  0  0  0  0  0  0
  147.1620  159.0120  134.2320 O   0  0  0  0  0  0  0  0  0  0  0  0
  145.0220  159.7190  133.6340 N   0  0  0  0  0  0  0  0  0  0  0  0
  144.4150  160.9110  133.8940 C   0  0  0  0  0  0  0  0  0  0  0  0
  145.1100  162.2060  134.0640 C   0  0  0  0  0  0  0  0  0  0  0  0
  146.5220  162.2560  134.2760 N   0  0  0  0  0  0  0  0  0  0  0  0
  144.4620  163.2840  133.9910 O   0  0  0  0  0  0  0  0  0  0  0  0
  143.0490  160.7250  134.1030 C   0  0  0  0  0  0  0  0  0  0  0  0
  142.8410  159.3700  133.9710 C   0  0  0  0  0  0  0  0  0  0  0  0
  141.6710  158.6290  134.0830 C   0  0  0  0  0  0  0  0  0  0  0  0
  141.7500  157.2400  133.8910 C   0  0  0  0  0  0  0  0  0  0  0  0
  142.9870  156.6130  133.5810 C   0  0  0  0  0  0  0  0  0  0  0  0
  143.0550  155.1440  133.3550 C   0  0  0  0  0  0  0  0  0  0  0  0
  144.0710  154.5210  132.6260 C   0  0  0  0  0  0  0  0  0  0  0  0
  143.7920  152.8640  132.6220 S   0  0  0  0  0  0  0  0  0  0  0  0
  142.3860  152.9060  133.5380 C   0  0  0  0  0  0  0  0  0  0  0  0
  141.5950  151.7350  133.9500 C   0  0  0  0  0  0  0  0  0  0  0  0
  141.3650  151.5280  135.1710 O   0  0  0  0  0  0  0  0  0  0  0  0
  141.0940  150.8110  132.9780 N   0  0  0  0  0  0  0  0  0  0  0  0
  139.8920  151.1580  132.2210 C   0  0  0  0  0  0  0  0  0  0  0  0
  139.2310  149.8800  131.6910 C   0  0  0  0  0  0  0  0  0  0  0  0
  140.1700  149.0740  131.0040 O   0  0  0  0  0  0  0  0  0  0  0  0
  141.1560  148.6120  131.9080 C   0  0  0  0  0  0  0  0  0  0  0  0
  141.9860  149.7810  132.4460 C   0  0  0  0  0  0  0  0  0  0  0  0
  142.1100  154.2290  133.8630 C   0  0  0  0  0  0  0  0  0  0  0  0
  144.1560  157.4090  133.4790 C   0  0  0  0  0  0  0  0  0  0  0  0
  144.0460  158.7860  133.6920 C   0  0  0  0  0  0  0  0  0  0  0  0
  149.3636  158.1942  133.0158 H   0  0  0  0  0  0  0  0  0  0  0  0
  148.5700  157.7737  131.4602 H   0  0  0  0  0  0  0  0  0  0  0  0
  150.1601  158.6093  131.4602 H   0  0  0  0  0  0  0  0  0  0  0  0
  148.7766  160.4261  132.8776 H   0  0  0  0  0  0  0  0  0  0  0  0
  148.7794  160.4044  131.0604 H   0  0  0  0  0  0  0  0  0  0  0  0
  146.5123  160.6481  131.5599 H   0  0  0  0  0  0  0  0  0  0  0  0
  146.6989  158.8597  131.3296 H   0  0  0  0  0  0  0  0  0  0  0  0
  147.0060  163.1780  134.3640 H   0  0  0  0  0  0  0  0  0  0  0  0
  147.0850  161.3860  134.3980 H   0  0  0  0  0  0  0  0  0  0  0  0
  142.2973  161.4965  134.3259 H   0  0  0  0  0  0  0  0  0  0  0  0
  140.7121  159.1155  134.3150 H   0  0  0  0  0  0  0  0  0  0  0  0
  140.8405  156.6281  133.9820 H   0  0  0  0  0  0  0  0  0  0  0  0
  144.9137  155.0306  132.1360 H   0  0  0  0  0  0  0  0  0  0  0  0
  139.1871  151.6898  132.8769 H   0  0  0  0  0  0  0  0  0  0  0  0
  140.1672  151.8048  131.3749 H   0  0  0  0  0  0  0  0  0  0  0  0
  138.8180  149.3106  132.5367 H   0  0  0  0  0  0  0  0  0  0  0  0
  138.4308  150.1622  130.9909 H   0  0  0  0  0  0  0  0  0  0  0  0
  140.6642  148.1010  132.7488 H   0  0  0  0  0  0  0  0  0  0  0  0
  141.8245  147.9174  131.3782 H   0  0  0  0  0  0  0  0  0  0  0  0
  142.6490  149.4215  133.2467 H   0  0  0  0  0  0  0  0  0  0  0  0
  142.5904  150.2060  131.6311 H   0  0  0  0  0  0  0  0  0  0  0  0
  141.2374  154.5332  134.4597 H   0  0  0  0  0  0  0  0  0  0  0  0
  145.1276  156.9531  133.2377 H   0  0  0  0  0  0  0  0  0  0  0  0
  1  2  1  0
  2  3  1  0
  3  4  1  0
  4  5  2  0
  4  6  1  0
  6  7  1  0
  7  8  1  0
  8  9  1  0
  8 10  2  0
  7 11  2  0
 11 12  1  0
 12 13  2  0
 13 14  1  0
 14 15  2  0
 15 16  1  0
 16 17  2  0
 17 18  1  0
 18 19  1  0
 19 20  1  0
 20 21  2  0
 20 22  1  0
 22 23  1  0
 23 24  1  0
 24 25  1  0
 25 26  1  0
 26 27  1  0
 19 28  2  0
 15 29  1  0
 29 30  2  0
 30  6  1  0
 30 12  1  0
 28 16  1  0
 27 22  1  0
  1 31  1  0
  1 32  1  0
  1 33  1  0
  2 34  1  0
  2 35  1  0
  3 36  1  0
  3 37  1  0
  9 38  1  0
  9 39  1  0
 11 40  1  0
 13 41  1  0
 14 42  1  0
 17 43  1  0
 23 44  1  0
 23 45  1  0
 24 46  1  0
 24 47  1  0
 26 48  1  0
 26 49  1  0
 27 50  1  0
 27 51  1  0
 28 52  1  0
 29 53  1  0
M  END
>  <UniqueID>  (42) 
42

>  <SMILES>  (42) 
CCCC(=O)n1c(C(N)=O)cc2ccc(-c3csc(C(=O)N4CCOCC4)c3)cc21

>  <Energy>  (42) 
125.21288847149178

>  <Genealogy>  (42) 
CCCC(=O)n1c(C(N)=O)cc2ccc(-c3csc(C(=O)N4CCOCC4)c3)cc21 (3D coordinates assigned)
CCCC(=O)n1c(C(N)=O)cc2ccc(-c3csc(C(=O)N4CCOCC4)c3)cc21 (nonaromatic ring conformer: 125.21288847149178 kcal/mol)

>  <smiles>  (42) 
CCCC(=O)n1c(C(N)=O)cc2ccc(-c3csc(C(=O)N4CCOCC4)c3)cc21

>  <score_type>  (42) 
oracle

>  <origin>  (42) 
adg

>  <m_score__min__energy>  (42) 
-9.9900000000000002

>  <m_primary>  (42) 
energy

$$$$
42:0
     RDKit          3D

 65 67  0  0  0  0  0  0  0  0999 V2000
  142.9150  153.7600  132.6670 C   0  0  0  0  0  0  0  0  0  0  0  0
  141.7670  153.6150  133.6840 C   0  0  0  0  0  0  0  0  0  0  0  0
  140.6110  152.7910  133.0840 C   0  0  0  0  0  0  0  0  0  0  0  0
  142.2970  152.8940  134.9320 C   0  0  0  0  0  0  0  0  0  0  0  0
  141.3000  154.9050  134.1070 O   0  0  0  0  0  0  0  0  0  0  0  0
  140.6750  155.8710  133.3020 C   0  0  0  0  0  0  0  0  0  0  0  0
  139.6990  155.5650  132.5660 O   0  0  0  0  0  0  0  0  0  0  0  0
  141.1420  157.2290  133.3380 N   0  0  0  0  0  0  0  0  0  0  0  0
  140.4130  158.3640  133.1480 C   0  0  0  0  0  0  0  0  0  0  0  0
  138.9420  158.4410  133.0270 C   0  0  0  0  0  0  0  0  0  0  0  0
  138.1010  157.5170  133.7110 N   0  0  0  0  0  0  0  0  0  0  0  0
  138.4190  159.3680  132.3520 O   0  0  0  0  0  0  0  0  0  0  0  0
  141.2400  159.4850  133.1620 C   0  0  0  0  0  0  0  0  0  0  0  0
  142.5090  158.9990  133.3780 C   0  0  0  0  0  0  0  0  0  0  0  0
  143.7190  159.6750  133.4820 C   0  0  0  0  0  0  0  0  0  0  0  0
  144.8830  158.9160  133.6830 C   0  0  0  0  0  0  0  0  0  0  0  0
  144.8240  157.4990  133.7580 C   0  0  0  0  0  0  0  0  0  0  0  0
  146.0790  156.6750  133.9860 C   0  0  1  0  0  0  0  0  0  0  0  0
  145.7790  155.1700  134.2230 C   0  0  0  0  0  0  0  0  0  0  0  0
  146.1890  154.2840  133.0300 C   0  0  0  0  0  0  0  0  0  0  0  0
  147.6100  154.4660  132.6220 N   0  0  2  0  0  0  0  0  0  0  0  0
  148.4580  153.4550  133.2070 C   0  0  0  0  0  0  0  0  0  0  0  0
  148.5010  153.3140  134.4620 O   0  0  0  0  0  0  0  0  0  0  0  0
  149.2610  152.6650  132.3680 O   0  0  0  0  0  0  0  0  0  0  0  0
  149.3570  151.2330  132.3840 C   0  0  0  0  0  0  0  0  0  0  0  0
  147.9370  150.6810  132.1880 C   0  0  0  0  0  0  0  0  0  0  0  0
  149.9010  150.7420  133.7390 C   0  0  0  0  0  0  0  0  0  0  0  0
  150.2470  150.7360  131.2280 C   0  0  0  0  0  0  0  0  0  0  0  0
  148.1720  155.8130  132.8980 C   0  0  0  0  0  0  0  0  0  0  0  0
  147.0920  156.8990  132.8480 C   0  0  0  0  0  0  0  0  0  0  0  0
  143.5700  156.8510  133.6550 C   0  0  0  0  0  0  0  0  0  0  0  0
  142.4240  157.6350  133.4780 C   0  0  0  0  0  0  0  0  0  0  0  0
  143.8675  153.8803  133.2039 H   0  0  0  0  0  0  0  0  0  0  0  0
  142.9611  152.8605  132.0355 H   0  0  0  0  0  0  0  0  0  0  0  0
  142.7361  154.6427  132.0355 H   0  0  0  0  0  0  0  0  0  0  0  0
  140.0072  152.3606  133.8965 H   0  0  0  0  0  0  0  0  0  0  0  0
  139.9790  153.4435  132.4636 H   0  0  0  0  0  0  0  0  0  0  0  0
  141.0217  151.9808  132.4636 H   0  0  0  0  0  0  0  0  0  0  0  0
  141.9244  153.4009  135.8343 H   0  0  0  0  0  0  0  0  0  0  0  0
  141.9495  151.8503  134.9278 H   0  0  0  0  0  0  0  0  0  0  0  0
  143.3968  152.9142  134.9278 H   0  0  0  0  0  0  0  0  0  0  0  0
  137.9410  156.5560  133.3350 H   0  0  0  0  0  0  0  0  0  0  0  0
  140.9419  160.5354  133.0287 H   0  0  0  0  0  0  0  0  0  0  0  0
  143.7633  160.7717  133.4090 H   0  0  0  0  0  0  0  0  0  0  0  0
  145.8528  159.4253  133.7837 H   0  0  0  0  0  0  0  0  0  0  0  0
  146.5378  157.0315  134.9200 H   0  0  0  0  0  0  0  0  0  0  0  0
  144.6993  155.0498  134.3954 H   0  0  0  0  0  0  0  0  0  0  0  0
  146.3696  154.8477  135.0933 H   0  0  0  0  0  0  0  0  0  0  0  0
  145.5452  154.5322  132.1733 H   0  0  0  0  0  0  0  0  0  0  0  0
  146.0724  153.2370  133.3465 H   0  0  0  0  0  0  0  0  0  0  0  0
  147.6440  154.3250  131.5840 H   0  0  0  0  0  0  0  0  0  0  0  0
  147.4747  150.5013  133.1698 H   0  0  0  0  0  0  0  0  0  0  0  0
  147.3343  151.4103  131.6269 H   0  0  0  0  0  0  0  0  0  0  0  0
  147.9851  149.7361  131.6269 H   0  0  0  0  0  0  0  0  0  0  0  0
  149.3533  151.2363  134.5549 H   0  0  0  0  0  0  0  0  0  0  0  0
  149.7673  149.6528  133.8148 H   0  0  0  0  0  0  0  0  0  0  0  0
  150.9709  150.9863  133.8148 H   0  0  0  0  0  0  0  0  0  0  0  0
  151.1379  150.2385  131.6389 H   0  0  0  0  0  0  0  0  0  0  0  0
  149.6813  150.0232  130.6100 H   0  0  0  0  0  0  0  0  0  0  0  0
  150.5571  151.5915  130.6100 H   0  0  0  0  0  0  0  0  0  0  0  0
  148.9407  156.0398  132.1445 H   0  0  0  0  0  0  0  0  0  0  0  0
  148.6026  155.8040  133.9102 H   0  0  0  0  0  0  0  0  0  0  0  0
  146.5712  156.8527  131.8802 H   0  0  0  0  0  0  0  0  0  0  0  0
  147.5619  157.8864  132.9672 H   0  0  0  0  0  0  0  0  0  0  0  0
  143.4975  155.7549  133.7128 H   0  0  0  0  0  0  0  0  0  0  0  0
  1  2  1  0
  2  3  1  0
  2  4  1  0
  2  5  1  0
  5  6  1  0
  6  7  2  0
  6  8  1  0
  8  9  1  0
  9 10  1  0
 10 11  1  0
 10 12  2  0
  9 13  2  0
 13 14  1  0
 14 15  2  0
 15 16  1  0
 16 17  2  0
 17 18  1  0
 18 19  1  0
 19 20  1  0
 20 21  1  0
 21 22  1  0
 22 23  2  0
 22 24  1  0
 24 25  1  0
 25 26  1  0
 25 27  1  0
 25 28  1  0
 21 29  1  0
 29 30  1  0
 17 31  1  0
 31 32  2  0
 32  8  1  0
 32 14  1  0
 30 18  1  0
  1 33  1  0
  1 34  1  0
  1 35  1  0
  3 36  1  0
  3 37  1  0
  3 38  1  0
  4 39  1  0
  4 40  1  0
  4 41  1  0
 11 42  1  0
 13 43  1  0
 15 44  1  0
 16 45  1  0
 18 46  1  1
 19 47  1  0
 19 48  1  0
 20 49  1  0
 20 50  1  0
 21 51  1  6
 26 52  1  0
 26 53  1  0
 26 54  1  0
 27 55  1  0
 27 56  1  0
 27 57  1  0
 28 58  1  0
 28 59  1  0
 28 60  1  0
 29 61  1  0
 29 62  1  0
 30 63  1  0
 30 64  1  0
 31 65  1  0
M  CHG  2  11  -1  21   1
M  END
>  <UniqueID>  (43) 
43

>  <SMILES>  (43) 
CC(C)(C)OC(=O)n1c(C([NH-])=O)cc2ccc(C3CC[NH+](C(=O)OC(C)(C)C)CC3)cc21

>  <Energy>  (43) 
105.77902904469568

>  <Genealogy>  (43) 
CC(C)(C)OC(=O)n1c(C([NH-])=O)cc2ccc(C3CC[NH+](C(=O)OC(C)(C)C)CC3)cc21 (protonated)
CC(C)(C)OC(=O)n1c(C([NH-])=O)cc2ccc(C3CC[NH+](C(=O)OC(C)(C)C)CC3)cc21 (3D coordinates assigned)
CC(C)(C)OC(=O)n1c(C([NH-])=O)cc2ccc(C3CC[NH+](C(=O)OC(C)(C)C)CC3)cc21 (nonaromatic ring conformer: 105.77902904469568 kcal/mol)

>  <smiles>  (43) 
CC(C)(C)OC(=O)N1CCC(c2ccc3cc(C(N)=O)n(C(=O)OC(C)(C)C)c3c2)CC1

>  <score_type>  (43) 
oracle

>  <origin>  (43) 
adg

>  <m_score__min__energy>  (43) 
-9.4600000000000009

>  <m_primary>  (43) 
energy

$$$$
43:0
     RDKit          3D

 35 36  0  0  0  0  0  0  0  0999 V2000
  138.7110  160.0170  130.8930 C   0  0  0  0  0  0  0  0  0  0  0  0
  139.5700  158.9510  131.5650 C   0  0  0  0  0  0  0  0  0  0  0  0
  139.4040  158.9890  133.0910 C   0  0  0  0  0  0  0  0  0  0  0  0
  140.4680  158.1510  133.8140 C   0  0  0  0  0  0  0  0  0  0  0  0
  141.8270  158.8020  133.7670 C   0  0  0  0  0  0  0  0  0  0  0  0
  141.9350  160.2150  133.7540 C   0  0  0  0  0  0  0  0  0  0  0  0
  143.1940  160.8360  133.7250 C   0  0  0  0  0  0  0  0  0  0  0  0
  144.3230  160.0220  133.7250 C   0  0  0  0  0  0  0  0  0  0  0  0
  145.6560  160.3610  133.6740 C   0  0  0  0  0  0  0  0  0  0  0  0
  146.3430  159.1510  133.6940 C   0  0  0  0  0  0  0  0  0  0  0  0
  147.8160  159.0560  133.7240 C   0  0  0  0  0  0  0  0  0  0  0  0
  148.4730  157.7940  133.8490 N   0  0  0  0  0  0  0  0  0  0  0  0
  148.5050  160.1090  133.6940 O   0  0  0  0  0  0  0  0  0  0  0  0
  145.4730  158.1020  133.7410 N   0  0  0  0  0  0  0  0  0  0  0  0
  145.7850  156.7010  133.6570 C   0  0  0  0  0  0  0  0  0  0  0  0
  146.5310  156.1970  132.5510 N   0  0  0  0  0  0  0  0  0  0  0  0
  145.3930  155.9080  134.5530 O   0  0  0  0  0  0  0  0  0  0  0  0
  144.2380  158.6540  133.7620 C   0  0  0  0  0  0  0  0  0  0  0  0
  142.9960  158.0080  133.7690 C   0  0  0  0  0  0  0  0  0  0  0  0
  138.2177  160.6291  131.6624 H   0  0  0  0  0  0  0  0  0  0  0  0
  139.3472  160.6589  130.2659 H   0  0  0  0  0  0  0  0  0  0  0  0
  137.9485  159.5318  130.2659 H   0  0  0  0  0  0  0  0  0  0  0  0
  139.2676  157.9601  131.1952 H   0  0  0  0  0  0  0  0  0  0  0  0
  140.6248  159.1484  131.3231 H   0  0  0  0  0  0  0  0  0  0  0  0
  139.4852  160.0324  133.4298 H   0  0  0  0  0  0  0  0  0  0  0  0
  138.4189  158.5635  133.3330 H   0  0  0  0  0  0  0  0  0  0  0  0
  140.1692  158.0280  134.8655 H   0  0  0  0  0  0  0  0  0  0  0  0
  140.5390  157.1787  133.3044 H   0  0  0  0  0  0  0  0  0  0  0  0
  141.0238  160.8311  133.7667 H   0  0  0  0  0  0  0  0  0  0  0  0
  143.2852  161.9320  133.7030 H   0  0  0  0  0  0  0  0  0  0  0  0
  146.0863  161.3723  133.6274 H   0  0  0  0  0  0  0  0  0  0  0  0
  149.5150  157.7420  133.8320 H   0  0  0  0  0  0  0  0  0  0  0  0
  147.9320  156.9210  134.0410 H   0  0  0  0  0  0  0  0  0  0  0  0
  146.6000  156.7360  131.6590 H   0  0  0  0  0  0  0  0  0  0  0  0
  142.9317  156.9099  133.7759 H   0  0  0  0  0  0  0  0  0  0  0  0
  1  2  1  0
  2  3  1  0
  3  4  1  0
  4  5  1  0
  5  6  2  0
  6  7  1  0
  7  8  2  0
  8  9  1  0
  9 10  2  0
 10 11  1  0
 11 12  1  0
 11 13  2  0
 10 14  1  0
 14 15  1  0
 15 16  1  0
 15 17  2  0
 14 18  1  0
 18 19  2  0
 19  5  1  0
 18  8  1  0
  1 20  1  0
  1 21  1  0
  1 22  1  0
  2 23  1  0
  2 24  1  0
  3 25  1  0
  3 26  1  0
  4 27  1  0
  4 28  1  0
  6 29  1  0
  7 30  1  0
  9 31  1  0
 12 32  1  0
 12 33  1  0
 16 34  1  0
 19 35  1  0
M  CHG  1  16  -1
M  END
>  <UniqueID>  (44) 
44

>  <SMILES>  (44) 
CCCCc1ccc2cc(C(N)=O)n(C([NH-])=O)c2c1

>  <Energy>  (44) 
67.27163600165237

>  <Genealogy>  (44) 
CCCCc1ccc2cc(C(N)=O)n(C([NH-])=O)c2c1 (protonated)
CCCCc1ccc2cc(C(N)=O)n(C([NH-])=O)c2c1 (3D coordinates assigned)
CCCCc1ccc2cc(C(N)=O)n(C([NH-])=O)c2c1 (optimized conformer: 67.27163600165237 kcal/mol)

>  <smiles>  (44) 
CCCCc1ccc2cc(C(N)=O)n(C(N)=O)c2c1

>  <score_type>  (44) 
oracle

>  <origin>  (44) 
adg

>  <m_score__min__energy>  (44) 
-6.9199999999999999

>  <m_primary>  (44) 
energy

$$$$
44:0
     RDKit          3D

 51 54  0  0  0  0  0  0  0  0999 V2000
  148.3510  160.4640  131.8810 N   0  0  0  0  0  0  0  0  0  0  0  0
  148.3360  159.5880  133.0040 C   0  0  0  0  0  0  0  0  0  0  0  0
  148.8560  159.9650  134.0870 O   0  0  0  0  0  0  0  0  0  0  0  0
  147.7670  158.2310  132.8740 C   0  0  0  0  0  0  0  0  0  0  0  0
  148.5410  157.0780  132.7750 C   0  0  0  0  0  0  0  0  0  0  0  0
  147.6500  156.0340  132.8430 C   0  0  0  0  0  0  0  0  0  0  0  0
  147.8820  154.6620  132.8360 C   0  0  0  0  0  0  0  0  0  0  0  0
  146.7780  153.8060  132.9610 C   0  0  0  0  0  0  0  0  0  0  0  0
  145.4650  154.3290  133.1060 C   0  0  0  0  0  0  0  0  0  0  0  0
  144.3090  153.4100  133.2960 C   0  0  0  0  0  0  0  0  0  0  0  0
  144.3510  152.0950  132.8100 C   0  0  0  0  0  0  0  0  0  0  0  0
  143.2700  151.2380  132.9930 C   0  0  0  0  0  0  0  0  0  0  0  0
  142.1200  151.7020  133.6530 C   0  0  0  0  0  0  0  0  0  0  0  0
  140.9850  150.9050  133.8540 O   0  0  0  0  0  0  0  0  0  0  0  0
  140.5020  149.9060  132.9530 C   0  0  0  0  0  0  0  0  0  0  0  0
  139.8770  150.5720  131.7020 C   0  0  0  0  0  0  0  0  0  0  0  0
  139.8510  149.7130  130.4980 N   0  0  0  0  0  0  0  0  0  0  0  0
  140.7440  148.5460  130.5690 C   0  0  0  0  0  0  0  0  0  0  0  0
  139.8940  147.3010  130.3870 C   0  0  0  0  0  0  0  0  0  0  0  0
  138.6410  147.7900  129.6970 C   0  0  0  0  0  0  0  0  0  0  0  0
  138.5080  149.2460  130.1220 C   0  0  0  0  0  0  0  0  0  0  0  0
  142.1070  152.9710  134.1350 N   0  0  0  0  0  0  0  0  0  0  0  0
  143.1520  153.8270  133.9710 C   0  0  0  0  0  0  0  0  0  0  0  0
  145.2730  155.7350  133.1000 C   0  0  0  0  0  0  0  0  0  0  0  0
  146.3950  156.5620  132.9690 C   0  0  0  0  0  0  0  0  0  0  0  0
  146.4460  157.9120  132.9760 N   0  0  0  0  0  0  0  0  0  0  0  0
  145.3240  158.8110  132.9850 C   0  0  0  0  0  0  0  0  0  0  0  0
  145.4880  160.1670  132.5760 N   0  0  0  0  0  0  0  0  0  0  0  0
  144.1820  158.3950  133.3190 O   0  0  0  0  0  0  0  0  0  0  0  0
  147.7060  161.2770  131.8190 H   0  0  0  0  0  0  0  0  0  0  0  0
  149.6338  157.0159  132.6656 H   0  0  0  0  0  0  0  0  0  0  0  0
  148.9012  154.2606  132.7354 H   0  0  0  0  0  0  0  0  0  0  0  0
  146.9306  152.7167  132.9466 H   0  0  0  0  0  0  0  0  0  0  0  0
  145.2461  151.7380  132.2796 H   0  0  0  0  0  0  0  0  0  0  0  0
  143.3158  150.2031  132.6229 H   0  0  0  0  0  0  0  0  0  0  0  0
  141.3379  149.2619  132.6425 H   0  0  0  0  0  0  0  0  0  0  0  0
  139.7338  149.3049  133.4615 H   0  0  0  0  0  0  0  0  0  0  0  0
  138.8421  150.8551  131.9444 H   0  0  0  0  0  0  0  0  0  0  0  0
  140.5130  151.4353  131.4566 H   0  0  0  0  0  0  0  0  0  0  0  0
  141.4994  148.6035  129.7715 H   0  0  0  0  0  0  0  0  0  0  0  0
  141.2646  148.5182  131.5376 H   0  0  0  0  0  0  0  0  0  0  0  0
  140.4173  146.5617  129.7628 H   0  0  0  0  0  0  0  0  0  0  0  0
  139.6755  146.8026  131.3429 H   0  0  0  0  0  0  0  0  0  0  0  0
  138.7446  147.7128  128.6046 H   0  0  0  0  0  0  0  0  0  0  0  0
  137.7570  147.1948  129.9694 H   0  0  0  0  0  0  0  0  0  0  0  0
  138.1193  149.8483  129.2876 H   0  0  0  0  0  0  0  0  0  0  0  0
  137.8095  149.3445  130.9660 H   0  0  0  0  0  0  0  0  0  0  0  0
  143.0893  154.8504  134.3694 H   0  0  0  0  0  0  0  0  0  0  0  0
  144.2653  156.1654  133.1961 H   0  0  0  0  0  0  0  0  0  0  0  0
  144.6860  160.8340  132.6390 H   0  0  0  0  0  0  0  0  0  0  0  0
  146.3960  160.4870  132.1760 H   0  0  0  0  0  0  0  0  0  0  0  0
  1  2  1  0
  2  3  2  0
  2  4  1  0
  4  5  2  0
  5  6  1  0
  6  7  2  0
  7  8  1  0
  8  9  2  0
  9 10  1  0
 10 11  2  0
 11 12  1  0
 12 13  2  0
 13 14  1  0
 14 15  1  0
 15 16  1  0
 16 17  1  0
 17 18  1  0
 18 19  1  0
 19 20  1  0
 20 21  1  0
 13 22  1  0
 22 23  2  0
  9 24  1  0
 24 25  2  0
 25 26  1  0
 26 27  1  0
 27 28  1  0
 27 29  2  0
 26  4  1  0
 25  6  1  0
 23 10  1  0
 21 17  1  0
  1 30  1  0
  5 31  1  0
  7 32  1  0
  8 33  1  0
 11 34  1  0
 12 35  1  0
 15 36  1  0
 15 37  1  0
 16 38  1  0
 16 39  1  0
 18 40  1  0
 18 41  1  0
 19 42  1  0
 19 43  1  0
 20 44  1  0
 20 45  1  0
 21 46  1  0
 21 47  1  0
 23 48  1  0
 24 49  1  0
 28 50  1  0
 28 51  1  0
M  CHG  1   1  -1
M  END
>  <UniqueID>  (45) 
45

>  <SMILES>  (45) 
[NH-]C(=O)c1cc2ccc(-c3ccc(OCCN4CCCC4)nc3)cc2n1C(N)=O

>  <Energy>  (45) 
109.29955224818391

>  <Genealogy>  (45) 
[NH-]C(=O)c1cc2ccc(-c3ccc(OCCN4CCCC4)nc3)cc2n1C(N)=O (protonated)
[NH-]C(=O)c1cc2ccc(-c3ccc(OCCN4CCCC4)nc3)cc2n1C(N)=O (3D coordinates assigned)
[NH-]C(=O)c1cc2ccc(-c3ccc(OCCN4CCCC4)nc3)cc2n1C(N)=O (nonaromatic ring conformer: 109.29955224818391 kcal/mol)

>  <smiles>  (45) 
NC(=O)c1cc2ccc(-c3ccc(OCCN4CCCC4)nc3)cc2n1C(N)=O

>  <score_type>  (45) 
oracle

>  <origin>  (45) 
adg

>  <m_score__min__energy>  (45) 
-9.1099999999999994

>  <m_primary>  (45) 
energy

$$$$
45:0
     RDKit          3D

 35 37  0  0  0  0  0  0  0  0999 V2000
  141.3840  155.7640  133.3980 N   0  0  0  0  0  0  0  0  0  0  0  0
  142.3670  156.4090  134.2050 C   0  0  0  0  0  0  0  0  0  0  0  0
  143.2560  155.7190  134.7700 O   0  0  0  0  0  0  0  0  0  0  0  0
  142.3510  157.8390  134.3600 N   0  0  0  0  0  0  0  0  0  0  0  0
  141.2990  158.6220  134.7280 C   0  0  0  0  0  0  0  0  0  0  0  0
  139.9910  158.1410  135.2180 C   0  0  0  0  0  0  0  0  0  0  0  0
  139.4470  158.6040  136.4540 N   0  0  0  0  0  0  0  0  0  0  0  0
  139.3170  157.3500  134.5060 O   0  0  0  0  0  0  0  0  0  0  0  0
  141.6320  159.9710  134.6400 C   0  0  0  0  0  0  0  0  0  0  0  0
  142.9410  159.9930  134.2150 C   0  0  0  0  0  0  0  0  0  0  0  0
  143.7730  161.0740  133.9460 C   0  0  0  0  0  0  0  0  0  0  0  0
  145.0720  160.8060  133.4820 C   0  0  0  0  0  0  0  0  0  0  0  0
  145.5140  159.4710  133.2870 C   0  0  0  0  0  0  0  0  0  0  0  0
  146.8850  159.2010  132.7850 C   0  0  0  0  0  0  0  0  0  0  0  0
  147.5750  158.0450  133.1860 C   0  0  0  0  0  0  0  0  0  0  0  0
  148.8640  157.7920  132.7150 C   0  0  0  0  0  0  0  0  0  0  0  0
  149.4810  158.6880  131.8400 C   0  0  0  0  0  0  0  0  0  0  0  0
  148.8120  159.8520  131.4220 C   0  0  0  0  0  0  0  0  0  0  0  0
  149.4430  160.7760  130.5170 N   0  0  0  0  0  0  0  0  0  0  0  0
  149.4220  162.0030  130.7400 O   0  0  0  0  0  0  0  0  0  0  0  0
  150.0810  160.3200  129.3840 O   0  0  0  0  0  0  0  0  0  0  0  0
  147.5120  160.0990  131.9010 C   0  0  0  0  0  0  0  0  0  0  0  0
  144.6340  158.4000  133.5730 C   0  0  0  0  0  0  0  0  0  0  0  0
  143.3530  158.6950  134.0530 C   0  0  0  0  0  0  0  0  0  0  0  0
  140.5270  156.2750  133.0870 H   0  0  0  0  0  0  0  0  0  0  0  0
  139.9020  159.3800  136.9850 H   0  0  0  0  0  0  0  0  0  0  0  0
  138.5400  158.2250  136.8020 H   0  0  0  0  0  0  0  0  0  0  0  0
  140.9873  160.8341  134.8624 H   0  0  0  0  0  0  0  0  0  0  0  0
  143.4250  162.1073  134.0919 H   0  0  0  0  0  0  0  0  0  0  0  0
  145.7550  161.6411  133.2671 H   0  0  0  0  0  0  0  0  0  0  0  0
  147.0961  157.3345  133.8758 H   0  0  0  0  0  0  0  0  0  0  0  0
  149.3957  156.8835  133.0342 H   0  0  0  0  0  0  0  0  0  0  0  0
  150.4980  158.4819  131.4749 H   0  0  0  0  0  0  0  0  0  0  0  0
  146.9787  161.0060  131.5802 H   0  0  0  0  0  0  0  0  0  0  0  0
  144.9504  157.3575  133.4211 H   0  0  0  0  0  0  0  0  0  0  0  0
  1  2  1  0
  2  3  2  0
  2  4  1  0
  4  5  1  0
  5  6  1  0
  6  7  1  0
  6  8  2  0
  5  9  2  0
  9 10  1  0
 10 11  2  0
 11 12  1  0
 12 13  2  0
 13 14  1  0
 14 15  2  0
 15 16  1  0
 16 17  2  0
 17 18  1  0
 18 19  1  0
 19 20  2  0
 19 21  1  0
 18 22  2  0
 13 23  1  0
 23 24  2  0
 24  4  1  0
 24 10  1  0
 22 14  1  0
  1 25  1  0
  7 26  1  0
  7 27  1  0
  9 28  1  0
 11 29  1  0
 12 30  1  0
 15 31  1  0
 16 32  1  0
 17 33  1  0
 22 34  1  0
 23 35  1  0
M  CHG  3   1  -1  19   1  21  -1
M  END
>  <UniqueID>  (46) 
46

>  <SMILES>  (46) 
[NH-]C(=O)n1c(C(N)=O)cc2ccc(-c3cccc([N+](=O)[O-])c3)cc21

>  <Energy>  (46) 
83.9371284336017

>  <Genealogy>  (46) 
[NH-]C(=O)n1c(C(N)=O)cc2ccc(-c3cccc([N+](=O)[O-])c3)cc21 (protonated)
[NH-]C(=O)n1c(C(N)=O)cc2ccc(-c3cccc([N+](=O)[O-])c3)cc21 (3D coordinates assigned)
[NH-]C(=O)n1c(C(N)=O)cc2ccc(-c3cccc([N+](=O)[O-])c3)cc21 (optimized conformer: 83.9371284336017 kcal/mol)

>  <smiles>  (46) 
NC(=O)c1cc2ccc(-c3cccc([N+](=O)[O-])c3)cc2n1C(N)=O

>  <score_type>  (46) 
oracle

>  <origin>  (46) 
adg

>  <m_score__min__energy>  (46) 
-8.7300000000000004

>  <m_primary>  (46) 
energy

$$$$
46:0
     RDKit          3D

 31 32  0  0  0  0  0  0  0  0999 V2000
  139.1150  159.5760  131.9730 C   0  0  0  0  0  0  0  0  0  0  0  0
  139.5410  158.9950  133.3280 C   0  0  0  0  0  0  0  0  0  0  0  0
  138.6580  157.8040  133.7210 C   0  0  0  0  0  0  0  0  0  0  0  0
  141.0080  158.6060  133.3170 C   0  0  0  0  0  0  0  0  0  0  0  0
  141.3780  157.2630  133.0490 C   0  0  0  0  0  0  0  0  0  0  0  0
  142.7290  156.8820  133.0150 C   0  0  0  0  0  0  0  0  0  0  0  0
  143.6880  157.8570  133.2650 C   0  0  0  0  0  0  0  0  0  0  0  0
  145.0610  157.7650  133.2610 C   0  0  0  0  0  0  0  0  0  0  0  0
  145.5150  159.0470  133.5570 C   0  0  0  0  0  0  0  0  0  0  0  0
  146.9440  159.3850  133.7120 C   0  0  0  0  0  0  0  0  0  0  0  0
  147.4540  160.6520  133.2930 N   0  0  0  0  0  0  0  0  0  0  0  0
  147.7160  158.5650  134.2760 O   0  0  0  0  0  0  0  0  0  0  0  0
  144.4690  159.9040  133.7260 N   0  0  0  0  0  0  0  0  0  0  0  0
  144.5260  161.3250  133.9300 C   0  0  0  0  0  0  0  0  0  0  0  0
  145.4580  161.8330  134.6090 O   0  0  0  0  0  0  0  0  0  0  0  0
  143.5580  162.1560  133.3800 O   0  0  0  0  0  0  0  0  0  0  0  0
  143.3540  159.1570  133.5460 C   0  0  0  0  0  0  0  0  0  0  0  0
  142.0160  159.5690  133.5620 C   0  0  0  0  0  0  0  0  0  0  0  0
  138.4718  160.4533  132.1361 H   0  0  0  0  0  0  0  0  0  0  0  0
  140.0083  159.8767  131.4058 H   0  0  0  0  0  0  0  0  0  0  0  0
  138.5596  158.8145  131.4058 H   0  0  0  0  0  0  0  0  0  0  0  0
  139.4052  159.7789  134.0877 H   0  0  0  0  0  0  0  0  0  0  0  0
  138.6052  157.7327  134.8174 H   0  0  0  0  0  0  0  0  0  0  0  0
  137.6463  157.9475  133.3137 H   0  0  0  0  0  0  0  0  0  0  0  0
  139.0893  156.8777  133.3137 H   0  0  0  0  0  0  0  0  0  0  0  0
  140.5968  156.5107  132.8655 H   0  0  0  0  0  0  0  0  0  0  0  0
  143.0198  155.8437  132.7972 H   0  0  0  0  0  0  0  0  0  0  0  0
  145.6696  156.8698  133.0656 H   0  0  0  0  0  0  0  0  0  0  0  0
  146.8130  161.4150  132.9810 H   0  0  0  0  0  0  0  0  0  0  0  0
  148.4740  160.8590  133.3760 H   0  0  0  0  0  0  0  0  0  0  0  0
  141.7538  160.6186  133.7607 H   0  0  0  0  0  0  0  0  0  0  0  0
  1  2  1  0
  2  3  1  0
  2  4  1  0
  4  5  2  0
  5  6  1  0
  6  7  2  0
  7  8  1  0
  8  9  2  0
  9 10  1  0
 10 11  1  0
 10 12  2  0
  9 13  1  0
 13 14  1  0
 14 15  2  0
 14 16  1  0
 13 17  1  0
 17 18  2  0
 18  4  1  0
 17  7  1  0
  1 19  1  0
  1 20  1  0
  1 21  1  0
  2 22  1  0
  3 23  1  0
  3 24  1  0
  3 25  1  0
  5 26  1  0
  6 27  1  0
  8 28  1  0
 11 29  1  0
 11 30  1  0
 18 31  1  0
M  CHG  1  16  -1
M  END
>  <UniqueID>  (47) 
47

>  <SMILES>  (47) 
CC(C)c1ccc2cc(C(N)=O)n(C(=O)[O-])c2c1

>  <Energy>  (47) 
67.71769863177433

>  <Genealogy>  (47) 
CC(C)c1ccc2cc(C(N)=O)n(C(=O)[O-])c2c1 (protonated)
CC(C)c1ccc2cc(C(N)=O)n(C(=O)[O-])c2c1 (3D coordinates assigned)
CC(C)c1ccc2cc(C(N)=O)n(C(=O)[O-])c2c1 (optimized conformer: 67.71769863177433 kcal/mol)

>  <smiles>  (47) 
CC(C)c1ccc2cc(C(N)=O)n(C(=O)O)c2c1

>  <score_type>  (47) 
oracle

>  <origin>  (47) 
adg

>  <m_score__min__energy>  (47) 
-6.4299999999999997

>  <m_primary>  (47) 
energy

$$$$
47:0
     RDKit          3D

 51 53  0  0  0  0  0  0  0  0999 V2000
  139.9180  158.6140  134.6330 C   0  0  0  0  0  0  0  0  0  0  0  0
  140.1010  158.6000  133.1050 C   0  0  0  0  0  0  0  0  0  0  0  0
  140.2690  157.1480  132.6310 C   0  0  0  0  0  0  0  0  0  0  0  0
  138.8690  159.2060  132.4070 C   0  0  0  0  0  0  0  0  0  0  0  0
  141.2950  159.3050  132.7460 O   0  0  0  0  0  0  0  0  0  0  0  0
  142.1820  159.9480  133.6250 C   0  0  0  0  0  0  0  0  0  0  0  0
  141.7640  160.8150  134.4350 O   0  0  0  0  0  0  0  0  0  0  0  0
  143.5770  159.5940  133.6060 N   0  0  0  0  0  0  0  0  0  0  0  0
  144.6460  160.4400  133.6550 C   0  0  0  0  0  0  0  0  0  0  0  0
  144.6000  161.8820  133.9810 C   0  0  0  0  0  0  0  0  0  0  0  0
  143.6350  162.7400  133.3820 N   0  0  0  0  0  0  0  0  0  0  0  0
  145.3800  162.3510  134.8530 O   0  0  0  0  0  0  0  0  0  0  0  0
  145.8370  159.7370  133.5010 C   0  0  0  0  0  0  0  0  0  0  0  0
  145.4690  158.4170  133.3760 C   0  0  0  0  0  0  0  0  0  0  0  0
  146.2560  157.2810  133.2380 C   0  0  0  0  0  0  0  0  0  0  0  0
  145.6130  156.0320  133.1830 C   0  0  0  0  0  0  0  0  0  0  0  0
  144.2020  155.9400  133.2510 C   0  0  0  0  0  0  0  0  0  0  0  0
  143.5420  154.6080  133.2840 C   0  0  0  0  0  0  0  0  0  0  0  0
  144.2380  153.4490  132.8880 C   0  0  0  0  0  0  0  0  0  0  0  0
  143.6430  152.1900  133.0040 C   0  0  0  0  0  0  0  0  0  0  0  0
  142.3380  152.0690  133.5230 C   0  0  0  0  0  0  0  0  0  0  0  0
  141.7110  150.7970  133.7150 N   0  0  0  0  0  0  0  0  0  0  0  0
  141.1790  149.7350  132.4480 S   0  0  0  0  0  0  0  0  0  0  0  0
  139.9270  150.5600  131.4980 C   0  0  0  0  0  0  0  0  0  0  0  0
  142.3330  149.3750  131.5540 O   0  0  0  0  0  0  0  0  0  0  0  0
  140.5780  148.4920  133.0350 O   0  0  0  0  0  0  0  0  0  0  0  0
  141.6340  153.2220  133.8810 C   0  0  0  0  0  0  0  0  0  0  0  0
  142.2280  154.4790  133.7720 C   0  0  0  0  0  0  0  0  0  0  0  0
  143.4320  157.1260  133.3590 C   0  0  0  0  0  0  0  0  0  0  0  0
  144.1000  158.3540  133.4440 C   0  0  0  0  0  0  0  0  0  0  0  0
  140.9011  158.5388  135.1207 H   0  0  0  0  0  0  0  0  0  0  0  0
  139.4295  159.5521  134.9352 H   0  0  0  0  0  0  0  0  0  0  0  0
  139.2926  157.7611  134.9352 H   0  0  0  0  0  0  0  0  0  0  0  0
  140.3459  156.4837  133.5044 H   0  0  0  0  0  0  0  0  0  0  0  0
  139.3985  156.8572  132.0246 H   0  0  0  0  0  0  0  0  0  0  0  0
  141.1829  157.0636  132.0246 H   0  0  0  0  0  0  0  0  0  0  0  0
  138.1540  159.5577  133.1653 H   0  0  0  0  0  0  0  0  0  0  0  0
  139.1830  160.0525  131.7786 H   0  0  0  0  0  0  0  0  0  0  0  0
  138.3902  158.4406  131.7786 H   0  0  0  0  0  0  0  0  0  0  0  0
  142.6180  162.5020  133.3910 H   0  0  0  0  0  0  0  0  0  0  0  0
  146.8567  160.1492  133.4830 H   0  0  0  0  0  0  0  0  0  0  0  0
  147.3515  157.3564  133.1736 H   0  0  0  0  0  0  0  0  0  0  0  0
  146.2134  155.1154  133.0860 H   0  0  0  0  0  0  0  0  0  0  0  0
  145.2576  153.5358  132.4844 H   0  0  0  0  0  0  0  0  0  0  0  0
  144.1941  151.2914  132.6896 H   0  0  0  0  0  0  0  0  0  0  0  0
  139.2049  151.0358  132.1778 H   0  0  0  0  0  0  0  0  0  0  0  0
  140.3943  151.3277  130.8637 H   0  0  0  0  0  0  0  0  0  0  0  0
  139.4059  149.8278  130.8637 H   0  0  0  0  0  0  0  0  0  0  0  0
  140.6020  153.1372  134.2521 H   0  0  0  0  0  0  0  0  0  0  0  0
  141.6656  155.3763  134.0696 H   0  0  0  0  0  0  0  0  0  0  0  0
  142.3330  157.0823  133.3756 H   0  0  0  0  0  0  0  0  0  0  0  0
  1  2  1  0
  2  3  1  0
  2  4  1  0
  2  5  1  0
  5  6  1  0
  6  7  2  0
  6  8  1  0
  8  9  1  0
  9 10  1  0
 10 11  1  0
 10 12  2  0
  9 13  2  0
 13 14  1  0
 14 15  2  0
 15 16  1  0
 16 17  2  0
 17 18  1  0
 18 19  2  0
 19 20  1  0
 20 21  2  0
 21 22  1  0
 22 23  1  0
 23 24  1  0
 23 25  2  0
 23 26  2  0
 21 27  1  0
 27 28  2  0
 17 29  1  0
 29 30  2  0
 30  8  1  0
 30 14  1  0
 28 18  1  0
  1 31  1  0
  1 32  1  0
  1 33  1  0
  3 34  1  0
  3 35  1  0
  3 36  1  0
  4 37  1  0
  4 38  1  0
  4 39  1  0
 11 40  1  0
 13 41  1  0
 15 42  1  0
 16 43  1  0
 19 44  1  0
 20 45  1  0
 24 46  1  0
 24 47  1  0
 24 48  1  0
 27 49  1  0
 28 50  1  0
 29 51  1  0
M  CHG  2  11  -1  22  -1
M  END
>  <UniqueID>  (48) 
48

>  <SMILES>  (48) 
CC(C)(C)OC(=O)n1c(C([NH-])=O)cc2ccc(-c3ccc([N-]S(C)(=O)=O)cc3)cc21

>  <Energy>  (48) 
92.83158528772398

>  <Genealogy>  (48) 
CC(C)(C)OC(=O)n1c(C([NH-])=O)cc2ccc(-c3ccc([N-]S(C)(=O)=O)cc3)cc21 (protonated)
CC(C)(C)OC(=O)n1c(C([NH-])=O)cc2ccc(-c3ccc([N-]S(C)(=O)=O)cc3)cc21 (3D coordinates assigned)
CC(C)(C)OC(=O)n1c(C([NH-])=O)cc2ccc(-c3ccc([N-]S(C)(=O)=O)cc3)cc21 (optimized conformer: 92.83158528772398 kcal/mol)

>  <smiles>  (48) 
CC(C)(C)OC(=O)n1c(C(N)=O)cc2ccc(-c3ccc(NS(C)(=O)=O)cc3)cc21

>  <score_type>  (48) 
oracle

>  <origin>  (48) 
adg

>  <m_score__min__energy>  (48) 
-9.2899999999999991

>  <m_primary>  (48) 
energy

$$$$
48:0
     RDKit          3D

 40 42  0  0  0  0  0  0  0  0999 V2000
  138.8260  158.2550  132.1250 C   0  0  0  0  0  0  0  0  0  0  0  0
  140.0410  157.5710  132.4020 O   0  0  0  0  0  0  0  0  0  0  0  0
  140.0760  156.2930  132.9700 C   0  0  0  0  0  0  0  0  0  0  0  0
  139.0180  155.6130  133.0630 O   0  0  0  0  0  0  0  0  0  0  0  0
  141.3210  155.7580  133.4480 N   0  0  0  0  0  0  0  0  0  0  0  0
  142.3830  156.4560  133.9410 C   0  0  0  0  0  0  0  0  0  0  0  0
  142.4010  157.9020  134.2440 C   0  0  0  0  0  0  0  0  0  0  0  0
  142.2370  158.8760  133.2130 N   0  0  0  0  0  0  0  0  0  0  0  0
  142.5070  158.2810  135.4400 O   0  0  0  0  0  0  0  0  0  0  0  0
  143.4620  155.6120  134.1770 C   0  0  0  0  0  0  0  0  0  0  0  0
  143.0250  154.3560  133.8240 C   0  0  0  0  0  0  0  0  0  0  0  0
  143.6950  153.1390  133.8460 C   0  0  0  0  0  0  0  0  0  0  0  0
  143.0120  152.0010  133.3890 C   0  0  0  0  0  0  0  0  0  0  0  0
  141.6790  152.0970  132.9100 C   0  0  0  0  0  0  0  0  0  0  0  0
  140.9720  150.8890  132.4140 C   0  0  0  0  0  0  0  0  0  0  0  0
  141.6330  149.6500  132.3500 C   0  0  0  0  0  0  0  0  0  0  0  0
  140.9680  148.5110  131.8830 C   0  0  0  0  0  0  0  0  0  0  0  0
  139.6250  148.5930  131.4700 C   0  0  0  0  0  0  0  0  0  0  0  0
  138.9150  147.4810  130.9930 O   0  0  0  0  0  0  0  0  0  0  0  0
  139.0930  146.9080  129.7020 C   0  0  0  0  0  0  0  0  0  0  0  0
  138.9670  149.8260  131.5320 C   0  0  0  0  0  0  0  0  0  0  0  0
  139.6300  150.9640  132.0000 C   0  0  0  0  0  0  0  0  0  0  0  0
  141.0320  153.3550  132.9030 C   0  0  0  0  0  0  0  0  0  0  0  0
  141.7310  154.4700  133.3850 C   0  0  0  0  0  0  0  0  0  0  0  0
  138.3365  158.5306  133.0708 H   0  0  0  0  0  0  0  0  0  0  0  0
  139.0413  159.1645  131.5449 H   0  0  0  0  0  0  0  0  0  0  0  0
  138.1601  157.5992  131.5449 H   0  0  0  0  0  0  0  0  0  0  0  0
  142.2920  159.8940  133.4410 H   0  0  0  0  0  0  0  0  0  0  0  0
  141.9810  158.5950  132.2410 H   0  0  0  0  0  0  0  0  0  0  0  0
  144.4538  155.8892  134.5636 H   0  0  0  0  0  0  0  0  0  0  0  0
  144.7304  153.0693  134.2108 H   0  0  0  0  0  0  0  0  0  0  0  0
  143.5156  151.0232  133.4022 H   0  0  0  0  0  0  0  0  0  0  0  0
  142.6827  149.5752  132.6701 H   0  0  0  0  0  0  0  0  0  0  0  0
  141.4969  147.5476  131.8384 H   0  0  0  0  0  0  0  0  0  0  0  0
  139.4179  145.8623  129.8066 H   0  0  0  0  0  0  0  0  0  0  0  0
  138.1416  146.9430  129.1509 H   0  0  0  0  0  0  0  0  0  0  0  0
  139.8571  147.4759  129.1509 H   0  0  0  0  0  0  0  0  0  0  0  0
  137.9180  149.9006  131.2094 H   0  0  0  0  0  0  0  0  0  0  0  0
  139.0980  151.9258  132.0449 H   0  0  0  0  0  0  0  0  0  0  0  0
  140.0030  153.4558  132.5275 H   0  0  0  0  0  0  0  0  0  0  0  0
  1  2  1  0
  2  3  1  0
  3  4  2  0
  3  5  1  0
  5  6  1  0
  6  7  1  0
  7  8  1  0
  7  9  2  0
  6 10  2  0
 10 11  1  0
 11 12  2  0
 12 13  1  0
 13 14  2  0
 14 15  1  0
 15 16  2  0
 16 17  1  0
 17 18  2  0
 18 19  1  0
 19 20  1  0
 18 21  1  0
 21 22  2  0
 14 23  1  0
 23 24  2  0
 24  5  1  0
 24 11  1  0
 22 15  1  0
  1 25  1  0
  1 26  1  0
  1 27  1  0
  8 28  1  0
  8 29  1  0
 10 30  1  0
 12 31  1  0
 13 32  1  0
 16 33  1  0
 17 34  1  0
 20 35  1  0
 20 36  1  0
 20 37  1  0
 21 38  1  0
 22 39  1  0
 23 40  1  0
M  END
>  <UniqueID>  (49) 
49

>  <SMILES>  (49) 
COC(=O)n1c(C(N)=O)cc2ccc(-c3ccc(OC)cc3)cc21

>  <Energy>  (49) 
84.40163941068053

>  <Genealogy>  (49) 
COC(=O)n1c(C(N)=O)cc2ccc(-c3ccc(OC)cc3)cc21 (3D coordinates assigned)
COC(=O)n1c(C(N)=O)cc2ccc(-c3ccc(OC)cc3)cc21 (optimized conformer: 84.40163941068053 kcal/mol)

>  <smiles>  (49) 
COC(=O)n1c(C(N)=O)cc2ccc(-c3ccc(OC)cc3)cc21

>  <score_type>  (49) 
oracle

>  <origin>  (49) 
adg

>  <m_score__min__energy>  (49) 
-7.1100000000000003

>  <m_primary>  (49) 
energy

$$$$
49:0
     RDKit          3D

 45 48  0  0  0  0  0  0  0  0999 V2000
  147.4130  160.0950  131.9250 N   0  0  0  0  0  0  0  0  0  0  0  0
  147.6970  159.1180  132.9230 C   0  0  0  0  0  0  0  0  0  0  0  0
  148.8370  159.0990  133.4600 O   0  0  0  0  0  0  0  0  0  0  0  0
  146.6600  158.1660  133.3740 C   0  0  0  0  0  0  0  0  0  0  0  0
  146.9180  156.8240  133.6440 C   0  0  0  0  0  0  0  0  0  0  0  0
  145.7300  156.3100  134.1100 C   0  0  0  0  0  0  0  0  0  0  0  0
  145.4110  155.0170  134.5100 C   0  0  0  0  0  0  0  0  0  0  0  0
  144.0900  154.7610  134.9160 C   0  0  0  0  0  0  0  0  0  0  0  0
  143.1200  155.7930  134.9130 C   0  0  0  0  0  0  0  0  0  0  0  0
  141.7030  155.5050  135.3470 C   0  0  0  0  0  0  0  0  0  0  0  0
  141.3910  156.0460  136.7530 C   0  0  0  0  0  0  0  0  0  0  0  0
  140.2890  157.1190  136.7760 C   0  0  0  0  0  0  0  0  0  0  0  0
  140.5610  158.1950  135.8190 N   0  0  0  0  0  0  0  0  0  0  0  0
  141.2890  159.3110  136.0640 C   0  0  0  0  0  0  0  0  0  0  0  0
  141.3570  160.1120  134.9300 C   0  0  0  0  0  0  0  0  0  0  0  0
  140.6280  159.4430  133.9690 C   0  0  0  0  0  0  0  0  0  0  0  0
  140.3450  159.7890  132.6500 C   0  0  0  0  0  0  0  0  0  0  0  0
  139.5440  158.9100  131.8990 C   0  0  0  0  0  0  0  0  0  0  0  0
  139.0450  157.7240  132.4800 C   0  0  0  0  0  0  0  0  0  0  0  0
  139.3450  157.4030  133.8160 C   0  0  0  0  0  0  0  0  0  0  0  0
  140.1530  158.2880  134.5360 C   0  0  0  0  0  0  0  0  0  0  0  0
  143.4780  157.0890  134.4810 C   0  0  0  0  0  0  0  0  0  0  0  0
  144.8050  157.3220  134.1050 C   0  0  0  0  0  0  0  0  0  0  0  0
  145.3600  158.4690  133.6540 N   0  0  0  0  0  0  0  0  0  0  0  0
  144.6800  159.7170  133.4400 C   0  0  0  0  0  0  0  0  0  0  0  0
  145.3310  160.9490  133.7370 N   0  0  0  0  0  0  0  0  0  0  0  0
  143.5000  159.7270  133.0000 O   0  0  0  0  0  0  0  0  0  0  0  0
  146.5160  160.6300  131.9350 H   0  0  0  0  0  0  0  0  0  0  0  0
  147.8699  156.2887  133.5125 H   0  0  0  0  0  0  0  0  0  0  0  0
  146.1687  154.2196  134.5087 H   0  0  0  0  0  0  0  0  0  0  0  0
  143.8065  153.7486  135.2395 H   0  0  0  0  0  0  0  0  0  0  0  0
  141.0132  155.9725  134.6290 H   0  0  0  0  0  0  0  0  0  0  0  0
  141.5803  154.4123  135.3767 H   0  0  0  0  0  0  0  0  0  0  0  0
  141.0690  155.2048  137.3845 H   0  0  0  0  0  0  0  0  0  0  0  0
  142.3102  156.5234  137.1234 H   0  0  0  0  0  0  0  0  0  0  0  0
  139.3280  156.6488  136.5202 H   0  0  0  0  0  0  0  0  0  0  0  0
  140.2572  157.5567  137.7847 H   0  0  0  0  0  0  0  0  0  0  0  0
  141.7615  159.5504  137.0281 H   0  0  0  0  0  0  0  0  0  0  0  0
  141.8802  161.0736  134.8221 H   0  0  0  0  0  0  0  0  0  0  0  0
  140.7349  160.7188  132.2102 H   0  0  0  0  0  0  0  0  0  0  0  0
  139.3048  159.1482  130.8521 H   0  0  0  0  0  0  0  0  0  0  0  0
  138.4170  157.0460  131.8834 H   0  0  0  0  0  0  0  0  0  0  0  0
  138.9561  156.4845  134.2798 H   0  0  0  0  0  0  0  0  0  0  0  0
  142.7313  157.8958  134.4412 H   0  0  0  0  0  0  0  0  0  0  0  0
  146.0800  161.3250  133.1130 H   0  0  0  0  0  0  0  0  0  0  0  0
  1  2  1  0
  2  3  2  0
  2  4  1  0
  4  5  2  0
  5  6  1  0
  6  7  2  0
  7  8  1  0
  8  9  2  0
  9 10  1  0
 10 11  1  0
 11 12  1  0
 12 13  1  0
 13 14  1  0
 14 15  2  0
 15 16  1  0
 16 17  2  0
 17 18  1  0
 18 19  2  0
 19 20  1  0
 20 21  2  0
  9 22  1  0
 22 23  2  0
 23 24  1  0
 24 25  1  0
 25 26  1  0
 25 27  2  0
 24  4  1  0
 23  6  1  0
 21 13  1  0
 21 16  1  0
  1 28  1  0
  5 29  1  0
  7 30  1  0
  8 31  1  0
 10 32  1  0
 10 33  1  0
 11 34  1  0
 11 35  1  0
 12 36  1  0
 12 37  1  0
 14 38  1  0
 15 39  1  0
 17 40  1  0
 18 41  1  0
 19 42  1  0
 20 43  1  0
 22 44  1  0
 26 45  1  0
M  CHG  2   1  -1  26  -1
M  END
>  <UniqueID>  (50) 
50

>  <SMILES>  (50) 
[NH-]C(=O)c1cc2ccc(CCCn3ccc4ccccc43)cc2n1C([NH-])=O

>  <Energy>  (50) 
116.74604422728811

>  <Genealogy>  (50) 
[NH-]C(=O)c1cc2ccc(CCCn3ccc4ccccc43)cc2n1C([NH-])=O (protonated)
[NH-]C(=O)c1cc2ccc(CCCn3ccc4ccccc43)cc2n1C([NH-])=O (3D coordinates assigned)
[NH-]C(=O)c1cc2ccc(CCCn3ccc4ccccc43)cc2n1C([NH-])=O (optimized conformer: 116.74604422728811 kcal/mol)

>  <smiles>  (50) 
NC(=O)c1cc2ccc(CCCn3ccc4ccccc43)cc2n1C(N)=O

>  <score_type>  (50) 
oracle

>  <origin>  (50) 
adg

>  <m_score__min__energy>  (50) 
-9.0899999999999999

>  <m_primary>  (50) 
energy

$$$$
50:0
     RDKit          3D

 53 55  0  0  0  0  0  0  0  0999 V2000
  139.3810  149.8670  131.4330 C   0  0  0  0  0  0  0  0  0  0  0  0
  139.8050  151.0100  132.2480 N   0  0  0  0  0  0  0  0  0  0  0  0
  141.1470  150.8160  132.8220 C   0  0  0  0  0  0  0  0  0  0  0  0
  141.8860  152.1220  132.9850 C   0  0  0  0  0  0  0  0  0  0  0  0
  141.1830  153.3120  133.2270 C   0  0  0  0  0  0  0  0  0  0  0  0
  141.8670  154.5240  133.3530 C   0  0  0  0  0  0  0  0  0  0  0  0
  143.2690  154.5690  133.2340 C   0  0  0  0  0  0  0  0  0  0  0  0
  143.9950  155.8580  133.3600 C   0  0  0  0  0  0  0  0  0  0  0  0
  145.4150  155.8870  133.3740 C   0  0  0  0  0  0  0  0  0  0  0  0
  146.1090  157.1030  133.4840 C   0  0  0  0  0  0  0  0  0  0  0  0
  145.3630  158.2730  133.5890 C   0  0  0  0  0  0  0  0  0  0  0  0
  145.7780  159.5820  133.6870 C   0  0  0  0  0  0  0  0  0  0  0  0
  144.6080  160.3360  133.7570 C   0  0  0  0  0  0  0  0  0  0  0  0
  144.5940  161.8000  133.9610 C   0  0  0  0  0  0  0  0  0  0  0  0
  143.5710  162.5900  133.3600 N   0  0  0  0  0  0  0  0  0  0  0  0
  145.4960  162.3680  134.6320 O   0  0  0  0  0  0  0  0  0  0  0  0
  143.5140  159.5250  133.6960 N   0  0  0  0  0  0  0  0  0  0  0  0
  142.1290  159.9020  133.6890 C   0  0  0  0  0  0  0  0  0  0  0  0
  141.7280  160.8260  134.4470 O   0  0  0  0  0  0  0  0  0  0  0  0
  141.2460  159.2540  132.8130 O   0  0  0  0  0  0  0  0  0  0  0  0
  140.0220  158.5960  133.1670 C   0  0  0  0  0  0  0  0  0  0  0  0
  139.8290  158.5970  134.6960 C   0  0  0  0  0  0  0  0  0  0  0  0
  140.0020  157.1570  132.6160 C   0  0  0  0  0  0  0  0  0  0  0  0
  138.8780  159.3920  132.5230 C   0  0  0  0  0  0  0  0  0  0  0  0
  143.9940  158.2660  133.5960 C   0  0  0  0  0  0  0  0  0  0  0  0
  143.2760  157.0720  133.4660 C   0  0  0  0  0  0  0  0  0  0  0  0
  143.9680  153.3740  132.9870 C   0  0  0  0  0  0  0  0  0  0  0  0
  143.2830  152.1640  132.8600 C   0  0  0  0  0  0  0  0  0  0  0  0
  139.0745  149.0408  132.0914 H   0  0  0  0  0  0  0  0  0  0  0  0
  138.5331  150.1638  130.7981 H   0  0  0  0  0  0  0  0  0  0  0  0
  140.2173  149.5390  130.7981 H   0  0  0  0  0  0  0  0  0  0  0  0
  139.1050  151.1750  133.0090 H   0  0  0  0  0  0  0  0  0  0  0  0
  139.8270  151.8590  131.6360 H   0  0  0  0  0  0  0  0  0  0  0  0
  141.0460  150.3395  133.8083 H   0  0  0  0  0  0  0  0  0  0  0  0
  141.7237  150.1829  132.1317 H   0  0  0  0  0  0  0  0  0  0  0  0
  140.0870  153.2907  133.3181 H   0  0  0  0  0  0  0  0  0  0  0  0
  141.3057  155.4500  133.5466 H   0  0  0  0  0  0  0  0  0  0  0  0
  145.9782  154.9452  133.2977 H   0  0  0  0  0  0  0  0  0  0  0  0
  147.2087  157.1297  133.4870 H   0  0  0  0  0  0  0  0  0  0  0  0
  146.8131  159.9538  133.7060 H   0  0  0  0  0  0  0  0  0  0  0  0
  142.6770  162.1560  133.0380 H   0  0  0  0  0  0  0  0  0  0  0  0
  140.8120  158.5919  135.1897 H   0  0  0  0  0  0  0  0  0  0  0  0
  139.2733  159.4981  134.9948 H   0  0  0  0  0  0  0  0  0  0  0  0
  139.2639  157.7018  134.9948 H   0  0  0  0  0  0  0  0  0  0  0  0
  139.9921  156.4438  133.4534 H   0  0  0  0  0  0  0  0  0  0  0  0
  139.1018  157.0125  132.0006 H   0  0  0  0  0  0  0  0  0  0  0  0
  140.8979  156.9875  132.0006 H   0  0  0  0  0  0  0  0  0  0  0  0
  138.2477  159.8306  133.3106 H   0  0  0  0  0  0  0  0  0  0  0  0
  139.2963  160.1951  131.8985 H   0  0  0  0  0  0  0  0  0  0  0  0
  138.2704  158.7206  131.8985 H   0  0  0  0  0  0  0  0  0  0  0  0
  142.1762  157.0771  133.4466 H   0  0  0  0  0  0  0  0  0  0  0  0
  145.0638  153.3927  132.8931 H   0  0  0  0  0  0  0  0  0  0  0  0
  143.8420  151.2378  132.6607 H   0  0  0  0  0  0  0  0  0  0  0  0
  1  2  1  0
  2  3  1  0
  3  4  1  0
  4  5  2  0
  5  6  1  0
  6  7  2  0
  7  8  1  0
  8  9  2  0
  9 10  1  0
 10 11  2  0
 11 12  1  0
 12 13  2  0
 13 14  1  0
 14 15  1  0
 14 16  2  0
 13 17  1  0
 17 18  1  0
 18 19  2  0
 18 20  1  0
 20 21  1  0
 21 22  1  0
 21 23  1  0
 21 24  1  0
 17 25  1  0
 25 26  2  0
  7 27  1  0
 27 28  2  0
 28  4  1  0
 26  8  1  0
 25 11  1  0
  1 29  1  0
  1 30  1  0
  1 31  1  0
  2 32  1  0
  2 33  1  0
  3 34  1  0
  3 35  1  0
  5 36  1  0
  6 37  1  0
  9 38  1  0
 10 39  1  0
 12 40  1  0
 15 41  1  0
 22 42  1  0
 22 43  1  0
 22 44  1  0
 23 45  1  0
 23 46  1  0
 23 47  1  0
 24 48  1  0
 24 49  1  0
 24 50  1  0
 26 51  1  0
 27 52  1  0
 28 53  1  0
M  CHG  2   2   1  15  -1
M  END
>  <UniqueID>  (51) 
51

>  <SMILES>  (51) 
C[NH2+]Cc1ccc(-c2ccc3cc(C([NH-])=O)n(C(=O)OC(C)(C)C)c3c2)cc1

>  <Energy>  (51) 
92.14327358539482

>  <Genealogy>  (51) 
C[NH2+]Cc1ccc(-c2ccc3cc(C([NH-])=O)n(C(=O)OC(C)(C)C)c3c2)cc1 (protonated)
C[NH2+]Cc1ccc(-c2ccc3cc(C([NH-])=O)n(C(=O)OC(C)(C)C)c3c2)cc1 (3D coordinates assigned)
C[NH2+]Cc1ccc(-c2ccc3cc(C([NH-])=O)n(C(=O)OC(C)(C)C)c3c2)cc1 (optimized conformer: 92.14327358539482 kcal/mol)

>  <smiles>  (51) 
CNCc1ccc(-c2ccc3cc(C(N)=O)n(C(=O)OC(C)(C)C)c3c2)cc1

>  <score_type>  (51) 
oracle

>  <origin>  (51) 
adg

>  <m_score__min__energy>  (51) 
-8.4800000000000004

>  <m_primary>  (51) 
energy

$$$$
51:0
     RDKit          3D

 47 49  0  0  0  0  0  0  0  0999 V2000
  142.0080  156.9640  135.6490 C   0  0  0  0  0  0  0  0  0  0  0  0
  141.3540  158.2480  135.0860 C   0  0  0  0  0  0  0  0  0  0  0  0
  140.1360  158.6090  135.9540 C   0  0  0  0  0  0  0  0  0  0  0  0
  140.8850  158.0320  133.6340 C   0  0  0  0  0  0  0  0  0  0  0  0
  142.2640  159.3600  135.1500 O   0  0  0  0  0  0  0  0  0  0  0  0
  142.8300  160.0400  134.0620 C   0  0  0  0  0  0  0  0  0  0  0  0
  142.1280  160.8190  133.3570 O   0  0  0  0  0  0  0  0  0  0  0  0
  144.2400  159.9160  133.7960 N   0  0  0  0  0  0  0  0  0  0  0  0
  145.2040  160.8860  133.7940 C   0  0  0  0  0  0  0  0  0  0  0  0
  145.0400  162.3100  134.1680 C   0  0  0  0  0  0  0  0  0  0  0  0
  143.9740  163.1110  133.6420 N   0  0  0  0  0  0  0  0  0  0  0  0
  145.8670  162.8390  134.9630 O   0  0  0  0  0  0  0  0  0  0  0  0
  146.4460  160.3340  133.4820 C   0  0  0  0  0  0  0  0  0  0  0  0
  146.2180  158.9890  133.3030 C   0  0  0  0  0  0  0  0  0  0  0  0
  147.1050  157.9680  132.9800 C   0  0  0  0  0  0  0  0  0  0  0  0
  146.5960  156.6620  132.8760 C   0  0  0  0  0  0  0  0  0  0  0  0
  145.2170  156.3970  133.0880 C   0  0  0  0  0  0  0  0  0  0  0  0
  144.6940  155.0070  133.0130 C   0  0  0  0  0  0  0  0  0  0  0  0
  145.5250  153.9520  132.6050 C   0  0  0  0  0  0  0  0  0  0  0  0
  145.0260  152.6520  132.5140 C   0  0  0  0  0  0  0  0  0  0  0  0
  143.6900  152.3800  132.8310 C   0  0  0  0  0  0  0  0  0  0  0  0
  143.1300  150.7140  132.6790 Cl  0  0  0  0  0  0  0  0  0  0  0  0
  142.8350  153.4230  133.2520 C   0  0  0  0  0  0  0  0  0  0  0  0
  141.3850  153.1490  133.5930 C   0  0  0  0  0  0  0  0  0  0  0  0
  140.7290  152.4800  132.5720 F   0  0  0  0  0  0  0  0  0  0  0  0
  141.3170  152.3720  134.7330 F   0  0  0  0  0  0  0  0  0  0  0  0
  140.7240  154.3430  133.8150 F   0  0  0  0  0  0  0  0  0  0  0  0
  143.3510  154.7330  133.3290 C   0  0  0  0  0  0  0  0  0  0  0  0
  144.3460  157.4710  133.3910 C   0  0  0  0  0  0  0  0  0  0  0  0
  144.8820  158.7590  133.5060 C   0  0  0  0  0  0  0  0  0  0  0  0
  141.9917  156.9960  136.7484 H   0  0  0  0  0  0  0  0  0  0  0  0
  141.4483  156.0839  135.2995 H   0  0  0  0  0  0  0  0  0  0  0  0
  143.0490  156.8992  135.2995 H   0  0  0  0  0  0  0  0  0  0  0  0
  140.4067  158.5288  137.0171 H   0  0  0  0  0  0  0  0  0  0  0  0
  139.8205  159.6393  135.7327 H   0  0  0  0  0  0  0  0  0  0  0  0
  139.3100  157.9170  135.7327 H   0  0  0  0  0  0  0  0  0  0  0  0
  139.8859  157.5718  133.6360 H   0  0  0  0  0  0  0  0  0  0  0  0
  140.8415  159.0008  133.1148 H   0  0  0  0  0  0  0  0  0  0  0  0
  141.5929  157.3692  133.1148 H   0  0  0  0  0  0  0  0  0  0  0  0
  143.1950  162.6760  133.0940 H   0  0  0  0  0  0  0  0  0  0  0  0
  147.4067  160.8630  133.3968 H   0  0  0  0  0  0  0  0  0  0  0  0
  148.1719  158.1760  132.8111 H   0  0  0  0  0  0  0  0  0  0  0  0
  147.2753  155.8335  132.6269 H   0  0  0  0  0  0  0  0  0  0  0  0
  146.5775  154.1514  132.3551 H   0  0  0  0  0  0  0  0  0  0  0  0
  145.6876  151.8348  132.1907 H   0  0  0  0  0  0  0  0  0  0  0  0
  142.6912  155.5557  133.6419 H   0  0  0  0  0  0  0  0  0  0  0  0
  143.2692  157.2968  133.5333 H   0  0  0  0  0  0  0  0  0  0  0  0
  1  2  1  0
  2  3  1  0
  2  4  1  0
  2  5  1  0
  5  6  1  0
  6  7  2  0
  6  8  1  0
  8  9  1  0
  9 10  1  0
 10 11  1  0
 10 12  2  0
  9 13  2  0
 13 14  1  0
 14 15  2  0
 15 16  1  0
 16 17  2  0
 17 18  1  0
 18 19  2  0
 19 20  1  0
 20 21  2  0
 21 22  1  0
 21 23  1  0
 23 24  1  0
 24 25  1  0
 24 26  1  0
 24 27  1  0
 23 28  2  0
 17 29  1  0
 29 30  2  0
 30  8  1  0
 30 14  1  0
 28 18  1  0
  1 31  1  0
  1 32  1  0
  1 33  1  0
  3 34  1  0
  3 35  1  0
  3 36  1  0
  4 37  1  0
  4 38  1  0
  4 39  1  0
 11 40  1  0
 13 41  1  0
 15 42  1  0
 16 43  1  0
 19 44  1  0
 20 45  1  0
 28 46  1  0
 29 47  1  0
M  CHG  1  11  -1
M  END
>  <UniqueID>  (52) 
52

>  <SMILES>  (52) 
CC(C)(C)OC(=O)n1c(C([NH-])=O)cc2ccc(-c3ccc(Cl)c(C(F)(F)F)c3)cc21

>  <Energy>  (52) 
93.16446892117386

>  <Genealogy>  (52) 
CC(C)(C)OC(=O)n1c(C([NH-])=O)cc2ccc(-c3ccc(Cl)c(C(F)(F)F)c3)cc21 (protonated)
CC(C)(C)OC(=O)n1c(C([NH-])=O)cc2ccc(-c3ccc(Cl)c(C(F)(F)F)c3)cc21 (3D coordinates assigned)
CC(C)(C)OC(=O)n1c(C([NH-])=O)cc2ccc(-c3ccc(Cl)c(C(F)(F)F)c3)cc21 (optimized conformer: 93.16446892117386 kcal/mol)

>  <smiles>  (52) 
CC(C)(C)OC(=O)n1c(C(N)=O)cc2ccc(-c3ccc(Cl)c(C(F)(F)F)c3)cc21

>  <score_type>  (52) 
oracle

>  <origin>  (52) 
adg

>  <m_score__min__energy>  (52) 
-8.5500000000000007

>  <m_primary>  (52) 
energy

$$$$
52:0
     RDKit          3D

 39 40  0  0  0  0  0  0  0  0999 V2000
  141.4060  157.5160  133.0090 C   0  0  0  0  0  0  0  0  0  0  0  0
  140.3580  156.6080  133.6800 C   0  0  0  0  0  0  0  0  0  0  0  0
  139.4780  157.4660  134.6020 C   0  0  0  0  0  0  0  0  0  0  0  0
  139.4640  155.9330  132.6230 C   0  0  0  0  0  0  0  0  0  0  0  0
  140.9980  155.6240  134.5050 O   0  0  0  0  0  0  0  0  0  0  0  0
  142.0060  155.8590  135.4510 C   0  0  0  0  0  0  0  0  0  0  0  0
  143.2160  155.9280  135.1070 O   0  0  0  0  0  0  0  0  0  0  0  0
  141.6450  156.0500  136.8280 N   0  0  0  0  0  0  0  0  0  0  0  0
  141.3760  157.2220  137.4700 C   0  0  0  0  0  0  0  0  0  0  0  0
  141.5510  158.5790  136.9130 C   0  0  0  0  0  0  0  0  0  0  0  0
  142.4070  158.8100  135.7980 N   0  0  0  0  0  0  0  0  0  0  0  0
  140.9720  159.5570  137.4590 O   0  0  0  0  0  0  0  0  0  0  0  0
  140.9860  156.9770  138.7850 C   0  0  0  0  0  0  0  0  0  0  0  0
  141.0340  155.6100  138.9330 C   0  0  0  0  0  0  0  0  0  0  0  0
  140.7470  154.8180  140.0410 C   0  0  0  0  0  0  0  0  0  0  0  0
  140.8640  153.4240  139.9020 C   0  0  0  0  0  0  0  0  0  0  0  0
  141.2440  152.8520  138.6620 C   0  0  0  0  0  0  0  0  0  0  0  0
  141.3850  151.3600  138.5310 C   0  0  0  0  0  0  0  0  0  0  0  0
  140.3590  150.8180  137.5840 C   0  0  0  0  0  0  0  0  0  0  0  0
  140.6130  150.7040  136.3960 O   0  0  0  0  0  0  0  0  0  0  0  0
  141.5380  153.6880  137.5630 C   0  0  0  0  0  0  0  0  0  0  0  0
  141.4330  155.0740  137.7370 C   0  0  0  0  0  0  0  0  0  0  0  0
  141.9969  158.0279  133.7828 H   0  0  0  0  0  0  0  0  0  0  0  0
  142.0729  156.9054  132.3825 H   0  0  0  0  0  0  0  0  0  0  0  0
  140.8966  158.2630  132.3825 H   0  0  0  0  0  0  0  0  0  0  0  0
  139.7136  157.2363  135.6516 H   0  0  0  0  0  0  0  0  0  0  0  0
  139.6722  158.5311  134.4072 H   0  0  0  0  0  0  0  0  0  0  0  0
  138.4182  157.2449  134.4072 H   0  0  0  0  0  0  0  0  0  0  0  0
  138.6832  155.3434  133.1257 H   0  0  0  0  0  0  0  0  0  0  0  0
  138.9940  156.7035  131.9942 H   0  0  0  0  0  0  0  0  0  0  0  0
  140.0764  155.2700  131.9942 H   0  0  0  0  0  0  0  0  0  0  0  0
  142.7080  158.0250  135.1790 H   0  0  0  0  0  0  0  0  0  0  0  0
  140.7001  157.7197  139.5444 H   0  0  0  0  0  0  0  0  0  0  0  0
  140.4382  155.2688  140.9957 H   0  0  0  0  0  0  0  0  0  0  0  0
  140.6588  152.7712  140.7633 H   0  0  0  0  0  0  0  0  0  0  0  0
  142.3897  151.1232  138.1508 H   0  0  0  0  0  0  0  0  0  0  0  0
  141.2357  150.9001  139.5191 H   0  0  0  0  0  0  0  0  0  0  0  0
  139.3697  150.5207  137.9621 H   0  0  0  0  0  0  0  0  0  0  0  0
  141.8416  153.2621  136.5953 H   0  0  0  0  0  0  0  0  0  0  0  0
  1  2  1  0
  2  3  1  0
  2  4  1  0
  2  5  1  0
  5  6  1  0
  6  7  2  0
  6  8  1  0
  8  9  1  0
  9 10  1  0
 10 11  1  0
 10 12  2  0
  9 13  2  0
 13 14  1  0
 14 15  2  0
 15 16  1  0
 16 17  2  0
 17 18  1  0
 18 19  1  0
 19 20  2  0
 17 21  1  0
 21 22  2  0
 22  8  1  0
 22 14  1  0
  1 23  1  0
  1 24  1  0
  1 25  1  0
  3 26  1  0
  3 27  1  0
  3 28  1  0
  4 29  1  0
  4 30  1  0
  4 31  1  0
 11 32  1  0
 13 33  1  0
 15 34  1  0
 16 35  1  0
 18 36  1  0
 18 37  1  0
 19 38  1  0
 21 39  1  0
M  CHG  1  11  -1
M  END
>  <UniqueID>  (53) 
53

>  <SMILES>  (53) 
CC(C)(C)OC(=O)n1c(C([NH-])=O)cc2ccc(CC=O)cc21

>  <Energy>  (53) 
71.00997438584172

>  <Genealogy>  (53) 
CC(C)(C)OC(=O)n1c(C([NH-])=O)cc2ccc(CC=O)cc21 (protonated)
CC(C)(C)OC(=O)n1c(C([NH-])=O)cc2ccc(CC=O)cc21 (3D coordinates assigned)
CC(C)(C)OC(=O)n1c(C([NH-])=O)cc2ccc(CC=O)cc21 (optimized conformer: 71.00997438584172 kcal/mol)

>  <smiles>  (53) 
CC(C)(C)OC(=O)n1c(C(N)=O)cc2ccc(CC=O)cc21

>  <score_type>  (53) 
oracle

>  <origin>  (53) 
adg

>  <m_score__min__energy>  (53) 
-6.9199999999999999

>  <m_primary>  (53) 
energy

$$$$
53:0
     RDKit          3D

 43 45  0  0  0  0  0  0  0  0999 V2000
  141.5600  158.5950  133.0260 C   0  0  0  0  0  0  0  0  0  0  0  0
  142.9990  158.1630  133.2820 C   0  0  0  0  0  0  0  0  0  0  0  0
  143.7080  159.1810  134.1230 C   0  0  0  0  0  0  0  0  0  0  0  0
  143.1350  159.6650  135.1350 O   0  0  0  0  0  0  0  0  0  0  0  0
  145.0740  159.5210  133.8510 N   0  0  0  0  0  0  0  0  0  0  0  0
  145.6250  160.7610  133.7400 C   0  0  0  0  0  0  0  0  0  0  0  0
  144.9350  162.0410  134.0080 C   0  0  0  0  0  0  0  0  0  0  0  0
  143.5510  162.2040  133.7120 N   0  0  0  0  0  0  0  0  0  0  0  0
  145.5700  162.9950  134.5310 O   0  0  0  0  0  0  0  0  0  0  0  0
  146.9690  160.6630  133.3820 C   0  0  0  0  0  0  0  0  0  0  0  0
  147.2220  159.3130  133.2790 C   0  0  0  0  0  0  0  0  0  0  0  0
  148.3900  158.6400  132.9380 C   0  0  0  0  0  0  0  0  0  0  0  0
  148.3510  157.2360  132.8860 C   0  0  0  0  0  0  0  0  0  0  0  0
  147.1510  156.5290  133.1690 C   0  0  0  0  0  0  0  0  0  0  0  0
  147.1170  155.0470  133.0960 C   0  0  0  0  0  0  0  0  0  0  0  0
  145.8950  154.3610  133.0500 C   0  0  0  0  0  0  0  0  0  0  0  0
  145.8800  152.9600  132.9990 C   0  0  0  0  0  0  0  0  0  0  0  0
  144.5740  152.2270  132.9170 C   0  0  0  0  0  0  0  0  0  0  0  0
  147.0560  152.2710  132.9560 N   0  0  0  0  0  0  0  0  0  0  0  0
  148.2620  152.9080  132.9820 C   0  0  0  0  0  0  0  0  0  0  0  0
  149.5340  152.1130  132.9850 C   0  0  0  0  0  0  0  0  0  0  0  0
  148.3080  154.3060  133.0700 C   0  0  0  0  0  0  0  0  0  0  0  0
  145.9860  157.2540  133.5150 C   0  0  0  0  0  0  0  0  0  0  0  0
  146.0600  158.6480  133.5670 C   0  0  0  0  0  0  0  0  0  0  0  0
  141.0470  158.7490  133.9868 H   0  0  0  0  0  0  0  0  0  0  0  0
  141.5555  159.5341  132.4532 H   0  0  0  0  0  0  0  0  0  0  0  0
  141.0390  157.8137  132.4532 H   0  0  0  0  0  0  0  0  0  0  0  0
  142.9994  157.1959  133.8062 H   0  0  0  0  0  0  0  0  0  0  0  0
  143.5208  158.0704  132.3181 H   0  0  0  0  0  0  0  0  0  0  0  0
  142.8530  161.4800  133.9940 H   0  0  0  0  0  0  0  0  0  0  0  0
  147.6769  161.4886  133.2169 H   0  0  0  0  0  0  0  0  0  0  0  0
  149.3165  159.1898  132.7157 H   0  0  0  0  0  0  0  0  0  0  0  0
  149.2611  156.6771  132.6228 H   0  0  0  0  0  0  0  0  0  0  0  0
  144.9486  154.9217  133.0539 H   0  0  0  0  0  0  0  0  0  0  0  0
  144.2053  152.0201  133.9325 H   0  0  0  0  0  0  0  0  0  0  0  0
  143.8399  152.8449  132.3792 H   0  0  0  0  0  0  0  0  0  0  0  0
  144.7190  151.2785  132.3792 H   0  0  0  0  0  0  0  0  0  0  0  0
  147.0330  151.2270  132.9040 H   0  0  0  0  0  0  0  0  0  0  0  0
  149.8432  151.9198  134.0228 H   0  0  0  0  0  0  0  0  0  0  0  0
  149.3698  151.1565  132.4672 H   0  0  0  0  0  0  0  0  0  0  0  0
  150.3218  152.6797  132.4672 H   0  0  0  0  0  0  0  0  0  0  0  0
  149.2781  154.8223  133.1187 H   0  0  0  0  0  0  0  0  0  0  0  0
  145.0438  156.7319  133.7379 H   0  0  0  0  0  0  0  0  0  0  0  0
  1  2  1  0
  2  3  1  0
  3  4  2  0
  3  5  1  0
  5  6  1  0
  6  7  1  0
  7  8  1  0
  7  9  2  0
  6 10  2  0
 10 11  1  0
 11 12  2  0
 12 13  1  0
 13 14  2  0
 14 15  1  0
 15 16  2  0
 16 17  1  0
 17 18  1  0
 17 19  2  0
 19 20  1  0
 20 21  1  0
 20 22  2  0
 14 23  1  0
 23 24  2  0
 24  5  1  0
 24 11  1  0
 22 15  1  0
  1 25  1  0
  1 26  1  0
  1 27  1  0
  2 28  1  0
  2 29  1  0
  8 30  1  0
 10 31  1  0
 12 32  1  0
 13 33  1  0
 16 34  1  0
 18 35  1  0
 18 36  1  0
 18 37  1  0
 19 38  1  0
 21 39  1  0
 21 40  1  0
 21 41  1  0
 22 42  1  0
 23 43  1  0
M  CHG  2   8  -1  19   1
M  END
>  <UniqueID>  (54) 
54

>  <SMILES>  (54) 
CCC(=O)n1c(C([NH-])=O)cc2ccc(-c3cc(C)[nH+]c(C)c3)cc21

>  <Energy>  (54) 
84.65317344128248

>  <Genealogy>  (54) 
CCC(=O)n1c(C([NH-])=O)cc2ccc(-c3cc(C)[nH+]c(C)c3)cc21 (protonated)
CCC(=O)n1c(C([NH-])=O)cc2ccc(-c3cc(C)[nH+]c(C)c3)cc21 (3D coordinates assigned)
CCC(=O)n1c(C([NH-])=O)cc2ccc(-c3cc(C)[nH+]c(C)c3)cc21 (optimized conformer: 84.65317344128248 kcal/mol)

>  <smiles>  (54) 
CCC(=O)n1c(C(N)=O)cc2ccc(-c3cc(C)nc(C)c3)cc21

>  <score_type>  (54) 
oracle

>  <origin>  (54) 
adg

>  <m_score__min__energy>  (54) 
-7.8700000000000001

>  <m_primary>  (54) 
energy

$$$$
54:0
     RDKit          3D

 47 48  0  0  0  0  0  0  0  0999 V2000
  146.0710  153.7560  134.1570 C   0  0  0  0  0  0  0  0  0  0  0  0
  147.0330  154.9290  134.4260 C   0  0  0  0  0  0  0  0  0  0  0  0
  148.1100  155.0150  133.3270 C   0  0  0  0  0  0  0  0  0  0  0  0
  147.7210  154.7050  135.7800 C   0  0  0  0  0  0  0  0  0  0  0  0
  146.3070  156.1630  134.5210 O   0  0  0  0  0  0  0  0  0  0  0  0
  145.4720  156.7150  133.5380 C   0  0  0  0  0  0  0  0  0  0  0  0
  144.9780  155.9930  132.6300 O   0  0  0  0  0  0  0  0  0  0  0  0
  145.1580  158.1150  133.5850 N   0  0  0  0  0  0  0  0  0  0  0  0
  146.0030  159.1690  133.3970 C   0  0  0  0  0  0  0  0  0  0  0  0
  147.4740  159.0750  133.2690 C   0  0  0  0  0  0  0  0  0  0  0  0
  148.2270  158.2070  134.1180 N   0  0  0  0  0  0  0  0  0  0  0  0
  148.0760  159.7400  132.3850 O   0  0  0  0  0  0  0  0  0  0  0  0
  145.2980  160.3710  133.4270 C   0  0  0  0  0  0  0  0  0  0  0  0
  143.9860  160.0190  133.6420 C   0  0  0  0  0  0  0  0  0  0  0  0
  142.8500  160.8170  133.7400 C   0  0  0  0  0  0  0  0  0  0  0  0
  141.6100  160.1810  133.9200 C   0  0  0  0  0  0  0  0  0  0  0  0
  141.5270  158.7670  133.9910 C   0  0  0  0  0  0  0  0  0  0  0  0
  140.1920  158.0950  134.1770 C   0  0  0  0  0  0  0  0  0  0  0  0
  139.5380  157.6610  132.8540 C   0  0  0  0  0  0  0  0  0  0  0  0
  138.3620  158.5530  132.4140 C   0  0  0  0  0  0  0  0  0  0  0  0
  138.8390  159.8430  131.2600 S   0  0  0  0  0  0  0  0  0  0  0  0
  137.6920  160.1050  130.3270 O   0  0  0  0  0  0  0  0  0  0  0  0
  139.1560  161.1080  132.0040 O   0  0  0  0  0  0  0  0  0  0  0  0
  140.1770  159.3790  130.3550 O   0  0  0  0  0  0  0  0  0  0  0  0
  142.7060  157.9920  133.9080 C   0  0  0  0  0  0  0  0  0  0  0  0
  143.9260  158.6520  133.7360 C   0  0  0  0  0  0  0  0  0  0  0  0
  145.7272  153.3368  135.1141 H   0  0  0  0  0  0  0  0  0  0  0  0
  145.2050  154.1164  133.5824 H   0  0  0  0  0  0  0  0  0  0  0  0
  146.5939  152.9773  133.5824 H   0  0  0  0  0  0  0  0  0  0  0  0
  149.1034  155.0943  133.7926 H   0  0  0  0  0  0  0  0  0  0  0  0
  148.0691  154.1107  132.7020 H   0  0  0  0  0  0  0  0  0  0  0  0
  147.9261  155.9013  132.7020 H   0  0  0  0  0  0  0  0  0  0  0  0
  147.0156  154.9347  136.5922 H   0  0  0  0  0  0  0  0  0  0  0  0
  148.0421  153.6559  135.8590 H   0  0  0  0  0  0  0  0  0  0  0  0
  148.5982  155.3639  135.8590 H   0  0  0  0  0  0  0  0  0  0  0  0
  147.7730  157.6820  134.8970 H   0  0  0  0  0  0  0  0  0  0  0  0
  149.2600  158.1180  133.9930 H   0  0  0  0  0  0  0  0  0  0  0  0
  145.7047  161.3857  133.3047 H   0  0  0  0  0  0  0  0  0  0  0  0
  142.9207  161.9130  133.6784 H   0  0  0  0  0  0  0  0  0  0  0  0
  140.6951  160.7855  134.0066 H   0  0  0  0  0  0  0  0  0  0  0  0
  140.3349  157.2030  134.8046 H   0  0  0  0  0  0  0  0  0  0  0  0
  139.5208  158.8295  134.6459 H   0  0  0  0  0  0  0  0  0  0  0  0
  140.3043  157.6850  132.0652 H   0  0  0  0  0  0  0  0  0  0  0  0
  139.1291  156.6529  133.0170 H   0  0  0  0  0  0  0  0  0  0  0  0
  137.6034  157.9179  131.9331 H   0  0  0  0  0  0  0  0  0  0  0  0
  137.9763  159.0504  133.3161 H   0  0  0  0  0  0  0  0  0  0  0  0
  142.6644  156.8950  133.9772 H   0  0  0  0  0  0  0  0  0  0  0  0
  1  2  1  0
  2  3  1  0
  2  4  1  0
  2  5  1  0
  5  6  1  0
  6  7  2  0
  6  8  1  0
  8  9  1  0
  9 10  1  0
 10 11  1  0
 10 12  2  0
  9 13  2  0
 13 14  1  0
 14 15  2  0
 15 16  1  0
 16 17  2  0
 17 18  1  0
 18 19  1  0
 19 20  1  0
 20 21  1  0
 21 22  2  0
 21 23  2  0
 21 24  1  0
 17 25  1  0
 25 26  2  0
 26  8  1  0
 26 14  1  0
  1 27  1  0
  1 28  1  0
  1 29  1  0
  3 30  1  0
  3 31  1  0
  3 32  1  0
  4 33  1  0
  4 34  1  0
  4 35  1  0
 11 36  1  0
 11 37  1  0
 13 38  1  0
 15 39  1  0
 16 40  1  0
 18 41  1  0
 18 42  1  0
 19 43  1  0
 19 44  1  0
 20 45  1  0
 20 46  1  0
 25 47  1  0
M  CHG  1  24  -1
M  END
>  <UniqueID>  (55) 
55

>  <SMILES>  (55) 
CC(C)(C)OC(=O)n1c(C(N)=O)cc2ccc(CCCS(=O)(=O)[O-])cc21

>  <Energy>  (55) 
74.28054827083132

>  <Genealogy>  (55) 
CC(C)(C)OC(=O)n1c(C(N)=O)cc2ccc(CCCS(=O)(=O)[O-])cc21 (protonated)
CC(C)(C)OC(=O)n1c(C(N)=O)cc2ccc(CCCS(=O)(=O)[O-])cc21 (3D coordinates assigned)
CC(C)(C)OC(=O)n1c(C(N)=O)cc2ccc(CCCS(=O)(=O)[O-])cc21 (optimized conformer: 74.28054827083132 kcal/mol)

>  <smiles>  (55) 
CC(C)(C)OC(=O)n1c(C(N)=O)cc2ccc(CCCS(=O)(=O)O)cc21

>  <score_type>  (55) 
oracle

>  <origin>  (55) 
adg

>  <m_score__min__energy>  (55) 
-8.4299999999999997

>  <m_primary>  (55) 
energy

$$$$
55:0
     RDKit          3D

 50 52  0  0  0  0  0  0  0  0999 V2000
  147.7210  153.8080  133.8710 C   0  0  0  0  0  0  0  0  0  0  0  0
  146.8790  154.8830  134.5800 C   0  0  0  0  0  0  0  0  0  0  0  0
  147.7740  155.8080  135.4270 C   0  0  0  0  0  0  0  0  0  0  0  0
  145.8640  154.1900  135.5040 C   0  0  0  0  0  0  0  0  0  0  0  0
  146.1270  155.6450  133.6250 O   0  0  0  0  0  0  0  0  0  0  0  0
  146.6480  156.4650  132.6140 C   0  0  0  0  0  0  0  0  0  0  0  0
  147.1050  155.9710  131.5480 O   0  0  0  0  0  0  0  0  0  0  0  0
  146.6290  157.8890  132.7890 N   0  0  0  0  0  0  0  0  0  0  0  0
  147.5970  158.7930  132.4680 C   0  0  0  0  0  0  0  0  0  0  0  0
  148.9510  158.4770  131.9650 C   0  0  0  0  0  0  0  0  0  0  0  0
  149.5540  157.2120  132.2230 N   0  0  0  0  0  0  0  0  0  0  0  0
  149.6030  159.3540  131.3380 O   0  0  0  0  0  0  0  0  0  0  0  0
  147.1740  160.0870  132.7690 C   0  0  0  0  0  0  0  0  0  0  0  0
  145.9120  159.9440  133.3010 C   0  0  0  0  0  0  0  0  0  0  0  0
  145.0290  160.9040  133.7890 C   0  0  0  0  0  0  0  0  0  0  0  0
  143.7860  160.4680  134.2780 C   0  0  0  0  0  0  0  0  0  0  0  0
  143.4430  159.0930  134.2500 C   0  0  0  0  0  0  0  0  0  0  0  0
  142.1190  158.6250  134.7930 C   0  0  0  0  0  0  0  0  0  0  0  0
  141.0290  158.8670  133.7840 C   0  0  0  0  0  0  0  0  0  0  0  0
  140.9000  160.1210  133.1700 C   0  0  0  0  0  0  0  0  0  0  0  0
  139.8570  160.3660  132.2740 C   0  0  0  0  0  0  0  0  0  0  0  0
  138.9060  159.3660  131.9970 C   0  0  0  0  0  0  0  0  0  0  0  0
  137.8040  159.6140  130.9980 C   0  0  0  0  0  0  0  0  0  0  0  0
  136.8360  158.6300  131.0840 F   0  0  0  0  0  0  0  0  0  0  0  0
  137.1990  160.8380  131.2290 F   0  0  0  0  0  0  0  0  0  0  0  0
  138.3370  159.6110  129.7230 F   0  0  0  0  0  0  0  0  0  0  0  0
  139.0480  158.1050  132.5990 C   0  0  0  0  0  0  0  0  0  0  0  0
  140.0950  157.8610  133.4930 C   0  0  0  0  0  0  0  0  0  0  0  0
  144.3640  158.1500  133.7450 C   0  0  0  0  0  0  0  0  0  0  0  0
  145.6050  158.6090  133.2960 C   0  0  0  0  0  0  0  0  0  0  0  0
  148.2163  153.1756  134.6225 H   0  0  0  0  0  0  0  0  0  0  0  0
  147.0672  153.1861  133.2418 H   0  0  0  0  0  0  0  0  0  0  0  0
  148.4814  154.2937  133.2418 H   0  0  0  0  0  0  0  0  0  0  0  0
  147.5906  155.6184  136.4949 H   0  0  0  0  0  0  0  0  0  0  0  0
  148.8307  155.6084  135.1954 H   0  0  0  0  0  0  0  0  0  0  0  0
  147.5397  156.8575  135.1954 H   0  0  0  0  0  0  0  0  0  0  0  0
  146.1367  154.3762  136.5533 H   0  0  0  0  0  0  0  0  0  0  0  0
  144.8582  154.5908  135.3099 H   0  0  0  0  0  0  0  0  0  0  0  0
  145.8710  153.1073  135.3099 H   0  0  0  0  0  0  0  0  0  0  0  0
  149.2130  156.3480  131.7480 H   0  0  0  0  0  0  0  0  0  0  0  0
  147.7303  161.0233  132.6143 H   0  0  0  0  0  0  0  0  0  0  0  0
  145.2965  161.9710  133.7916 H   0  0  0  0  0  0  0  0  0  0  0  0
  143.0732  161.1998  134.6859 H   0  0  0  0  0  0  0  0  0  0  0  0
  142.1769  157.5491  135.0144 H   0  0  0  0  0  0  0  0  0  0  0  0
  141.8892  159.1854  135.7112 H   0  0  0  0  0  0  0  0  0  0  0  0
  141.6250  160.9170  133.3955 H   0  0  0  0  0  0  0  0  0  0  0  0
  139.7783  161.3466  131.7818 H   0  0  0  0  0  0  0  0  0  0  0  0
  138.3309  157.3042  132.3656 H   0  0  0  0  0  0  0  0  0  0  0  0
  140.1871  156.8746  133.9710 H   0  0  0  0  0  0  0  0  0  0  0  0
  144.1110  157.0802  133.7059 H   0  0  0  0  0  0  0  0  0  0  0  0
  1  2  1  0
  2  3  1  0
  2  4  1  0
  2  5  1  0
  5  6  1  0
  6  7  2  0
  6  8  1  0
  8  9  1  0
  9 10  1  0
 10 11  1  0
 10 12  2  0
  9 13  2  0
 13 14  1  0
 14 15  2  0
 15 16  1  0
 16 17  2  0
 17 18  1  0
 18 19  1  0
 19 20  2  0
 20 21  1  0
 21 22  2  0
 22 23  1  0
 23 24  1  0
 23 25  1  0
 23 26  1  0
 22 27  1  0
 27 28  2  0
 17 29  1  0
 29 30  2  0
 30  8  1  0
 30 14  1  0
 28 19  1  0
  1 31  1  0
  1 32  1  0
  1 33  1  0
  3 34  1  0
  3 35  1  0
  3 36  1  0
  4 37  1  0
  4 38  1  0
  4 39  1  0
 11 40  1  0
 13 41  1  0
 15 42  1  0
 16 43  1  0
 18 44  1  0
 18 45  1  0
 20 46  1  0
 21 47  1  0
 27 48  1  0
 28 49  1  0
 29 50  1  0
M  CHG  1  11  -1
M  END
>  <UniqueID>  (56) 
56

>  <SMILES>  (56) 
CC(C)(C)OC(=O)n1c(C([NH-])=O)cc2ccc(Cc3ccc(C(F)(F)F)cc3)cc21

>  <Energy>  (56) 
84.29343131038648

>  <Genealogy>  (56) 
CC(C)(C)OC(=O)n1c(C([NH-])=O)cc2ccc(Cc3ccc(C(F)(F)F)cc3)cc21 (protonated)
CC(C)(C)OC(=O)n1c(C([NH-])=O)cc2ccc(Cc3ccc(C(F)(F)F)cc3)cc21 (3D coordinates assigned)
CC(C)(C)OC(=O)n1c(C([NH-])=O)cc2ccc(Cc3ccc(C(F)(F)F)cc3)cc21 (optimized conformer: 84.29343131038648 kcal/mol)

>  <smiles>  (56) 
CC(C)(C)OC(=O)n1c(C(N)=O)cc2ccc(Cc3ccc(C(F)(F)F)cc3)cc21

>  <score_type>  (56) 
oracle

>  <origin>  (56) 
adg

>  <m_score__min__energy>  (56) 
-8.5099999999999998

>  <m_primary>  (56) 
energy

$$$$
56:0
     RDKit          3D

 57 58  0  0  0  0  0  0  0  0999 V2000
  139.0310  159.0390  130.0310 C   0  0  0  0  0  0  0  0  0  0  0  0
  138.3360  159.6010  131.2800 C   0  0  0  0  0  0  0  0  0  0  0  0
  136.8900  159.9850  130.9150 C   0  0  0  0  0  0  0  0  0  0  0  0
  139.1180  160.8340  131.7720 C   0  0  0  0  0  0  0  0  0  0  0  0
  138.3490  158.5650  132.2740 O   0  0  0  0  0  0  0  0  0  0  0  0
  139.4730  157.8560  132.7170 C   0  0  0  0  0  0  0  0  0  0  0  0
  140.6050  158.0320  132.1910 O   0  0  0  0  0  0  0  0  0  0  0  0
  139.3150  156.9140  133.7800 N   0  0  0  0  0  0  0  0  0  0  0  0
  140.1010  156.9400  135.0120 C   0  0  0  0  0  0  0  0  0  0  0  0
  140.4310  158.3770  135.4310 C   0  0  0  0  0  0  0  0  0  0  0  0
  141.7220  158.8490  134.8160 C   0  0  0  0  0  0  0  0  0  0  0  0
  141.8720  160.2030  134.4220 C   0  0  0  0  0  0  0  0  0  0  0  0
  143.0650  160.6480  133.8300 C   0  0  0  0  0  0  0  0  0  0  0  0
  144.0790  159.7170  133.6270 C   0  0  0  0  0  0  0  0  0  0  0  0
  145.3400  159.8820  133.1000 C   0  0  0  0  0  0  0  0  0  0  0  0
  145.9250  158.6190  133.1410 C   0  0  0  0  0  0  0  0  0  0  0  0
  147.2710  158.3280  132.6070 C   0  0  0  0  0  0  0  0  0  0  0  0
  147.5300  157.1390  131.8580 N   0  0  0  0  0  0  0  0  0  0  0  0
  148.1940  159.1720  132.7640 O   0  0  0  0  0  0  0  0  0  0  0  0
  145.0670  157.7110  133.6840 N   0  0  0  0  0  0  0  0  0  0  0  0
  145.3270  156.3310  133.9860 C   0  0  0  0  0  0  0  0  0  0  0  0
  145.4020  155.9590  135.1880 O   0  0  0  0  0  0  0  0  0  0  0  0
  145.4940  155.4160  132.9370 O   0  0  0  0  0  0  0  0  0  0  0  0
  144.5330  154.4480  132.4900 C   0  0  0  0  0  0  0  0  0  0  0  0
  143.1930  154.8010  133.1550 C   0  0  0  0  0  0  0  0  0  0  0  0
  144.9470  153.0300  132.9310 C   0  0  0  0  0  0  0  0  0  0  0  0
  144.3650  154.5170  130.9600 C   0  0  0  0  0  0  0  0  0  0  0  0
  143.9400  158.3970  133.9750 C   0  0  0  0  0  0  0  0  0  0  0  0
  142.7710  157.9320  134.5890 C   0  0  0  0  0  0  0  0  0  0  0  0
  139.8527  158.3745  130.3364 H   0  0  0  0  0  0  0  0  0  0  0  0
  138.3043  158.4716  129.4311 H   0  0  0  0  0  0  0  0  0  0  0  0
  139.4338  159.8684  129.4311 H   0  0  0  0  0  0  0  0  0  0  0  0
  136.3081  160.1395  131.8356 H   0  0  0  0  0  0  0  0  0  0  0  0
  136.8950  160.9129  130.3243 H   0  0  0  0  0  0  0  0  0  0  0  0
  136.4340  159.1768  130.3243 H   0  0  0  0  0  0  0  0  0  0  0  0
  139.1267  160.8478  132.8719 H   0  0  0  0  0  0  0  0  0  0  0  0
  140.1512  160.7862  131.3977 H   0  0  0  0  0  0  0  0  0  0  0  0
  138.6343  161.7483  131.3977 H   0  0  0  0  0  0  0  0  0  0  0  0
  139.5254  156.4558  135.8147 H   0  0  0  0  0  0  0  0  0  0  0  0
  141.0452  156.4047  134.8332 H   0  0  0  0  0  0  0  0  0  0  0  0
  139.6163  159.0403  135.1050 H   0  0  0  0  0  0  0  0  0  0  0  0
  140.5413  158.4005  136.5252 H   0  0  0  0  0  0  0  0  0  0  0  0
  141.0458  160.9115  134.5817 H   0  0  0  0  0  0  0  0  0  0  0  0
  143.1940  161.7001  133.5358 H   0  0  0  0  0  0  0  0  0  0  0  0
  145.7899  160.8135  132.7260 H   0  0  0  0  0  0  0  0  0  0  0  0
  146.7530  156.5150  131.5500 H   0  0  0  0  0  0  0  0  0  0  0  0
  148.4980  156.9330  131.5230 H   0  0  0  0  0  0  0  0  0  0  0  0
  143.3072  154.7709  134.2486 H   0  0  0  0  0  0  0  0  0  0  0  0
  142.8852  155.8109  132.8461 H   0  0  0  0  0  0  0  0  0  0  0  0
  142.4276  154.0738  132.8461 H   0  0  0  0  0  0  0  0  0  0  0  0
  144.9623  152.9775  134.0296 H   0  0  0  0  0  0  0  0  0  0  0  0
  144.2249  152.2986  132.5390 H   0  0  0  0  0  0  0  0  0  0  0  0
  145.9492  152.8021  132.5390 H   0  0  0  0  0  0  0  0  0  0  0  0
  143.3724  154.9247  130.7181 H   0  0  0  0  0  0  0  0  0  0  0  0
  145.1426  155.1686  130.5348 H   0  0  0  0  0  0  0  0  0  0  0  0
  144.4601  153.5070  130.5348 H   0  0  0  0  0  0  0  0  0  0  0  0
  142.6723  156.8778  134.8873 H   0  0  0  0  0  0  0  0  0  0  0  0
  1  2  1  0
  2  3  1  0
  2  4  1  0
  2  5  1  0
  5  6  1  0
  6  7  2  0
  6  8  1  0
  8  9  1  0
  9 10  1  0
 10 11  1  0
 11 12  2  0
 12 13  1  0
 13 14  2  0
 14 15  1  0
 15 16  2  0
 16 17  1  0
 17 18  1  0
 17 19  2  0
 16 20  1  0
 20 21  1  0
 21 22  2  0
 21 23  1  0
 23 24  1  0
 24 25  1  0
 24 26  1  0
 24 27  1  0
 20 28  1  0
 28 29  2  0
 29 11  1  0
 28 14  1  0
  1 30  1  0
  1 31  1  0
  1 32  1  0
  3 33  1  0
  3 34  1  0
  3 35  1  0
  4 36  1  0
  4 37  1  0
  4 38  1  0
  9 39  1  0
  9 40  1  0
 10 41  1  0
 10 42  1  0
 12 43  1  0
 13 44  1  0
 15 45  1  0
 18 46  1  0
 18 47  1  0
 25 48  1  0
 25 49  1  0
 25 50  1  0
 26 51  1  0
 26 52  1  0
 26 53  1  0
 27 54  1  0
 27 55  1  0
 27 56  1  0
 29 57  1  0
M  CHG  1   8  -1
M  END
>  <UniqueID>  (57) 
57

>  <SMILES>  (57) 
CC(C)(C)OC(=O)[N-]CCc1ccc2cc(C(N)=O)n(C(=O)OC(C)(C)C)c2c1

>  <Energy>  (57) 
80.94377751246388

>  <Genealogy>  (57) 
CC(C)(C)OC(=O)[N-]CCc1ccc2cc(C(N)=O)n(C(=O)OC(C)(C)C)c2c1 (protonated)
CC(C)(C)OC(=O)[N-]CCc1ccc2cc(C(N)=O)n(C(=O)OC(C)(C)C)c2c1 (3D coordinates assigned)
CC(C)(C)OC(=O)[N-]CCc1ccc2cc(C(N)=O)n(C(=O)OC(C)(C)C)c2c1 (optimized conformer: 80.94377751246388 kcal/mol)

>  <smiles>  (57) 
CC(C)(C)OC(=O)NCCc1ccc2cc(C(N)=O)n(C(=O)OC(C)(C)C)c2c1

>  <score_type>  (57) 
oracle

>  <origin>  (57) 
adg

>  <m_score__min__energy>  (57) 
-8.2799999999999994

>  <m_primary>  (57) 
energy

$$$$
57:0
     RDKit          3D

 32 33  0  0  0  0  0  0  0  0999 V2000
  149.2830  161.4840  130.4390 C   0  0  0  0  0  0  0  0  0  0  0  0
  148.4840  160.5200  130.9040 C   0  0  0  0  0  0  0  0  0  0  0  0
  148.9060  159.0790  130.8910 C   0  0  0  0  0  0  0  0  0  0  0  0
  149.4100  158.6890  132.1680 O   0  0  0  0  0  0  0  0  0  0  0  0
  148.6590  158.7670  133.3470 C   0  0  0  0  0  0  0  0  0  0  0  0
  149.2150  159.0700  134.4380 O   0  0  0  0  0  0  0  0  0  0  0  0
  147.2540  158.4750  133.3170 N   0  0  0  0  0  0  0  0  0  0  0  0
  146.6600  157.2540  133.1970 C   0  0  0  0  0  0  0  0  0  0  0  0
  147.3460  155.9810  132.8960 C   0  0  0  0  0  0  0  0  0  0  0  0
  148.7390  155.9520  132.5970 N   0  0  0  0  0  0  0  0  0  0  0  0
  146.6840  154.9100  132.8540 O   0  0  0  0  0  0  0  0  0  0  0  0
  145.2780  157.3700  133.3230 C   0  0  0  0  0  0  0  0  0  0  0  0
  145.0390  158.7110  133.5150 C   0  0  0  0  0  0  0  0  0  0  0  0
  143.8410  159.3850  133.7260 C   0  0  0  0  0  0  0  0  0  0  0  0
  143.8940  160.7730  133.9390 C   0  0  0  0  0  0  0  0  0  0  0  0
  145.1340  161.4620  133.9290 C   0  0  0  0  0  0  0  0  0  0  0  0
  145.1830  162.9400  134.2230 C   0  0  0  0  0  0  0  0  0  0  0  0
  146.3550  163.4950  133.7400 F   0  0  0  0  0  0  0  0  0  0  0  0
  144.1060  163.5610  133.6170 F   0  0  0  0  0  0  0  0  0  0  0  0
  145.1260  163.1680  135.5870 F   0  0  0  0  0  0  0  0  0  0  0  0
  146.3330  160.7350  133.7380 C   0  0  0  0  0  0  0  0  0  0  0  0
  146.2480  159.3570  133.5080 C   0  0  0  0  0  0  0  0  0  0  0  0
  148.9500  162.5322  130.4599 H   0  0  0  0  0  0  0  0  0  0  0  0
  150.2741  161.2297  130.0351 H   0  0  0  0  0  0  0  0  0  0  0  0
  147.4953  160.7875  131.3052 H   0  0  0  0  0  0  0  0  0  0  0  0
  148.0389  158.4512  130.6380 H   0  0  0  0  0  0  0  0  0  0  0  0
  149.7019  158.9505  130.1426 H   0  0  0  0  0  0  0  0  0  0  0  0
  149.1420  156.5670  131.8550 H   0  0  0  0  0  0  0  0  0  0  0  0
  144.5346  156.5604  133.2784 H   0  0  0  0  0  0  0  0  0  0  0  0
  142.8810  158.8479  133.7262 H   0  0  0  0  0  0  0  0  0  0  0  0
  142.9631  161.3318  134.1155 H   0  0  0  0  0  0  0  0  0  0  0  0
  147.3091  161.2411  133.7696 H   0  0  0  0  0  0  0  0  0  0  0  0
  1  2  2  0
  2  3  1  0
  3  4  1  0
  4  5  1  0
  5  6  2  0
  5  7  1  0
  7  8  1  0
  8  9  1  0
  9 10  1  0
  9 11  2  0
  8 12  2  0
 12 13  1  0
 13 14  2  0
 14 15  1  0
 15 16  2  0
 16 17  1  0
 17 18  1  0
 17 19  1  0
 17 20  1  0
 16 21  1  0
 21 22  2  0
 22  7  1  0
 22 13  1  0
  1 23  1  0
  1 24  1  0
  2 25  1  0
  3 26  1  0
  3 27  1  0
 10 28  1  0
 12 29  1  0
 14 30  1  0
 15 31  1  0
 21 32  1  0
M  CHG  1  10  -1
M  END
>  <UniqueID>  (58) 
58

>  <SMILES>  (58) 
C=CCOC(=O)n1c(C([NH-])=O)cc2ccc(C(F)(F)F)cc21

>  <Energy>  (58) 
67.75430563733339

>  <Genealogy>  (58) 
C=CCOC(=O)n1c(C([NH-])=O)cc2ccc(C(F)(F)F)cc21 (protonated)
C=CCOC(=O)n1c(C([NH-])=O)cc2ccc(C(F)(F)F)cc21 (3D coordinates assigned)
C=CCOC(=O)n1c(C([NH-])=O)cc2ccc(C(F)(F)F)cc21 (optimized conformer: 67.75430563733339 kcal/mol)

>  <smiles>  (58) 
C=CCOC(=O)n1c(C(N)=O)cc2ccc(C(F)(F)F)cc21

>  <score_type>  (58) 
oracle

>  <origin>  (58) 
adg

>  <m_score__min__energy>  (58) 
-5.79

>  <m_primary>  (58) 
energy

$$$$
58:0
     RDKit          3D

 47 50  0  0  0  0  0  0  0  0999 V2000
  143.9150  154.6510  132.2550 C   0  0  0  0  0  0  0  0  0  0  0  0
  143.2730  154.0070  133.4950 C   0  0  0  0  0  0  0  0  0  0  0  0
  142.2950  152.9070  133.0400 C   0  0  0  0  0  0  0  0  0  0  0  0
  144.3830  153.4080  134.3780 C   0  0  0  0  0  0  0  0  0  0  0  0
  142.5530  155.0590  134.2190 N   0  0  0  0  0  0  0  0  0  0  0  0
  141.5530  155.9410  133.6910 C   0  0  0  0  0  0  0  0  0  0  0  0
  140.5630  155.4830  133.0570 O   0  0  0  0  0  0  0  0  0  0  0  0
  141.6970  157.3590  133.8550 N   0  0  0  0  0  0  0  0  0  0  0  0
  140.7420  158.2610  134.2230 C   0  0  0  0  0  0  0  0  0  0  0  0
  139.2980  157.9840  134.3650 C   0  0  0  0  0  0  0  0  0  0  0  0
  138.5330  157.5000  133.2640 N   0  0  0  0  0  0  0  0  0  0  0  0
  138.7210  158.2250  135.4590 O   0  0  0  0  0  0  0  0  0  0  0  0
  141.2980  159.5300  134.3700 C   0  0  0  0  0  0  0  0  0  0  0  0
  142.6330  159.3800  134.0700 C   0  0  0  0  0  0  0  0  0  0  0  0
  143.6620  160.3160  134.0710 C   0  0  0  0  0  0  0  0  0  0  0  0
  144.9550  159.8740  133.7480 C   0  0  0  0  0  0  0  0  0  0  0  0
  145.1970  158.5130  133.4300 C   0  0  0  0  0  0  0  0  0  0  0  0
  146.5710  158.0600  133.1220 C   0  0  0  0  0  0  0  0  0  0  0  0
  147.0430  156.8000  133.4990 C   0  0  0  0  0  0  0  0  0  0  0  0
  148.6270  156.6080  132.9460 S   0  0  0  0  0  0  0  0  0  0  0  0
  148.7320  158.1250  132.2390 C   0  0  0  0  0  0  0  0  0  0  0  0
  149.8230  158.6860  131.5780 C   0  0  0  0  0  0  0  0  0  0  0  0
  149.7000  159.9950  131.0900 C   0  0  0  0  0  0  0  0  0  0  0  0
  148.5060  160.7140  131.2790 C   0  0  0  0  0  0  0  0  0  0  0  0
  147.4200  160.1290  131.9520 C   0  0  0  0  0  0  0  0  0  0  0  0
  147.5370  158.8110  132.4180 C   0  0  0  0  0  0  0  0  0  0  0  0
  144.1290  157.5880  133.4590 C   0  0  0  0  0  0  0  0  0  0  0  0
  142.8480  158.0610  133.7620 C   0  0  0  0  0  0  0  0  0  0  0  0
  144.6585  155.3968  132.5726 H   0  0  0  0  0  0  0  0  0  0  0  0
  144.4089  153.8743  131.6527 H   0  0  0  0  0  0  0  0  0  0  0  0
  143.1368  155.1425  131.6527 H   0  0  0  0  0  0  0  0  0  0  0  0
  141.8587  152.4163  133.9225 H   0  0  0  0  0  0  0  0  0  0  0  0
  141.4928  153.3564  132.4363 H   0  0  0  0  0  0  0  0  0  0  0  0
  142.8352  152.1629  132.4363 H   0  0  0  0  0  0  0  0  0  0  0  0
  144.1239  153.5478  135.4379 H   0  0  0  0  0  0  0  0  0  0  0  0
  144.4825  152.3337  134.1635 H   0  0  0  0  0  0  0  0  0  0  0  0
  145.3356  153.9145  134.1635 H   0  0  0  0  0  0  0  0  0  0  0  0
  138.6420  156.5200  132.9210 H   0  0  0  0  0  0  0  0  0  0  0  0
  140.7802  160.4551  134.6634 H   0  0  0  0  0  0  0  0  0  0  0  0
  143.4686  161.3705  134.3174 H   0  0  0  0  0  0  0  0  0  0  0  0
  145.7893  160.5909  133.7415 H   0  0  0  0  0  0  0  0  0  0  0  0
  146.4722  156.0506  134.0670 H   0  0  0  0  0  0  0  0  0  0  0  0
  150.7551  158.1177  131.4427 H   0  0  0  0  0  0  0  0  0  0  0  0
  150.5414  160.4617  130.5568 H   0  0  0  0  0  0  0  0  0  0  0  0
  148.4217  161.7421  130.8971 H   0  0  0  0  0  0  0  0  0  0  0  0
  146.4912  160.6965  132.1112 H   0  0  0  0  0  0  0  0  0  0  0  0
  144.3009  156.5221  133.2485 H   0  0  0  0  0  0  0  0  0  0  0  0
  1  2  1  0
  2  3  1  0
  2  4  1  0
  2  5  1  0
  5  6  1  0
  6  7  2  0
  6  8  1  0
  8  9  1  0
  9 10  1  0
 10 11  1  0
 10 12  2  0
  9 13  2  0
 13 14  1  0
 14 15  2  0
 15 16  1  0
 16 17  2  0
 17 18  1  0
 18 19  2  0
 19 20  1  0
 20 21  1  0
 21 22  2  0
 22 23  1  0
 23 24  2  0
 24 25  1  0
 25 26  2  0
 17 27  1  0
 27 28  2  0
 28  8  1  0
 28 14  1  0
 26 18  1  0
 26 21  1  0
  1 29  1  0
  1 30  1  0
  1 31  1  0
  3 32  1  0
  3 33  1  0
  3 34  1  0
  4 35  1  0
  4 36  1  0
  4 37  1  0
 11 38  1  0
 13 39  1  0
 15 40  1  0
 16 41  1  0
 19 42  1  0
 22 43  1  0
 23 44  1  0
 24 45  1  0
 25 46  1  0
 27 47  1  0
M  CHG  2   5  -1  11  -1
M  END
>  <UniqueID>  (59) 
59

>  <SMILES>  (59) 
CC(C)(C)[N-]C(=O)n1c(C([NH-])=O)cc2ccc(-c3csc4ccccc34)cc21

>  <Energy>  (59) 
121.25381023732395

>  <Genealogy>  (59) 
CC(C)(C)[N-]C(=O)n1c(C([NH-])=O)cc2ccc(-c3csc4ccccc34)cc21 (protonated)
CC(C)(C)[N-]C(=O)n1c(C([NH-])=O)cc2ccc(-c3csc4ccccc34)cc21 (3D coordinates assigned)
CC(C)(C)[N-]C(=O)n1c(C([NH-])=O)cc2ccc(-c3csc4ccccc34)cc21 (optimized conformer: 121.25381023732395 kcal/mol)

>  <smiles>  (59) 
CC(C)(C)NC(=O)n1c(C(N)=O)cc2ccc(-c3csc4ccccc34)cc21

>  <score_type>  (59) 
oracle

>  <origin>  (59) 
adg

>  <m_score__min__energy>  (59) 
-9.3900000000000006

>  <m_primary>  (59) 
energy

$$$$
59:0
     RDKit          3D

 65 68  0  0  0  0  0  0  0  0999 V2000
  139.8690  158.6410  136.3380 C   0  0  0  0  0  0  0  0  0  0  0  0
  141.0530  158.3650  135.3970 C   0  0  0  0  0  0  0  0  0  0  0  0
  141.9070  157.2290  135.9890 C   0  0  0  0  0  0  0  0  0  0  0  0
  140.5050  157.9710  134.0120 C   0  0  0  0  0  0  0  0  0  0  0  0
  141.8140  159.5770  135.3100 O   0  0  0  0  0  0  0  0  0  0  0  0
  142.3970  160.1150  134.1530 C   0  0  0  0  0  0  0  0  0  0  0  0
  141.7320  160.8450  133.3710 O   0  0  0  0  0  0  0  0  0  0  0  0
  143.7830  159.8530  133.8810 N   0  0  0  0  0  0  0  0  0  0  0  0
  144.8290  160.7270  133.9150 C   0  0  0  0  0  0  0  0  0  0  0  0
  144.7340  162.1870  134.1250 C   0  0  0  0  0  0  0  0  0  0  0  0
  143.7940  162.9520  133.3740 N   0  0  0  0  0  0  0  0  0  0  0  0
  145.4510  162.7640  134.9840 O   0  0  0  0  0  0  0  0  0  0  0  0
  146.0250  160.0670  133.6400 C   0  0  0  0  0  0  0  0  0  0  0  0
  145.6760  158.7520  133.4260 C   0  0  0  0  0  0  0  0  0  0  0  0
  146.4700  157.6510  133.1230 C   0  0  0  0  0  0  0  0  0  0  0  0
  145.8410  156.4030  132.9810 C   0  0  0  0  0  0  0  0  0  0  0  0
  144.4380  156.2710  133.1540 C   0  0  0  0  0  0  0  0  0  0  0  0
  143.8020  154.9800  133.0200 N   0  0  0  0  0  0  0  0  0  0  0  0
  142.5070  154.7150  133.6640 C   0  0  0  0  0  0  0  0  0  0  0  0
  141.7430  153.6360  132.8850 C   0  0  0  0  0  0  0  0  0  0  0  0
  142.5200  152.3770  132.7140 N   0  0  0  0  0  0  0  0  0  0  0  0
  142.0860  151.3670  133.6500 C   0  0  0  0  0  0  0  0  0  0  0  0
  141.7030  151.6960  134.8080 O   0  0  0  0  0  0  0  0  0  0  0  0
  142.1330  150.0170  133.2780 O   0  0  0  0  0  0  0  0  0  0  0  0
  142.1890  149.5810  131.9220 C   0  0  0  0  0  0  0  0  0  0  0  0
  140.8050  149.2910  131.4090 C   0  0  0  0  0  0  0  0  0  0  0  0
  140.6070  148.3940  130.3450 C   0  0  0  0  0  0  0  0  0  0  0  0
  139.3190  148.1510  129.8590 C   0  0  0  0  0  0  0  0  0  0  0  0
  138.2220  148.8020  130.4280 C   0  0  0  0  0  0  0  0  0  0  0  0
  138.4100  149.6990  131.4840 C   0  0  0  0  0  0  0  0  0  0  0  0
  139.6970  149.9460  131.9730 C   0  0  0  0  0  0  0  0  0  0  0  0
  143.9920  152.5380  132.8100 C   0  0  0  0  0  0  0  0  0  0  0  0
  144.4600  153.8980  132.2780 C   0  0  0  0  0  0  0  0  0  0  0  0
  143.6680  157.4160  133.4650 C   0  0  0  0  0  0  0  0  0  0  0  0
  144.3180  158.6510  133.5780 C   0  0  0  0  0  0  0  0  0  0  0  0
  140.2048  158.5627  137.3826 H   0  0  0  0  0  0  0  0  0  0  0  0
  139.4814  159.6536  136.1524 H   0  0  0  0  0  0  0  0  0  0  0  0
  139.0736  157.9042  136.1524 H   0  0  0  0  0  0  0  0  0  0  0  0
  141.8708  157.2772  137.0873 H   0  0  0  0  0  0  0  0  0  0  0  0
  141.5123  156.2594  135.6513 H   0  0  0  0  0  0  0  0  0  0  0  0
  142.9481  157.3388  135.6513 H   0  0  0  0  0  0  0  0  0  0  0  0
  139.6177  157.3330  134.1367 H   0  0  0  0  0  0  0  0  0  0  0  0
  140.2287  158.8786  133.4552 H   0  0  0  0  0  0  0  0  0  0  0  0
  141.2774  157.4201  133.4552 H   0  0  0  0  0  0  0  0  0  0  0  0
  142.7760  162.7200  133.3950 H   0  0  0  0  0  0  0  0  0  0  0  0
  147.0339  160.5036  133.6019 H   0  0  0  0  0  0  0  0  0  0  0  0
  147.5580  157.7544  132.9983 H   0  0  0  0  0  0  0  0  0  0  0  0
  146.4432  155.5166  132.7326 H   0  0  0  0  0  0  0  0  0  0  0  0
  142.6768  154.3687  134.6942 H   0  0  0  0  0  0  0  0  0  0  0  0
  141.9132  155.6409  133.6741 H   0  0  0  0  0  0  0  0  0  0  0  0
  140.8150  153.4035  133.4280 H   0  0  0  0  0  0  0  0  0  0  0  0
  141.5435  154.0368  131.8802 H   0  0  0  0  0  0  0  0  0  0  0  0
  142.3100  152.0150  131.7530 H   0  0  0  0  0  0  0  0  0  0  0  0
  142.6465  150.3692  131.3060 H   0  0  0  0  0  0  0  0  0  0  0  0
  142.7910  148.6620  131.8663 H   0  0  0  0  0  0  0  0  0  0  0  0
  141.4689  147.8813  129.8931 H   0  0  0  0  0  0  0  0  0  0  0  0
  139.1693  147.4464  129.0276 H   0  0  0  0  0  0  0  0  0  0  0  0
  137.2091  148.6088  130.0449 H   0  0  0  0  0  0  0  0  0  0  0  0
  137.5449  150.2110  131.9306 H   0  0  0  0  0  0  0  0  0  0  0  0
  139.8422  150.6550  132.8014 H   0  0  0  0  0  0  0  0  0  0  0  0
  144.2905  152.4481  133.8649 H   0  0  0  0  0  0  0  0  0  0  0  0
  144.4590  151.7549  132.1947 H   0  0  0  0  0  0  0  0  0  0  0  0
  145.5499  153.9820  132.4012 H   0  0  0  0  0  0  0  0  0  0  0  0
  144.1979  153.9789  131.2127 H   0  0  0  0  0  0  0  0  0  0  0  0
  142.5811  157.3378  133.6150 H   0  0  0  0  0  0  0  0  0  0  0  0
  1  2  1  0
  2  3  1  0
  2  4  1  0
  2  5  1  0
  5  6  1  0
  6  7  2  0
  6  8  1  0
  8  9  1  0
  9 10  1  0
 10 11  1  0
 10 12  2  0
  9 13  2  0
 13 14  1  0
 14 15  2  0
 15 16  1  0
 16 17  2  0
 17 18  1  0
 18 19  1  0
 19 20  1  0
 20 21  1  0
 21 22  1  0
 22 23  2  0
 22 24  1  0
 24 25  1  0
 25 26  1  0
 26 27  2  0
 27 28  1  0
 28 29  2  0
 29 30  1  0
 30 31  2  0
 21 32  1  0
 32 33  1  0
 17 34  1  0
 34 35  2  0
 35  8  1  0
 35 14  1  0
 33 18  1  0
 31 26  1  0
  1 36  1  0
  1 37  1  0
  1 38  1  0
  3 39  1  0
  3 40  1  0
  3 41  1  0
  4 42  1  0
  4 43  1  0
  4 44  1  0
 11 45  1  0
 13 46  1  0
 15 47  1  0
 16 48  1  0
 19 49  1  0
 19 50  1  0
 20 51  1  0
 20 52  1  0
 21 53  1  0
 25 54  1  0
 25 55  1  0
 27 56  1  0
 28 57  1  0
 29 58  1  0
 30 59  1  0
 31 60  1  0
 32 61  1  0
 32 62  1  0
 33 63  1  0
 33 64  1  0
 34 65  1  0
M  CHG  2  11  -1  21   1
M  END
>  <UniqueID>  (60) 
60

>  <SMILES>  (60) 
CC(C)(C)OC(=O)n1c(C([NH-])=O)cc2ccc(N3CC[NH+](C(=O)OCc4ccccc4)CC3)cc21

>  <Energy>  (60) 
110.45909256121877

>  <Genealogy>  (60) 
CC(C)(C)OC(=O)n1c(C([NH-])=O)cc2ccc(N3CC[NH+](C(=O)OCc4ccccc4)CC3)cc21 (protonated)
CC(C)(C)OC(=O)n1c(C([NH-])=O)cc2ccc(N3CC[NH+](C(=O)OCc4ccccc4)CC3)cc21 (3D coordinates assigned)
CC(C)(C)OC(=O)n1c(C([NH-])=O)cc2ccc(N3CC[NH+](C(=O)OCc4ccccc4)CC3)cc21 (nonaromatic ring conformer: 110.45909256121877 kcal/mol)

>  <smiles>  (60) 
CC(C)(C)OC(=O)n1c(C(N)=O)cc2ccc(N3CCN(C(=O)OCc4ccccc4)CC3)cc21

>  <score_type>  (60) 
oracle

>  <origin>  (60) 
adg

>  <m_score__min__energy>  (60) 
-10.17

>  <m_primary>  (60) 
energy

$$$$
60:0
     RDKit          3D

 63 64  0  0  0  0  0  0  0  0999 V2000
  144.3550  154.4760  131.1530 C   0  0  0  0  0  0  0  0  0  0  0  0
  144.1250  153.8810  132.5580 C   0  0  0  0  0  0  0  0  0  0  0  0
  142.6470  153.4940  132.7520 C   0  0  0  0  0  0  0  0  0  0  0  0
  144.9960  152.6220  132.7090 C   0  0  0  0  0  0  0  0  0  0  0  0
  144.5400  154.8050  133.5770 O   0  0  0  0  0  0  0  0  0  0  0  0
  145.8120  154.8940  134.1640 C   0  0  0  0  0  0  0  0  0  0  0  0
  146.0530  154.2880  135.2440 O   0  0  0  0  0  0  0  0  0  0  0  0
  146.8580  155.6400  133.5010 N   0  0  0  0  0  0  0  0  0  0  0  0
  148.0360  155.1470  133.0170 C   0  0  0  0  0  0  0  0  0  0  0  0
  148.3890  153.7240  132.8770 C   0  0  0  0  0  0  0  0  0  0  0  0
  147.8020  152.7390  133.7280 N   0  0  0  0  0  0  0  0  0  0  0  0
  149.1570  153.3650  131.9460 O   0  0  0  0  0  0  0  0  0  0  0  0
  148.8890  156.1730  132.6270 C   0  0  0  0  0  0  0  0  0  0  0  0
  148.1870  157.3300  132.8550 C   0  0  0  0  0  0  0  0  0  0  0  0
  148.5570  158.6500  132.6170 C   0  0  0  0  0  0  0  0  0  0  0  0
  147.6270  159.6580  132.9160 C   0  0  0  0  0  0  0  0  0  0  0  0
  146.3510  159.3310  133.4380 C   0  0  0  0  0  0  0  0  0  0  0  0
  145.3400  160.4180  133.6890 C   0  0  0  0  0  0  0  0  0  0  0  0
  143.9270  159.9200  133.3910 C   0  0  0  0  0  0  0  0  0  0  0  0
  143.1790  159.9340  134.5820 O   0  0  0  0  0  0  0  0  0  0  0  0
  141.6590  159.1150  134.3680 Si  0  0  0  0  0  4  0  0  0  0  0  0
  140.5900  159.9120  133.0420 C   0  0  0  0  0  0  0  0  0  0  0  0
  140.7390  159.3150  135.9830 C   0  0  0  0  0  0  0  0  0  0  0  0
  141.9350  157.2540  134.0060 C   0  0  0  0  0  0  0  0  0  0  0  0
  142.7210  157.1060  132.6890 C   0  0  0  0  0  0  0  0  0  0  0  0
  142.7370  156.6180  135.1550 C   0  0  0  0  0  0  0  0  0  0  0  0
  140.5860  156.5200  133.8880 C   0  0  0  0  0  0  0  0  0  0  0  0
  146.0080  157.9780  133.6610 C   0  0  0  0  0  0  0  0  0  0  0  0
  146.9620  156.9880  133.3740 C   0  0  0  0  0  0  0  0  0  0  0  0
  144.7501  155.4982  131.2479 H   0  0  0  0  0  0  0  0  0  0  0  0
  145.0771  153.8532  130.6048 H   0  0  0  0  0  0  0  0  0  0  0  0
  143.4017  154.5008  130.6048 H   0  0  0  0  0  0  0  0  0  0  0  0
  142.4215  153.4350  133.8270 H   0  0  0  0  0  0  0  0  0  0  0  0
  142.0044  154.2542  132.2838 H   0  0  0  0  0  0  0  0  0  0  0  0
  142.4594  152.5165  132.2838 H   0  0  0  0  0  0  0  0  0  0  0  0
  145.1457  152.4056  133.7771 H   0  0  0  0  0  0  0  0  0  0  0  0
  144.4939  151.7691  132.2289 H   0  0  0  0  0  0  0  0  0  0  0  0
  145.9712  152.7910  132.2289 H   0  0  0  0  0  0  0  0  0  0  0  0
  147.0980  153.0080  134.4520 H   0  0  0  0  0  0  0  0  0  0  0  0
  148.0250  151.7290  133.5980 H   0  0  0  0  0  0  0  0  0  0  0  0
  149.9076  156.0780  132.2226 H   0  0  0  0  0  0  0  0  0  0  0  0
  149.5477  158.8960  132.2072 H   0  0  0  0  0  0  0  0  0  0  0  0
  147.8913  160.7117  132.7434 H   0  0  0  0  0  0  0  0  0  0  0  0
  145.3985  160.7294  134.7424 H   0  0  0  0  0  0  0  0  0  0  0  0
  145.5625  161.2679  133.0270 H   0  0  0  0  0  0  0  0  0  0  0  0
  143.4521  160.5785  132.6488 H   0  0  0  0  0  0  0  0  0  0  0  0
  143.9692  158.8969  132.9891 H   0  0  0  0  0  0  0  0  0  0  0  0
  139.7953  160.5045  133.5188 H   0  0  0  0  0  0  0  0  0  0  0  0
  141.2115  160.5689  132.4158 H   0  0  0  0  0  0  0  0  0  0  0  0
  140.1379  159.1288  132.4158 H   0  0  0  0  0  0  0  0  0  0  0  0
  141.4341  159.1639  136.8221 H   0  0  0  0  0  0  0  0  0  0  0  0
  140.3116  160.3270  136.0386 H   0  0  0  0  0  0  0  0  0  0  0  0
  139.9300  158.5717  136.0386 H   0  0  0  0  0  0  0  0  0  0  0  0
  143.7792  156.9068  132.9139 H   0  0  0  0  0  0  0  0  0  0  0  0
  142.3063  156.2702  132.1064 H   0  0  0  0  0  0  0  0  0  0  0  0
  142.6387  158.0354  132.1064 H   0  0  0  0  0  0  0  0  0  0  0  0
  142.3213  156.9476  136.1186 H   0  0  0  0  0  0  0  0  0  0  0  0
  142.6734  155.5221  135.0839 H   0  0  0  0  0  0  0  0  0  0  0  0
  143.7895  156.9296  135.0839 H   0  0  0  0  0  0  0  0  0  0  0  0
  140.1951  156.3073  134.8940 H   0  0  0  0  0  0  0  0  0  0  0  0
  139.8705  157.1532  133.3429 H   0  0  0  0  0  0  0  0  0  0  0  0
  140.7290  155.5753  133.3429 H   0  0  0  0  0  0  0  0  0  0  0  0
  145.0158  157.7064  134.0507 H   0  0  0  0  0  0  0  0  0  0  0  0
  1  2  1  0
  2  3  1  0
  2  4  1  0
  2  5  1  0
  5  6  1  0
  6  7  2  0
  6  8  1  0
  8  9  1  0
  9 10  1  0
 10 11  1  0
 10 12  2  0
  9 13  2  0
 13 14  1  0
 14 15  2  0
 15 16  1  0
 16 17  2  0
 17 18  1  0
 18 19  1  0
 19 20  1  0
 20 21  1  0
 21 22  1  0
 21 23  1  0
 21 24  1  0
 24 25  1  0
 24 26  1  0
 24 27  1  0
 17 28  1  0
 28 29  2  0
 29  8  1  0
 29 14  1  0
  1 30  1  0
  1 31  1  0
  1 32  1  0
  3 33  1  0
  3 34  1  0
  3 35  1  0
  4 36  1  0
  4 37  1  0
  4 38  1  0
 11 39  1  0
 11 40  1  0
 13 41  1  0
 15 42  1  0
 16 43  1  0
 18 44  1  0
 18 45  1  0
 19 46  1  0
 19 47  1  0
 22 48  1  0
 22 49  1  0
 22 50  1  0
 23 51  1  0
 23 52  1  0
 23 53  1  0
 25 54  1  0
 25 55  1  0
 25 56  1  0
 26 57  1  0
 26 58  1  0
 26 59  1  0
 27 60  1  0
 27 61  1  0
 27 62  1  0
 28 63  1  0
M  END
>  <UniqueID>  (61) 
61

>  <SMILES>  (61) 
CC(C)(C)OC(=O)n1c(C(N)=O)cc2ccc(CCO[Si](C)(C)C(C)(C)C)cc21

>  <Energy>  (61) 
80.50201479825024

>  <Genealogy>  (61) 
CC(C)(C)OC(=O)n1c(C(N)=O)cc2ccc(CCO[Si](C)(C)C(C)(C)C)cc21 (3D coordinates assigned)
CC(C)(C)OC(=O)n1c(C(N)=O)cc2ccc(CCO[Si](C)(C)C(C)(C)C)cc21 (optimized conformer: 80.50201479825024 kcal/mol)

>  <smiles>  (61) 
CC(C)(C)OC(=O)n1c(C(N)=O)cc2ccc(CCO[Si](C)(C)C(C)(C)C)cc21

>  <score_type>  (61) 
oracle

>  <origin>  (61) 
adg

>  <m_score__min__energy>  (61) 
-8.6300000000000008

>  <m_primary>  (61) 
energy

$$$$
61:0
     RDKit          3D

 58 60  0  0  0  0  0  0  0  0999 V2000
  149.9220  150.7860  134.7540 C   0  0  0  0  0  0  0  0  0  0  0  0
  149.3870  150.9700  133.3270 C   0  0  0  0  0  0  0  0  0  0  0  0
  150.5030  150.7210  132.2830 C   0  0  0  0  0  0  0  0  0  0  0  0
  148.7170  152.3000  133.1830 N   0  0  0  0  0  0  0  0  0  0  0  0
  148.4760  153.0090  134.4580 C   0  0  0  0  0  0  0  0  0  0  0  0
  147.4610  154.1390  134.2340 C   0  0  0  0  0  0  0  0  0  0  0  0
  147.7530  154.9500  132.9400 C   0  0  0  0  0  0  0  0  0  0  0  0
  147.5750  156.4450  133.1430 C   0  0  0  0  0  0  0  0  0  0  0  0
  148.6790  157.3310  133.0040 C   0  0  0  0  0  0  0  0  0  0  0  0
  148.5100  158.7190  133.1270 C   0  0  0  0  0  0  0  0  0  0  0  0
  147.2280  159.2000  133.3680 C   0  0  0  0  0  0  0  0  0  0  0  0
  146.7730  160.4970  133.4630 C   0  0  0  0  0  0  0  0  0  0  0  0
  145.3960  160.3940  133.6400 C   0  0  0  0  0  0  0  0  0  0  0  0
  144.5080  161.5600  133.8350 C   0  0  0  0  0  0  0  0  0  0  0  0
  143.0930  161.4380  133.7090 N   0  0  0  0  0  0  0  0  0  0  0  0
  145.0060  162.6750  134.1530 O   0  0  0  0  0  0  0  0  0  0  0  0
  145.0140  159.0850  133.6530 N   0  0  0  0  0  0  0  0  0  0  0  0
  143.6810  158.5570  133.6990 C   0  0  0  0  0  0  0  0  0  0  0  0
  143.2340  157.9170  132.7090 O   0  0  0  0  0  0  0  0  0  0  0  0
  142.9030  158.7510  134.8520 O   0  0  0  0  0  0  0  0  0  0  0  0
  141.4770  158.5940  134.9490 C   0  0  0  0  0  0  0  0  0  0  0  0
  141.0270  159.3170  136.2280 C   0  0  0  0  0  0  0  0  0  0  0  0
  141.1170  157.1010  135.0620 C   0  0  0  0  0  0  0  0  0  0  0  0
  140.7640  159.2400  133.7390 C   0  0  0  0  0  0  0  0  0  0  0  0
  146.1470  158.3660  133.4920 C   0  0  0  0  0  0  0  0  0  0  0  0
  146.2840  156.9780  133.3760 C   0  0  0  0  0  0  0  0  0  0  0  0
  149.1570  154.6630  132.3820 C   0  0  0  0  0  0  0  0  0  0  0  0
  149.3820  153.1550  132.1660 C   0  0  0  0  0  0  0  0  0  0  0  0
  149.1381  151.0556  135.4771 H   0  0  0  0  0  0  0  0  0  0  0  0
  150.2135  149.7360  134.9037 H   0  0  0  0  0  0  0  0  0  0  0  0
  150.7977  151.4346  134.9037 H   0  0  0  0  0  0  0  0  0  0  0  0
  148.6137  150.2132  133.1290 H   0  0  0  0  0  0  0  0  0  0  0  0
  151.4498  150.5097  132.8017 H   0  0  0  0  0  0  0  0  0  0  0  0
  150.2305  149.8616  131.6528 H   0  0  0  0  0  0  0  0  0  0  0  0
  150.6216  151.6148  131.6528 H   0  0  0  0  0  0  0  0  0  0  0  0
  148.0787  152.3018  135.2009 H   0  0  0  0  0  0  0  0  0  0  0  0
  149.4219  153.4344  134.8243 H   0  0  0  0  0  0  0  0  0  0  0  0
  146.4553  153.7003  134.1565 H   0  0  0  0  0  0  0  0  0  0  0  0
  147.5347  154.8300  135.0867 H   0  0  0  0  0  0  0  0  0  0  0  0
  147.0096  154.6127  132.2027 H   0  0  0  0  0  0  0  0  0  0  0  0
  149.6793  156.9227  132.7972 H   0  0  0  0  0  0  0  0  0  0  0  0
  149.3652  159.4048  133.0356 H   0  0  0  0  0  0  0  0  0  0  0  0
  147.3711  161.4187  133.4102 H   0  0  0  0  0  0  0  0  0  0  0  0
  142.6500  160.5000  133.5920 H   0  0  0  0  0  0  0  0  0  0  0  0
  141.3758  158.7567  137.1080 H   0  0  0  0  0  0  0  0  0  0  0  0
  141.4540  160.3306  136.2458 H   0  0  0  0  0  0  0  0  0  0  0  0
  139.9290  159.3814  136.2458 H   0  0  0  0  0  0  0  0  0  0  0  0
  141.0491  156.8195  136.1232 H   0  0  0  0  0  0  0  0  0  0  0  0
  140.1492  156.9191  134.5718 H   0  0  0  0  0  0  0  0  0  0  0  0
  141.8955  156.4980  134.5718 H   0  0  0  0  0  0  0  0  0  0  0  0
  139.9933  159.9383  134.0975 H   0  0  0  0  0  0  0  0  0  0  0  0
  141.4987  159.7863  133.1293 H   0  0  0  0  0  0  0  0  0  0  0  0
  140.2926  158.4551  133.1293 H   0  0  0  0  0  0  0  0  0  0  0  0
  145.4094  156.3167  133.4638 H   0  0  0  0  0  0  0  0  0  0  0  0
  149.2721  155.1829  131.4195 H   0  0  0  0  0  0  0  0  0  0  0  0
  149.8979  155.0210  133.1120 H   0  0  0  0  0  0  0  0  0  0  0  0
  148.9901  152.8839  131.1746 H   0  0  0  0  0  0  0  0  0  0  0  0
  150.4638  152.9757  132.2532 H   0  0  0  0  0  0  0  0  0  0  0  0
  1  2  1  0
  2  3  1  0
  2  4  1  0
  4  5  1  0
  5  6  1  0
  6  7  1  0
  7  8  1  0
  8  9  2  0
  9 10  1  0
 10 11  2  0
 11 12  1  0
 12 13  2  0
 13 14  1  0
 14 15  1  0
 14 16  2  0
 13 17  1  0
 17 18  1  0
 18 19  2  0
 18 20  1  0
 20 21  1  0
 21 22  1  0
 21 23  1  0
 21 24  1  0
 17 25  1  0
 25 26  2  0
  7 27  1  0
 27 28  1  0
 28  4  1  0
 26  8  1  0
 25 11  1  0
  1 29  1  0
  1 30  1  0
  1 31  1  0
  2 32  1  0
  3 33  1  0
  3 34  1  0
  3 35  1  0
  5 36  1  0
  5 37  1  0
  6 38  1  0
  6 39  1  0
  7 40  1  0
  9 41  1  0
 10 42  1  0
 12 43  1  0
 15 44  1  0
 22 45  1  0
 22 46  1  0
 22 47  1  0
 23 48  1  0
 23 49  1  0
 23 50  1  0
 24 51  1  0
 24 52  1  0
 24 53  1  0
 26 54  1  0
 27 55  1  0
 27 56  1  0
 28 57  1  0
 28 58  1  0
M  CHG  1  15  -1
M  END
>  <UniqueID>  (62) 
62

>  <SMILES>  (62) 
CC(C)N1CCC(c2ccc3cc(C([NH-])=O)n(C(=O)OC(C)(C)C)c3c2)CC1

>  <Energy>  (62) 
101.67544202022634

>  <Genealogy>  (62) 
CC(C)N1CCC(c2ccc3cc(C([NH-])=O)n(C(=O)OC(C)(C)C)c3c2)CC1 (protonated)
CC(C)N1CCC(c2ccc3cc(C([NH-])=O)n(C(=O)OC(C)(C)C)c3c2)CC1 (3D coordinates assigned)
CC(C)N1CCC(c2ccc3cc(C([NH-])=O)n(C(=O)OC(C)(C)C)c3c2)CC1 (nonaromatic ring conformer: 101.67544202022634 kcal/mol)

>  <smiles>  (62) 
CC(C)N1CCC(c2ccc3cc(C(N)=O)n(C(=O)OC(C)(C)C)c3c2)CC1

>  <score_type>  (62) 
oracle

>  <origin>  (62) 
adg

>  <m_score__min__energy>  (62) 
-9.1300000000000008

>  <m_primary>  (62) 
energy

$$$$
62:0
     RDKit          3D

 50 52  0  0  0  0  0  0  0  0999 V2000
  139.0750  159.0190  130.7760 C   0  0  0  0  0  0  0  0  0  0  0  0
  139.7670  159.9210  131.7530 C   0  0  0  0  0  0  0  0  0  0  0  0
  139.3450  161.0980  131.9010 O   0  0  0  0  0  0  0  0  0  0  0  0
  140.8680  159.4720  132.5540 N   0  0  0  0  0  0  0  0  0  0  0  0
  140.7890  158.7950  133.8180 C   0  0  0  0  0  0  0  0  0  0  0  0
  139.5790  158.2230  134.2510 C   0  0  0  0  0  0  0  0  0  0  0  0
  139.5020  157.5800  135.4880 C   0  0  0  0  0  0  0  0  0  0  0  0
  140.6330  157.4870  136.2990 C   0  0  0  0  0  0  0  0  0  0  0  0
  141.8480  158.0240  135.8690 C   0  0  0  0  0  0  0  0  0  0  0  0
  141.9450  158.6650  134.6220 C   0  0  0  0  0  0  0  0  0  0  0  0
  143.2520  159.2140  134.1900 C   0  0  0  0  0  0  0  0  0  0  0  0
  143.4570  160.6160  134.1300 C   0  0  0  0  0  0  0  0  0  0  0  0
  144.6940  161.1420  133.7250 C   0  0  0  0  0  0  0  0  0  0  0  0
  145.7020  160.2480  133.3740 C   0  0  0  0  0  0  0  0  0  0  0  0
  146.9960  160.4850  132.9730 C   0  0  0  0  0  0  0  0  0  0  0  0
  147.5550  159.2260  132.7650 C   0  0  0  0  0  0  0  0  0  0  0  0
  148.9210  159.0180  132.2430 C   0  0  0  0  0  0  0  0  0  0  0  0
  149.4410  157.6950  132.1220 N   0  0  0  0  0  0  0  0  0  0  0  0
  149.6500  159.9980  131.9340 O   0  0  0  0  0  0  0  0  0  0  0  0
  146.6420  158.2480  133.0310 N   0  0  0  0  0  0  0  0  0  0  0  0
  146.8500  156.8280  133.0120 C   0  0  0  0  0  0  0  0  0  0  0  0
  146.9910  156.2330  131.9100 O   0  0  0  0  0  0  0  0  0  0  0  0
  146.8690  156.1170  134.2220 O   0  0  0  0  0  0  0  0  0  0  0  0
  146.8810  154.6900  134.3710 C   0  0  0  0  0  0  0  0  0  0  0  0
  145.5860  154.1590  133.7390 C   0  0  0  0  0  0  0  0  0  0  0  0
  146.9020  154.3010  135.8620 C   0  0  0  0  0  0  0  0  0  0  0  0
  148.0850  154.0780  133.6310 C   0  0  0  0  0  0  0  0  0  0  0  0
  145.5120  158.8910  133.4010 C   0  0  0  0  0  0  0  0  0  0  0  0
  144.2960  158.3370  133.8180 C   0  0  0  0  0  0  0  0  0  0  0  0
  138.4943  158.2621  131.3236 H   0  0  0  0  0  0  0  0  0  0  0  0
  138.3988  159.6132  130.1437 H   0  0  0  0  0  0  0  0  0  0  0  0
  139.8240  158.5198  130.1437 H   0  0  0  0  0  0  0  0  0  0  0  0
  138.6868  158.2827  133.6103 H   0  0  0  0  0  0  0  0  0  0  0  0
  138.5483  157.1463  135.8233 H   0  0  0  0  0  0  0  0  0  0  0  0
  140.5677  156.9901  137.2782 H   0  0  0  0  0  0  0  0  0  0  0  0
  142.7371  157.9447  136.5119 H   0  0  0  0  0  0  0  0  0  0  0  0
  142.6386  161.2981  134.4035 H   0  0  0  0  0  0  0  0  0  0  0  0
  144.8619  162.2284  133.6861 H   0  0  0  0  0  0  0  0  0  0  0  0
  147.4857  161.4615  132.8439 H   0  0  0  0  0  0  0  0  0  0  0  0
  148.9790  156.9920  131.5040 H   0  0  0  0  0  0  0  0  0  0  0  0
  144.8819  153.8703  134.5333 H   0  0  0  0  0  0  0  0  0  0  0  0
  145.1335  154.9442  133.1155 H   0  0  0  0  0  0  0  0  0  0  0  0
  145.8150  153.2822  133.1155 H   0  0  0  0  0  0  0  0  0  0  0  0
  146.8529  155.2104  136.4789 H   0  0  0  0  0  0  0  0  0  0  0  0
  146.0372  153.6591  136.0857 H   0  0  0  0  0  0  0  0  0  0  0  0
  147.8309  153.7559  136.0857 H   0  0  0  0  0  0  0  0  0  0  0  0
  148.8159  153.7065  134.3643 H   0  0  0  0  0  0  0  0  0  0  0  0
  147.7426  153.2445  133.0001 H   0  0  0  0  0  0  0  0  0  0  0  0
  148.5565  154.8458  133.0001 H   0  0  0  0  0  0  0  0  0  0  0  0
  144.1565  157.2465  133.8552 H   0  0  0  0  0  0  0  0  0  0  0  0
  1  2  1  0
  2  3  2  0
  2  4  1  0
  4  5  1  0
  5  6  2  0
  6  7  1  0
  7  8  2  0
  8  9  1  0
  9 10  2  0
 10 11  1  0
 11 12  2  0
 12 13  1  0
 13 14  2  0
 14 15  1  0
 15 16  2  0
 16 17  1  0
 17 18  1  0
 17 19  2  0
 16 20  1  0
 20 21  1  0
 21 22  2  0
 21 23  1  0
 23 24  1  0
 24 25  1  0
 24 26  1  0
 24 27  1  0
 20 28  1  0
 28 29  2  0
 10  5  1  0
 29 11  1  0
 28 14  1  0
  1 30  1  0
  1 31  1  0
  1 32  1  0
  6 33  1  0
  7 34  1  0
  8 35  1  0
  9 36  1  0
 12 37  1  0
 13 38  1  0
 15 39  1  0
 18 40  1  0
 25 41  1  0
 25 42  1  0
 25 43  1  0
 26 44  1  0
 26 45  1  0
 26 46  1  0
 27 47  1  0
 27 48  1  0
 27 49  1  0
 29 50  1  0
M  CHG  2   4  -1  18  -1
M  END
>  <UniqueID>  (63) 
63

>  <SMILES>  (63) 
CC(=O)[N-]c1ccccc1-c1ccc2cc(C([NH-])=O)n(C(=O)OC(C)(C)C)c2c1

>  <Energy>  (63) 
96.05488949777458

>  <Genealogy>  (63) 
CC(=O)[N-]c1ccccc1-c1ccc2cc(C([NH-])=O)n(C(=O)OC(C)(C)C)c2c1 (protonated)
CC(=O)[N-]c1ccccc1-c1ccc2cc(C([NH-])=O)n(C(=O)OC(C)(C)C)c2c1 (3D coordinates assigned)
CC(=O)[N-]c1ccccc1-c1ccc2cc(C([NH-])=O)n(C(=O)OC(C)(C)C)c2c1 (optimized conformer: 96.05488949777458 kcal/mol)

>  <smiles>  (63) 
CC(=O)Nc1ccccc1-c1ccc2cc(C(N)=O)n(C(=O)OC(C)(C)C)c2c1

>  <score_type>  (63) 
oracle

>  <origin>  (63) 
adg

>  <m_score__min__energy>  (63) 
-8.7300000000000004

>  <m_primary>  (63) 
energy

$$$$
63:0
     RDKit          3D

 37 39  0  0  0  0  0  0  0  0999 V2000
  140.3810  158.9580  135.5080 C   0  0  0  0  0  0  0  0  0  0  0  0
  141.0320  158.5690  134.1710 C   0  0  1  0  0  0  0  0  0  0  0  0
  140.1500  158.9330  132.9940 C   0  0  0  0  0  0  0  0  0  0  0  0
  139.5160  157.9210  132.2500 C   0  0  0  0  0  0  0  0  0  0  0  0
  138.7100  158.2450  131.1540 C   0  0  0  0  0  0  0  0  0  0  0  0
  138.5300  159.5800  130.7870 C   0  0  0  0  0  0  0  0  0  0  0  0
  139.1560  160.5930  131.5140 C   0  0  0  0  0  0  0  0  0  0  0  0
  139.9630  160.2770  132.6110 C   0  0  0  0  0  0  0  0  0  0  0  0
  142.4320  159.1320  133.9860 C   0  0  0  0  0  0  0  0  0  0  0  0
  142.6810  160.5320  133.9390 C   0  0  0  0  0  0  0  0  0  0  0  0
  143.9800  161.0250  133.7330 C   0  0  0  0  0  0  0  0  0  0  0  0
  145.0070  160.1060  133.5560 C   0  0  0  0  0  0  0  0  0  0  0  0
  146.3530  160.3110  133.3550 C   0  0  0  0  0  0  0  0  0  0  0  0
  146.9080  159.0390  133.2410 C   0  0  0  0  0  0  0  0  0  0  0  0
  148.3320  158.7980  132.9280 C   0  0  0  0  0  0  0  0  0  0  0  0
  148.6940  158.2140  131.6780 N   0  0  0  0  0  0  0  0  0  0  0  0
  149.2310  159.0650  133.7670 O   0  0  0  0  0  0  0  0  0  0  0  0
  145.9440  158.0830  133.3730 N   0  0  0  0  0  0  0  0  0  0  0  0
  146.1180  156.6560  133.3860 C   0  0  0  0  0  0  0  0  0  0  0  0
  145.5570  155.9550  134.2690 O   0  0  0  0  0  0  0  0  0  0  0  0
  146.9280  156.0390  132.4420 O   0  0  0  0  0  0  0  0  0  0  0  0
  144.7850  158.7540  133.5630 C   0  0  0  0  0  0  0  0  0  0  0  0
  143.5060  158.2340  133.7850 C   0  0  0  0  0  0  0  0  0  0  0  0
  141.0001  158.5881  136.3386 H   0  0  0  0  0  0  0  0  0  0  0  0
  140.2992  160.0531  135.5711 H   0  0  0  0  0  0  0  0  0  0  0  0
  139.3778  158.5111  135.5711 H   0  0  0  0  0  0  0  0  0  0  0  0
  141.1394  157.4749  134.2074 H   0  0  0  0  0  0  0  0  0  0  0  0
  139.6554  156.8671  132.5325 H   0  0  0  0  0  0  0  0  0  0  0  0
  138.2170  157.4466  130.5800 H   0  0  0  0  0  0  0  0  0  0  0  0
  137.8950  159.8330  129.9252 H   0  0  0  0  0  0  0  0  0  0  0  0
  139.0141  161.6443  131.2230 H   0  0  0  0  0  0  0  0  0  0  0  0
  140.4546  161.0811  133.1783 H   0  0  0  0  0  0  0  0  0  0  0  0
  141.8461  161.2369  134.0655 H   0  0  0  0  0  0  0  0  0  0  0  0
  144.1784  162.1068  133.7124 H   0  0  0  0  0  0  0  0  0  0  0  0
  146.8789  161.2754  133.2967 H   0  0  0  0  0  0  0  0  0  0  0  0
  148.4780  157.2140  131.4710 H   0  0  0  0  0  0  0  0  0  0  0  0
  143.3384  157.1470  133.8030 H   0  0  0  0  0  0  0  0  0  0  0  0
  1  2  1  0
  2  3  1  0
  3  4  2  0
  4  5  1  0
  5  6  2  0
  6  7  1  0
  7  8  2  0
  2  9  1  0
  9 10  2  0
 10 11  1  0
 11 12  2  0
 12 13  1  0
 13 14  2  0
 14 15  1  0
 15 16  1  0
 15 17  2  0
 14 18  1  0
 18 19  1  0
 19 20  2  0
 19 21  1  0
 18 22  1  0
 22 23  2  0
  8  3  1  0
 23  9  1  0
 22 12  1  0
  1 24  1  0
  1 25  1  0
  1 26  1  0
  2 27  1  1
  4 28  1  0
  5 29  1  0
  6 30  1  0
  7 31  1  0
  8 32  1  0
 10 33  1  0
 11 34  1  0
 13 35  1  0
 16 36  1  0
 23 37  1  0
M  CHG  2  16  -1  21  -1
M  END
>  <UniqueID>  (64) 
64

>  <SMILES>  (64) 
C[C@@H](c1ccccc1)c1ccc2cc(C([NH-])=O)n(C(=O)[O-])c2c1

>  <Energy>  (64) 
79.62816913978246

>  <Genealogy>  (64) 
CC(c1ccccc1)c1ccc2cc(C([NH-])=O)n(C(=O)[O-])c2c1 (protonated)
C[C@@H](c1ccccc1)c1ccc2cc(C([NH-])=O)n(C(=O)[O-])c2c1 (chirality)
C[C@@H](c1ccccc1)c1ccc2cc(C([NH-])=O)n(C(=O)[O-])c2c1 (3D coordinates assigned)
C[C@@H](c1ccccc1)c1ccc2cc(C([NH-])=O)n(C(=O)[O-])c2c1 (optimized conformer: 79.62816913978246 kcal/mol)

>  <smiles>  (64) 
CC(c1ccccc1)c1ccc2cc(C(N)=O)n(C(=O)O)c2c1

>  <score_type>  (64) 
oracle

>  <origin>  (64) 
adg

>  <m_score__min__energy>  (64) 
-8.0800000000000001

>  <m_primary>  (64) 
energy

$$$$
64:0
     RDKit          3D

 38 40  0  0  0  0  0  0  0  0999 V2000
  140.3190  154.1910  133.0150 C   0  0  0  0  0  0  0  0  0  0  0  0
  140.5630  155.5920  132.9840 O   0  0  0  0  0  0  0  0  0  0  0  0
  141.6690  156.1800  133.6050 C   0  0  0  0  0  0  0  0  0  0  0  0
  142.6460  155.4680  133.9660 O   0  0  0  0  0  0  0  0  0  0  0  0
  141.6890  157.5990  133.8290 N   0  0  0  0  0  0  0  0  0  0  0  0
  140.6220  158.4090  134.0800 C   0  0  0  0  0  0  0  0  0  0  0  0
  139.2410  157.9620  134.3470 C   0  0  0  0  0  0  0  0  0  0  0  0
  138.4900  157.2500  133.3610 N   0  0  0  0  0  0  0  0  0  0  0  0
  138.7330  158.1620  135.4820 O   0  0  0  0  0  0  0  0  0  0  0  0
  141.0120  159.7450  134.1060 C   0  0  0  0  0  0  0  0  0  0  0  0
  142.3690  159.7310  133.8740 C   0  0  0  0  0  0  0  0  0  0  0  0
  143.2680  160.7880  133.7800 C   0  0  0  0  0  0  0  0  0  0  0  0
  144.6090  160.4880  133.4950 C   0  0  0  0  0  0  0  0  0  0  0  0
  145.0280  159.1460  133.2990 C   0  0  0  0  0  0  0  0  0  0  0  0
  146.4470  158.8430  132.9830 C   0  0  0  0  0  0  0  0  0  0  0  0
  147.0500  157.6680  133.4650 C   0  0  0  0  0  0  0  0  0  0  0  0
  148.3830  157.3830  133.1670 C   0  0  0  0  0  0  0  0  0  0  0  0
  149.1340  158.2640  132.3850 C   0  0  0  0  0  0  0  0  0  0  0  0
  148.5550  159.4460  131.8920 C   0  0  0  0  0  0  0  0  0  0  0  0
  149.3540  160.3790  131.0670 C   0  0  0  0  0  0  0  0  0  0  0  0
  149.0800  161.6090  131.0440 O   0  0  0  0  0  0  0  0  0  0  0  0
  150.4180  159.9110  130.3050 O   0  0  0  0  0  0  0  0  0  0  0  0
  147.2090  159.7270  132.1960 C   0  0  0  0  0  0  0  0  0  0  0  0
  144.0810  158.1000  133.4000 C   0  0  0  0  0  0  0  0  0  0  0  0
  142.7540  158.4260  133.7070 C   0  0  0  0  0  0  0  0  0  0  0  0
  140.2600  153.8521  134.0598 H   0  0  0  0  0  0  0  0  0  0  0  0
  139.3693  153.9728  132.5046 H   0  0  0  0  0  0  0  0  0  0  0  0
  141.1390  153.6646  132.5046 H   0  0  0  0  0  0  0  0  0  0  0  0
  137.5010  156.9770  133.5530 H   0  0  0  0  0  0  0  0  0  0  0  0
  138.9360  156.9240  132.4760 H   0  0  0  0  0  0  0  0  0  0  0  0
  140.3727  160.6239  134.2756 H   0  0  0  0  0  0  0  0  0  0  0  0
  142.9380  161.8273  133.9246 H   0  0  0  0  0  0  0  0  0  0  0  0
  145.3444  161.3028  133.4226 H   0  0  0  0  0  0  0  0  0  0  0  0
  146.4667  156.9683  134.0815 H   0  0  0  0  0  0  0  0  0  0  0  0
  148.8445  156.4607  133.5495 H   0  0  0  0  0  0  0  0  0  0  0  0
  150.1840  158.0314  132.1539 H   0  0  0  0  0  0  0  0  0  0  0  0
  146.7471  160.6492  131.8135 H   0  0  0  0  0  0  0  0  0  0  0  0
  144.3803  157.0535  133.2409 H   0  0  0  0  0  0  0  0  0  0  0  0
  1  2  1  0
  2  3  1  0
  3  4  2  0
  3  5  1  0
  5  6  1  0
  6  7  1  0
  7  8  1  0
  7  9  2  0
  6 10  2  0
 10 11  1  0
 11 12  2  0
 12 13  1  0
 13 14  2  0
 14 15  1  0
 15 16  2  0
 16 17  1  0
 17 18  2  0
 18 19  1  0
 19 20  1  0
 20 21  2  0
 20 22  1  0
 19 23  2  0
 14 24  1  0
 24 25  2  0
 25  5  1  0
 25 11  1  0
 23 15  1  0
  1 26  1  0
  1 27  1  0
  1 28  1  0
  8 29  1  0
  8 30  1  0
 10 31  1  0
 12 32  1  0
 13 33  1  0
 16 34  1  0
 17 35  1  0
 18 36  1  0
 23 37  1  0
 24 38  1  0
M  CHG  1  22  -1
M  END
>  <UniqueID>  (65) 
65

>  <SMILES>  (65) 
COC(=O)n1c(C(N)=O)cc2ccc(-c3cccc(C(=O)[O-])c3)cc21

>  <Energy>  (65) 
83.97039527524096

>  <Genealogy>  (65) 
COC(=O)n1c(C(N)=O)cc2ccc(-c3cccc(C(=O)[O-])c3)cc21 (protonated)
COC(=O)n1c(C(N)=O)cc2ccc(-c3cccc(C(=O)[O-])c3)cc21 (3D coordinates assigned)
COC(=O)n1c(C(N)=O)cc2ccc(-c3cccc(C(=O)[O-])c3)cc21 (optimized conformer: 83.97039527524096 kcal/mol)

>  <smiles>  (65) 
COC(=O)n1c(C(N)=O)cc2ccc(-c3cccc(C(=O)O)c3)cc21

>  <score_type>  (65) 
oracle

>  <origin>  (65) 
adg

>  <m_score__min__energy>  (65) 
-8.3100000000000005

>  <m_primary>  (65) 
energy

$$$$
65:0
     RDKit          3D

 33 35  0  0  0  0  0  0  0  0999 V2000
  149.4060  150.7040  132.5430 C   0  0  0  0  0  0  0  0  0  0  0  0
  149.0130  152.1360  132.6870 C   0  0  0  0  0  0  0  0  0  0  0  0
  147.7250  152.4630  132.9720 N   0  0  0  0  0  0  0  0  0  0  0  0
  147.3370  153.7610  133.0720 C   0  0  0  0  0  0  0  0  0  0  0  0
  148.2660  154.7920  132.8730 C   0  0  0  0  0  0  0  0  0  0  0  0
  147.8670  156.2190  132.9770 C   0  0  0  0  0  0  0  0  0  0  0  0
  148.8380  157.2460  132.8440 C   0  0  0  0  0  0  0  0  0  0  0  0
  148.4760  158.5980  132.9560 C   0  0  0  0  0  0  0  0  0  0  0  0
  147.1400  158.8990  133.1880 C   0  0  0  0  0  0  0  0  0  0  0  0
  146.5280  160.1180  133.3700 C   0  0  0  0  0  0  0  0  0  0  0  0
  145.1830  159.8260  133.5790 C   0  0  0  0  0  0  0  0  0  0  0  0
  144.1470  160.8620  133.7610 C   0  0  0  0  0  0  0  0  0  0  0  0
  142.7950  160.6350  133.3620 N   0  0  0  0  0  0  0  0  0  0  0  0
  144.4720  161.9880  134.2240 O   0  0  0  0  0  0  0  0  0  0  0  0
  144.9690  158.4800  133.5420 N   0  0  0  0  0  0  0  0  0  0  0  0
  143.7450  157.7820  133.8260 C   0  0  0  0  0  0  0  0  0  0  0  0
  143.6500  157.0580  134.8520 O   0  0  0  0  0  0  0  0  0  0  0  0
  142.6550  157.8940  132.9730 O   0  0  0  0  0  0  0  0  0  0  0  0
  146.1790  157.9260  133.2990 C   0  0  0  0  0  0  0  0  0  0  0  0
  146.5160  156.5690  133.2160 C   0  0  0  0  0  0  0  0  0  0  0  0
  149.5860  154.4280  132.5670 C   0  0  0  0  0  0  0  0  0  0  0  0
  149.9280  153.1170  132.4730 N   0  0  0  0  0  0  0  0  0  0  0  0
  149.5291  150.2555  133.5399 H   0  0  0  0  0  0  0  0  0  0  0  0
  148.6232  150.1626  131.9915 H   0  0  0  0  0  0  0  0  0  0  0  0
  150.3555  150.6380  131.9915 H   0  0  0  0  0  0  0  0  0  0  0  0
  146.2908  154.0039  133.3098 H   0  0  0  0  0  0  0  0  0  0  0  0
  149.8875  156.9792  132.6507 H   0  0  0  0  0  0  0  0  0  0  0  0
  149.2282  159.3952  132.8628 H   0  0  0  0  0  0  0  0  0  0  0  0
  147.0007  161.1111  133.3538 H   0  0  0  0  0  0  0  0  0  0  0  0
  142.0680  161.3640  133.5330 H   0  0  0  0  0  0  0  0  0  0  0  0
  142.5290  159.7820  132.8220 H   0  0  0  0  0  0  0  0  0  0  0  0
  145.7470  155.7913  133.3341 H   0  0  0  0  0  0  0  0  0  0  0  0
  150.3458  155.2063  132.4028 H   0  0  0  0  0  0  0  0  0  0  0  0
  1  2  1  0
  2  3  2  0
  3  4  1  0
  4  5  2  0
  5  6  1  0
  6  7  2  0
  7  8  1  0
  8  9  2  0
  9 10  1  0
 10 11  2  0
 11 12  1  0
 12 13  1  0
 12 14  2  0
 11 15  1  0
 15 16  1  0
 16 17  2  0
 16 18  1  0
 15 19  1  0
 19 20  2  0
  5 21  1  0
 21 22  2  0
 22  2  1  0
 20  6  1  0
 19  9  1  0
  1 23  1  0
  1 24  1  0
  1 25  1  0
  4 26  1  0
  7 27  1  0
  8 28  1  0
 10 29  1  0
 13 30  1  0
 13 31  1  0
 20 32  1  0
 21 33  1  0
M  CHG  1  18  -1
M  END
>  <UniqueID>  (66) 
66

>  <SMILES>  (66) 
Cc1ncc(-c2ccc3cc(C(N)=O)n(C(=O)[O-])c3c2)cn1

>  <Energy>  (66) 
80.67313127454649

>  <Genealogy>  (66) 
Cc1ncc(-c2ccc3cc(C(N)=O)n(C(=O)[O-])c3c2)cn1 (protonated)
Cc1ncc(-c2ccc3cc(C(N)=O)n(C(=O)[O-])c3c2)cn1 (3D coordinates assigned)
Cc1ncc(-c2ccc3cc(C(N)=O)n(C(=O)[O-])c3c2)cn1 (optimized conformer: 80.67313127454649 kcal/mol)

>  <smiles>  (66) 
Cc1ncc(-c2ccc3cc(C(N)=O)n(C(=O)O)c3c2)cn1

>  <score_type>  (66) 
oracle

>  <origin>  (66) 
adg

>  <m_score__min__energy>  (66) 
-6.8200000000000003

>  <m_primary>  (66) 
energy

$$$$
66:0
     RDKit          3D

 33 35  0  0  0  0  0  0  0  0999 V2000
  143.0230  161.3200  133.7320 N   0  0  0  0  0  0  0  0  0  0  0  0
  144.4260  161.5160  133.8860 C   0  0  0  0  0  0  0  0  0  0  0  0
  144.8570  162.6620  134.1850 O   0  0  0  0  0  0  0  0  0  0  0  0
  145.3840  160.4130  133.6540 C   0  0  0  0  0  0  0  0  0  0  0  0
  146.7380  160.6220  133.4000 C   0  0  0  0  0  0  0  0  0  0  0  0
  147.2660  159.3720  133.1820 C   0  0  0  0  0  0  0  0  0  0  0  0
  148.5760  158.9940  132.8980 C   0  0  0  0  0  0  0  0  0  0  0  0
  148.8490  157.6240  132.7520 C   0  0  0  0  0  0  0  0  0  0  0  0
  147.8170  156.6700  132.8980 C   0  0  0  0  0  0  0  0  0  0  0  0
  148.1130  155.2690  132.7590 C   0  0  0  0  0  0  0  0  0  0  0  0
  148.3600  154.0950  132.6420 C   0  0  0  0  0  0  0  0  0  0  0  0
  148.6550  152.6930  132.5010 C   0  0  0  0  0  0  0  0  0  0  0  0
  149.9850  152.2500  132.5210 C   0  0  0  0  0  0  0  0  0  0  0  0
  150.2690  150.8870  132.3830 C   0  0  0  0  0  0  0  0  0  0  0  0
  149.2280  149.9660  132.2270 C   0  0  0  0  0  0  0  0  0  0  0  0
  147.9010  150.4060  132.2070 C   0  0  0  0  0  0  0  0  0  0  0  0
  146.8930  149.5120  132.0560 F   0  0  0  0  0  0  0  0  0  0  0  0
  147.6130  151.7690  132.3450 C   0  0  0  0  0  0  0  0  0  0  0  0
  146.5010  157.0830  133.1870 C   0  0  0  0  0  0  0  0  0  0  0  0
  146.2500  158.4580  133.3090 C   0  0  0  0  0  0  0  0  0  0  0  0
  145.0850  159.0840  133.6000 N   0  0  0  0  0  0  0  0  0  0  0  0
  143.8150  158.4720  133.8830 C   0  0  0  0  0  0  0  0  0  0  0  0
  142.9280  158.3790  132.9950 O   0  0  0  0  0  0  0  0  0  0  0  0
  142.6510  160.5180  133.1770 H   0  0  0  0  0  0  0  0  0  0  0  0
  147.2714  161.5838  133.3785 H   0  0  0  0  0  0  0  0  0  0  0  0
  149.3724  159.7453  132.7913 H   0  0  0  0  0  0  0  0  0  0  0  0
  149.8722  157.2918  132.5226 H   0  0  0  0  0  0  0  0  0  0  0  0
  150.8044  152.9733  132.6451 H   0  0  0  0  0  0  0  0  0  0  0  0
  151.3125  150.5392  132.3972 H   0  0  0  0  0  0  0  0  0  0  0  0
  149.4534  148.8947  132.1200 H   0  0  0  0  0  0  0  0  0  0  0  0
  146.5688  152.1147  132.3310 H   0  0  0  0  0  0  0  0  0  0  0  0
  145.6928  156.3476  133.3134 H   0  0  0  0  0  0  0  0  0  0  0  0
  143.6157  158.0791  134.8909 H   0  0  0  0  0  0  0  0  0  0  0  0
  1  2  1  0
  2  3  2  0
  2  4  1  0
  4  5  2  0
  5  6  1  0
  6  7  2  0
  7  8  1  0
  8  9  2  0
  9 10  1  0
 10 11  3  0
 11 12  1  0
 12 13  2  0
 13 14  1  0
 14 15  2  0
 15 16  1  0
 16 17  1  0
 16 18  2  0
  9 19  1  0
 19 20  2  0
 20 21  1  0
 21 22  1  0
 22 23  2  0
 21  4  1  0
 20  6  1  0
 18 12  1  0
  1 24  1  0
  5 25  1  0
  7 26  1  0
  8 27  1  0
 13 28  1  0
 14 29  1  0
 15 30  1  0
 18 31  1  0
 19 32  1  0
 22 33  1  0
M  CHG  1   1  -1
M  END
>  <UniqueID>  (67) 
67

>  <SMILES>  (67) 
[NH-]C(=O)c1cc2ccc(C#Cc3cccc(F)c3)cc2n1C=O

>  <Energy>  (67) 
70.35513203204506

>  <Genealogy>  (67) 
[NH-]C(=O)c1cc2ccc(C#Cc3cccc(F)c3)cc2n1C=O (protonated)
[NH-]C(=O)c1cc2ccc(C#Cc3cccc(F)c3)cc2n1C=O (3D coordinates assigned)
[NH-]C(=O)c1cc2ccc(C#Cc3cccc(F)c3)cc2n1C=O (optimized conformer: 70.35513203204506 kcal/mol)

>  <smiles>  (67) 
NC(=O)c1cc2ccc(C#Cc3cccc(F)c3)cc2n1C=O

>  <score_type>  (67) 
oracle

>  <origin>  (67) 
adg

>  <m_score__min__energy>  (67) 
-7.9800000000000004

>  <m_primary>  (67) 
energy

$$$$
67:0
     RDKit          3D

 54 56  0  0  0  0  0  0  0  0999 V2000
  139.4570  146.2540  129.8810 C   0  0  0  0  0  0  0  0  0  0  0  0
  138.7330  147.2250  128.9540 C   0  0  0  0  0  0  0  0  0  0  0  0
  138.5360  148.5910  129.6290 C   0  0  0  0  0  0  0  0  0  0  0  0
  139.8110  149.4490  129.6100 C   0  0  0  0  0  0  0  0  0  0  0  0
  140.7820  149.0910  130.7460 C   0  0  0  0  0  0  0  0  0  0  0  0
  140.4280  149.8460  132.0330 C   0  0  0  0  0  0  0  0  0  0  0  0
  141.5990  149.8720  132.9410 N   0  0  0  0  0  0  0  0  0  0  0  0
  141.3170  150.5400  134.2300 C   0  0  0  0  0  0  0  0  0  0  0  0
  141.1670  152.0720  134.0950 C   0  0  0  0  0  0  0  0  0  0  0  0
  141.9940  152.6500  132.9250 C   0  0  0  0  0  0  0  0  0  0  0  0
  142.3490  154.1070  133.1600 C   0  0  0  0  0  0  0  0  0  0  0  0
  143.6620  154.5650  132.8820 C   0  0  0  0  0  0  0  0  0  0  0  0
  144.0100  155.9130  133.0730 C   0  0  0  0  0  0  0  0  0  0  0  0
  143.0310  156.7790  133.5490 C   0  0  0  0  0  0  0  0  0  0  0  0
  143.0910  158.1310  133.7940 C   0  0  0  0  0  0  0  0  0  0  0  0
  141.8180  158.4820  134.2400 C   0  0  0  0  0  0  0  0  0  0  0  0
  141.4660  159.8410  134.7000 C   0  0  0  0  0  0  0  0  0  0  0  0
  140.8790  160.0550  135.9810 N   0  0  0  0  0  0  0  0  0  0  0  0
  141.7340  160.8340  133.9720 O   0  0  0  0  0  0  0  0  0  0  0  0
  141.0010  157.3900  134.2600 N   0  0  0  0  0  0  0  0  0  0  0  0
  139.6000  157.3430  134.5740 C   0  0  0  0  0  0  0  0  0  0  0  0
  139.1820  157.7640  135.6850 O   0  0  0  0  0  0  0  0  0  0  0  0
  138.6880  156.8580  133.6440 O   0  0  0  0  0  0  0  0  0  0  0  0
  141.7600  156.3560  133.8370 C   0  0  0  0  0  0  0  0  0  0  0  0
  141.3790  155.0230  133.6370 C   0  0  0  0  0  0  0  0  0  0  0  0
  143.2420  151.7970  132.6670 C   0  0  0  0  0  0  0  0  0  0  0  0
  142.8590  150.3450  132.3060 C   0  0  0  0  0  0  0  0  0  0  0  0
  139.2543  146.5259  130.9274 H   0  0  0  0  0  0  0  0  0  0  0  0
  139.0994  145.2310  129.6921 H   0  0  0  0  0  0  0  0  0  0  0  0
  140.5395  146.3048  129.6921 H   0  0  0  0  0  0  0  0  0  0  0  0
  139.3280  147.3591  128.0386 H   0  0  0  0  0  0  0  0  0  0  0  0
  137.7438  146.8077  128.7144 H   0  0  0  0  0  0  0  0  0  0  0  0
  137.7384  149.1335  129.1003 H   0  0  0  0  0  0  0  0  0  0  0  0
  138.2733  148.4078  130.6814 H   0  0  0  0  0  0  0  0  0  0  0  0
  140.3230  149.2977  128.6483 H   0  0  0  0  0  0  0  0  0  0  0  0
  139.5087  150.4975  129.7485 H   0  0  0  0  0  0  0  0  0  0  0  0
  140.7277  148.0092  130.9376 H   0  0  0  0  0  0  0  0  0  0  0  0
  141.7987  149.3788  130.4404 H   0  0  0  0  0  0  0  0  0  0  0  0
  140.1375  150.8770  131.7828 H   0  0  0  0  0  0  0  0  0  0  0  0
  139.5924  149.3354  132.5342 H   0  0  0  0  0  0  0  0  0  0  0  0
  140.3818  150.1308  134.6398 H   0  0  0  0  0  0  0  0  0  0  0  0
  142.1734  150.3501  134.8937 H   0  0  0  0  0  0  0  0  0  0  0  0
  140.1060  152.3085  133.9268 H   0  0  0  0  0  0  0  0  0  0  0  0
  141.5421  152.5263  135.0240 H   0  0  0  0  0  0  0  0  0  0  0  0
  141.3703  152.6141  132.0196 H   0  0  0  0  0  0  0  0  0  0  0  0
  144.4175  153.8562  132.5122 H   0  0  0  0  0  0  0  0  0  0  0  0
  145.0260  156.2725  132.8527 H   0  0  0  0  0  0  0  0  0  0  0  0
  143.9591  158.7943  133.6653 H   0  0  0  0  0  0  0  0  0  0  0  0
  139.8940  159.7660  136.1750 H   0  0  0  0  0  0  0  0  0  0  0  0
  140.3500  154.6948  133.8455 H   0  0  0  0  0  0  0  0  0  0  0  0
  143.8111  152.2359  131.8343 H   0  0  0  0  0  0  0  0  0  0  0  0
  143.8491  151.7802  133.5842 H   0  0  0  0  0  0  0  0  0  0  0  0
  142.7408  150.2804  131.2143 H   0  0  0  0  0  0  0  0  0  0  0  0
  143.6660  149.7010  132.6854 H   0  0  0  0  0  0  0  0  0  0  0  0
  1  2  1  0
  2  3  1  0
  3  4  1  0
  4  5  1  0
  5  6  1  0
  6  7  1  0
  7  8  1  0
  8  9  1  0
  9 10  1  0
 10 11  1  0
 11 12  2  0
 12 13  1  0
 13 14  2  0
 14 15  1  0
 15 16  2  0
 16 17  1  0
 17 18  1  0
 17 19  2  0
 16 20  1  0
 20 21  1  0
 21 22  2  0
 21 23  1  0
 20 24  1  0
 24 25  2  0
 10 26  1  0
 26 27  1  0
 27  7  1  0
 25 11  1  0
 24 14  1  0
  1 28  1  0
  1 29  1  0
  1 30  1  0
  2 31  1  0
  2 32  1  0
  3 33  1  0
  3 34  1  0
  4 35  1  0
  4 36  1  0
  5 37  1  0
  5 38  1  0
  6 39  1  0
  6 40  1  0
  8 41  1  0
  8 42  1  0
  9 43  1  0
  9 44  1  0
 10 45  1  0
 12 46  1  0
 13 47  1  0
 15 48  1  0
 18 49  1  0
 25 50  1  0
 26 51  1  0
 26 52  1  0
 27 53  1  0
 27 54  1  0
M  CHG  2  18  -1  23  -1
M  END
>  <UniqueID>  (68) 
68

>  <SMILES>  (68) 
CCCCCCN1CCC(c2ccc3cc(C([NH-])=O)n(C(=O)[O-])c3c2)CC1

>  <Energy>  (68) 
96.58156485719056

>  <Genealogy>  (68) 
CCCCCCN1CCC(c2ccc3cc(C([NH-])=O)n(C(=O)[O-])c3c2)CC1 (protonated)
CCCCCCN1CCC(c2ccc3cc(C([NH-])=O)n(C(=O)[O-])c3c2)CC1 (3D coordinates assigned)
CCCCCCN1CCC(c2ccc3cc(C([NH-])=O)n(C(=O)[O-])c3c2)CC1 (nonaromatic ring conformer: 96.58156485719056 kcal/mol)

>  <smiles>  (68) 
CCCCCCN1CCC(c2ccc3cc(C(N)=O)n(C(=O)O)c3c2)CC1

>  <score_type>  (68) 
oracle

>  <origin>  (68) 
adg

>  <m_score__min__energy>  (68) 
-8.7300000000000004

>  <m_primary>  (68) 
energy

$$$$
68:0
     RDKit          3D

 45 47  0  0  0  0  0  0  0  0999 V2000
  139.1970  157.3950  134.1130 C   0  0  0  0  0  0  0  0  0  0  0  0
  140.7330  157.3550  134.2150 C   0  0  0  0  0  0  0  0  0  0  0  0
  141.3800  157.8330  132.9010 C   0  0  0  0  0  0  0  0  0  0  0  0
  141.1810  158.2830  135.3540 C   0  0  0  0  0  0  0  0  0  0  0  0
  141.1820  156.0340  134.5460 O   0  0  0  0  0  0  0  0  0  0  0  0
  141.2150  154.9240  133.6890 C   0  0  0  0  0  0  0  0  0  0  0  0
  140.2210  154.6320  132.9700 O   0  0  0  0  0  0  0  0  0  0  0  0
  142.3990  154.1140  133.6280 N   0  0  0  0  0  0  0  0  0  0  0  0
  142.4770  152.7550  133.5890 C   0  0  0  0  0  0  0  0  0  0  0  0
  141.3470  151.8180  133.7540 C   0  0  0  0  0  0  0  0  0  0  0  0
  140.2200  151.8540  132.8750 N   0  0  0  0  0  0  0  0  0  0  0  0
  141.3500  151.0090  134.7190 O   0  0  0  0  0  0  0  0  0  0  0  0
  143.7960  152.3420  133.4220 C   0  0  0  0  0  0  0  0  0  0  0  0
  144.5350  153.5020  133.3740 C   0  0  0  0  0  0  0  0  0  0  0  0
  145.9050  153.6840  133.2130 C   0  0  0  0  0  0  0  0  0  0  0  0
  146.3950  154.9990  133.1670 C   0  0  0  0  0  0  0  0  0  0  0  0
  145.5110  156.1060  133.2640 C   0  0  0  0  0  0  0  0  0  0  0  0
  146.0340  157.4930  133.2100 C   0  0  0  0  0  0  0  0  0  0  0  0
  147.3370  157.7330  132.7380 C   0  0  0  0  0  0  0  0  0  0  0  0
  147.8420  159.0340  132.6800 C   0  0  0  0  0  0  0  0  0  0  0  0
  147.0540  160.1100  133.0950 C   0  0  0  0  0  0  0  0  0  0  0  0
  145.7600  159.8870  133.5740 C   0  0  0  0  0  0  0  0  0  0  0  0
  144.7880  161.2490  134.1070 Cl  0  0  0  0  0  0  0  0  0  0  0  0
  145.2480  158.5840  133.6340 C   0  0  0  0  0  0  0  0  0  0  0  0
  144.0040  158.3810  134.1420 F   0  0  0  0  0  0  0  0  0  0  0  0
  144.1260  155.8790  133.4300 C   0  0  0  0  0  0  0  0  0  0  0  0
  143.6690  154.5580  133.4980 C   0  0  0  0  0  0  0  0  0  0  0  0
  138.7626  157.4063  135.1235 H   0  0  0  0  0  0  0  0  0  0  0  0
  138.8890  158.3015  133.5713 H   0  0  0  0  0  0  0  0  0  0  0  0
  138.8422  156.5058  133.5713 H   0  0  0  0  0  0  0  0  0  0  0  0
  142.2454  158.4723  133.1298 H   0  0  0  0  0  0  0  0  0  0  0  0
  141.7120  156.9616  132.3175 H   0  0  0  0  0  0  0  0  0  0  0  0
  140.6446  158.4063  132.3175 H   0  0  0  0  0  0  0  0  0  0  0  0
  140.9536  157.8120  136.3217 H   0  0  0  0  0  0  0  0  0  0  0  0
  142.2639  158.4604  135.2780 H   0  0  0  0  0  0  0  0  0  0  0  0
  140.6463  159.2413  135.2780 H   0  0  0  0  0  0  0  0  0  0  0  0
  139.4520  151.1560  132.9820 H   0  0  0  0  0  0  0  0  0  0  0  0
  140.1050  152.6210  132.1770 H   0  0  0  0  0  0  0  0  0  0  0  0
  144.1679  151.3096  133.3449 H   0  0  0  0  0  0  0  0  0  0  0  0
  146.5841  152.8232  133.1244 H   0  0  0  0  0  0  0  0  0  0  0  0
  147.4752  155.1735  133.0546 H   0  0  0  0  0  0  0  0  0  0  0  0
  147.9633  156.8895  132.4120 H   0  0  0  0  0  0  0  0  0  0  0  0
  148.8615  159.2114  132.3070 H   0  0  0  0  0  0  0  0  0  0  0  0
  147.4523  161.1341  133.0448 H   0  0  0  0  0  0  0  0  0  0  0  0
  143.4230  156.7218  133.5041 H   0  0  0  0  0  0  0  0  0  0  0  0
  1  2  1  0
  2  3  1  0
  2  4  1  0
  2  5  1  0
  5  6  1  0
  6  7  2  0
  6  8  1  0
  8  9  1  0
  9 10  1  0
 10 11  1  0
 10 12  2  0
  9 13  2  0
 13 14  1  0
 14 15  2  0
 15 16  1  0
 16 17  2  0
 17 18  1  0
 18 19  2  0
 19 20  1  0
 20 21  2  0
 21 22  1  0
 22 23  1  0
 22 24  2  0
 24 25  1  0
 17 26  1  0
 26 27  2  0
 27  8  1  0
 27 14  1  0
 24 18  1  0
  1 28  1  0
  1 29  1  0
  1 30  1  0
  3 31  1  0
  3 32  1  0
  3 33  1  0
  4 34  1  0
  4 35  1  0
  4 36  1  0
 11 37  1  0
 11 38  1  0
 13 39  1  0
 15 40  1  0
 16 41  1  0
 19 42  1  0
 20 43  1  0
 21 44  1  0
 26 45  1  0
M  END
>  <UniqueID>  (69) 
69

>  <SMILES>  (69) 
CC(C)(C)OC(=O)n1c(C(N)=O)cc2ccc(-c3cccc(Cl)c3F)cc21

>  <Energy>  (69) 
87.70651145350442

>  <Genealogy>  (69) 
CC(C)(C)OC(=O)n1c(C(N)=O)cc2ccc(-c3cccc(Cl)c3F)cc21 (3D coordinates assigned)
CC(C)(C)OC(=O)n1c(C(N)=O)cc2ccc(-c3cccc(Cl)c3F)cc21 (optimized conformer: 87.70651145350442 kcal/mol)

>  <smiles>  (69) 
CC(C)(C)OC(=O)n1c(C(N)=O)cc2ccc(-c3cccc(Cl)c3F)cc21

>  <score_type>  (69) 
oracle

>  <origin>  (69) 
adg

>  <m_score__min__energy>  (69) 
-8.8699999999999992

>  <m_primary>  (69) 
energy

$$$$
69:0
     RDKit          3D

 37 39  0  0  0  0  0  0  0  0999 V2000
  143.3370  155.4470  134.3040 C   0  0  0  0  0  0  0  0  0  0  0  0
  143.4930  156.9000  134.7390 C   0  0  0  0  0  0  0  0  0  0  0  0
  143.7790  157.7710  133.5530 C   0  0  0  0  0  0  0  0  0  0  0  0
  142.9330  157.8590  132.6240 O   0  0  0  0  0  0  0  0  0  0  0  0
  145.0560  158.4090  133.4150 N   0  0  0  0  0  0  0  0  0  0  0  0
  145.3470  159.7350  133.5190 C   0  0  0  0  0  0  0  0  0  0  0  0
  144.3640  160.8280  133.6730 C   0  0  0  0  0  0  0  0  0  0  0  0
  142.9830  160.6150  133.3940 N   0  0  0  0  0  0  0  0  0  0  0  0
  144.7520  161.9720  134.0280 O   0  0  0  0  0  0  0  0  0  0  0  0
  146.7230  159.9390  133.4050 C   0  0  0  0  0  0  0  0  0  0  0  0
  147.2630  158.6850  133.2220 C   0  0  0  0  0  0  0  0  0  0  0  0
  148.5870  158.2910  133.0640 C   0  0  0  0  0  0  0  0  0  0  0  0
  148.8540  156.9190  132.9180 C   0  0  0  0  0  0  0  0  0  0  0  0
  147.8010  155.9650  132.9380 C   0  0  0  0  0  0  0  0  0  0  0  0
  148.0960  154.5170  132.7950 C   0  0  0  0  0  0  0  0  0  0  0  0
  149.3490  154.0780  132.3370 C   0  0  0  0  0  0  0  0  0  0  0  0
  149.6100  152.7140  132.2070 C   0  0  0  0  0  0  0  0  0  0  0  0
  148.6160  151.7920  132.5370 C   0  0  0  0  0  0  0  0  0  0  0  0
  147.4050  152.2240  132.9800 N   0  0  0  0  0  0  0  0  0  0  0  0
  147.1260  153.5490  133.1140 C   0  0  0  0  0  0  0  0  0  0  0  0
  146.4670  156.4100  133.1000 C   0  0  0  0  0  0  0  0  0  0  0  0
  146.2350  157.7810  133.2320 C   0  0  0  0  0  0  0  0  0  0  0  0
  143.2679  154.8034  135.1934 H   0  0  0  0  0  0  0  0  0  0  0  0
  142.4223  155.3406  133.7024 H   0  0  0  0  0  0  0  0  0  0  0  0
  144.2083  155.1488  133.7024 H   0  0  0  0  0  0  0  0  0  0  0  0
  142.5628  157.2364  135.2202 H   0  0  0  0  0  0  0  0  0  0  0  0
  144.3318  156.9732  135.4469 H   0  0  0  0  0  0  0  0  0  0  0  0
  142.6830  160.0000  132.6050 H   0  0  0  0  0  0  0  0  0  0  0  0
  147.2615  160.8970  133.4514 H   0  0  0  0  0  0  0  0  0  0  0  0
  149.4009  159.0309  133.0536 H   0  0  0  0  0  0  0  0  0  0  0  0
  149.8919  156.5791  132.7865 H   0  0  0  0  0  0  0  0  0  0  0  0
  150.1269  154.8121  132.0800 H   0  0  0  0  0  0  0  0  0  0  0  0
  150.5905  152.3683  131.8476 H   0  0  0  0  0  0  0  0  0  0  0  0
  148.8122  150.7141  132.4387 H   0  0  0  0  0  0  0  0  0  0  0  0
  146.6730  151.5200  133.2270 H   0  0  0  0  0  0  0  0  0  0  0  0
  146.1359  153.8654  133.4740 H   0  0  0  0  0  0  0  0  0  0  0  0
  145.6329  155.6931  133.1214 H   0  0  0  0  0  0  0  0  0  0  0  0
  1  2  1  0
  2  3  1  0
  3  4  2  0
  3  5  1  0
  5  6  1  0
  6  7  1  0
  7  8  1  0
  7  9  2  0
  6 10  2  0
 10 11  1  0
 11 12  2  0
 12 13  1  0
 13 14  2  0
 14 15  1  0
 15 16  2  0
 16 17  1  0
 17 18  2  0
 18 19  1  0
 19 20  2  0
 14 21  1  0
 21 22  2  0
 22  5  1  0
 22 11  1  0
 20 15  1  0
  1 23  1  0
  1 24  1  0
  1 25  1  0
  2 26  1  0
  2 27  1  0
  8 28  1  0
 10 29  1  0
 12 30  1  0
 13 31  1  0
 16 32  1  0
 17 33  1  0
 18 34  1  0
 19 35  1  0
 20 36  1  0
 21 37  1  0
M  CHG  2   8  -1  19   1
M  END
>  <UniqueID>  (70) 
70

>  <SMILES>  (70) 
CCC(=O)n1c(C([NH-])=O)cc2ccc(-c3ccc[nH+]c3)cc21

>  <Energy>  (70) 
80.77990582868577

>  <Genealogy>  (70) 
CCC(=O)n1c(C([NH-])=O)cc2ccc(-c3ccc[nH+]c3)cc21 (protonated)
CCC(=O)n1c(C([NH-])=O)cc2ccc(-c3ccc[nH+]c3)cc21 (3D coordinates assigned)
CCC(=O)n1c(C([NH-])=O)cc2ccc(-c3ccc[nH+]c3)cc21 (optimized conformer: 80.77990582868577 kcal/mol)

>  <smiles>  (70) 
CCC(=O)n1c(C(N)=O)cc2ccc(-c3cccnc3)cc21

>  <score_type>  (70) 
oracle

>  <origin>  (70) 
adg

>  <m_score__min__energy>  (70) 
-7.0999999999999996

>  <m_primary>  (70) 
energy

$$$$
70:0
     RDKit          3D

 33 35  0  0  0  0  0  0  0  0999 V2000
  149.0710  158.3800  130.9160 N   0  0  0  0  0  0  0  0  0  0  0  0
  148.8460  158.8000  132.2580 C   0  0  0  0  0  0  0  0  0  0  0  0
  149.8320  158.9740  133.0220 O   0  0  0  0  0  0  0  0  0  0  0  0
  147.4790  159.0730  132.7540 C   0  0  0  0  0  0  0  0  0  0  0  0
  146.9860  160.3570  132.9810 C   0  0  0  0  0  0  0  0  0  0  0  0
  145.6760  160.1800  133.3660 C   0  0  0  0  0  0  0  0  0  0  0  0
  144.7170  161.1190  133.7320 C   0  0  0  0  0  0  0  0  0  0  0  0
  143.4510  160.6510  134.1200 C   0  0  0  0  0  0  0  0  0  0  0  0
  143.1670  159.2590  134.1480 C   0  0  0  0  0  0  0  0  0  0  0  0
  141.8290  158.7740  134.5730 C   0  0  0  0  0  0  0  0  0  0  0  0
  141.4740  158.7560  135.9350 C   0  0  0  0  0  0  0  0  0  0  0  0
  140.2150  158.3000  136.3330 C   0  0  0  0  0  0  0  0  0  0  0  0
  139.2940  157.8590  135.3790 C   0  0  0  0  0  0  0  0  0  0  0  0
  139.6330  157.8720  134.0240 C   0  0  0  0  0  0  0  0  0  0  0  0
  138.7380  157.4480  133.0980 F   0  0  0  0  0  0  0  0  0  0  0  0
  140.8930  158.3270  133.6200 C   0  0  0  0  0  0  0  0  0  0  0  0
  144.1730  158.3390  133.7710 C   0  0  0  0  0  0  0  0  0  0  0  0
  145.4160  158.8350  133.3660 C   0  0  0  0  0  0  0  0  0  0  0  0
  146.5120  158.1420  132.9920 N   0  0  0  0  0  0  0  0  0  0  0  0
  146.6370  156.7120  132.9440 C   0  0  0  0  0  0  0  0  0  0  0  0
  147.3130  156.0830  131.8550 N   0  0  0  0  0  0  0  0  0  0  0  0
  146.1420  156.0050  133.8620 O   0  0  0  0  0  0  0  0  0  0  0  0
  148.5180  157.5990  130.4970 H   0  0  0  0  0  0  0  0  0  0  0  0
  147.5278  161.3084  132.8752 H   0  0  0  0  0  0  0  0  0  0  0  0
  144.9434  162.1954  133.7179 H   0  0  0  0  0  0  0  0  0  0  0  0
  142.6698  161.3708  134.4057 H   0  0  0  0  0  0  0  0  0  0  0  0
  142.1931  159.1035  136.6914 H   0  0  0  0  0  0  0  0  0  0  0  0
  139.9479  158.2880  137.4000 H   0  0  0  0  0  0  0  0  0  0  0  0
  138.3027  157.5018  135.6949 H   0  0  0  0  0  0  0  0  0  0  0  0
  141.1542  158.3357  132.5515 H   0  0  0  0  0  0  0  0  0  0  0  0
  143.9815  157.2561  133.7959 H   0  0  0  0  0  0  0  0  0  0  0  0
  147.7820  156.6560  131.1200 H   0  0  0  0  0  0  0  0  0  0  0  0
  147.3770  155.0420  131.8050 H   0  0  0  0  0  0  0  0  0  0  0  0
  1  2  1  0
  2  3  2  0
  2  4  1  0
  4  5  2  0
  5  6  1  0
  6  7  2  0
  7  8  1  0
  8  9  2  0
  9 10  1  0
 10 11  2  0
 11 12  1  0
 12 13  2  0
 13 14  1  0
 14 15  1  0
 14 16  2  0
  9 17  1  0
 17 18  2  0
 18 19  1  0
 19 20  1  0
 20 21  1  0
 20 22  2  0
 19  4  1  0
 18  6  1  0
 16 10  1  0
  1 23  1  0
  5 24  1  0
  7 25  1  0
  8 26  1  0
 11 27  1  0
 12 28  1  0
 13 29  1  0
 16 30  1  0
 17 31  1  0
 21 32  1  0
 21 33  1  0
M  CHG  1   1  -1
M  END
>  <UniqueID>  (71) 
71

>  <SMILES>  (71) 
[NH-]C(=O)c1cc2ccc(-c3cccc(F)c3)cc2n1C(N)=O

>  <Energy>  (71) 
79.64447220793559

>  <Genealogy>  (71) 
[NH-]C(=O)c1cc2ccc(-c3cccc(F)c3)cc2n1C(N)=O (protonated)
[NH-]C(=O)c1cc2ccc(-c3cccc(F)c3)cc2n1C(N)=O (3D coordinates assigned)
[NH-]C(=O)c1cc2ccc(-c3cccc(F)c3)cc2n1C(N)=O (optimized conformer: 79.64447220793559 kcal/mol)

>  <smiles>  (71) 
NC(=O)c1cc2ccc(-c3cccc(F)c3)cc2n1C(N)=O

>  <score_type>  (71) 
oracle

>  <origin>  (71) 
adg

>  <m_score__min__energy>  (71) 
-7.8300000000000001

>  <m_primary>  (71) 
energy

$$$$
71:0
     RDKit          3D

 46 48  0  0  0  0  0  0  0  0999 V2000
  147.6480  154.4920  135.9540 C   0  0  0  0  0  0  0  0  0  0  0  0
  147.3030  154.7780  134.4800 C   0  0  0  0  0  0  0  0  0  0  0  0
  148.1000  153.8140  133.5870 C   0  0  0  0  0  0  0  0  0  0  0  0
  145.7990  154.5640  134.2230 C   0  0  0  0  0  0  0  0  0  0  0  0
  147.6920  156.1110  134.1190 O   0  0  0  0  0  0  0  0  0  0  0  0
  147.3740  156.7730  132.9250 C   0  0  0  0  0  0  0  0  0  0  0  0
  147.3230  156.1490  131.8310 O   0  0  0  0  0  0  0  0  0  0  0  0
  147.0740  158.1770  132.9540 N   0  0  0  0  0  0  0  0  0  0  0  0
  147.9080  159.2170  132.6660 C   0  0  0  0  0  0  0  0  0  0  0  0
  149.2780  159.1030  132.1240 C   0  0  0  0  0  0  0  0  0  0  0  0
  149.8440  157.8160  131.8930 N   0  0  0  0  0  0  0  0  0  0  0  0
  149.9670  160.1300  131.8920 O   0  0  0  0  0  0  0  0  0  0  0  0
  147.2610  160.4330  132.8810 C   0  0  0  0  0  0  0  0  0  0  0  0
  145.9960  160.1040  133.3090 C   0  0  0  0  0  0  0  0  0  0  0  0
  144.9320  160.9200  133.6790 C   0  0  0  0  0  0  0  0  0  0  0  0
  143.7460  160.3040  134.1130 C   0  0  0  0  0  0  0  0  0  0  0  0
  143.6450  158.8890  134.1850 C   0  0  0  0  0  0  0  0  0  0  0  0
  142.3520  158.2500  134.6610 C   0  0  2  0  0  0  0  0  0  0  0  0
  141.8680  157.2150  133.6700 C   0  0  0  0  0  0  0  0  0  0  0  0
  140.9170  157.4980  132.7730 C   0  0  0  0  0  0  0  0  0  0  0  0
  140.2620  158.8190  132.7560 C   0  0  0  0  0  0  0  0  0  0  0  0
  139.0540  159.3530  131.1120 I   0  0  0  0  0  0  0  0  0  0  0  0
  140.4730  159.6960  133.7440 C   0  0  0  0  0  0  0  0  0  0  0  0
  141.2660  159.3100  134.9650 C   0  0  0  0  0  0  0  0  0  0  0  0
  144.7510  158.0960  133.7950 C   0  0  0  0  0  0  0  0  0  0  0  0
  145.9100  158.7380  133.3470 C   0  0  0  0  0  0  0  0  0  0  0  0
  146.9662  155.0572  136.6065 H   0  0  0  0  0  0  0  0  0  0  0  0
  147.5389  153.4159  136.1540 H   0  0  0  0  0  0  0  0  0  0  0  0
  148.6853  154.7988  136.1540 H   0  0  0  0  0  0  0  0  0  0  0  0
  148.6741  153.1196  134.2180 H   0  0  0  0  0  0  0  0  0  0  0  0
  147.4060  153.2439  132.9519 H   0  0  0  0  0  0  0  0  0  0  0  0
  148.7904  154.3885  132.9519 H   0  0  0  0  0  0  0  0  0  0  0  0
  145.2698  154.4887  135.1844 H   0  0  0  0  0  0  0  0  0  0  0  0
  145.4002  155.4144  133.6506 H   0  0  0  0  0  0  0  0  0  0  0  0
  145.6532  153.6361  133.6506 H   0  0  0  0  0  0  0  0  0  0  0  0
  149.2710  157.0410  131.4920 H   0  0  0  0  0  0  0  0  0  0  0  0
  147.6747  161.4422  132.7385 H   0  0  0  0  0  0  0  0  0  0  0  0
  145.0166  162.0158  133.6332 H   0  0  0  0  0  0  0  0  0  0  0  0
  142.8850  160.9253  134.4006 H   0  0  0  0  0  0  0  0  0  0  0  0
  142.5612  157.7328  135.6090 H   0  0  0  0  0  0  0  0  0  0  0  0
  142.3079  156.2069  133.6873 H   0  0  0  0  0  0  0  0  0  0  0  0
  140.6196  156.7352  132.0383 H   0  0  0  0  0  0  0  0  0  0  0  0
  140.0617  160.7130  133.6636 H   0  0  0  0  0  0  0  0  0  0  0  0
  141.7551  160.2100  135.3660 H   0  0  0  0  0  0  0  0  0  0  0  0
  140.5660  158.8701  135.6906 H   0  0  0  0  0  0  0  0  0  0  0  0
  144.6999  156.9982  133.8433 H   0  0  0  0  0  0  0  0  0  0  0  0
  1  2  1  0
  2  3  1  0
  2  4  1  0
  2  5  1  0
  5  6  1  0
  6  7  2  0
  6  8  1  0
  8  9  1  0
  9 10  1  0
 10 11  1  0
 10 12  2  0
  9 13  2  0
 13 14  1  0
 14 15  2  0
 15 16  1  0
 16 17  2  0
 17 18  1  0
 18 19  1  0
 19 20  2  0
 20 21  1  0
 21 22  1  0
 21 23  2  0
 23 24  1  0
 17 25  1  0
 25 26  2  0
 26  8  1  0
 26 14  1  0
 24 18  1  0
  1 27  1  0
  1 28  1  0
  1 29  1  0
  3 30  1  0
  3 31  1  0
  3 32  1  0
  4 33  1  0
  4 34  1  0
  4 35  1  0
 11 36  1  0
 13 37  1  0
 15 38  1  0
 16 39  1  0
 18 40  1  1
 19 41  1  0
 20 42  1  0
 23 43  1  0
 24 44  1  0
 24 45  1  0
 25 46  1  0
M  CHG  1  11  -1
M  END
>  <UniqueID>  (72) 
72

>  <SMILES>  (72) 
CC(C)(C)OC(=O)n1c(C([NH-])=O)cc2ccc([C@@H]3C=CC(I)=CC3)cc21

>  <Energy>  (72) 
81.83020606326724

>  <Genealogy>  (72) 
CC(C)(C)OC(=O)n1c(C([NH-])=O)cc2ccc(C3C=CC(I)=CC3)cc21 (protonated)
CC(C)(C)OC(=O)n1c(C([NH-])=O)cc2ccc([C@@H]3C=CC(I)=CC3)cc21 (chirality)
CC(C)(C)OC(=O)n1c(C([NH-])=O)cc2ccc([C@@H]3C=CC(I)=CC3)cc21 (3D coordinates assigned)
CC(C)(C)OC(=O)n1c(C([NH-])=O)cc2ccc([C@@H]3C=CC(I)=CC3)cc21 (nonaromatic ring conformer: 81.83020606326724 kcal/mol)

>  <smiles>  (72) 
CC(C)(C)OC(=O)n1c(C(N)=O)cc2ccc(C3C=CC(I)=CC3)cc21

>  <score_type>  (72) 
oracle

>  <origin>  (72) 
adg

>  <m_score__min__energy>  (72) 
-9.5099999999999998

>  <m_primary>  (72) 
energy

$$$$
72:0
     RDKit          3D

 75 80  0  0  0  0  0  0  0  0999 V2000
  149.0700  159.1480  132.4200 C   0  0  0  0  0  0  0  0  0  0  0  0
  147.9190  159.9410  131.8120 C   0  0  0  0  0  0  0  0  0  0  0  0
  147.0690  160.4690  132.8280 O   0  0  0  0  0  0  0  0  0  0  0  0
  146.1650  159.7030  133.5680 C   0  0  0  0  0  0  0  0  0  0  0  0
  146.5540  158.6630  134.1680 O   0  0  0  0  0  0  0  0  0  0  0  0
  144.7930  160.1120  133.6750 N   0  0  0  0  0  0  0  0  0  0  0  0
  144.3160  161.3740  133.8520 C   0  0  0  0  0  0  0  0  0  0  0  0
  145.1420  162.5790  134.0310 C   0  0  0  0  0  0  0  0  0  0  0  0
  146.5380  162.4770  134.3030 N   0  0  0  0  0  0  0  0  0  0  0  0
  144.5970  163.7140  133.9860 O   0  0  0  0  0  0  0  0  0  0  0  0
  142.9290  161.3990  133.7440 C   0  0  0  0  0  0  0  0  0  0  0  0
  142.5620  160.0890  133.5190 C   0  0  0  0  0  0  0  0  0  0  0  0
  141.2980  159.5270  133.3610 C   0  0  0  0  0  0  0  0  0  0  0  0
  141.2140  158.1360  133.1760 C   0  0  0  0  0  0  0  0  0  0  0  0
  142.3880  157.3410  133.1460 C   0  0  0  0  0  0  0  0  0  0  0  0
  142.2850  155.8470  132.9840 C   0  0  0  0  0  0  0  0  0  0  0  0
  141.0140  155.2620  133.6220 C   0  0  0  0  0  0  0  0  0  0  0  0
  141.1300  153.7850  133.9160 C   0  0  0  0  0  0  0  0  0  0  0  0
  140.6670  152.8830  133.0230 N   0  0  0  0  0  0  0  0  0  0  0  0
  141.0540  151.6920  133.5040 C   0  0  0  0  0  0  0  0  0  0  0  0
  141.7610  151.8830  134.6620 C   0  0  0  0  0  0  0  0  0  0  0  0
  141.7870  153.2020  134.9690 N   0  0  0  0  0  0  0  0  0  0  0  0
  142.6600  153.8120  136.0200 C   0  0  0  0  0  0  0  0  0  0  0  0
  142.7530  152.9090  137.2750 C   0  0  0  0  0  0  0  0  0  0  0  0
  143.8440  153.0110  138.1710 C   0  0  0  0  0  0  0  0  0  0  0  0
  143.8710  152.2730  139.3580 C   0  0  0  0  0  0  0  0  0  0  0  0
  142.7960  151.4530  139.6980 C   0  0  0  0  0  0  0  0  0  0  0  0
  141.6820  151.3850  138.8620 C   0  0  0  0  0  0  0  0  0  0  0  0
  141.6470  152.1230  137.6770 C   0  0  0  0  0  0  0  0  0  0  0  0
  142.0550  155.1060  136.5940 C   0  0  0  0  0  0  0  0  0  0  0  0
  142.4060  156.3590  136.0440 C   0  0  0  0  0  0  0  0  0  0  0  0
  141.7940  157.5350  136.4870 C   0  0  0  0  0  0  0  0  0  0  0  0
  140.7780  157.4790  137.4420 C   0  0  0  0  0  0  0  0  0  0  0  0
  140.3500  156.2450  137.9290 C   0  0  0  0  0  0  0  0  0  0  0  0
  140.9600  155.0670  137.4880 C   0  0  0  0  0  0  0  0  0  0  0  0
  144.0440  153.9840  135.3460 C   0  0  0  0  0  0  0  0  0  0  0  0
  145.0720  154.7890  135.8900 C   0  0  0  0  0  0  0  0  0  0  0  0
  146.2750  154.9800  135.2040 C   0  0  0  0  0  0  0  0  0  0  0  0
  146.4640  154.4140  133.9460 C   0  0  0  0  0  0  0  0  0  0  0  0
  145.4460  153.6580  133.3640 C   0  0  0  0  0  0  0  0  0  0  0  0
  144.2440  153.4600  134.0460 C   0  0  0  0  0  0  0  0  0  0  0  0
  143.6560  157.9490  133.2850 C   0  0  0  0  0  0  0  0  0  0  0  0
  143.7060  159.3340  133.4730 C   0  0  0  0  0  0  0  0  0  0  0  0
  149.0062  159.1919  133.5173 H   0  0  0  0  0  0  0  0  0  0  0  0
  149.0077  158.1003  132.0908 H   0  0  0  0  0  0  0  0  0  0  0  0
  150.0268  159.5795  132.0908 H   0  0  0  0  0  0  0  0  0  0  0  0
  148.3285  160.7715  131.2182 H   0  0  0  0  0  0  0  0  0  0  0  0
  147.3271  159.2670  131.1753 H   0  0  0  0  0  0  0  0  0  0  0  0
  147.1200  163.3380  134.4000 H   0  0  0  0  0  0  0  0  0  0  0  0
  146.9710  161.5500  134.5140 H   0  0  0  0  0  0  0  0  0  0  0  0
  142.2679  162.2748  133.8214 H   0  0  0  0  0  0  0  0  0  0  0  0
  140.3931  160.1521  133.3803 H   0  0  0  0  0  0  0  0  0  0  0  0
  140.2297  157.6604  133.0535 H   0  0  0  0  0  0  0  0  0  0  0  0
  142.2795  155.6100  131.9098 H   0  0  0  0  0  0  0  0  0  0  0  0
  143.1484  155.3990  133.4977 H   0  0  0  0  0  0  0  0  0  0  0  0
  140.8183  155.7932  134.5651 H   0  0  0  0  0  0  0  0  0  0  0  0
  140.1933  155.3915  132.9011 H   0  0  0  0  0  0  0  0  0  0  0  0
  140.8381  150.7172  133.0422 H   0  0  0  0  0  0  0  0  0  0  0  0
  142.2357  151.0858  135.2529 H   0  0  0  0  0  0  0  0  0  0  0  0
  144.6827  153.6806  137.9299 H   0  0  0  0  0  0  0  0  0  0  0  0
  144.7428  152.3395  140.0255 H   0  0  0  0  0  0  0  0  0  0  0  0
  142.8265  150.8606  140.6243 H   0  0  0  0  0  0  0  0  0  0  0  0
  140.8283  150.7481  139.1368 H   0  0  0  0  0  0  0  0  0  0  0  0
  140.7461  152.0929  137.0465 H   0  0  0  0  0  0  0  0  0  0  0  0
  143.1718  156.4099  135.2560 H   0  0  0  0  0  0  0  0  0  0  0  0
  142.1139  158.5065  136.0821 H   0  0  0  0  0  0  0  0  0  0  0  0
  140.3157  158.4069  137.8098 H   0  0  0  0  0  0  0  0  0  0  0  0
  139.5308  156.1981  138.6616 H   0  0  0  0  0  0  0  0  0  0  0  0
  140.5829  154.0960  137.8414 H   0  0  0  0  0  0  0  0  0  0  0  0
  144.9227  155.2718  136.8671 H   0  0  0  0  0  0  0  0  0  0  0  0
  147.0760  155.5802  135.6602 H   0  0  0  0  0  0  0  0  0  0  0  0
  147.4141  154.5626  133.4120 H   0  0  0  0  0  0  0  0  0  0  0  0
  145.5906  153.2174  132.3665 H   0  0  0  0  0  0  0  0  0  0  0  0
  143.4380  152.8867  133.5648 H   0  0  0  0  0  0  0  0  0  0  0  0
  144.5777  157.3499  133.2464 H   0  0  0  0  0  0  0  0  0  0  0  0
  1  2  1  0
  2  3  1  0
  3  4  1  0
  4  5  2  0
  4  6  1  0
  6  7  1  0
  7  8  1  0
  8  9  1  0
  8 10  2  0
  7 11  2  0
 11 12  1  0
 12 13  2  0
 13 14  1  0
 14 15  2  0
 15 16  1  0
 16 17  1  0
 17 18  1  0
 18 19  2  0
 19 20  1  0
 20 21  2  0
 21 22  1  0
 22 23  1  0
 23 24  1  0
 24 25  2  0
 25 26  1  0
 26 27  2  0
 27 28  1  0
 28 29  2  0
 23 30  1  0
 30 31  2  0
 31 32  1  0
 32 33  2  0
 33 34  1  0
 34 35  2  0
 23 36  1  0
 36 37  2  0
 37 38  1  0
 38 39  2  0
 39 40  1  0
 40 41  2  0
 15 42  1  0
 42 43  2  0
 43  6  1  0
 43 12  1  0
 22 18  1  0
 29 24  1  0
 35 30  1  0
 41 36  1  0
  1 44  1  0
  1 45  1  0
  1 46  1  0
  2 47  1  0
  2 48  1  0
  9 49  1  0
  9 50  1  0
 11 51  1  0
 13 52  1  0
 14 53  1  0
 16 54  1  0
 16 55  1  0
 17 56  1  0
 17 57  1  0
 20 58  1  0
 21 59  1  0
 25 60  1  0
 26 61  1  0
 27 62  1  0
 28 63  1  0
 29 64  1  0
 31 65  1  0
 32 66  1  0
 33 67  1  0
 34 68  1  0
 35 69  1  0
 37 70  1  0
 38 71  1  0
 39 72  1  0
 40 73  1  0
 41 74  1  0
 42 75  1  0
M  END
>  <UniqueID>  (73) 
73

>  <SMILES>  (73) 
CCOC(=O)n1c(C(N)=O)cc2ccc(CCc3nccn3C(c3ccccc3)(c3ccccc3)c3ccccc3)cc21

>  <Energy>  (73) 
170.7743343305816

>  <Genealogy>  (73) 
CCOC(=O)n1c(C(N)=O)cc2ccc(CCc3nccn3C(c3ccccc3)(c3ccccc3)c3ccccc3)cc21 (3D coordinates assigned)
CCOC(=O)n1c(C(N)=O)cc2ccc(CCc3nccn3C(c3ccccc3)(c3ccccc3)c3ccccc3)cc21 (optimized conformer: 170.7743343305816 kcal/mol)

>  <smiles>  (73) 
CCOC(=O)n1c(C(N)=O)cc2ccc(CCc3nccn3C(c3ccccc3)(c3ccccc3)c3ccccc3)cc21

>  <score_type>  (73) 
oracle

>  <origin>  (73) 
adg

>  <m_score__min__energy>  (73) 
-11.49

>  <m_primary>  (73) 
energy

$$$$
73:0
     RDKit          3D

 34 35  0  0  0  0  0  0  0  0999 V2000
  149.9760  160.1420  128.9170 C   0  0  0  0  0  0  0  0  0  0  0  0
  149.2570  160.4360  130.2380 C   0  0  0  0  0  0  0  0  0  0  0  0
  149.2170  161.9510  130.4880 C   0  0  0  0  0  0  0  0  0  0  0  0
  149.9470  159.6860  131.3980 C   0  0  0  0  0  0  0  0  0  0  0  0
  148.9670  158.8930  132.2230 C   0  0  0  0  0  0  0  0  0  0  0  0
  147.9720  159.5630  132.9780 C   0  0  0  0  0  0  0  0  0  0  0  0
  147.0600  158.8390  133.7630 C   0  0  0  0  0  0  0  0  0  0  0  0
  147.1750  157.4510  133.7840 C   0  0  0  0  0  0  0  0  0  0  0  0
  146.4160  156.5110  134.4410 C   0  0  0  0  0  0  0  0  0  0  0  0
  146.9770  155.2810  134.1010 C   0  0  0  0  0  0  0  0  0  0  0  0
  146.5210  153.9950  134.6690 C   0  0  0  0  0  0  0  0  0  0  0  0
  145.9610  152.9840  133.8360 N   0  0  0  0  0  0  0  0  0  0  0  0
  146.6740  153.7670  135.8990 O   0  0  0  0  0  0  0  0  0  0  0  0
  148.0360  155.4540  133.2590 N   0  0  0  0  0  0  0  0  0  0  0  0
  148.8220  154.4420  132.6110 C   0  0  0  0  0  0  0  0  0  0  0  0
  148.2450  153.1750  132.2990 N   0  0  0  0  0  0  0  0  0  0  0  0
  150.0160  154.6780  132.2860 O   0  0  0  0  0  0  0  0  0  0  0  0
  148.1450  156.7890  133.0780 C   0  0  0  0  0  0  0  0  0  0  0  0
  149.0550  157.4830  132.2730 C   0  0  0  0  0  0  0  0  0  0  0  0
  150.9755  159.7333  129.1266 H   0  0  0  0  0  0  0  0  0  0  0  0
  149.3944  159.4095  128.3381 H   0  0  0  0  0  0  0  0  0  0  0  0
  150.0742  161.0722  128.3381 H   0  0  0  0  0  0  0  0  0  0  0  0
  148.2193  160.0760  130.1774 H   0  0  0  0  0  0  0  0  0  0  0  0
  149.2119  162.1439  131.5709 H   0  0  0  0  0  0  0  0  0  0  0  0
  150.1030  162.4207  130.0361 H   0  0  0  0  0  0  0  0  0  0  0  0
  148.3074  162.3733  130.0361 H   0  0  0  0  0  0  0  0  0  0  0  0
  150.6965  158.9982  130.9795 H   0  0  0  0  0  0  0  0  0  0  0  0
  150.4146  160.4345  132.0546 H   0  0  0  0  0  0  0  0  0  0  0  0
  147.9136  160.6611  132.9488 H   0  0  0  0  0  0  0  0  0  0  0  0
  146.2790  159.3521  134.3433 H   0  0  0  0  0  0  0  0  0  0  0  0
  145.5505  156.6913  135.0955 H   0  0  0  0  0  0  0  0  0  0  0  0
  146.5650  152.2570  133.3940 H   0  0  0  0  0  0  0  0  0  0  0  0
  147.2300  153.0920  132.0670 H   0  0  0  0  0  0  0  0  0  0  0  0
  149.8197  156.9449  131.6936 H   0  0  0  0  0  0  0  0  0  0  0  0
  1  2  1  0
  2  3  1  0
  2  4  1  0
  4  5  1  0
  5  6  2  0
  6  7  1  0
  7  8  2  0
  8  9  1  0
  9 10  2  0
 10 11  1  0
 11 12  1  0
 11 13  2  0
 10 14  1  0
 14 15  1  0
 15 16  1  0
 15 17  2  0
 14 18  1  0
 18 19  2  0
 19  5  1  0
 18  8  1  0
  1 20  1  0
  1 21  1  0
  1 22  1  0
  2 23  1  0
  3 24  1  0
  3 25  1  0
  3 26  1  0
  4 27  1  0
  4 28  1  0
  6 29  1  0
  7 30  1  0
  9 31  1  0
 12 32  1  0
 16 33  1  0
 19 34  1  0
M  CHG  2  12  -1  16  -1
M  END
>  <UniqueID>  (74) 
74

>  <SMILES>  (74) 
CC(C)Cc1ccc2cc(C([NH-])=O)n(C([NH-])=O)c2c1

>  <Energy>  (74) 
67.28062511932991

>  <Genealogy>  (74) 
CC(C)Cc1ccc2cc(C([NH-])=O)n(C([NH-])=O)c2c1 (protonated)
CC(C)Cc1ccc2cc(C([NH-])=O)n(C([NH-])=O)c2c1 (3D coordinates assigned)
CC(C)Cc1ccc2cc(C([NH-])=O)n(C([NH-])=O)c2c1 (optimized conformer: 67.28062511932991 kcal/mol)

>  <smiles>  (74) 
CC(C)Cc1ccc2cc(C(N)=O)n(C(N)=O)c2c1

>  <score_type>  (74) 
oracle

>  <origin>  (74) 
adg

>  <m_score__min__energy>  (74) 
-7.0300000000000002

>  <m_primary>  (74) 
energy

$$$$
74:0
     RDKit          3D

 32 33  0  0  0  0  0  0  0  0999 V2000
  137.3230  160.0710  130.7060 C   0  0  0  0  0  0  0  0  0  0  0  0
  139.0680  159.6990  131.0800 S   0  0  0  0  0  0  0  0  0  0  0  0
  138.7340  158.5230  132.4450 C   0  0  0  0  0  0  0  0  0  0  0  0
  139.5330  158.8840  133.7010 C   0  0  0  0  0  0  0  0  0  0  0  0
  140.9930  158.5430  133.5520 C   0  0  0  0  0  0  0  0  0  0  0  0
  141.3880  157.2170  133.2410 C   0  0  0  0  0  0  0  0  0  0  0  0
  142.7480  156.8850  133.1270 C   0  0  0  0  0  0  0  0  0  0  0  0
  143.6860  157.8910  133.3430 C   0  0  0  0  0  0  0  0  0  0  0  0
  145.0590  157.8470  133.2710 C   0  0  0  0  0  0  0  0  0  0  0  0
  145.4840  159.1360  133.5730 C   0  0  0  0  0  0  0  0  0  0  0  0
  146.9060  159.5190  133.6740 C   0  0  0  0  0  0  0  0  0  0  0  0
  147.3390  160.8450  133.3640 N   0  0  0  0  0  0  0  0  0  0  0  0
  147.7450  158.6790  134.0970 O   0  0  0  0  0  0  0  0  0  0  0  0
  144.4180  159.9540  133.8100 N   0  0  0  0  0  0  0  0  0  0  0  0
  144.4440  161.3740  134.0340 C   0  0  0  0  0  0  0  0  0  0  0  0
  145.2890  161.8820  134.8160 O   0  0  0  0  0  0  0  0  0  0  0  0
  143.5300  162.2020  133.3930 O   0  0  0  0  0  0  0  0  0  0  0  0
  143.3220  159.1740  133.6670 C   0  0  0  0  0  0  0  0  0  0  0  0
  141.9730  159.5370  133.7640 C   0  0  0  0  0  0  0  0  0  0  0  0
  136.7639  160.1902  131.6458 H   0  0  0  0  0  0  0  0  0  0  0  0
  137.2633  161.0020  130.1233 H   0  0  0  0  0  0  0  0  0  0  0  0
  136.8888  159.2452  130.1233 H   0  0  0  0  0  0  0  0  0  0  0  0
  137.6606  158.5476  132.6842 H   0  0  0  0  0  0  0  0  0  0  0  0
  139.0378  157.5176  132.1182 H   0  0  0  0  0  0  0  0  0  0  0  0
  139.4366  159.9640  133.8862 H   0  0  0  0  0  0  0  0  0  0  0  0
  139.1297  158.3013  134.5423 H   0  0  0  0  0  0  0  0  0  0  0  0
  140.6228  156.4418  133.0877 H   0  0  0  0  0  0  0  0  0  0  0  0
  143.0624  155.8615  132.8748 H   0  0  0  0  0  0  0  0  0  0  0  0
  145.6869  156.9775  133.0266 H   0  0  0  0  0  0  0  0  0  0  0  0
  146.6500  161.6060  133.1720 H   0  0  0  0  0  0  0  0  0  0  0  0
  148.3530  161.0880  133.4070 H   0  0  0  0  0  0  0  0  0  0  0  0
  141.6838  160.5718  133.9997 H   0  0  0  0  0  0  0  0  0  0  0  0
  1  2  1  0
  2  3  1  0
  3  4  1  0
  4  5  1  0
  5  6  2  0
  6  7  1  0
  7  8  2  0
  8  9  1  0
  9 10  2  0
 10 11  1  0
 11 12  1  0
 11 13  2  0
 10 14  1  0
 14 15  1  0
 15 16  2  0
 15 17  1  0
 14 18  1  0
 18 19  2  0
 19  5  1  0
 18  8  1  0
  1 20  1  0
  1 21  1  0
  1 22  1  0
  3 23  1  0
  3 24  1  0
  4 25  1  0
  4 26  1  0
  6 27  1  0
  7 28  1  0
  9 29  1  0
 12 30  1  0
 12 31  1  0
 19 32  1  0
M  CHG  1  17  -1
M  END
>  <UniqueID>  (75) 
75

>  <SMILES>  (75) 
CSCCc1ccc2cc(C(N)=O)n(C(=O)[O-])c2c1

>  <Energy>  (75) 
66.56609600457817

>  <Genealogy>  (75) 
CSCCc1ccc2cc(C(N)=O)n(C(=O)[O-])c2c1 (protonated)
CSCCc1ccc2cc(C(N)=O)n(C(=O)[O-])c2c1 (3D coordinates assigned)
CSCCc1ccc2cc(C(N)=O)n(C(=O)[O-])c2c1 (optimized conformer: 66.56609600457817 kcal/mol)

>  <smiles>  (75) 
CSCCc1ccc2cc(C(N)=O)n(C(=O)O)c2c1

>  <score_type>  (75) 
oracle

>  <origin>  (75) 
adg

>  <m_score__min__energy>  (75) 
-6.4900000000000002

>  <m_primary>  (75) 
energy

$$$$
75:0
     RDKit          3D

 65 67  0  0  0  0  0  0  0  0999 V2000
  141.5370  159.3600  136.4810 C   0  0  0  0  0  0  0  0  0  0  0  0
  141.8560  159.0110  135.0160 C   0  0  0  0  0  0  0  0  0  0  0  0
  141.2870  160.1140  134.1090 C   0  0  0  0  0  0  0  0  0  0  0  0
  141.2170  157.6660  134.6240 C   0  0  0  0  0  0  0  0  0  0  0  0
  143.2740  158.9810  134.8020 O   0  0  0  0  0  0  0  0  0  0  0  0
  143.9310  158.7590  133.5830 C   0  0  0  0  0  0  0  0  0  0  0  0
  143.3350  158.2220  132.6120 O   0  0  0  0  0  0  0  0  0  0  0  0
  145.3150  159.1210  133.4600 N   0  0  0  0  0  0  0  0  0  0  0  0
  145.8780  160.3580  133.5730 C   0  0  0  0  0  0  0  0  0  0  0  0
  145.1720  161.6030  133.9390 C   0  0  0  0  0  0  0  0  0  0  0  0
  145.8820  162.6570  134.5860 N   0  0  0  0  0  0  0  0  0  0  0  0
  143.9380  161.7350  133.7200 O   0  0  0  0  0  0  0  0  0  0  0  0
  147.2570  160.2830  133.3840 C   0  0  0  0  0  0  0  0  0  0  0  0
  147.5250  158.9520  133.1630 C   0  0  0  0  0  0  0  0  0  0  0  0
  148.7350  158.3090  132.9220 C   0  0  0  0  0  0  0  0  0  0  0  0
  148.7130  156.9200  132.7160 C   0  0  0  0  0  0  0  0  0  0  0  0
  147.4890  156.2010  132.7450 C   0  0  0  0  0  0  0  0  0  0  0  0
  147.4760  154.7820  132.4920 N   0  0  0  0  0  0  0  0  0  0  0  0
  146.5250  154.1160  133.3950 C   0  0  0  0  0  0  0  0  0  0  0  0
  145.4920  153.3100  132.6000 C   0  0  0  0  0  0  0  0  0  0  0  0
  144.5670  152.6680  133.4770 O   0  0  0  0  0  0  0  0  0  0  0  0
  143.3740  152.0390  133.0820 C   0  0  0  0  0  0  0  0  0  0  0  0
  142.1820  152.7670  133.1690 C   0  0  0  0  0  0  0  0  0  0  0  0
  140.9640  152.1900  132.7950 C   0  0  0  0  0  0  0  0  0  0  0  0
  140.9240  150.8720  132.3160 C   0  0  0  0  0  0  0  0  0  0  0  0
  139.6120  150.2340  131.9460 C   0  0  0  0  0  0  0  0  0  0  0  0
  139.7540  148.7100  131.8780 C   0  0  0  0  0  0  0  0  0  0  0  0
  140.2300  148.2630  130.4930 C   0  0  0  0  0  0  0  0  0  0  0  0
  139.0670  147.9290  129.6130 C   0  0  0  0  0  0  0  0  0  0  0  0
  138.3550  148.8490  129.1290 O   0  0  0  0  0  0  0  0  0  0  0  0
  138.7790  146.6040  129.3100 O   0  0  0  0  0  0  0  0  0  0  0  0
  142.1140  150.1340  132.2410 C   0  0  0  0  0  0  0  0  0  0  0  0
  143.3310  150.7110  132.6150 C   0  0  0  0  0  0  0  0  0  0  0  0
  146.2790  156.8930  132.9840 C   0  0  0  0  0  0  0  0  0  0  0  0
  146.3360  158.2720  133.2120 C   0  0  0  0  0  0  0  0  0  0  0  0
  142.1269  158.7146  137.1485 H   0  0  0  0  0  0  0  0  0  0  0  0
  141.7910  160.4133  136.6707 H   0  0  0  0  0  0  0  0  0  0  0  0
  140.4651  159.2014  136.6707 H   0  0  0  0  0  0  0  0  0  0  0  0
  140.8707  160.9209  134.7300 H   0  0  0  0  0  0  0  0  0  0  0  0
  142.0897  160.5169  133.4740 H   0  0  0  0  0  0  0  0  0  0  0  0
  140.4934  159.6934  133.4740 H   0  0  0  0  0  0  0  0  0  0  0  0
  140.9515  157.1072  135.5336 H   0  0  0  0  0  0  0  0  0  0  0  0
  140.3102  157.8504  134.0292 H   0  0  0  0  0  0  0  0  0  0  0  0
  141.9327  157.0795  134.0292 H   0  0  0  0  0  0  0  0  0  0  0  0
  146.9250  162.6890  134.5750 H   0  0  0  0  0  0  0  0  0  0  0  0
  147.9786  161.1129  133.4068 H   0  0  0  0  0  0  0  0  0  0  0  0
  149.6800  158.8714  132.8937 H   0  0  0  0  0  0  0  0  0  0  0  0
  149.6548  156.3829  132.5301 H   0  0  0  0  0  0  0  0  0  0  0  0
  148.4350  154.3830  132.6320 H   0  0  0  0  0  0  0  0  0  0  0  0
  147.1960  154.6120  131.4980 H   0  0  0  0  0  0  0  0  0  0  0  0
  147.0763  153.4370  134.0621 H   0  0  0  0  0  0  0  0  0  0  0  0
  145.9981  154.8839  133.9803 H   0  0  0  0  0  0  0  0  0  0  0  0
  144.9429  153.9883  131.9303 H   0  0  0  0  0  0  0  0  0  0  0  0
  146.0182  152.5398  132.0169 H   0  0  0  0  0  0  0  0  0  0  0  0
  142.2032  153.8040  133.5354 H   0  0  0  0  0  0  0  0  0  0  0  0
  140.0340  152.7718  132.8767 H   0  0  0  0  0  0  0  0  0  0  0  0
  138.8575  150.4934  132.7033 H   0  0  0  0  0  0  0  0  0  0  0  0
  139.3028  150.6059  130.9580 H   0  0  0  0  0  0  0  0  0  0  0  0
  140.4850  148.3831  132.6321 H   0  0  0  0  0  0  0  0  0  0  0  0
  138.7702  148.2580  132.0725 H   0  0  0  0  0  0  0  0  0  0  0  0
  140.8097  149.0759  130.0313 H   0  0  0  0  0  0  0  0  0  0  0  0
  140.8542  147.3646  130.6080 H   0  0  0  0  0  0  0  0  0  0  0  0
  142.0896  149.0934  131.8852 H   0  0  0  0  0  0  0  0  0  0  0  0
  144.2593  150.1252  132.5443 H   0  0  0  0  0  0  0  0  0  0  0  0
  145.3168  156.3600  132.9904 H   0  0  0  0  0  0  0  0  0  0  0  0
  1  2  1  0
  2  3  1  0
  2  4  1  0
  2  5  1  0
  5  6  1  0
  6  7  2  0
  6  8  1  0
  8  9  1  0
  9 10  1  0
 10 11  1  0
 10 12  2  0
  9 13  2  0
 13 14  1  0
 14 15  2  0
 15 16  1  0
 16 17  2  0
 17 18  1  0
 18 19  1  0
 19 20  1  0
 20 21  1  0
 21 22  1  0
 22 23  2  0
 23 24  1  0
 24 25  2  0
 25 26  1  0
 26 27  1  0
 27 28  1  0
 28 29  1  0
 29 30  2  0
 29 31  1  0
 25 32  1  0
 32 33  2  0
 17 34  1  0
 34 35  2  0
 35  8  1  0
 35 14  1  0
 33 22  1  0
  1 36  1  0
  1 37  1  0
  1 38  1  0
  3 39  1  0
  3 40  1  0
  3 41  1  0
  4 42  1  0
  4 43  1  0
  4 44  1  0
 11 45  1  0
 13 46  1  0
 15 47  1  0
 16 48  1  0
 18 49  1  0
 18 50  1  0
 19 51  1  0
 19 52  1  0
 20 53  1  0
 20 54  1  0
 23 55  1  0
 24 56  1  0
 26 57  1  0
 26 58  1  0
 27 59  1  0
 27 60  1  0
 28 61  1  0
 28 62  1  0
 32 63  1  0
 33 64  1  0
 34 65  1  0
M  CHG  3  11  -1  18   1  31  -1
M  END
>  <UniqueID>  (76) 
76

>  <SMILES>  (76) 
CC(C)(C)OC(=O)n1c(C([NH-])=O)cc2ccc([NH2+]CCOc3ccc(CCCC(=O)[O-])cc3)cc21

>  <Energy>  (76) 
93.68435772467396

>  <Genealogy>  (76) 
CC(C)(C)OC(=O)n1c(C([NH-])=O)cc2ccc([NH2+]CCOc3ccc(CCCC(=O)[O-])cc3)cc21 (protonated)
CC(C)(C)OC(=O)n1c(C([NH-])=O)cc2ccc([NH2+]CCOc3ccc(CCCC(=O)[O-])cc3)cc21 (3D coordinates assigned)
CC(C)(C)OC(=O)n1c(C([NH-])=O)cc2ccc([NH2+]CCOc3ccc(CCCC(=O)[O-])cc3)cc21 (optimized conformer: 93.68435772467396 kcal/mol)

>  <smiles>  (76) 
CC(C)(C)OC(=O)n1c(C(N)=O)cc2ccc(NCCOc3ccc(CCCC(=O)O)cc3)cc21

>  <score_type>  (76) 
oracle

>  <origin>  (76) 
adg

>  <m_score__min__energy>  (76) 
-10

>  <m_primary>  (76) 
energy

$$$$
76:0
     RDKit          3D

 27 28  0  0  0  0  0  0  0  0999 V2000
  149.4360  160.3570  130.9230 C   0  0  0  0  0  0  0  0  0  0  0  0
  149.3870  159.7250  132.3100 C   0  0  0  0  0  0  0  0  0  0  0  0
  147.9820  159.3190  132.6600 C   0  0  0  0  0  0  0  0  0  0  0  0
  147.6070  157.9520  132.6250 C   0  0  0  0  0  0  0  0  0  0  0  0
  146.3100  157.5570  132.9930 C   0  0  0  0  0  0  0  0  0  0  0  0
  145.4150  158.5450  133.3910 C   0  0  0  0  0  0  0  0  0  0  0  0
  144.1140  158.4350  133.8250 C   0  0  0  0  0  0  0  0  0  0  0  0
  143.7080  159.7380  134.1080 C   0  0  0  0  0  0  0  0  0  0  0  0
  142.3350  160.0880  134.5270 C   0  0  0  0  0  0  0  0  0  0  0  0
  141.5430  160.9500  133.7110 N   0  0  0  0  0  0  0  0  0  0  0  0
  141.8640  159.6660  135.6150 O   0  0  0  0  0  0  0  0  0  0  0  0
  144.7210  160.6180  133.8660 N   0  0  0  0  0  0  0  0  0  0  0  0
  144.7310  162.0380  134.0900 C   0  0  0  0  0  0  0  0  0  0  0  0
  145.5560  162.5510  134.8900 O   0  0  0  0  0  0  0  0  0  0  0  0
  143.8460  162.8630  133.4060 O   0  0  0  0  0  0  0  0  0  0  0  0
  145.7590  159.8720  133.4240 C   0  0  0  0  0  0  0  0  0  0  0  0
  147.0490  160.2930  133.0820 C   0  0  0  0  0  0  0  0  0  0  0  0
  149.5207  161.4494  131.0206 H   0  0  0  0  0  0  0  0  0  0  0  0
  150.3068  159.9693  130.3740 H   0  0  0  0  0  0  0  0  0  0  0  0
  148.5159  160.1082  130.3740 H   0  0  0  0  0  0  0  0  0  0  0  0
  150.0341  158.8356  132.3246 H   0  0  0  0  0  0  0  0  0  0  0  0
  149.7358  160.4630  133.0473 H   0  0  0  0  0  0  0  0  0  0  0  0
  148.3380  157.1941  132.3069 H   0  0  0  0  0  0  0  0  0  0  0  0
  146.0112  156.4987  132.9672 H   0  0  0  0  0  0  0  0  0  0  0  0
  143.5205  157.5145  133.9269 H   0  0  0  0  0  0  0  0  0  0  0  0
  141.9450  161.8240  133.3040 H   0  0  0  0  0  0  0  0  0  0  0  0
  147.3297  161.3550  133.1402 H   0  0  0  0  0  0  0  0  0  0  0  0
  1  2  1  0
  2  3  1  0
  3  4  2  0
  4  5  1  0
  5  6  2  0
  6  7  1  0
  7  8  2  0
  8  9  1  0
  9 10  1  0
  9 11  2  0
  8 12  1  0
 12 13  1  0
 13 14  2  0
 13 15  1  0
 12 16  1  0
 16 17  2  0
 17  3  1  0
 16  6  1  0
  1 18  1  0
  1 19  1  0
  1 20  1  0
  2 21  1  0
  2 22  1  0
  4 23  1  0
  5 24  1  0
  7 25  1  0
 10 26  1  0
 17 27  1  0
M  CHG  2  10  -1  15  -1
M  END
>  <UniqueID>  (77) 
77

>  <SMILES>  (77) 
CCc1ccc2cc(C([NH-])=O)n(C(=O)[O-])c2c1

>  <Energy>  (77) 
63.448184312740814

>  <Genealogy>  (77) 
CCc1ccc2cc(C([NH-])=O)n(C(=O)[O-])c2c1 (protonated)
CCc1ccc2cc(C([NH-])=O)n(C(=O)[O-])c2c1 (3D coordinates assigned)
CCc1ccc2cc(C([NH-])=O)n(C(=O)[O-])c2c1 (optimized conformer: 63.448184312740814 kcal/mol)

>  <smiles>  (77) 
CCc1ccc2cc(C(N)=O)n(C(=O)O)c2c1

>  <score_type>  (77) 
oracle

>  <origin>  (77) 
adg

>  <m_score__min__energy>  (77) 
-6.25

>  <m_primary>  (77) 
energy

$$$$
77:0
     RDKit          3D

 41 42  0  0  0  0  0  0  0  0999 V2000
  145.6910  162.7420  134.4900 C   0  0  0  0  0  0  0  0  0  0  0  0
  144.3630  162.5700  133.7620 C   0  0  0  0  0  0  0  0  0  0  0  0
  143.9500  161.1220  133.7450 C   0  0  0  0  0  0  0  0  0  0  0  0
  142.6070  160.7620  134.0170 C   0  0  0  0  0  0  0  0  0  0  0  0
  142.2080  159.4160  133.9850 C   0  0  0  0  0  0  0  0  0  0  0  0
  143.1650  158.4580  133.6640 C   0  0  0  0  0  0  0  0  0  0  0  0
  143.0540  157.0890  133.5770 C   0  0  0  0  0  0  0  0  0  0  0  0
  144.3230  156.6360  133.2180 C   0  0  0  0  0  0  0  0  0  0  0  0
  144.6410  155.2220  132.9210 C   0  0  0  0  0  0  0  0  0  0  0  0
  145.6700  154.8850  131.9880 N   0  0  0  0  0  0  0  0  0  0  0  0
  144.0260  154.2970  133.5150 O   0  0  0  0  0  0  0  0  0  0  0  0
  145.1840  157.6860  133.0900 N   0  0  0  0  0  0  0  0  0  0  0  0
  146.5860  157.6400  132.7810 C   0  0  0  0  0  0  0  0  0  0  0  0
  147.2580  156.6150  133.0730 O   0  0  0  0  0  0  0  0  0  0  0  0
  147.1910  158.7480  132.1700 O   0  0  0  0  0  0  0  0  0  0  0  0
  148.4830  159.2910  132.4770 C   0  0  0  0  0  0  0  0  0  0  0  0
  149.5970  158.4260  131.8580 C   0  0  0  0  0  0  0  0  0  0  0  0
  148.5430  160.6960  131.8590 C   0  0  0  0  0  0  0  0  0  0  0  0
  148.6710  159.4110  134.0020 C   0  0  0  0  0  0  0  0  0  0  0  0
  144.4610  158.7930  133.3660 C   0  0  0  0  0  0  0  0  0  0  0  0
  144.8920  160.1250  133.4110 C   0  0  0  0  0  0  0  0  0  0  0  0
  145.5192  162.7198  135.5763 H   0  0  0  0  0  0  0  0  0  0  0  0
  146.3715  161.9245  134.2096 H   0  0  0  0  0  0  0  0  0  0  0  0
  146.1407  163.7059  134.2096 H   0  0  0  0  0  0  0  0  0  0  0  0
  143.5901  163.1601  134.2762 H   0  0  0  0  0  0  0  0  0  0  0  0
  144.4804  162.9169  132.7247 H   0  0  0  0  0  0  0  0  0  0  0  0
  141.8705  161.5435  134.2553 H   0  0  0  0  0  0  0  0  0  0  0  0
  141.1700  159.1275  134.2070 H   0  0  0  0  0  0  0  0  0  0  0  0
  142.1545  156.4808  133.7533 H   0  0  0  0  0  0  0  0  0  0  0  0
  146.1640  155.6190  131.4360 H   0  0  0  0  0  0  0  0  0  0  0  0
  145.9130  153.8840  131.8160 H   0  0  0  0  0  0  0  0  0  0  0  0
  150.1914  157.9645  132.6603 H   0  0  0  0  0  0  0  0  0  0  0  0
  149.1468  157.6385  131.2358 H   0  0  0  0  0  0  0  0  0  0  0  0
  150.2484  159.0573  131.2358 H   0  0  0  0  0  0  0  0  0  0  0  0
  148.5751  161.4482  132.6609 H   0  0  0  0  0  0  0  0  0  0  0  0
  149.4457  160.7846  131.2367 H   0  0  0  0  0  0  0  0  0  0  0  0
  147.6511  160.8613  131.2367 H   0  0  0  0  0  0  0  0  0  0  0  0
  147.8507  158.8874  134.5149 H   0  0  0  0  0  0  0  0  0  0  0  0
  149.6314  158.9585  134.2898 H   0  0  0  0  0  0  0  0  0  0  0  0
  148.6650  160.4727  134.2898 H   0  0  0  0  0  0  0  0  0  0  0  0
  145.9375  160.3874  133.1917 H   0  0  0  0  0  0  0  0  0  0  0  0
  1  2  1  0
  2  3  1  0
  3  4  2  0
  4  5  1  0
  5  6  2  0
  6  7  1  0
  7  8  2  0
  8  9  1  0
  9 10  1  0
  9 11  2  0
  8 12  1  0
 12 13  1  0
 13 14  2  0
 13 15  1  0
 15 16  1  0
 16 17  1  0
 16 18  1  0
 16 19  1  0
 12 20  1  0
 20 21  2  0
 21  3  1  0
 20  6  1  0
  1 22  1  0
  1 23  1  0
  1 24  1  0
  2 25  1  0
  2 26  1  0
  4 27  1  0
  5 28  1  0
  7 29  1  0
 10 30  1  0
 10 31  1  0
 17 32  1  0
 17 33  1  0
 17 34  1  0
 18 35  1  0
 18 36  1  0
 18 37  1  0
 19 38  1  0
 19 39  1  0
 19 40  1  0
 21 41  1  0
M  END
>  <UniqueID>  (78) 
78

>  <SMILES>  (78) 
CCc1ccc2cc(C(N)=O)n(C(=O)OC(C)(C)C)c2c1

>  <Energy>  (78) 
70.8437388048172

>  <Genealogy>  (78) 
CCc1ccc2cc(C(N)=O)n(C(=O)OC(C)(C)C)c2c1 (3D coordinates assigned)
CCc1ccc2cc(C(N)=O)n(C(=O)OC(C)(C)C)c2c1 (optimized conformer: 70.8437388048172 kcal/mol)

>  <smiles>  (78) 
CCc1ccc2cc(C(N)=O)n(C(=O)OC(C)(C)C)c2c1

>  <score_type>  (78) 
oracle

>  <origin>  (78) 
adg

>  <m_score__min__energy>  (78) 
-7.3399999999999999

>  <m_primary>  (78) 
energy

$$$$
78:0
     RDKit          3D

 36 38  0  0  0  0  0  0  0  0999 V2000
  139.0290  147.5370  130.0220 C   0  0  0  0  0  0  0  0  0  0  0  0
  140.3060  147.8130  130.5830 O   0  0  0  0  0  0  0  0  0  0  0  0
  140.5770  148.9770  131.3090 C   0  0  0  0  0  0  0  0  0  0  0  0
  139.5610  149.9150  131.5040 C   0  0  0  0  0  0  0  0  0  0  0  0
  139.8290  151.0770  132.2280 C   0  0  0  0  0  0  0  0  0  0  0  0
  141.1110  151.3020  132.7570 C   0  0  0  0  0  0  0  0  0  0  0  0
  141.4120  152.5340  133.5300 C   0  0  0  0  0  0  0  0  0  0  0  0
  142.4930  152.5570  134.4510 C   0  0  0  0  0  0  0  0  0  0  0  0
  142.7950  153.7200  135.1770 C   0  0  0  0  0  0  0  0  0  0  0  0
  141.9980  154.8410  134.9750 C   0  0  0  0  0  0  0  0  0  0  0  0
  142.0860  156.1020  135.5220 C   0  0  0  0  0  0  0  0  0  0  0  0
  141.0430  156.8270  134.9490 C   0  0  0  0  0  0  0  0  0  0  0  0
  140.7300  158.2270  135.3070 C   0  0  0  0  0  0  0  0  0  0  0  0
  139.4830  158.5720  135.9060 N   0  0  0  0  0  0  0  0  0  0  0  0
  141.5900  159.1280  135.1140 O   0  0  0  0  0  0  0  0  0  0  0  0
  140.3400  156.0450  134.0810 N   0  0  0  0  0  0  0  0  0  0  0  0
  139.2450  156.4330  133.2380 C   0  0  0  0  0  0  0  0  0  0  0  0
  138.2620  157.3550  133.7090 N   0  0  0  0  0  0  0  0  0  0  0  0
  139.1440  155.9540  132.0770 O   0  0  0  0  0  0  0  0  0  0  0  0
  140.9380  154.8350  134.1060 C   0  0  0  0  0  0  0  0  0  0  0  0
  140.6270  153.6990  133.3530 C   0  0  0  0  0  0  0  0  0  0  0  0
  142.1020  150.3310  132.5350 C   0  0  0  0  0  0  0  0  0  0  0  0
  141.8150  149.2050  131.8270 N   0  0  0  0  0  0  0  0  0  0  0  0
  138.2997  147.3794  130.8303 H   0  0  0  0  0  0  0  0  0  0  0  0
  138.7099  148.3869  129.4009 H   0  0  0  0  0  0  0  0  0  0  0  0
  139.0894  146.6312  129.4009 H   0  0  0  0  0  0  0  0  0  0  0  0
  138.5572  149.7390  131.0900 H   0  0  0  0  0  0  0  0  0  0  0  0
  139.0333  151.8201  132.3853 H   0  0  0  0  0  0  0  0  0  0  0  0
  143.1012  151.6522  134.5973 H   0  0  0  0  0  0  0  0  0  0  0  0
  143.6370  153.7436  135.8845 H   0  0  0  0  0  0  0  0  0  0  0  0
  142.8231  156.4607  136.2555 H   0  0  0  0  0  0  0  0  0  0  0  0
  139.4430  158.9840  136.8640 H   0  0  0  0  0  0  0  0  0  0  0  0
  138.3660  157.8080  134.6430 H   0  0  0  0  0  0  0  0  0  0  0  0
  137.4500  157.6130  133.1060 H   0  0  0  0  0  0  0  0  0  0  0  0
  139.7907  153.7100  132.6386 H   0  0  0  0  0  0  0  0  0  0  0  0
  143.1153  150.4819  132.9357 H   0  0  0  0  0  0  0  0  0  0  0  0
  1  2  1  0
  2  3  1  0
  3  4  2  0
  4  5  1  0
  5  6  2  0
  6  7  1  0
  7  8  2  0
  8  9  1  0
  9 10  2  0
 10 11  1  0
 11 12  2  0
 12 13  1  0
 13 14  1  0
 13 15  2  0
 12 16  1  0
 16 17  1  0
 17 18  1  0
 17 19  2  0
 16 20  1  0
 20 21  2  0
  6 22  1  0
 22 23  2  0
 23  3  1  0
 21  7  1  0
 20 10  1  0
  1 24  1  0
  1 25  1  0
  1 26  1  0
  4 27  1  0
  5 28  1  0
  8 29  1  0
  9 30  1  0
 11 31  1  0
 14 32  1  0
 18 33  1  0
 18 34  1  0
 21 35  1  0
 22 36  1  0
M  CHG  1  14  -1
M  END
>  <UniqueID>  (79) 
79

>  <SMILES>  (79) 
COc1ccc(-c2ccc3cc(C([NH-])=O)n(C(N)=O)c3c2)cn1

>  <Energy>  (79) 
81.01825140163476

>  <Genealogy>  (79) 
COc1ccc(-c2ccc3cc(C([NH-])=O)n(C(N)=O)c3c2)cn1 (protonated)
COc1ccc(-c2ccc3cc(C([NH-])=O)n(C(N)=O)c3c2)cn1 (3D coordinates assigned)
COc1ccc(-c2ccc3cc(C([NH-])=O)n(C(N)=O)c3c2)cn1 (optimized conformer: 81.01825140163476 kcal/mol)

>  <smiles>  (79) 
COc1ccc(-c2ccc3cc(C(N)=O)n(C(N)=O)c3c2)cn1

>  <score_type>  (79) 
oracle

>  <origin>  (79) 
adg

>  <m_score__min__energy>  (79) 
-7.2599999999999998

>  <m_primary>  (79) 
energy

$$$$
79:0
     RDKit          3D

 40 42  0  0  0  0  0  0  0  0999 V2000
  146.0550  159.7550  133.3590 C   0  0  0  0  0  0  0  0  0  0  0  0
  147.3990  159.4230  132.7660 C   0  0  0  0  0  0  0  0  0  0  0  0
  148.1260  160.4420  132.1230 C   0  0  0  0  0  0  0  0  0  0  0  0
  149.3620  160.1720  131.5340 C   0  0  0  0  0  0  0  0  0  0  0  0
  149.8860  158.8810  131.5720 C   0  0  0  0  0  0  0  0  0  0  0  0
  149.1850  157.8600  132.2130 C   0  0  0  0  0  0  0  0  0  0  0  0
  147.9530  158.1180  132.8460 C   0  0  0  0  0  0  0  0  0  0  0  0
  147.2280  156.9740  133.5310 C   0  0  0  0  0  0  0  0  0  0  0  0
  145.9990  156.6170  132.8200 N   0  0  0  0  0  0  0  0  0  0  0  0
  145.3820  155.3160  132.8650 C   0  0  0  0  0  0  0  0  0  0  0  0
  146.1930  154.1630  132.7180 C   0  0  0  0  0  0  0  0  0  0  0  0
  145.6310  152.8760  132.7550 C   0  0  0  0  0  0  0  0  0  0  0  0
  144.2590  152.7680  132.9540 C   0  0  0  0  0  0  0  0  0  0  0  0
  143.4600  151.6510  133.0020 C   0  0  0  0  0  0  0  0  0  0  0  0
  142.1700  152.1320  133.2110 C   0  0  0  0  0  0  0  0  0  0  0  0
  140.9960  151.2550  133.3880 C   0  0  0  0  0  0  0  0  0  0  0  0
  139.8340  151.3970  132.5700 N   0  0  0  0  0  0  0  0  0  0  0  0
  140.9950  150.4020  134.3160 O   0  0  0  0  0  0  0  0  0  0  0  0
  142.1670  153.4940  133.2770 N   0  0  0  0  0  0  0  0  0  0  0  0
  141.0260  154.3620  133.3780 C   0  0  0  0  0  0  0  0  0  0  0  0
  140.0410  154.2110  132.6080 O   0  0  0  0  0  0  0  0  0  0  0  0
  140.9960  155.3770  134.3270 O   0  0  0  0  0  0  0  0  0  0  0  0
  143.4570  153.8680  133.1180 C   0  0  0  0  0  0  0  0  0  0  0  0
  143.9860  155.1630  133.0560 C   0  0  0  0  0  0  0  0  0  0  0  0
  146.1242  159.7379  134.4567 H   0  0  0  0  0  0  0  0  0  0  0  0
  145.7450  160.7567  133.0267 H   0  0  0  0  0  0  0  0  0  0  0  0
  145.3142  159.0129  133.0267 H   0  0  0  0  0  0  0  0  0  0  0  0
  147.7158  161.4619  132.0843 H   0  0  0  0  0  0  0  0  0  0  0  0
  149.9231  160.9786  131.0394 H   0  0  0  0  0  0  0  0  0  0  0  0
  150.8541  158.6671  131.0956 H   0  0  0  0  0  0  0  0  0  0  0  0
  149.5989  156.8409  132.2245 H   0  0  0  0  0  0  0  0  0  0  0  0
  147.8914  156.0971  133.5611 H   0  0  0  0  0  0  0  0  0  0  0  0
  146.9582  157.2952  134.5479 H   0  0  0  0  0  0  0  0  0  0  0  0
  145.5550  157.3590  132.2320 H   0  0  0  0  0  0  0  0  0  0  0  0
  147.2774  154.2774  132.5729 H   0  0  0  0  0  0  0  0  0  0  0  0
  146.2575  151.9805  132.6303 H   0  0  0  0  0  0  0  0  0  0  0  0
  143.7726  150.6015  132.8977 H   0  0  0  0  0  0  0  0  0  0  0  0
  139.0290  150.7420  132.6840 H   0  0  0  0  0  0  0  0  0  0  0  0
  139.7350  152.2010  131.9100 H   0  0  0  0  0  0  0  0  0  0  0  0
  143.3324  156.0424  133.1534 H   0  0  0  0  0  0  0  0  0  0  0  0
  1  2  1  0
  2  3  2  0
  3  4  1  0
  4  5  2  0
  5  6  1  0
  6  7  2  0
  7  8  1  0
  8  9  1  0
  9 10  1  0
 10 11  2  0
 11 12  1  0
 12 13  2  0
 13 14  1  0
 14 15  2  0
 15 16  1  0
 16 17  1  0
 16 18  2  0
 15 19  1  0
 19 20  1  0
 20 21  2  0
 20 22  1  0
 19 23  1  0
 23 24  2  0
  7  2  1  0
 24 10  1  0
 23 13  1  0
  1 25  1  0
  1 26  1  0
  1 27  1  0
  3 28  1  0
  4 29  1  0
  5 30  1  0
  6 31  1  0
  8 32  1  0
  8 33  1  0
  9 34  1  0
 11 35  1  0
 12 36  1  0
 14 37  1  0
 17 38  1  0
 17 39  1  0
 24 40  1  0
M  CHG  1  22  -1
M  END
>  <UniqueID>  (80) 
80

>  <SMILES>  (80) 
Cc1ccccc1CNc1ccc2cc(C(N)=O)n(C(=O)[O-])c2c1

>  <Energy>  (80) 
82.93657314412796

>  <Genealogy>  (80) 
Cc1ccccc1CNc1ccc2cc(C(N)=O)n(C(=O)[O-])c2c1 (protonated)
Cc1ccccc1CNc1ccc2cc(C(N)=O)n(C(=O)[O-])c2c1 (3D coordinates assigned)
Cc1ccccc1CNc1ccc2cc(C(N)=O)n(C(=O)[O-])c2c1 (optimized conformer: 82.93657314412796 kcal/mol)

>  <smiles>  (80) 
Cc1ccccc1CNc1ccc2cc(C(N)=O)n(C(=O)O)c2c1

>  <score_type>  (80) 
oracle

>  <origin>  (80) 
adg

>  <m_score__min__energy>  (80) 
-8.4100000000000001

>  <m_primary>  (80) 
energy

$$$$
80:0
     RDKit          3D

 79 83  0  0  0  0  0  0  0  0999 V2000
  141.0110  158.3810  137.2260 C   0  0  0  0  0  0  0  0  0  0  0  0
  140.6760  158.3240  135.8430 O   0  0  0  0  0  0  0  0  0  0  0  0
  140.6600  157.1510  135.0700 C   0  0  0  0  0  0  0  0  0  0  0  0
  141.3690  155.9960  135.4610 C   0  0  0  0  0  0  0  0  0  0  0  0
  141.3170  154.8260  134.6900 C   0  0  0  0  0  0  0  0  0  0  0  0
  142.1320  153.7010  135.0640 N   0  0  0  0  0  0  0  0  0  0  0  0
  143.2260  153.2230  134.2730 C   0  0  0  0  0  0  0  0  0  0  0  0
  143.1410  152.0330  133.6240 N   0  0  0  0  0  0  0  0  0  0  0  0
  144.1780  151.5690  132.8810 C   0  0  0  0  0  0  0  0  0  0  0  0
  145.3600  152.3150  132.7650 C   0  0  0  0  0  0  0  0  0  0  0  0
  146.5130  151.7540  131.9770 C   0  0  0  0  0  0  0  0  0  0  0  0
  145.4080  153.5740  133.4050 C   0  0  0  0  0  0  0  0  0  0  0  0
  146.5250  154.5280  133.2400 C   0  0  0  0  0  0  0  0  0  0  0  0
  147.8300  154.0590  132.9340 C   0  0  0  0  0  0  0  0  0  0  0  0
  148.8620  154.9580  132.6340 C   0  0  0  0  0  0  0  0  0  0  0  0
  148.5600  156.3150  132.6150 C   0  0  0  0  0  0  0  0  0  0  0  0
  149.3550  157.3860  132.2840 C   0  0  0  0  0  0  0  0  0  0  0  0
  148.5220  158.5020  132.3590 C   0  0  0  0  0  0  0  0  0  0  0  0
  148.9280  159.8540  131.9160 C   0  0  0  0  0  0  0  0  0  0  0  0
  150.2650  160.1060  131.4800 N   0  0  0  0  0  0  0  0  0  0  0  0
  148.0810  160.7860  131.8630 O   0  0  0  0  0  0  0  0  0  0  0  0
  147.2630  158.1340  132.7390 N   0  0  0  0  0  0  0  0  0  0  0  0
  146.1280  158.9900  132.9610 C   0  0  0  0  0  0  0  0  0  0  0  0
  146.2760  160.0670  133.6000 O   0  0  0  0  0  0  0  0  0  0  0  0
  144.8670  158.6130  132.4720 O   0  0  0  0  0  0  0  0  0  0  0  0
  143.6950  158.3380  133.2550 C   0  0  0  0  0  0  0  0  0  0  0  0
  143.0320  159.6450  133.7340 C   0  0  0  0  0  0  0  0  0  0  0  0
  142.6990  157.4900  132.4450 C   0  0  0  0  0  0  0  0  0  0  0  0
  144.1510  157.5330  134.4820 C   0  0  0  0  0  0  0  0  0  0  0  0
  147.3010  156.7890  132.8840 C   0  0  0  0  0  0  0  0  0  0  0  0
  146.2600  155.9150  133.2190 C   0  0  0  0  0  0  0  0  0  0  0  0
  144.3510  153.9710  134.1650 N   0  0  0  0  0  0  0  0  0  0  0  0
  140.5430  154.8120  133.5180 C   0  0  0  0  0  0  0  0  0  0  0  0
  139.8460  155.9530  133.1170 C   0  0  0  0  0  0  0  0  0  0  0  0
  139.9070  157.1320  133.8800 C   0  0  0  0  0  0  0  0  0  0  0  0
  139.2460  158.3240  133.4070 N   0  0  0  0  0  0  0  0  0  0  0  0
  139.9810  159.5950  133.3450 C   0  0  0  0  0  0  0  0  0  0  0  0
  139.4440  160.4780  132.2050 C   0  0  0  0  0  0  0  0  0  0  0  0
  139.0720  159.6790  131.0170 N   0  0  0  0  0  0  0  0  0  0  0  0
  140.2520  159.0760  130.3680 C   0  0  0  0  0  0  0  0  0  0  0  0
  138.0180  158.6690  131.2960 C   0  0  0  0  0  0  0  0  0  0  0  0
  137.9260  158.2530  132.7780 C   0  0  0  0  0  0  0  0  0  0  0  0
  140.1044  158.2268  137.8295 H   0  0  0  0  0  0  0  0  0  0  0  0
  141.7443  157.5947  137.4583 H   0  0  0  0  0  0  0  0  0  0  0  0
  141.4431  159.3655  137.4583 H   0  0  0  0  0  0  0  0  0  0  0  0
  141.9701  156.0134  136.3821 H   0  0  0  0  0  0  0  0  0  0  0  0
  142.0280  153.3210  136.0300 H   0  0  0  0  0  0  0  0  0  0  0  0
  144.0906  150.6009  132.3661 H   0  0  0  0  0  0  0  0  0  0  0  0
  147.2822  151.3797  132.6686 H   0  0  0  0  0  0  0  0  0  0  0  0
  146.1568  150.9285  131.3432 H   0  0  0  0  0  0  0  0  0  0  0  0
  146.9427  152.5437  131.3432 H   0  0  0  0  0  0  0  0  0  0  0  0
  148.0329  152.9779  132.9325 H   0  0  0  0  0  0  0  0  0  0  0  0
  149.8802  154.6010  132.4200 H   0  0  0  0  0  0  0  0  0  0  0  0
  150.4218  157.3670  132.0167 H   0  0  0  0  0  0  0  0  0  0  0  0
  151.0120  159.3780  131.5620 H   0  0  0  0  0  0  0  0  0  0  0  0
  150.5230  161.0450  131.1000 H   0  0  0  0  0  0  0  0  0  0  0  0
  143.0201  159.6685  134.8337 H   0  0  0  0  0  0  0  0  0  0  0  0
  143.6024  160.5058  133.3550 H   0  0  0  0  0  0  0  0  0  0  0  0
  142.0005  159.6932  133.3550 H   0  0  0  0  0  0  0  0  0  0  0  0
  142.0459  156.9340  133.1337 H   0  0  0  0  0  0  0  0  0  0  0  0
  142.0873  158.1487  131.8111 H   0  0  0  0  0  0  0  0  0  0  0  0
  143.2517  156.7810  131.8111 H   0  0  0  0  0  0  0  0  0  0  0  0
  143.8517  158.0614  135.3991 H   0  0  0  0  0  0  0  0  0  0  0  0
  143.6824  156.5380  134.4626 H   0  0  0  0  0  0  0  0  0  0  0  0
  145.2453  157.4233  134.4626 H   0  0  0  0  0  0  0  0  0  0  0  0
  145.2582  156.2999  133.4604 H   0  0  0  0  0  0  0  0  0  0  0  0
  140.4857  153.8957  132.9121 H   0  0  0  0  0  0  0  0  0  0  0  0
  139.2442  155.9293  132.1965 H   0  0  0  0  0  0  0  0  0  0  0  0
  139.8632  160.1274  134.3004 H   0  0  0  0  0  0  0  0  0  0  0  0
  141.0433  159.3807  133.1563 H   0  0  0  0  0  0  0  0  0  0  0  0
  138.5553  161.0187  132.5624 H   0  0  0  0  0  0  0  0  0  0  0  0
  140.2411  161.1764  131.9102 H   0  0  0  0  0  0  0  0  0  0  0  0
  140.9514  158.7186  131.1381 H   0  0  0  0  0  0  0  0  0  0  0  0
  139.9334  158.2302  129.7410 H   0  0  0  0  0  0  0  0  0  0  0  0
  140.7508  159.8297  129.7410 H   0  0  0  0  0  0  0  0  0  0  0  0
  137.0474  159.0891  130.9936 H   0  0  0  0  0  0  0  0  0  0  0  0
  138.2837  157.7657  130.7273 H   0  0  0  0  0  0  0  0  0  0  0  0
  137.2365  158.9304  133.3032 H   0  0  0  0  0  0  0  0  0  0  0  0
  137.5556  157.2190  132.8377 H   0  0  0  0  0  0  0  0  0  0  0  0
  1  2  1  0
  2  3  1  0
  3  4  2  0
  4  5  1  0
  5  6  1  0
  6  7  1  0
  7  8  2  0
  8  9  1  0
  9 10  2  0
 10 11  1  0
 10 12  1  0
 12 13  1  0
 13 14  2  0
 14 15  1  0
 15 16  2  0
 16 17  1  0
 17 18  2  0
 18 19  1  0
 19 20  1  0
 19 21  2  0
 18 22  1  0
 22 23  1  0
 23 24  2  0
 23 25  1  0
 25 26  1  0
 26 27  1  0
 26 28  1  0
 26 29  1  0
 22 30  1  0
 30 31  2  0
 12 32  2  0
  5 33  2  0
 33 34  1  0
 34 35  2  0
 35 36  1  0
 36 37  1  0
 37 38  1  0
 38 39  1  0
 39 40  1  0
 39 41  1  0
 41 42  1  0
 35  3  1  0
 42 36  1  0
 32  7  1  0
 31 13  1  0
 30 16  1  0
  1 43  1  0
  1 44  1  0
  1 45  1  0
  4 46  1  0
  6 47  1  0
  9 48  1  0
 11 49  1  0
 11 50  1  0
 11 51  1  0
 14 52  1  0
 15 53  1  0
 17 54  1  0
 20 55  1  0
 20 56  1  0
 27 57  1  0
 27 58  1  0
 27 59  1  0
 28 60  1  0
 28 61  1  0
 28 62  1  0
 29 63  1  0
 29 64  1  0
 29 65  1  0
 31 66  1  0
 33 67  1  0
 34 68  1  0
 37 69  1  0
 37 70  1  0
 38 71  1  0
 38 72  1  0
 40 73  1  0
 40 74  1  0
 40 75  1  0
 41 76  1  0
 41 77  1  0
 42 78  1  0
 42 79  1  0
M  END
>  <UniqueID>  (81) 
81

>  <SMILES>  (81) 
COc1cc(Nc2ncc(C)c(-c3ccc4cc(C(N)=O)n(C(=O)OC(C)(C)C)c4c3)n2)ccc1N1CCN(C)CC1

>  <Energy>  (81) 
142.70291362317042

>  <Genealogy>  (81) 
COc1cc(Nc2ncc(C)c(-c3ccc4cc(C(N)=O)n(C(=O)OC(C)(C)C)c4c3)n2)ccc1N1CCN(C)CC1 (3D coordinates assigned)
COc1cc(Nc2ncc(C)c(-c3ccc4cc(C(N)=O)n(C(=O)OC(C)(C)C)c4c3)n2)ccc1N1CCN(C)CC1 (nonaromatic ring conformer: 142.70291362317042 kcal/mol)

>  <smiles>  (81) 
COc1cc(Nc2ncc(C)c(-c3ccc4cc(C(N)=O)n(C(=O)OC(C)(C)C)c4c3)n2)ccc1N1CCN(C)CC1

>  <score_type>  (81) 
oracle

>  <origin>  (81) 
adg

>  <m_score__min__energy>  (81) 
-10.210000000000001

>  <m_primary>  (81) 
energy

$$$$
81:0
     RDKit          3D

 58 61  0  0  0  0  0  0  0  0999 V2000
  141.5880  160.7910  133.7930 C   0  0  0  0  0  0  0  0  0  0  0  0
  142.7420  159.8460  133.6240 C   0  0  0  0  0  0  0  0  0  0  0  0
  142.5150  158.4740  133.4650 C   0  0  0  0  0  0  0  0  0  0  0  0
  143.5920  157.5880  133.3530 C   0  0  0  0  0  0  0  0  0  0  0  0
  144.9170  158.0570  133.4230 C   0  0  0  0  0  0  0  0  0  0  0  0
  146.0510  157.1010  133.3310 C   0  0  0  0  0  0  0  0  0  0  0  0
  147.3880  157.5670  133.4680 C   0  0  0  0  0  0  0  0  0  0  0  0
  148.4730  156.6810  133.3670 C   0  0  0  0  0  0  0  0  0  0  0  0
  148.1980  155.3380  133.1310 C   0  0  0  0  0  0  0  0  0  0  0  0
  149.0530  154.2730  132.9500 C   0  0  0  0  0  0  0  0  0  0  0  0
  148.2290  153.1670  132.7360 C   0  0  0  0  0  0  0  0  0  0  0  0
  148.7510  151.7980  132.5120 C   0  0  0  0  0  0  0  0  0  0  0  0
  147.9090  150.6470  132.5820 N   0  0  0  0  0  0  0  0  0  0  0  0
  149.9910  151.6320  132.3420 O   0  0  0  0  0  0  0  0  0  0  0  0
  146.9210  153.5400  132.7920 N   0  0  0  0  0  0  0  0  0  0  0  0
  145.7610  152.7570  132.4820 C   0  0  0  0  0  0  0  0  0  0  0  0
  145.8480  151.8620  131.5980 O   0  0  0  0  0  0  0  0  0  0  0  0
  144.5280  152.9450  133.2060 N   0  0  0  0  0  0  0  0  0  0  0  0
  143.2840  152.3540  132.6880 C   0  0  0  0  0  0  0  0  0  0  0  0
  142.2540  152.1970  133.8190 C   0  0  2  0  0  0  0  0  0  0  0  0
  140.9830  151.4880  133.3150 C   0  0  0  0  0  0  0  0  0  0  0  0
  141.9920  153.4930  134.5090 N   0  0  0  0  0  0  0  0  0  0  0  0
  141.0090  154.3630  133.8250 C   0  0  0  0  0  0  0  0  0  0  0  0
  143.2210  154.2670  134.8530 C   0  0  1  0  0  0  0  0  0  0  0  0
  143.1660  154.6560  136.3360 C   0  0  0  0  0  0  0  0  0  0  0  0
  144.5410  153.5200  134.5560 C   0  0  0  0  0  0  0  0  0  0  0  0
  146.9180  154.8680  133.0210 C   0  0  0  0  0  0  0  0  0  0  0  0
  145.8160  155.7230  133.1130 C   0  0  0  0  0  0  0  0  0  0  0  0
  145.1410  159.4360  133.5990 C   0  0  0  0  0  0  0  0  0  0  0  0
  146.4000  159.9270  133.7270 F   0  0  0  0  0  0  0  0  0  0  0  0
  144.0600  160.3200  133.7070 C   0  0  0  0  0  0  0  0  0  0  0  0
  141.3965  160.9479  134.8648 H   0  0  0  0  0  0  0  0  0  0  0  0
  141.8300  161.7537  133.3190 H   0  0  0  0  0  0  0  0  0  0  0  0
  140.6919  160.3639  133.3190 H   0  0  0  0  0  0  0  0  0  0  0  0
  141.4847  158.0905  133.4279 H   0  0  0  0  0  0  0  0  0  0  0  0
  143.4012  156.5143  133.2088 H   0  0  0  0  0  0  0  0  0  0  0  0
  147.5744  158.6348  133.6554 H   0  0  0  0  0  0  0  0  0  0  0  0
  149.5082  157.0380  133.4713 H   0  0  0  0  0  0  0  0  0  0  0  0
  150.1527  154.2906  132.9699 H   0  0  0  0  0  0  0  0  0  0  0  0
  146.9700  150.6860  133.0270 H   0  0  0  0  0  0  0  0  0  0  0  0
  148.3080  149.6980  132.4120 H   0  0  0  0  0  0  0  0  0  0  0  0
  142.8688  153.0091  131.9079 H   0  0  0  0  0  0  0  0  0  0  0  0
  143.5077  151.3620  132.2687 H   0  0  0  0  0  0  0  0  0  0  0  0
  142.6801  151.5397  134.5913 H   0  0  0  0  0  0  0  0  0  0  0  0
  140.3840  151.1539  134.1750 H   0  0  0  0  0  0  0  0  0  0  0  0
  140.3911  152.1862  132.7050 H   0  0  0  0  0  0  0  0  0  0  0  0
  141.2661  150.6175  132.7050 H   0  0  0  0  0  0  0  0  0  0  0  0
  140.4066  154.8961  134.5753 H   0  0  0  0  0  0  0  0  0  0  0  0
  141.5402  155.0923  133.1957 H   0  0  0  0  0  0  0  0  0  0  0  0
  140.3497  153.7471  133.1957 H   0  0  0  0  0  0  0  0  0  0  0  0
  143.2271  155.1567  134.2062 H   0  0  0  0  0  0  0  0  0  0  0  0
  143.2932  153.7563  136.9560 H   0  0  0  0  0  0  0  0  0  0  0  0
  143.9720  155.3710  136.5576 H   0  0  0  0  0  0  0  0  0  0  0  0
  142.1934  155.1196  136.5576 H   0  0  0  0  0  0  0  0  0  0  0  0
  145.3803  154.2263  134.6380 H   0  0  0  0  0  0  0  0  0  0  0  0
  144.6524  152.7027  135.2838 H   0  0  0  0  0  0  0  0  0  0  0  0
  144.7914  155.3341  133.0183 H   0  0  0  0  0  0  0  0  0  0  0  0
  144.2456  161.3937  133.8580 H   0  0  0  0  0  0  0  0  0  0  0  0
  1  2  1  0
  2  3  2  0
  3  4  1  0
  4  5  2  0
  5  6  1  0
  6  7  2  0
  7  8  1  0
  8  9  2  0
  9 10  1  0
 10 11  2  0
 11 12  1  0
 12 13  1  0
 12 14  2  0
 11 15  1  0
 15 16  1  0
 16 17  2  0
 16 18  1  0
 18 19  1  0
 19 20  1  0
 20 21  1  0
 20 22  1  0
 22 23  1  0
 22 24  1  0
 24 25  1  0
 24 26  1  0
 15 27  1  0
 27 28  2  0
  5 29  1  0
 29 30  1  0
 29 31  2  0
 31  2  1  0
 28  6  1  0
 27  9  1  0
 26 18  1  0
  1 32  1  0
  1 33  1  0
  1 34  1  0
  3 35  1  0
  4 36  1  0
  7 37  1  0
  8 38  1  0
 10 39  1  0
 13 40  1  0
 13 41  1  0
 19 42  1  0
 19 43  1  0
 20 44  1  1
 21 45  1  0
 21 46  1  0
 21 47  1  0
 23 48  1  0
 23 49  1  0
 23 50  1  0
 24 51  1  6
 25 52  1  0
 25 53  1  0
 25 54  1  0
 26 55  1  0
 26 56  1  0
 28 57  1  0
 31 58  1  0
M  END
>  <UniqueID>  (82) 
82

>  <SMILES>  (82) 
Cc1ccc(-c2ccc3cc(C(N)=O)n(C(=O)N4C[C@H](C)N(C)[C@@H](C)C4)c3c2)c(F)c1

>  <Energy>  (82) 
116.76167248034623

>  <Genealogy>  (82) 
Cc1ccc(-c2ccc3cc(C(N)=O)n(C(=O)N4C[C@H](C)N(C)[C@@H](C)C4)c3c2)c(F)c1 (chirality)
Cc1ccc(-c2ccc3cc(C(N)=O)n(C(=O)N4C[C@H](C)N(C)[C@@H](C)C4)c3c2)c(F)c1 (3D coordinates assigned)
Cc1ccc(-c2ccc3cc(C(N)=O)n(C(=O)N4C[C@H](C)N(C)[C@@H](C)C4)c3c2)c(F)c1 (nonaromatic ring conformer: 116.76167248034623 kcal/mol)

>  <smiles>  (82) 
Cc1ccc(-c2ccc3cc(C(N)=O)n(C(=O)N4CC(C)N(C)C(C)C4)c3c2)c(F)c1

>  <score_type>  (82) 
oracle

>  <origin>  (82) 
adg

>  <m_score__min__energy>  (82) 
-9.4199999999999999

>  <m_primary>  (82) 
energy

$$$$
82:0
     RDKit          3D

 42 44  0  0  0  0  0  0  0  0999 V2000
  138.7770  147.8340  129.2300 C   0  0  0  0  0  0  0  0  0  0  0  0
  139.7090  147.6590  130.3910 C   0  0  0  0  0  0  0  0  0  0  0  0
  140.0900  146.4940  130.6890 O   0  0  0  0  0  0  0  0  0  0  0  0
  140.1510  148.7890  131.1780 N   0  0  0  0  0  0  0  0  0  0  0  0
  139.4870  150.0950  131.0320 C   0  0  0  0  0  0  0  0  0  0  0  0
  139.9070  151.0700  132.1380 C   0  0  0  0  0  0  0  0  0  0  0  0
  141.4430  151.1860  132.2250 C   0  0  0  0  0  0  0  0  0  0  0  0
  141.8410  151.9770  133.4570 C   0  0  0  0  0  0  0  0  0  0  0  0
  142.7180  153.0890  133.3500 C   0  0  0  0  0  0  0  0  0  0  0  0
  143.1100  153.8080  134.4900 C   0  0  0  0  0  0  0  0  0  0  0  0
  142.6110  153.4010  135.7230 C   0  0  0  0  0  0  0  0  0  0  0  0
  142.8520  153.8980  136.9820 C   0  0  0  0  0  0  0  0  0  0  0  0
  142.1050  153.0970  137.8440 C   0  0  0  0  0  0  0  0  0  0  0  0
  142.0150  153.3350  139.3000 C   0  0  0  0  0  0  0  0  0  0  0  0
  142.4680  152.3590  140.2340 N   0  0  0  0  0  0  0  0  0  0  0  0
  141.4870  154.3980  139.7260 O   0  0  0  0  0  0  0  0  0  0  0  0
  141.4330  152.1380  137.1450 N   0  0  0  0  0  0  0  0  0  0  0  0
  140.6240  151.0730  137.6670 C   0  0  0  0  0  0  0  0  0  0  0  0
  140.2480  151.0650  139.0420 N   0  0  0  0  0  0  0  0  0  0  0  0
  140.2320  150.1460  136.9100 O   0  0  0  0  0  0  0  0  0  0  0  0
  141.7520  152.3390  135.8470 C   0  0  0  0  0  0  0  0  0  0  0  0
  141.3610  151.5910  134.7300 C   0  0  0  0  0  0  0  0  0  0  0  0
  142.1670  149.8100  132.1620 C   0  0  0  0  0  0  0  0  0  0  0  0
  141.2040  148.6170  132.1920 C   0  0  0  0  0  0  0  0  0  0  0  0
  137.7596  148.0250  129.6021 H   0  0  0  0  0  0  0  0  0  0  0  0
  139.1095  148.6854  128.6180 H   0  0  0  0  0  0  0  0  0  0  0  0
  138.7780  146.9200  128.6180 H   0  0  0  0  0  0  0  0  0  0  0  0
  139.7565  150.5251  130.0561 H   0  0  0  0  0  0  0  0  0  0  0  0
  138.4008  149.9383  131.1066 H   0  0  0  0  0  0  0  0  0  0  0  0
  139.4838  152.0620  131.9217 H   0  0  0  0  0  0  0  0  0  0  0  0
  139.5312  150.6896  133.0993 H   0  0  0  0  0  0  0  0  0  0  0  0
  141.7778  151.7333  131.3315 H   0  0  0  0  0  0  0  0  0  0  0  0
  143.0947  153.3905  132.3615 H   0  0  0  0  0  0  0  0  0  0  0  0
  143.7916  154.6678  134.4107 H   0  0  0  0  0  0  0  0  0  0  0  0
  143.4971  154.7472  137.2516 H   0  0  0  0  0  0  0  0  0  0  0  0
  142.0030  151.4270  140.3050 H   0  0  0  0  0  0  0  0  0  0  0  0
  140.4370  151.8890  139.6550 H   0  0  0  0  0  0  0  0  0  0  0  0
  140.6952  150.7223  134.8401 H   0  0  0  0  0  0  0  0  0  0  0  0
  142.7505  149.7646  131.2306 H   0  0  0  0  0  0  0  0  0  0  0  0
  142.8056  149.7362  133.0546 H   0  0  0  0  0  0  0  0  0  0  0  0
  141.7631  147.6932  131.9823 H   0  0  0  0  0  0  0  0  0  0  0  0
  140.7383  148.5562  133.1867 H   0  0  0  0  0  0  0  0  0  0  0  0
  1  2  1  0
  2  3  2  0
  2  4  1  0
  4  5  1  0
  5  6  1  0
  6  7  1  0
  7  8  1  0
  8  9  2  0
  9 10  1  0
 10 11  2  0
 11 12  1  0
 12 13  2  0
 13 14  1  0
 14 15  1  0
 14 16  2  0
 13 17  1  0
 17 18  1  0
 18 19  1  0
 18 20  2  0
 17 21  1  0
 21 22  2  0
  7 23  1  0
 23 24  1  0
 24  4  1  0
 22  8  1  0
 21 11  1  0
  1 25  1  0
  1 26  1  0
  1 27  1  0
  5 28  1  0
  5 29  1  0
  6 30  1  0
  6 31  1  0
  7 32  1  0
  9 33  1  0
 10 34  1  0
 12 35  1  0
 15 36  1  0
 19 37  1  0
 22 38  1  0
 23 39  1  0
 23 40  1  0
 24 41  1  0
 24 42  1  0
M  CHG  2  15  -1  19  -1
M  END
>  <UniqueID>  (83) 
83

>  <SMILES>  (83) 
CC(=O)N1CCC(c2ccc3cc(C([NH-])=O)n(C([NH-])=O)c3c2)CC1

>  <Energy>  (83) 
84.56633996559253

>  <Genealogy>  (83) 
CC(=O)N1CCC(c2ccc3cc(C([NH-])=O)n(C([NH-])=O)c3c2)CC1 (protonated)
CC(=O)N1CCC(c2ccc3cc(C([NH-])=O)n(C([NH-])=O)c3c2)CC1 (3D coordinates assigned)
CC(=O)N1CCC(c2ccc3cc(C([NH-])=O)n(C([NH-])=O)c3c2)CC1 (nonaromatic ring conformer: 84.56633996559253 kcal/mol)

>  <smiles>  (83) 
CC(=O)N1CCC(c2ccc3cc(C(N)=O)n(C(N)=O)c3c2)CC1

>  <score_type>  (83) 
oracle

>  <origin>  (83) 
adg

>  <m_score__min__energy>  (83) 
-8.4600000000000009

>  <m_primary>  (83) 
energy

$$$$
83:0
     RDKit          3D

 42 44  0  0  0  0  0  0  0  0999 V2000
  150.1460  159.7630  129.7530 C   0  0  0  0  0  0  0  0  0  0  0  0
  149.8190  159.6300  131.1810 N   0  0  0  0  0  0  0  0  0  0  0  0
  149.3590  158.2520  131.4740 C   0  0  0  0  0  0  0  0  0  0  0  0
  148.6470  158.1710  132.8290 C   0  0  0  0  0  0  0  0  0  0  0  0
  147.3900  159.0760  132.8730 C   0  0  0  0  0  0  0  0  0  0  0  0
  146.1670  158.2740  132.7200 N   0  0  0  0  0  0  0  0  0  0  0  0
  144.8530  158.7090  133.1260 C   0  0  0  0  0  0  0  0  0  0  0  0
  144.5690  160.0700  133.4220 C   0  0  0  0  0  0  0  0  0  0  0  0
  143.2770  160.4690  133.8020 C   0  0  0  0  0  0  0  0  0  0  0  0
  142.2910  159.4940  133.8890 C   0  0  0  0  0  0  0  0  0  0  0  0
  140.9560  159.6130  134.2020 C   0  0  0  0  0  0  0  0  0  0  0  0
  140.4450  158.3210  134.1240 C   0  0  0  0  0  0  0  0  0  0  0  0
  139.0450  157.9830  134.4490 C   0  0  0  0  0  0  0  0  0  0  0  0
  138.2050  157.3220  133.5010 N   0  0  0  0  0  0  0  0  0  0  0  0
  138.6000  158.2290  135.6020 O   0  0  0  0  0  0  0  0  0  0  0  0
  141.4160  157.4380  133.7640 N   0  0  0  0  0  0  0  0  0  0  0  0
  141.2550  156.0410  133.4630 C   0  0  0  0  0  0  0  0  0  0  0  0
  142.1000  155.1980  133.8630 O   0  0  0  0  0  0  0  0  0  0  0  0
  140.1630  155.6060  132.7200 O   0  0  0  0  0  0  0  0  0  0  0  0
  142.5450  158.1730  133.6270 C   0  0  0  0  0  0  0  0  0  0  0  0
  143.8180  157.7500  133.2250 C   0  0  0  0  0  0  0  0  0  0  0  0
  147.4440  160.1890  131.8020 C   0  0  0  0  0  0  0  0  0  0  0  0
  148.8820  160.6970  131.6240 C   0  0  0  0  0  0  0  0  0  0  0  0
  151.1601  160.1755  129.6459 H   0  0  0  0  0  0  0  0  0  0  0  0
  150.0996  158.7745  129.2726 H   0  0  0  0  0  0  0  0  0  0  0  0
  149.4228  160.4385  129.2726 H   0  0  0  0  0  0  0  0  0  0  0  0
  148.6622  157.9329  130.6849 H   0  0  0  0  0  0  0  0  0  0  0  0
  150.2406  157.5950  131.5087 H   0  0  0  0  0  0  0  0  0  0  0  0
  148.3425  157.1295  133.0096 H   0  0  0  0  0  0  0  0  0  0  0  0
  149.3460  158.5184  133.6041 H   0  0  0  0  0  0  0  0  0  0  0  0
  147.3727  159.5646  133.8584 H   0  0  0  0  0  0  0  0  0  0  0  0
  146.2410  157.3380  132.2590 H   0  0  0  0  0  0  0  0  0  0  0  0
  145.3708  160.8199  133.3526 H   0  0  0  0  0  0  0  0  0  0  0  0
  143.0524  161.5226  134.0242 H   0  0  0  0  0  0  0  0  0  0  0  0
  140.4098  160.5326  134.4588 H   0  0  0  0  0  0  0  0  0  0  0  0
  138.5890  156.9590  132.6020 H   0  0  0  0  0  0  0  0  0  0  0  0
  137.2070  157.1230  133.7350 H   0  0  0  0  0  0  0  0  0  0  0  0
  144.0093  156.6924  132.9908 H   0  0  0  0  0  0  0  0  0  0  0  0
  147.0811  159.7874  130.8444 H   0  0  0  0  0  0  0  0  0  0  0  0
  146.8094  161.0263  132.1278 H   0  0  0  0  0  0  0  0  0  0  0  0
  148.8809  161.4988  130.8709 H   0  0  0  0  0  0  0  0  0  0  0  0
  149.2297  161.0578  132.6033 H   0  0  0  0  0  0  0  0  0  0  0  0
  1  2  1  0
  2  3  1  0
  3  4  1  0
  4  5  1  0
  5  6  1  0
  6  7  1  0
  7  8  2  0
  8  9  1  0
  9 10  2  0
 10 11  1  0
 11 12  2  0
 12 13  1  0
 13 14  1  0
 13 15  2  0
 12 16  1  0
 16 17  1  0
 17 18  2  0
 17 19  1  0
 16 20  1  0
 20 21  2  0
  5 22  1  0
 22 23  1  0
 23  2  1  0
 21  7  1  0
 20 10  1  0
  1 24  1  0
  1 25  1  0
  1 26  1  0
  3 27  1  0
  3 28  1  0
  4 29  1  0
  4 30  1  0
  5 31  1  0
  6 32  1  0
  8 33  1  0
  9 34  1  0
 11 35  1  0
 14 36  1  0
 14 37  1  0
 21 38  1  0
 22 39  1  0
 22 40  1  0
 23 41  1  0
 23 42  1  0
M  CHG  1  19  -1
M  END
>  <UniqueID>  (84) 
84

>  <SMILES>  (84) 
CN1CCC(Nc2ccc3cc(C(N)=O)n(C(=O)[O-])c3c2)CC1

>  <Energy>  (84) 
91.36599755483886

>  <Genealogy>  (84) 
CN1CCC(Nc2ccc3cc(C(N)=O)n(C(=O)[O-])c3c2)CC1 (protonated)
CN1CCC(Nc2ccc3cc(C(N)=O)n(C(=O)[O-])c3c2)CC1 (3D coordinates assigned)
CN1CCC(Nc2ccc3cc(C(N)=O)n(C(=O)[O-])c3c2)CC1 (nonaromatic ring conformer: 91.36599755483886 kcal/mol)

>  <smiles>  (84) 
CN1CCC(Nc2ccc3cc(C(N)=O)n(C(=O)O)c3c2)CC1

>  <score_type>  (84) 
oracle

>  <origin>  (84) 
adg

>  <m_score__min__energy>  (84) 
-8

>  <m_primary>  (84) 
energy

$$$$
84:0
     RDKit          3D

 32 33  0  0  0  0  0  0  0  0999 V2000
  148.4650  160.3450  131.1960 C   0  0  0  0  0  0  0  0  0  0  0  0
  149.3390  159.1020  131.1300 C   0  0  0  0  0  0  0  0  0  0  0  0
  148.7970  158.0750  132.0070 N   0  0  0  0  0  0  0  0  0  0  0  0
  148.1280  158.3760  133.2350 C   0  0  0  0  0  0  0  0  0  0  0  0
  148.7950  158.7220  134.2470 O   0  0  0  0  0  0  0  0  0  0  0  0
  146.6960  158.2890  133.3140 N   0  0  0  0  0  0  0  0  0  0  0  0
  145.9250  157.1670  133.2340 C   0  0  0  0  0  0  0  0  0  0  0  0
  146.4170  155.8090  132.9060 C   0  0  0  0  0  0  0  0  0  0  0  0
  147.3650  155.6100  131.8560 N   0  0  0  0  0  0  0  0  0  0  0  0
  146.0250  154.8160  133.5730 O   0  0  0  0  0  0  0  0  0  0  0  0
  144.5810  157.4850  133.4170 C   0  0  0  0  0  0  0  0  0  0  0  0
  144.5500  158.8460  133.6110 C   0  0  0  0  0  0  0  0  0  0  0  0
  143.4720  159.6890  133.8630 C   0  0  0  0  0  0  0  0  0  0  0  0
  143.7350  161.0550  134.0610 C   0  0  0  0  0  0  0  0  0  0  0  0
  145.0620  161.5540  133.9950 C   0  0  0  0  0  0  0  0  0  0  0  0
  145.3370  163.0110  134.2730 C   0  0  0  0  0  0  0  0  0  0  0  0
  144.3600  163.8100  133.7030 F   0  0  0  0  0  0  0  0  0  0  0  0
  145.3540  163.2540  135.6360 F   0  0  0  0  0  0  0  0  0  0  0  0
  146.5660  163.3520  133.7390 F   0  0  0  0  0  0  0  0  0  0  0  0
  146.1320  160.6610  133.7610 C   0  0  0  0  0  0  0  0  0  0  0  0
  145.8380  159.3080  133.5460 C   0  0  0  0  0  0  0  0  0  0  0  0
  148.2802  160.6078  132.2480 H   0  0  0  0  0  0  0  0  0  0  0  0
  148.9761  161.1797  130.6939 H   0  0  0  0  0  0  0  0  0  0  0  0
  147.5066  160.1465  130.6939 H   0  0  0  0  0  0  0  0  0  0  0  0
  149.3622  158.7256  130.0967 H   0  0  0  0  0  0  0  0  0  0  0  0
  150.3593  159.3561  131.4532 H   0  0  0  0  0  0  0  0  0  0  0  0
  147.6710  156.3970  131.2420 H   0  0  0  0  0  0  0  0  0  0  0  0
  147.7350  154.6540  131.6590 H   0  0  0  0  0  0  0  0  0  0  0  0
  143.7255  156.7936  133.4082 H   0  0  0  0  0  0  0  0  0  0  0  0
  142.4448  159.2978  133.9059 H   0  0  0  0  0  0  0  0  0  0  0  0
  142.9038  161.7447  134.2693 H   0  0  0  0  0  0  0  0  0  0  0  0
  147.1717  161.0198  133.7480 H   0  0  0  0  0  0  0  0  0  0  0  0
  1  2  1  0
  2  3  1  0
  3  4  1  0
  4  5  2  0
  4  6  1  0
  6  7  1  0
  7  8  1  0
  8  9  1  0
  8 10  2  0
  7 11  2  0
 11 12  1  0
 12 13  2  0
 13 14  1  0
 14 15  2  0
 15 16  1  0
 16 17  1  0
 16 18  1  0
 16 19  1  0
 15 20  1  0
 20 21  2  0
 21  6  1  0
 21 12  1  0
  1 22  1  0
  1 23  1  0
  1 24  1  0
  2 25  1  0
  2 26  1  0
  9 27  1  0
  9 28  1  0
 11 29  1  0
 13 30  1  0
 14 31  1  0
 20 32  1  0
M  CHG  1   3  -1
M  END
>  <UniqueID>  (85) 
85

>  <SMILES>  (85) 
CC[N-]C(=O)n1c(C(N)=O)cc2ccc(C(F)(F)F)cc21

>  <Energy>  (85) 
66.33336132949691

>  <Genealogy>  (85) 
CC[N-]C(=O)n1c(C(N)=O)cc2ccc(C(F)(F)F)cc21 (protonated)
CC[N-]C(=O)n1c(C(N)=O)cc2ccc(C(F)(F)F)cc21 (3D coordinates assigned)
CC[N-]C(=O)n1c(C(N)=O)cc2ccc(C(F)(F)F)cc21 (optimized conformer: 66.33336132949691 kcal/mol)

>  <smiles>  (85) 
CCNC(=O)n1c(C(N)=O)cc2ccc(C(F)(F)F)cc21

>  <score_type>  (85) 
oracle

>  <origin>  (85) 
adg

>  <m_score__min__energy>  (85) 
-6.4199999999999999

>  <m_primary>  (85) 
energy

$$$$
85:0
     RDKit          3D

 43 45  0  0  0  0  0  0  0  0999 V2000
  139.4890  159.2310  130.9990 C   0  0  0  0  0  0  0  0  0  0  0  0
  139.3670  160.3070  132.0710 C   0  0  0  0  0  0  0  0  0  0  0  0
  140.5250  160.3210  132.9050 O   0  0  0  0  0  0  0  0  0  0  0  0
  140.7560  159.3840  133.9170 C   0  0  0  0  0  0  0  0  0  0  0  0
  140.3710  159.6110  135.0980 O   0  0  0  0  0  0  0  0  0  0  0  0
  141.4620  158.1710  133.6160 N   0  0  0  0  0  0  0  0  0  0  0  0
  140.9440  156.9220  133.4400 C   0  0  0  0  0  0  0  0  0  0  0  0
  139.5090  156.5800  133.3590 C   0  0  0  0  0  0  0  0  0  0  0  0
  138.5080  157.5130  133.7570 N   0  0  0  0  0  0  0  0  0  0  0  0
  139.1590  155.4650  132.8890 O   0  0  0  0  0  0  0  0  0  0  0  0
  141.9660  155.9920  133.2560 C   0  0  0  0  0  0  0  0  0  0  0  0
  143.1340  156.7160  133.3170 C   0  0  0  0  0  0  0  0  0  0  0  0
  144.4540  156.2930  133.2080 C   0  0  0  0  0  0  0  0  0  0  0  0
  145.4670  157.2570  133.3420 C   0  0  0  0  0  0  0  0  0  0  0  0
  145.1470  158.6180  133.5910 C   0  0  0  0  0  0  0  0  0  0  0  0
  146.2430  159.6550  133.7490 C   0  0  2  0  0  0  0  0  0  0  0  0
  145.6530  161.0750  133.7330 C   0  0  0  0  0  0  0  0  0  0  0  0
  147.3560  159.4270  132.7290 C   0  0  0  0  0  0  0  0  0  0  0  0
  147.3680  160.1030  131.4900 C   0  0  0  0  0  0  0  0  0  0  0  0
  148.3460  159.8630  130.5780 N   0  0  0  0  0  0  0  0  0  0  0  0
  149.3380  158.9670  130.8110 C   0  0  0  0  0  0  0  0  0  0  0  0
  149.3640  158.2520  132.0060 C   0  0  0  0  0  0  0  0  0  0  0  0
  148.3720  158.4690  132.9660 C   0  0  0  0  0  0  0  0  0  0  0  0
  148.4360  157.4810  134.4830 S   0  0  0  0  0  0  0  0  0  0  0  0
  143.7910  159.0070  133.6880 C   0  0  0  0  0  0  0  0  0  0  0  0
  142.8030  158.0280  133.5350 C   0  0  0  0  0  0  0  0  0  0  0  0
  139.6005  158.2471  131.4781 H   0  0  0  0  0  0  0  0  0  0  0  0
  138.5848  159.2334  130.3725 H   0  0  0  0  0  0  0  0  0  0  0  0
  140.3697  159.4357  130.3725 H   0  0  0  0  0  0  0  0  0  0  0  0
  139.2588  161.2887  131.5867 H   0  0  0  0  0  0  0  0  0  0  0  0
  138.4859  160.0891  132.6925 H   0  0  0  0  0  0  0  0  0  0  0  0
  138.7680  158.4250  134.1960 H   0  0  0  0  0  0  0  0  0  0  0  0
  141.8607  154.9088  133.0959 H   0  0  0  0  0  0  0  0  0  0  0  0
  144.6975  155.2364  133.0226 H   0  0  0  0  0  0  0  0  0  0  0  0
  146.5207  156.9540  133.2530 H   0  0  0  0  0  0  0  0  0  0  0  0
  146.7180  159.5410  134.7346 H   0  0  0  0  0  0  0  0  0  0  0  0
  145.5082  161.4235  134.7662 H   0  0  0  0  0  0  0  0  0  0  0  0
  146.3438  161.7532  133.2107 H   0  0  0  0  0  0  0  0  0  0  0  0
  144.6850  161.0640  133.2107 H   0  0  0  0  0  0  0  0  0  0  0  0
  146.5769  160.8320  131.2603 H   0  0  0  0  0  0  0  0  0  0  0  0
  150.1216  158.8053  130.0561 H   0  0  0  0  0  0  0  0  0  0  0  0
  150.1626  157.5191  132.1934 H   0  0  0  0  0  0  0  0  0  0  0  0
  143.5190  160.0555  133.8794 H   0  0  0  0  0  0  0  0  0  0  0  0
  1  2  1  0
  2  3  1  0
  3  4  1  0
  4  5  2  0
  4  6  1  0
  6  7  1  0
  7  8  1  0
  8  9  1  0
  8 10  2  0
  7 11  2  0
 11 12  1  0
 12 13  2  0
 13 14  1  0
 14 15  2  0
 15 16  1  0
 16 17  1  0
 16 18  1  0
 18 19  2  0
 19 20  1  0
 20 21  2  0
 21 22  1  0
 22 23  2  0
 23 24  1  0
 15 25  1  0
 25 26  2  0
 26  6  1  0
 26 12  1  0
 23 18  1  0
  1 27  1  0
  1 28  1  0
  1 29  1  0
  2 30  1  0
  2 31  1  0
  9 32  1  0
 11 33  1  0
 13 34  1  0
 14 35  1  0
 16 36  1  1
 17 37  1  0
 17 38  1  0
 17 39  1  0
 19 40  1  0
 21 41  1  0
 22 42  1  0
 25 43  1  0
M  CHG  2   9  -1  24  -1
M  END
>  <UniqueID>  (86) 
86

>  <SMILES>  (86) 
CCOC(=O)n1c(C([NH-])=O)cc2ccc([C@H](C)c3cnccc3[S-])cc21

>  <Energy>  (86) 
83.61977954457411

>  <Genealogy>  (86) 
CCOC(=O)n1c(C([NH-])=O)cc2ccc(C(C)c3cnccc3[S-])cc21 (protonated)
CCOC(=O)n1c(C([NH-])=O)cc2ccc([C@H](C)c3cnccc3[S-])cc21 (chirality)
CCOC(=O)n1c(C([NH-])=O)cc2ccc([C@H](C)c3cnccc3[S-])cc21 (3D coordinates assigned)
CCOC(=O)n1c(C([NH-])=O)cc2ccc([C@H](C)c3cnccc3[S-])cc21 (optimized conformer: 83.61977954457411 kcal/mol)

>  <smiles>  (86) 
CCOC(=O)n1c(C(N)=O)cc2ccc(C(C)c3cnccc3S)cc21

>  <score_type>  (86) 
oracle

>  <origin>  (86) 
adg

>  <m_score__min__energy>  (86) 
-7.29

>  <m_primary>  (86) 
energy

$$$$
86:0
     RDKit          3D

 39 40  0  0  0  0  0  0  0  0999 V2000
  150.7280  150.3510  130.2680 C   0  0  0  0  0  0  0  0  0  0  0  0
  150.0440  150.3640  131.4160 C   0  0  0  0  0  0  0  0  0  0  0  0
  149.9670  151.5940  132.2800 C   0  0  0  0  0  0  0  0  0  0  0  0
  148.5380  152.1340  132.4040 C   0  0  0  0  0  0  0  0  0  0  0  0
  148.4890  153.2210  133.3280 O   0  0  0  0  0  0  0  0  0  0  0  0
  148.8550  154.5310  133.0000 C   0  0  0  0  0  0  0  0  0  0  0  0
  149.8370  154.7510  132.2390 O   0  0  0  0  0  0  0  0  0  0  0  0
  148.0820  155.6310  133.5000 N   0  0  0  0  0  0  0  0  0  0  0  0
  146.9960  155.5850  134.3220 C   0  0  0  0  0  0  0  0  0  0  0  0
  146.4960  154.3890  135.0310 C   0  0  0  0  0  0  0  0  0  0  0  0
  147.3570  153.6140  135.8610 N   0  0  0  0  0  0  0  0  0  0  0  0
  145.2800  154.0690  134.9350 O   0  0  0  0  0  0  0  0  0  0  0  0
  146.4380  156.8550  134.4620 C   0  0  0  0  0  0  0  0  0  0  0  0
  147.2210  157.6850  133.6940 C   0  0  0  0  0  0  0  0  0  0  0  0
  147.1000  159.0470  133.4360 C   0  0  0  0  0  0  0  0  0  0  0  0
  148.0220  159.6350  132.5530 C   0  0  0  0  0  0  0  0  0  0  0  0
  149.0420  158.8580  131.9500 C   0  0  0  0  0  0  0  0  0  0  0  0
  149.9890  159.4870  130.9650 C   0  0  0  0  0  0  0  0  0  0  0  0
  149.2930  160.5500  130.1640 C   0  0  0  0  0  0  0  0  0  0  0  0
  149.5700  161.8480  130.3260 C   0  0  0  0  0  0  0  0  0  0  0  0
  149.1290  157.4770  132.2300 C   0  0  0  0  0  0  0  0  0  0  0  0
  148.2070  156.9210  133.1250 C   0  0  0  0  0  0  0  0  0  0  0  0
  150.7643  149.4352  129.6598 H   0  0  0  0  0  0  0  0  0  0  0  0
  151.2547  151.2561  129.9313 H   0  0  0  0  0  0  0  0  0  0  0  0
  149.5229  149.4505  131.7384 H   0  0  0  0  0  0  0  0  0  0  0  0
  150.3381  151.3434  133.2847 H   0  0  0  0  0  0  0  0  0  0  0  0
  150.5800  152.3748  131.8062 H   0  0  0  0  0  0  0  0  0  0  0  0
  148.1965  152.4822  131.4180 H   0  0  0  0  0  0  0  0  0  0  0  0
  147.8853  151.3279  132.7705 H   0  0  0  0  0  0  0  0  0  0  0  0
  148.0690  152.9730  135.4480 H   0  0  0  0  0  0  0  0  0  0  0  0
  145.5580  157.1341  135.0600 H   0  0  0  0  0  0  0  0  0  0  0  0
  146.3071  159.6452  133.9086 H   0  0  0  0  0  0  0  0  0  0  0  0
  147.9510  160.7093  132.3277 H   0  0  0  0  0  0  0  0  0  0  0  0
  150.8302  159.9390  131.5109 H   0  0  0  0  0  0  0  0  0  0  0  0
  150.3537  158.7087  130.2785 H   0  0  0  0  0  0  0  0  0  0  0  0
  148.5351  160.2527  129.4243 H   0  0  0  0  0  0  0  0  0  0  0  0
  149.0426  162.6023  129.7237 H   0  0  0  0  0  0  0  0  0  0  0  0
  150.3253  162.1616  131.0616 H   0  0  0  0  0  0  0  0  0  0  0  0
  149.9018  156.8534  131.7568 H   0  0  0  0  0  0  0  0  0  0  0  0
  1  2  2  0
  2  3  1  0
  3  4  1  0
  4  5  1  0
  5  6  1  0
  6  7  2  0
  6  8  1  0
  8  9  1  0
  9 10  1  0
 10 11  1  0
 10 12  2  0
  9 13  2  0
 13 14  1  0
 14 15  2  0
 15 16  1  0
 16 17  2  0
 17 18  1  0
 18 19  1  0
 19 20  2  0
 17 21  1  0
 21 22  2  0
 22  8  1  0
 22 14  1  0
  1 23  1  0
  1 24  1  0
  2 25  1  0
  3 26  1  0
  3 27  1  0
  4 28  1  0
  4 29  1  0
 11 30  1  0
 13 31  1  0
 15 32  1  0
 16 33  1  0
 18 34  1  0
 18 35  1  0
 19 36  1  0
 20 37  1  0
 20 38  1  0
 21 39  1  0
M  CHG  1  11  -1
M  END
>  <UniqueID>  (87) 
87

>  <SMILES>  (87) 
C=CCCOC(=O)n1c(C([NH-])=O)cc2ccc(CC=C)cc21

>  <Energy>  (87) 
68.49066671910288

>  <Genealogy>  (87) 
C=CCCOC(=O)n1c(C([NH-])=O)cc2ccc(CC=C)cc21 (protonated)
C=CCCOC(=O)n1c(C([NH-])=O)cc2ccc(CC=C)cc21 (3D coordinates assigned)
C=CCCOC(=O)n1c(C([NH-])=O)cc2ccc(CC=C)cc21 (optimized conformer: 68.49066671910288 kcal/mol)

>  <smiles>  (87) 
C=CCCOC(=O)n1c(C(N)=O)cc2ccc(CC=C)cc21

>  <score_type>  (87) 
oracle

>  <origin>  (87) 
adg

>  <m_score__min__energy>  (87) 
-7.2999999999999998

>  <m_primary>  (87) 
energy

$$$$
87:0
     RDKit          3D

 39 41  0  0  0  0  0  0  0  0999 V2000
  140.3910  157.3790  136.4620 C   0  0  0  0  0  0  0  0  0  0  0  0
  140.2500  157.2270  134.9810 C   0  0  0  0  0  0  0  0  0  0  0  0
  139.1290  157.4290  134.4440 O   0  0  0  0  0  0  0  0  0  0  0  0
  141.3920  156.9370  134.1610 N   0  0  0  0  0  0  0  0  0  0  0  0
  142.1230  157.7990  133.3990 C   0  0  0  0  0  0  0  0  0  0  0  0
  141.9840  159.2700  133.3770 C   0  0  0  0  0  0  0  0  0  0  0  0
  140.6980  159.8840  133.4200 N   0  0  0  0  0  0  0  0  0  0  0  0
  143.0140  159.9950  133.3600 O   0  0  0  0  0  0  0  0  0  0  0  0
  143.0980  157.1070  132.6810 C   0  0  0  0  0  0  0  0  0  0  0  0
  142.9460  155.7850  133.0380 C   0  0  0  0  0  0  0  0  0  0  0  0
  143.6400  154.6560  132.6160 C   0  0  0  0  0  0  0  0  0  0  0  0
  143.2470  153.4100  133.1340 C   0  0  0  0  0  0  0  0  0  0  0  0
  142.1780  153.3180  134.0620 C   0  0  0  0  0  0  0  0  0  0  0  0
  141.7340  151.9750  134.5700 C   0  0  0  0  0  0  0  0  0  0  0  0
  141.1720  151.1590  133.4430 C   0  0  0  0  0  0  0  0  0  0  0  0
  141.3460  149.7730  133.4010 C   0  0  0  0  0  0  0  0  0  0  0  0
  140.7740  149.0470  132.3620 C   0  0  0  0  0  0  0  0  0  0  0  0
  140.0430  149.7190  131.3720 C   0  0  0  0  0  0  0  0  0  0  0  0
  139.3720  148.9510  130.2630 C   0  0  0  0  0  0  0  0  0  0  0  0
  138.0260  149.2650  130.2430 F   0  0  0  0  0  0  0  0  0  0  0  0
  139.5170  147.5880  130.4520 F   0  0  0  0  0  0  0  0  0  0  0  0
  139.9310  149.2820  129.0410 F   0  0  0  0  0  0  0  0  0  0  0  0
  139.8740  151.0680  131.4800 N   0  0  0  0  0  0  0  0  0  0  0  0
  140.4230  151.7610  132.4810 N   0  0  0  0  0  0  0  0  0  0  0  0
  141.4910  154.4860  134.4590 C   0  0  0  0  0  0  0  0  0  0  0  0
  141.9120  155.7120  133.9350 C   0  0  0  0  0  0  0  0  0  0  0  0
  139.7270  156.6633  136.9689 H   0  0  0  0  0  0  0  0  0  0  0  0
  141.4333  157.1819  136.7532 H   0  0  0  0  0  0  0  0  0  0  0  0
  140.1164  158.4036  136.7532 H   0  0  0  0  0  0  0  0  0  0  0  0
  139.8610  159.3530  133.7460 H   0  0  0  0  0  0  0  0  0  0  0  0
  143.8327  157.5275  131.9786 H   0  0  0  0  0  0  0  0  0  0  0  0
  144.4706  154.7358  131.8992 H   0  0  0  0  0  0  0  0  0  0  0  0
  143.7733  152.4976  132.8169 H   0  0  0  0  0  0  0  0  0  0  0  0
  142.5951  151.4481  135.0069 H   0  0  0  0  0  0  0  0  0  0  0  0
  140.9562  152.1178  135.3347 H   0  0  0  0  0  0  0  0  0  0  0  0
  141.9290  149.2619  134.1813 H   0  0  0  0  0  0  0  0  0  0  0  0
  140.8940  147.9545  132.3172 H   0  0  0  0  0  0  0  0  0  0  0  0
  139.2990  151.5850  130.7780 H   0  0  0  0  0  0  0  0  0  0  0  0
  140.6467  154.4327  135.1621 H   0  0  0  0  0  0  0  0  0  0  0  0
  1  2  1  0
  2  3  2  0
  2  4  1  0
  4  5  1  0
  5  6  1  0
  6  7  1  0
  6  8  2  0
  5  9  2  0
  9 10  1  0
 10 11  2  0
 11 12  1  0
 12 13  2  0
 13 14  1  0
 14 15  1  0
 15 16  2  0
 16 17  1  0
 17 18  2  0
 18 19  1  0
 19 20  1  0
 19 21  1  0
 19 22  1  0
 18 23  1  0
 23 24  2  0
 13 25  1  0
 25 26  2  0
 26  4  1  0
 26 10  1  0
 24 15  1  0
  1 27  1  0
  1 28  1  0
  1 29  1  0
  7 30  1  0
  9 31  1  0
 11 32  1  0
 12 33  1  0
 14 34  1  0
 14 35  1  0
 16 36  1  0
 17 37  1  0
 23 38  1  0
 25 39  1  0
M  CHG  2   7  -1  23   1
M  END
>  <UniqueID>  (88) 
88

>  <SMILES>  (88) 
CC(=O)n1c(C([NH-])=O)cc2ccc(Cc3ccc(C(F)(F)F)[nH+]n3)cc21

>  <Energy>  (88) 
79.33380111289507

>  <Genealogy>  (88) 
CC(=O)n1c(C([NH-])=O)cc2ccc(Cc3ccc(C(F)(F)F)[nH+]n3)cc21 (protonated)
CC(=O)n1c(C([NH-])=O)cc2ccc(Cc3ccc(C(F)(F)F)[nH+]n3)cc21 (3D coordinates assigned)
CC(=O)n1c(C([NH-])=O)cc2ccc(Cc3ccc(C(F)(F)F)[nH+]n3)cc21 (optimized conformer: 79.33380111289507 kcal/mol)

>  <smiles>  (88) 
CC(=O)n1c(C(N)=O)cc2ccc(Cc3ccc(C(F)(F)F)nn3)cc21

>  <score_type>  (88) 
oracle

>  <origin>  (88) 
adg

>  <m_score__min__energy>  (88) 
-7.4400000000000004

>  <m_primary>  (88) 
energy

$$$$
88:0
     RDKit          3D

 38 39  0  0  0  0  0  0  0  0999 V2000
  149.3380  151.7490  133.9060 C   0  0  0  0  0  0  0  0  0  0  0  0
  148.8000  151.8010  132.4640 C   0  0  0  0  0  0  0  0  0  0  0  0
  147.7380  150.7070  132.2400 C   0  0  0  0  0  0  0  0  0  0  0  0
  149.9630  151.5690  131.4900 C   0  0  0  0  0  0  0  0  0  0  0  0
  148.2570  153.0970  132.1730 O   0  0  0  0  0  0  0  0  0  0  0  0
  148.7800  154.3320  132.5860 C   0  0  0  0  0  0  0  0  0  0  0  0
  150.0130  154.5740  132.4980 O   0  0  0  0  0  0  0  0  0  0  0  0
  147.8950  155.3250  133.1280 N   0  0  0  0  0  0  0  0  0  0  0  0
  146.7460  155.1250  133.8340 C   0  0  0  0  0  0  0  0  0  0  0  0
  146.2480  153.8140  134.3100 C   0  0  0  0  0  0  0  0  0  0  0  0
  145.9310  152.7730  133.3830 N   0  0  0  0  0  0  0  0  0  0  0  0
  146.0680  153.6140  135.5410 O   0  0  0  0  0  0  0  0  0  0  0  0
  146.1430  156.3440  134.1390 C   0  0  0  0  0  0  0  0  0  0  0  0
  146.9640  157.3040  133.5940 C   0  0  0  0  0  0  0  0  0  0  0  0
  146.8450  158.6910  133.5990 C   0  0  0  0  0  0  0  0  0  0  0  0
  147.8350  159.4390  132.9410 C   0  0  0  0  0  0  0  0  0  0  0  0
  148.9090  158.7920  132.2790 C   0  0  0  0  0  0  0  0  0  0  0  0
  149.9730  159.6010  131.5990 C   0  0  0  0  0  0  0  0  0  0  0  0
  149.3390  160.1900  129.8670 Br  0  0  0  0  0  0  0  0  0  0  0  0
  149.0040  157.3830  132.3070 C   0  0  0  0  0  0  0  0  0  0  0  0
  148.0140  156.6640  132.9880 C   0  0  0  0  0  0  0  0  0  0  0  0
  148.4995  151.8300  134.6133 H   0  0  0  0  0  0  0  0  0  0  0  0
  149.8630  150.7959  134.0673 H   0  0  0  0  0  0  0  0  0  0  0  0
  150.0358  152.5839  134.0673 H   0  0  0  0  0  0  0  0  0  0  0  0
  147.3803  150.3385  133.2128 H   0  0  0  0  0  0  0  0  0  0  0  0
  146.8934  151.1264  131.6737 H   0  0  0  0  0  0  0  0  0  0  0  0
  148.1823  149.8752  131.6737 H   0  0  0  0  0  0  0  0  0  0  0  0
  150.8864  151.3848  132.0587 H   0  0  0  0  0  0  0  0  0  0  0  0
  149.7424  150.6972  130.8566 H   0  0  0  0  0  0  0  0  0  0  0  0
  150.0938  152.4587  130.8566 H   0  0  0  0  0  0  0  0  0  0  0  0
  145.5440  151.8660  133.7270 H   0  0  0  0  0  0  0  0  0  0  0  0
  146.1180  152.8810  132.3620 H   0  0  0  0  0  0  0  0  0  0  0  0
  145.2088  156.5044  134.6971 H   0  0  0  0  0  0  0  0  0  0  0  0
  146.0016  159.1859  134.1028 H   0  0  0  0  0  0  0  0  0  0  0  0
  147.7766  160.5374  132.9392 H   0  0  0  0  0  0  0  0  0  0  0  0
  150.2163  160.4780  132.2168 H   0  0  0  0  0  0  0  0  0  0  0  0
  150.8722  158.9815  131.4661 H   0  0  0  0  0  0  0  0  0  0  0  0
  149.8346  156.8637  131.8066 H   0  0  0  0  0  0  0  0  0  0  0  0
  1  2  1  0
  2  3  1  0
  2  4  1  0
  2  5  1  0
  5  6  1  0
  6  7  2  0
  6  8  1  0
  8  9  1  0
  9 10  1  0
 10 11  1  0
 10 12  2  0
  9 13  2  0
 13 14  1  0
 14 15  2  0
 15 16  1  0
 16 17  2  0
 17 18  1  0
 18 19  1  0
 17 20  1  0
 20 21  2  0
 21  8  1  0
 21 14  1  0
  1 22  1  0
  1 23  1  0
  1 24  1  0
  3 25  1  0
  3 26  1  0
  3 27  1  0
  4 28  1  0
  4 29  1  0
  4 30  1  0
 11 31  1  0
 11 32  1  0
 13 33  1  0
 15 34  1  0
 16 35  1  0
 18 36  1  0
 18 37  1  0
 20 38  1  0
M  END
>  <UniqueID>  (89) 
89

>  <SMILES>  (89) 
CC(C)(C)OC(=O)n1c(C(N)=O)cc2ccc(CBr)cc21

>  <Energy>  (89) 
70.29582567141814

>  <Genealogy>  (89) 
CC(C)(C)OC(=O)n1c(C(N)=O)cc2ccc(CBr)cc21 (3D coordinates assigned)
CC(C)(C)OC(=O)n1c(C(N)=O)cc2ccc(CBr)cc21 (optimized conformer: 70.29582567141814 kcal/mol)

>  <smiles>  (89) 
CC(C)(C)OC(=O)n1c(C(N)=O)cc2ccc(CBr)cc21

>  <score_type>  (89) 
oracle

>  <origin>  (89) 
adg

>  <m_score__min__energy>  (89) 
-7.6100000000000003

>  <m_primary>  (89) 
energy

$$$$
89:0
     RDKit          3D

 33 34  0  0  0  0  0  0  0  0999 V2000
  150.8650  150.3640  130.4630 N   0  0  0  0  0  0  0  0  0  0  0  0
  149.9590  150.7290  131.0820 C   0  0  0  0  0  0  0  0  0  0  0  0
  148.8080  151.1950  131.8670 C   0  0  0  0  0  0  0  0  0  0  0  0
  149.2410  152.1120  133.0200 C   0  0  0  0  0  0  0  0  0  0  0  0
  149.6020  153.5400  132.5740 C   0  0  0  0  0  0  0  0  0  0  0  0
  148.5140  154.5300  132.9060 C   0  0  0  0  0  0  0  0  0  0  0  0
  147.3150  154.0900  133.5220 C   0  0  0  0  0  0  0  0  0  0  0  0
  146.3110  155.0090  133.8680 C   0  0  0  0  0  0  0  0  0  0  0  0
  146.5310  156.3540  133.5840 C   0  0  0  0  0  0  0  0  0  0  0  0
  145.7390  157.4520  133.8350 C   0  0  0  0  0  0  0  0  0  0  0  0
  146.4590  158.5440  133.3530 C   0  0  0  0  0  0  0  0  0  0  0  0
  145.9360  159.9280  133.3280 C   0  0  0  0  0  0  0  0  0  0  0  0
  146.7620  161.0270  133.7160 N   0  0  0  0  0  0  0  0  0  0  0  0
  144.7410  160.1460  132.9930 O   0  0  0  0  0  0  0  0  0  0  0  0
  147.6500  158.1370  132.8290 N   0  0  0  0  0  0  0  0  0  0  0  0
  148.7020  158.9610  132.2990 C   0  0  0  0  0  0  0  0  0  0  0  0
  149.1880  158.7450  130.9760 N   0  0  0  0  0  0  0  0  0  0  0  0
  149.1870  159.8940  132.9920 O   0  0  0  0  0  0  0  0  0  0  0  0
  147.6780  156.7940  132.9770 C   0  0  0  0  0  0  0  0  0  0  0  0
  148.7020  155.9030  132.6360 C   0  0  0  0  0  0  0  0  0  0  0  0
  148.1271  151.7510  131.2058 H   0  0  0  0  0  0  0  0  0  0  0  0
  148.3078  150.3151  132.2979 H   0  0  0  0  0  0  0  0  0  0  0  0
  148.4151  152.1729  133.7440 H   0  0  0  0  0  0  0  0  0  0  0  0
  150.1503  151.6723  133.4557 H   0  0  0  0  0  0  0  0  0  0  0  0
  150.5280  153.8469  133.0823 H   0  0  0  0  0  0  0  0  0  0  0  0
  149.7304  153.5314  131.4816 H   0  0  0  0  0  0  0  0  0  0  0  0
  147.1700  153.0197  133.7306 H   0  0  0  0  0  0  0  0  0  0  0  0
  145.3792  154.6762  134.3487 H   0  0  0  0  0  0  0  0  0  0  0  0
  144.7488  157.4648  134.3140 H   0  0  0  0  0  0  0  0  0  0  0  0
  147.7700  160.8920  133.9470 H   0  0  0  0  0  0  0  0  0  0  0  0
  146.3710  161.9960  133.7310 H   0  0  0  0  0  0  0  0  0  0  0  0
  149.0140  157.8410  130.4820 H   0  0  0  0  0  0  0  0  0  0  0  0
  149.6304  156.2635  132.1691 H   0  0  0  0  0  0  0  0  0  0  0  0
  1  2  3  0
  2  3  1  0
  3  4  1  0
  4  5  1  0
  5  6  1  0
  6  7  2  0
  7  8  1  0
  8  9  2  0
  9 10  1  0
 10 11  2  0
 11 12  1  0
 12 13  1  0
 12 14  2  0
 11 15  1  0
 15 16  1  0
 16 17  1  0
 16 18  2  0
 15 19  1  0
 19 20  2  0
 20  6  1  0
 19  9  1  0
  3 21  1  0
  3 22  1  0
  4 23  1  0
  4 24  1  0
  5 25  1  0
  5 26  1  0
  7 27  1  0
  8 28  1  0
 10 29  1  0
 13 30  1  0
 13 31  1  0
 17 32  1  0
 20 33  1  0
M  CHG  1  17  -1
M  END
>  <UniqueID>  (90) 
90

>  <SMILES>  (90) 
N#CCCCc1ccc2cc(C(N)=O)n(C([NH-])=O)c2c1

>  <Energy>  (90) 
66.79389919366804

>  <Genealogy>  (90) 
N#CCCCc1ccc2cc(C(N)=O)n(C([NH-])=O)c2c1 (protonated)
N#CCCCc1ccc2cc(C(N)=O)n(C([NH-])=O)c2c1 (3D coordinates assigned)
N#CCCCc1ccc2cc(C(N)=O)n(C([NH-])=O)c2c1 (optimized conformer: 66.79389919366804 kcal/mol)

>  <smiles>  (90) 
N#CCCCc1ccc2cc(C(N)=O)n(C(N)=O)c2c1

>  <score_type>  (90) 
oracle

>  <origin>  (90) 
adg

>  <m_score__min__energy>  (90) 
-7.1799999999999997

>  <m_primary>  (90) 
energy

$$$$
90:0
     RDKit          3D

 30 32  0  0  0  0  0  0  0  0999 V2000
  140.6050  159.1260  136.4470 N   0  0  0  0  0  0  0  0  0  0  0  0
  140.8190  158.7710  135.0840 C   0  0  0  0  0  0  0  0  0  0  0  0
  139.8250  158.6080  134.3260 O   0  0  0  0  0  0  0  0  0  0  0  0
  142.1820  158.5370  134.5640 C   0  0  0  0  0  0  0  0  0  0  0  0
  142.8210  157.3010  134.6220 C   0  0  0  0  0  0  0  0  0  0  0  0
  144.0860  157.5210  134.1300 C   0  0  0  0  0  0  0  0  0  0  0  0
  145.1420  156.6340  133.9490 C   0  0  0  0  0  0  0  0  0  0  0  0
  146.3300  157.1290  133.3900 C   0  0  0  0  0  0  0  0  0  0  0  0
  146.4450  158.4920  133.0140 C   0  0  0  0  0  0  0  0  0  0  0  0
  147.7120  158.9730  132.4160 C   0  0  0  0  0  0  0  0  0  0  0  0
  148.9510  158.7150  132.8780 N   0  0  0  0  0  0  0  0  0  0  0  0
  149.8120  159.3170  132.0760 N   0  0  0  0  0  0  0  0  0  0  0  0
  149.0600  159.9270  131.1380 C   0  0  0  0  0  0  0  0  0  0  0  0
  149.6150  160.7520  130.0260 C   0  0  0  0  0  0  0  0  0  0  0  0
  149.9450  162.0080  130.4990 F   0  0  0  0  0  0  0  0  0  0  0  0
  150.7460  160.1400  129.5190 F   0  0  0  0  0  0  0  0  0  0  0  0
  147.7790  159.7250  131.3410 O   0  0  0  0  0  0  0  0  0  0  0  0
  145.3460  159.3620  133.2120 C   0  0  0  0  0  0  0  0  0  0  0  0
  144.1810  158.8450  133.7900 C   0  0  0  0  0  0  0  0  0  0  0  0
  143.0160  159.4830  134.0480 N   0  0  0  0  0  0  0  0  0  0  0  0
  142.7070  160.8520  133.7390 C   0  0  0  0  0  0  0  0  0  0  0  0
  141.5180  161.1990  133.5050 O   0  0  0  0  0  0  0  0  0  0  0  0
  143.7120  161.8110  133.7210 O   0  0  0  0  0  0  0  0  0  0  0  0
  139.7850  159.7080  136.7290 H   0  0  0  0  0  0  0  0  0  0  0  0
  142.4026  156.3505  134.9845 H   0  0  0  0  0  0  0  0  0  0  0  0
  145.0486  155.5761  134.2355 H   0  0  0  0  0  0  0  0  0  0  0  0
  147.1835  156.4511  133.2413 H   0  0  0  0  0  0  0  0  0  0  0  0
  149.2280  158.1490  133.7100 H   0  0  0  0  0  0  0  0  0  0  0  0
  148.8602  160.8479  129.2316 H   0  0  0  0  0  0  0  0  0  0  0  0
  145.4063  160.4203  132.9182 H   0  0  0  0  0  0  0  0  0  0  0  0
  1  2  1  0
  2  3  2  0
  2  4  1  0
  4  5  2  0
  5  6  1  0
  6  7  2  0
  7  8  1  0
  8  9  2  0
  9 10  1  0
 10 11  2  0
 11 12  1  0
 12 13  2  0
 13 14  1  0
 14 15  1  0
 14 16  1  0
 13 17  1  0
  9 18  1  0
 18 19  2  0
 19 20  1  0
 20 21  1  0
 21 22  2  0
 21 23  1  0
 20  4  1  0
 19  6  1  0
 17 10  1  0
  1 24  1  0
  5 25  1  0
  7 26  1  0
  8 27  1  0
 11 28  1  0
 14 29  1  0
 18 30  1  0
M  CHG  3   1  -1  11   1  23  -1
M  END
>  <UniqueID>  (91) 
91

>  <SMILES>  (91) 
[NH-]C(=O)c1cc2ccc(-c3[nH+]nc(C(F)F)o3)cc2n1C(=O)[O-]

>  <Energy>  (91) 
107.37014998430728

>  <Genealogy>  (91) 
[NH-]C(=O)c1cc2ccc(-c3[nH+]nc(C(F)F)o3)cc2n1C(=O)[O-] (protonated)
[NH-]C(=O)c1cc2ccc(-c3[nH+]nc(C(F)F)o3)cc2n1C(=O)[O-] (3D coordinates assigned)
[NH-]C(=O)c1cc2ccc(-c3[nH+]nc(C(F)F)o3)cc2n1C(=O)[O-] (optimized conformer: 107.37014998430728 kcal/mol)

>  <smiles>  (91) 
NC(=O)c1cc2ccc(-c3nnc(C(F)F)o3)cc2n1C(=O)O

>  <score_type>  (91) 
oracle

>  <origin>  (91) 
adg

>  <m_score__min__energy>  (91) 
-6.6699999999999999

>  <m_primary>  (91) 
energy

$$$$
91:0
     RDKit          3D

 57 60  0  0  0  0  0  0  0  0999 V2000
  147.6040  150.7650  132.1500 C   0  0  0  0  0  0  0  0  0  0  0  0
  147.4360  152.2250  132.2390 N   0  0  0  0  0  0  0  0  0  0  0  0
  146.1950  152.5500  132.9540 C   0  0  0  0  0  0  0  0  0  0  0  0
  145.9210  154.0590  132.9450 C   0  0  0  0  0  0  0  0  0  0  0  0
  147.1250  154.9090  133.0720 N   0  0  0  0  0  0  0  0  0  0  0  0
  146.9600  156.3600  133.1570 C   0  0  0  0  0  0  0  0  0  0  0  0
  148.0830  157.2390  133.0760 C   0  0  0  0  0  0  0  0  0  0  0  0
  147.9300  158.6320  133.1630 C   0  0  0  0  0  0  0  0  0  0  0  0
  146.6500  159.1410  133.3240 C   0  0  0  0  0  0  0  0  0  0  0  0
  146.2310  160.4420  133.4680 C   0  0  0  0  0  0  0  0  0  0  0  0
  144.8490  160.3710  133.6220 C   0  0  0  0  0  0  0  0  0  0  0  0
  143.9890  161.5670  133.7690 C   0  0  0  0  0  0  0  0  0  0  0  0
  142.5750  161.4400  133.6410 N   0  0  0  0  0  0  0  0  0  0  0  0
  144.4830  162.6930  134.0340 O   0  0  0  0  0  0  0  0  0  0  0  0
  144.4280  159.0740  133.5690 N   0  0  0  0  0  0  0  0  0  0  0  0
  143.0900  158.5760  133.7650 C   0  0  0  0  0  0  0  0  0  0  0  0
  142.3080  158.4910  132.7800 O   0  0  0  0  0  0  0  0  0  0  0  0
  142.6030  158.2420  135.0810 N   0  0  0  0  0  0  0  0  0  0  0  0
  142.0930  159.3420  135.9230 C   0  0  0  0  0  0  0  0  0  0  0  0
  140.6310  159.0930  136.3530 C   0  0  0  0  0  0  0  0  0  0  0  0
  139.8840  158.2310  135.3270 C   0  0  0  0  0  0  0  0  0  0  0  0
  140.5620  156.8590  135.1110 C   0  0  0  0  0  0  0  0  0  0  0  0
  142.0800  156.8980  135.4020 C   0  0  1  0  0  0  0  0  0  0  0  0
  142.8330  155.7300  134.7350 C   0  0  0  0  0  0  0  0  0  0  0  0
  142.1840  154.5430  135.0240 F   0  0  0  0  0  0  0  0  0  0  0  0
  142.8770  155.8760  133.3610 F   0  0  0  0  0  0  0  0  0  0  0  0
  144.1200  155.6480  135.2330 F   0  0  0  0  0  0  0  0  0  0  0  0
  145.5500  158.3340  133.3970 C   0  0  0  0  0  0  0  0  0  0  0  0
  145.6730  156.9420  133.3390 C   0  0  0  0  0  0  0  0  0  0  0  0
  148.4920  154.3520  132.9470 C   0  0  0  0  0  0  0  0  0  0  0  0
  148.5640  152.8220  132.9670 C   0  0  0  0  0  0  0  0  0  0  0  0
  147.6530  150.3391  133.1630 H   0  0  0  0  0  0  0  0  0  0  0  0
  146.7500  150.3299  131.6102 H   0  0  0  0  0  0  0  0  0  0  0  0
  148.5345  150.5352  131.6102 H   0  0  0  0  0  0  0  0  0  0  0  0
  147.3960  152.6100  131.2650 H   0  0  0  0  0  0  0  0  0  0  0  0
  145.3557  152.0312  132.4677 H   0  0  0  0  0  0  0  0  0  0  0  0
  146.3030  152.2246  133.9992 H   0  0  0  0  0  0  0  0  0  0  0  0
  145.4229  154.3107  131.9971 H   0  0  0  0  0  0  0  0  0  0  0  0
  145.3009  154.2663  133.8296 H   0  0  0  0  0  0  0  0  0  0  0  0
  149.0894  156.8155  132.9426 H   0  0  0  0  0  0  0  0  0  0  0  0
  148.8012  159.3011  133.1050 H   0  0  0  0  0  0  0  0  0  0  0  0
  146.8553  161.3477  133.4627 H   0  0  0  0  0  0  0  0  0  0  0  0
  142.1510  160.6230  133.1500 H   0  0  0  0  0  0  0  0  0  0  0  0
  142.7211  159.4248  136.8222 H   0  0  0  0  0  0  0  0  0  0  0  0
  142.1269  160.2713  135.3354 H   0  0  0  0  0  0  0  0  0  0  0  0
  140.6267  158.5771  137.3245 H   0  0  0  0  0  0  0  0  0  0  0  0
  140.1212  160.0651  136.4246 H   0  0  0  0  0  0  0  0  0  0  0  0
  138.8568  158.0659  135.6842 H   0  0  0  0  0  0  0  0  0  0  0  0
  139.8933  158.7666  134.3662 H   0  0  0  0  0  0  0  0  0  0  0  0
  140.0928  156.1239  135.7814 H   0  0  0  0  0  0  0  0  0  0  0  0
  140.4306  156.5832  134.0543 H   0  0  0  0  0  0  0  0  0  0  0  0
  142.2584  156.7357  136.4752 H   0  0  0  0  0  0  0  0  0  0  0  0
  144.7832  156.3022  133.4332 H   0  0  0  0  0  0  0  0  0  0  0  0
  148.9193  154.7027  131.9960 H   0  0  0  0  0  0  0  0  0  0  0  0
  149.0514  154.7009  133.8275 H   0  0  0  0  0  0  0  0  0  0  0  0
  149.5047  152.5013  132.4956 H   0  0  0  0  0  0  0  0  0  0  0  0
  148.5188  152.4859  134.0134 H   0  0  0  0  0  0  0  0  0  0  0  0
  1  2  1  0
  2  3  1  0
  3  4  1  0
  4  5  1  0
  5  6  1  0
  6  7  2  0
  7  8  1  0
  8  9  2  0
  9 10  1  0
 10 11  2  0
 11 12  1  0
 12 13  1  0
 12 14  2  0
 11 15  1  0
 15 16  1  0
 16 17  2  0
 16 18  1  0
 18 19  1  0
 19 20  1  0
 20 21  1  0
 21 22  1  0
 22 23  1  0
 23 24  1  0
 24 25  1  0
 24 26  1  0
 24 27  1  0
 15 28  1  0
 28 29  2  0
  5 30  1  0
 30 31  1  0
 31  2  1  0
 29  6  1  0
 28  9  1  0
 23 18  1  0
  1 32  1  0
  1 33  1  0
  1 34  1  0
  2 35  1  0
  3 36  1  0
  3 37  1  0
  4 38  1  0
  4 39  1  0
  7 40  1  0
  8 41  1  0
 10 42  1  0
 13 43  1  0
 19 44  1  0
 19 45  1  0
 20 46  1  0
 20 47  1  0
 21 48  1  0
 21 49  1  0
 22 50  1  0
 22 51  1  0
 23 52  1  1
 29 53  1  0
 30 54  1  0
 30 55  1  0
 31 56  1  0
 31 57  1  0
M  CHG  2   2   1  13  -1
M  END
>  <UniqueID>  (92) 
92

>  <SMILES>  (92) 
C[NH+]1CCN(c2ccc3cc(C([NH-])=O)n(C(=O)N4CCCC[C@H]4C(F)(F)F)c3c2)CC1

>  <Energy>  (92) 
116.12578417430105

>  <Genealogy>  (92) 
C[NH+]1CCN(c2ccc3cc(C([NH-])=O)n(C(=O)N4CCCCC4C(F)(F)F)c3c2)CC1 (protonated)
C[NH+]1CCN(c2ccc3cc(C([NH-])=O)n(C(=O)N4CCCC[C@H]4C(F)(F)F)c3c2)CC1 (chirality)
C[NH+]1CCN(c2ccc3cc(C([NH-])=O)n(C(=O)N4CCCC[C@H]4C(F)(F)F)c3c2)CC1 (3D coordinates assigned)
C[NH+]1CCN(c2ccc3cc(C([NH-])=O)n(C(=O)N4CCCC[C@H]4C(F)(F)F)c3c2)CC1 (nonaromatic ring conformer: 116.12578417430105 kcal/mol)

>  <smiles>  (92) 
CN1CCN(c2ccc3cc(C(N)=O)n(C(=O)N4CCCCC4C(F)(F)F)c3c2)CC1

>  <score_type>  (92) 
oracle

>  <origin>  (92) 
adg

>  <m_score__min__energy>  (92) 
-7.8099999999999996

>  <m_primary>  (92) 
energy

$$$$
92:0
     RDKit          3D

 55 59  0  0  0  0  0  0  0  0999 V2000
  140.3700  149.8710  132.5660 C   0  0  0  0  0  0  0  0  0  0  0  0
  141.5930  150.7360  132.6230 C   0  0  0  0  0  0  0  0  0  0  0  0
  142.8700  150.1600  132.5360 C   0  0  0  0  0  0  0  0  0  0  0  0
  144.0140  150.9590  132.6220 C   0  0  0  0  0  0  0  0  0  0  0  0
  143.8930  152.3460  132.8110 C   0  0  0  0  0  0  0  0  0  0  0  0
  145.0080  153.1990  132.9010 C   0  0  0  0  0  0  0  0  0  0  0  0
  146.3430  152.6970  132.7690 N   0  0  0  0  0  0  0  0  0  0  0  0
  146.6090  151.6620  131.7580 C   0  0  0  0  0  0  0  0  0  0  0  0
  147.4960  150.5580  132.3330 C   0  0  0  0  0  0  0  0  0  0  0  0
  149.0240  151.2590  132.9250 S   0  0  0  0  0  0  0  0  0  0  0  0
  149.3430  150.7140  134.2890 O   0  0  0  0  0  0  0  0  0  0  0  0
  150.1410  150.9260  131.9750 O   0  0  0  0  0  0  0  0  0  0  0  0
  148.8170  153.0250  133.0110 C   0  0  0  0  0  0  0  0  0  0  0  0
  147.4150  153.3720  133.5220 C   0  0  0  0  0  0  0  0  0  0  0  0
  144.8200  154.5290  133.0950 N   0  0  0  0  0  0  0  0  0  0  0  0
  143.5760  155.0700  133.2030 C   0  0  0  0  0  0  0  0  0  0  0  0
  143.4130  156.5280  133.4100 C   0  0  0  0  0  0  0  0  0  0  0  0
  142.1190  157.0920  133.5570 C   0  0  0  0  0  0  0  0  0  0  0  0
  141.9540  158.4720  133.7510 C   0  0  0  0  0  0  0  0  0  0  0  0
  143.0950  159.2670  133.7900 C   0  0  0  0  0  0  0  0  0  0  0  0
  143.2160  160.6230  133.9830 C   0  0  0  0  0  0  0  0  0  0  0  0
  144.5810  160.8730  133.9600 C   0  0  0  0  0  0  0  0  0  0  0  0
  145.1550  162.2200  134.1080 C   0  0  0  0  0  0  0  0  0  0  0  0
  146.5550  162.3950  134.3200 N   0  0  0  0  0  0  0  0  0  0  0  0
  144.3950  163.2240  134.0930 O   0  0  0  0  0  0  0  0  0  0  0  0
  145.2880  159.7280  133.7340 N   0  0  0  0  0  0  0  0  0  0  0  0
  146.7070  159.6130  133.5050 C   0  0  0  0  0  0  0  0  0  0  0  0
  147.3620  160.4570  132.5610 N   0  0  0  0  0  0  0  0  0  0  0  0
  147.3960  158.7920  134.1660 O   0  0  0  0  0  0  0  0  0  0  0  0
  144.3560  158.7480  133.6420 C   0  0  0  0  0  0  0  0  0  0  0  0
  144.5480  157.3720  133.4620 C   0  0  0  0  0  0  0  0  0  0  0  0
  142.4850  154.2610  133.1110 N   0  0  0  0  0  0  0  0  0  0  0  0
  142.6110  152.9230  132.9190 C   0  0  0  0  0  0  0  0  0  0  0  0
  141.4700  152.1190  132.8310 C   0  0  0  0  0  0  0  0  0  0  0  0
  140.0387  149.6367  133.5884 H   0  0  0  0  0  0  0  0  0  0  0  0
  139.5683  150.4041  132.0339 H   0  0  0  0  0  0  0  0  0  0  0  0
  140.6056  148.9375  132.0339 H   0  0  0  0  0  0  0  0  0  0  0  0
  142.9713  149.0732  132.3993 H   0  0  0  0  0  0  0  0  0  0  0  0
  145.0108  150.5009  132.5415 H   0  0  0  0  0  0  0  0  0  0  0  0
  145.6546  151.2240  131.4303 H   0  0  0  0  0  0  0  0  0  0  0  0
  147.1294  152.1255  130.9069 H   0  0  0  0  0  0  0  0  0  0  0  0
  146.9729  150.0659  133.1662 H   0  0  0  0  0  0  0  0  0  0  0  0
  147.7150  149.8211  131.5463 H   0  0  0  0  0  0  0  0  0  0  0  0
  149.5674  153.4453  133.6967 H   0  0  0  0  0  0  0  0  0  0  0  0
  148.9462  153.4497  132.0046 H   0  0  0  0  0  0  0  0  0  0  0  0
  147.3431  153.0729  134.5781 H   0  0  0  0  0  0  0  0  0  0  0  0
  147.2764  154.4553  133.3911 H   0  0  0  0  0  0  0  0  0  0  0  0
  141.2344  156.4393  133.5184 H   0  0  0  0  0  0  0  0  0  0  0  0
  140.9527  158.9119  133.8687 H   0  0  0  0  0  0  0  0  0  0  0  0
  142.4053  161.3527  134.1251 H   0  0  0  0  0  0  0  0  0  0  0  0
  146.9600  163.3550  134.3950 H   0  0  0  0  0  0  0  0  0  0  0  0
  147.1790  161.5680  134.4430 H   0  0  0  0  0  0  0  0  0  0  0  0
  147.2630  161.4940  132.6090 H   0  0  0  0  0  0  0  0  0  0  0  0
  145.5613  156.9556  133.3630 H   0  0  0  0  0  0  0  0  0  0  0  0
  140.4721  152.5721  132.9251 H   0  0  0  0  0  0  0  0  0  0  0  0
  1  2  1  0
  2  3  2  0
  3  4  1  0
  4  5  2  0
  5  6  1  0
  6  7  1  0
  7  8  1  0
  8  9  1  0
  9 10  1  0
 10 11  2  0
 10 12  2  0
 10 13  1  0
 13 14  1  0
  6 15  2  0
 15 16  1  0
 16 17  1  0
 17 18  2  0
 18 19  1  0
 19 20  2  0
 20 21  1  0
 21 22  2  0
 22 23  1  0
 23 24  1  0
 23 25  2  0
 22 26  1  0
 26 27  1  0
 27 28  1  0
 27 29  2  0
 26 30  1  0
 30 31  2  0
 16 32  2  0
 32 33  1  0
 33 34  2  0
 34  2  1  0
 33  5  1  0
 14  7  1  0
 31 17  1  0
 30 20  1  0
  1 35  1  0
  1 36  1  0
  1 37  1  0
  3 38  1  0
  4 39  1  0
  8 40  1  0
  8 41  1  0
  9 42  1  0
  9 43  1  0
 13 44  1  0
 13 45  1  0
 14 46  1  0
 14 47  1  0
 18 48  1  0
 19 49  1  0
 21 50  1  0
 24 51  1  0
 24 52  1  0
 28 53  1  0
 31 54  1  0
 34 55  1  0
M  CHG  1  28  -1
M  END
>  <UniqueID>  (93) 
93

>  <SMILES>  (93) 
Cc1ccc2c(N3CCS(=O)(=O)CC3)nc(-c3ccc4cc(C(N)=O)n(C([NH-])=O)c4c3)nc2c1

>  <Energy>  (93) 
108.19675776992975

>  <Genealogy>  (93) 
Cc1ccc2c(N3CCS(=O)(=O)CC3)nc(-c3ccc4cc(C(N)=O)n(C([NH-])=O)c4c3)nc2c1 (protonated)
Cc1ccc2c(N3CCS(=O)(=O)CC3)nc(-c3ccc4cc(C(N)=O)n(C([NH-])=O)c4c3)nc2c1 (3D coordinates assigned)
Cc1ccc2c(N3CCS(=O)(=O)CC3)nc(-c3ccc4cc(C(N)=O)n(C([NH-])=O)c4c3)nc2c1 (nonaromatic ring conformer: 108.19675776992975 kcal/mol)

>  <smiles>  (93) 
Cc1ccc2c(N3CCS(=O)(=O)CC3)nc(-c3ccc4cc(C(N)=O)n(C(N)=O)c4c3)nc2c1

>  <score_type>  (93) 
oracle

>  <origin>  (93) 
adg

>  <m_score__min__energy>  (93) 
-11.199999999999999

>  <m_primary>  (93) 
energy

$$$$
93:0
     RDKit          3D

 54 57  0  0  0  0  0  0  0  0999 V2000
  142.1100  154.6180  136.3370 C   0  0  0  0  0  0  0  0  0  0  0  0
  142.4620  155.9840  135.7580 C   0  0  0  0  0  0  0  0  0  0  0  0
  141.2330  156.7980  135.6030 N   0  0  0  0  0  0  0  0  0  0  0  0
  141.3440  158.1950  136.1030 C   0  0  0  0  0  0  0  0  0  0  0  0
  141.4170  159.2610  134.9880 C   0  0  0  0  0  0  0  0  0  0  0  0
  142.1660  158.7340  133.7590 C   0  0  0  0  0  0  0  0  0  0  0  0
  143.5420  158.4020  134.1170 N   0  0  0  0  0  0  0  0  0  0  0  0
  144.6820  158.6860  133.3030 C   0  0  0  0  0  0  0  0  0  0  0  0
  144.7300  159.7570  132.6390 O   0  0  0  0  0  0  0  0  0  0  0  0
  145.7780  157.7550  133.2500 N   0  0  0  0  0  0  0  0  0  0  0  0
  147.1090  158.0510  133.2220 C   0  0  0  0  0  0  0  0  0  0  0  0
  147.7000  159.3920  133.3950 C   0  0  0  0  0  0  0  0  0  0  0  0
  147.1400  160.5350  132.7480 N   0  0  0  0  0  0  0  0  0  0  0  0
  148.6800  159.5410  134.1730 O   0  0  0  0  0  0  0  0  0  0  0  0
  147.8690  156.8930  133.0870 C   0  0  0  0  0  0  0  0  0  0  0  0
  146.9580  155.8630  133.0550 C   0  0  0  0  0  0  0  0  0  0  0  0
  147.1670  154.4920  132.9480 C   0  0  0  0  0  0  0  0  0  0  0  0
  146.0410  153.6530  132.9330 C   0  0  0  0  0  0  0  0  0  0  0  0
  144.7310  154.1930  133.0150 C   0  0  0  0  0  0  0  0  0  0  0  0
  143.5470  153.2970  133.0020 C   0  0  0  0  0  0  0  0  0  0  0  0
  143.7070  151.8990  132.9810 C   0  0  0  0  0  0  0  0  0  0  0  0
  142.5910  151.0580  132.9600 C   0  0  0  0  0  0  0  0  0  0  0  0
  141.3040  151.6010  132.9570 C   0  0  0  0  0  0  0  0  0  0  0  0
  140.2240  150.7810  132.9350 F   0  0  0  0  0  0  0  0  0  0  0  0
  141.1310  152.9880  132.9780 C   0  0  0  0  0  0  0  0  0  0  0  0
  139.8830  153.5170  132.9700 F   0  0  0  0  0  0  0  0  0  0  0  0
  142.2450  153.8330  133.0000 C   0  0  0  0  0  0  0  0  0  0  0  0
  144.5620  155.5940  133.1130 C   0  0  0  0  0  0  0  0  0  0  0  0
  145.7020  156.4070  133.1520 C   0  0  0  0  0  0  0  0  0  0  0  0
  141.4600  157.4880  133.1900 C   0  0  0  0  0  0  0  0  0  0  0  0
  140.6490  156.7060  134.2480 C   0  0  0  0  0  0  0  0  0  0  0  0
  142.1236  154.6709  137.4356 H   0  0  0  0  0  0  0  0  0  0  0  0
  141.1065  154.3230  135.9965 H   0  0  0  0  0  0  0  0  0  0  0  0
  142.8460  153.8747  135.9965 H   0  0  0  0  0  0  0  0  0  0  0  0
  143.1578  156.4994  136.4364 H   0  0  0  0  0  0  0  0  0  0  0  0
  142.9339  155.8494  134.7735 H   0  0  0  0  0  0  0  0  0  0  0  0
  140.4645  158.4089  136.7280 H   0  0  0  0  0  0  0  0  0  0  0  0
  142.2889  158.2569  136.6627 H   0  0  0  0  0  0  0  0  0  0  0  0
  140.3950  159.5399  134.6919 H   0  0  0  0  0  0  0  0  0  0  0  0
  141.9620  160.1333  135.3780 H   0  0  0  0  0  0  0  0  0  0  0  0
  142.1710  159.5199  132.9894 H   0  0  0  0  0  0  0  0  0  0  0  0
  146.2320  160.4730  132.2350 H   0  0  0  0  0  0  0  0  0  0  0  0
  147.5920  161.4700  132.8510 H   0  0  0  0  0  0  0  0  0  0  0  0
  148.9644  156.8176  133.0202 H   0  0  0  0  0  0  0  0  0  0  0  0
  148.1835  154.0776  132.8773 H   0  0  0  0  0  0  0  0  0  0  0  0
  146.1759  152.5640  132.8568 H   0  0  0  0  0  0  0  0  0  0  0  0
  144.7178  151.4651  132.9811 H   0  0  0  0  0  0  0  0  0  0  0  0
  142.7264  149.9664  132.9458 H   0  0  0  0  0  0  0  0  0  0  0  0
  142.1032  154.9237  133.0159 H   0  0  0  0  0  0  0  0  0  0  0  0
  143.5557  156.0360  133.1577 H   0  0  0  0  0  0  0  0  0  0  0  0
  140.7741  157.8095  132.3924 H   0  0  0  0  0  0  0  0  0  0  0  0
  142.2438  156.8124  132.8167 H   0  0  0  0  0  0  0  0  0  0  0  0
  139.6271  157.1121  134.2778 H   0  0  0  0  0  0  0  0  0  0  0  0
  140.6594  155.6458  133.9550 H   0  0  0  0  0  0  0  0  0  0  0  0
  1  2  1  0
  2  3  1  0
  3  4  1  0
  4  5  1  0
  5  6  1  0
  6  7  1  0
  7  8  1  0
  8  9  2  0
  8 10  1  0
 10 11  1  0
 11 12  1  0
 12 13  1  0
 12 14  2  0
 11 15  2  0
 15 16  1  0
 16 17  2  0
 17 18  1  0
 18 19  2  0
 19 20  1  0
 20 21  2  0
 21 22  1  0
 22 23  2  0
 23 24  1  0
 23 25  1  0
 25 26  1  0
 25 27  2  0
 19 28  1  0
 28 29  2  0
  6 30  1  0
 30 31  1  0
 31  3  1  0
 29 10  1  0
 29 16  1  0
 27 20  1  0
  1 32  1  0
  1 33  1  0
  1 34  1  0
  2 35  1  0
  2 36  1  0
  4 37  1  0
  4 38  1  0
  5 39  1  0
  5 40  1  0
  6 41  1  0
 13 42  1  0
 13 43  1  0
 15 44  1  0
 17 45  1  0
 18 46  1  0
 21 47  1  0
 22 48  1  0
 27 49  1  0
 28 50  1  0
 30 51  1  0
 30 52  1  0
 31 53  1  0
 31 54  1  0
M  CHG  1   7  -1
M  END
>  <UniqueID>  (94) 
94

>  <SMILES>  (94) 
CCN1CCC([N-]C(=O)n2c(C(N)=O)cc3ccc(-c4ccc(F)c(F)c4)cc32)CC1

>  <Energy>  (94) 
108.07734477200745

>  <Genealogy>  (94) 
CCN1CCC([N-]C(=O)n2c(C(N)=O)cc3ccc(-c4ccc(F)c(F)c4)cc32)CC1 (protonated)
CCN1CCC([N-]C(=O)n2c(C(N)=O)cc3ccc(-c4ccc(F)c(F)c4)cc32)CC1 (3D coordinates assigned)
CCN1CCC([N-]C(=O)n2c(C(N)=O)cc3ccc(-c4ccc(F)c(F)c4)cc32)CC1 (nonaromatic ring conformer: 108.07734477200745 kcal/mol)

>  <smiles>  (94) 
CCN1CCC(NC(=O)n2c(C(N)=O)cc3ccc(-c4ccc(F)c(F)c4)cc32)CC1

>  <score_type>  (94) 
oracle

>  <origin>  (94) 
adg

>  <m_score__min__energy>  (94) 
-9.4000000000000004

>  <m_primary>  (94) 
energy

$$$$
94:0
     RDKit          3D

 79 82  0  0  0  0  0  0  0  0999 V2000
  148.4090  153.2140  134.5100 C   0  0  0  0  0  0  0  0  0  0  0  0
  147.7190  154.0200  135.6280 C   0  0  1  0  0  0  0  0  0  0  0  0
  146.3550  154.4390  135.1070 C   0  0  0  0  0  0  0  0  0  0  0  0
  145.2140  154.2610  135.9010 C   0  0  0  0  0  0  0  0  0  0  0  0
  143.9650  154.7090  135.4610 C   0  0  0  0  0  0  0  0  0  0  0  0
  143.8280  155.3420  134.2120 C   0  0  0  0  0  0  0  0  0  0  0  0
  142.5020  155.8490  133.7550 C   0  0  0  0  0  0  0  0  0  0  0  0
  141.4520  154.9440  133.4410 C   0  0  0  0  0  0  0  0  0  0  0  0
  140.2030  155.4100  133.0010 C   0  0  0  0  0  0  0  0  0  0  0  0
  140.0310  156.7810  132.8590 C   0  0  0  0  0  0  0  0  0  0  0  0
  138.9360  157.4940  132.4280 C   0  0  0  0  0  0  0  0  0  0  0  0
  139.3380  158.8270  132.4330 C   0  0  0  0  0  0  0  0  0  0  0  0
  138.5000  159.9240  131.9030 C   0  0  0  0  0  0  0  0  0  0  0  0
  139.0710  161.1770  131.5340 N   0  0  0  0  0  0  0  0  0  0  0  0
  137.2700  159.7280  131.7080 O   0  0  0  0  0  0  0  0  0  0  0  0
  140.6260  158.9360  132.8730 N   0  0  0  0  0  0  0  0  0  0  0  0
  141.4130  160.1280  133.0190 C   0  0  0  0  0  0  0  0  0  0  0  0
  140.8480  161.2270  133.2730 O   0  0  0  0  0  0  0  0  0  0  0  0
  142.8070  160.0500  132.8800 O   0  0  0  0  0  0  0  0  0  0  0  0
  143.7740  160.0910  133.9370 C   0  0  0  0  0  0  0  0  0  0  0  0
  144.3660  161.5060  134.0810 C   0  0  0  0  0  0  0  0  0  0  0  0
  144.8890  159.0580  133.6880 C   0  0  0  0  0  0  0  0  0  0  0  0
  143.0380  159.7280  135.2360 C   0  0  0  0  0  0  0  0  0  0  0  0
  141.0340  157.6720  133.1260 C   0  0  0  0  0  0  0  0  0  0  0  0
  142.2770  157.2410  133.6060 C   0  0  0  0  0  0  0  0  0  0  0  0
  144.9760  155.5120  133.4150 C   0  0  0  0  0  0  0  0  0  0  0  0
  146.2250  155.0810  133.8640 C   0  0  0  0  0  0  0  0  0  0  0  0
  147.5890  153.2410  136.8910 N   0  0  0  0  0  0  0  0  0  0  0  0
  147.4320  154.1300  138.0620 C   0  0  0  0  0  0  0  0  0  0  0  0
  146.8980  153.3010  139.2270 C   0  0  0  0  0  0  0  0  0  0  0  0
  147.6060  152.0200  139.3280 N   0  0  0  0  0  0  0  0  0  0  0  0
  147.1760  151.0680  140.3170 C   0  0  0  0  0  0  0  0  0  0  0  0
  147.8430  150.0150  140.5130 O   0  0  0  0  0  0  0  0  0  0  0  0
  146.0080  151.3210  141.0570 O   0  0  0  0  0  0  0  0  0  0  0  0
  144.6630  151.0210  140.6570 C   0  0  0  0  0  0  0  0  0  0  0  0
  143.6860  152.0910  141.1840 C   0  0  0  0  0  0  0  0  0  0  0  0
  144.2510  149.6190  141.1490 C   0  0  0  0  0  0  0  0  0  0  0  0
  144.6330  151.0360  139.1210 C   0  0  0  0  0  0  0  0  0  0  0  0
  148.8500  151.8130  138.5710 C   0  0  0  0  0  0  0  0  0  0  0  0
  148.7270  152.3130  137.1100 C   0  0  0  0  0  0  0  0  0  0  0  0
  149.0624  152.4508  134.9579 H   0  0  0  0  0  0  0  0  0  0  0  0
  147.6463  152.7239  133.8871 H   0  0  0  0  0  0  0  0  0  0  0  0
  149.0108  153.8921  133.8871 H   0  0  0  0  0  0  0  0  0  0  0  0
  148.3319  154.8981  135.8794 H   0  0  0  0  0  0  0  0  0  0  0  0
  145.3019  153.7646  136.8787 H   0  0  0  0  0  0  0  0  0  0  0  0
  143.0799  154.5651  136.0981 H   0  0  0  0  0  0  0  0  0  0  0  0
  141.6206  153.8619  133.5443 H   0  0  0  0  0  0  0  0  0  0  0  0
  139.3848  154.7102  132.7754 H   0  0  0  0  0  0  0  0  0  0  0  0
  137.9519  157.0955  132.1405 H   0  0  0  0  0  0  0  0  0  0  0  0
  139.1090  161.9690  132.2130 H   0  0  0  0  0  0  0  0  0  0  0  0
  144.4695  161.7533  135.1478 H   0  0  0  0  0  0  0  0  0  0  0  0
  145.3542  161.5408  133.5990 H   0  0  0  0  0  0  0  0  0  0  0  0
  143.6970  162.2341  133.5990 H   0  0  0  0  0  0  0  0  0  0  0  0
  145.2774  158.6981  134.6522 H   0  0  0  0  0  0  0  0  0  0  0  0
  144.4826  158.2102  133.1170 H   0  0  0  0  0  0  0  0  0  0  0  0
  145.7033  159.5279  133.1170 H   0  0  0  0  0  0  0  0  0  0  0  0
  143.6487  160.0292  136.0999 H   0  0  0  0  0  0  0  0  0  0  0  0
  142.0719  160.2530  135.2690 H   0  0  0  0  0  0  0  0  0  0  0  0
  142.8665  158.6420  135.2690 H   0  0  0  0  0  0  0  0  0  0  0  0
  143.0625  157.9673  133.8621 H   0  0  0  0  0  0  0  0  0  0  0  0
  144.8875  155.9895  132.4280 H   0  0  0  0  0  0  0  0  0  0  0  0
  147.1154  155.2453  133.2394 H   0  0  0  0  0  0  0  0  0  0  0  0
  148.4056  154.5655  138.3312 H   0  0  0  0  0  0  0  0  0  0  0  0
  146.7329  154.9459  137.8265 H   0  0  0  0  0  0  0  0  0  0  0  0
  147.0365  153.8634  140.1622 H   0  0  0  0  0  0  0  0  0  0  0  0
  145.8307  153.0991  139.0536 H   0  0  0  0  0  0  0  0  0  0  0  0
  143.6927  152.0837  142.2840 H   0  0  0  0  0  0  0  0  0  0  0  0
  143.9974  153.0820  140.8220 H   0  0  0  0  0  0  0  0  0  0  0  0
  142.6709  151.8708  140.8220 H   0  0  0  0  0  0  0  0  0  0  0  0
  144.2463  149.6031  142.2489 H   0  0  0  0  0  0  0  0  0  0  0  0
  143.2447  149.3801  140.7746 H   0  0  0  0  0  0  0  0  0  0  0  0
  144.9681  148.8736  140.7746 H   0  0  0  0  0  0  0  0  0  0  0  0
  143.6985  151.5033  138.7771 H   0  0  0  0  0  0  0  0  0  0  0  0
  145.4912  151.6111  138.7431 H   0  0  0  0  0  0  0  0  0  0  0  0
  144.6879  150.0044  138.7431 H   0  0  0  0  0  0  0  0  0  0  0  0
  149.6639  152.3618  139.0674 H   0  0  0  0  0  0  0  0  0  0  0  0
  149.0579  150.7331  138.5454 H   0  0  0  0  0  0  0  0  0  0  0  0
  149.6574  152.8350  136.8420 H   0  0  0  0  0  0  0  0  0  0  0  0
  148.5463  151.4285  136.4815 H   0  0  0  0  0  0  0  0  0  0  0  0
  1  2  1  0
  2  3  1  0
  3  4  2  0
  4  5  1  0
  5  6  2  0
  6  7  1  0
  7  8  2  0
  8  9  1  0
  9 10  2  0
 10 11  1  0
 11 12  2  0
 12 13  1  0
 13 14  1  0
 13 15  2  0
 12 16  1  0
 16 17  1  0
 17 18  2  0
 17 19  1  0
 19 20  1  0
 20 21  1  0
 20 22  1  0
 20 23  1  0
 16 24  1  0
 24 25  2  0
  6 26  1  0
 26 27  2  0
  2 28  1  0
 28 29  1  0
 29 30  1  0
 30 31  1  0
 31 32  1  0
 32 33  2  0
 32 34  1  0
 34 35  1  0
 35 36  1  0
 35 37  1  0
 35 38  1  0
 31 39  1  0
 39 40  1  0
 27  3  1  0
 40 28  1  0
 25  7  1  0
 24 10  1  0
  1 41  1  0
  1 42  1  0
  1 43  1  0
  2 44  1  1
  4 45  1  0
  5 46  1  0
  8 47  1  0
  9 48  1  0
 11 49  1  0
 14 50  1  0
 21 51  1  0
 21 52  1  0
 21 53  1  0
 22 54  1  0
 22 55  1  0
 22 56  1  0
 23 57  1  0
 23 58  1  0
 23 59  1  0
 25 60  1  0
 26 61  1  0
 27 62  1  0
 29 63  1  0
 29 64  1  0
 30 65  1  0
 30 66  1  0
 36 67  1  0
 36 68  1  0
 36 69  1  0
 37 70  1  0
 37 71  1  0
 37 72  1  0
 38 73  1  0
 38 74  1  0
 38 75  1  0
 39 76  1  0
 39 77  1  0
 40 78  1  0
 40 79  1  0
M  CHG  1  14  -1
M  END
>  <UniqueID>  (95) 
95

>  <SMILES>  (95) 
C[C@@H](c1ccc(-c2ccc3cc(C([NH-])=O)n(C(=O)OC(C)(C)C)c3c2)cc1)N1CCN(C(=O)OC(C)(C)C)CC1

>  <Energy>  (95) 
123.6241270292094

>  <Genealogy>  (95) 
C[C@@H](c1ccc(-c2ccc3cc(C([NH-])=O)n(C(=O)OC(C)(C)C)c3c2)cc1)N1CCN(C(=O)OC(C)(C)C)CC1 (protonated)
C[C@@H](c1ccc(-c2ccc3cc(C([NH-])=O)n(C(=O)OC(C)(C)C)c3c2)cc1)N1CCN(C(=O)OC(C)(C)C)CC1 (3D coordinates assigned)
C[C@@H](c1ccc(-c2ccc3cc(C([NH-])=O)n(C(=O)OC(C)(C)C)c3c2)cc1)N1CCN(C(=O)OC(C)(C)C)CC1 (nonaromatic ring conformer: 123.6241270292094 kcal/mol)

>  <smiles>  (95) 
C[C@@H](c1ccc(-c2ccc3cc(C(N)=O)n(C(=O)OC(C)(C)C)c3c2)cc1)N1CCN(C(=O)OC(C)(C)C)CC1

>  <score_type>  (95) 
oracle

>  <origin>  (95) 
adg

>  <m_score__min__energy>  (95) 
-8.8599999999999994

>  <m_primary>  (95) 
energy

$$$$
95:0
     RDKit          3D

 51 54  0  0  0  0  0  0  0  0999 V2000
  145.0630  154.9000  134.7280 C   0  0  0  0  0  0  0  0  0  0  0  0
  144.7610  155.0020  133.2220 C   0  0  0  0  0  0  0  0  0  0  0  0
  144.9840  153.6250  132.5780 C   0  0  0  0  0  0  0  0  0  0  0  0
  143.2990  155.4310  132.9870 C   0  0  0  0  0  0  0  0  0  0  0  0
  145.6640  155.9180  132.5850 O   0  0  0  0  0  0  0  0  0  0  0  0
  146.6660  156.6720  133.2150 C   0  0  0  0  0  0  0  0  0  0  0  0
  147.6510  156.1100  133.7630 O   0  0  0  0  0  0  0  0  0  0  0  0
  146.5550  158.1050  133.2450 N   0  0  0  0  0  0  0  0  0  0  0  0
  147.4820  159.0140  132.8310 C   0  0  0  0  0  0  0  0  0  0  0  0
  148.8670  158.6990  132.4140 C   0  0  0  0  0  0  0  0  0  0  0  0
  149.1900  157.4190  131.8700 N   0  0  0  0  0  0  0  0  0  0  0  0
  149.7690  159.5720  132.5060 O   0  0  0  0  0  0  0  0  0  0  0  0
  146.9780  160.3090  132.9390 C   0  0  0  0  0  0  0  0  0  0  0  0
  145.7040  160.1630  133.4370 C   0  0  0  0  0  0  0  0  0  0  0  0
  144.7410  161.1270  133.7250 C   0  0  0  0  0  0  0  0  0  0  0  0
  143.4930  160.6900  134.2000 C   0  0  0  0  0  0  0  0  0  0  0  0
  143.2350  159.3080  134.3800 C   0  0  0  0  0  0  0  0  0  0  0  0
  141.9050  158.8560  134.8480 C   0  0  0  0  0  0  0  0  0  0  0  0
  141.7460  158.5730  136.2150 C   0  0  0  0  0  0  0  0  0  0  0  0
  140.5310  158.1030  136.7100 C   0  0  0  0  0  0  0  0  0  0  0  0
  139.4500  157.9090  135.8510 C   0  0  0  0  0  0  0  0  0  0  0  0
  139.5720  158.1980  134.4850 C   0  0  0  0  0  0  0  0  0  0  0  0
  138.4750  158.0170  133.6280 C   0  0  0  0  0  0  0  0  0  0  0  0
  138.5830  158.3250  132.2720 C   0  0  0  0  0  0  0  0  0  0  0  0
  139.7800  158.8230  131.7600 C   0  0  0  0  0  0  0  0  0  0  0  0
  140.8830  159.0080  132.5970 C   0  0  0  0  0  0  0  0  0  0  0  0
  140.8040  158.6840  133.9690 C   0  0  0  0  0  0  0  0  0  0  0  0
  144.2310  158.3590  134.0670 C   0  0  0  0  0  0  0  0  0  0  0  0
  145.4710  158.8240  133.6120 C   0  0  0  0  0  0  0  0  0  0  0  0
  144.1737  155.2004  135.3015 H   0  0  0  0  0  0  0  0  0  0  0  0
  145.3282  153.8624  134.9793 H   0  0  0  0  0  0  0  0  0  0  0  0
  145.9030  155.5643  134.9793 H   0  0  0  0  0  0  0  0  0  0  0  0
  145.1067  152.8673  133.3659 H   0  0  0  0  0  0  0  0  0  0  0  0
  144.1159  153.3674  131.9535 H   0  0  0  0  0  0  0  0  0  0  0  0
  145.8891  153.6545  131.9535 H   0  0  0  0  0  0  0  0  0  0  0  0
  142.7996  155.5775  133.9561 H   0  0  0  0  0  0  0  0  0  0  0  0
  143.2800  156.3726  132.4186 H   0  0  0  0  0  0  0  0  0  0  0  0
  142.7742  154.6490  132.4186 H   0  0  0  0  0  0  0  0  0  0  0  0
  150.1620  157.2190  131.5440 H   0  0  0  0  0  0  0  0  0  0  0  0
  148.4830  156.6530  131.8260 H   0  0  0  0  0  0  0  0  0  0  0  0
  147.4899  161.2478  132.6810 H   0  0  0  0  0  0  0  0  0  0  0  0
  144.9510  162.1976  133.5849 H   0  0  0  0  0  0  0  0  0  0  0  0
  142.7100  161.4263  134.4340 H   0  0  0  0  0  0  0  0  0  0  0  0
  142.5909  158.7243  136.9029 H   0  0  0  0  0  0  0  0  0  0  0  0
  140.4244  157.8842  137.7827 H   0  0  0  0  0  0  0  0  0  0  0  0
  138.4973  157.5275  136.2471 H   0  0  0  0  0  0  0  0  0  0  0  0
  137.5259  157.6305  134.0278 H   0  0  0  0  0  0  0  0  0  0  0  0
  137.7214  158.1745  131.6049 H   0  0  0  0  0  0  0  0  0  0  0  0
  139.8565  159.0716  130.6912 H   0  0  0  0  0  0  0  0  0  0  0  0
  141.8203  159.4092  132.1840 H   0  0  0  0  0  0  0  0  0  0  0  0
  144.0384  157.2816  134.1775 H   0  0  0  0  0  0  0  0  0  0  0  0
  1  2  1  0
  2  3  1  0
  2  4  1  0
  2  5  1  0
  5  6  1  0
  6  7  2  0
  6  8  1  0
  8  9  1  0
  9 10  1  0
 10 11  1  0
 10 12  2  0
  9 13  2  0
 13 14  1  0
 14 15  2  0
 15 16  1  0
 16 17  2  0
 17 18  1  0
 18 19  2  0
 19 20  1  0
 20 21  2  0
 21 22  1  0
 22 23  2  0
 23 24  1  0
 24 25  2  0
 25 26  1  0
 26 27  2  0
 17 28  1  0
 28 29  2  0
 29  8  1  0
 29 14  1  0
 27 18  1  0
 27 22  1  0
  1 30  1  0
  1 31  1  0
  1 32  1  0
  3 33  1  0
  3 34  1  0
  3 35  1  0
  4 36  1  0
  4 37  1  0
  4 38  1  0
 11 39  1  0
 11 40  1  0
 13 41  1  0
 15 42  1  0
 16 43  1  0
 19 44  1  0
 20 45  1  0
 21 46  1  0
 23 47  1  0
 24 48  1  0
 25 49  1  0
 26 50  1  0
 28 51  1  0
M  END
>  <UniqueID>  (96) 
96

>  <SMILES>  (96) 
CC(C)(C)OC(=O)n1c(C(N)=O)cc2ccc(-c3cccc4ccccc34)cc21

>  <Energy>  (96) 
100.67448781539659

>  <Genealogy>  (96) 
CC(C)(C)OC(=O)n1c(C(N)=O)cc2ccc(-c3cccc4ccccc34)cc21 (3D coordinates assigned)
CC(C)(C)OC(=O)n1c(C(N)=O)cc2ccc(-c3cccc4ccccc34)cc21 (optimized conformer: 100.67448781539659 kcal/mol)

>  <smiles>  (96) 
CC(C)(C)OC(=O)n1c(C(N)=O)cc2ccc(-c3cccc4ccccc34)cc21

>  <score_type>  (96) 
oracle

>  <origin>  (96) 
adg

>  <m_score__min__energy>  (96) 
-10.039999999999999

>  <m_primary>  (96) 
energy

$$$$
