0:0
     RDKit          3D

 27 28  0  0  0  0  0  0  0  0999 V2000
  144.6910  154.9520  133.0730 C   0  0  0  0  0  0  0  0  0  0  0  0
  144.3130  156.1600  133.7210 O   0  0  0  0  0  0  0  0  0  0  0  0
  143.8320  157.2720  133.0230 C   0  0  0  0  0  0  0  0  0  0  0  0
  142.8290  157.1620  132.2660 O   0  0  0  0  0  0  0  0  0  0  0  0
  144.4680  158.5480  133.1890 N   0  0  0  0  0  0  0  0  0  0  0  0
  143.8980  159.7240  133.5770 C   0  0  0  0  0  0  0  0  0  0  0  0
  142.4530  159.9720  133.7600 C   0  0  0  0  0  0  0  0  0  0  0  0
  141.5220  159.6890  132.7180 N   0  0  0  0  0  0  0  0  0  0  0  0
  142.0380  160.4870  134.8330 O   0  0  0  0  0  0  0  0  0  0  0  0
  144.8660  160.7170  133.7100 C   0  0  0  0  0  0  0  0  0  0  0  0
  146.0570  160.1120  133.3760 C   0  0  0  0  0  0  0  0  0  0  0  0
  147.3480  160.6330  133.3450 C   0  0  0  0  0  0  0  0  0  0  0  0
  148.3970  159.7670  132.9920 C   0  0  0  0  0  0  0  0  0  0  0  0
  148.1390  158.4100  132.6860 C   0  0  0  0  0  0  0  0  0  0  0  0
  149.2180  157.5370  132.3400 N   0  0  0  0  0  0  0  0  0  0  0  0
  146.8190  157.9150  132.7290 C   0  0  0  0  0  0  0  0  0  0  0  0
  145.7890  158.8020  133.0660 C   0  0  0  0  0  0  0  0  0  0  0  0
  144.9296  154.1895  133.8291 H   0  0  0  0  0  0  0  0  0  0  0  0
  143.8607  154.5978  132.4443 H   0  0  0  0  0  0  0  0  0  0  0  0
  145.5751  155.1342  132.4443 H   0  0  0  0  0  0  0  0  0  0  0  0
  141.7610  159.0200  131.9530 H   0  0  0  0  0  0  0  0  0  0  0  0
  144.7117  161.7621  134.0166 H   0  0  0  0  0  0  0  0  0  0  0  0
  147.5405  161.6882  133.5889 H   0  0  0  0  0  0  0  0  0  0  0  0
  149.4283  160.1478  132.9533 H   0  0  0  0  0  0  0  0  0  0  0  0
  149.2740  157.1060  131.3910 H   0  0  0  0  0  0  0  0  0  0  0  0
  149.9690  157.3150  133.0320 H   0  0  0  0  0  0  0  0  0  0  0  0
  146.6042  156.8599  132.5038 H   0  0  0  0  0  0  0  0  0  0  0  0
  1  2  1  0
  2  3  1  0
  3  4  2  0
  3  5  1  0
  5  6  1  0
  6  7  1  0
  7  8  1  0
  7  9  2  0
  6 10  2  0
 10 11  1  0
 11 12  2  0
 12 13  1  0
 13 14  2  0
 14 15  1  0
 14 16  1  0
 16 17  2  0
 17  5  1  0
 17 11  1  0
  1 18  1  0
  1 19  1  0
  1 20  1  0
  8 21  1  0
 10 22  1  0
 12 23  1  0
 13 24  1  0
 15 25  1  0
 15 26  1  0
 16 27  1  0
M  CHG  1   8  -1
M  END
>  <UniqueID>  (1) 
1

>  <SMILES>  (1) 
COC(=O)n1c(C([NH-])=O)cc2ccc(N)cc21

>  <Energy>  (1) 
63.917224803855646

>  <Genealogy>  (1) 
COC(=O)n1c(C([NH-])=O)cc2ccc(N)cc21 (protonated)
COC(=O)n1c(C([NH-])=O)cc2ccc(N)cc21 (3D coordinates assigned)
COC(=O)n1c(C([NH-])=O)cc2ccc(N)cc21 (optimized conformer: 63.917224803855646 kcal/mol)

>  <smiles>  (1) 
COC(=O)n1c(C(N)=O)cc2ccc(N)cc21

>  <score_type>  (1) 
oracle

>  <origin>  (1) 
adg

>  <m_score__min__energy>  (1) 
-5.4400000000000004

>  <m_primary>  (1) 
energy

$$$$
1:0
     RDKit          3D

 40 42  0  0  0  0  0  0  0  0999 V2000
  148.0880  155.8670  133.1620 C   0  0  0  0  0  0  0  0  0  0  0  0
  147.6870  157.1570  133.8710 C   0  0  0  0  0  0  0  0  0  0  0  0
  147.8330  158.3070  132.9740 N   0  0  0  0  0  0  0  0  0  0  0  0
  148.8940  158.5170  132.1680 C   0  0  0  0  0  0  0  0  0  0  0  0
  148.6700  159.6280  131.3800 C   0  0  0  0  0  0  0  0  0  0  0  0
  149.5770  160.1800  130.3650 C   0  0  0  0  0  0  0  0  0  0  0  0
  149.9660  161.3750  130.4430 O   0  0  0  0  0  0  0  0  0  0  0  0
  150.0090  159.3870  129.3100 O   0  0  0  0  0  0  0  0  0  0  0  0
  147.4210  160.1160  131.7100 C   0  0  0  0  0  0  0  0  0  0  0  0
  146.9320  159.2840  132.7030 C   0  0  0  0  0  0  0  0  0  0  0  0
  145.6020  159.4350  133.3300 C   0  0  0  0  0  0  0  0  0  0  0  0
  145.0220  160.7180  133.4950 C   0  0  0  0  0  0  0  0  0  0  0  0
  143.7450  160.8600  134.0650 C   0  0  0  0  0  0  0  0  0  0  0  0
  143.0710  159.7060  134.4510 C   0  0  0  0  0  0  0  0  0  0  0  0
  141.8200  159.5500  135.0060 C   0  0  0  0  0  0  0  0  0  0  0  0
  141.6580  158.1770  135.1720 C   0  0  0  0  0  0  0  0  0  0  0  0
  140.4790  157.5660  135.8200 C   0  0  0  0  0  0  0  0  0  0  0  0
  140.6280  156.5450  136.8030 N   0  0  0  0  0  0  0  0  0  0  0  0
  139.3240  157.9780  135.5310 O   0  0  0  0  0  0  0  0  0  0  0  0
  142.7590  157.5100  134.7260 N   0  0  0  0  0  0  0  0  0  0  0  0
  142.9660  156.0900  134.6440 C   0  0  0  0  0  0  0  0  0  0  0  0
  142.9300  155.3860  133.3250 C   0  0  0  0  0  0  0  0  0  0  0  0
  143.2530  155.4400  135.6830 O   0  0  0  0  0  0  0  0  0  0  0  0
  143.6160  158.4590  134.2950 C   0  0  0  0  0  0  0  0  0  0  0  0
  144.8790  158.2860  133.7200 C   0  0  0  0  0  0  0  0  0  0  0  0
  148.3274  155.0967  133.9099 H   0  0  0  0  0  0  0  0  0  0  0  0
  147.2552  155.5205  132.5325 H   0  0  0  0  0  0  0  0  0  0  0  0
  148.9705  156.0537  132.5325 H   0  0  0  0  0  0  0  0  0  0  0  0
  146.6380  157.0811  134.1932 H   0  0  0  0  0  0  0  0  0  0  0  0
  148.3437  157.3014  134.7416 H   0  0  0  0  0  0  0  0  0  0  0  0
  149.8016  157.8960  132.1425 H   0  0  0  0  0  0  0  0  0  0  0  0
  146.9162  160.9898  131.2722 H   0  0  0  0  0  0  0  0  0  0  0  0
  145.5771  161.6117  133.1736 H   0  0  0  0  0  0  0  0  0  0  0  0
  143.2925  161.8533  134.2016 H   0  0  0  0  0  0  0  0  0  0  0  0
  141.1014  160.3420  135.2635 H   0  0  0  0  0  0  0  0  0  0  0  0
  141.4640  155.9200  136.8070 H   0  0  0  0  0  0  0  0  0  0  0  0
  142.8744  154.2999  133.4904 H   0  0  0  0  0  0  0  0  0  0  0  0
  142.0476  155.7160  132.7572 H   0  0  0  0  0  0  0  0  0  0  0  0
  143.8415  155.6243  132.7572 H   0  0  0  0  0  0  0  0  0  0  0  0
  145.2991  157.2798  133.5750 H   0  0  0  0  0  0  0  0  0  0  0  0
  1  2  1  0
  2  3  1  0
  3  4  1  0
  4  5  2  0
  5  6  1  0
  6  7  2  0
  6  8  1  0
  5  9  1  0
  9 10  2  0
 10 11  1  0
 11 12  2  0
 12 13  1  0
 13 14  2  0
 14 15  1  0
 15 16  2  0
 16 17  1  0
 17 18  1  0
 17 19  2  0
 16 20  1  0
 20 21  1  0
 21 22  1  0
 21 23  2  0
 20 24  1  0
 24 25  2  0
 10  3  1  0
 25 11  1  0
 24 14  1  0
  1 26  1  0
  1 27  1  0
  1 28  1  0
  2 29  1  0
  2 30  1  0
  4 31  1  0
  9 32  1  0
 12 33  1  0
 13 34  1  0
 15 35  1  0
 18 36  1  0
 22 37  1  0
 22 38  1  0
 22 39  1  0
 25 40  1  0
M  CHG  2   8  -1  18  -1
M  END
>  <UniqueID>  (2) 
2

>  <SMILES>  (2) 
CCn1cc(C(=O)[O-])cc1-c1ccc2cc(C([NH-])=O)n(C(C)=O)c2c1

>  <Energy>  (2) 
109.23447942727078

>  <Genealogy>  (2) 
CCn1cc(C(=O)[O-])cc1-c1ccc2cc(C([NH-])=O)n(C(C)=O)c2c1 (protonated)
CCn1cc(C(=O)[O-])cc1-c1ccc2cc(C([NH-])=O)n(C(C)=O)c2c1 (3D coordinates assigned)
CCn1cc(C(=O)[O-])cc1-c1ccc2cc(C([NH-])=O)n(C(C)=O)c2c1 (optimized conformer: 109.23447942727078 kcal/mol)

>  <smiles>  (2) 
CCn1cc(C(=O)O)cc1-c1ccc2cc(C(N)=O)n(C(C)=O)c2c1

>  <score_type>  (2) 
oracle

>  <origin>  (2) 
adg

>  <m_score__min__energy>  (2) 
-7.9400000000000004

>  <m_primary>  (2) 
energy

$$$$
2:0
     RDKit          3D

 36 38  0  0  0  0  0  0  0  0999 V2000
  141.8740  158.5410  135.5570 C   0  0  0  0  0  0  0  0  0  0  0  0
  142.1860  157.0550  135.4170 C   0  0  0  0  0  0  0  0  0  0  0  0
  143.4420  156.8650  134.7690 O   0  0  0  0  0  0  0  0  0  0  0  0
  143.8100  157.5230  133.5900 C   0  0  0  0  0  0  0  0  0  0  0  0
  143.0060  157.5910  132.6210 O   0  0  0  0  0  0  0  0  0  0  0  0
  145.1210  158.0980  133.4760 N   0  0  0  0  0  0  0  0  0  0  0  0
  145.4580  159.4190  133.4690 C   0  0  0  0  0  0  0  0  0  0  0  0
  144.5410  160.5510  133.7140 C   0  0  0  0  0  0  0  0  0  0  0  0
  143.1660  160.4430  133.3510 N   0  0  0  0  0  0  0  0  0  0  0  0
  144.9640  161.6280  134.2110 O   0  0  0  0  0  0  0  0  0  0  0  0
  146.8300  159.5710  133.2770 C   0  0  0  0  0  0  0  0  0  0  0  0
  147.3280  158.2930  133.1740 C   0  0  0  0  0  0  0  0  0  0  0  0
  148.6320  157.8540  132.9700 C   0  0  0  0  0  0  0  0  0  0  0  0
  148.8550  156.4710  132.8780 C   0  0  0  0  0  0  0  0  0  0  0  0
  147.7810  155.5510  132.9860 C   0  0  0  0  0  0  0  0  0  0  0  0
  148.0540  154.1000  132.8730 C   0  0  0  0  0  0  0  0  0  0  0  0
  147.2530  153.1880  132.2870 N   0  0  0  0  0  0  0  0  0  0  0  0
  147.8440  152.0100  132.3920 N   0  0  0  0  0  0  0  0  0  0  0  0
  148.9980  152.2450  133.0460 C   0  0  0  0  0  0  0  0  0  0  0  0
  149.9770  151.2090  133.3830 C   0  0  0  0  0  0  0  0  0  0  0  0
  150.7300  150.7400  132.4910 O   0  0  0  0  0  0  0  0  0  0  0  0
  150.0780  150.7420  134.6860 O   0  0  0  0  0  0  0  0  0  0  0  0
  149.1340  153.5180  133.3440 O   0  0  0  0  0  0  0  0  0  0  0  0
  146.4670  156.0380  133.1930 C   0  0  0  0  0  0  0  0  0  0  0  0
  146.2780  157.4210  133.2980 C   0  0  0  0  0  0  0  0  0  0  0  0
  141.8185  158.8051  136.6234 H   0  0  0  0  0  0  0  0  0  0  0  0
  142.6682  159.1295  135.0743 H   0  0  0  0  0  0  0  0  0  0  0  0
  140.9102  158.7604  135.0743 H   0  0  0  0  0  0  0  0  0  0  0  0
  142.2220  156.5974  136.4166 H   0  0  0  0  0  0  0  0  0  0  0  0
  141.3990  156.5828  134.8107 H   0  0  0  0  0  0  0  0  0  0  0  0
  142.8550  159.7590  132.6270 H   0  0  0  0  0  0  0  0  0  0  0  0
  147.3948  160.5132  133.2199 H   0  0  0  0  0  0  0  0  0  0  0  0
  149.4635  158.5689  132.8834 H   0  0  0  0  0  0  0  0  0  0  0  0
  149.8768  156.0957  132.7200 H   0  0  0  0  0  0  0  0  0  0  0  0
  146.3290  153.3370  131.8280 H   0  0  0  0  0  0  0  0  0  0  0  0
  145.6155  155.3459  133.2694 H   0  0  0  0  0  0  0  0  0  0  0  0
  1  2  1  0
  2  3  1  0
  3  4  1  0
  4  5  2  0
  4  6  1  0
  6  7  1  0
  7  8  1  0
  8  9  1  0
  8 10  2  0
  7 11  2  0
 11 12  1  0
 12 13  2  0
 13 14  1  0
 14 15  2  0
 15 16  1  0
 16 17  2  0
 17 18  1  0
 18 19  2  0
 19 20  1  0
 20 21  2  0
 20 22  1  0
 19 23  1  0
 15 24  1  0
 24 25  2  0
 25  6  1  0
 25 12  1  0
 23 16  1  0
  1 26  1  0
  1 27  1  0
  1 28  1  0
  2 29  1  0
  2 30  1  0
  9 31  1  0
 11 32  1  0
 13 33  1  0
 14 34  1  0
 17 35  1  0
 24 36  1  0
M  CHG  3   9  -1  17   1  22  -1
M  END
>  <UniqueID>  (3) 
3

>  <SMILES>  (3) 
CCOC(=O)n1c(C([NH-])=O)cc2ccc(-c3[nH+]nc(C(=O)[O-])o3)cc21

>  <Energy>  (3) 
108.16798632255856

>  <Genealogy>  (3) 
CCOC(=O)n1c(C([NH-])=O)cc2ccc(-c3[nH+]nc(C(=O)[O-])o3)cc21 (protonated)
CCOC(=O)n1c(C([NH-])=O)cc2ccc(-c3[nH+]nc(C(=O)[O-])o3)cc21 (3D coordinates assigned)
CCOC(=O)n1c(C([NH-])=O)cc2ccc(-c3[nH+]nc(C(=O)[O-])o3)cc21 (optimized conformer: 108.16798632255856 kcal/mol)

>  <smiles>  (3) 
CCOC(=O)n1c(C(N)=O)cc2ccc(-c3nnc(C(=O)O)o3)cc21

>  <score_type>  (3) 
oracle

>  <origin>  (3) 
adg

>  <m_score__min__energy>  (3) 
-7.04

>  <m_primary>  (3) 
energy

$$$$
3:0
     RDKit          3D

 31 33  0  0  0  0  0  0  0  0999 V2000
  149.2590  154.4260  132.6070 C   0  0  0  0  0  0  0  0  0  0  0  0
  148.0150  155.2250  132.8640 C   0  0  0  0  0  0  0  0  0  0  0  0
  146.8120  154.5710  133.2240 C   0  0  0  0  0  0  0  0  0  0  0  0
  145.6480  155.3100  133.4940 C   0  0  0  0  0  0  0  0  0  0  0  0
  145.7240  156.6970  133.4130 C   0  0  0  0  0  0  0  0  0  0  0  0
  144.7520  157.6530  133.6080 C   0  0  0  0  0  0  0  0  0  0  0  0
  145.3870  158.8760  133.3970 C   0  0  0  0  0  0  0  0  0  0  0  0
  144.7270  160.1830  133.5900 C   0  0  0  0  0  0  0  0  0  0  0  0
  145.4830  161.3450  133.9170 N   0  0  0  0  0  0  0  0  0  0  0  0
  143.4730  160.2670  133.5050 O   0  0  0  0  0  0  0  0  0  0  0  0
  146.6980  158.6820  133.0760 N   0  0  0  0  0  0  0  0  0  0  0  0
  147.6720  159.6650  132.7020 C   0  0  0  0  0  0  0  0  0  0  0  0
  148.1380  160.4420  133.5800 O   0  0  0  0  0  0  0  0  0  0  0  0
  148.1720  159.7180  131.2790 C   0  0  0  0  0  0  0  0  0  0  0  0
  148.9290  160.9770  130.8810 C   0  0  0  0  0  0  0  0  0  0  0  0
  149.6850  159.6760  131.1170 C   0  0  0  0  0  0  0  0  0  0  0  0
  146.8880  157.3460  133.0940 C   0  0  0  0  0  0  0  0  0  0  0  0
  148.0590  156.6360  132.8060 C   0  0  0  0  0  0  0  0  0  0  0  0
  149.7124  154.1348  133.5660 H   0  0  0  0  0  0  0  0  0  0  0  0
  149.0029  153.5231  132.0333 H   0  0  0  0  0  0  0  0  0  0  0  0
  149.9736  155.0345  132.0333 H   0  0  0  0  0  0  0  0  0  0  0  0
  146.7884  153.4734  133.2930 H   0  0  0  0  0  0  0  0  0  0  0  0
  144.7064  154.8080  133.7610 H   0  0  0  0  0  0  0  0  0  0  0  0
  143.6977  157.4867  133.8740 H   0  0  0  0  0  0  0  0  0  0  0  0
  146.3240  161.6130  133.3610 H   0  0  0  0  0  0  0  0  0  0  0  0
  147.3233  159.1587  130.8584 H   0  0  0  0  0  0  0  0  0  0  0  0
  148.8306  161.3789  129.8618 H   0  0  0  0  0  0  0  0  0  0  0  0
  148.9993  162.0006  131.2777 H   0  0  0  0  0  0  0  0  0  0  0  0
  150.1326  159.1382  130.2683 H   0  0  0  0  0  0  0  0  0  0  0  0
  150.5275  159.3705  131.7548 H   0  0  0  0  0  0  0  0  0  0  0  0
  148.9882  157.1620  132.5417 H   0  0  0  0  0  0  0  0  0  0  0  0
  1  2  1  0
  2  3  2  0
  3  4  1  0
  4  5  2  0
  5  6  1  0
  6  7  2  0
  7  8  1  0
  8  9  1  0
  8 10  2  0
  7 11  1  0
 11 12  1  0
 12 13  2  0
 12 14  1  0
 14 15  1  0
 15 16  1  0
 11 17  1  0
 17 18  2  0
 18  2  1  0
 17  5  1  0
 16 14  1  0
  1 19  1  0
  1 20  1  0
  1 21  1  0
  3 22  1  0
  4 23  1  0
  6 24  1  0
  9 25  1  0
 14 26  1  0
 15 27  1  0
 15 28  1  0
 16 29  1  0
 16 30  1  0
 18 31  1  0
M  CHG  1   9  -1
M  END
>  <UniqueID>  (4) 
4

>  <SMILES>  (4) 
Cc1ccc2cc(C([NH-])=O)n(C(=O)C3CC3)c2c1

>  <Energy>  (4) 
336.3232428179249

>  <Genealogy>  (4) 
Cc1ccc2cc(C([NH-])=O)n(C(=O)C3CC3)c2c1 (protonated)
Cc1ccc2cc(C([NH-])=O)n(C(=O)C3CC3)c2c1 (3D coordinates assigned)
Cc1ccc2cc(C([NH-])=O)n(C(=O)C3CC3)c2c1 (nonaromatic ring conformer: 336.3232428179249 kcal/mol)

>  <smiles>  (4) 
Cc1ccc2cc(C(N)=O)n(C(=O)C3CC3)c2c1

>  <score_type>  (4) 
oracle

>  <origin>  (4) 
adg

>  <m_score__min__energy>  (4) 
-6.4699999999999998

>  <m_primary>  (4) 
energy

$$$$
4:0
     RDKit          3D

 59 61  0  0  0  0  0  0  0  0999 V2000
  139.7870  159.7440  132.2030 C   0  0  0  0  0  0  0  0  0  0  0  0
  139.8940  158.3500  131.9860 O   0  0  0  0  0  0  0  0  0  0  0  0
  140.3830  157.5970  133.1000 C   0  0  0  0  0  0  0  0  0  0  0  0
  139.9130  158.2600  134.4150 C   0  0  0  0  0  0  0  0  0  0  0  0
  139.9410  156.1070  133.0650 C   0  0  0  0  0  0  0  0  0  0  0  0
  141.9350  157.6750  132.9810 C   0  0  0  0  0  0  0  0  0  0  0  0
  142.7650  157.4470  134.2630 C   0  0  0  0  0  0  0  0  0  0  0  0
  143.2100  158.6780  134.8300 O   0  0  0  0  0  0  0  0  0  0  0  0
  143.6110  159.7800  134.0690 C   0  0  0  0  0  0  0  0  0  0  0  0
  142.7540  160.5410  133.5450 O   0  0  0  0  0  0  0  0  0  0  0  0
  145.0090  160.0640  133.9130 N   0  0  0  0  0  0  0  0  0  0  0  0
  145.6330  161.2720  134.0090 C   0  0  0  0  0  0  0  0  0  0  0  0
  145.0050  162.5380  134.4420 C   0  0  0  0  0  0  0  0  0  0  0  0
  143.9640  163.1170  133.6580 N   0  0  0  0  0  0  0  0  0  0  0  0
  145.3970  163.1290  135.4820 O   0  0  0  0  0  0  0  0  0  0  0  0
  146.9880  161.1460  133.7080 C   0  0  0  0  0  0  0  0  0  0  0  0
  147.1760  159.8130  133.4230 C   0  0  0  0  0  0  0  0  0  0  0  0
  148.3300  159.1290  133.0490 C   0  0  0  0  0  0  0  0  0  0  0  0
  148.2240  157.7540  132.7840 C   0  0  0  0  0  0  0  0  0  0  0  0
  146.9740  157.0920  132.8790 C   0  0  0  0  0  0  0  0  0  0  0  0
  146.8760  155.6830  132.6040 N   0  0  0  0  0  0  0  0  0  0  0  0
  148.0590  154.8240  132.7210 C   0  0  0  0  0  0  0  0  0  0  0  0
  147.6460  153.3630  132.9670 C   0  0  0  0  0  0  0  0  0  0  0  0
  146.4430  153.2630  133.8280 N   0  0  0  0  0  0  0  0  0  0  0  0
  146.7150  153.7480  135.1960 C   0  0  0  0  0  0  0  0  0  0  0  0
  145.2510  153.9360  133.2380 C   0  0  0  0  0  0  0  0  0  0  0  0
  145.5970  155.0650  132.2470 C   0  0  0  0  0  0  0  0  0  0  0  0
  145.8270  157.8190  133.2710 C   0  0  0  0  0  0  0  0  0  0  0  0
  145.9660  159.1830  133.5490 C   0  0  0  0  0  0  0  0  0  0  0  0
  139.7714  159.9467  133.2841 H   0  0  0  0  0  0  0  0  0  0  0  0
  140.6487  160.2533  131.7468 H   0  0  0  0  0  0  0  0  0  0  0  0
  138.8577  160.1158  131.7468 H   0  0  0  0  0  0  0  0  0  0  0  0
  140.3117  157.6975  135.2721 H   0  0  0  0  0  0  0  0  0  0  0  0
  140.2791  159.2965  134.4543 H   0  0  0  0  0  0  0  0  0  0  0  0
  138.8137  158.2577  134.4543 H   0  0  0  0  0  0  0  0  0  0  0  0
  139.8301  155.7332  134.0936 H   0  0  0  0  0  0  0  0  0  0  0  0
  138.9790  156.0222  132.5383 H   0  0  0  0  0  0  0  0  0  0  0  0
  140.7011  155.5113  132.5383 H   0  0  0  0  0  0  0  0  0  0  0  0
  142.2470  156.9162  132.2483 H   0  0  0  0  0  0  0  0  0  0  0  0
  142.1403  158.7181  132.6984 H   0  0  0  0  0  0  0  0  0  0  0  0
  142.1432  156.9189  135.0009 H   0  0  0  0  0  0  0  0  0  0  0  0
  143.6512  156.8525  133.9962 H   0  0  0  0  0  0  0  0  0  0  0  0
  143.3960  162.5330  133.0060 H   0  0  0  0  0  0  0  0  0  0  0  0
  147.7462  161.9429  133.7000 H   0  0  0  0  0  0  0  0  0  0  0  0
  149.2951  159.6499  132.9638 H   0  0  0  0  0  0  0  0  0  0  0  0
  149.1209  157.1842  132.4995 H   0  0  0  0  0  0  0  0  0  0  0  0
  148.6418  154.8829  131.7899 H   0  0  0  0  0  0  0  0  0  0  0  0
  148.6646  155.1691  133.5720 H   0  0  0  0  0  0  0  0  0  0  0  0
  147.4304  152.8872  131.9990 H   0  0  0  0  0  0  0  0  0  0  0  0
  148.4758  152.8577  133.4828 H   0  0  0  0  0  0  0  0  0  0  0  0
  146.2190  152.2440  133.9170 H   0  0  0  0  0  0  0  0  0  0  0  0
  146.3126  153.0305  135.9262 H   0  0  0  0  0  0  0  0  0  0  0  0
  147.8009  153.8481  135.3404 H   0  0  0  0  0  0  0  0  0  0  0  0
  146.2342  154.7267  135.3404 H   0  0  0  0  0  0  0  0  0  0  0  0
  144.6541  153.1800  132.7069 H   0  0  0  0  0  0  0  0  0  0  0  0
  144.7017  154.3997  134.0707 H   0  0  0  0  0  0  0  0  0  0  0  0
  145.6670  154.6474  131.2318 H   0  0  0  0  0  0  0  0  0  0  0  0
  144.8074  155.8298  132.2873 H   0  0  0  0  0  0  0  0  0  0  0  0
  144.8483  157.3240  133.3555 H   0  0  0  0  0  0  0  0  0  0  0  0
  1  2  1  0
  2  3  1  0
  3  4  1  0
  3  5  1  0
  3  6  1  0
  6  7  1  0
  7  8  1  0
  8  9  1  0
  9 10  2  0
  9 11  1  0
 11 12  1  0
 12 13  1  0
 13 14  1  0
 13 15  2  0
 12 16  2  0
 16 17  1  0
 17 18  2  0
 18 19  1  0
 19 20  2  0
 20 21  1  0
 21 22  1  0
 22 23  1  0
 23 24  1  0
 24 25  1  0
 24 26  1  0
 26 27  1  0
 20 28  1  0
 28 29  2  0
 29 11  1  0
 29 17  1  0
 27 21  1  0
  1 30  1  0
  1 31  1  0
  1 32  1  0
  4 33  1  0
  4 34  1  0
  4 35  1  0
  5 36  1  0
  5 37  1  0
  5 38  1  0
  6 39  1  0
  6 40  1  0
  7 41  1  0
  7 42  1  0
 14 43  1  0
 16 44  1  0
 18 45  1  0
 19 46  1  0
 22 47  1  0
 22 48  1  0
 23 49  1  0
 23 50  1  0
 24 51  1  0
 25 52  1  0
 25 53  1  0
 25 54  1  0
 26 55  1  0
 26 56  1  0
 27 57  1  0
 27 58  1  0
 28 59  1  0
M  CHG  2  14  -1  24   1
M  END
>  <UniqueID>  (5) 
5

>  <SMILES>  (5) 
COC(C)(C)CCOC(=O)n1c(C([NH-])=O)cc2ccc(N3CC[NH+](C)CC3)cc21

>  <Energy>  (5) 
114.99838351962208

>  <Genealogy>  (5) 
COC(C)(C)CCOC(=O)n1c(C([NH-])=O)cc2ccc(N3CC[NH+](C)CC3)cc21 (protonated)
COC(C)(C)CCOC(=O)n1c(C([NH-])=O)cc2ccc(N3CC[NH+](C)CC3)cc21 (3D coordinates assigned)
COC(C)(C)CCOC(=O)n1c(C([NH-])=O)cc2ccc(N3CC[NH+](C)CC3)cc21 (nonaromatic ring conformer: 114.99838351962208 kcal/mol)

>  <smiles>  (5) 
COC(C)(C)CCOC(=O)n1c(C(N)=O)cc2ccc(N3CCN(C)CC3)cc21

>  <score_type>  (5) 
oracle

>  <origin>  (5) 
adg

>  <m_score__min__energy>  (5) 
-7.5

>  <m_primary>  (5) 
energy

$$$$
5:0
     RDKit          3D

 25 26  0  0  0  0  0  0  0  0999 V2000
  149.9840  160.2920  130.2980 N   0  0  0  0  0  0  0  0  0  0  0  0
  148.9930  160.3560  131.3210 C   0  0  0  0  0  0  0  0  0  0  0  0
  148.4590  161.4630  131.5950 O   0  0  0  0  0  0  0  0  0  0  0  0
  148.5710  159.1210  132.0150 C   0  0  0  0  0  0  0  0  0  0  0  0
  149.2980  157.9330  131.9760 C   0  0  0  0  0  0  0  0  0  0  0  0
  148.5320  157.0140  132.6560 C   0  0  0  0  0  0  0  0  0  0  0  0
  148.7830  155.6760  132.9410 C   0  0  0  0  0  0  0  0  0  0  0  0
  147.8280  154.9720  133.6930 C   0  0  0  0  0  0  0  0  0  0  0  0
  146.6400  155.6090  134.1370 C   0  0  0  0  0  0  0  0  0  0  0  0
  145.6530  154.8590  134.9950 C   0  0  0  0  0  0  0  0  0  0  0  0
  145.2430  153.7200  134.3290 F   0  0  0  0  0  0  0  0  0  0  0  0
  146.2310  154.4950  136.1990 F   0  0  0  0  0  0  0  0  0  0  0  0
  144.5470  155.6460  135.2690 F   0  0  0  0  0  0  0  0  0  0  0  0
  146.4340  156.9780  133.8470 C   0  0  0  0  0  0  0  0  0  0  0  0
  147.3950  157.6500  133.0810 C   0  0  0  0  0  0  0  0  0  0  0  0
  147.4050  158.9470  132.7000 N   0  0  0  0  0  0  0  0  0  0  0  0
  146.4170  159.9360  133.0250 C   0  0  0  0  0  0  0  0  0  0  0  0
  146.7870  161.1190  133.7300 N   0  0  0  0  0  0  0  0  0  0  0  0
  145.2090  159.7510  132.7160 O   0  0  0  0  0  0  0  0  0  0  0  0
  150.8430  160.8840  130.3460 H   0  0  0  0  0  0  0  0  0  0  0  0
  150.2765  157.7653  131.5022 H   0  0  0  0  0  0  0  0  0  0  0  0
  149.7014  155.1840  132.5882 H   0  0  0  0  0  0  0  0  0  0  0  0
  148.0030  153.9146  133.9407 H   0  0  0  0  0  0  0  0  0  0  0  0
  145.5398  157.5027  134.2145 H   0  0  0  0  0  0  0  0  0  0  0  0
  147.1130  161.9690  133.2190 H   0  0  0  0  0  0  0  0  0  0  0  0
  1  2  1  0
  2  3  2  0
  2  4  1  0
  4  5  2  0
  5  6  1  0
  6  7  2  0
  7  8  1  0
  8  9  2  0
  9 10  1  0
 10 11  1  0
 10 12  1  0
 10 13  1  0
  9 14  1  0
 14 15  2  0
 15 16  1  0
 16 17  1  0
 17 18  1  0
 17 19  2  0
 16  4  1  0
 15  6  1  0
  1 20  1  0
  5 21  1  0
  7 22  1  0
  8 23  1  0
 14 24  1  0
 18 25  1  0
M  CHG  2   1  -1  18  -1
M  END
>  <UniqueID>  (6) 
6

>  <SMILES>  (6) 
[NH-]C(=O)c1cc2ccc(C(F)(F)F)cc2n1C([NH-])=O

>  <Energy>  (6) 
65.18610162641389

>  <Genealogy>  (6) 
[NH-]C(=O)c1cc2ccc(C(F)(F)F)cc2n1C([NH-])=O (protonated)
[NH-]C(=O)c1cc2ccc(C(F)(F)F)cc2n1C([NH-])=O (3D coordinates assigned)
[NH-]C(=O)c1cc2ccc(C(F)(F)F)cc2n1C([NH-])=O (optimized conformer: 65.18610162641389 kcal/mol)

>  <smiles>  (6) 
NC(=O)c1cc2ccc(C(F)(F)F)cc2n1C(N)=O

>  <score_type>  (6) 
oracle

>  <origin>  (6) 
adg

>  <m_score__min__energy>  (6) 
-5.46

>  <m_primary>  (6) 
energy

$$$$
6:0
     RDKit          3D

 48 51  0  0  0  0  0  0  0  0999 V2000
  139.0940  159.8700  130.6190 C   0  0  0  0  0  0  0  0  0  0  0  0
  140.1590  159.1610  131.4100 C   0  0  0  0  0  0  0  0  0  0  0  0
  139.5410  158.5800  132.5960 N   0  0  0  0  0  0  0  0  0  0  0  0
  140.2690  159.0010  133.7830 C   0  0  0  0  0  0  0  0  0  0  0  0
  139.9250  157.9410  134.8080 C   0  0  0  0  0  0  0  0  0  0  0  0
  139.4890  156.7210  134.0270 C   0  0  2  0  0  0  0  0  0  0  0  0
  140.3190  155.6110  134.2860 O   0  0  0  0  0  0  0  0  0  0  0  0
  140.6930  154.6710  133.3630 C   0  0  0  0  0  0  0  0  0  0  0  0
  139.7560  154.2220  132.6270 O   0  0  0  0  0  0  0  0  0  0  0  0
  142.0050  154.1740  133.1690 N   0  0  0  0  0  0  0  0  0  0  0  0
  142.3720  152.9070  132.9850 C   0  0  0  0  0  0  0  0  0  0  0  0
  141.5960  151.6830  132.9270 C   0  0  0  0  0  0  0  0  0  0  0  0
  140.1850  151.7420  132.6070 N   0  0  0  0  0  0  0  0  0  0  0  0
  142.0300  150.5300  133.1330 O   0  0  0  0  0  0  0  0  0  0  0  0
  143.7660  152.8940  132.8380 C   0  0  0  0  0  0  0  0  0  0  0  0
  144.2380  154.1830  132.9360 C   0  0  0  0  0  0  0  0  0  0  0  0
  145.5170  154.6950  132.8610 C   0  0  0  0  0  0  0  0  0  0  0  0
  145.7070  156.0540  132.9980 C   0  0  0  0  0  0  0  0  0  0  0  0
  144.6180  156.8730  133.2050 C   0  0  0  0  0  0  0  0  0  0  0  0
  144.8280  158.3090  133.3470 C   0  0  0  0  0  0  0  0  0  0  0  0
  145.9720  158.9570  133.7640 C   0  0  0  0  0  0  0  0  0  0  0  0
  145.6340  160.3120  133.7170 C   0  0  0  0  0  0  0  0  0  0  0  0
  144.3450  160.4270  133.2880 N   0  0  0  0  0  0  0  0  0  0  0  0
  143.8750  159.2180  133.0710 N   0  0  0  0  0  0  0  0  0  0  0  0
  143.3400  156.3210  133.2760 C   0  0  0  0  0  0  0  0  0  0  0  0
  143.1200  154.9630  133.1430 C   0  0  0  0  0  0  0  0  0  0  0  0
  139.6870  157.1400  132.6020 C   0  0  0  0  0  0  0  0  0  0  0  0
  138.3804  160.3450  131.3083 H   0  0  0  0  0  0  0  0  0  0  0  0
  139.5591  160.6393  129.9851 H   0  0  0  0  0  0  0  0  0  0  0  0
  138.5637  159.1441  129.9851 H   0  0  0  0  0  0  0  0  0  0  0  0
  140.6088  158.3654  130.7978 H   0  0  0  0  0  0  0  0  0  0  0  0
  140.9472  159.8700  131.7033 H   0  0  0  0  0  0  0  0  0  0  0  0
  141.3519  159.0249  133.5914 H   0  0  0  0  0  0  0  0  0  0  0  0
  139.9997  160.0157  134.1114 H   0  0  0  0  0  0  0  0  0  0  0  0
  140.8064  157.7050  135.4224 H   0  0  0  0  0  0  0  0  0  0  0  0
  139.1318  158.2849  135.4881 H   0  0  0  0  0  0  0  0  0  0  0  0
  138.4631  156.4171  134.2822 H   0  0  0  0  0  0  0  0  0  0  0  0
  139.8950  152.2350  131.7140 H   0  0  0  0  0  0  0  0  0  0  0  0
  139.4780  151.3050  133.2500 H   0  0  0  0  0  0  0  0  0  0  0  0
  144.3827  151.9985  132.6713 H   0  0  0  0  0  0  0  0  0  0  0  0
  146.3749  154.0272  132.6939 H   0  0  0  0  0  0  0  0  0  0  0  0
  146.7193  156.4808  132.9425 H   0  0  0  0  0  0  0  0  0  0  0  0
  146.9308  158.5096  134.0647 H   0  0  0  0  0  0  0  0  0  0  0  0
  146.2982  161.1478  133.9823 H   0  0  0  0  0  0  0  0  0  0  0  0
  142.8870  159.0650  132.7300 H   0  0  0  0  0  0  0  0  0  0  0  0
  142.4803  156.9866  133.4430 H   0  0  0  0  0  0  0  0  0  0  0  0
  140.6905  156.8543  132.2536 H   0  0  0  0  0  0  0  0  0  0  0  0
  138.9633  156.6547  131.9307 H   0  0  0  0  0  0  0  0  0  0  0  0
  1  2  1  0
  2  3  1  0
  3  4  1  0
  4  5  1  0
  5  6  1  0
  6  7  1  0
  7  8  1  0
  8  9  2  0
  8 10  1  0
 10 11  1  0
 11 12  1  0
 12 13  1  0
 12 14  2  0
 11 15  2  0
 15 16  1  0
 16 17  2  0
 17 18  1  0
 18 19  2  0
 19 20  1  0
 20 21  2  0
 21 22  1  0
 22 23  2  0
 23 24  1  0
 19 25  1  0
 25 26  2  0
  6 27  1  0
 27  3  1  0
 26 10  1  0
 26 16  1  0
 24 20  1  0
  1 28  1  0
  1 29  1  0
  1 30  1  0
  2 31  1  0
  2 32  1  0
  4 33  1  0
  4 34  1  0
  5 35  1  0
  5 36  1  0
  6 37  1  6
 13 38  1  0
 13 39  1  0
 15 40  1  0
 17 41  1  0
 18 42  1  0
 21 43  1  0
 22 44  1  0
 24 45  1  0
 25 46  1  0
 27 47  1  0
 27 48  1  0
M  END
>  <smiles>  (7) 
CCN1CC[C@H](OC(=O)n2c(C(N)=O)cc3ccc(-c4ccn[nH]4)cc32)C1

>  <score_type>  (7) 
oracle

>  <origin>  (7) 
adg

>  <m_score__min__energy>  (7) 
-9.2899999999999991

>  <m_primary>  (7) 
energy

$$$$
7:0
     RDKit          3D

 38 40  0  0  0  0  0  0  0  0999 V2000
  139.3680  157.9860  136.6460 N   0  0  0  0  0  0  0  0  0  0  0  0
  140.7070  157.8060  136.1900 C   0  0  0  0  0  0  0  0  0  0  0  0
  141.5510  158.7200  136.3810 O   0  0  0  0  0  0  0  0  0  0  0  0
  141.0840  156.5660  135.4810 C   0  0  0  0  0  0  0  0  0  0  0  0
  142.0770  155.6900  135.9200 C   0  0  0  0  0  0  0  0  0  0  0  0
  142.0590  154.6420  135.0260 C   0  0  0  0  0  0  0  0  0  0  0  0
  142.8310  153.4850  134.9820 C   0  0  0  0  0  0  0  0  0  0  0  0
  142.5960  152.5750  133.9380 C   0  0  0  0  0  0  0  0  0  0  0  0
  141.6060  152.8390  132.9540 C   0  0  0  0  0  0  0  0  0  0  0  0
  141.3550  151.8850  131.9020 N   0  0  0  0  0  0  0  0  0  0  0  0
  141.5280  150.5170  132.4140 C   0  0  0  0  0  0  0  0  0  0  0  0
  140.1900  149.7730  132.4830 C   0  0  0  0  0  0  0  0  0  0  0  0
  139.1270  150.6360  132.1800 O   0  0  0  0  0  0  0  0  0  0  0  0
  140.8340  154.0210  133.0410 C   0  0  0  0  0  0  0  0  0  0  0  0
  141.0870  154.9020  134.0960 C   0  0  0  0  0  0  0  0  0  0  0  0
  140.4850  156.0800  134.3580 N   0  0  0  0  0  0  0  0  0  0  0  0
  139.4430  156.6840  133.5790 C   0  0  0  0  0  0  0  0  0  0  0  0
  138.3870  156.0370  133.3480 O   0  0  0  0  0  0  0  0  0  0  0  0
  139.6150  158.0310  133.0100 C   0  0  0  0  0  0  0  0  0  0  0  0
  140.6780  158.8920  133.2590 C   0  0  0  0  0  0  0  0  0  0  0  0
  140.5620  160.1190  132.5950 C   0  0  0  0  0  0  0  0  0  0  0  0
  139.4100  160.2320  131.8280 C   0  0  0  0  0  0  0  0  0  0  0  0
  138.5340  158.8050  131.9780 S   0  0  0  0  0  0  0  0  0  0  0  0
  139.0940  158.8380  137.1840 H   0  0  0  0  0  0  0  0  0  0  0  0
  142.7343  155.8104  136.7938 H   0  0  0  0  0  0  0  0  0  0  0  0
  143.6019  153.2890  135.7418 H   0  0  0  0  0  0  0  0  0  0  0  0
  143.1851  151.6477  133.8818 H   0  0  0  0  0  0  0  0  0  0  0  0
  140.3810  152.0100  131.5390 H   0  0  0  0  0  0  0  0  0  0  0  0
  142.0210  152.0570  131.1130 H   0  0  0  0  0  0  0  0  0  0  0  0
  142.2087  149.9683  131.7465 H   0  0  0  0  0  0  0  0  0  0  0  0
  141.9435  150.5776  133.4307 H   0  0  0  0  0  0  0  0  0  0  0  0
  140.1999  148.9443  131.7597 H   0  0  0  0  0  0  0  0  0  0  0  0
  140.0522  149.3868  133.5037 H   0  0  0  0  0  0  0  0  0  0  0  0
  138.5760  150.7150  133.0030 H   0  0  0  0  0  0  0  0  0  0  0  0
  140.0542  154.2412  132.2971 H   0  0  0  0  0  0  0  0  0  0  0  0
  141.5250  158.6349  133.9121 H   0  0  0  0  0  0  0  0  0  0  0  0
  141.3131  160.9188  132.6735 H   0  0  0  0  0  0  0  0  0  0  0  0
  139.1203  161.1055  131.2255 H   0  0  0  0  0  0  0  0  0  0  0  0
  1  2  1  0
  2  3  2  0
  2  4  1  0
  4  5  2  0
  5  6  1  0
  6  7  2  0
  7  8  1  0
  8  9  2  0
  9 10  1  0
 10 11  1  0
 11 12  1  0
 12 13  1  0
  9 14  1  0
 14 15  2  0
 15 16  1  0
 16 17  1  0
 17 18  2  0
 17 19  1  0
 19 20  2  0
 20 21  1  0
 21 22  2  0
 22 23  1  0
 16  4  1  0
 23 19  1  0
 15  6  1  0
  1 24  1  0
  5 25  1  0
  7 26  1  0
  8 27  1  0
 10 28  1  0
 10 29  1  0
 11 30  1  0
 11 31  1  0
 12 32  1  0
 12 33  1  0
 13 34  1  0
 14 35  1  0
 20 36  1  0
 21 37  1  0
 22 38  1  0
M  CHG  2   1  -1  10   1
M  END
>  <UniqueID>  (8) 
7

>  <SMILES>  (8) 
[NH-]C(=O)c1cc2ccc([NH2+]CCO)cc2n1C(=O)c1cccs1

>  <Energy>  (8) 
103.98774886816443

>  <Genealogy>  (8) 
[NH-]C(=O)c1cc2ccc([NH2+]CCO)cc2n1C(=O)c1cccs1 (protonated)
[NH-]C(=O)c1cc2ccc([NH2+]CCO)cc2n1C(=O)c1cccs1 (3D coordinates assigned)
[NH-]C(=O)c1cc2ccc([NH2+]CCO)cc2n1C(=O)c1cccs1 (optimized conformer: 103.98774886816443 kcal/mol)

>  <smiles>  (8) 
NC(=O)c1cc2ccc(NCCO)cc2n1C(=O)c1cccs1

>  <score_type>  (8) 
oracle

>  <origin>  (8) 
adg

>  <m_score__min__energy>  (8) 
-7.4199999999999999

>  <m_primary>  (8) 
energy

$$$$
8:0
     RDKit          3D

 23 24  0  0  0  0  0  0  0  0999 V2000
  142.3620  151.9710  134.4690 N   0  0  0  0  0  0  0  0  0  0  0  0
  141.5210  152.3060  133.3680 C   0  0  0  0  0  0  0  0  0  0  0  0
  141.3650  153.5160  133.0570 O   0  0  0  0  0  0  0  0  0  0  0  0
  140.8800  151.2330  132.5790 C   0  0  0  0  0  0  0  0  0  0  0  0
  139.5300  151.2400  132.2320 C   0  0  0  0  0  0  0  0  0  0  0  0
  139.3120  150.0420  131.5910 C   0  0  0  0  0  0  0  0  0  0  0  0
  138.1490  149.5280  131.0270 C   0  0  0  0  0  0  0  0  0  0  0  0
  138.2190  148.2710  130.4040 C   0  0  0  0  0  0  0  0  0  0  0  0
  139.4430  147.5610  130.3490 C   0  0  0  0  0  0  0  0  0  0  0  0
  139.5030  146.2880  129.7020 N   0  0  0  0  0  0  0  0  0  0  0  0
  140.6030  148.1130  130.9320 C   0  0  0  0  0  0  0  0  0  0  0  0
  140.5010  149.3590  131.5620 C   0  0  0  0  0  0  0  0  0  0  0  0
  141.4760  150.0790  132.1620 N   0  0  0  0  0  0  0  0  0  0  0  0
  142.8650  149.7220  132.2620 C   0  0  0  0  0  0  0  0  0  0  0  0
  143.2130  148.5120  132.2410 O   0  0  0  0  0  0  0  0  0  0  0  0
  143.8380  150.7090  132.3540 O   0  0  0  0  0  0  0  0  0  0  0  0
  143.2490  151.4390  134.3240 H   0  0  0  0  0  0  0  0  0  0  0  0
  138.7950  152.0344  132.4288 H   0  0  0  0  0  0  0  0  0  0  0  0
  137.2035  150.0887  131.0676 H   0  0  0  0  0  0  0  0  0  0  0  0
  137.3149  147.8342  129.9548 H   0  0  0  0  0  0  0  0  0  0  0  0
  140.2230  146.0940  128.9720 H   0  0  0  0  0  0  0  0  0  0  0  0
  138.8270  145.5310  129.9490 H   0  0  0  0  0  0  0  0  0  0  0  0
  141.5633  147.5779  130.8926 H   0  0  0  0  0  0  0  0  0  0  0  0
  1  2  1  0
  2  3  2  0
  2  4  1  0
  4  5  2  0
  5  6  1  0
  6  7  2  0
  7  8  1  0
  8  9  2  0
  9 10  1  0
  9 11  1  0
 11 12  2  0
 12 13  1  0
 13 14  1  0
 14 15  2  0
 14 16  1  0
 13  4  1  0
 12  6  1  0
  1 17  1  0
  5 18  1  0
  7 19  1  0
  8 20  1  0
 10 21  1  0
 10 22  1  0
 11 23  1  0
M  CHG  2   1  -1  16  -1
M  END
>  <UniqueID>  (9) 
8

>  <SMILES>  (9) 
[NH-]C(=O)c1cc2ccc(N)cc2n1C(=O)[O-]

>  <Energy>  (9) 
62.23202567789493

>  <Genealogy>  (9) 
[NH-]C(=O)c1cc2ccc(N)cc2n1C(=O)[O-] (protonated)
[NH-]C(=O)c1cc2ccc(N)cc2n1C(=O)[O-] (3D coordinates assigned)
[NH-]C(=O)c1cc2ccc(N)cc2n1C(=O)[O-] (optimized conformer: 62.23202567789493 kcal/mol)

>  <smiles>  (9) 
NC(=O)c1cc2ccc(N)cc2n1C(=O)O

>  <score_type>  (9) 
oracle

>  <origin>  (9) 
adg

>  <m_score__min__energy>  (9) 
-5.5599999999999996

>  <m_primary>  (9) 
energy

$$$$
9:0
     RDKit          3D

 35 36  0  0  0  0  0  0  0  0999 V2000
  139.2430  157.1170  132.9860 C   0  0  0  0  0  0  0  0  0  0  0  0
  140.2570  156.3740  133.8420 C   0  0  0  0  0  0  0  0  0  0  0  0
  140.9050  155.3810  133.0540 O   0  0  0  0  0  0  0  0  0  0  0  0
  140.4630  154.0570  132.9930 C   0  0  0  0  0  0  0  0  0  0  0  0
  139.2270  153.8010  132.9510 O   0  0  0  0  0  0  0  0  0  0  0  0
  141.4170  152.9820  132.9850 N   0  0  0  0  0  0  0  0  0  0  0  0
  142.7570  153.0590  133.2240 C   0  0  0  0  0  0  0  0  0  0  0  0
  143.4830  154.2520  133.7020 C   0  0  0  0  0  0  0  0  0  0  0  0
  143.4690  155.4730  132.9600 N   0  0  0  0  0  0  0  0  0  0  0  0
  144.0780  154.2110  134.8120 O   0  0  0  0  0  0  0  0  0  0  0  0
  143.3680  151.8280  133.0020 C   0  0  0  0  0  0  0  0  0  0  0  0
  142.3500  150.9800  132.6320 C   0  0  0  0  0  0  0  0  0  0  0  0
  142.3950  149.6340  132.2770 C   0  0  0  0  0  0  0  0  0  0  0  0
  141.1940  149.0140  131.8950 C   0  0  0  0  0  0  0  0  0  0  0  0
  139.9790  149.7450  131.8710 C   0  0  0  0  0  0  0  0  0  0  0  0
  138.7030  149.0830  131.4220 C   0  0  0  0  0  0  0  0  0  0  0  0
  138.8130  148.5590  129.9890 C   0  0  0  0  0  0  0  0  0  0  0  0
  139.1230  146.8020  129.9620 Cl  0  0  0  0  0  0  0  0  0  0  0  0
  139.9750  151.1110  132.2300 C   0  0  0  0  0  0  0  0  0  0  0  0
  141.1820  151.6990  132.6270 C   0  0  0  0  0  0  0  0  0  0  0  0
  138.5277  157.6411  133.6368 H   0  0  0  0  0  0  0  0  0  0  0  0
  139.7648  157.8481  132.3510 H   0  0  0  0  0  0  0  0  0  0  0  0
  138.7031  156.3992  132.3510 H   0  0  0  0  0  0  0  0  0  0  0  0
  141.0047  157.0843  134.2246 H   0  0  0  0  0  0  0  0  0  0  0  0
  139.7422  155.8937  134.6871 H   0  0  0  0  0  0  0  0  0  0  0  0
  142.8500  155.5910  132.1290 H   0  0  0  0  0  0  0  0  0  0  0  0
  144.0200  156.2940  133.2950 H   0  0  0  0  0  0  0  0  0  0  0  0
  144.4363  151.5853  133.1012 H   0  0  0  0  0  0  0  0  0  0  0  0
  143.3416  149.0740  132.2952 H   0  0  0  0  0  0  0  0  0  0  0  0
  141.1958  147.9511  131.6117 H   0  0  0  0  0  0  0  0  0  0  0  0
  138.4826  148.2405  132.0940 H   0  0  0  0  0  0  0  0  0  0  0  0
  137.8980  149.8320  131.4530 H   0  0  0  0  0  0  0  0  0  0  0  0
  137.8712  148.7647  129.4592 H   0  0  0  0  0  0  0  0  0  0  0  0
  139.6556  149.0674  129.4976 H   0  0  0  0  0  0  0  0  0  0  0  0
  139.0458  151.6988  132.1984 H   0  0  0  0  0  0  0  0  0  0  0  0
  1  2  1  0
  2  3  1  0
  3  4  1  0
  4  5  2  0
  4  6  1  0
  6  7  1  0
  7  8  1  0
  8  9  1  0
  8 10  2  0
  7 11  2  0
 11 12  1  0
 12 13  2  0
 13 14  1  0
 14 15  2  0
 15 16  1  0
 16 17  1  0
 17 18  1  0
 15 19  1  0
 19 20  2  0
 20  6  1  0
 20 12  1  0
  1 21  1  0
  1 22  1  0
  1 23  1  0
  2 24  1  0
  2 25  1  0
  9 26  1  0
  9 27  1  0
 11 28  1  0
 13 29  1  0
 14 30  1  0
 16 31  1  0
 16 32  1  0
 17 33  1  0
 17 34  1  0
 19 35  1  0
M  END
>  <UniqueID>  (10) 
9

>  <SMILES>  (10) 
CCOC(=O)n1c(C(N)=O)cc2ccc(CCCl)cc21

>  <Energy>  (10) 
66.43662567659932

>  <Genealogy>  (10) 
CCOC(=O)n1c(C(N)=O)cc2ccc(CCCl)cc21 (3D coordinates assigned)
CCOC(=O)n1c(C(N)=O)cc2ccc(CCCl)cc21 (optimized conformer: 66.43662567659932 kcal/mol)

>  <smiles>  (10) 
CCOC(=O)n1c(C(N)=O)cc2ccc(CCCl)cc21

>  <score_type>  (10) 
oracle

>  <origin>  (10) 
adg

>  <m_score__min__energy>  (10) 
-6.9000000000000004

>  <m_primary>  (10) 
energy

$$$$
10:0
     RDKit          3D

 24 25  0  0  0  0  0  0  0  0999 V2000
  145.9490  163.1070  134.9260 N   0  0  0  0  0  0  0  0  0  0  0  0
  145.0340  162.3690  134.1200 C   0  0  0  0  0  0  0  0  0  0  0  0
  144.0740  162.9710  133.5700 O   0  0  0  0  0  0  0  0  0  0  0  0
  145.2450  160.9230  133.9040 C   0  0  0  0  0  0  0  0  0  0  0  0
  146.4840  160.3680  133.5890 C   0  0  0  0  0  0  0  0  0  0  0  0
  146.2440  159.0290  133.3840 C   0  0  0  0  0  0  0  0  0  0  0  0
  147.1260  158.0020  133.0680 C   0  0  0  0  0  0  0  0  0  0  0  0
  146.6090  156.7010  132.9510 C   0  0  0  0  0  0  0  0  0  0  0  0
  145.2250  156.4510  133.1420 C   0  0  0  0  0  0  0  0  0  0  0  0
  144.6930  155.0420  133.0770 C   0  0  0  0  0  0  0  0  0  0  0  0
  144.9320  154.4860  131.8320 F   0  0  0  0  0  0  0  0  0  0  0  0
  145.3190  154.2740  134.0410 F   0  0  0  0  0  0  0  0  0  0  0  0
  143.3270  155.0250  133.3020 F   0  0  0  0  0  0  0  0  0  0  0  0
  144.3650  157.5200  133.4870 C   0  0  0  0  0  0  0  0  0  0  0  0
  144.9050  158.8090  133.5780 C   0  0  0  0  0  0  0  0  0  0  0  0
  144.2760  159.9610  133.9020 N   0  0  0  0  0  0  0  0  0  0  0  0
  142.8870  160.1080  134.2340 C   0  0  0  0  0  0  0  0  0  0  0  0
  142.4340  159.6340  135.3090 O   0  0  0  0  0  0  0  0  0  0  0  0
  142.0210  160.7530  133.3590 O   0  0  0  0  0  0  0  0  0  0  0  0
  146.9790  163.0440  134.7630 H   0  0  0  0  0  0  0  0  0  0  0  0
  147.4496  160.8902  133.5191 H   0  0  0  0  0  0  0  0  0  0  0  0
  148.1967  158.2020  132.9142 H   0  0  0  0  0  0  0  0  0  0  0  0
  147.2841  155.8670  132.7087 H   0  0  0  0  0  0  0  0  0  0  0  0
  143.2966  157.3428  133.6794 H   0  0  0  0  0  0  0  0  0  0  0  0
  1  2  1  0
  2  3  2  0
  2  4  1  0
  4  5  2  0
  5  6  1  0
  6  7  2  0
  7  8  1  0
  8  9  2  0
  9 10  1  0
 10 11  1  0
 10 12  1  0
 10 13  1  0
  9 14  1  0
 14 15  2  0
 15 16  1  0
 16 17  1  0
 17 18  2  0
 17 19  1  0
 16  4  1  0
 15  6  1  0
  1 20  1  0
  5 21  1  0
  7 22  1  0
  8 23  1  0
 14 24  1  0
M  CHG  2   1  -1  19  -1
M  END
>  <UniqueID>  (11) 
10

>  <SMILES>  (11) 
[NH-]C(=O)c1cc2ccc(C(F)(F)F)cc2n1C(=O)[O-]

>  <Energy>  (11) 
64.67875251826085

>  <Genealogy>  (11) 
[NH-]C(=O)c1cc2ccc(C(F)(F)F)cc2n1C(=O)[O-] (protonated)
[NH-]C(=O)c1cc2ccc(C(F)(F)F)cc2n1C(=O)[O-] (3D coordinates assigned)
[NH-]C(=O)c1cc2ccc(C(F)(F)F)cc2n1C(=O)[O-] (optimized conformer: 64.67875251826085 kcal/mol)

>  <smiles>  (11) 
NC(=O)c1cc2ccc(C(F)(F)F)cc2n1C(=O)O

>  <score_type>  (11) 
oracle

>  <origin>  (11) 
adg

>  <m_score__min__energy>  (11) 
-5.0800000000000001

>  <m_primary>  (11) 
energy

$$$$
11:0
     RDKit          3D

 39 40  0  0  0  0  0  0  0  0999 V2000
  143.2960  154.1150  132.6720 C   0  0  0  0  0  0  0  0  0  0  0  0
  144.5640  154.7060  133.1360 N   0  0  0  0  0  0  0  0  0  0  0  0
  144.5870  154.8120  134.6060 C   0  0  0  0  0  0  0  0  0  0  0  0
  145.7530  154.0030  132.5940 C   0  0  0  0  0  0  0  0  0  0  0  0
  147.0530  154.2260  133.4020 C   0  0  0  0  0  0  0  0  0  0  0  0
  148.0780  155.0630  132.6230 C   0  0  0  0  0  0  0  0  0  0  0  0
  147.8460  156.5440  132.7920 C   0  0  0  0  0  0  0  0  0  0  0  0
  148.9110  157.4590  132.5980 C   0  0  0  0  0  0  0  0  0  0  0  0
  148.7070  158.8380  132.7690 C   0  0  0  0  0  0  0  0  0  0  0  0
  147.4380  159.2700  133.1440 C   0  0  0  0  0  0  0  0  0  0  0  0
  146.9630  160.5430  133.3560 C   0  0  0  0  0  0  0  0  0  0  0  0
  145.6240  160.3850  133.7040 C   0  0  0  0  0  0  0  0  0  0  0  0
  144.7520  161.5090  134.1060 C   0  0  0  0  0  0  0  0  0  0  0  0
  143.3820  161.5500  133.7130 N   0  0  0  0  0  0  0  0  0  0  0  0
  145.2090  162.4180  134.8480 O   0  0  0  0  0  0  0  0  0  0  0  0
  145.2800  159.0650  133.6980 N   0  0  0  0  0  0  0  0  0  0  0  0
  143.9770  158.4960  133.9100 C   0  0  0  0  0  0  0  0  0  0  0  0
  143.2600  158.8880  134.8680 O   0  0  0  0  0  0  0  0  0  0  0  0
  143.5080  157.4900  133.0760 O   0  0  0  0  0  0  0  0  0  0  0  0
  146.4030  158.3950  133.3560 C   0  0  0  0  0  0  0  0  0  0  0  0
  146.5720  157.0180  133.1740 C   0  0  0  0  0  0  0  0  0  0  0  0
  142.6846  153.8301  133.5409 H   0  0  0  0  0  0  0  0  0  0  0  0
  142.7491  154.8510  132.0644 H   0  0  0  0  0  0  0  0  0  0  0  0
  143.5079  153.2229  132.0644 H   0  0  0  0  0  0  0  0  0  0  0  0
  144.5990  155.6850  132.7610 H   0  0  0  0  0  0  0  0  0  0  0  0
  144.3733  153.8276  135.0480 H   0  0  0  0  0  0  0  0  0  0  0  0
  145.5801  155.1532  134.9335 H   0  0  0  0  0  0  0  0  0  0  0  0
  143.8247  155.5343  134.9335 H   0  0  0  0  0  0  0  0  0  0  0  0
  145.5378  152.9244  132.5801 H   0  0  0  0  0  0  0  0  0  0  0  0
  145.9324  154.4185  131.5914 H   0  0  0  0  0  0  0  0  0  0  0  0
  146.8045  154.7491  134.3372 H   0  0  0  0  0  0  0  0  0  0  0  0
  147.5009  153.2417  133.6035 H   0  0  0  0  0  0  0  0  0  0  0  0
  149.0866  154.8180  132.9873 H   0  0  0  0  0  0  0  0  0  0  0  0
  147.9706  154.8226  131.5550 H   0  0  0  0  0  0  0  0  0  0  0  0
  149.9053  157.0860  132.3112 H   0  0  0  0  0  0  0  0  0  0  0  0
  149.5258  159.5554  132.6113 H   0  0  0  0  0  0  0  0  0  0  0  0
  147.5223  161.4862  133.2691 H   0  0  0  0  0  0  0  0  0  0  0  0
  142.7680  160.7120  133.8200 H   0  0  0  0  0  0  0  0  0  0  0  0
  145.7334  156.3222  133.3247 H   0  0  0  0  0  0  0  0  0  0  0  0
  1  2  1  0
  2  3  1  0
  2  4  1  0
  4  5  1  0
  5  6  1  0
  6  7  1  0
  7  8  2  0
  8  9  1  0
  9 10  2  0
 10 11  1  0
 11 12  2  0
 12 13  1  0
 13 14  1  0
 13 15  2  0
 12 16  1  0
 16 17  1  0
 17 18  2  0
 17 19  1  0
 16 20  1  0
 20 21  2  0
 21  7  1  0
 20 10  1  0
  1 22  1  0
  1 23  1  0
  1 24  1  0
  2 25  1  0
  3 26  1  0
  3 27  1  0
  3 28  1  0
  4 29  1  0
  4 30  1  0
  5 31  1  0
  5 32  1  0
  6 33  1  0
  6 34  1  0
  8 35  1  0
  9 36  1  0
 11 37  1  0
 14 38  1  0
 21 39  1  0
M  CHG  3   2   1  14  -1  19  -1
M  END
>  <UniqueID>  (12) 
11

>  <SMILES>  (12) 
C[NH+](C)CCCc1ccc2cc(C([NH-])=O)n(C(=O)[O-])c2c1

>  <Energy>  (12) 
77.63233271261933

>  <Genealogy>  (12) 
C[NH+](C)CCCc1ccc2cc(C([NH-])=O)n(C(=O)[O-])c2c1 (protonated)
C[NH+](C)CCCc1ccc2cc(C([NH-])=O)n(C(=O)[O-])c2c1 (3D coordinates assigned)
C[NH+](C)CCCc1ccc2cc(C([NH-])=O)n(C(=O)[O-])c2c1 (optimized conformer: 77.63233271261933 kcal/mol)

>  <smiles>  (12) 
CN(C)CCCc1ccc2cc(C(N)=O)n(C(=O)O)c2c1

>  <score_type>  (12) 
oracle

>  <origin>  (12) 
adg

>  <m_score__min__energy>  (12) 
-5.1500000000000004

>  <m_primary>  (12) 
energy

$$$$
12:0
     RDKit          3D

 34 35  0  0  0  0  0  0  0  0999 V2000
  141.0510  158.9990  135.8900 C   0  0  0  0  0  0  0  0  0  0  0  0
  141.4520  158.5050  134.4830 C   0  0  0  0  0  0  0  0  0  0  0  0
  140.4140  158.9960  133.4520 C   0  0  0  0  0  0  0  0  0  0  0  0
  141.4040  156.9580  134.4970 C   0  0  0  0  0  0  0  0  0  0  0  0
  142.8440  159.0630  134.1190 C   0  0  0  0  0  0  0  0  0  0  0  0
  143.0360  160.4760  134.0650 C   0  0  0  0  0  0  0  0  0  0  0  0
  144.2850  161.0320  133.7490 C   0  0  0  0  0  0  0  0  0  0  0  0
  145.3370  160.1660  133.4810 C   0  0  0  0  0  0  0  0  0  0  0  0
  146.6490  160.4390  133.1710 C   0  0  0  0  0  0  0  0  0  0  0  0
  147.2560  159.1950  133.0150 C   0  0  0  0  0  0  0  0  0  0  0  0
  148.6600  159.0230  132.5860 C   0  0  0  0  0  0  0  0  0  0  0  0
  148.9480  158.4900  131.2950 N   0  0  0  0  0  0  0  0  0  0  0  0
  149.6110  159.3080  133.3610 O   0  0  0  0  0  0  0  0  0  0  0  0
  146.3550  158.1940  133.2270 N   0  0  0  0  0  0  0  0  0  0  0  0
  146.5970  156.7780  133.2280 C   0  0  0  0  0  0  0  0  0  0  0  0
  147.4670  156.1960  132.2600 N   0  0  0  0  0  0  0  0  0  0  0  0
  146.0620  156.0450  134.1030 O   0  0  0  0  0  0  0  0  0  0  0  0
  145.1830  158.8070  133.5080 C   0  0  0  0  0  0  0  0  0  0  0  0
  143.9560  158.2210  133.8380 C   0  0  0  0  0  0  0  0  0  0  0  0
  141.5513  158.3826  136.6514 H   0  0  0  0  0  0  0  0  0  0  0  0
  141.3553  160.0492  136.0104 H   0  0  0  0  0  0  0  0  0  0  0  0
  139.9607  158.9171  136.0104 H   0  0  0  0  0  0  0  0  0  0  0  0
  139.5410  159.4089  133.9787 H   0  0  0  0  0  0  0  0  0  0  0  0
  140.8646  159.7764  132.8212 H   0  0  0  0  0  0  0  0  0  0  0  0
  140.0965  158.1526  132.8212 H   0  0  0  0  0  0  0  0  0  0  0  0
  141.3929  156.6009  135.5374 H   0  0  0  0  0  0  0  0  0  0  0  0
  140.4948  156.6147  133.9818 H   0  0  0  0  0  0  0  0  0  0  0  0
  142.2902  156.5590  133.9818 H   0  0  0  0  0  0  0  0  0  0  0  0
  142.1872  161.1433  134.2755 H   0  0  0  0  0  0  0  0  0  0  0  0
  144.4267  162.1223  133.7145 H   0  0  0  0  0  0  0  0  0  0  0  0
  147.1186  161.4284  133.0682 H   0  0  0  0  0  0  0  0  0  0  0  0
  148.8210  157.4740  131.0930 H   0  0  0  0  0  0  0  0  0  0  0  0
  147.7350  156.7190  131.3980 H   0  0  0  0  0  0  0  0  0  0  0  0
  143.8527  157.1266  133.8795 H   0  0  0  0  0  0  0  0  0  0  0  0
  1  2  1  0
  2  3  1  0
  2  4  1  0
  2  5  1  0
  5  6  2  0
  6  7  1  0
  7  8  2  0
  8  9  1  0
  9 10  2  0
 10 11  1  0
 11 12  1  0
 11 13  2  0
 10 14  1  0
 14 15  1  0
 15 16  1  0
 15 17  2  0
 14 18  1  0
 18 19  2  0
 19  5  1  0
 18  8  1  0
  1 20  1  0
  1 21  1  0
  1 22  1  0
  3 23  1  0
  3 24  1  0
  3 25  1  0
  4 26  1  0
  4 27  1  0
  4 28  1  0
  6 29  1  0
  7 30  1  0
  9 31  1  0
 12 32  1  0
 16 33  1  0
 19 34  1  0
M  CHG  2  12  -1  16  -1
M  END
>  <UniqueID>  (13) 
12

>  <SMILES>  (13) 
CC(C)(C)c1ccc2cc(C([NH-])=O)n(C([NH-])=O)c2c1

>  <Energy>  (13) 
74.23203283324011

>  <Genealogy>  (13) 
CC(C)(C)c1ccc2cc(C([NH-])=O)n(C([NH-])=O)c2c1 (protonated)
CC(C)(C)c1ccc2cc(C([NH-])=O)n(C([NH-])=O)c2c1 (3D coordinates assigned)
CC(C)(C)c1ccc2cc(C([NH-])=O)n(C([NH-])=O)c2c1 (optimized conformer: 74.23203283324011 kcal/mol)

>  <smiles>  (13) 
CC(C)(C)c1ccc2cc(C(N)=O)n(C(N)=O)c2c1

>  <score_type>  (13) 
oracle

>  <origin>  (13) 
adg

>  <m_score__min__energy>  (13) 
-6.5700000000000003

>  <m_primary>  (13) 
energy

$$$$
13:0
     RDKit          3D

 57 61  0  0  0  0  0  0  0  0999 V2000
  141.4200  160.3150  134.1100 N   0  0  0  0  0  0  0  0  0  0  0  0
  142.6930  160.8300  133.7220 C   0  0  0  0  0  0  0  0  0  0  0  0
  142.7950  162.0440  133.4080 O   0  0  0  0  0  0  0  0  0  0  0  0
  143.8770  159.9480  133.7400 C   0  0  0  0  0  0  0  0  0  0  0  0
  145.1130  160.3130  133.2110 C   0  0  0  0  0  0  0  0  0  0  0  0
  145.9100  159.2000  133.3410 C   0  0  0  0  0  0  0  0  0  0  0  0
  147.2400  159.0040  132.9790 C   0  0  0  0  0  0  0  0  0  0  0  0
  147.8180  157.7530  133.2510 C   0  0  0  0  0  0  0  0  0  0  0  0
  147.0670  156.7330  133.8860 C   0  0  0  0  0  0  0  0  0  0  0  0
  147.6870  155.3830  134.1390 C   0  0  0  0  0  0  0  0  0  0  0  0
  147.4930  154.4460  132.9420 C   0  0  0  0  0  0  0  0  0  0  0  0
  146.0740  154.2640  132.6520 N   0  0  0  0  0  0  0  0  0  0  0  0
  145.3520  153.2400  133.0720 N   0  0  0  0  0  0  0  0  0  0  0  0
  144.1440  153.4360  132.4990 C   0  0  0  0  0  0  0  0  0  0  0  0
  142.9860  152.5360  132.6690 C   0  0  0  0  0  0  0  0  0  0  0  0
  141.6880  153.0620  132.8080 C   0  0  0  0  0  0  0  0  0  0  0  0
  140.5930  152.2070  132.9690 C   0  0  0  0  0  0  0  0  0  0  0  0
  140.7810  150.8220  132.9910 C   0  0  0  0  0  0  0  0  0  0  0  0
  142.0650  150.2900  132.8520 C   0  0  0  0  0  0  0  0  0  0  0  0
  143.1640  151.1410  132.6920 C   0  0  0  0  0  0  0  0  0  0  0  0
  144.1370  154.5510  131.7340 N   0  0  0  0  0  0  0  0  0  0  0  0
  145.3610  155.0370  131.8540 N   0  0  0  0  0  0  0  0  0  0  0  0
  145.7180  156.9650  134.2310 C   0  0  0  0  0  0  0  0  0  0  0  0
  145.1610  158.2150  133.9320 C   0  0  0  0  0  0  0  0  0  0  0  0
  143.9100  158.6580  134.1840 N   0  0  0  0  0  0  0  0  0  0  0  0
  142.8650  157.9340  134.8550 C   0  0  0  0  0  0  0  0  0  0  0  0
  142.4220  158.3480  135.9610 O   0  0  0  0  0  0  0  0  0  0  0  0
  142.3240  156.7870  134.2620 O   0  0  0  0  0  0  0  0  0  0  0  0
  141.0860  156.7830  133.5530 C   0  0  0  0  0  0  0  0  0  0  0  0
  141.0510  157.8560  132.4710 C   0  0  0  0  0  0  0  0  0  0  0  0
  139.5930  158.2930  132.3600 C   0  0  0  0  0  0  0  0  0  0  0  0
  138.8750  157.7630  133.6000 C   0  0  0  0  0  0  0  0  0  0  0  0
  139.9410  157.1340  134.4850 C   0  0  0  0  0  0  0  0  0  0  0  0
  141.3090  159.3140  134.3900 H   0  0  0  0  0  0  0  0  0  0  0  0
  145.3923  161.2859  132.7803 H   0  0  0  0  0  0  0  0  0  0  0  0
  147.8200  159.8037  132.4952 H   0  0  0  0  0  0  0  0  0  0  0  0
  148.8640  157.5633  132.9683 H   0  0  0  0  0  0  0  0  0  0  0  0
  148.7640  155.5122  134.3216 H   0  0  0  0  0  0  0  0  0  0  0  0
  147.1941  154.9339  135.0139 H   0  0  0  0  0  0  0  0  0  0  0  0
  147.9887  154.8791  132.0607 H   0  0  0  0  0  0  0  0  0  0  0  0
  147.9320  153.4671  133.1852 H   0  0  0  0  0  0  0  0  0  0  0  0
  141.5340  154.1510  132.7899 H   0  0  0  0  0  0  0  0  0  0  0  0
  139.5816  152.6253  133.0786 H   0  0  0  0  0  0  0  0  0  0  0  0
  139.9183  150.1515  133.1177 H   0  0  0  0  0  0  0  0  0  0  0  0
  142.2124  149.2000  132.8684 H   0  0  0  0  0  0  0  0  0  0  0  0
  144.1730  150.7166  132.5836 H   0  0  0  0  0  0  0  0  0  0  0  0
  145.7100  155.8940  131.3700 H   0  0  0  0  0  0  0  0  0  0  0  0
  145.1193  156.1838  134.7223 H   0  0  0  0  0  0  0  0  0  0  0  0
  140.9890  155.7756  133.1221 H   0  0  0  0  0  0  0  0  0  0  0  0
  141.6849  158.7083  132.7571 H   0  0  0  0  0  0  0  0  0  0  0  0
  141.4316  157.4743  131.5121 H   0  0  0  0  0  0  0  0  0  0  0  0
  139.5287  159.3906  132.3259 H   0  0  0  0  0  0  0  0  0  0  0  0
  139.1333  157.9004  131.4410 H   0  0  0  0  0  0  0  0  0  0  0  0
  138.3782  158.5876  134.1322 H   0  0  0  0  0  0  0  0  0  0  0  0
  138.1025  157.0289  133.3273 H   0  0  0  0  0  0  0  0  0  0  0  0
  140.2747  157.8485  135.2519 H   0  0  0  0  0  0  0  0  0  0  0  0
  139.5607  156.2488  135.0158 H   0  0  0  0  0  0  0  0  0  0  0  0
  1  2  1  0
  2  3  2  0
  2  4  1  0
  4  5  2  0
  5  6  1  0
  6  7  2  0
  7  8  1  0
  8  9  2  0
  9 10  1  0
 10 11  1  0
 11 12  1  0
 12 13  1  0
 13 14  2  0
 14 15  1  0
 15 16  2  0
 16 17  1  0
 17 18  2  0
 18 19  1  0
 19 20  2  0
 14 21  1  0
 21 22  2  0
  9 23  1  0
 23 24  2  0
 24 25  1  0
 25 26  1  0
 26 27  2  0
 26 28  1  0
 28 29  1  0
 29 30  1  0
 30 31  1  0
 31 32  1  0
 32 33  1  0
 25  4  1  0
 33 29  1  0
 24  6  1  0
 22 12  1  0
 20 15  1  0
  1 34  1  0
  5 35  1  0
  7 36  1  0
  8 37  1  0
 10 38  1  0
 10 39  1  0
 11 40  1  0
 11 41  1  0
 16 42  1  0
 17 43  1  0
 18 44  1  0
 19 45  1  0
 20 46  1  0
 22 47  1  0
 23 48  1  0
 29 49  1  0
 30 50  1  0
 30 51  1  0
 31 52  1  0
 31 53  1  0
 32 54  1  0
 32 55  1  0
 33 56  1  0
 33 57  1  0
M  CHG  2   1  -1  22   1
M  END
>  <UniqueID>  (14) 
13

>  <SMILES>  (14) 
[NH-]C(=O)c1cc2ccc(CCn3nc(-c4ccccc4)n[nH+]3)cc2n1C(=O)OC1CCCC1

>  <Energy>  (14) 
133.49104408816498

>  <Genealogy>  (14) 
[NH-]C(=O)c1cc2ccc(CCn3nc(-c4ccccc4)n[nH+]3)cc2n1C(=O)OC1CCCC1 (protonated)
[NH-]C(=O)c1cc2ccc(CCn3nc(-c4ccccc4)n[nH+]3)cc2n1C(=O)OC1CCCC1 (3D coordinates assigned)
[NH-]C(=O)c1cc2ccc(CCn3nc(-c4ccccc4)n[nH+]3)cc2n1C(=O)OC1CCCC1 (nonaromatic ring conformer: 133.49104408816498 kcal/mol)

>  <smiles>  (14) 
NC(=O)c1cc2ccc(CCn3nnc(-c4ccccc4)n3)cc2n1C(=O)OC1CCCC1

>  <score_type>  (14) 
oracle

>  <origin>  (14) 
adg

>  <m_score__min__energy>  (14) 
-10.890000000000001

>  <m_primary>  (14) 
energy

$$$$
14:0
     RDKit          3D

 40 41  0  0  0  0  0  0  0  0999 V2000
  141.0680  159.3510  137.1100 C   0  0  0  0  0  0  0  0  0  0  0  0
  140.1460  158.1520  136.9220 C   0  0  0  0  0  0  0  0  0  0  0  0
  139.4840  158.2230  135.6620 O   0  0  0  0  0  0  0  0  0  0  0  0
  139.9250  157.5450  134.5180 C   0  0  0  0  0  0  0  0  0  0  0  0
  139.9030  156.2840  134.4820 O   0  0  0  0  0  0  0  0  0  0  0  0
  140.3540  158.3160  133.2910 C   0  0  1  0  0  0  0  0  0  0  0  0
  139.3010  159.3440  132.8120 C   0  0  0  0  0  0  0  0  0  0  0  0
  138.7470  159.0750  131.4100 C   0  0  0  0  0  0  0  0  0  0  0  0
  141.7230  158.9590  133.4540 C   0  0  0  0  0  0  0  0  0  0  0  0
  141.8650  160.3670  133.5910 C   0  0  0  0  0  0  0  0  0  0  0  0
  143.1340  160.9520  133.7230 C   0  0  0  0  0  0  0  0  0  0  0  0
  144.2450  160.1160  133.6910 C   0  0  0  0  0  0  0  0  0  0  0  0
  145.5810  160.4170  133.8250 C   0  0  0  0  0  0  0  0  0  0  0  0
  146.2440  159.1990  133.7200 C   0  0  0  0  0  0  0  0  0  0  0  0
  147.7140  159.0700  133.7470 C   0  0  0  0  0  0  0  0  0  0  0  0
  148.3510  158.0010  134.4450 N   0  0  0  0  0  0  0  0  0  0  0  0
  148.4180  159.8880  133.0970 O   0  0  0  0  0  0  0  0  0  0  0  0
  145.3560  158.1790  133.5400 N   0  0  0  0  0  0  0  0  0  0  0  0
  145.6400  156.7700  133.5030 C   0  0  0  0  0  0  0  0  0  0  0  0
  146.4850  156.2700  134.2920 O   0  0  0  0  0  0  0  0  0  0  0  0
  144.9820  155.9410  132.6010 O   0  0  0  0  0  0  0  0  0  0  0  0
  144.1330  158.7590  133.5230 C   0  0  0  0  0  0  0  0  0  0  0  0
  142.8790  158.1470  133.4130 C   0  0  0  0  0  0  0  0  0  0  0  0
  141.2118  159.5380  138.1844 H   0  0  0  0  0  0  0  0  0  0  0  0
  142.0408  159.1427  136.6406 H   0  0  0  0  0  0  0  0  0  0  0  0
  140.6168  160.2376  136.6406 H   0  0  0  0  0  0  0  0  0  0  0  0
  140.7407  157.2277  136.9666 H   0  0  0  0  0  0  0  0  0  0  0  0
  139.3902  158.1562  137.7212 H   0  0  0  0  0  0  0  0  0  0  0  0
  140.4381  157.5621  132.4944 H   0  0  0  0  0  0  0  0  0  0  0  0
  138.4609  159.3324  133.5220 H   0  0  0  0  0  0  0  0  0  0  0  0
  139.8106  160.3178  132.7668 H   0  0  0  0  0  0  0  0  0  0  0  0
  137.7602  158.5958  131.4914 H   0  0  0  0  0  0  0  0  0  0  0  0
  138.6491  160.0259  130.8657 H   0  0  0  0  0  0  0  0  0  0  0  0
  139.4337  158.4100  130.8657 H   0  0  0  0  0  0  0  0  0  0  0  0
  140.9694  161.0057  133.5936 H   0  0  0  0  0  0  0  0  0  0  0  0
  143.2464  162.0391  133.8480 H   0  0  0  0  0  0  0  0  0  0  0  0
  146.0290  161.4093  133.9817 H   0  0  0  0  0  0  0  0  0  0  0  0
  147.7960  157.2130  134.8470 H   0  0  0  0  0  0  0  0  0  0  0  0
  149.3930  157.9500  134.4890 H   0  0  0  0  0  0  0  0  0  0  0  0
  142.7950  157.0564  133.2970 H   0  0  0  0  0  0  0  0  0  0  0  0
  1  2  1  0
  2  3  1  0
  3  4  1  0
  4  5  2  0
  4  6  1  0
  6  7  1  0
  7  8  1  0
  6  9  1  0
  9 10  2  0
 10 11  1  0
 11 12  2  0
 12 13  1  0
 13 14  2  0
 14 15  1  0
 15 16  1  0
 15 17  2  0
 14 18  1  0
 18 19  1  0
 19 20  2  0
 19 21  1  0
 18 22  1  0
 22 23  2  0
 23  9  1  0
 22 12  1  0
  1 24  1  0
  1 25  1  0
  1 26  1  0
  2 27  1  0
  2 28  1  0
  6 29  1  6
  7 30  1  0
  7 31  1  0
  8 32  1  0
  8 33  1  0
  8 34  1  0
 10 35  1  0
 11 36  1  0
 13 37  1  0
 16 38  1  0
 16 39  1  0
 23 40  1  0
M  CHG  1  21  -1
M  END
>  <UniqueID>  (15) 
14

>  <SMILES>  (15) 
CCOC(=O)[C@@H](CC)c1ccc2cc(C(N)=O)n(C(=O)[O-])c2c1

>  <Energy>  (15) 
74.9978022160778

>  <Genealogy>  (15) 
CCOC(=O)C(CC)c1ccc2cc(C(N)=O)n(C(=O)[O-])c2c1 (protonated)
CCOC(=O)[C@@H](CC)c1ccc2cc(C(N)=O)n(C(=O)[O-])c2c1 (chirality)
CCOC(=O)[C@@H](CC)c1ccc2cc(C(N)=O)n(C(=O)[O-])c2c1 (3D coordinates assigned)
CCOC(=O)[C@@H](CC)c1ccc2cc(C(N)=O)n(C(=O)[O-])c2c1 (optimized conformer: 74.9978022160778 kcal/mol)

>  <smiles>  (15) 
CCOC(=O)C(CC)c1ccc2cc(C(N)=O)n(C(=O)O)c2c1

>  <score_type>  (15) 
oracle

>  <origin>  (15) 
adg

>  <m_score__min__energy>  (15) 
-6.79

>  <m_primary>  (15) 
energy

$$$$
15:0
     RDKit          3D

 42 45  0  0  0  0  0  0  0  0999 V2000
  149.2310  151.0540  131.6140 C   0  0  0  0  0  0  0  0  0  0  0  0
  148.8500  151.5540  133.0020 C   0  0  0  0  0  0  0  0  0  0  0  0
  147.7080  152.4040  132.9340 O   0  0  0  0  0  0  0  0  0  0  0  0
  147.7880  153.7950  132.8030 C   0  0  0  0  0  0  0  0  0  0  0  0
  148.7890  154.3250  132.2480 O   0  0  0  0  0  0  0  0  0  0  0  0
  146.7240  154.6230  133.3010 N   0  0  0  0  0  0  0  0  0  0  0  0
  146.8060  155.9180  133.7130 C   0  0  0  0  0  0  0  0  0  0  0  0
  148.0490  156.6960  133.8820 C   0  0  0  0  0  0  0  0  0  0  0  0
  148.9260  156.9380  132.7800 N   0  0  0  0  0  0  0  0  0  0  0  0
  148.3710  157.1070  135.0280 O   0  0  0  0  0  0  0  0  0  0  0  0
  145.5420  156.4190  134.0160 C   0  0  0  0  0  0  0  0  0  0  0  0
  144.6750  155.3740  133.7870 C   0  0  0  0  0  0  0  0  0  0  0  0
  143.2910  155.3200  133.9120 C   0  0  0  0  0  0  0  0  0  0  0  0
  142.6460  154.1200  133.5710 C   0  0  0  0  0  0  0  0  0  0  0  0
  143.3850  153.0040  133.1020 C   0  0  0  0  0  0  0  0  0  0  0  0
  142.6910  151.7450  132.7300 C   0  0  0  0  0  0  0  0  0  0  0  0
  143.4260  150.5360  132.5780 C   0  0  0  0  0  0  0  0  0  0  0  0
  142.7790  149.3380  132.2250 C   0  0  0  0  0  0  0  0  0  0  0  0
  141.4030  149.3750  132.0280 C   0  0  0  0  0  0  0  0  0  0  0  0
  140.6120  148.3840  131.6970 O   0  0  0  0  0  0  0  0  0  0  0  0
  139.3840  148.8640  131.6150 C   0  0  0  0  0  0  0  0  0  0  0  0
  139.3730  150.2230  131.9080 C   0  0  0  0  0  0  0  0  0  0  0  0
  140.6870  150.5310  132.1720 C   0  0  0  0  0  0  0  0  0  0  0  0
  141.2910  151.7350  132.5210 C   0  0  0  0  0  0  0  0  0  0  0  0
  144.7930  153.1030  132.9850 C   0  0  0  0  0  0  0  0  0  0  0  0
  145.4120  154.3030  133.3540 C   0  0  0  0  0  0  0  0  0  0  0  0
  149.8953  150.1823  131.7079 H   0  0  0  0  0  0  0  0  0  0  0  0
  148.3220  150.7650  131.0661 H   0  0  0  0  0  0  0  0  0  0  0  0
  149.7508  151.8537  131.0661 H   0  0  0  0  0  0  0  0  0  0  0  0
  148.6212  150.6923  133.6463 H   0  0  0  0  0  0  0  0  0  0  0  0
  149.6933  152.1261  133.4162 H   0  0  0  0  0  0  0  0  0  0  0  0
  148.7810  156.4670  131.8610 H   0  0  0  0  0  0  0  0  0  0  0  0
  149.7800  157.5260  132.9090 H   0  0  0  0  0  0  0  0  0  0  0  0
  145.2905  157.4319  134.3636 H   0  0  0  0  0  0  0  0  0  0  0  0
  142.7193  156.1902  134.2669 H   0  0  0  0  0  0  0  0  0  0  0  0
  141.5530  154.0446  133.6690 H   0  0  0  0  0  0  0  0  0  0  0  0
  144.5142  150.5384  132.7387 H   0  0  0  0  0  0  0  0  0  0  0  0
  143.3438  148.4013  132.1085 H   0  0  0  0  0  0  0  0  0  0  0  0
  138.4952  148.2717  131.3519 H   0  0  0  0  0  0  0  0  0  0  0  0
  138.5067  150.9006  131.9249 H   0  0  0  0  0  0  0  0  0  0  0  0
  140.6967  152.6540  132.6315 H   0  0  0  0  0  0  0  0  0  0  0  0
  145.3870  152.2555  132.6123 H   0  0  0  0  0  0  0  0  0  0  0  0
  1  2  1  0
  2  3  1  0
  3  4  1  0
  4  5  2  0
  4  6  1  0
  6  7  1  0
  7  8  1  0
  8  9  1  0
  8 10  2  0
  7 11  2  0
 11 12  1  0
 12 13  2  0
 13 14  1  0
 14 15  2  0
 15 16  1  0
 16 17  2  0
 17 18  1  0
 18 19  2  0
 19 20  1  0
 20 21  1  0
 21 22  2  0
 22 23  1  0
 23 24  2  0
 15 25  1  0
 25 26  2  0
 26  6  1  0
 26 12  1  0
 24 16  1  0
 23 19  1  0
  1 27  1  0
  1 28  1  0
  1 29  1  0
  2 30  1  0
  2 31  1  0
  9 32  1  0
  9 33  1  0
 11 34  1  0
 13 35  1  0
 14 36  1  0
 17 37  1  0
 18 38  1  0
 21 39  1  0
 22 40  1  0
 24 41  1  0
 25 42  1  0
M  END
>  <UniqueID>  (16) 
15

>  <SMILES>  (16) 
CCOC(=O)n1c(C(N)=O)cc2ccc(-c3ccc4occc4c3)cc21

>  <Energy>  (16) 
120.43808105348666

>  <Genealogy>  (16) 
CCOC(=O)n1c(C(N)=O)cc2ccc(-c3ccc4occc4c3)cc21 (3D coordinates assigned)
CCOC(=O)n1c(C(N)=O)cc2ccc(-c3ccc4occc4c3)cc21 (optimized conformer: 120.43808105348666 kcal/mol)

>  <smiles>  (16) 
CCOC(=O)n1c(C(N)=O)cc2ccc(-c3ccc4occc4c3)cc21

>  <score_type>  (16) 
oracle

>  <origin>  (16) 
adg

>  <m_score__min__energy>  (16) 
-8.6400000000000006

>  <m_primary>  (16) 
energy

$$$$
16:0
     RDKit          3D

 49 52  0  0  0  0  0  0  0  0999 V2000
  146.3340  157.5250  133.8320 C   0  0  0  0  0  0  0  0  0  0  0  0
  145.7420  158.7530  133.2160 C   0  0  0  0  0  0  0  0  0  0  0  0
  146.3890  159.3630  132.3230 O   0  0  0  0  0  0  0  0  0  0  0  0
  144.4390  159.2220  133.6020 N   0  0  0  0  0  0  0  0  0  0  0  0
  144.0870  160.4660  134.0350 C   0  0  0  0  0  0  0  0  0  0  0  0
  144.9550  161.6610  134.0290 C   0  0  0  0  0  0  0  0  0  0  0  0
  146.3770  161.5430  134.0920 N   0  0  0  0  0  0  0  0  0  0  0  0
  144.4340  162.8010  133.9130 O   0  0  0  0  0  0  0  0  0  0  0  0
  142.7540  160.4870  134.4370 C   0  0  0  0  0  0  0  0  0  0  0  0
  142.2880  159.2100  134.2190 C   0  0  0  0  0  0  0  0  0  0  0  0
  141.0310  158.6640  134.4510 C   0  0  0  0  0  0  0  0  0  0  0  0
  140.8400  157.3030  134.1590 C   0  0  0  0  0  0  0  0  0  0  0  0
  141.9040  156.5100  133.6520 C   0  0  0  0  0  0  0  0  0  0  0  0
  141.6920  155.0710  133.3510 C   0  0  0  0  0  0  0  0  0  0  0  0
  142.7870  154.2140  133.1500 C   0  0  0  0  0  0  0  0  0  0  0  0
  142.5880  152.8580  132.8750 C   0  0  0  0  0  0  0  0  0  0  0  0
  141.2880  152.3260  132.7990 C   0  0  0  0  0  0  0  0  0  0  0  0
  141.0800  150.9210  132.5260 N   0  0  0  0  0  0  0  0  0  0  0  0
  139.7270  150.3830  132.3400 C   0  0  0  0  0  0  0  0  0  0  0  0
  139.7630  149.2190  131.3390 C   0  0  0  0  0  0  0  0  0  0  0  0
  140.7260  148.1550  131.7020 N   0  0  0  0  0  0  0  0  0  0  0  0
  141.7440  148.5520  132.6920 C   0  0  0  0  0  0  0  0  0  0  0  0
  142.2210  149.9940  132.4860 C   0  0  0  0  0  0  0  0  0  0  0  0
  140.1930  153.1870  132.9910 C   0  0  0  0  0  0  0  0  0  0  0  0
  140.3930  154.5420  133.2660 C   0  0  0  0  0  0  0  0  0  0  0  0
  143.1690  157.1050  133.4330 C   0  0  0  0  0  0  0  0  0  0  0  0
  143.3240  158.4660  133.7150 C   0  0  0  0  0  0  0  0  0  0  0  0
  146.2937  157.6087  134.9281 H   0  0  0  0  0  0  0  0  0  0  0  0
  145.7628  156.6416  133.5104 H   0  0  0  0  0  0  0  0  0  0  0  0
  147.3809  157.4217  133.5104 H   0  0  0  0  0  0  0  0  0  0  0  0
  146.8450  160.6130  134.0150 H   0  0  0  0  0  0  0  0  0  0  0  0
  146.9720  162.4000  134.1360 H   0  0  0  0  0  0  0  0  0  0  0  0
  142.1928  161.3418  134.8424 H   0  0  0  0  0  0  0  0  0  0  0  0
  140.2110  159.2785  134.8509 H   0  0  0  0  0  0  0  0  0  0  0  0
  139.8536  156.8455  134.3252 H   0  0  0  0  0  0  0  0  0  0  0  0
  143.8101  154.6137  133.2096 H   0  0  0  0  0  0  0  0  0  0  0  0
  143.4559  152.2010  132.7166 H   0  0  0  0  0  0  0  0  0  0  0  0
  139.3414  150.0228  133.3052 H   0  0  0  0  0  0  0  0  0  0  0  0
  139.0711  151.1760  131.9514 H   0  0  0  0  0  0  0  0  0  0  0  0
  138.7580  148.7750  131.2856 H   0  0  0  0  0  0  0  0  0  0  0  0
  140.0890  149.6336  130.3737 H   0  0  0  0  0  0  0  0  0  0  0  0
  141.2250  147.8530  130.8280 H   0  0  0  0  0  0  0  0  0  0  0  0
  141.3120  148.4624  133.6997 H   0  0  0  0  0  0  0  0  0  0  0  0
  142.6124  147.8882  132.5680 H   0  0  0  0  0  0  0  0  0  0  0  0
  142.9312  150.2584  133.2833 H   0  0  0  0  0  0  0  0  0  0  0  0
  142.7101  150.0716  131.5038 H   0  0  0  0  0  0  0  0  0  0  0  0
  139.1693  152.7899  132.9240 H   0  0  0  0  0  0  0  0  0  0  0  0
  139.5254  155.2010  133.4174 H   0  0  0  0  0  0  0  0  0  0  0  0
  144.0114  156.5105  133.0496 H   0  0  0  0  0  0  0  0  0  0  0  0
  1  2  1  0
  2  3  2  0
  2  4  1  0
  4  5  1  0
  5  6  1  0
  6  7  1  0
  6  8  2  0
  5  9  2  0
  9 10  1  0
 10 11  2  0
 11 12  1  0
 12 13  2  0
 13 14  1  0
 14 15  2  0
 15 16  1  0
 16 17  2  0
 17 18  1  0
 18 19  1  0
 19 20  1  0
 20 21  1  0
 21 22  1  0
 22 23  1  0
 17 24  1  0
 24 25  2  0
 13 26  1  0
 26 27  2  0
 27  4  1  0
 27 10  1  0
 25 14  1  0
 23 18  1  0
  1 28  1  0
  1 29  1  0
  1 30  1  0
  7 31  1  0
  7 32  1  0
  9 33  1  0
 11 34  1  0
 12 35  1  0
 15 36  1  0
 16 37  1  0
 19 38  1  0
 19 39  1  0
 20 40  1  0
 20 41  1  0
 21 42  1  0
 22 43  1  0
 22 44  1  0
 23 45  1  0
 23 46  1  0
 24 47  1  0
 25 48  1  0
 26 49  1  0
M  END
>  <UniqueID>  (17) 
16

>  <SMILES>  (17) 
CC(=O)n1c(C(N)=O)cc2ccc(-c3ccc(N4CCNCC4)cc3)cc21

>  <Energy>  (17) 
104.70445115742636

>  <Genealogy>  (17) 
CC(=O)n1c(C(N)=O)cc2ccc(-c3ccc(N4CCNCC4)cc3)cc21 (3D coordinates assigned)
CC(=O)n1c(C(N)=O)cc2ccc(-c3ccc(N4CCNCC4)cc3)cc21 (nonaromatic ring conformer: 104.70445115742636 kcal/mol)

>  <smiles>  (17) 
CC(=O)n1c(C(N)=O)cc2ccc(-c3ccc(N4CCNCC4)cc3)cc21

>  <score_type>  (17) 
oracle

>  <origin>  (17) 
adg

>  <m_score__min__energy>  (17) 
-8.8399999999999999

>  <m_primary>  (17) 
energy

$$$$
17:0
     RDKit          3D

 32 33  0  0  0  0  0  0  0  0999 V2000
  149.6340  151.0600  133.6380 C   0  0  0  0  0  0  0  0  0  0  0  0
  149.1710  151.9990  132.5310 C   0  0  0  0  0  0  0  0  0  0  0  0
  148.4850  153.1230  133.0780 O   0  0  0  0  0  0  0  0  0  0  0  0
  148.9270  154.4440  132.9270 C   0  0  0  0  0  0  0  0  0  0  0  0
  149.9900  154.6930  132.2940 O   0  0  0  0  0  0  0  0  0  0  0  0
  148.1470  155.5210  133.4700 N   0  0  0  0  0  0  0  0  0  0  0  0
  147.1900  155.4560  134.4390 C   0  0  0  0  0  0  0  0  0  0  0  0
  146.6520  154.2210  135.0490 C   0  0  0  0  0  0  0  0  0  0  0  0
  145.9620  153.2730  134.2380 N   0  0  0  0  0  0  0  0  0  0  0  0
  146.8260  153.9760  136.2710 O   0  0  0  0  0  0  0  0  0  0  0  0
  146.7070  156.7290  134.7340 C   0  0  0  0  0  0  0  0  0  0  0  0
  147.3960  157.5830  133.9030 C   0  0  0  0  0  0  0  0  0  0  0  0
  147.3160  158.9660  133.7750 C   0  0  0  0  0  0  0  0  0  0  0  0
  148.1650  159.5920  132.8470 C   0  0  0  0  0  0  0  0  0  0  0  0
  149.0850  158.8320  132.0830 C   0  0  0  0  0  0  0  0  0  0  0  0
  149.9760  159.5100  131.0810 C   0  0  0  0  0  0  0  0  0  0  0  0
  149.4700  160.8550  130.7910 C   0  0  0  0  0  0  0  0  0  0  0  0
  149.0690  161.9170  130.5610 N   0  0  0  0  0  0  0  0  0  0  0  0
  149.1310  157.4280  132.2320 C   0  0  0  0  0  0  0  0  0  0  0  0
  148.2590  156.8280  133.1500 C   0  0  0  0  0  0  0  0  0  0  0  0
  149.4122  151.5098  134.6170 H   0  0  0  0  0  0  0  0  0  0  0  0
  149.1065  150.0989  133.5481 H   0  0  0  0  0  0  0  0  0  0  0  0
  150.7176  150.8933  133.5481 H   0  0  0  0  0  0  0  0  0  0  0  0
  150.0468  152.3504  131.9658 H   0  0  0  0  0  0  0  0  0  0  0  0
  148.4833  151.4529  131.8685 H   0  0  0  0  0  0  0  0  0  0  0  0
  146.4770  152.5090  133.7480 H   0  0  0  0  0  0  0  0  0  0  0  0
  145.9380  156.9952  135.4741 H   0  0  0  0  0  0  0  0  0  0  0  0
  146.6096  159.5515  134.3818 H   0  0  0  0  0  0  0  0  0  0  0  0
  148.1150  160.6826  132.7122 H   0  0  0  0  0  0  0  0  0  0  0  0
  150.9944  159.5841  131.4901 H   0  0  0  0  0  0  0  0  0  0  0  0
  149.9896  158.9208  130.1522 H   0  0  0  0  0  0  0  0  0  0  0  0
  149.8337  156.8211  131.6422 H   0  0  0  0  0  0  0  0  0  0  0  0
  1  2  1  0
  2  3  1  0
  3  4  1  0
  4  5  2  0
  4  6  1  0
  6  7  1  0
  7  8  1  0
  8  9  1  0
  8 10  2  0
  7 11  2  0
 11 12  1  0
 12 13  2  0
 13 14  1  0
 14 15  2  0
 15 16  1  0
 16 17  1  0
 17 18  3  0
 15 19  1  0
 19 20  2  0
 20  6  1  0
 20 12  1  0
  1 21  1  0
  1 22  1  0
  1 23  1  0
  2 24  1  0
  2 25  1  0
  9 26  1  0
 11 27  1  0
 13 28  1  0
 14 29  1  0
 16 30  1  0
 16 31  1  0
 19 32  1  0
M  CHG  1   9  -1
M  END
>  <UniqueID>  (18) 
17

>  <SMILES>  (18) 
CCOC(=O)n1c(C([NH-])=O)cc2ccc(CC#N)cc21

>  <Energy>  (18) 
65.08932400894072

>  <Genealogy>  (18) 
CCOC(=O)n1c(C([NH-])=O)cc2ccc(CC#N)cc21 (protonated)
CCOC(=O)n1c(C([NH-])=O)cc2ccc(CC#N)cc21 (3D coordinates assigned)
CCOC(=O)n1c(C([NH-])=O)cc2ccc(CC#N)cc21 (optimized conformer: 65.08932400894072 kcal/mol)

>  <smiles>  (18) 
CCOC(=O)n1c(C(N)=O)cc2ccc(CC#N)cc21

>  <score_type>  (18) 
oracle

>  <origin>  (18) 
adg

>  <m_score__min__energy>  (18) 
-6.5

>  <m_primary>  (18) 
energy

$$$$
18:0
     RDKit          3D

 26 27  0  0  0  0  0  0  0  0999 V2000
  149.8710  160.4860  131.1010 C   0  0  0  0  0  0  0  0  0  0  0  0
  149.5670  159.7040  132.2940 N   0  0  0  0  0  0  0  0  0  0  0  0
  148.2370  159.2820  132.6500 C   0  0  0  0  0  0  0  0  0  0  0  0
  147.8530  157.9140  132.5990 C   0  0  0  0  0  0  0  0  0  0  0  0
  146.5540  157.5190  132.9630 C   0  0  0  0  0  0  0  0  0  0  0  0
  145.6590  158.5060  133.3630 C   0  0  0  0  0  0  0  0  0  0  0  0
  144.3560  158.3970  133.7900 C   0  0  0  0  0  0  0  0  0  0  0  0
  143.9500  159.7000  134.0730 C   0  0  0  0  0  0  0  0  0  0  0  0
  142.5740  160.0510  134.4810 C   0  0  0  0  0  0  0  0  0  0  0  0
  141.7560  160.8830  133.6620 N   0  0  0  0  0  0  0  0  0  0  0  0
  142.0970  159.5680  135.5430 O   0  0  0  0  0  0  0  0  0  0  0  0
  144.9660  160.5800  133.8390 N   0  0  0  0  0  0  0  0  0  0  0  0
  144.9800  161.9920  134.0980 C   0  0  0  0  0  0  0  0  0  0  0  0
  145.8560  162.4920  134.8520 O   0  0  0  0  0  0  0  0  0  0  0  0
  144.0110  162.8170  133.5410 O   0  0  0  0  0  0  0  0  0  0  0  0
  146.0050  159.8320  133.4020 C   0  0  0  0  0  0  0  0  0  0  0  0
  147.2970  160.2510  133.0630 C   0  0  0  0  0  0  0  0  0  0  0  0
  150.2548  161.4733  131.3977 H   0  0  0  0  0  0  0  0  0  0  0  0
  150.6309  159.9618  130.5028 H   0  0  0  0  0  0  0  0  0  0  0  0
  148.9566  160.6127  130.5028 H   0  0  0  0  0  0  0  0  0  0  0  0
  150.3630  159.4420  132.9180 H   0  0  0  0  0  0  0  0  0  0  0  0
  148.5802  157.1566  132.2712 H   0  0  0  0  0  0  0  0  0  0  0  0
  146.2542  156.4611  132.9325 H   0  0  0  0  0  0  0  0  0  0  0  0
  143.7609  157.4770  133.8874 H   0  0  0  0  0  0  0  0  0  0  0  0
  142.1250  161.7760  133.2670 H   0  0  0  0  0  0  0  0  0  0  0  0
  147.5743  161.3141  133.1174 H   0  0  0  0  0  0  0  0  0  0  0  0
  1  2  1  0
  2  3  1  0
  3  4  2  0
  4  5  1  0
  5  6  2  0
  6  7  1  0
  7  8  2  0
  8  9  1  0
  9 10  1  0
  9 11  2  0
  8 12  1  0
 12 13  1  0
 13 14  2  0
 13 15  1  0
 12 16  1  0
 16 17  2  0
 17  3  1  0
 16  6  1  0
  1 18  1  0
  1 19  1  0
  1 20  1  0
  2 21  1  0
  4 22  1  0
  5 23  1  0
  7 24  1  0
 10 25  1  0
 17 26  1  0
M  CHG  2  10  -1  15  -1
M  END
>  <UniqueID>  (19) 
18

>  <SMILES>  (19) 
CNc1ccc2cc(C([NH-])=O)n(C(=O)[O-])c2c1

>  <Energy>  (19) 
65.09262202646502

>  <Genealogy>  (19) 
CNc1ccc2cc(C([NH-])=O)n(C(=O)[O-])c2c1 (protonated)
CNc1ccc2cc(C([NH-])=O)n(C(=O)[O-])c2c1 (3D coordinates assigned)
CNc1ccc2cc(C([NH-])=O)n(C(=O)[O-])c2c1 (optimized conformer: 65.09262202646502 kcal/mol)

>  <smiles>  (19) 
CNc1ccc2cc(C(N)=O)n(C(=O)O)c2c1

>  <score_type>  (19) 
oracle

>  <origin>  (19) 
adg

>  <m_score__min__energy>  (19) 
-6.1200000000000001

>  <m_primary>  (19) 
energy

$$$$
19:0
     RDKit          3D

 39 41  0  0  0  0  0  0  0  0999 V2000
  138.3590  158.8720  131.4380 C   0  0  0  0  0  0  0  0  0  0  0  0
  138.0030  158.2320  132.6570 O   0  0  0  0  0  0  0  0  0  0  0  0
  138.8810  157.3930  133.3540 C   0  0  0  0  0  0  0  0  0  0  0  0
  138.8360  156.1440  133.1740 O   0  0  0  0  0  0  0  0  0  0  0  0
  139.8590  157.9720  134.3000 C   0  0  0  0  0  0  0  0  0  0  0  0
  139.5220  158.1640  135.6520 C   0  0  0  0  0  0  0  0  0  0  0  0
  140.4470  158.7150  136.5400 C   0  0  0  0  0  0  0  0  0  0  0  0
  141.7190  159.0800  136.0940 C   0  0  0  0  0  0  0  0  0  0  0  0
  142.0810  158.8970  134.7480 C   0  0  0  0  0  0  0  0  0  0  0  0
  143.4340  159.2830  134.2740 C   0  0  0  0  0  0  0  0  0  0  0  0
  143.8010  160.6520  134.1890 C   0  0  0  0  0  0  0  0  0  0  0  0
  145.0730  161.0290  133.7300 C   0  0  0  0  0  0  0  0  0  0  0  0
  145.9630  160.0220  133.3710 C   0  0  0  0  0  0  0  0  0  0  0  0
  147.2420  160.1050  132.8680 C   0  0  0  0  0  0  0  0  0  0  0  0
  147.6510  158.7880  132.6750 C   0  0  0  0  0  0  0  0  0  0  0  0
  148.9990  158.4130  132.1990 C   0  0  0  0  0  0  0  0  0  0  0  0
  149.4870  157.0810  132.3460 N   0  0  0  0  0  0  0  0  0  0  0  0
  149.7460  159.2890  131.6880 O   0  0  0  0  0  0  0  0  0  0  0  0
  146.6620  157.9230  133.0440 N   0  0  0  0  0  0  0  0  0  0  0  0
  146.6570  156.4920  132.9290 C   0  0  0  0  0  0  0  0  0  0  0  0
  147.3520  155.8520  131.8590 N   0  0  0  0  0  0  0  0  0  0  0  0
  146.0440  155.7940  133.7790 O   0  0  0  0  0  0  0  0  0  0  0  0
  145.6360  158.6940  133.4640 C   0  0  0  0  0  0  0  0  0  0  0  0
  144.3690  158.2890  133.8970 C   0  0  0  0  0  0  0  0  0  0  0  0
  141.1420  158.3430  133.8580 C   0  0  0  0  0  0  0  0  0  0  0  0
  138.8829  159.8139  131.6578 H   0  0  0  0  0  0  0  0  0  0  0  0
  139.0196  158.2120  130.8567 H   0  0  0  0  0  0  0  0  0  0  0  0
  137.4498  159.0851  130.8567 H   0  0  0  0  0  0  0  0  0  0  0  0
  138.5227  157.8780  136.0119 H   0  0  0  0  0  0  0  0  0  0  0  0
  140.1731  158.8623  137.5951 H   0  0  0  0  0  0  0  0  0  0  0  0
  142.4423  159.5135  136.8004 H   0  0  0  0  0  0  0  0  0  0  0  0
  143.0794  161.4271  134.4866 H   0  0  0  0  0  0  0  0  0  0  0  0
  145.3574  162.0891  133.6564 H   0  0  0  0  0  0  0  0  0  0  0  0
  147.8189  161.0187  132.6621 H   0  0  0  0  0  0  0  0  0  0  0  0
  149.6600  156.4770  131.5120 H   0  0  0  0  0  0  0  0  0  0  0  0
  147.8110  156.4180  131.1110 H   0  0  0  0  0  0  0  0  0  0  0  0
  147.3740  154.8110  131.7920 H   0  0  0  0  0  0  0  0  0  0  0  0
  144.1051  157.2221  133.9435 H   0  0  0  0  0  0  0  0  0  0  0  0
  141.4150  158.1981  132.8023 H   0  0  0  0  0  0  0  0  0  0  0  0
  1  2  1  0
  2  3  1  0
  3  4  2  0
  3  5  1  0
  5  6  2  0
  6  7  1  0
  7  8  2  0
  8  9  1  0
  9 10  1  0
 10 11  2  0
 11 12  1  0
 12 13  2  0
 13 14  1  0
 14 15  2  0
 15 16  1  0
 16 17  1  0
 16 18  2  0
 15 19  1  0
 19 20  1  0
 20 21  1  0
 20 22  2  0
 19 23  1  0
 23 24  2  0
  9 25  2  0
 25  5  1  0
 24 10  1  0
 23 13  1  0
  1 26  1  0
  1 27  1  0
  1 28  1  0
  6 29  1  0
  7 30  1  0
  8 31  1  0
 11 32  1  0
 12 33  1  0
 14 34  1  0
 17 35  1  0
 21 36  1  0
 21 37  1  0
 24 38  1  0
 25 39  1  0
M  CHG  1  17  -1
M  END
>  <UniqueID>  (20) 
19

>  <SMILES>  (20) 
COC(=O)c1cccc(-c2ccc3cc(C([NH-])=O)n(C(N)=O)c3c2)c1

>  <Energy>  (20) 
83.76854816849577

>  <Genealogy>  (20) 
COC(=O)c1cccc(-c2ccc3cc(C([NH-])=O)n(C(N)=O)c3c2)c1 (protonated)
COC(=O)c1cccc(-c2ccc3cc(C([NH-])=O)n(C(N)=O)c3c2)c1 (3D coordinates assigned)
COC(=O)c1cccc(-c2ccc3cc(C([NH-])=O)n(C(N)=O)c3c2)c1 (optimized conformer: 83.76854816849577 kcal/mol)

>  <smiles>  (20) 
COC(=O)c1cccc(-c2ccc3cc(C(N)=O)n(C(N)=O)c3c2)c1

>  <score_type>  (20) 
oracle

>  <origin>  (20) 
adg

>  <m_score__min__energy>  (20) 
-8.3599999999999994

>  <m_primary>  (20) 
energy

$$$$
20:0
     RDKit          3D

 39 41  0  0  0  0  0  0  0  0999 V2000
  139.5940  156.6020  133.0410 C   0  0  0  0  0  0  0  0  0  0  0  0
  139.4630  158.0070  132.5120 C   0  0  0  0  0  0  0  0  0  0  0  0
  138.6400  158.2350  131.3940 C   0  0  0  0  0  0  0  0  0  0  0  0
  138.4670  159.5240  130.8880 C   0  0  0  0  0  0  0  0  0  0  0  0
  139.1060  160.6040  131.4940 C   0  0  0  0  0  0  0  0  0  0  0  0
  139.9200  160.3990  132.6090 C   0  0  0  0  0  0  0  0  0  0  0  0
  140.1130  159.1070  133.1320 C   0  0  0  0  0  0  0  0  0  0  0  0
  140.9820  158.9480  134.3630 C   0  0  0  0  0  0  0  0  0  0  0  0
  142.4170  159.3020  134.0690 C   0  0  0  0  0  0  0  0  0  0  0  0
  142.8110  160.6610  133.9970 C   0  0  0  0  0  0  0  0  0  0  0  0
  144.1480  161.0070  133.7400 C   0  0  0  0  0  0  0  0  0  0  0  0
  145.0620  159.9770  133.5460 C   0  0  0  0  0  0  0  0  0  0  0  0
  146.4190  160.0290  133.3180 C   0  0  0  0  0  0  0  0  0  0  0  0
  146.8260  158.7020  133.2180 C   0  0  0  0  0  0  0  0  0  0  0  0
  148.2120  158.3020  132.9050 C   0  0  0  0  0  0  0  0  0  0  0  0
  148.4860  157.2120  132.0240 N   0  0  0  0  0  0  0  0  0  0  0  0
  149.1700  158.9680  133.3800 O   0  0  0  0  0  0  0  0  0  0  0  0
  145.7700  157.8590  133.3900 N   0  0  0  0  0  0  0  0  0  0  0  0
  145.8020  156.4240  133.4810 C   0  0  0  0  0  0  0  0  0  0  0  0
  146.0550  155.6360  132.3190 N   0  0  0  0  0  0  0  0  0  0  0  0
  145.6190  155.8530  134.5890 O   0  0  0  0  0  0  0  0  0  0  0  0
  144.6950  158.6560  133.5870 C   0  0  0  0  0  0  0  0  0  0  0  0
  143.3730  158.2830  133.8580 C   0  0  0  0  0  0  0  0  0  0  0  0
  139.5921  156.6226  134.1408 H   0  0  0  0  0  0  0  0  0  0  0  0
  138.7485  155.9955  132.6842 H   0  0  0  0  0  0  0  0  0  0  0  0
  140.5370  156.1623  132.6842 H   0  0  0  0  0  0  0  0  0  0  0  0
  138.1275  157.3884  130.9137 H   0  0  0  0  0  0  0  0  0  0  0  0
  137.8254  159.6878  130.0096 H   0  0  0  0  0  0  0  0  0  0  0  0
  138.9687  161.6191  131.0931 H   0  0  0  0  0  0  0  0  0  0  0  0
  140.4166  161.2576  133.0846 H   0  0  0  0  0  0  0  0  0  0  0  0
  140.6047  159.6103  135.1561 H   0  0  0  0  0  0  0  0  0  0  0  0
  140.9421  157.8963  134.6830 H   0  0  0  0  0  0  0  0  0  0  0  0
  142.0623  161.4533  134.1438 H   0  0  0  0  0  0  0  0  0  0  0  0
  144.4623  162.0601  133.6937 H   0  0  0  0  0  0  0  0  0  0  0  0
  147.0474  160.9279  133.2330 H   0  0  0  0  0  0  0  0  0  0  0  0
  149.4720  156.9190  131.8430 H   0  0  0  0  0  0  0  0  0  0  0  0
  147.7210  156.7470  131.4870 H   0  0  0  0  0  0  0  0  0  0  0  0
  146.2060  156.0840  131.3890 H   0  0  0  0  0  0  0  0  0  0  0  0
  143.0855  157.2223  133.9055 H   0  0  0  0  0  0  0  0  0  0  0  0
  1  2  1  0
  2  3  2  0
  3  4  1  0
  4  5  2  0
  5  6  1  0
  6  7  2  0
  7  8  1  0
  8  9  1  0
  9 10  2  0
 10 11  1  0
 11 12  2  0
 12 13  1  0
 13 14  2  0
 14 15  1  0
 15 16  1  0
 15 17  2  0
 14 18  1  0
 18 19  1  0
 19 20  1  0
 19 21  2  0
 18 22  1  0
 22 23  2  0
  7  2  1  0
 23  9  1  0
 22 12  1  0
  1 24  1  0
  1 25  1  0
  1 26  1  0
  3 27  1  0
  4 28  1  0
  5 29  1  0
  6 30  1  0
  8 31  1  0
  8 32  1  0
 10 33  1  0
 11 34  1  0
 13 35  1  0
 16 36  1  0
 16 37  1  0
 20 38  1  0
 23 39  1  0
M  CHG  1  20  -1
M  END
>  <UniqueID>  (21) 
20

>  <SMILES>  (21) 
Cc1ccccc1Cc1ccc2cc(C(N)=O)n(C([NH-])=O)c2c1

>  <Energy>  (21) 
81.09047449580343

>  <Genealogy>  (21) 
Cc1ccccc1Cc1ccc2cc(C(N)=O)n(C([NH-])=O)c2c1 (protonated)
Cc1ccccc1Cc1ccc2cc(C(N)=O)n(C([NH-])=O)c2c1 (3D coordinates assigned)
Cc1ccccc1Cc1ccc2cc(C(N)=O)n(C([NH-])=O)c2c1 (optimized conformer: 81.09047449580343 kcal/mol)

>  <smiles>  (21) 
Cc1ccccc1Cc1ccc2cc(C(N)=O)n(C(N)=O)c2c1

>  <score_type>  (21) 
oracle

>  <origin>  (21) 
adg

>  <m_score__min__energy>  (21) 
-8.8200000000000003

>  <m_primary>  (21) 
energy

$$$$
21:0
     RDKit          3D

 39 40  0  0  0  0  0  0  0  0999 V2000
  145.5130  162.6430  134.7830 C   0  0  0  0  0  0  0  0  0  0  0  0
  144.4340  161.9780  133.9880 C   0  0  0  0  0  0  0  0  0  0  0  0
  143.6050  162.6890  133.3590 O   0  0  0  0  0  0  0  0  0  0  0  0
  144.3860  160.5480  133.8670 N   0  0  0  0  0  0  0  0  0  0  0  0
  143.3210  159.7210  134.0690 C   0  0  0  0  0  0  0  0  0  0  0  0
  141.9270  160.1470  134.3090 C   0  0  0  0  0  0  0  0  0  0  0  0
  141.2330  160.9550  133.3620 N   0  0  0  0  0  0  0  0  0  0  0  0
  141.3260  159.7600  135.3470 O   0  0  0  0  0  0  0  0  0  0  0  0
  143.7100  158.3900  133.9400 C   0  0  0  0  0  0  0  0  0  0  0  0
  145.0530  158.4270  133.6420 C   0  0  0  0  0  0  0  0  0  0  0  0
  145.9510  157.3890  133.4120 C   0  0  0  0  0  0  0  0  0  0  0  0
  147.2900  157.7250  133.1470 C   0  0  0  0  0  0  0  0  0  0  0  0
  147.7070  159.0800  133.1300 C   0  0  0  0  0  0  0  0  0  0  0  0
  149.1480  159.4260  132.8560 C   0  0  0  0  0  0  0  0  0  0  0  0
  149.5840  159.1910  131.3890 C   0  0  0  0  0  0  0  0  0  0  0  0
  149.8310  160.4090  130.5720 N   0  0  0  0  0  0  0  0  0  0  0  0
  149.9910  160.1230  129.1340 C   0  0  0  0  0  0  0  0  0  0  0  0
  148.8310  161.4690  130.7940 C   0  0  0  0  0  0  0  0  0  0  0  0
  146.7610  160.1060  133.3500 C   0  0  0  0  0  0  0  0  0  0  0  0
  145.4350  159.7420  133.6010 C   0  0  0  0  0  0  0  0  0  0  0  0
  145.3083  162.5168  135.8564 H   0  0  0  0  0  0  0  0  0  0  0  0
  146.4832  162.1860  134.5386 H   0  0  0  0  0  0  0  0  0  0  0  0
  145.5408  163.7151  134.5386 H   0  0  0  0  0  0  0  0  0  0  0  0
  141.6500  161.8430  133.0060 H   0  0  0  0  0  0  0  0  0  0  0  0
  143.0772  157.4973  134.0526 H   0  0  0  0  0  0  0  0  0  0  0  0
  145.6235  156.3392  133.4368 H   0  0  0  0  0  0  0  0  0  0  0  0
  148.0222  156.9280  132.9507 H   0  0  0  0  0  0  0  0  0  0  0  0
  149.3003  160.4886  133.0961 H   0  0  0  0  0  0  0  0  0  0  0  0
  149.7599  158.7587  133.4807 H   0  0  0  0  0  0  0  0  0  0  0  0
  150.5143  158.6043  131.4057 H   0  0  0  0  0  0  0  0  0  0  0  0
  148.7351  158.6826  130.9085 H   0  0  0  0  0  0  0  0  0  0  0  0
  150.7490  160.7940  130.8970 H   0  0  0  0  0  0  0  0  0  0  0  0
  150.5245  159.1695  129.0069 H   0  0  0  0  0  0  0  0  0  0  0  0
  149.0001  160.0546  128.6613 H   0  0  0  0  0  0  0  0  0  0  0  0
  150.5677  160.9316  128.6613 H   0  0  0  0  0  0  0  0  0  0  0  0
  148.6894  161.6190  131.8745 H   0  0  0  0  0  0  0  0  0  0  0  0
  149.1820  162.4058  130.3366 H   0  0  0  0  0  0  0  0  0  0  0  0
  147.8754  161.1731  130.3366 H   0  0  0  0  0  0  0  0  0  0  0  0
  147.0603  161.1642  133.3244 H   0  0  0  0  0  0  0  0  0  0  0  0
  1  2  1  0
  2  3  2  0
  2  4  1  0
  4  5  1  0
  5  6  1  0
  6  7  1  0
  6  8  2  0
  5  9  2  0
  9 10  1  0
 10 11  2  0
 11 12  1  0
 12 13  2  0
 13 14  1  0
 14 15  1  0
 15 16  1  0
 16 17  1  0
 16 18  1  0
 13 19  1  0
 19 20  2  0
 20  4  1  0
 20 10  1  0
  1 21  1  0
  1 22  1  0
  1 23  1  0
  7 24  1  0
  9 25  1  0
 11 26  1  0
 12 27  1  0
 14 28  1  0
 14 29  1  0
 15 30  1  0
 15 31  1  0
 16 32  1  0
 17 33  1  0
 17 34  1  0
 17 35  1  0
 18 36  1  0
 18 37  1  0
 18 38  1  0
 19 39  1  0
M  CHG  2   7  -1  16   1
M  END
>  <UniqueID>  (22) 
21

>  <SMILES>  (22) 
CC(=O)n1c(C([NH-])=O)cc2ccc(CC[NH+](C)C)cc21

>  <Energy>  (22) 
80.75166602219633

>  <Genealogy>  (22) 
CC(=O)n1c(C([NH-])=O)cc2ccc(CC[NH+](C)C)cc21 (protonated)
CC(=O)n1c(C([NH-])=O)cc2ccc(CC[NH+](C)C)cc21 (3D coordinates assigned)
CC(=O)n1c(C([NH-])=O)cc2ccc(CC[NH+](C)C)cc21 (optimized conformer: 80.75166602219633 kcal/mol)

>  <smiles>  (22) 
CC(=O)n1c(C(N)=O)cc2ccc(CCN(C)C)cc21

>  <score_type>  (22) 
oracle

>  <origin>  (22) 
adg

>  <m_score__min__energy>  (22) 
-6.3099999999999996

>  <m_primary>  (22) 
energy

$$$$
22:0
     RDKit          3D

 41 42  0  0  0  0  0  0  0  0999 V2000
  143.9600  154.7290  135.0640 C   0  0  0  0  0  0  0  0  0  0  0  0
  143.6530  154.9010  133.6360 N   0  0  0  0  0  0  0  0  0  0  0  0
  142.3520  154.2940  133.3100 C   0  0  0  0  0  0  0  0  0  0  0  0
  144.7100  154.3170  132.8310 C   0  0  0  0  0  0  0  0  0  0  0  0
  144.5560  154.1740  131.6250 O   0  0  0  0  0  0  0  0  0  0  0  0
  145.9830  153.8120  133.4690 C   0  0  0  0  0  0  0  0  0  0  0  0
  147.2260  154.0940  132.6080 C   0  0  0  0  0  0  0  0  0  0  0  0
  148.2660  154.9920  133.2960 C   0  0  0  0  0  0  0  0  0  0  0  0
  147.8600  156.4440  133.2860 C   0  0  0  0  0  0  0  0  0  0  0  0
  148.8450  157.4540  133.1490 C   0  0  0  0  0  0  0  0  0  0  0  0
  148.4830  158.8120  133.1550 C   0  0  0  0  0  0  0  0  0  0  0  0
  147.1370  159.1290  133.3090 C   0  0  0  0  0  0  0  0  0  0  0  0
  146.5130  160.3540  133.3280 C   0  0  0  0  0  0  0  0  0  0  0  0
  145.1580  160.0760  133.5020 C   0  0  0  0  0  0  0  0  0  0  0  0
  144.1290  161.1250  133.6640 C   0  0  0  0  0  0  0  0  0  0  0  0
  142.7590  160.8600  133.3760 N   0  0  0  0  0  0  0  0  0  0  0  0
  144.4580  162.2560  134.1130 O   0  0  0  0  0  0  0  0  0  0  0  0
  144.9510  158.7300  133.5760 N   0  0  0  0  0  0  0  0  0  0  0  0
  143.6990  158.0330  133.6730 C   0  0  0  0  0  0  0  0  0  0  0  0
  142.9770  157.8780  132.6530 O   0  0  0  0  0  0  0  0  0  0  0  0
  143.2840  157.4990  134.8870 O   0  0  0  0  0  0  0  0  0  0  0  0
  146.1730  158.1650  133.4600 C   0  0  0  0  0  0  0  0  0  0  0  0
  146.5020  156.8050  133.4340 C   0  0  0  0  0  0  0  0  0  0  0  0
  143.1581  155.1783  135.6682 H   0  0  0  0  0  0  0  0  0  0  0  0
  144.0368  153.6565  135.2959 H   0  0  0  0  0  0  0  0  0  0  0  0
  144.9148  155.2236  135.2959 H   0  0  0  0  0  0  0  0  0  0  0  0
  143.5850  155.9280  133.4450 H   0  0  0  0  0  0  0  0  0  0  0  0
  141.8199  154.0457  134.2401 H   0  0  0  0  0  0  0  0  0  0  0  0
  141.7523  155.0053  132.7231 H   0  0  0  0  0  0  0  0  0  0  0  0
  142.5118  153.3775  132.7231 H   0  0  0  0  0  0  0  0  0  0  0  0
  146.1094  154.3065  134.4434 H   0  0  0  0  0  0  0  0  0  0  0  0
  145.8923  152.7211  133.5775 H   0  0  0  0  0  0  0  0  0  0  0  0
  147.7040  153.1338  132.3640 H   0  0  0  0  0  0  0  0  0  0  0  0
  146.8805  154.6317  131.7127 H   0  0  0  0  0  0  0  0  0  0  0  0
  148.3825  154.6639  134.3394 H   0  0  0  0  0  0  0  0  0  0  0  0
  149.2109  154.9016  132.7401 H   0  0  0  0  0  0  0  0  0  0  0  0
  149.9024  157.1724  133.0370 H   0  0  0  0  0  0  0  0  0  0  0  0
  149.2412  159.6008  133.0413 H   0  0  0  0  0  0  0  0  0  0  0  0
  146.9831  161.3434  133.2273 H   0  0  0  0  0  0  0  0  0  0  0  0
  142.4810  160.0460  132.7860 H   0  0  0  0  0  0  0  0  0  0  0  0
  145.7217  156.0352  133.5266 H   0  0  0  0  0  0  0  0  0  0  0  0
  1  2  1  0
  2  3  1  0
  2  4  1  0
  4  5  2  0
  4  6  1  0
  6  7  1  0
  7  8  1  0
  8  9  1  0
  9 10  2  0
 10 11  1  0
 11 12  2  0
 12 13  1  0
 13 14  2  0
 14 15  1  0
 15 16  1  0
 15 17  2  0
 14 18  1  0
 18 19  1  0
 19 20  2  0
 19 21  1  0
 18 22  1  0
 22 23  2  0
 23  9  1  0
 22 12  1  0
  1 24  1  0
  1 25  1  0
  1 26  1  0
  2 27  1  0
  3 28  1  0
  3 29  1  0
  3 30  1  0
  6 31  1  0
  6 32  1  0
  7 33  1  0
  7 34  1  0
  8 35  1  0
  8 36  1  0
 10 37  1  0
 11 38  1  0
 13 39  1  0
 16 40  1  0
 23 41  1  0
M  CHG  3   2   1  16  -1  21  -1
M  END
>  <UniqueID>  (23) 
22

>  <SMILES>  (23) 
C[NH+](C)C(=O)CCCc1ccc2cc(C([NH-])=O)n(C(=O)[O-])c2c1

>  <Energy>  (23) 
73.77584706729637

>  <Genealogy>  (23) 
C[NH+](C)C(=O)CCCc1ccc2cc(C([NH-])=O)n(C(=O)[O-])c2c1 (protonated)
C[NH+](C)C(=O)CCCc1ccc2cc(C([NH-])=O)n(C(=O)[O-])c2c1 (3D coordinates assigned)
C[NH+](C)C(=O)CCCc1ccc2cc(C([NH-])=O)n(C(=O)[O-])c2c1 (optimized conformer: 73.77584706729637 kcal/mol)

>  <smiles>  (23) 
CN(C)C(=O)CCCc1ccc2cc(C(N)=O)n(C(=O)O)c2c1

>  <score_type>  (23) 
oracle

>  <origin>  (23) 
adg

>  <m_score__min__energy>  (23) 
-5.7999999999999998

>  <m_primary>  (23) 
energy

$$$$
23:0
     RDKit          3D

 38 39  0  0  0  0  0  0  0  0999 V2000
  138.7480  160.1240  131.0900 C   0  0  0  0  0  0  0  0  0  0  0  0
  138.5040  158.6920  131.5510 C   0  0  0  0  0  0  0  0  0  0  0  0
  139.6070  158.2150  132.3170 O   0  0  0  0  0  0  0  0  0  0  0  0
  139.5550  157.0610  133.1070 C   0  0  0  0  0  0  0  0  0  0  0  0
  139.1910  155.9580  132.6160 O   0  0  0  0  0  0  0  0  0  0  0  0
  139.9890  157.1310  134.5400 C   0  0  0  0  0  0  0  0  0  0  0  0
  140.2950  158.5710  134.9660 C   0  0  0  0  0  0  0  0  0  0  0  0
  141.6650  159.0070  134.5140 C   0  0  0  0  0  0  0  0  0  0  0  0
  141.9110  160.3660  134.1970 C   0  0  0  0  0  0  0  0  0  0  0  0
  143.1710  160.7740  133.7290 C   0  0  0  0  0  0  0  0  0  0  0  0
  144.1620  159.8070  133.5920 C   0  0  0  0  0  0  0  0  0  0  0  0
  145.4510  159.9220  133.1270 C   0  0  0  0  0  0  0  0  0  0  0  0
  145.9800  158.6360  133.1860 C   0  0  0  0  0  0  0  0  0  0  0  0
  147.3790  158.3170  132.8370 C   0  0  0  0  0  0  0  0  0  0  0  0
  147.6890  157.3260  131.8580 N   0  0  0  0  0  0  0  0  0  0  0  0
  148.3160  158.8890  133.4570 O   0  0  0  0  0  0  0  0  0  0  0  0
  145.0520  157.7530  133.6550 N   0  0  0  0  0  0  0  0  0  0  0  0
  145.1730  156.3230  133.7460 C   0  0  0  0  0  0  0  0  0  0  0  0
  145.5190  155.5570  132.5940 N   0  0  0  0  0  0  0  0  0  0  0  0
  144.9600  155.7370  134.8400 O   0  0  0  0  0  0  0  0  0  0  0  0
  143.9440  158.4880  133.9040 C   0  0  0  0  0  0  0  0  0  0  0  0
  142.6920  158.0500  134.3520 C   0  0  0  0  0  0  0  0  0  0  0  0
  138.8594  160.7778  131.9676 H   0  0  0  0  0  0  0  0  0  0  0  0
  139.6657  160.1630  130.4848 H   0  0  0  0  0  0  0  0  0  0  0  0
  137.8950  160.4648  130.4848 H   0  0  0  0  0  0  0  0  0  0  0  0
  137.5948  158.6616  132.1694 H   0  0  0  0  0  0  0  0  0  0  0  0
  138.3845  158.0507  130.6653 H   0  0  0  0  0  0  0  0  0  0  0  0
  139.1848  156.7334  135.1766 H   0  0  0  0  0  0  0  0  0  0  0  0
  140.9077  156.5363  134.6512 H   0  0  0  0  0  0  0  0  0  0  0  0
  139.5435  159.2411  134.5231 H   0  0  0  0  0  0  0  0  0  0  0  0
  140.2657  158.6171  136.0646 H   0  0  0  0  0  0  0  0  0  0  0  0
  141.1081  161.1081  134.3185 H   0  0  0  0  0  0  0  0  0  0  0  0
  143.3684  161.8267  133.4783 H   0  0  0  0  0  0  0  0  0  0  0  0
  145.9565  160.8360  132.7818 H   0  0  0  0  0  0  0  0  0  0  0  0
  146.9450  156.7210  131.4480 H   0  0  0  0  0  0  0  0  0  0  0  0
  148.6840  157.1390  131.5990 H   0  0  0  0  0  0  0  0  0  0  0  0
  145.6950  156.0200  131.6760 H   0  0  0  0  0  0  0  0  0  0  0  0
  142.5122  156.9874  134.5724 H   0  0  0  0  0  0  0  0  0  0  0  0
  1  2  1  0
  2  3  1  0
  3  4  1  0
  4  5  2  0
  4  6  1  0
  6  7  1  0
  7  8  1  0
  8  9  2  0
  9 10  1  0
 10 11  2  0
 11 12  1  0
 12 13  2  0
 13 14  1  0
 14 15  1  0
 14 16  2  0
 13 17  1  0
 17 18  1  0
 18 19  1  0
 18 20  2  0
 17 21  1  0
 21 22  2  0
 22  8  1  0
 21 11  1  0
  1 23  1  0
  1 24  1  0
  1 25  1  0
  2 26  1  0
  2 27  1  0
  6 28  1  0
  6 29  1  0
  7 30  1  0
  7 31  1  0
  9 32  1  0
 10 33  1  0
 12 34  1  0
 15 35  1  0
 15 36  1  0
 19 37  1  0
 22 38  1  0
M  CHG  1  19  -1
M  END
>  <UniqueID>  (24) 
23

>  <SMILES>  (24) 
CCOC(=O)CCc1ccc2cc(C(N)=O)n(C([NH-])=O)c2c1

>  <Energy>  (24) 
69.52545227526619

>  <Genealogy>  (24) 
CCOC(=O)CCc1ccc2cc(C(N)=O)n(C([NH-])=O)c2c1 (protonated)
CCOC(=O)CCc1ccc2cc(C(N)=O)n(C([NH-])=O)c2c1 (3D coordinates assigned)
CCOC(=O)CCc1ccc2cc(C(N)=O)n(C([NH-])=O)c2c1 (optimized conformer: 69.52545227526619 kcal/mol)

>  <smiles>  (24) 
CCOC(=O)CCc1ccc2cc(C(N)=O)n(C(N)=O)c2c1

>  <score_type>  (24) 
oracle

>  <origin>  (24) 
adg

>  <m_score__min__energy>  (24) 
-6.6900000000000004

>  <m_primary>  (24) 
energy

$$$$
24:0
     RDKit          3D

 41 43  0  0  0  0  0  0  0  0999 V2000
  143.1030  153.1960  133.3900 C   0  0  0  0  0  0  0  0  0  0  0  0
  142.0090  154.2130  133.6690 C   0  0  0  0  0  0  0  0  0  0  0  0
  142.5960  155.4410  134.0830 O   0  0  0  0  0  0  0  0  0  0  0  0
  143.2170  156.3210  133.1920 C   0  0  0  0  0  0  0  0  0  0  0  0
  143.8940  155.8740  132.2260 O   0  0  0  0  0  0  0  0  0  0  0  0
  143.0580  157.7390  133.3640 N   0  0  0  0  0  0  0  0  0  0  0  0
  141.9010  158.4390  133.5430 C   0  0  0  0  0  0  0  0  0  0  0  0
  140.5310  157.8920  133.4510 C   0  0  0  0  0  0  0  0  0  0  0  0
  140.3120  156.6350  132.8150 N   0  0  0  0  0  0  0  0  0  0  0  0
  139.5560  158.5030  133.9610 O   0  0  0  0  0  0  0  0  0  0  0  0
  142.1750  159.7890  133.7490 C   0  0  0  0  0  0  0  0  0  0  0  0
  143.5440  159.9000  133.6810 C   0  0  0  0  0  0  0  0  0  0  0  0
  144.3620  161.0160  133.8330 C   0  0  0  0  0  0  0  0  0  0  0  0
  145.7510  160.8330  133.7470 C   0  0  0  0  0  0  0  0  0  0  0  0
  146.2950  159.5460  133.5100 C   0  0  0  0  0  0  0  0  0  0  0  0
  147.7870  159.3520  133.4720 C   0  0  0  0  0  0  0  0  0  0  0  0
  148.3200  159.7020  132.1090 C   0  0  0  0  0  0  0  0  0  0  0  0
  148.7040  158.6880  131.2160 C   0  0  0  0  0  0  0  0  0  0  0  0
  149.2350  159.0160  129.9650 C   0  0  0  0  0  0  0  0  0  0  0  0
  149.3940  160.3550  129.6010 C   0  0  0  0  0  0  0  0  0  0  0  0
  149.0260  161.3700  130.4890 C   0  0  0  0  0  0  0  0  0  0  0  0
  149.1890  162.6690  130.1360 F   0  0  0  0  0  0  0  0  0  0  0  0
  148.4950  161.0460  131.7410 C   0  0  0  0  0  0  0  0  0  0  0  0
  145.4360  158.4340  133.3730 C   0  0  0  0  0  0  0  0  0  0  0  0
  144.0550  158.6480  133.4470 C   0  0  0  0  0  0  0  0  0  0  0  0
  143.5064  152.8209  134.3421 H   0  0  0  0  0  0  0  0  0  0  0  0
  142.6857  152.3576  132.8129 H   0  0  0  0  0  0  0  0  0  0  0  0
  143.9088  153.6732  132.8129 H   0  0  0  0  0  0  0  0  0  0  0  0
  141.4203  154.3781  132.7546 H   0  0  0  0  0  0  0  0  0  0  0  0
  141.3516  153.8344  134.4656 H   0  0  0  0  0  0  0  0  0  0  0  0
  141.1100  155.9990  132.5930 H   0  0  0  0  0  0  0  0  0  0  0  0
  141.4494  160.5961  133.9282 H   0  0  0  0  0  0  0  0  0  0  0  0
  143.9325  162.0122  134.0152 H   0  0  0  0  0  0  0  0  0  0  0  0
  146.4230  161.6959  133.8646 H   0  0  0  0  0  0  0  0  0  0  0  0
  148.2576  160.0019  134.2244 H   0  0  0  0  0  0  0  0  0  0  0  0
  148.0185  158.2988  133.6893 H   0  0  0  0  0  0  0  0  0  0  0  0
  148.5865  157.6323  131.5019 H   0  0  0  0  0  0  0  0  0  0  0  0
  149.5280  158.2184  129.2664 H   0  0  0  0  0  0  0  0  0  0  0  0
  149.8090  160.6110  128.6150 H   0  0  0  0  0  0  0  0  0  0  0  0
  148.2132  161.8468  132.4405 H   0  0  0  0  0  0  0  0  0  0  0  0
  145.8421  157.4245  133.2121 H   0  0  0  0  0  0  0  0  0  0  0  0
  1  2  1  0
  2  3  1  0
  3  4  1  0
  4  5  2  0
  4  6  1  0
  6  7  1  0
  7  8  1  0
  8  9  1  0
  8 10  2  0
  7 11  2  0
 11 12  1  0
 12 13  2  0
 13 14  1  0
 14 15  2  0
 15 16  1  0
 16 17  1  0
 17 18  2  0
 18 19  1  0
 19 20  2  0
 20 21  1  0
 21 22  1  0
 21 23  2  0
 15 24  1  0
 24 25  2  0
 25  6  1  0
 25 12  1  0
 23 17  1  0
  1 26  1  0
  1 27  1  0
  1 28  1  0
  2 29  1  0
  2 30  1  0
  9 31  1  0
 11 32  1  0
 13 33  1  0
 14 34  1  0
 16 35  1  0
 16 36  1  0
 18 37  1  0
 19 38  1  0
 20 39  1  0
 23 40  1  0
 24 41  1  0
M  CHG  1   9  -1
M  END
>  <UniqueID>  (25) 
24

>  <SMILES>  (25) 
CCOC(=O)n1c(C([NH-])=O)cc2ccc(Cc3cccc(F)c3)cc21

>  <Energy>  (25) 
75.40107872566074

>  <Genealogy>  (25) 
CCOC(=O)n1c(C([NH-])=O)cc2ccc(Cc3cccc(F)c3)cc21 (protonated)
CCOC(=O)n1c(C([NH-])=O)cc2ccc(Cc3cccc(F)c3)cc21 (3D coordinates assigned)
CCOC(=O)n1c(C([NH-])=O)cc2ccc(Cc3cccc(F)c3)cc21 (optimized conformer: 75.40107872566074 kcal/mol)

>  <smiles>  (25) 
CCOC(=O)n1c(C(N)=O)cc2ccc(Cc3cccc(F)c3)cc21

>  <score_type>  (25) 
oracle

>  <origin>  (25) 
adg

>  <m_score__min__energy>  (25) 
-8.1199999999999992

>  <m_primary>  (25) 
energy

$$$$
25:0
     RDKit          3D

 32 34  0  0  0  0  0  0  0  0999 V2000
  149.4090  157.2170  132.5230 N   0  0  0  0  0  0  0  0  0  0  0  0
  148.7810  158.4290  132.1130 C   0  0  0  0  0  0  0  0  0  0  0  0
  149.3980  159.2120  131.3420 O   0  0  0  0  0  0  0  0  0  0  0  0
  147.4390  158.8000  132.6110 C   0  0  0  0  0  0  0  0  0  0  0  0
  147.0340  160.1160  132.8260 C   0  0  0  0  0  0  0  0  0  0  0  0
  145.7620  160.0270  133.3450 C   0  0  0  0  0  0  0  0  0  0  0  0
  144.8800  161.0320  133.7270 C   0  0  0  0  0  0  0  0  0  0  0  0
  143.6120  160.6510  134.1990 C   0  0  0  0  0  0  0  0  0  0  0  0
  143.2440  159.2810  134.2710 C   0  0  0  0  0  0  0  0  0  0  0  0
  141.8970  158.8910  134.7580 C   0  0  0  0  0  0  0  0  0  0  0  0
  141.6200  158.8240  136.1350 C   0  0  0  0  0  0  0  0  0  0  0  0
  140.3490  158.4550  136.5780 C   0  0  0  0  0  0  0  0  0  0  0  0
  139.3580  158.1550  135.6430 C   0  0  0  0  0  0  0  0  0  0  0  0
  139.6340  158.2240  134.3150 N   0  0  0  0  0  0  0  0  0  0  0  0
  140.8640  158.5800  133.8550 C   0  0  0  0  0  0  0  0  0  0  0  0
  144.1730  158.2910  133.8690 C   0  0  0  0  0  0  0  0  0  0  0  0
  145.4340  158.7000  133.4240 C   0  0  0  0  0  0  0  0  0  0  0  0
  146.4540  157.9330  132.9800 N   0  0  0  0  0  0  0  0  0  0  0  0
  146.4460  156.5040  132.8490 C   0  0  0  0  0  0  0  0  0  0  0  0
  147.2770  155.8620  131.8820 N   0  0  0  0  0  0  0  0  0  0  0  0
  145.7080  155.8080  133.5970 O   0  0  0  0  0  0  0  0  0  0  0  0
  149.5960  157.0240  133.5310 H   0  0  0  0  0  0  0  0  0  0  0  0
  147.6089  161.0318  132.6239 H   0  0  0  0  0  0  0  0  0  0  0  0
  145.1658  162.0922  133.6618 H   0  0  0  0  0  0  0  0  0  0  0  0
  142.8959  161.4233  134.5165 H   0  0  0  0  0  0  0  0  0  0  0  0
  142.4073  159.0631  136.8651 H   0  0  0  0  0  0  0  0  0  0  0  0
  140.1306  158.4012  137.6548 H   0  0  0  0  0  0  0  0  0  0  0  0
  138.3530  157.8626  135.9814 H   0  0  0  0  0  0  0  0  0  0  0  0
  141.0516  158.6249  132.7720 H   0  0  0  0  0  0  0  0  0  0  0  0
  143.9087  157.2239  133.9059 H   0  0  0  0  0  0  0  0  0  0  0  0
  147.8460  156.4260  131.2140 H   0  0  0  0  0  0  0  0  0  0  0  0
  147.2920  154.8200  131.8080 H   0  0  0  0  0  0  0  0  0  0  0  0
  1  2  1  0
  2  3  2  0
  2  4  1  0
  4  5  2  0
  5  6  1  0
  6  7  2  0
  7  8  1  0
  8  9  2  0
  9 10  1  0
 10 11  2  0
 11 12  1  0
 12 13  2  0
 13 14  1  0
 14 15  2  0
  9 16  1  0
 16 17  2  0
 17 18  1  0
 18 19  1  0
 19 20  1  0
 19 21  2  0
 18  4  1  0
 17  6  1  0
 15 10  1  0
  1 22  1  0
  5 23  1  0
  7 24  1  0
  8 25  1  0
 11 26  1  0
 12 27  1  0
 13 28  1  0
 15 29  1  0
 16 30  1  0
 20 31  1  0
 20 32  1  0
M  CHG  1   1  -1
M  END
>  <UniqueID>  (26) 
25

>  <SMILES>  (26) 
[NH-]C(=O)c1cc2ccc(-c3cccnc3)cc2n1C(N)=O

>  <Energy>  (26) 
79.50093105629237

>  <Genealogy>  (26) 
[NH-]C(=O)c1cc2ccc(-c3cccnc3)cc2n1C(N)=O (protonated)
[NH-]C(=O)c1cc2ccc(-c3cccnc3)cc2n1C(N)=O (3D coordinates assigned)
[NH-]C(=O)c1cc2ccc(-c3cccnc3)cc2n1C(N)=O (optimized conformer: 79.50093105629237 kcal/mol)

>  <smiles>  (26) 
NC(=O)c1cc2ccc(-c3cccnc3)cc2n1C(N)=O

>  <score_type>  (26) 
oracle

>  <origin>  (26) 
adg

>  <m_score__min__energy>  (26) 
-7.4100000000000001

>  <m_primary>  (26) 
energy

$$$$
26:0
     RDKit          3D

 49 51  0  0  0  0  0  0  0  0999 V2000
  138.7220  160.8280  130.7470 C   0  0  0  0  0  0  0  0  0  0  0  0
  138.8440  160.0760  132.0040 N   0  0  0  0  0  0  0  0  0  0  0  0
  138.2730  158.7180  131.8400 C   0  0  0  0  0  0  0  0  0  0  0  0
  138.6250  157.8020  133.0220 C   0  0  0  0  0  0  0  0  0  0  0  0
  140.1590  157.7000  133.2500 C   0  0  0  0  0  0  0  0  0  0  0  0
  140.7020  156.3420  133.0430 N   0  0  0  0  0  0  0  0  0  0  0  0
  141.3790  155.7490  134.2120 C   0  0  0  0  0  0  0  0  0  0  0  0
  142.3340  154.6410  133.7580 C   0  0  0  0  0  0  0  0  0  0  0  0
  143.7220  155.1810  133.5380 C   0  0  0  0  0  0  0  0  0  0  0  0
  144.8380  154.3070  133.5390 C   0  0  0  0  0  0  0  0  0  0  0  0
  146.1440  154.8160  133.4430 C   0  0  0  0  0  0  0  0  0  0  0  0
  146.3030  156.1960  133.3580 C   0  0  0  0  0  0  0  0  0  0  0  0
  147.4500  156.9570  133.3340 C   0  0  0  0  0  0  0  0  0  0  0  0
  147.0130  158.2810  133.3170 C   0  0  0  0  0  0  0  0  0  0  0  0
  147.9250  159.4410  133.2340 C   0  0  0  0  0  0  0  0  0  0  0  0
  147.8610  160.3450  132.1330 N   0  0  0  0  0  0  0  0  0  0  0  0
  148.7970  159.6160  134.1260 O   0  0  0  0  0  0  0  0  0  0  0  0
  145.6520  158.3360  133.3330 N   0  0  0  0  0  0  0  0  0  0  0  0
  144.8160  159.4950  133.4740 C   0  0  0  0  0  0  0  0  0  0  0  0
  145.2480  160.7630  132.9820 N   0  0  0  0  0  0  0  0  0  0  0  0
  143.7190  159.4080  134.0890 O   0  0  0  0  0  0  0  0  0  0  0  0
  145.2330  157.0520  133.3470 C   0  0  0  0  0  0  0  0  0  0  0  0
  143.9220  156.5750  133.4300 C   0  0  0  0  0  0  0  0  0  0  0  0
  140.9490  158.7520  132.4480 C   0  0  0  0  0  0  0  0  0  0  0  0
  140.2410  160.1090  132.5200 C   0  0  0  0  0  0  0  0  0  0  0  0
  138.5495  161.8911  130.9710 H   0  0  0  0  0  0  0  0  0  0  0  0
  139.6491  160.7217  130.1647 H   0  0  0  0  0  0  0  0  0  0  0  0
  137.8760  160.4340  130.1647 H   0  0  0  0  0  0  0  0  0  0  0  0
  137.1784  158.7989  131.7665 H   0  0  0  0  0  0  0  0  0  0  0  0
  138.7002  158.2765  130.9275 H   0  0  0  0  0  0  0  0  0  0  0  0
  138.1575  158.2040  133.9330 H   0  0  0  0  0  0  0  0  0  0  0  0
  138.2505  156.7939  132.7908 H   0  0  0  0  0  0  0  0  0  0  0  0
  140.3000  157.9260  134.3173 H   0  0  0  0  0  0  0  0  0  0  0  0
  141.3780  156.3700  132.2420 H   0  0  0  0  0  0  0  0  0  0  0  0
  141.9496  156.5292  134.7371 H   0  0  0  0  0  0  0  0  0  0  0  0
  140.6240  155.3205  134.8876 H   0  0  0  0  0  0  0  0  0  0  0  0
  142.3707  153.8589  134.5306 H   0  0  0  0  0  0  0  0  0  0  0  0
  141.9644  154.2276  132.8080 H   0  0  0  0  0  0  0  0  0  0  0  0
  144.6802  153.2211  133.6156 H   0  0  0  0  0  0  0  0  0  0  0  0
  147.0148  154.1439  133.4352 H   0  0  0  0  0  0  0  0  0  0  0  0
  148.4895  156.5973  133.3292 H   0  0  0  0  0  0  0  0  0  0  0  0
  147.4790  161.3090  132.2530 H   0  0  0  0  0  0  0  0  0  0  0  0
  146.1870  160.8660  132.5380 H   0  0  0  0  0  0  0  0  0  0  0  0
  144.6510  161.6110  133.1070 H   0  0  0  0  0  0  0  0  0  0  0  0
  143.0676  157.2676  133.4117 H   0  0  0  0  0  0  0  0  0  0  0  0
  141.9607  158.8465  132.8694 H   0  0  0  0  0  0  0  0  0  0  0  0
  141.0099  158.4327  131.3971 H   0  0  0  0  0  0  0  0  0  0  0  0
  140.2170  160.4343  133.5705 H   0  0  0  0  0  0  0  0  0  0  0  0
  140.8063  160.8042  131.8820 H   0  0  0  0  0  0  0  0  0  0  0  0
  1  2  1  0
  2  3  1  0
  3  4  1  0
  4  5  1  0
  5  6  1  0
  6  7  1  0
  7  8  1  0
  8  9  1  0
  9 10  2  0
 10 11  1  0
 11 12  2  0
 12 13  1  0
 13 14  2  0
 14 15  1  0
 15 16  1  0
 15 17  2  0
 14 18  1  0
 18 19  1  0
 19 20  1  0
 19 21  2  0
 18 22  1  0
 22 23  2  0
  5 24  1  0
 24 25  1  0
 25  2  1  0
 23  9  1  0
 22 12  1  0
  1 26  1  0
  1 27  1  0
  1 28  1  0
  3 29  1  0
  3 30  1  0
  4 31  1  0
  4 32  1  0
  5 33  1  0
  6 34  1  0
  7 35  1  0
  7 36  1  0
  8 37  1  0
  8 38  1  0
 10 39  1  0
 11 40  1  0
 13 41  1  0
 16 42  1  0
 20 43  1  0
 20 44  1  0
 23 45  1  0
 24 46  1  0
 24 47  1  0
 25 48  1  0
 25 49  1  0
M  CHG  1  16  -1
M  END
>  <UniqueID>  (27) 
26

>  <SMILES>  (27) 
CN1CCC(NCCc2ccc3cc(C([NH-])=O)n(C(N)=O)c3c2)CC1

>  <Energy>  (27) 
95.43674542942323

>  <Genealogy>  (27) 
CN1CCC(NCCc2ccc3cc(C([NH-])=O)n(C(N)=O)c3c2)CC1 (protonated)
CN1CCC(NCCc2ccc3cc(C([NH-])=O)n(C(N)=O)c3c2)CC1 (3D coordinates assigned)
CN1CCC(NCCc2ccc3cc(C([NH-])=O)n(C(N)=O)c3c2)CC1 (nonaromatic ring conformer: 95.43674542942323 kcal/mol)

>  <smiles>  (27) 
CN1CCC(NCCc2ccc3cc(C(N)=O)n(C(N)=O)c3c2)CC1

>  <score_type>  (27) 
oracle

>  <origin>  (27) 
adg

>  <m_score__min__energy>  (27) 
-9.0899999999999999

>  <m_primary>  (27) 
energy

$$$$
27:0
     RDKit          3D

 35 38  0  0  0  0  0  0  0  0999 V2000
  138.4460  157.1480  133.5260 N   0  0  0  0  0  0  0  0  0  0  0  0
  139.2120  157.8030  134.5370 C   0  0  0  0  0  0  0  0  0  0  0  0
  138.7440  157.8970  135.7040 O   0  0  0  0  0  0  0  0  0  0  0  0
  140.5680  158.3160  134.2580 C   0  0  0  0  0  0  0  0  0  0  0  0
  140.9250  159.6540  134.4030 C   0  0  0  0  0  0  0  0  0  0  0  0
  142.2680  159.7050  134.1120 C   0  0  0  0  0  0  0  0  0  0  0  0
  143.1340  160.7940  134.0830 C   0  0  0  0  0  0  0  0  0  0  0  0
  144.4670  160.5650  133.7080 C   0  0  0  0  0  0  0  0  0  0  0  0
  144.9110  159.2630  133.3560 C   0  0  0  0  0  0  0  0  0  0  0  0
  146.3200  159.0360  132.9470 C   0  0  0  0  0  0  0  0  0  0  0  0
  147.0520  157.9330  133.4650 C   0  0  0  0  0  0  0  0  0  0  0  0
  148.3870  157.7130  133.0800 C   0  0  0  0  0  0  0  0  0  0  0  0
  148.9600  158.6050  132.1810 C   0  0  0  0  0  0  0  0  0  0  0  0
  148.2720  159.6610  131.6800 C   0  0  0  0  0  0  0  0  0  0  0  0
  146.9500  159.9160  132.0340 C   0  0  0  0  0  0  0  0  0  0  0  0
  149.0830  160.3700  130.8160 O   0  0  0  0  0  0  0  0  0  0  0  0
  150.3610  159.7200  130.7720 C   0  0  0  0  0  0  0  0  0  0  0  0
  150.2400  158.5990  131.6590 O   0  0  0  0  0  0  0  0  0  0  0  0
  143.9980  158.1830  133.3970 C   0  0  0  0  0  0  0  0  0  0  0  0
  142.6790  158.4350  133.7970 C   0  0  0  0  0  0  0  0  0  0  0  0
  141.6440  157.5690  133.8790 N   0  0  0  0  0  0  0  0  0  0  0  0
  141.6580  156.1760  133.5230 C   0  0  0  0  0  0  0  0  0  0  0  0
  142.6970  155.4850  133.6960 O   0  0  0  0  0  0  0  0  0  0  0  0
  140.5270  155.5750  132.9840 O   0  0  0  0  0  0  0  0  0  0  0  0
  138.8690  156.9030  132.6040 H   0  0  0  0  0  0  0  0  0  0  0  0
  137.4740  156.8260  133.7320 H   0  0  0  0  0  0  0  0  0  0  0  0
  140.2720  160.4916  134.6893 H   0  0  0  0  0  0  0  0  0  0  0  0
  142.7845  161.8033  134.3459 H   0  0  0  0  0  0  0  0  0  0  0  0
  145.1769  161.4050  133.6865 H   0  0  0  0  0  0  0  0  0  0  0  0
  146.5695  157.2444  134.1742 H   0  0  0  0  0  0  0  0  0  0  0  0
  148.9594  156.8620  133.4778 H   0  0  0  0  0  0  0  0  0  0  0  0
  146.4094  160.7779  131.6157 H   0  0  0  0  0  0  0  0  0  0  0  0
  150.5872  159.3814  129.7502 H   0  0  0  0  0  0  0  0  0  0  0  0
  151.1774  160.3948  131.0690 H   0  0  0  0  0  0  0  0  0  0  0  0
  144.3169  157.1671  133.1207 H   0  0  0  0  0  0  0  0  0  0  0  0
  1  2  1  0
  2  3  2  0
  2  4  1  0
  4  5  2  0
  5  6  1  0
  6  7  2  0
  7  8  1  0
  8  9  2  0
  9 10  1  0
 10 11  2  0
 11 12  1  0
 12 13  2  0
 13 14  1  0
 14 15  2  0
 14 16  1  0
 16 17  1  0
 17 18  1  0
  9 19  1  0
 19 20  2  0
 20 21  1  0
 21 22  1  0
 22 23  2  0
 22 24  1  0
 21  4  1  0
 20  6  1  0
 15 10  1  0
 18 13  1  0
  1 25  1  0
  1 26  1  0
  5 27  1  0
  7 28  1  0
  8 29  1  0
 11 30  1  0
 12 31  1  0
 15 32  1  0
 17 33  1  0
 17 34  1  0
 19 35  1  0
M  CHG  1  24  -1
M  END
>  <UniqueID>  (28) 
27

>  <SMILES>  (28) 
NC(=O)c1cc2ccc(-c3ccc4c(c3)OCO4)cc2n1C(=O)[O-]

>  <Energy>  (28) 
112.50720129070793

>  <Genealogy>  (28) 
NC(=O)c1cc2ccc(-c3ccc4c(c3)OCO4)cc2n1C(=O)[O-] (protonated)
NC(=O)c1cc2ccc(-c3ccc4c(c3)OCO4)cc2n1C(=O)[O-] (3D coordinates assigned)
NC(=O)c1cc2ccc(-c3ccc4c(c3)OCO4)cc2n1C(=O)[O-] (nonaromatic ring conformer: 112.50720129070793 kcal/mol)

>  <smiles>  (28) 
NC(=O)c1cc2ccc(-c3ccc4c(c3)OCO4)cc2n1C(=O)O

>  <score_type>  (28) 
oracle

>  <origin>  (28) 
adg

>  <m_score__min__energy>  (28) 
-7.4000000000000004

>  <m_primary>  (28) 
energy

$$$$
28:0
     RDKit          3D

 38 40  0  0  0  0  0  0  0  0999 V2000
  138.4000  157.0860  133.4210 N   0  0  0  0  0  0  0  0  0  0  0  0
  139.1110  157.8980  134.3570 C   0  0  0  0  0  0  0  0  0  0  0  0
  138.5460  158.2300  135.4330 O   0  0  0  0  0  0  0  0  0  0  0  0
  140.4800  158.3720  134.0630 C   0  0  0  0  0  0  0  0  0  0  0  0
  140.8710  159.7110  134.1020 C   0  0  0  0  0  0  0  0  0  0  0  0
  142.2280  159.7010  133.8710 C   0  0  0  0  0  0  0  0  0  0  0  0
  143.1320  160.7560  133.7960 C   0  0  0  0  0  0  0  0  0  0  0  0
  144.4770  160.4530  133.5280 C   0  0  0  0  0  0  0  0  0  0  0  0
  144.8950  159.1110  133.3410 C   0  0  0  0  0  0  0  0  0  0  0  0
  146.2750  158.8180  133.0490 N   0  0  0  0  0  0  0  0  0  0  0  0
  147.0990  159.8070  132.3440 C   0  0  0  0  0  0  0  0  0  0  0  0
  148.5750  159.4120  132.4050 C   0  0  0  0  0  0  0  0  0  0  0  0
  148.8610  158.8640  133.6740 O   0  0  0  0  0  0  0  0  0  0  0  0
  148.3000  157.5660  133.7830 C   0  0  0  0  0  0  0  0  0  0  0  0
  146.8250  157.4840  133.3220 C   0  0  0  0  0  0  0  0  0  0  0  0
  143.9440  158.0670  133.4220 C   0  0  0  0  0  0  0  0  0  0  0  0
  142.6150  158.3990  133.7020 C   0  0  0  0  0  0  0  0  0  0  0  0
  141.5550  157.5720  133.8140 N   0  0  0  0  0  0  0  0  0  0  0  0
  141.5740  156.1460  133.6360 C   0  0  0  0  0  0  0  0  0  0  0  0
  140.6440  155.5850  132.9960 O   0  0  0  0  0  0  0  0  0  0  0  0
  142.6180  155.3050  134.3080 C   0  0  0  0  0  0  0  0  0  0  0  0
  142.4150  155.3460  136.0780 Cl  0  0  0  0  0  0  0  0  0  0  0  0
  138.8540  156.7410  132.5470 H   0  0  0  0  0  0  0  0  0  0  0  0
  137.4200  156.7880  133.6250 H   0  0  0  0  0  0  0  0  0  0  0  0
  140.2310  160.5879  134.2796 H   0  0  0  0  0  0  0  0  0  0  0  0
  142.8034  161.7955  133.9421 H   0  0  0  0  0  0  0  0  0  0  0  0
  145.2148  161.2663  133.4624 H   0  0  0  0  0  0  0  0  0  0  0  0
  146.7812  159.8599  131.2922 H   0  0  0  0  0  0  0  0  0  0  0  0
  146.9717  160.7870  132.8272 H   0  0  0  0  0  0  0  0  0  0  0  0
  148.7876  158.6649  131.6261 H   0  0  0  0  0  0  0  0  0  0  0  0
  149.2008  160.3013  132.2390 H   0  0  0  0  0  0  0  0  0  0  0  0
  148.8955  156.8775  133.1654 H   0  0  0  0  0  0  0  0  0  0  0  0
  148.3185  157.2968  134.8494 H   0  0  0  0  0  0  0  0  0  0  0  0
  146.7696  156.8793  132.4048 H   0  0  0  0  0  0  0  0  0  0  0  0
  146.2349  157.0241  134.1284 H   0  0  0  0  0  0  0  0  0  0  0  0
  144.2427  157.0195  133.2684 H   0  0  0  0  0  0  0  0  0  0  0  0
  142.5257  154.2663  133.9577 H   0  0  0  0  0  0  0  0  0  0  0  0
  143.6111  155.7053  134.0562 H   0  0  0  0  0  0  0  0  0  0  0  0
  1  2  1  0
  2  3  2  0
  2  4  1  0
  4  5  2  0
  5  6  1  0
  6  7  2  0
  7  8  1  0
  8  9  2  0
  9 10  1  0
 10 11  1  0
 11 12  1  0
 12 13  1  0
 13 14  1  0
 14 15  1  0
  9 16  1  0
 16 17  2  0
 17 18  1  0
 18 19  1  0
 19 20  2  0
 19 21  1  0
 21 22  1  0
 18  4  1  0
 17  6  1  0
 15 10  1  0
  1 23  1  0
  1 24  1  0
  5 25  1  0
  7 26  1  0
  8 27  1  0
 11 28  1  0
 11 29  1  0
 12 30  1  0
 12 31  1  0
 14 32  1  0
 14 33  1  0
 15 34  1  0
 15 35  1  0
 16 36  1  0
 21 37  1  0
 21 38  1  0
M  END
>  <UniqueID>  (29) 
28

>  <SMILES>  (29) 
NC(=O)c1cc2ccc(N3CCOCC3)cc2n1C(=O)CCl

>  <Energy>  (29) 
88.86994538640788

>  <Genealogy>  (29) 
NC(=O)c1cc2ccc(N3CCOCC3)cc2n1C(=O)CCl (3D coordinates assigned)
NC(=O)c1cc2ccc(N3CCOCC3)cc2n1C(=O)CCl (nonaromatic ring conformer: 88.86994538640788 kcal/mol)

>  <smiles>  (29) 
NC(=O)c1cc2ccc(N3CCOCC3)cc2n1C(=O)CCl

>  <score_type>  (29) 
oracle

>  <origin>  (29) 
adg

>  <m_score__min__energy>  (29) 
-7.2000000000000002

>  <m_primary>  (29) 
energy

$$$$
29:0
     RDKit          3D

 29 30  0  0  0  0  0  0  0  0999 V2000
  149.1810  160.3920  130.4840 C   0  0  0  0  0  0  0  0  0  0  0  0
  149.8810  159.1880  131.1060 C   0  0  0  0  0  0  0  0  0  0  0  0
  149.0010  158.5340  132.1370 C   0  0  0  0  0  0  0  0  0  0  0  0
  148.1390  159.3240  132.9380 C   0  0  0  0  0  0  0  0  0  0  0  0
  147.2960  158.7230  133.8880 C   0  0  0  0  0  0  0  0  0  0  0  0
  147.3250  157.3360  134.0020 C   0  0  0  0  0  0  0  0  0  0  0  0
  146.6270  156.5010  134.8440 C   0  0  0  0  0  0  0  0  0  0  0  0
  147.0500  155.2120  134.5200 C   0  0  0  0  0  0  0  0  0  0  0  0
  146.4790  153.9910  135.1260 C   0  0  0  0  0  0  0  0  0  0  0  0
  146.9860  153.4770  136.3550 N   0  0  0  0  0  0  0  0  0  0  0  0
  145.5610  153.3680  134.5290 O   0  0  0  0  0  0  0  0  0  0  0  0
  147.9790  155.2520  133.5240 N   0  0  0  0  0  0  0  0  0  0  0  0
  148.7180  154.1560  132.9610 C   0  0  0  0  0  0  0  0  0  0  0  0
  148.2760  152.8130  133.1510 N   0  0  0  0  0  0  0  0  0  0  0  0
  149.7830  154.3760  132.3260 O   0  0  0  0  0  0  0  0  0  0  0  0
  148.1320  156.5580  133.2150 C   0  0  0  0  0  0  0  0  0  0  0  0
  148.9930  157.1290  132.2710 C   0  0  0  0  0  0  0  0  0  0  0  0
  148.8002  161.0470  131.2814 H   0  0  0  0  0  0  0  0  0  0  0  0
  149.8955  160.9500  129.8610 H   0  0  0  0  0  0  0  0  0  0  0  0
  148.3426  160.0472  129.8610 H   0  0  0  0  0  0  0  0  0  0  0  0
  150.1150  158.4589  130.3163 H   0  0  0  0  0  0  0  0  0  0  0  0
  150.8045  159.5304  131.5958 H   0  0  0  0  0  0  0  0  0  0  0  0
  148.1299  160.4171  132.8149 H   0  0  0  0  0  0  0  0  0  0  0  0
  146.6333  159.3301  134.5223 H   0  0  0  0  0  0  0  0  0  0  0  0
  145.8917  156.7889  135.6098 H   0  0  0  0  0  0  0  0  0  0  0  0
  146.3960  152.8740  136.9690 H   0  0  0  0  0  0  0  0  0  0  0  0
  148.8070  152.0180  132.7310 H   0  0  0  0  0  0  0  0  0  0  0  0
  147.4380  152.6080  133.7390 H   0  0  0  0  0  0  0  0  0  0  0  0
  149.6465  156.4992  131.6496 H   0  0  0  0  0  0  0  0  0  0  0  0
  1  2  1  0
  2  3  1  0
  3  4  2  0
  4  5  1  0
  5  6  2  0
  6  7  1  0
  7  8  2  0
  8  9  1  0
  9 10  1  0
  9 11  2  0
  8 12  1  0
 12 13  1  0
 13 14  1  0
 13 15  2  0
 12 16  1  0
 16 17  2  0
 17  3  1  0
 16  6  1  0
  1 18  1  0
  1 19  1  0
  1 20  1  0
  2 21  1  0
  2 22  1  0
  4 23  1  0
  5 24  1  0
  7 25  1  0
 10 26  1  0
 14 27  1  0
 14 28  1  0
 17 29  1  0
M  CHG  1  10  -1
M  END
>  <UniqueID>  (30) 
29

>  <SMILES>  (30) 
CCc1ccc2cc(C([NH-])=O)n(C(N)=O)c2c1

>  <Energy>  (30) 
64.53724953758241

>  <Genealogy>  (30) 
CCc1ccc2cc(C([NH-])=O)n(C(N)=O)c2c1 (protonated)
CCc1ccc2cc(C([NH-])=O)n(C(N)=O)c2c1 (3D coordinates assigned)
CCc1ccc2cc(C([NH-])=O)n(C(N)=O)c2c1 (optimized conformer: 64.53724953758241 kcal/mol)

>  <smiles>  (30) 
CCc1ccc2cc(C(N)=O)n(C(N)=O)c2c1

>  <score_type>  (30) 
oracle

>  <origin>  (30) 
adg

>  <m_score__min__energy>  (30) 
-6.4299999999999997

>  <m_primary>  (30) 
energy

$$$$
30:0
     RDKit          3D

 46 49  0  0  0  0  0  0  0  0999 V2000
  145.3370  161.7010  134.1310 N   0  0  0  0  0  0  0  0  0  0  0  0
  143.9710  161.6650  133.7290 C   0  0  0  0  0  0  0  0  0  0  0  0
  143.3950  162.7380  133.4030 O   0  0  0  0  0  0  0  0  0  0  0  0
  143.2350  160.3830  133.7340 C   0  0  0  0  0  0  0  0  0  0  0  0
  141.8570  160.2870  133.9130 C   0  0  0  0  0  0  0  0  0  0  0  0
  141.5600  158.9520  133.7540 C   0  0  0  0  0  0  0  0  0  0  0  0
  140.3400  158.2900  133.8290 C   0  0  0  0  0  0  0  0  0  0  0  0
  140.3320  156.8980  133.6380 C   0  0  0  0  0  0  0  0  0  0  0  0
  141.5380  156.1920  133.3820 C   0  0  0  0  0  0  0  0  0  0  0  0
  141.5200  154.7200  133.1900 C   0  0  0  0  0  0  0  0  0  0  0  0
  142.7150  153.9830  133.1610 C   0  0  0  0  0  0  0  0  0  0  0  0
  142.6850  152.5990  132.9810 C   0  0  0  0  0  0  0  0  0  0  0  0
  141.4530  151.9520  132.8130 C   0  0  0  0  0  0  0  0  0  0  0  0
  141.3750  150.4890  132.6460 C   0  0  0  0  0  0  0  0  0  0  0  0
  142.0850  149.7570  133.3870 O   0  0  0  0  0  0  0  0  0  0  0  0
  140.5060  149.8840  131.6720 N   0  0  0  0  0  0  0  0  0  0  0  0
  140.9110  148.7470  130.8630 C   0  0  0  0  0  0  0  0  0  0  0  0
  139.6240  148.1560  130.3020 C   0  0  0  0  0  0  0  0  0  0  0  0
  138.5490  149.2220  130.5060 C   0  0  2  0  0  0  0  0  0  0  0  0
  138.3850  149.9470  129.3370 F   0  0  0  0  0  0  0  0  0  0  0  0
  139.0750  150.1320  131.6090 C   0  0  0  0  0  0  0  0  0  0  0  0
  140.3040  152.6780  132.8660 N   0  0  0  0  0  0  0  0  0  0  0  0
  140.3070  154.0250  133.0450 C   0  0  0  0  0  0  0  0  0  0  0  0
  142.7590  156.9050  133.3130 C   0  0  0  0  0  0  0  0  0  0  0  0
  142.7320  158.2920  133.4940 C   0  0  0  0  0  0  0  0  0  0  0  0
  143.7700  159.1560  133.4830 N   0  0  0  0  0  0  0  0  0  0  0  0
  145.1540  158.8160  133.3010 C   0  0  0  0  0  0  0  0  0  0  0  0
  146.0310  159.7050  132.6090 N   0  0  0  0  0  0  0  0  0  0  0  0
  145.6090  157.7450  133.7840 O   0  0  0  0  0  0  0  0  0  0  0  0
  146.1040  161.7450  133.4250 H   0  0  0  0  0  0  0  0  0  0  0  0
  141.1549  161.1044  134.1344 H   0  0  0  0  0  0  0  0  0  0  0  0
  139.4088  158.8394  134.0318 H   0  0  0  0  0  0  0  0  0  0  0  0
  139.3805  156.3482  133.6873 H   0  0  0  0  0  0  0  0  0  0  0  0
  143.6792  154.4987  133.2807 H   0  0  0  0  0  0  0  0  0  0  0  0
  143.6207  152.0208  132.9711 H   0  0  0  0  0  0  0  0  0  0  0  0
  141.5702  149.0742  130.0455 H   0  0  0  0  0  0  0  0  0  0  0  0
  141.4708  148.0082  131.4553 H   0  0  0  0  0  0  0  0  0  0  0  0
  139.7412  147.9310  129.2317 H   0  0  0  0  0  0  0  0  0  0  0  0
  139.3593  147.2145  130.8055 H   0  0  0  0  0  0  0  0  0  0  0  0
  137.5770  148.7804  130.7707 H   0  0  0  0  0  0  0  0  0  0  0  0
  138.8785  151.1861  131.3633 H   0  0  0  0  0  0  0  0  0  0  0  0
  138.5842  149.9291  132.5723 H   0  0  0  0  0  0  0  0  0  0  0  0
  139.3547  154.5746  133.0766 H   0  0  0  0  0  0  0  0  0  0  0  0
  143.7069  156.3807  133.1215 H   0  0  0  0  0  0  0  0  0  0  0  0
  145.6910  160.6340  132.2750 H   0  0  0  0  0  0  0  0  0  0  0  0
  147.0330  159.4510  132.4640 H   0  0  0  0  0  0  0  0  0  0  0  0
  1  2  1  0
  2  3  2  0
  2  4  1  0
  4  5  2  0
  5  6  1  0
  6  7  2  0
  7  8  1  0
  8  9  2  0
  9 10  1  0
 10 11  2  0
 11 12  1  0
 12 13  2  0
 13 14  1  0
 14 15  2  0
 14 16  1  0
 16 17  1  0
 17 18  1  0
 18 19  1  0
 19 20  1  0
 19 21  1  0
 13 22  1  0
 22 23  2  0
  9 24  1  0
 24 25  2  0
 25 26  1  0
 26 27  1  0
 27 28  1  0
 27 29  2  0
 26  4  1  0
 25  6  1  0
 23 10  1  0
 21 16  1  0
  1 30  1  0
  5 31  1  0
  7 32  1  0
  8 33  1  0
 11 34  1  0
 12 35  1  0
 17 36  1  0
 17 37  1  0
 18 38  1  0
 18 39  1  0
 19 40  1  1
 21 41  1  0
 21 42  1  0
 23 43  1  0
 24 44  1  0
 28 45  1  0
 28 46  1  0
M  CHG  1   1  -1
M  END
>  <UniqueID>  (31) 
30

>  <SMILES>  (31) 
[NH-]C(=O)c1cc2ccc(-c3ccc(C(=O)N4CC[C@H](F)C4)nc3)cc2n1C(N)=O

>  <Energy>  (31) 
98.07264280430388

>  <Genealogy>  (31) 
[NH-]C(=O)c1cc2ccc(-c3ccc(C(=O)N4CCC(F)C4)nc3)cc2n1C(N)=O (protonated)
[NH-]C(=O)c1cc2ccc(-c3ccc(C(=O)N4CC[C@H](F)C4)nc3)cc2n1C(N)=O (chirality)
[NH-]C(=O)c1cc2ccc(-c3ccc(C(=O)N4CC[C@H](F)C4)nc3)cc2n1C(N)=O (3D coordinates assigned)
[NH-]C(=O)c1cc2ccc(-c3ccc(C(=O)N4CC[C@H](F)C4)nc3)cc2n1C(N)=O (nonaromatic ring conformer: 98.07264280430388 kcal/mol)

>  <smiles>  (31) 
NC(=O)c1cc2ccc(-c3ccc(C(=O)N4CCC(F)C4)nc3)cc2n1C(N)=O

>  <score_type>  (31) 
oracle

>  <origin>  (31) 
adg

>  <m_score__min__energy>  (31) 
-9.1199999999999992

>  <m_primary>  (31) 
energy

$$$$
31:0
     RDKit          3D

 31 33  0  0  0  0  0  0  0  0999 V2000
  140.4500  159.1250  136.3790 N   0  0  0  0  0  0  0  0  0  0  0  0
  140.7670  158.7690  135.0360 C   0  0  0  0  0  0  0  0  0  0  0  0
  139.8410  158.6890  134.1850 O   0  0  0  0  0  0  0  0  0  0  0  0
  142.1660  158.5490  134.6160 C   0  0  0  0  0  0  0  0  0  0  0  0
  142.8210  157.3260  134.7480 C   0  0  0  0  0  0  0  0  0  0  0  0
  144.0540  157.5080  134.1660 C   0  0  0  0  0  0  0  0  0  0  0  0
  145.1140  156.6180  134.0230 C   0  0  0  0  0  0  0  0  0  0  0  0
  146.2850  157.0840  133.4030 C   0  0  0  0  0  0  0  0  0  0  0  0
  146.3830  158.4260  132.9510 C   0  0  0  0  0  0  0  0  0  0  0  0
  147.6290  158.9040  132.3040 C   0  0  0  0  0  0  0  0  0  0  0  0
  147.6310  160.1240  131.6020 C   0  0  0  0  0  0  0  0  0  0  0  0
  148.8010  160.5890  130.9940 C   0  0  0  0  0  0  0  0  0  0  0  0
  149.9780  159.8420  131.0770 C   0  0  0  0  0  0  0  0  0  0  0  0
  149.9870  158.6260  131.7650 C   0  0  0  0  0  0  0  0  0  0  0  0
  148.8200  158.1540  132.3780 C   0  0  0  0  0  0  0  0  0  0  0  0
  148.8490  156.9520  133.0060 F   0  0  0  0  0  0  0  0  0  0  0  0
  145.2810  159.2970  133.1110 C   0  0  0  0  0  0  0  0  0  0  0  0
  144.1190  158.8000  133.7150 C   0  0  0  0  0  0  0  0  0  0  0  0
  142.9680  159.4550  133.9850 N   0  0  0  0  0  0  0  0  0  0  0  0
  142.7010  160.8440  133.7350 C   0  0  0  0  0  0  0  0  0  0  0  0
  141.5230  161.2370  133.5220 O   0  0  0  0  0  0  0  0  0  0  0  0
  143.7340  161.7710  133.7520 O   0  0  0  0  0  0  0  0  0  0  0  0
  139.4730  159.0460  136.7400 H   0  0  0  0  0  0  0  0  0  0  0  0
  142.4341  156.4097  135.2178 H   0  0  0  0  0  0  0  0  0  0  0  0
  145.0373  155.5818  134.3842 H   0  0  0  0  0  0  0  0  0  0  0  0
  147.1362  156.4009  133.2661 H   0  0  0  0  0  0  0  0  0  0  0  0
  146.7062  160.7153  131.5313 H   0  0  0  0  0  0  0  0  0  0  0  0
  148.7944  161.5447  130.4494 H   0  0  0  0  0  0  0  0  0  0  0  0
  150.8982  160.2110  130.6006 H   0  0  0  0  0  0  0  0  0  0  0  0
  150.9143  158.0373  131.8253 H   0  0  0  0  0  0  0  0  0  0  0  0
  145.3349  160.3411  132.7690 H   0  0  0  0  0  0  0  0  0  0  0  0
  1  2  1  0
  2  3  2  0
  2  4  1  0
  4  5  2  0
  5  6  1  0
  6  7  2  0
  7  8  1  0
  8  9  2  0
  9 10  1  0
 10 11  2  0
 11 12  1  0
 12 13  2  0
 13 14  1  0
 14 15  2  0
 15 16  1  0
  9 17  1  0
 17 18  2  0
 18 19  1  0
 19 20  1  0
 20 21  2  0
 20 22  1  0
 19  4  1  0
 18  6  1  0
 15 10  1  0
  1 23  1  0
  5 24  1  0
  7 25  1  0
  8 26  1  0
 11 27  1  0
 12 28  1  0
 13 29  1  0
 14 30  1  0
 17 31  1  0
M  CHG  2   1  -1  22  -1
M  END
>  <UniqueID>  (32) 
31

>  <SMILES>  (32) 
[NH-]C(=O)c1cc2ccc(-c3ccccc3F)cc2n1C(=O)[O-]

>  <Energy>  (32) 
80.16935886163083

>  <Genealogy>  (32) 
[NH-]C(=O)c1cc2ccc(-c3ccccc3F)cc2n1C(=O)[O-] (protonated)
[NH-]C(=O)c1cc2ccc(-c3ccccc3F)cc2n1C(=O)[O-] (3D coordinates assigned)
[NH-]C(=O)c1cc2ccc(-c3ccccc3F)cc2n1C(=O)[O-] (optimized conformer: 80.16935886163083 kcal/mol)

>  <smiles>  (32) 
NC(=O)c1cc2ccc(-c3ccccc3F)cc2n1C(=O)O

>  <score_type>  (32) 
oracle

>  <origin>  (32) 
adg

>  <m_score__min__energy>  (32) 
-7.5

>  <m_primary>  (32) 
energy

$$$$
32:0
     RDKit          3D

 37 38  0  0  0  0  0  0  0  0999 V2000
  140.4370  157.1290  135.5920 N   0  0  0  0  0  0  0  0  0  0  0  0
  140.5920  158.2090  134.6470 C   0  0  0  0  0  0  0  0  0  0  0  0
  139.5120  158.6260  134.1620 O   0  0  0  0  0  0  0  0  0  0  0  0
  141.9100  158.6960  134.3510 C   0  0  0  0  0  0  0  0  0  0  0  0
  142.2900  160.0180  134.5170 C   0  0  0  0  0  0  0  0  0  0  0  0
  143.5860  160.1840  134.1590 C   0  0  0  0  0  0  0  0  0  0  0  0
  144.3920  161.3080  134.1540 C   0  0  0  0  0  0  0  0  0  0  0  0
  145.6840  161.1820  133.7340 C   0  0  0  0  0  0  0  0  0  0  0  0
  146.1940  159.9630  133.3180 C   0  0  0  0  0  0  0  0  0  0  0  0
  147.5930  159.9240  132.8890 C   0  0  0  0  0  0  0  0  0  0  0  0
  148.5340  159.1850  133.7600 C   0  0  0  0  0  0  0  0  0  0  0  0
  148.0810  157.7900  134.1130 C   0  0  0  0  0  0  0  0  0  0  0  0
  148.0080  156.8690  132.8310 B   0  0  0  0  0  0  0  0  0  0  0  0
  149.2030  156.0310  132.5850 O   0  0  0  0  0  0  0  0  0  0  0  0
  146.6990  156.2590  132.5220 O   0  0  0  0  0  0  0  0  0  0  0  0
  145.3460  158.8670  133.3430 C   0  0  0  0  0  0  0  0  0  0  0  0
  144.0340  158.9390  133.7580 C   0  0  0  0  0  0  0  0  0  0  0  0
  143.0080  158.0470  133.8790 N   0  0  0  0  0  0  0  0  0  0  0  0
  143.1030  156.6730  133.5570 C   0  0  0  0  0  0  0  0  0  0  0  0
  143.6560  156.2630  132.2880 N   0  0  0  0  0  0  0  0  0  0  0  0
  142.7400  155.7230  134.2910 O   0  0  0  0  0  0  0  0  0  0  0  0
  141.1130  156.3350  135.5620 H   0  0  0  0  0  0  0  0  0  0  0  0
  139.6750  157.1180  136.3000 H   0  0  0  0  0  0  0  0  0  0  0  0
  141.6329  160.8189  134.8869 H   0  0  0  0  0  0  0  0  0  0  0  0
  143.9999  162.2822  134.4815 H   0  0  0  0  0  0  0  0  0  0  0  0
  146.3354  162.0684  133.7255 H   0  0  0  0  0  0  0  0  0  0  0  0
  147.6236  159.4574  131.8934 H   0  0  0  0  0  0  0  0  0  0  0  0
  147.9335  160.9696  132.9165 H   0  0  0  0  0  0  0  0  0  0  0  0
  149.5011  159.1131  133.2409 H   0  0  0  0  0  0  0  0  0  0  0  0
  148.5990  159.7457  134.7042 H   0  0  0  0  0  0  0  0  0  0  0  0
  148.7926  157.3524  134.8287 H   0  0  0  0  0  0  0  0  0  0  0  0
  147.0751  157.8524  134.5537 H   0  0  0  0  0  0  0  0  0  0  0  0
  149.6290  156.3660  131.7590 H   0  0  0  0  0  0  0  0  0  0  0  0
  146.4020  156.6280  131.6410 H   0  0  0  0  0  0  0  0  0  0  0  0
  145.7391  157.8931  133.0159 H   0  0  0  0  0  0  0  0  0  0  0  0
  142.9800  156.1560  131.4960 H   0  0  0  0  0  0  0  0  0  0  0  0
  144.6800  156.0950  132.2090 H   0  0  0  0  0  0  0  0  0  0  0  0
  1  2  1  0
  2  3  2  0
  2  4  1  0
  4  5  2  0
  5  6  1  0
  6  7  2  0
  7  8  1  0
  8  9  2  0
  9 10  1  0
 10 11  1  0
 11 12  1  0
 12 13  1  0
 13 14  1  0
 13 15  1  0
  9 16  1  0
 16 17  2  0
 17 18  1  0
 18 19  1  0
 19 20  1  0
 19 21  2  0
 18  4  1  0
 17  6  1  0
  1 22  1  0
  1 23  1  0
  5 24  1  0
  7 25  1  0
  8 26  1  0
 10 27  1  0
 10 28  1  0
 11 29  1  0
 11 30  1  0
 12 31  1  0
 12 32  1  0
 14 33  1  0
 15 34  1  0
 16 35  1  0
 20 36  1  0
 20 37  1  0
M  END
>  <smiles>  (33) 
NC(=O)c1cc2ccc(CCCB(O)O)cc2n1C(N)=O

>  <score_type>  (33) 
oracle

>  <origin>  (33) 
adg

>  <m_score__min__energy>  (33) 
-7.1799999999999997

>  <m_primary>  (33) 
energy

$$$$
33:0
     RDKit          3D

 55 56  0  0  0  0  0  0  0  0999 V2000
  145.3240  155.5370  132.7390 C   0  0  0  0  0  0  0  0  0  0  0  0
  146.3290  156.4710  133.3320 C   0  0  0  0  0  0  0  0  0  0  0  0
  147.3870  155.9930  133.8180 O   0  0  0  0  0  0  0  0  0  0  0  0
  146.1150  157.8950  133.3410 N   0  0  0  0  0  0  0  0  0  0  0  0
  147.0060  158.8470  132.9540 C   0  0  0  0  0  0  0  0  0  0  0  0
  148.3760  158.5910  132.4940 C   0  0  0  0  0  0  0  0  0  0  0  0
  148.7000  157.3520  131.8650 N   0  0  0  0  0  0  0  0  0  0  0  0
  149.2520  159.4920  132.5860 O   0  0  0  0  0  0  0  0  0  0  0  0
  146.4380  160.1140  133.0080 C   0  0  0  0  0  0  0  0  0  0  0  0
  145.1570  159.9120  133.4670 C   0  0  0  0  0  0  0  0  0  0  0  0
  144.1580  160.8330  133.7400 C   0  0  0  0  0  0  0  0  0  0  0  0
  142.9330  160.3550  134.2310 C   0  0  0  0  0  0  0  0  0  0  0  0
  142.7120  158.9590  134.4460 C   0  0  0  0  0  0  0  0  0  0  0  0
  141.3520  158.3930  134.9380 C   0  0  0  0  0  0  0  0  0  0  0  0
  141.6360  157.0280  135.6300 C   0  0  0  0  0  0  0  0  0  0  0  0
  140.7050  159.2960  136.0260 C   0  0  0  0  0  0  0  0  0  0  0  0
  140.3820  158.1760  133.6980 C   0  0  1  0  0  0  0  0  0  0  0  0
  139.0520  157.4530  134.0230 C   0  0  0  0  0  0  0  0  0  0  0  0
  140.1430  159.4270  132.7960 C   0  0  0  0  0  0  0  0  0  0  0  0
  140.1970  159.2000  131.2660 C   0  0  0  0  0  0  0  0  0  0  0  0
  138.8070  158.8910  130.6890 C   0  0  0  0  0  0  0  0  0  0  0  0
  138.0300  160.1660  130.3220 C   0  0  0  0  0  0  0  0  0  0  0  0
  136.5590  160.0330  130.7090 C   0  0  0  0  0  0  0  0  0  0  0  0
  138.5710  161.2490  130.9900 F   0  0  0  0  0  0  0  0  0  0  0  0
  138.1100  160.3920  128.9580 F   0  0  0  0  0  0  0  0  0  0  0  0
  143.7770  158.0610  134.1540 C   0  0  0  0  0  0  0  0  0  0  0  0
  144.9810  158.5660  133.6530 C   0  0  0  0  0  0  0  0  0  0  0  0
  144.7761  155.0278  133.5455 H   0  0  0  0  0  0  0  0  0  0  0  0
  144.6167  156.1058  132.1175 H   0  0  0  0  0  0  0  0  0  0  0  0
  145.8396  154.7900  132.1175 H   0  0  0  0  0  0  0  0  0  0  0  0
  147.9960  156.5810  131.8150 H   0  0  0  0  0  0  0  0  0  0  0  0
  149.6600  157.1880  131.4900 H   0  0  0  0  0  0  0  0  0  0  0  0
  146.9103  161.0710  132.7415 H   0  0  0  0  0  0  0  0  0  0  0  0
  144.3206  161.9086  133.5765 H   0  0  0  0  0  0  0  0  0  0  0  0
  142.1267  161.0690  134.4549 H   0  0  0  0  0  0  0  0  0  0  0  0
  141.6090  157.1579  136.7220 H   0  0  0  0  0  0  0  0  0  0  0  0
  140.8705  156.2978  135.3285 H   0  0  0  0  0  0  0  0  0  0  0  0
  142.6292  156.6637  135.3285 H   0  0  0  0  0  0  0  0  0  0  0  0
  140.9751  158.9191  137.0235 H   0  0  0  0  0  0  0  0  0  0  0  0
  141.0712  160.3270  135.9121 H   0  0  0  0  0  0  0  0  0  0  0  0
  139.6110  159.2808  135.9121 H   0  0  0  0  0  0  0  0  0  0  0  0
  140.9761  157.4793  133.0884 H   0  0  0  0  0  0  0  0  0  0  0  0
  138.9283  157.3858  135.1139 H   0  0  0  0  0  0  0  0  0  0  0  0
  138.2125  158.0189  133.5930 H   0  0  0  0  0  0  0  0  0  0  0  0
  139.0704  156.4407  133.5930 H   0  0  0  0  0  0  0  0  0  0  0  0
  139.1479  159.8280  133.0388 H   0  0  0  0  0  0  0  0  0  0  0  0
  140.9784  160.1075  133.0174 H   0  0  0  0  0  0  0  0  0  0  0  0
  140.5894  160.1078  130.7844 H   0  0  0  0  0  0  0  0  0  0  0  0
  140.8499  158.3367  131.0698 H   0  0  0  0  0  0  0  0  0  0  0  0
  138.9282  158.2779  129.7838 H   0  0  0  0  0  0  0  0  0  0  0  0
  138.2332  158.3583  131.4616 H   0  0  0  0  0  0  0  0  0  0  0  0
  136.4675  160.0247  131.8052 H   0  0  0  0  0  0  0  0  0  0  0  0
  135.9940  160.8837  130.3003 H   0  0  0  0  0  0  0  0  0  0  0  0
  136.1557  159.0947  130.3003 H   0  0  0  0  0  0  0  0  0  0  0  0
  143.6542  156.9807  134.3207 H   0  0  0  0  0  0  0  0  0  0  0  0
  1  2  1  0
  2  3  2  0
  2  4  1  0
  4  5  1  0
  5  6  1  0
  6  7  1  0
  6  8  2  0
  5  9  2  0
  9 10  1  0
 10 11  2  0
 11 12  1  0
 12 13  2  0
 13 14  1  0
 14 15  1  0
 14 16  1  0
 14 17  1  0
 17 18  1  0
 17 19  1  0
 19 20  1  0
 20 21  1  0
 21 22  1  0
 22 23  1  0
 22 24  1  0
 22 25  1  0
 13 26  1  0
 26 27  2  0
 27  4  1  0
 27 10  1  0
  1 28  1  0
  1 29  1  0
  1 30  1  0
  7 31  1  0
  7 32  1  0
  9 33  1  0
 11 34  1  0
 12 35  1  0
 15 36  1  0
 15 37  1  0
 15 38  1  0
 16 39  1  0
 16 40  1  0
 16 41  1  0
 17 42  1  6
 18 43  1  0
 18 44  1  0
 18 45  1  0
 19 46  1  0
 19 47  1  0
 20 48  1  0
 20 49  1  0
 21 50  1  0
 21 51  1  0
 23 52  1  0
 23 53  1  0
 23 54  1  0
 26 55  1  0
M  END
>  <UniqueID>  (34) 
32

>  <SMILES>  (34) 
CC(=O)n1c(C(N)=O)cc2ccc(C(C)(C)[C@@H](C)CCCC(C)(F)F)cc21

>  <Energy>  (34) 
100.69153085070654

>  <Genealogy>  (34) 
CC(=O)n1c(C(N)=O)cc2ccc(C(C)(C)[C@@H](C)CCCC(C)(F)F)cc21 (chirality)
CC(=O)n1c(C(N)=O)cc2ccc(C(C)(C)[C@@H](C)CCCC(C)(F)F)cc21 (3D coordinates assigned)
CC(=O)n1c(C(N)=O)cc2ccc(C(C)(C)[C@@H](C)CCCC(C)(F)F)cc21 (optimized conformer: 100.69153085070654 kcal/mol)

>  <smiles>  (34) 
CC(=O)n1c(C(N)=O)cc2ccc(C(C)(C)C(C)CCCC(C)(F)F)cc21

>  <score_type>  (34) 
oracle

>  <origin>  (34) 
adg

>  <m_score__min__energy>  (34) 
-8.8900000000000006

>  <m_primary>  (34) 
energy

$$$$
34:0
     RDKit          3D

 43 45  0  0  0  0  0  0  0  0999 V2000
  149.9820  160.2750  131.2830 N   0  0  0  0  0  0  0  0  0  0  0  0
  149.4270  159.1700  131.9930 C   0  0  0  0  0  0  0  0  0  0  0  0
  150.1500  158.1670  132.2330 O   0  0  0  0  0  0  0  0  0  0  0  0
  148.0310  159.2290  132.4720 C   0  0  0  0  0  0  0  0  0  0  0  0
  147.3610  160.4210  132.7400 C   0  0  0  0  0  0  0  0  0  0  0  0
  146.1320  160.0480  133.2330 C   0  0  0  0  0  0  0  0  0  0  0  0
  145.0570  160.8310  133.6430 C   0  0  0  0  0  0  0  0  0  0  0  0
  143.8930  160.1760  134.0760 C   0  0  0  0  0  0  0  0  0  0  0  0
  143.8260  158.7610  134.0940 C   0  0  0  0  0  0  0  0  0  0  0  0
  142.5570  158.0690  134.5130 C   0  0  0  0  0  0  0  0  0  0  0  0
  141.9080  157.3740  133.3150 C   0  0  0  0  0  0  0  0  0  0  0  0
  140.1140  157.4610  133.3610 S   0  0  0  0  0  0  0  0  0  0  0  0
  139.7330  158.3040  134.5450 O   0  0  0  0  0  0  0  0  0  0  0  0
  139.5730  156.0750  133.5780 O   0  0  0  0  0  0  0  0  0  0  0  0
  139.3640  158.1570  131.9390 N   0  0  0  0  0  0  0  0  0  0  0  0
  140.1260  159.2740  131.3690 C   0  0  0  0  0  0  0  0  0  0  0  0
  139.1350  160.3770  131.0080 C   0  0  0  0  0  0  0  0  0  0  0  0
  137.7660  159.7610  131.2010 C   0  0  0  0  0  0  0  0  0  0  0  0
  138.0010  158.6300  132.1800 C   0  0  0  0  0  0  0  0  0  0  0  0
  144.9320  157.9990  133.6580 C   0  0  0  0  0  0  0  0  0  0  0  0
  146.0870  158.6780  133.2490 C   0  0  0  0  0  0  0  0  0  0  0  0
  147.2440  158.1590  132.7830 N   0  0  0  0  0  0  0  0  0  0  0  0
  147.5400  156.7650  132.5980 C   0  0  0  0  0  0  0  0  0  0  0  0
  148.6880  156.1860  133.2150 N   0  0  0  0  0  0  0  0  0  0  0  0
  146.7790  156.0430  131.8990 O   0  0  0  0  0  0  0  0  0  0  0  0
  150.7570  160.8420  131.6920 H   0  0  0  0  0  0  0  0  0  0  0  0
  147.7356  161.4442  132.5892 H   0  0  0  0  0  0  0  0  0  0  0  0
  145.1174  161.9292  133.6283 H   0  0  0  0  0  0  0  0  0  0  0  0
  143.0252  160.7669  134.4043 H   0  0  0  0  0  0  0  0  0  0  0  0
  142.7903  157.3199  135.2840 H   0  0  0  0  0  0  0  0  0  0  0  0
  141.8576  158.8179  134.9129 H   0  0  0  0  0  0  0  0  0  0  0  0
  142.2615  157.8573  132.3923 H   0  0  0  0  0  0  0  0  0  0  0  0
  142.1930  156.3121  133.3488 H   0  0  0  0  0  0  0  0  0  0  0  0
  140.8504  159.6484  132.1073 H   0  0  0  0  0  0  0  0  0  0  0  0
  140.6792  158.9466  130.4764 H   0  0  0  0  0  0  0  0  0  0  0  0
  139.2646  161.2442  131.6721 H   0  0  0  0  0  0  0  0  0  0  0  0
  139.2808  160.7396  129.9798 H   0  0  0  0  0  0  0  0  0  0  0  0
  137.0624  160.4970  131.6171 H   0  0  0  0  0  0  0  0  0  0  0  0
  137.3235  159.4142  130.2556 H   0  0  0  0  0  0  0  0  0  0  0  0
  137.9008  158.9934  133.2134 H   0  0  0  0  0  0  0  0  0  0  0  0
  137.2668  157.8225  132.0427 H   0  0  0  0  0  0  0  0  0  0  0  0
  144.8877  156.9000  133.6400 H   0  0  0  0  0  0  0  0  0  0  0  0
  149.5210  156.7690  133.4520 H   0  0  0  0  0  0  0  0  0  0  0  0
  1  2  1  0
  2  3  2  0
  2  4  1  0
  4  5  2  0
  5  6  1  0
  6  7  2  0
  7  8  1  0
  8  9  2  0
  9 10  1  0
 10 11  1  0
 11 12  1  0
 12 13  2  0
 12 14  2  0
 12 15  1  0
 15 16  1  0
 16 17  1  0
 17 18  1  0
 18 19  1  0
  9 20  1  0
 20 21  2  0
 21 22  1  0
 22 23  1  0
 23 24  1  0
 23 25  2  0
 22  4  1  0
 21  6  1  0
 19 15  1  0
  1 26  1  0
  5 27  1  0
  7 28  1  0
  8 29  1  0
 10 30  1  0
 10 31  1  0
 11 32  1  0
 11 33  1  0
 16 34  1  0
 16 35  1  0
 17 36  1  0
 17 37  1  0
 18 38  1  0
 18 39  1  0
 19 40  1  0
 19 41  1  0
 20 42  1  0
 24 43  1  0
M  CHG  2   1  -1  24  -1
M  END
>  <UniqueID>  (35) 
33

>  <SMILES>  (35) 
[NH-]C(=O)c1cc2ccc(CCS(=O)(=O)N3CCCC3)cc2n1C([NH-])=O

>  <Energy>  (35) 
78.45924363236138

>  <Genealogy>  (35) 
[NH-]C(=O)c1cc2ccc(CCS(=O)(=O)N3CCCC3)cc2n1C([NH-])=O (protonated)
[NH-]C(=O)c1cc2ccc(CCS(=O)(=O)N3CCCC3)cc2n1C([NH-])=O (3D coordinates assigned)
[NH-]C(=O)c1cc2ccc(CCS(=O)(=O)N3CCCC3)cc2n1C([NH-])=O (nonaromatic ring conformer: 78.45924363236138 kcal/mol)

>  <smiles>  (35) 
NC(=O)c1cc2ccc(CCS(=O)(=O)N3CCCC3)cc2n1C(N)=O

>  <score_type>  (35) 
oracle

>  <origin>  (35) 
adg

>  <m_score__min__energy>  (35) 
-8.6400000000000006

>  <m_primary>  (35) 
energy

$$$$
35:0
     RDKit          3D

 35 36  0  0  0  0  0  0  0  0999 V2000
  150.2790  150.7340  131.5910 C   0  0  0  0  0  0  0  0  0  0  0  0
  150.2480  151.4020  132.8320 O   0  0  0  0  0  0  0  0  0  0  0  0
  149.1370  152.2750  132.8970 C   0  0  0  0  0  0  0  0  0  0  0  0
  149.5780  153.7130  132.6060 C   0  0  0  0  0  0  0  0  0  0  0  0
  148.4650  154.6800  132.9010 C   0  0  0  0  0  0  0  0  0  0  0  0
  147.2540  154.2170  133.4760 C   0  0  0  0  0  0  0  0  0  0  0  0
  146.2160  155.1160  133.7780 C   0  0  0  0  0  0  0  0  0  0  0  0
  146.4230  156.4660  133.5110 C   0  0  0  0  0  0  0  0  0  0  0  0
  145.5900  157.5450  133.6970 C   0  0  0  0  0  0  0  0  0  0  0  0
  146.3160  158.6530  133.2600 C   0  0  0  0  0  0  0  0  0  0  0  0
  145.8430  160.0500  133.3720 C   0  0  0  0  0  0  0  0  0  0  0  0
  146.7430  161.1010  133.7300 N   0  0  0  0  0  0  0  0  0  0  0  0
  144.6400  160.3320  133.1250 O   0  0  0  0  0  0  0  0  0  0  0  0
  147.5460  158.2710  132.8170 N   0  0  0  0  0  0  0  0  0  0  0  0
  148.5740  159.0910  132.2380 C   0  0  0  0  0  0  0  0  0  0  0  0
  148.9160  158.9840  130.7860 C   0  0  0  0  0  0  0  0  0  0  0  0
  149.2290  159.8820  132.9680 O   0  0  0  0  0  0  0  0  0  0  0  0
  147.5970  156.9310  132.9800 C   0  0  0  0  0  0  0  0  0  0  0  0
  148.6430  156.0600  132.6560 C   0  0  0  0  0  0  0  0  0  0  0  0
  150.3294  149.6483  131.7602 H   0  0  0  0  0  0  0  0  0  0  0  0
  149.3687  150.9746  131.0222 H   0  0  0  0  0  0  0  0  0  0  0  0
  151.1631  151.0579  131.0222 H   0  0  0  0  0  0  0  0  0  0  0  0
  148.3882  151.9666  132.1525 H   0  0  0  0  0  0  0  0  0  0  0  0
  148.7027  152.2295  133.9066 H   0  0  0  0  0  0  0  0  0  0  0  0
  150.4462  153.9588  133.2352 H   0  0  0  0  0  0  0  0  0  0  0  0
  149.8433  153.7931  131.5415 H   0  0  0  0  0  0  0  0  0  0  0  0
  147.1257  153.1452  133.6875 H   0  0  0  0  0  0  0  0  0  0  0  0
  145.2690  154.7629  134.2122 H   0  0  0  0  0  0  0  0  0  0  0  0
  144.5681  157.5359  134.1040 H   0  0  0  0  0  0  0  0  0  0  0  0
  146.4070  162.0890  133.7680 H   0  0  0  0  0  0  0  0  0  0  0  0
  147.7320  160.9010  133.9980 H   0  0  0  0  0  0  0  0  0  0  0  0
  149.9608  158.6571  130.6785 H   0  0  0  0  0  0  0  0  0  0  0  0
  148.2512  158.2509  130.3058 H   0  0  0  0  0  0  0  0  0  0  0  0
  148.7876  159.9653  130.3058 H   0  0  0  0  0  0  0  0  0  0  0  0
  149.5796  156.4398  132.2218 H   0  0  0  0  0  0  0  0  0  0  0  0
  1  2  1  0
  2  3  1  0
  3  4  1  0
  4  5  1  0
  5  6  2  0
  6  7  1  0
  7  8  2  0
  8  9  1  0
  9 10  2  0
 10 11  1  0
 11 12  1  0
 11 13  2  0
 10 14  1  0
 14 15  1  0
 15 16  1  0
 15 17  2  0
 14 18  1  0
 18 19  2  0
 19  5  1  0
 18  8  1  0
  1 20  1  0
  1 21  1  0
  1 22  1  0
  3 23  1  0
  3 24  1  0
  4 25  1  0
  4 26  1  0
  6 27  1  0
  7 28  1  0
  9 29  1  0
 12 30  1  0
 12 31  1  0
 16 32  1  0
 16 33  1  0
 16 34  1  0
 19 35  1  0
M  END
>  <UniqueID>  (36) 
34

>  <SMILES>  (36) 
COCCc1ccc2cc(C(N)=O)n(C(C)=O)c2c1

>  <Energy>  (36) 
72.81098456567764

>  <Genealogy>  (36) 
COCCc1ccc2cc(C(N)=O)n(C(C)=O)c2c1 (3D coordinates assigned)
COCCc1ccc2cc(C(N)=O)n(C(C)=O)c2c1 (optimized conformer: 72.81098456567764 kcal/mol)

>  <smiles>  (36) 
COCCc1ccc2cc(C(N)=O)n(C(C)=O)c2c1

>  <score_type>  (36) 
oracle

>  <origin>  (36) 
adg

>  <m_score__min__energy>  (36) 
-6.1399999999999997

>  <m_primary>  (36) 
energy

$$$$
36:0
     RDKit          3D

 47 49  0  0  0  0  0  0  0  0999 V2000
  139.6300  148.8390  131.4360 C   0  0  0  0  0  0  0  0  0  0  0  0
  140.5240  149.5490  132.4660 C   0  0  0  0  0  0  0  0  0  0  0  0
  142.0020  149.2700  132.1320 C   0  0  0  0  0  0  0  0  0  0  0  0
  140.2260  149.0040  133.7290 O   0  0  0  0  0  0  0  0  0  0  0  0
  140.2190  151.0730  132.4910 C   0  0  0  0  0  0  0  0  0  0  0  0
  141.2820  151.8500  133.1360 N   0  0  0  0  0  0  0  0  0  0  0  0
  141.9300  152.9980  132.5220 C   0  0  0  0  0  0  0  0  0  0  0  0
  142.9220  153.5340  133.5800 C   0  0  1  0  0  0  0  0  0  0  0  0
  142.9560  155.0500  133.6350 C   0  0  0  0  0  0  0  0  0  0  0  0
  141.7540  155.8020  133.7210 C   0  0  0  0  0  0  0  0  0  0  0  0
  141.7850  157.2050  133.7530 C   0  0  0  0  0  0  0  0  0  0  0  0
  143.0260  157.8320  133.7090 C   0  0  0  0  0  0  0  0  0  0  0  0
  143.3360  159.1710  133.6860 C   0  0  0  0  0  0  0  0  0  0  0  0
  144.7250  159.2250  133.6180 C   0  0  0  0  0  0  0  0  0  0  0  0
  145.4910  160.4870  133.6240 C   0  0  0  0  0  0  0  0  0  0  0  0
  146.7710  160.5810  132.9970 N   0  0  0  0  0  0  0  0  0  0  0  0
  145.0320  161.4860  134.2390 O   0  0  0  0  0  0  0  0  0  0  0  0
  145.2550  157.9700  133.5890 N   0  0  0  0  0  0  0  0  0  0  0  0
  146.6360  157.6110  133.4060 C   0  0  0  0  0  0  0  0  0  0  0  0
  147.0030  156.6180  132.4520 N   0  0  0  0  0  0  0  0  0  0  0  0
  147.5310  158.1670  134.0970 O   0  0  0  0  0  0  0  0  0  0  0  0
  144.1990  157.1250  133.6470 C   0  0  0  0  0  0  0  0  0  0  0  0
  144.1970  155.7260  133.5890 C   0  0  0  0  0  0  0  0  0  0  0  0
  142.5260  152.8950  134.9280 C   0  0  0  0  0  0  0  0  0  0  0  0
  141.5630  151.8490  134.5260 C   0  0  0  0  0  0  0  0  0  0  0  0
  141.0050  151.0680  135.3420 O   0  0  0  0  0  0  0  0  0  0  0  0
  138.8728  148.2376  131.9604 H   0  0  0  0  0  0  0  0  0  0  0  0
  139.1303  149.5890  130.8054 H   0  0  0  0  0  0  0  0  0  0  0  0
  140.2474  148.1824  130.8054 H   0  0  0  0  0  0  0  0  0  0  0  0
  142.5746  149.1619  133.0649 H   0  0  0  0  0  0  0  0  0  0  0  0
  142.0767  148.3419  131.5463 H   0  0  0  0  0  0  0  0  0  0  0  0
  142.4099  150.1070  131.5463 H   0  0  0  0  0  0  0  0  0  0  0  0
  139.7510  149.6980  134.2590 H   0  0  0  0  0  0  0  0  0  0  0  0
  140.1031  151.4262  131.4557 H   0  0  0  0  0  0  0  0  0  0  0  0
  139.2983  151.2191  133.0749 H   0  0  0  0  0  0  0  0  0  0  0  0
  142.4674  152.6936  131.6118 H   0  0  0  0  0  0  0  0  0  0  0  0
  141.2000  153.7652  132.2245 H   0  0  0  0  0  0  0  0  0  0  0  0
  143.9521  153.2535  133.3149 H   0  0  0  0  0  0  0  0  0  0  0  0
  140.7874  155.2787  133.7630 H   0  0  0  0  0  0  0  0  0  0  0  0
  140.8559  157.7910  133.8111 H   0  0  0  0  0  0  0  0  0  0  0  0
  142.6357  160.0188  133.7151 H   0  0  0  0  0  0  0  0  0  0  0  0
  147.2790  161.4930  132.9760 H   0  0  0  0  0  0  0  0  0  0  0  0
  147.2580  159.7320  132.6340 H   0  0  0  0  0  0  0  0  0  0  0  0
  146.6230  156.6400  131.4800 H   0  0  0  0  0  0  0  0  0  0  0  0
  145.1400  155.1653  133.5094 H   0  0  0  0  0  0  0  0  0  0  0  0
  143.4007  152.4560  135.4302 H   0  0  0  0  0  0  0  0  0  0  0  0
  142.1093  153.6170  135.6457 H   0  0  0  0  0  0  0  0  0  0  0  0
  1  2  1  0
  2  3  1  0
  2  4  1  0
  2  5  1  0
  5  6  1  0
  6  7  1  0
  7  8  1  0
  8  9  1  0
  9 10  2  0
 10 11  1  0
 11 12  2  0
 12 13  1  0
 13 14  2  0
 14 15  1  0
 15 16  1  0
 15 17  2  0
 14 18  1  0
 18 19  1  0
 19 20  1  0
 19 21  2  0
 18 22  1  0
 22 23  2  0
  8 24  1  0
 24 25  1  0
 25 26  2  0
 25  6  1  0
 23  9  1  0
 22 12  1  0
  1 27  1  0
  1 28  1  0
  1 29  1  0
  3 30  1  0
  3 31  1  0
  3 32  1  0
  4 33  1  0
  5 34  1  0
  5 35  1  0
  7 36  1  0
  7 37  1  0
  8 38  1  6
 10 39  1  0
 11 40  1  0
 13 41  1  0
 16 42  1  0
 16 43  1  0
 20 44  1  0
 23 45  1  0
 24 46  1  0
 24 47  1  0
M  CHG  1  20  -1
M  END
>  <UniqueID>  (37) 
35

>  <SMILES>  (37) 
CC(C)(O)CN1C[C@@H](c2ccc3cc(C(N)=O)n(C([NH-])=O)c3c2)CC1=O

>  <Energy>  (37) 
91.95172763186164

>  <Genealogy>  (37) 
CC(C)(O)CN1C[C@@H](c2ccc3cc(C(N)=O)n(C([NH-])=O)c3c2)CC1=O (protonated)
CC(C)(O)CN1C[C@@H](c2ccc3cc(C(N)=O)n(C([NH-])=O)c3c2)CC1=O (3D coordinates assigned)
CC(C)(O)CN1C[C@@H](c2ccc3cc(C(N)=O)n(C([NH-])=O)c3c2)CC1=O (nonaromatic ring conformer: 91.95172763186164 kcal/mol)

>  <smiles>  (37) 
CC(C)(O)CN1C[C@@H](c2ccc3cc(C(N)=O)n(C(N)=O)c3c2)CC1=O

>  <score_type>  (37) 
oracle

>  <origin>  (37) 
adg

>  <m_score__min__energy>  (37) 
-8.6799999999999997

>  <m_primary>  (37) 
energy

$$$$
37:0
     RDKit          3D

 37 39  0  0  0  0  0  0  0  0999 V2000
  149.2000  161.1830  130.7260 C   0  0  0  0  0  0  0  0  0  0  0  0
  149.5470  159.7610  130.3170 C   0  0  0  0  0  0  0  0  0  0  0  0
  148.6030  158.8590  130.8850 O   0  0  0  0  0  0  0  0  0  0  0  0
  148.9050  158.0350  131.9730 C   0  0  0  0  0  0  0  0  0  0  0  0
  150.0980  157.6930  132.1990 O   0  0  0  0  0  0  0  0  0  0  0  0
  147.8480  157.5610  132.8210 N   0  0  0  0  0  0  0  0  0  0  0  0
  146.7920  158.2710  133.3110 C   0  0  0  0  0  0  0  0  0  0  0  0
  146.6080  159.7340  133.2090 C   0  0  0  0  0  0  0  0  0  0  0  0
  145.3150  160.2970  133.0010 N   0  0  0  0  0  0  0  0  0  0  0  0
  147.6110  160.4940  133.2580 O   0  0  0  0  0  0  0  0  0  0  0  0
  145.9230  157.4370  134.0080 C   0  0  0  0  0  0  0  0  0  0  0  0
  146.4860  156.1830  133.9380 C   0  0  0  0  0  0  0  0  0  0  0  0
  146.0350  154.9700  134.4500 C   0  0  0  0  0  0  0  0  0  0  0  0
  146.8040  153.8230  134.1990 C   0  0  0  0  0  0  0  0  0  0  0  0
  148.0010  153.9010  133.4390 C   0  0  0  0  0  0  0  0  0  0  0  0
  148.7990  152.6780  133.1700 C   0  0  0  0  0  0  0  0  0  0  0  0
  149.2330  151.8590  134.2260 C   0  0  0  0  0  0  0  0  0  0  0  0
  149.9830  150.7140  133.9520 C   0  0  0  0  0  0  0  0  0  0  0  0
  150.2940  150.3920  132.6690 N   0  0  0  0  0  0  0  0  0  0  0  0
  149.8910  151.1610  131.6240 C   0  0  0  0  0  0  0  0  0  0  0  0
  150.3260  150.7020  129.9900 Cl  0  0  0  0  0  0  0  0  0  0  0  0
  149.1370  152.3170  131.8540 C   0  0  0  0  0  0  0  0  0  0  0  0
  148.4230  155.1540  132.9360 C   0  0  0  0  0  0  0  0  0  0  0  0
  147.6470  156.2840  133.2180 C   0  0  0  0  0  0  0  0  0  0  0  0
  149.1824  161.2549  131.8235 H   0  0  0  0  0  0  0  0  0  0  0  0
  149.9557  161.8746  130.3253 H   0  0  0  0  0  0  0  0  0  0  0  0
  148.2107  161.4487  130.3253 H   0  0  0  0  0  0  0  0  0  0  0  0
  149.5194  159.6780  129.2205 H   0  0  0  0  0  0  0  0  0  0  0  0
  150.5554  159.5116  130.6788 H   0  0  0  0  0  0  0  0  0  0  0  0
  145.1790  161.3310  132.9640 H   0  0  0  0  0  0  0  0  0  0  0  0
  144.9853  157.7199  134.5086 H   0  0  0  0  0  0  0  0  0  0  0  0
  145.1043  154.9120  135.0335 H   0  0  0  0  0  0  0  0  0  0  0  0
  146.4753  152.8513  134.5961 H   0  0  0  0  0  0  0  0  0  0  0  0
  148.9826  152.1192  135.2650 H   0  0  0  0  0  0  0  0  0  0  0  0
  150.3232  150.0707  134.7769 H   0  0  0  0  0  0  0  0  0  0  0  0
  148.8101  152.9406  131.0089 H   0  0  0  0  0  0  0  0  0  0  0  0
  149.3412  155.2384  132.3362 H   0  0  0  0  0  0  0  0  0  0  0  0
  1  2  1  0
  2  3  1  0
  3  4  1  0
  4  5  2  0
  4  6  1  0
  6  7  1  0
  7  8  1  0
  8  9  1  0
  8 10  2  0
  7 11  2  0
 11 12  1  0
 12 13  2  0
 13 14  1  0
 14 15  2  0
 15 16  1  0
 16 17  2  0
 17 18  1  0
 18 19  2  0
 19 20  1  0
 20 21  1  0
 20 22  2  0
 15 23  1  0
 23 24  2  0
 24  6  1  0
 24 12  1  0
 22 16  1  0
  1 25  1  0
  1 26  1  0
  1 27  1  0
  2 28  1  0
  2 29  1  0
  9 30  1  0
 11 31  1  0
 13 32  1  0
 14 33  1  0
 17 34  1  0
 18 35  1  0
 22 36  1  0
 23 37  1  0
M  CHG  1   9  -1
M  END
>  <UniqueID>  (38) 
36

>  <SMILES>  (38) 
CCOC(=O)n1c(C([NH-])=O)cc2ccc(-c3ccnc(Cl)c3)cc21

>  <Energy>  (38) 
79.60233963073607

>  <Genealogy>  (38) 
CCOC(=O)n1c(C([NH-])=O)cc2ccc(-c3ccnc(Cl)c3)cc21 (protonated)
CCOC(=O)n1c(C([NH-])=O)cc2ccc(-c3ccnc(Cl)c3)cc21 (3D coordinates assigned)
CCOC(=O)n1c(C([NH-])=O)cc2ccc(-c3ccnc(Cl)c3)cc21 (optimized conformer: 79.60233963073607 kcal/mol)

>  <smiles>  (38) 
CCOC(=O)n1c(C(N)=O)cc2ccc(-c3ccnc(Cl)c3)cc21

>  <score_type>  (38) 
oracle

>  <origin>  (38) 
adg

>  <m_score__min__energy>  (38) 
-8.0399999999999991

>  <m_primary>  (38) 
energy

$$$$
38:0
     RDKit          3D

 51 53  0  0  0  0  0  0  0  0999 V2000
  139.8460  149.5870  129.6400 C   0  0  0  0  0  0  0  0  0  0  0  0
  139.9640  149.3060  131.1490 C   0  0  0  0  0  0  0  0  0  0  0  0
  138.6310  149.6630  131.8260 C   0  0  0  0  0  0  0  0  0  0  0  0
  140.2680  147.8170  131.4040 C   0  0  0  0  0  0  0  0  0  0  0  0
  140.9730  150.1370  131.7410 O   0  0  0  0  0  0  0  0  0  0  0  0
  141.0760  150.4850  133.0990 C   0  0  0  0  0  0  0  0  0  0  0  0
  140.7440  149.6670  133.9980 O   0  0  0  0  0  0  0  0  0  0  0  0
  141.5630  151.7920  133.4560 N   0  0  0  0  0  0  0  0  0  0  0  0
  141.8000  152.7750  132.3880 C   0  0  0  0  0  0  0  0  0  0  0  0
  142.1840  154.1410  132.9580 C   0  0  0  0  0  0  0  0  0  0  0  0
  143.2140  153.9680  133.9900 N   0  0  0  0  0  0  0  0  0  0  0  0
  144.4610  154.6830  133.9090 C   0  0  0  0  0  0  0  0  0  0  0  0
  145.6920  153.9790  133.9420 C   0  0  0  0  0  0  0  0  0  0  0  0
  146.9140  154.6640  133.8390 C   0  0  0  0  0  0  0  0  0  0  0  0
  146.8760  156.0490  133.7070 C   0  0  0  0  0  0  0  0  0  0  0  0
  147.9040  156.9520  133.5590 C   0  0  0  0  0  0  0  0  0  0  0  0
  147.2880  158.1980  133.4550 C   0  0  0  0  0  0  0  0  0  0  0  0
  148.0370  159.4700  133.3750 C   0  0  0  0  0  0  0  0  0  0  0  0
  147.8020  160.3920  132.3150 N   0  0  0  0  0  0  0  0  0  0  0  0
  148.8590  159.7680  134.2820 O   0  0  0  0  0  0  0  0  0  0  0  0
  145.9330  158.0690  133.5250 N   0  0  0  0  0  0  0  0  0  0  0  0
  144.9410  159.0950  133.3640 C   0  0  0  0  0  0  0  0  0  0  0  0
  145.2650  160.4570  133.6360 N   0  0  0  0  0  0  0  0  0  0  0  0
  143.7880  158.8010  132.9500 O   0  0  0  0  0  0  0  0  0  0  0  0
  145.6980  156.7470  133.6840 C   0  0  0  0  0  0  0  0  0  0  0  0
  144.4660  156.0900  133.7670 C   0  0  0  0  0  0  0  0  0  0  0  0
  143.0090  152.9860  135.0660 C   0  0  0  0  0  0  0  0  0  0  0  0
  141.7160  152.1830  134.8680 C   0  0  0  0  0  0  0  0  0  0  0  0
  139.4243  150.5912  129.4859 H   0  0  0  0  0  0  0  0  0  0  0  0
  140.8428  149.5331  129.1779 H   0  0  0  0  0  0  0  0  0  0  0  0
  139.1866  148.8375  129.1779 H   0  0  0  0  0  0  0  0  0  0  0  0
  138.7542  149.6300  132.9186 H   0  0  0  0  0  0  0  0  0  0  0  0
  138.3247  150.6748  131.5220 H   0  0  0  0  0  0  0  0  0  0  0  0
  137.8601  148.9397  131.5220 H   0  0  0  0  0  0  0  0  0  0  0  0
  140.3060  147.6309  132.4875 H   0  0  0  0  0  0  0  0  0  0  0  0
  139.4775  147.1990  130.9533 H   0  0  0  0  0  0  0  0  0  0  0  0
  141.2375  147.5583  130.9533 H   0  0  0  0  0  0  0  0  0  0  0  0
  142.6160  152.4140  131.7447 H   0  0  0  0  0  0  0  0  0  0  0  0
  140.8695  152.8905  131.8129 H   0  0  0  0  0  0  0  0  0  0  0  0
  142.5762  154.7779  132.1514 H   0  0  0  0  0  0  0  0  0  0  0  0
  141.2965  154.6163  133.4013 H   0  0  0  0  0  0  0  0  0  0  0  0
  145.6896  152.8843  134.0495 H   0  0  0  0  0  0  0  0  0  0  0  0
  147.8713  154.1226  133.8620 H   0  0  0  0  0  0  0  0  0  0  0  0
  148.9822  156.7363  133.5292 H   0  0  0  0  0  0  0  0  0  0  0  0
  146.9030  160.9190  132.2490 H   0  0  0  0  0  0  0  0  0  0  0  0
  145.8240  161.0210  132.9580 H   0  0  0  0  0  0  0  0  0  0  0  0
  143.5230  156.6546  133.7228 H   0  0  0  0  0  0  0  0  0  0  0  0
  143.8611  152.2905  135.0801 H   0  0  0  0  0  0  0  0  0  0  0  0
  142.9287  153.5333  136.0168 H   0  0  0  0  0  0  0  0  0  0  0  0
  141.7526  151.2781  135.4923 H   0  0  0  0  0  0  0  0  0  0  0  0
  140.8599  152.8096  135.1586 H   0  0  0  0  0  0  0  0  0  0  0  0
  1  2  1  0
  2  3  1  0
  2  4  1  0
  2  5  1  0
  5  6  1  0
  6  7  2  0
  6  8  1  0
  8  9  1  0
  9 10  1  0
 10 11  1  0
 11 12  1  0
 12 13  2  0
 13 14  1  0
 14 15  2  0
 15 16  1  0
 16 17  2  0
 17 18  1  0
 18 19  1  0
 18 20  2  0
 17 21  1  0
 21 22  1  0
 22 23  1  0
 22 24  2  0
 21 25  1  0
 25 26  2  0
 11 27  1  0
 27 28  1  0
 28  8  1  0
 26 12  1  0
 25 15  1  0
  1 29  1  0
  1 30  1  0
  1 31  1  0
  3 32  1  0
  3 33  1  0
  3 34  1  0
  4 35  1  0
  4 36  1  0
  4 37  1  0
  9 38  1  0
  9 39  1  0
 10 40  1  0
 10 41  1  0
 13 42  1  0
 14 43  1  0
 16 44  1  0
 19 45  1  0
 23 46  1  0
 26 47  1  0
 27 48  1  0
 27 49  1  0
 28 50  1  0
 28 51  1  0
M  CHG  2  19  -1  23  -1
M  END
>  <UniqueID>  (39) 
37

>  <SMILES>  (39) 
CC(C)(C)OC(=O)N1CCN(c2ccc3cc(C([NH-])=O)n(C([NH-])=O)c3c2)CC1

>  <Energy>  (39) 
90.55665198437666

>  <Genealogy>  (39) 
CC(C)(C)OC(=O)N1CCN(c2ccc3cc(C([NH-])=O)n(C([NH-])=O)c3c2)CC1 (protonated)
CC(C)(C)OC(=O)N1CCN(c2ccc3cc(C([NH-])=O)n(C([NH-])=O)c3c2)CC1 (3D coordinates assigned)
CC(C)(C)OC(=O)N1CCN(c2ccc3cc(C([NH-])=O)n(C([NH-])=O)c3c2)CC1 (nonaromatic ring conformer: 90.55665198437666 kcal/mol)

>  <smiles>  (39) 
CC(C)(C)OC(=O)N1CCN(c2ccc3cc(C(N)=O)n(C(N)=O)c3c2)CC1

>  <score_type>  (39) 
oracle

>  <origin>  (39) 
adg

>  <m_score__min__energy>  (39) 
-8.3399999999999999

>  <m_primary>  (39) 
energy

$$$$
39:0
     RDKit          3D

 35 37  0  0  0  0  0  0  0  0999 V2000
  140.4090  148.9480  132.1280 C   0  0  0  0  0  0  0  0  0  0  0  0
  141.1470  150.2120  132.4260 C   0  0  0  0  0  0  0  0  0  0  0  0
  142.4030  150.2330  132.3130 O   0  0  0  0  0  0  0  0  0  0  0  0
  140.4240  151.3690  132.8720 N   0  0  0  0  0  0  0  0  0  0  0  0
  141.0060  152.6510  133.1560 C   0  0  0  0  0  0  0  0  0  0  0  0
  142.2650  152.7840  133.6230 N   0  0  0  0  0  0  0  0  0  0  0  0
  142.6020  154.0860  133.8310 C   0  0  0  0  0  0  0  0  0  0  0  0
  141.6010  155.0150  133.5280 C   0  0  0  0  0  0  0  0  0  0  0  0
  141.6830  156.4930  133.6550 C   0  0  0  0  0  0  0  0  0  0  0  0
  140.5080  157.2510  133.9100 C   0  0  0  0  0  0  0  0  0  0  0  0
  140.5610  158.6500  134.0230 C   0  0  0  0  0  0  0  0  0  0  0  0
  141.7970  159.2690  133.8880 C   0  0  0  0  0  0  0  0  0  0  0  0
  142.1280  160.6040  133.9310 C   0  0  0  0  0  0  0  0  0  0  0  0
  143.5060  160.6500  133.7290 C   0  0  0  0  0  0  0  0  0  0  0  0
  144.2940  161.8980  133.7900 C   0  0  0  0  0  0  0  0  0  0  0  0
  145.6820  161.8730  134.1160 N   0  0  0  0  0  0  0  0  0  0  0  0
  143.7260  163.0060  133.6000 O   0  0  0  0  0  0  0  0  0  0  0  0
  144.0060  159.3930  133.5590 N   0  0  0  0  0  0  0  0  0  0  0  0
  145.3530  159.0190  133.2340 C   0  0  0  0  0  0  0  0  0  0  0  0
  146.1000  159.7760  132.2830 N   0  0  0  0  0  0  0  0  0  0  0  0
  145.8740  158.0020  133.7650 O   0  0  0  0  0  0  0  0  0  0  0  0
  142.9470  158.5590  133.6610 C   0  0  0  0  0  0  0  0  0  0  0  0
  142.9230  157.1660  133.5270 C   0  0  0  0  0  0  0  0  0  0  0  0
  140.2580  154.1490  132.9840 S   0  0  0  0  0  0  0  0  0  0  0  0
  140.1235  148.4590  133.0711 H   0  0  0  0  0  0  0  0  0  0  0  0
  139.5044  149.1799  131.5467 H   0  0  0  0  0  0  0  0  0  0  0  0
  141.0556  148.2742  131.5467 H   0  0  0  0  0  0  0  0  0  0  0  0
  139.3910  151.2770  133.0040 H   0  0  0  0  0  0  0  0  0  0  0  0
  143.5901  154.3862  134.2100 H   0  0  0  0  0  0  0  0  0  0  0  0
  139.5431  156.7345  134.0205 H   0  0  0  0  0  0  0  0  0  0  0  0
  139.6508  159.2378  134.2127 H   0  0  0  0  0  0  0  0  0  0  0  0
  141.4489  161.4544  134.0909 H   0  0  0  0  0  0  0  0  0  0  0  0
  146.3980  161.6230  133.3980 H   0  0  0  0  0  0  0  0  0  0  0  0
  146.0480  160.8180  132.2680 H   0  0  0  0  0  0  0  0  0  0  0  0
  143.8479  156.6053  133.3264 H   0  0  0  0  0  0  0  0  0  0  0  0
  1  2  1  0
  2  3  2  0
  2  4  1  0
  4  5  1  0
  5  6  2  0
  6  7  1  0
  7  8  2  0
  8  9  1  0
  9 10  2  0
 10 11  1  0
 11 12  2  0
 12 13  1  0
 13 14  2  0
 14 15  1  0
 15 16  1  0
 15 17  2  0
 14 18  1  0
 18 19  1  0
 19 20  1  0
 19 21  2  0
 18 22  1  0
 22 23  2  0
  8 24  1  0
 24  5  1  0
 23  9  1  0
 22 12  1  0
  1 25  1  0
  1 26  1  0
  1 27  1  0
  4 28  1  0
  7 29  1  0
 10 30  1  0
 11 31  1  0
 13 32  1  0
 16 33  1  0
 20 34  1  0
 23 35  1  0
M  CHG  2  16  -1  20  -1
M  END
>  <UniqueID>  (40) 
38

>  <SMILES>  (40) 
CC(=O)Nc1ncc(-c2ccc3cc(C([NH-])=O)n(C([NH-])=O)c3c2)s1

>  <Energy>  (40) 
108.8071692720498

>  <Genealogy>  (40) 
CC(=O)Nc1ncc(-c2ccc3cc(C([NH-])=O)n(C([NH-])=O)c3c2)s1 (protonated)
CC(=O)Nc1ncc(-c2ccc3cc(C([NH-])=O)n(C([NH-])=O)c3c2)s1 (3D coordinates assigned)
CC(=O)Nc1ncc(-c2ccc3cc(C([NH-])=O)n(C([NH-])=O)c3c2)s1 (optimized conformer: 108.8071692720498 kcal/mol)

>  <smiles>  (40) 
CC(=O)Nc1ncc(-c2ccc3cc(C(N)=O)n(C(N)=O)c3c2)s1

>  <score_type>  (40) 
oracle

>  <origin>  (40) 
adg

>  <m_score__min__energy>  (40) 
-8

>  <m_primary>  (40) 
energy

$$$$
40:0
     RDKit          3D

 48 50  0  0  0  0  0  0  0  0999 V2000
  144.4010  154.6750  131.7850 C   0  0  0  0  0  0  0  0  0  0  0  0
  145.3690  154.3000  132.9020 C   0  0  0  0  0  0  0  0  0  0  0  0
  145.8260  155.4650  133.5850 O   0  0  0  0  0  0  0  0  0  0  0  0
  146.5850  156.4690  132.9740 C   0  0  0  0  0  0  0  0  0  0  0  0
  147.5760  156.1700  132.2540 O   0  0  0  0  0  0  0  0  0  0  0  0
  146.2160  157.8470  133.1480 N   0  0  0  0  0  0  0  0  0  0  0  0
  147.0030  158.9510  133.0000 C   0  0  0  0  0  0  0  0  0  0  0  0
  148.4600  158.9520  132.7550 C   0  0  0  0  0  0  0  0  0  0  0  0
  148.9680  158.5270  131.4920 N   0  0  0  0  0  0  0  0  0  0  0  0
  149.2620  159.3610  133.6360 O   0  0  0  0  0  0  0  0  0  0  0  0
  146.2550  160.1110  133.1920 C   0  0  0  0  0  0  0  0  0  0  0  0
  144.9790  159.6810  133.4740 C   0  0  0  0  0  0  0  0  0  0  0  0
  143.8260  160.4130  133.7370 C   0  0  0  0  0  0  0  0  0  0  0  0
  142.6340  159.7060  133.9670 C   0  0  0  0  0  0  0  0  0  0  0  0
  142.6140  158.2880  133.9290 C   0  0  0  0  0  0  0  0  0  0  0  0
  141.3800  157.5740  134.1380 N   0  0  0  0  0  0  0  0  0  0  0  0
  141.0780  156.3750  133.3500 C   0  0  0  0  0  0  0  0  0  0  0  0
  139.5670  156.0890  133.3570 C   0  0  0  0  0  0  0  0  0  0  0  0
  138.7790  157.3400  133.2910 N   0  0  0  0  0  0  0  0  0  0  0  0
  138.9610  158.0420  132.0010 C   0  0  0  0  0  0  0  0  0  0  0  0
  139.1310  159.5410  132.2320 C   0  0  0  0  0  0  0  0  0  0  0  0
  139.0200  158.2270  134.4630 C   0  0  0  0  0  0  0  0  0  0  0  0
  140.3970  158.0260  135.1280 C   0  0  0  0  0  0  0  0  0  0  0  0
  143.8060  157.5810  133.6490 C   0  0  0  0  0  0  0  0  0  0  0  0
  144.9820  158.3110  133.4410 C   0  0  0  0  0  0  0  0  0  0  0  0
  143.4599  155.0396  132.2224 H   0  0  0  0  0  0  0  0  0  0  0  0
  144.8469  155.4655  131.1634 H   0  0  0  0  0  0  0  0  0  0  0  0
  144.1980  153.7905  131.1634 H   0  0  0  0  0  0  0  0  0  0  0  0
  144.8567  153.6397  133.6172 H   0  0  0  0  0  0  0  0  0  0  0  0
  146.2357  153.7857  132.4611 H   0  0  0  0  0  0  0  0  0  0  0  0
  148.8280  157.5480  131.1600 H   0  0  0  0  0  0  0  0  0  0  0  0
  146.6097  161.1504  133.1310 H   0  0  0  0  0  0  0  0  0  0  0  0
  143.8468  161.5125  133.7641 H   0  0  0  0  0  0  0  0  0  0  0  0
  141.7063  160.2578  134.1788 H   0  0  0  0  0  0  0  0  0  0  0  0
  141.4118  156.5301  132.3134 H   0  0  0  0  0  0  0  0  0  0  0  0
  141.6034  155.5169  133.7946 H   0  0  0  0  0  0  0  0  0  0  0  0
  139.3175  155.4629  132.4877 H   0  0  0  0  0  0  0  0  0  0  0  0
  139.3174  155.5724  134.2955 H   0  0  0  0  0  0  0  0  0  0  0  0
  139.8563  157.6488  131.4973 H   0  0  0  0  0  0  0  0  0  0  0  0
  138.0720  157.8754  131.3749 H   0  0  0  0  0  0  0  0  0  0  0  0
  139.1542  159.7452  133.3126 H   0  0  0  0  0  0  0  0  0  0  0  0
  140.0731  159.8779  131.7749 H   0  0  0  0  0  0  0  0  0  0  0  0
  138.2883  160.0803  131.7749 H   0  0  0  0  0  0  0  0  0  0  0  0
  138.9472  159.2719  134.1270 H   0  0  0  0  0  0  0  0  0  0  0  0
  138.2614  157.9714  135.2174 H   0  0  0  0  0  0  0  0  0  0  0  0
  140.7323  158.9790  135.5631 H   0  0  0  0  0  0  0  0  0  0  0  0
  140.3059  157.2632  135.9153 H   0  0  0  0  0  0  0  0  0  0  0  0
  143.8091  156.4823  133.5958 H   0  0  0  0  0  0  0  0  0  0  0  0
  1  2  1  0
  2  3  1  0
  3  4  1  0
  4  5  2  0
  4  6  1  0
  6  7  1  0
  7  8  1  0
  8  9  1  0
  8 10  2  0
  7 11  2  0
 11 12  1  0
 12 13  2  0
 13 14  1  0
 14 15  2  0
 15 16  1  0
 16 17  1  0
 17 18  1  0
 18 19  1  0
 19 20  1  0
 20 21  1  0
 19 22  1  0
 22 23  1  0
 15 24  1  0
 24 25  2  0
 25  6  1  0
 25 12  1  0
 23 16  1  0
  1 26  1  0
  1 27  1  0
  1 28  1  0
  2 29  1  0
  2 30  1  0
  9 31  1  0
 11 32  1  0
 13 33  1  0
 14 34  1  0
 17 35  1  0
 17 36  1  0
 18 37  1  0
 18 38  1  0
 20 39  1  0
 20 40  1  0
 21 41  1  0
 21 42  1  0
 21 43  1  0
 22 44  1  0
 22 45  1  0
 23 46  1  0
 23 47  1  0
 24 48  1  0
M  CHG  1   9  -1
M  END
>  <UniqueID>  (41) 
39

>  <SMILES>  (41) 
CCOC(=O)n1c(C([NH-])=O)cc2ccc(N3CCN(CC)CC3)cc21

>  <Energy>  (41) 
93.5489685907843

>  <Genealogy>  (41) 
CCOC(=O)n1c(C([NH-])=O)cc2ccc(N3CCN(CC)CC3)cc21 (protonated)
CCOC(=O)n1c(C([NH-])=O)cc2ccc(N3CCN(CC)CC3)cc21 (3D coordinates assigned)
CCOC(=O)n1c(C([NH-])=O)cc2ccc(N3CCN(CC)CC3)cc21 (nonaromatic ring conformer: 93.5489685907843 kcal/mol)

>  <smiles>  (41) 
CCOC(=O)n1c(C(N)=O)cc2ccc(N3CCN(CC)CC3)cc21

>  <score_type>  (41) 
oracle

>  <origin>  (41) 
adg

>  <m_score__min__energy>  (41) 
-7.0800000000000001

>  <m_primary>  (41) 
energy

$$$$
41:0
     RDKit          3D

 42 44  0  0  0  0  0  0  0  0999 V2000
  139.9010  156.7680  134.1500 C   0  0  0  0  0  0  0  0  0  0  0  0
  140.1690  155.5280  133.3580 C   0  0  0  0  0  0  0  0  0  0  0  0
  139.2590  155.0550  132.6260 O   0  0  0  0  0  0  0  0  0  0  0  0
  141.4710  154.9220  133.3590 N   0  0  0  0  0  0  0  0  0  0  0  0
  142.6860  155.5330  133.4500 C   0  0  0  0  0  0  0  0  0  0  0  0
  142.9160  156.9670  133.7240 C   0  0  0  0  0  0  0  0  0  0  0  0
  143.2350  157.8720  132.6720 N   0  0  0  0  0  0  0  0  0  0  0  0
  142.7910  157.4050  134.8980 O   0  0  0  0  0  0  0  0  0  0  0  0
  143.7110  154.5970  133.3270 C   0  0  0  0  0  0  0  0  0  0  0  0
  143.0810  153.3830  133.1680 C   0  0  0  0  0  0  0  0  0  0  0  0
  143.6150  152.1110  132.9980 C   0  0  0  0  0  0  0  0  0  0  0  0
  142.7210  151.0370  132.8390 C   0  0  0  0  0  0  0  0  0  0  0  0
  141.3180  151.2520  132.8430 C   0  0  0  0  0  0  0  0  0  0  0  0
  140.3720  150.0760  132.6730 C   0  0  0  0  0  0  0  0  0  0  0  0
  141.0900  148.8250  132.1000 C   0  0  0  0  0  0  0  0  0  0  0  0
  140.6350  148.4990  130.6720 C   0  0  0  0  0  0  0  0  0  0  0  0
  139.1730  148.2750  130.6050 N   0  0  0  0  0  0  0  0  0  0  0  0
  138.7320  148.2320  129.2030 C   0  0  0  0  0  0  0  0  0  0  0  0
  138.3600  149.2360  131.3990 C   0  0  0  0  0  0  0  0  0  0  0  0
  139.1430  150.4820  131.8360 C   0  0  0  0  0  0  0  0  0  0  0  0
  140.8170  152.5630  133.0250 C   0  0  0  0  0  0  0  0  0  0  0  0
  141.7300  153.6080  133.1930 C   0  0  0  0  0  0  0  0  0  0  0  0
  139.9513  156.5352  135.2239 H   0  0  0  0  0  0  0  0  0  0  0  0
  140.6552  157.5302  133.9043 H   0  0  0  0  0  0  0  0  0  0  0  0
  138.8994  157.1507  133.9043 H   0  0  0  0  0  0  0  0  0  0  0  0
  142.4860  158.3950  132.1670 H   0  0  0  0  0  0  0  0  0  0  0  0
  144.7941  154.7876  133.3517 H   0  0  0  0  0  0  0  0  0  0  0  0
  144.7030  151.9494  132.9881 H   0  0  0  0  0  0  0  0  0  0  0  0
  143.1139  150.0177  132.7099 H   0  0  0  0  0  0  0  0  0  0  0  0
  140.0125  149.7870  133.6716 H   0  0  0  0  0  0  0  0  0  0  0  0
  142.1741  149.0112  132.0925 H   0  0  0  0  0  0  0  0  0  0  0  0
  140.8355  147.9670  132.7396 H   0  0  0  0  0  0  0  0  0  0  0  0
  140.8983  149.3392  130.0126 H   0  0  0  0  0  0  0  0  0  0  0  0
  141.1401  147.5759  130.3516 H   0  0  0  0  0  0  0  0  0  0  0  0
  137.6378  148.1253  129.1659 H   0  0  0  0  0  0  0  0  0  0  0  0
  139.0270  149.1632  128.6971 H   0  0  0  0  0  0  0  0  0  0  0  0
  139.2013  147.3753  128.6971 H   0  0  0  0  0  0  0  0  0  0  0  0
  137.5050  149.5585  130.7866 H   0  0  0  0  0  0  0  0  0  0  0  0
  138.0430  148.7144  132.3141 H   0  0  0  0  0  0  0  0  0  0  0  0
  139.4773  151.0318  130.9438 H   0  0  0  0  0  0  0  0  0  0  0  0
  138.4881  151.1193  132.4483 H   0  0  0  0  0  0  0  0  0  0  0  0
  139.7340  152.7552  133.0340 H   0  0  0  0  0  0  0  0  0  0  0  0
  1  2  1  0
  2  3  2  0
  2  4  1  0
  4  5  1  0
  5  6  1  0
  6  7  1  0
  6  8  2  0
  5  9  2  0
  9 10  1  0
 10 11  2  0
 11 12  1  0
 12 13  2  0
 13 14  1  0
 14 15  1  0
 15 16  1  0
 16 17  1  0
 17 18  1  0
 17 19  1  0
 19 20  1  0
 13 21  1  0
 21 22  2  0
 22  4  1  0
 22 10  1  0
 20 14  1  0
  1 23  1  0
  1 24  1  0
  1 25  1  0
  7 26  1  0
  9 27  1  0
 11 28  1  0
 12 29  1  0
 14 30  1  0
 15 31  1  0
 15 32  1  0
 16 33  1  0
 16 34  1  0
 18 35  1  0
 18 36  1  0
 18 37  1  0
 19 38  1  0
 19 39  1  0
 20 40  1  0
 20 41  1  0
 21 42  1  0
M  CHG  1   7  -1
M  END
>  <UniqueID>  (42) 
40

>  <SMILES>  (42) 
CC(=O)n1c(C([NH-])=O)cc2ccc(C3CCN(C)CC3)cc21

>  <Energy>  (42) 
90.5666478191147

>  <Genealogy>  (42) 
CC(=O)n1c(C([NH-])=O)cc2ccc(C3CCN(C)CC3)cc21 (protonated)
CC(=O)n1c(C([NH-])=O)cc2ccc(C3CCN(C)CC3)cc21 (3D coordinates assigned)
CC(=O)n1c(C([NH-])=O)cc2ccc(C3CCN(C)CC3)cc21 (nonaromatic ring conformer: 90.5666478191147 kcal/mol)

>  <smiles>  (42) 
CC(=O)n1c(C(N)=O)cc2ccc(C3CCN(C)CC3)cc21

>  <score_type>  (42) 
oracle

>  <origin>  (42) 
adg

>  <m_score__min__energy>  (42) 
-8.0199999999999996

>  <m_primary>  (42) 
energy

$$$$
42:0
     RDKit          3D

 50 53  0  0  0  0  0  0  0  0999 V2000
  140.9930  151.3570  135.9390 N   0  0  0  0  0  0  0  0  0  0  0  0
  141.3510  151.4730  134.5650 C   0  0  0  0  0  0  0  0  0  0  0  0
  140.7500  150.7700  133.7100 O   0  0  0  0  0  0  0  0  0  0  0  0
  142.3730  152.4450  134.1260 C   0  0  0  0  0  0  0  0  0  0  0  0
  143.1440  152.2800  132.9770 C   0  0  0  0  0  0  0  0  0  0  0  0
  143.8910  153.4300  132.8700 C   0  0  0  0  0  0  0  0  0  0  0  0
  144.8380  153.7960  131.9190 C   0  0  0  0  0  0  0  0  0  0  0  0
  145.4800  155.0360  132.0730 C   0  0  0  0  0  0  0  0  0  0  0  0
  145.1690  155.8830  133.1670 C   0  0  0  0  0  0  0  0  0  0  0  0
  145.8620  157.1830  133.3310 C   0  0  0  0  0  0  0  0  0  0  0  0
  147.2490  157.1990  133.5600 C   0  0  0  0  0  0  0  0  0  0  0  0
  147.9260  158.4080  133.7220 C   0  0  0  0  0  0  0  0  0  0  0  0
  147.2270  159.6130  133.6650 C   0  0  0  0  0  0  0  0  0  0  0  0
  145.8490  159.6140  133.4470 C   0  0  0  0  0  0  0  0  0  0  0  0
  145.1490  158.4020  133.2780 C   0  0  0  0  0  0  0  0  0  0  0  0
  143.7560  158.3650  133.0840 O   0  0  0  0  0  0  0  0  0  0  0  0
  142.7910  159.1490  133.7890 C   0  0  0  0  0  0  0  0  0  0  0  0
  141.3940  158.5000  133.7350 C   0  0  0  0  0  0  0  0  0  0  0  0
  140.8330  158.3010  135.1520 C   0  0  0  0  0  0  0  0  0  0  0  0
  139.4570  157.5960  135.1090 C   0  0  0  0  0  0  0  0  0  0  0  0
  139.1530  157.0260  133.8440 O   0  0  0  0  0  0  0  0  0  0  0  0
  140.2430  156.2520  133.3870 C   0  0  0  0  0  0  0  0  0  0  0  0
  141.4210  157.1540  132.9790 C   0  0  0  0  0  0  0  0  0  0  0  0
  144.2060  155.4700  134.1180 C   0  0  0  0  0  0  0  0  0  0  0  0
  143.5710  154.2380  133.9300 C   0  0  0  0  0  0  0  0  0  0  0  0
  142.6420  153.6450  134.7130 N   0  0  0  0  0  0  0  0  0  0  0  0
  142.1350  154.1510  135.9580 C   0  0  0  0  0  0  0  0  0  0  0  0
  142.4550  153.4960  137.1830 N   0  0  0  0  0  0  0  0  0  0  0  0
  141.4280  155.1940  135.9770 O   0  0  0  0  0  0  0  0  0  0  0  0
  140.8520  152.2060  136.5310 H   0  0  0  0  0  0  0  0  0  0  0  0
  143.1532  151.4137  132.2992 H   0  0  0  0  0  0  0  0  0  0  0  0
  145.0767  153.1350  131.0728 H   0  0  0  0  0  0  0  0  0  0  0  0
  146.2327  155.3536  131.3364 H   0  0  0  0  0  0  0  0  0  0  0  0
  147.8046  156.2511  133.6118 H   0  0  0  0  0  0  0  0  0  0  0  0
  149.0123  158.4106  133.8949 H   0  0  0  0  0  0  0  0  0  0  0  0
  147.7632  160.5650  133.7922 H   0  0  0  0  0  0  0  0  0  0  0  0
  145.3040  160.5686  133.4067 H   0  0  0  0  0  0  0  0  0  0  0  0
  143.1029  159.2410  134.8398 H   0  0  0  0  0  0  0  0  0  0  0  0
  142.7326  160.1385  133.3121 H   0  0  0  0  0  0  0  0  0  0  0  0
  140.7339  159.1853  133.1830 H   0  0  0  0  0  0  0  0  0  0  0  0
  141.5348  157.6852  135.7336 H   0  0  0  0  0  0  0  0  0  0  0  0
  140.7067  159.2880  135.6209 H   0  0  0  0  0  0  0  0  0  0  0  0
  139.4525  156.7945  135.8624 H   0  0  0  0  0  0  0  0  0  0  0  0
  138.6939  158.3620  135.3111 H   0  0  0  0  0  0  0  0  0  0  0  0
  140.5681  155.5764  134.1919 H   0  0  0  0  0  0  0  0  0  0  0  0
  139.9209  155.6739  132.5083 H   0  0  0  0  0  0  0  0  0  0  0  0
  142.3637  156.6352  133.2072 H   0  0  0  0  0  0  0  0  0  0  0  0
  141.3382  157.3623  131.9021 H   0  0  0  0  0  0  0  0  0  0  0  0
  143.9626  156.1027  134.9843 H   0  0  0  0  0  0  0  0  0  0  0  0
  142.1600  152.5100  137.3570 H   0  0  0  0  0  0  0  0  0  0  0  0
  1  2  1  0
  2  3  2  0
  2  4  1  0
  4  5  2  0
  5  6  1  0
  6  7  2  0
  7  8  1  0
  8  9  2  0
  9 10  1  0
 10 11  2  0
 11 12  1  0
 12 13  2  0
 13 14  1  0
 14 15  2  0
 15 16  1  0
 16 17  1  0
 17 18  1  0
 18 19  1  0
 19 20  1  0
 20 21  1  0
 21 22  1  0
 22 23  1  0
  9 24  1  0
 24 25  2  0
 25 26  1  0
 26 27  1  0
 27 28  1  0
 27 29  2  0
 26  4  1  0
 25  6  1  0
 15 10  1  0
 23 18  1  0
  1 30  1  0
  5 31  1  0
  7 32  1  0
  8 33  1  0
 11 34  1  0
 12 35  1  0
 13 36  1  0
 14 37  1  0
 17 38  1  0
 17 39  1  0
 18 40  1  0
 19 41  1  0
 19 42  1  0
 20 43  1  0
 20 44  1  0
 22 45  1  0
 22 46  1  0
 23 47  1  0
 23 48  1  0
 24 49  1  0
 28 50  1  0
M  CHG  2   1  -1  28  -1
M  END
>  <UniqueID>  (43) 
41

>  <SMILES>  (43) 
[NH-]C(=O)c1cc2ccc(-c3ccccc3OCC3CCOCC3)cc2n1C([NH-])=O

>  <Energy>  (43) 
103.85013030106154

>  <Genealogy>  (43) 
[NH-]C(=O)c1cc2ccc(-c3ccccc3OCC3CCOCC3)cc2n1C([NH-])=O (protonated)
[NH-]C(=O)c1cc2ccc(-c3ccccc3OCC3CCOCC3)cc2n1C([NH-])=O (3D coordinates assigned)
[NH-]C(=O)c1cc2ccc(-c3ccccc3OCC3CCOCC3)cc2n1C([NH-])=O (nonaromatic ring conformer: 103.85013030106154 kcal/mol)

>  <smiles>  (43) 
NC(=O)c1cc2ccc(-c3ccccc3OCC3CCOCC3)cc2n1C(N)=O

>  <score_type>  (43) 
oracle

>  <origin>  (43) 
adg

>  <m_score__min__energy>  (43) 
-8.9600000000000009

>  <m_primary>  (43) 
energy

$$$$
43:0
     RDKit          3D

 24 25  0  0  0  0  0  0  0  0999 V2000
  141.4430  160.9930  133.7250 N   0  0  0  0  0  0  0  0  0  0  0  0
  142.2550  160.0990  134.4800 C   0  0  0  0  0  0  0  0  0  0  0  0
  141.8380  159.6740  135.5900 O   0  0  0  0  0  0  0  0  0  0  0  0
  143.6020  159.7130  134.0090 C   0  0  0  0  0  0  0  0  0  0  0  0
  143.9500  158.4050  133.6780 C   0  0  0  0  0  0  0  0  0  0  0  0
  145.2930  158.4490  133.3840 C   0  0  0  0  0  0  0  0  0  0  0  0
  146.1570  157.4310  132.9890 C   0  0  0  0  0  0  0  0  0  0  0  0
  147.4950  157.7670  132.7270 C   0  0  0  0  0  0  0  0  0  0  0  0
  147.9380  159.1070  132.8440 C   0  0  0  0  0  0  0  0  0  0  0  0
  149.3750  159.4480  132.5860 C   0  0  0  0  0  0  0  0  0  0  0  0
  149.9660  158.4360  131.8520 F   0  0  0  0  0  0  0  0  0  0  0  0
  147.0380  160.1120  133.2620 C   0  0  0  0  0  0  0  0  0  0  0  0
  145.7140  159.7450  133.5340 C   0  0  0  0  0  0  0  0  0  0  0  0
  144.6840  160.5360  133.9150 N   0  0  0  0  0  0  0  0  0  0  0  0
  144.7200  161.9620  134.0800 C   0  0  0  0  0  0  0  0  0  0  0  0
  145.5860  162.4960  134.8240 O   0  0  0  0  0  0  0  0  0  0  0  0
  143.8180  162.7700  133.3990 O   0  0  0  0  0  0  0  0  0  0  0  0
  141.8270  161.8960  133.3680 H   0  0  0  0  0  0  0  0  0  0  0  0
  143.2909  157.5246  133.6564 H   0  0  0  0  0  0  0  0  0  0  0  0
  145.8022  156.3950  132.8853 H   0  0  0  0  0  0  0  0  0  0  0  0
  148.2055  156.9822  132.4282 H   0  0  0  0  0  0  0  0  0  0  0  0
  149.4323  160.3909  132.0223 H   0  0  0  0  0  0  0  0  0  0  0  0
  149.9022  159.5604  133.5448 H   0  0  0  0  0  0  0  0  0  0  0  0
  147.3682  161.1556  133.3711 H   0  0  0  0  0  0  0  0  0  0  0  0
  1  2  1  0
  2  3  2  0
  2  4  1  0
  4  5  2  0
  5  6  1  0
  6  7  2  0
  7  8  1  0
  8  9  2  0
  9 10  1  0
 10 11  1  0
  9 12  1  0
 12 13  2  0
 13 14  1  0
 14 15  1  0
 15 16  2  0
 15 17  1  0
 14  4  1  0
 13  6  1  0
  1 18  1  0
  5 19  1  0
  7 20  1  0
  8 21  1  0
 10 22  1  0
 10 23  1  0
 12 24  1  0
M  CHG  2   1  -1  17  -1
M  END
>  <UniqueID>  (44) 
42

>  <SMILES>  (44) 
[NH-]C(=O)c1cc2ccc(CF)cc2n1C(=O)[O-]

>  <Energy>  (44) 
63.812229655878205

>  <Genealogy>  (44) 
[NH-]C(=O)c1cc2ccc(CF)cc2n1C(=O)[O-] (protonated)
[NH-]C(=O)c1cc2ccc(CF)cc2n1C(=O)[O-] (3D coordinates assigned)
[NH-]C(=O)c1cc2ccc(CF)cc2n1C(=O)[O-] (optimized conformer: 63.812229655878205 kcal/mol)

>  <smiles>  (44) 
NC(=O)c1cc2ccc(CF)cc2n1C(=O)O

>  <score_type>  (44) 
oracle

>  <origin>  (44) 
adg

>  <m_score__min__energy>  (44) 
-5.21

>  <m_primary>  (44) 
energy

$$$$
44:0
     RDKit          3D

 32 33  0  0  0  0  0  0  0  0999 V2000
  148.4950  160.2770  131.2230 C   0  0  0  0  0  0  0  0  0  0  0  0
  149.3000  158.9840  131.1850 C   0  0  0  0  0  0  0  0  0  0  0  0
  148.7170  158.0030  132.0400 O   0  0  0  0  0  0  0  0  0  0  0  0
  148.0550  158.3150  133.2330 C   0  0  0  0  0  0  0  0  0  0  0  0
  148.7070  158.7030  134.2410 O   0  0  0  0  0  0  0  0  0  0  0  0
  146.6250  158.1850  133.3090 N   0  0  0  0  0  0  0  0  0  0  0  0
  145.8940  157.0360  133.2450 C   0  0  0  0  0  0  0  0  0  0  0  0
  146.4280  155.6960  132.9170 C   0  0  0  0  0  0  0  0  0  0  0  0
  147.3630  155.5250  131.8510 N   0  0  0  0  0  0  0  0  0  0  0  0
  146.0850  154.6940  133.5990 O   0  0  0  0  0  0  0  0  0  0  0  0
  144.5410  157.3080  133.4380 C   0  0  0  0  0  0  0  0  0  0  0  0
  144.4640  158.6680  133.6230 C   0  0  0  0  0  0  0  0  0  0  0  0
  143.3570  159.4790  133.8610 C   0  0  0  0  0  0  0  0  0  0  0  0
  143.5740  160.8550  134.0370 C   0  0  0  0  0  0  0  0  0  0  0  0
  144.8850  161.3900  133.9910 C   0  0  0  0  0  0  0  0  0  0  0  0
  145.1000  162.8650  134.1550 C   0  0  0  0  0  0  0  0  0  0  0  0
  145.9830  160.5410  133.7320 C   0  0  0  0  0  0  0  0  0  0  0  0
  145.7360  159.1760  133.5420 C   0  0  0  0  0  0  0  0  0  0  0  0
  148.3149  160.5662  132.2689 H   0  0  0  0  0  0  0  0  0  0  0  0
  149.0569  161.0738  130.7138 H   0  0  0  0  0  0  0  0  0  0  0  0
  147.5320  160.1245  130.7138 H   0  0  0  0  0  0  0  0  0  0  0  0
  149.3183  158.6000  130.1544 H   0  0  0  0  0  0  0  0  0  0  0  0
  150.3226  159.1933  131.5320 H   0  0  0  0  0  0  0  0  0  0  0  0
  147.6300  156.3200  131.2310 H   0  0  0  0  0  0  0  0  0  0  0  0
  147.7640  154.5810  131.6520 H   0  0  0  0  0  0  0  0  0  0  0  0
  143.7103  156.5870  133.4416 H   0  0  0  0  0  0  0  0  0  0  0  0
  142.3434  159.0544  133.9096 H   0  0  0  0  0  0  0  0  0  0  0  0
  142.7183  161.5237  134.2122 H   0  0  0  0  0  0  0  0  0  0  0  0
  145.1362  163.1134  135.2260 H   0  0  0  0  0  0  0  0  0  0  0  0
  146.0495  163.1522  133.6797 H   0  0  0  0  0  0  0  0  0  0  0  0
  144.2720  163.4113  133.6797 H   0  0  0  0  0  0  0  0  0  0  0  0
  147.0062  160.9417  133.6808 H   0  0  0  0  0  0  0  0  0  0  0  0
  1  2  1  0
  2  3  1  0
  3  4  1  0
  4  5  2  0
  4  6  1  0
  6  7  1  0
  7  8  1  0
  8  9  1  0
  8 10  2  0
  7 11  2  0
 11 12  1  0
 12 13  2  0
 13 14  1  0
 14 15  2  0
 15 16  1  0
 15 17  1  0
 17 18  2  0
 18  6  1  0
 18 12  1  0
  1 19  1  0
  1 20  1  0
  1 21  1  0
  2 22  1  0
  2 23  1  0
  9 24  1  0
  9 25  1  0
 11 26  1  0
 13 27  1  0
 14 28  1  0
 16 29  1  0
 16 30  1  0
 16 31  1  0
 17 32  1  0
M  END
>  <UniqueID>  (45) 
43

>  <SMILES>  (45) 
CCOC(=O)n1c(C(N)=O)cc2ccc(C)cc21

>  <Energy>  (45) 
66.04148905184496

>  <Genealogy>  (45) 
CCOC(=O)n1c(C(N)=O)cc2ccc(C)cc21 (3D coordinates assigned)
CCOC(=O)n1c(C(N)=O)cc2ccc(C)cc21 (optimized conformer: 66.04148905184496 kcal/mol)

>  <smiles>  (45) 
CCOC(=O)n1c(C(N)=O)cc2ccc(C)cc21

>  <score_type>  (45) 
oracle

>  <origin>  (45) 
adg

>  <m_score__min__energy>  (45) 
-6.1200000000000001

>  <m_primary>  (45) 
energy

$$$$
45:0
     RDKit          3D

 36 38  0  0  0  0  0  0  0  0999 V2000
  139.0730  147.5710  130.0190 C   0  0  0  0  0  0  0  0  0  0  0  0
  140.3380  147.8390  130.6120 O   0  0  0  0  0  0  0  0  0  0  0  0
  140.6030  149.0060  131.3350 C   0  0  0  0  0  0  0  0  0  0  0  0
  139.5890  149.9490  131.5120 C   0  0  0  0  0  0  0  0  0  0  0  0
  139.8530  151.1150  132.2330 C   0  0  0  0  0  0  0  0  0  0  0  0
  141.1290  151.3370  132.7780 C   0  0  0  0  0  0  0  0  0  0  0  0
  141.4240  152.5710  133.5500 C   0  0  0  0  0  0  0  0  0  0  0  0
  142.4960  152.5960  134.4810 C   0  0  0  0  0  0  0  0  0  0  0  0
  142.7910  153.7620  135.2080 C   0  0  0  0  0  0  0  0  0  0  0  0
  141.9970  154.8830  134.9940 C   0  0  0  0  0  0  0  0  0  0  0  0
  142.0800  156.1450  135.5370 C   0  0  0  0  0  0  0  0  0  0  0  0
  141.0450  156.8690  134.9490 C   0  0  0  0  0  0  0  0  0  0  0  0
  140.7270  158.2710  135.2950 C   0  0  0  0  0  0  0  0  0  0  0  0
  139.4840  158.5820  135.9200 N   0  0  0  0  0  0  0  0  0  0  0  0
  141.5300  159.2010  135.0200 O   0  0  0  0  0  0  0  0  0  0  0  0
  140.3510  156.0860  134.0760 N   0  0  0  0  0  0  0  0  0  0  0  0
  139.2490  156.4660  133.2370 C   0  0  0  0  0  0  0  0  0  0  0  0
  138.2700  157.3940  133.7040 N   0  0  0  0  0  0  0  0  0  0  0  0
  139.1390  155.9750  132.0810 O   0  0  0  0  0  0  0  0  0  0  0  0
  140.9470  154.8740  134.1140 C   0  0  0  0  0  0  0  0  0  0  0  0
  140.6430  153.7350  133.3610 C   0  0  0  0  0  0  0  0  0  0  0  0
  142.1180  150.3590  132.5750 C   0  0  0  0  0  0  0  0  0  0  0  0
  141.8360  149.2330  131.8670 N   0  0  0  0  0  0  0  0  0  0  0  0
  138.3240  147.4123  130.8088 H   0  0  0  0  0  0  0  0  0  0  0  0
  138.7723  148.4254  129.3948 H   0  0  0  0  0  0  0  0  0  0  0  0
  139.1446  146.6681  129.3948 H   0  0  0  0  0  0  0  0  0  0  0  0
  138.5897  149.7747  131.0866 H   0  0  0  0  0  0  0  0  0  0  0  0
  139.0590  151.8629  132.3750 H   0  0  0  0  0  0  0  0  0  0  0  0
  143.1029  151.6916  134.6350 H   0  0  0  0  0  0  0  0  0  0  0  0
  143.6250  153.7869  135.9248 H   0  0  0  0  0  0  0  0  0  0  0  0
  142.8088  156.5055  136.2779 H   0  0  0  0  0  0  0  0  0  0  0  0
  139.4540  158.9960  136.8790 H   0  0  0  0  0  0  0  0  0  0  0  0
  138.3820  157.8610  134.6320 H   0  0  0  0  0  0  0  0  0  0  0  0
  137.4540  157.6460  133.1060 H   0  0  0  0  0  0  0  0  0  0  0  0
  139.8145  153.7444  132.6375 H   0  0  0  0  0  0  0  0  0  0  0  0
  143.1256  150.5054  132.9912 H   0  0  0  0  0  0  0  0  0  0  0  0
  1  2  1  0
  2  3  1  0
  3  4  2  0
  4  5  1  0
  5  6  2  0
  6  7  1  0
  7  8  2  0
  8  9  1  0
  9 10  2  0
 10 11  1  0
 11 12  2  0
 12 13  1  0
 13 14  1  0
 13 15  2  0
 12 16  1  0
 16 17  1  0
 17 18  1  0
 17 19  2  0
 16 20  1  0
 20 21  2  0
  6 22  1  0
 22 23  2  0
 23  3  1  0
 21  7  1  0
 20 10  1  0
  1 24  1  0
  1 25  1  0
  1 26  1  0
  4 27  1  0
  5 28  1  0
  8 29  1  0
  9 30  1  0
 11 31  1  0
 14 32  1  0
 18 33  1  0
 18 34  1  0
 21 35  1  0
 22 36  1  0
M  CHG  1  14  -1
M  END
>  <UniqueID>  (46) 
44

>  <SMILES>  (46) 
COc1ccc(-c2ccc3cc(C([NH-])=O)n(C(N)=O)c3c2)cn1

>  <Energy>  (46) 
80.4428695412568

>  <Genealogy>  (46) 
COc1ccc(-c2ccc3cc(C([NH-])=O)n(C(N)=O)c3c2)cn1 (protonated)
COc1ccc(-c2ccc3cc(C([NH-])=O)n(C(N)=O)c3c2)cn1 (3D coordinates assigned)
COc1ccc(-c2ccc3cc(C([NH-])=O)n(C(N)=O)c3c2)cn1 (optimized conformer: 80.4428695412568 kcal/mol)

>  <smiles>  (46) 
COc1ccc(-c2ccc3cc(C(N)=O)n(C(N)=O)c3c2)cn1

>  <score_type>  (46) 
oracle

>  <origin>  (46) 
adg

>  <m_score__min__energy>  (46) 
-7.2199999999999998

>  <m_primary>  (46) 
energy

$$$$
46:0
     RDKit          3D

 48 50  0  0  0  0  0  0  0  0999 V2000
  140.9880  154.6590  133.4160 C   0  0  0  0  0  0  0  0  0  0  0  0
  140.6010  155.9410  132.9710 O   0  0  0  0  0  0  0  0  0  0  0  0
  139.4650  156.3670  133.6950 C   0  0  0  0  0  0  0  0  0  0  0  0
  139.6220  157.8560  134.0670 C   0  0  1  0  0  0  0  0  0  0  0  0
  139.3830  158.0970  135.5870 C   0  0  0  0  0  0  0  0  0  0  0  0
  140.6170  158.6230  136.3340 C   0  0  0  0  0  0  0  0  0  0  0  0
  141.8690  157.8240  135.9530 C   0  0  0  0  0  0  0  0  0  0  0  0
  142.1660  157.8660  134.4260 C   0  0  2  0  0  0  0  0  0  0  0  0
  143.4410  158.6340  134.1350 C   0  0  0  0  0  0  0  0  0  0  0  0
  143.4150  160.0530  134.0770 C   0  0  0  0  0  0  0  0  0  0  0  0
  144.5590  160.7780  133.7110 C   0  0  0  0  0  0  0  0  0  0  0  0
  145.7180  160.0640  133.4200 C   0  0  0  0  0  0  0  0  0  0  0  0
  146.9360  160.5070  132.9520 C   0  0  0  0  0  0  0  0  0  0  0  0
  147.7020  159.3570  132.7770 C   0  0  0  0  0  0  0  0  0  0  0  0
  149.0960  159.3470  132.2830 C   0  0  0  0  0  0  0  0  0  0  0  0
  149.9580  158.2400  132.5470 N   0  0  0  0  0  0  0  0  0  0  0  0
  149.5330  160.3240  131.6170 O   0  0  0  0  0  0  0  0  0  0  0  0
  146.9940  158.2520  133.1390 N   0  0  0  0  0  0  0  0  0  0  0  0
  147.4170  156.8850  133.0400 C   0  0  0  0  0  0  0  0  0  0  0  0
  146.6380  155.9020  132.2230 C   0  0  0  0  0  0  0  0  0  0  0  0
  148.4120  156.4870  133.6990 O   0  0  0  0  0  0  0  0  0  0  0  0
  145.7760  158.7000  133.5130 C   0  0  0  0  0  0  0  0  0  0  0  0
  144.6470  157.9490  133.8520 C   0  0  0  0  0  0  0  0  0  0  0  0
  140.9840  158.4120  133.5900 C   0  0  0  0  0  0  0  0  0  0  0  0
  140.9940  154.6390  134.5158 H   0  0  0  0  0  0  0  0  0  0  0  0
  140.2760  153.9098  133.0395 H   0  0  0  0  0  0  0  0  0  0  0  0
  141.9956  154.4289  133.0395 H   0  0  0  0  0  0  0  0  0  0  0  0
  138.5652  156.2365  133.0759 H   0  0  0  0  0  0  0  0  0  0  0  0
  139.3684  155.7677  134.6124 H   0  0  0  0  0  0  0  0  0  0  0  0
  138.8411  158.4189  133.5347 H   0  0  0  0  0  0  0  0  0  0  0  0
  138.5716  158.8313  135.6981 H   0  0  0  0  0  0  0  0  0  0  0  0
  139.1327  157.1217  136.0299 H   0  0  0  0  0  0  0  0  0  0  0  0
  140.7717  159.6806  136.0740 H   0  0  0  0  0  0  0  0  0  0  0  0
  140.4462  158.5142  137.4152 H   0  0  0  0  0  0  0  0  0  0  0  0
  142.7317  158.2438  136.4911 H   0  0  0  0  0  0  0  0  0  0  0  0
  141.6899  156.7741  136.2281 H   0  0  0  0  0  0  0  0  0  0  0  0
  142.3092  156.8211  134.1133 H   0  0  0  0  0  0  0  0  0  0  0  0
  142.4867  160.5899  134.3220 H   0  0  0  0  0  0  0  0  0  0  0  0
  144.5407  161.8765  133.6557 H   0  0  0  0  0  0  0  0  0  0  0  0
  147.2386  161.5466  132.7581 H   0  0  0  0  0  0  0  0  0  0  0  0
  150.9530  158.2640  132.2320 H   0  0  0  0  0  0  0  0  0  0  0  0
  149.6360  157.4240  133.1120 H   0  0  0  0  0  0  0  0  0  0  0  0
  146.0956  155.2176  132.8919 H   0  0  0  0  0  0  0  0  0  0  0  0
  145.9191  156.4408  131.5884 H   0  0  0  0  0  0  0  0  0  0  0  0
  147.3269  155.3252  131.5884 H   0  0  0  0  0  0  0  0  0  0  0  0
  144.6945  156.8510  133.8978 H   0  0  0  0  0  0  0  0  0  0  0  0
  140.9677  159.5086  133.6745 H   0  0  0  0  0  0  0  0  0  0  0  0
  141.1322  158.0917  132.5481 H   0  0  0  0  0  0  0  0  0  0  0  0
  1  2  1  0
  2  3  1  0
  3  4  1  0
  4  5  1  0
  5  6  1  0
  6  7  1  0
  7  8  1  0
  8  9  1  0
  9 10  2  0
 10 11  1  0
 11 12  2  0
 12 13  1  0
 13 14  2  0
 14 15  1  0
 15 16  1  0
 15 17  2  0
 14 18  1  0
 18 19  1  0
 19 20  1  0
 19 21  2  0
 18 22  1  0
 22 23  2  0
  8 24  1  0
 24  4  1  0
 23  9  1  0
 22 12  1  0
  1 25  1  0
  1 26  1  0
  1 27  1  0
  3 28  1  0
  3 29  1  0
  4 30  1  6
  5 31  1  0
  5 32  1  0
  6 33  1  0
  6 34  1  0
  7 35  1  0
  7 36  1  0
  8 37  1  6
 10 38  1  0
 11 39  1  0
 13 40  1  0
 16 41  1  0
 16 42  1  0
 20 43  1  0
 20 44  1  0
 20 45  1  0
 23 46  1  0
 24 47  1  0
 24 48  1  0
M  END
>  <UniqueID>  (47) 
45

>  <SMILES>  (47) 
COC[C@H]1CCC[C@H](c2ccc3cc(C(N)=O)n(C(C)=O)c3c2)C1

>  <Energy>  (47) 
92.35601152283532

>  <Genealogy>  (47) 
COC[C@H]1CCC[C@H](c2ccc3cc(C(N)=O)n(C(C)=O)c3c2)C1 (chirality)
COC[C@H]1CCC[C@H](c2ccc3cc(C(N)=O)n(C(C)=O)c3c2)C1 (3D coordinates assigned)
COC[C@H]1CCC[C@H](c2ccc3cc(C(N)=O)n(C(C)=O)c3c2)C1 (nonaromatic ring conformer: 92.35601152283532 kcal/mol)

>  <smiles>  (47) 
COCC1CCCC(c2ccc3cc(C(N)=O)n(C(C)=O)c3c2)C1

>  <score_type>  (47) 
oracle

>  <origin>  (47) 
adg

>  <m_score__min__energy>  (47) 
-8.3900000000000006

>  <m_primary>  (47) 
energy

$$$$
47:0
     RDKit          3D

 33 35  0  0  0  0  0  0  0  0999 V2000
  138.7310  155.6600  133.0040 N   0  0  0  0  0  0  0  0  0  0  0  0
  140.1000  155.2860  133.1820 C   0  0  0  0  0  0  0  0  0  0  0  0
  140.3980  154.0640  133.2350 O   0  0  0  0  0  0  0  0  0  0  0  0
  141.1590  156.3150  133.3200 C   0  0  0  0  0  0  0  0  0  0  0  0
  142.5250  156.0400  133.4000 C   0  0  0  0  0  0  0  0  0  0  0  0
  143.1410  157.2700  133.4640 C   0  0  0  0  0  0  0  0  0  0  0  0
  144.4900  157.5930  133.5740 C   0  0  0  0  0  0  0  0  0  0  0  0
  144.8370  158.9530  133.6530 C   0  0  0  0  0  0  0  0  0  0  0  0
  143.8360  159.9540  133.6320 C   0  0  0  0  0  0  0  0  0  0  0  0
  144.2000  161.3330  133.7280 N   0  0  0  0  0  0  0  0  0  0  0  0
  142.4780  159.5890  133.5220 C   0  0  0  0  0  0  0  0  0  0  0  0
  142.1650  158.2300  133.4210 C   0  0  0  0  0  0  0  0  0  0  0  0
  140.9460  157.6600  133.3250 N   0  0  0  0  0  0  0  0  0  0  0  0
  139.6900  158.3470  133.2910 C   0  0  0  0  0  0  0  0  0  0  0  0
  138.8950  158.2550  134.2630 O   0  0  0  0  0  0  0  0  0  0  0  0
  139.3250  159.1240  132.1500 N   0  0  0  0  0  0  0  0  0  0  0  0
  139.8260  159.3630  130.7850 C   0  0  0  0  0  0  0  0  0  0  0  0
  138.6920  160.2330  130.3520 C   0  0  0  0  0  0  0  0  0  0  0  0
  138.1990  159.9790  131.7380 C   0  0  0  0  0  0  0  0  0  0  0  0
  138.4470  156.6560  132.8880 H   0  0  0  0  0  0  0  0  0  0  0  0
  137.9930  154.9230  132.9440 H   0  0  0  0  0  0  0  0  0  0  0  0
  143.0069  155.0512  133.4098 H   0  0  0  0  0  0  0  0  0  0  0  0
  145.2608  156.8086  133.5984 H   0  0  0  0  0  0  0  0  0  0  0  0
  145.8954  159.2420  133.7318 H   0  0  0  0  0  0  0  0  0  0  0  0
  143.9180  161.9040  134.5560 H   0  0  0  0  0  0  0  0  0  0  0  0
  144.7550  161.7930  132.9730 H   0  0  0  0  0  0  0  0  0  0  0  0
  141.6865  160.3529  133.5158 H   0  0  0  0  0  0  0  0  0  0  0  0
  140.7927  159.8878  130.7730 H   0  0  0  0  0  0  0  0  0  0  0  0
  140.0434  158.4784  130.1684 H   0  0  0  0  0  0  0  0  0  0  0  0
  138.9543  161.2769  130.1253 H   0  0  0  0  0  0  0  0  0  0  0  0
  138.0942  160.0572  129.4455 H   0  0  0  0  0  0  0  0  0  0  0  0
  138.1229  160.8986  132.3368 H   0  0  0  0  0  0  0  0  0  0  0  0
  137.1874  159.5593  131.8409 H   0  0  0  0  0  0  0  0  0  0  0  0
  1  2  1  0
  2  3  2  0
  2  4  1  0
  4  5  2  0
  5  6  1  0
  6  7  2  0
  7  8  1  0
  8  9  2  0
  9 10  1  0
  9 11  1  0
 11 12  2  0
 12 13  1  0
 13 14  1  0
 14 15  2  0
 14 16  1  0
 16 17  1  0
 17 18  1  0
 18 19  1  0
 13  4  1  0
 19 16  1  0
 12  6  1  0
  1 20  1  0
  1 21  1  0
  5 22  1  0
  7 23  1  0
  8 24  1  0
 10 25  1  0
 10 26  1  0
 11 27  1  0
 17 28  1  0
 17 29  1  0
 18 30  1  0
 18 31  1  0
 19 32  1  0
 19 33  1  0
M  END
>  <UniqueID>  (48) 
46

>  <SMILES>  (48) 
NC(=O)c1cc2ccc(N)cc2n1C(=O)N1CCC1

>  <Energy>  (48) 
115.30255322910095

>  <Genealogy>  (48) 
NC(=O)c1cc2ccc(N)cc2n1C(=O)N1CCC1 (3D coordinates assigned)
NC(=O)c1cc2ccc(N)cc2n1C(=O)N1CCC1 (nonaromatic ring conformer: 115.30255322910095 kcal/mol)

>  <smiles>  (48) 
NC(=O)c1cc2ccc(N)cc2n1C(=O)N1CCC1

>  <score_type>  (48) 
oracle

>  <origin>  (48) 
adg

>  <m_score__min__energy>  (48) 
-6.9299999999999997

>  <m_primary>  (48) 
energy

$$$$
48:0
     RDKit          3D

 39 40  0  0  0  0  0  0  0  0999 V2000
  148.4570  153.3930  137.4810 C   0  0  0  0  0  0  0  0  0  0  0  0
  147.3540  153.2890  136.5890 O   0  0  0  0  0  0  0  0  0  0  0  0
  147.1990  154.1290  135.4820 C   0  0  0  0  0  0  0  0  0  0  0  0
  147.2300  155.3830  135.6210 O   0  0  0  0  0  0  0  0  0  0  0  0
  147.0130  153.5500  134.1850 N   0  0  0  0  0  0  0  0  0  0  0  0
  146.8370  154.3550  132.9790 C   0  0  0  0  0  0  0  0  0  0  0  0
  148.0830  155.2030  132.7130 C   0  0  0  0  0  0  0  0  0  0  0  0
  147.7900  156.6610  132.9460 C   0  0  0  0  0  0  0  0  0  0  0  0
  148.8410  157.6110  132.9100 C   0  0  0  0  0  0  0  0  0  0  0  0
  148.5780  158.9770  133.1040 C   0  0  0  0  0  0  0  0  0  0  0  0
  147.2580  159.3630  133.3130 C   0  0  0  0  0  0  0  0  0  0  0  0
  146.7280  160.6110  133.5490 C   0  0  0  0  0  0  0  0  0  0  0  0
  145.3570  160.4100  133.6870 C   0  0  0  0  0  0  0  0  0  0  0  0
  144.3880  161.5130  133.8660 C   0  0  0  0  0  0  0  0  0  0  0  0
  142.9880  161.2900  133.7300 N   0  0  0  0  0  0  0  0  0  0  0  0
  144.8070  162.6800  134.0950 O   0  0  0  0  0  0  0  0  0  0  0  0
  145.0510  159.0870  133.5520 N   0  0  0  0  0  0  0  0  0  0  0  0
  143.7700  158.4580  133.7050 C   0  0  0  0  0  0  0  0  0  0  0  0
  143.2430  157.8550  132.7300 O   0  0  0  0  0  0  0  0  0  0  0  0
  143.1000  158.5370  134.9300 O   0  0  0  0  0  0  0  0  0  0  0  0
  141.6820  158.5970  135.0260 C   0  0  0  0  0  0  0  0  0  0  0  0
  146.2260  158.4610  133.3210 C   0  0  0  0  0  0  0  0  0  0  0  0
  146.4620  157.0920  133.1500 C   0  0  0  0  0  0  0  0  0  0  0  0
  148.0938  153.3588  138.5188 H   0  0  0  0  0  0  0  0  0  0  0  0
  149.1494  152.5562  137.3070 H   0  0  0  0  0  0  0  0  0  0  0  0
  148.9808  154.3445  137.3070 H   0  0  0  0  0  0  0  0  0  0  0  0
  147.0630  152.5110  134.0910 H   0  0  0  0  0  0  0  0  0  0  0  0
  146.6630  153.6886  132.1213 H   0  0  0  0  0  0  0  0  0  0  0  0
  145.9754  155.0240  133.1209 H   0  0  0  0  0  0  0  0  0  0  0  0
  148.8892  154.8835  133.3897 H   0  0  0  0  0  0  0  0  0  0  0  0
  148.3892  155.0654  131.6655 H   0  0  0  0  0  0  0  0  0  0  0  0
  149.8727  157.2753  132.7284 H   0  0  0  0  0  0  0  0  0  0  0  0
  149.3905  159.7184  133.0911 H   0  0  0  0  0  0  0  0  0  0  0  0
  147.2720  161.5648  133.6147 H   0  0  0  0  0  0  0  0  0  0  0  0
  142.5910  160.3250  133.7700 H   0  0  0  0  0  0  0  0  0  0  0  0
  141.3864  158.6095  136.0855 H   0  0  0  0  0  0  0  0  0  0  0  0
  141.3195  159.5113  134.5334 H   0  0  0  0  0  0  0  0  0  0  0  0
  141.2436  157.7166  134.5334 H   0  0  0  0  0  0  0  0  0  0  0  0
  145.6326  156.3699  133.1740 H   0  0  0  0  0  0  0  0  0  0  0  0
  1  2  1  0
  2  3  1  0
  3  4  2  0
  3  5  1  0
  5  6  1  0
  6  7  1  0
  7  8  1  0
  8  9  2  0
  9 10  1  0
 10 11  2  0
 11 12  1  0
 12 13  2  0
 13 14  1  0
 14 15  1  0
 14 16  2  0
 13 17  1  0
 17 18  1  0
 18 19  2  0
 18 20  1  0
 20 21  1  0
 17 22  1  0
 22 23  2  0
 23  8  1  0
 22 11  1  0
  1 24  1  0
  1 25  1  0
  1 26  1  0
  5 27  1  0
  6 28  1  0
  6 29  1  0
  7 30  1  0
  7 31  1  0
  9 32  1  0
 10 33  1  0
 12 34  1  0
 15 35  1  0
 21 36  1  0
 21 37  1  0
 21 38  1  0
 23 39  1  0
M  CHG  1  15  -1
M  END
>  <UniqueID>  (49) 
47

>  <SMILES>  (49) 
COC(=O)NCCc1ccc2cc(C([NH-])=O)n(C(=O)OC)c2c1

>  <Energy>  (49) 
68.75368153635284

>  <Genealogy>  (49) 
COC(=O)NCCc1ccc2cc(C([NH-])=O)n(C(=O)OC)c2c1 (protonated)
COC(=O)NCCc1ccc2cc(C([NH-])=O)n(C(=O)OC)c2c1 (3D coordinates assigned)
COC(=O)NCCc1ccc2cc(C([NH-])=O)n(C(=O)OC)c2c1 (optimized conformer: 68.75368153635284 kcal/mol)

>  <smiles>  (49) 
COC(=O)NCCc1ccc2cc(C(N)=O)n(C(=O)OC)c2c1

>  <score_type>  (49) 
oracle

>  <origin>  (49) 
adg

>  <m_score__min__energy>  (49) 
-6.4900000000000002

>  <m_primary>  (49) 
energy

$$$$
49:0
     RDKit          3D

 30 31  0  0  0  0  0  0  0  0999 V2000
  142.0880  157.2120  139.6920 C   0  0  0  0  0  0  0  0  0  0  0  0
  141.2440  156.7170  138.5980 N   0  0  0  0  0  0  0  0  0  0  0  0
  140.6330  155.3870  138.7180 C   0  0  0  0  0  0  0  0  0  0  0  0
  141.0190  157.5280  137.4150 C   0  0  0  0  0  0  0  0  0  0  0  0
  141.1970  158.9400  137.4590 C   0  0  0  0  0  0  0  0  0  0  0  0
  140.9930  159.7320  136.3180 C   0  0  0  0  0  0  0  0  0  0  0  0
  140.6020  159.1000  135.1440 C   0  0  0  0  0  0  0  0  0  0  0  0
  140.3730  159.6260  133.8930 C   0  0  0  0  0  0  0  0  0  0  0  0
  140.0260  158.5390  133.0980 C   0  0  0  0  0  0  0  0  0  0  0  0
  139.6330  158.6650  131.6810 C   0  0  0  0  0  0  0  0  0  0  0  0
  138.5890  157.8610  131.1280 N   0  0  0  0  0  0  0  0  0  0  0  0
  140.1890  159.5350  130.9590 O   0  0  0  0  0  0  0  0  0  0  0  0
  140.0520  157.3840  133.8200 N   0  0  0  0  0  0  0  0  0  0  0  0
  139.8710  156.0460  133.3270 C   0  0  0  0  0  0  0  0  0  0  0  0
  138.7310  155.6420  132.9740 O   0  0  0  0  0  0  0  0  0  0  0  0
  140.9530  155.1800  133.2370 O   0  0  0  0  0  0  0  0  0  0  0  0
  140.4040  157.7470  135.0750 C   0  0  0  0  0  0  0  0  0  0  0  0
  140.6210  156.9290  136.1910 C   0  0  0  0  0  0  0  0  0  0  0  0
  141.6320  156.9446  140.6567 H   0  0  0  0  0  0  0  0  0  0  0  0
  143.0866  156.7565  139.6196 H   0  0  0  0  0  0  0  0  0  0  0  0
  142.1779  158.3059  139.6196 H   0  0  0  0  0  0  0  0  0  0  0  0
  140.5158  155.1319  139.7816 H   0  0  0  0  0  0  0  0  0  0  0  0
  139.6466  155.3914  138.2312 H   0  0  0  0  0  0  0  0  0  0  0  0
  141.2789  154.6415  138.2312 H   0  0  0  0  0  0  0  0  0  0  0  0
  141.4993  159.4181  138.4024 H   0  0  0  0  0  0  0  0  0  0  0  0
  141.1385  160.8218  136.3524 H   0  0  0  0  0  0  0  0  0  0  0  0
  140.4483  160.6800  133.5875 H   0  0  0  0  0  0  0  0  0  0  0  0
  137.9990  157.2520  131.7370 H   0  0  0  0  0  0  0  0  0  0  0  0
  138.3490  157.9370  130.1150 H   0  0  0  0  0  0  0  0  0  0  0  0
  140.4852  155.8397  136.1202 H   0  0  0  0  0  0  0  0  0  0  0  0
  1  2  1  0
  2  3  1  0
  2  4  1  0
  4  5  2  0
  5  6  1  0
  6  7  2  0
  7  8  1  0
  8  9  2  0
  9 10  1  0
 10 11  1  0
 10 12  2  0
  9 13  1  0
 13 14  1  0
 14 15  2  0
 14 16  1  0
 13 17  1  0
 17 18  2  0
 18  4  1  0
 17  7  1  0
  1 19  1  0
  1 20  1  0
  1 21  1  0
  3 22  1  0
  3 23  1  0
  3 24  1  0
  5 25  1  0
  6 26  1  0
  8 27  1  0
 11 28  1  0
 11 29  1  0
 18 30  1  0
M  CHG  1  16  -1
M  END
>  <UniqueID>  (50) 
48

>  <SMILES>  (50) 
CN(C)c1ccc2cc(C(N)=O)n(C(=O)[O-])c2c1

>  <Energy>  (50) 
71.76411838165627

>  <Genealogy>  (50) 
CN(C)c1ccc2cc(C(N)=O)n(C(=O)[O-])c2c1 (protonated)
CN(C)c1ccc2cc(C(N)=O)n(C(=O)[O-])c2c1 (3D coordinates assigned)
CN(C)c1ccc2cc(C(N)=O)n(C(=O)[O-])c2c1 (optimized conformer: 71.76411838165627 kcal/mol)

>  <smiles>  (50) 
CN(C)c1ccc2cc(C(N)=O)n(C(=O)O)c2c1

>  <score_type>  (50) 
oracle

>  <origin>  (50) 
adg

>  <m_score__min__energy>  (50) 
-5.8499999999999996

>  <m_primary>  (50) 
energy

$$$$
50:0
     RDKit          3D

 33 34  0  0  0  0  0  0  0  0999 V2000
  149.2800  161.9950  130.3620 C   0  0  0  0  0  0  0  0  0  0  0  0
  149.7370  160.6150  130.0320 C   0  0  0  0  0  0  0  0  0  0  0  0
  149.9960  160.3110  128.8360 O   0  0  0  0  0  0  0  0  0  0  0  0
  149.8210  159.6300  131.0660 N   0  0  0  0  0  0  0  0  0  0  0  0
  149.1410  159.7470  132.3510 C   0  0  0  0  0  0  0  0  0  0  0  0
  148.8320  158.3610  132.9220 C   0  0  0  0  0  0  0  0  0  0  0  0
  147.3630  158.2260  133.2140 C   0  0  0  0  0  0  0  0  0  0  0  0
  146.7550  156.9460  133.2140 C   0  0  0  0  0  0  0  0  0  0  0  0
  145.3790  156.8060  133.4640 C   0  0  0  0  0  0  0  0  0  0  0  0
  144.6380  157.9620  133.6930 C   0  0  0  0  0  0  0  0  0  0  0  0
  143.3020  158.1130  133.9810 C   0  0  0  0  0  0  0  0  0  0  0  0
  143.1040  159.4850  134.1160 C   0  0  0  0  0  0  0  0  0  0  0  0
  141.7780  160.0940  134.3450 C   0  0  0  0  0  0  0  0  0  0  0  0
  141.1830  160.9470  133.3700 N   0  0  0  0  0  0  0  0  0  0  0  0
  141.1390  159.8200  135.3950 O   0  0  0  0  0  0  0  0  0  0  0  0
  144.2760  160.1580  133.9280 N   0  0  0  0  0  0  0  0  0  0  0  0
  144.5150  161.5680  134.0640 C   0  0  0  0  0  0  0  0  0  0  0  0
  145.4690  161.9870  134.7720 O   0  0  0  0  0  0  0  0  0  0  0  0
  143.7130  162.4830  133.3930 O   0  0  0  0  0  0  0  0  0  0  0  0
  145.2050  159.2110  133.6670 C   0  0  0  0  0  0  0  0  0  0  0  0
  146.5760  159.3770  133.4390 C   0  0  0  0  0  0  0  0  0  0  0  0
  149.2398  162.1165  131.4545 H   0  0  0  0  0  0  0  0  0  0  0  0
  149.9841  162.7258  129.9375 H   0  0  0  0  0  0  0  0  0  0  0  0
  148.2789  162.1611  129.9375 H   0  0  0  0  0  0  0  0  0  0  0  0
  149.7875  160.2924  133.0543 H   0  0  0  0  0  0  0  0  0  0  0  0
  148.1959  160.2905  132.2052 H   0  0  0  0  0  0  0  0  0  0  0  0
  149.1274  157.5943  132.1906 H   0  0  0  0  0  0  0  0  0  0  0  0
  149.3940  158.2291  133.8584 H   0  0  0  0  0  0  0  0  0  0  0  0
  147.3661  156.0530  133.0164 H   0  0  0  0  0  0  0  0  0  0  0  0
  144.9028  155.8145  133.4783 H   0  0  0  0  0  0  0  0  0  0  0  0
  142.5486  157.3180  134.0832 H   0  0  0  0  0  0  0  0  0  0  0  0
  141.6800  161.7980  133.0260 H   0  0  0  0  0  0  0  0  0  0  0  0
  147.0293  160.3792  133.4351 H   0  0  0  0  0  0  0  0  0  0  0  0
  1  2  1  0
  2  3  2  0
  2  4  1  0
  4  5  1  0
  5  6  1  0
  6  7  1  0
  7  8  2  0
  8  9  1  0
  9 10  2  0
 10 11  1  0
 11 12  2  0
 12 13  1  0
 13 14  1  0
 13 15  2  0
 12 16  1  0
 16 17  1  0
 17 18  2  0
 17 19  1  0
 16 20  1  0
 20 21  2  0
 21  7  1  0
 20 10  1  0
  1 22  1  0
  1 23  1  0
  1 24  1  0
  5 25  1  0
  5 26  1  0
  6 27  1  0
  6 28  1  0
  8 29  1  0
  9 30  1  0
 11 31  1  0
 14 32  1  0
 21 33  1  0
M  CHG  3   4  -1  14  -1  19  -1
M  END
>  <UniqueID>  (51) 
49

>  <SMILES>  (51) 
CC(=O)[N-]CCc1ccc2cc(C([NH-])=O)n(C(=O)[O-])c2c1

>  <Energy>  (51) 
66.9255484985821

>  <Genealogy>  (51) 
CC(=O)[N-]CCc1ccc2cc(C([NH-])=O)n(C(=O)[O-])c2c1 (protonated)
CC(=O)[N-]CCc1ccc2cc(C([NH-])=O)n(C(=O)[O-])c2c1 (3D coordinates assigned)
CC(=O)[N-]CCc1ccc2cc(C([NH-])=O)n(C(=O)[O-])c2c1 (optimized conformer: 66.9255484985821 kcal/mol)

>  <smiles>  (51) 
CC(=O)NCCc1ccc2cc(C(N)=O)n(C(=O)O)c2c1

>  <score_type>  (51) 
oracle

>  <origin>  (51) 
adg

>  <m_score__min__energy>  (51) 
-6.9699999999999998

>  <m_primary>  (51) 
energy

$$$$
51:0
     RDKit          3D

 46 49  0  0  0  0  0  0  0  0999 V2000
  138.7150  158.2450  130.7430 N   0  0  0  0  0  0  0  0  0  0  0  0
  139.0530  158.9060  131.9620 C   0  0  0  0  0  0  0  0  0  0  0  0
  138.8130  160.1380  132.0770 O   0  0  0  0  0  0  0  0  0  0  0  0
  139.6620  158.1810  133.0510 N   0  0  0  0  0  0  0  0  0  0  0  0
  139.9250  158.8850  134.3160 C   0  0  0  0  0  0  0  0  0  0  0  0
  140.6890  158.0030  135.3140 C   0  0  0  0  0  0  0  0  0  0  0  0
  141.8350  157.2230  134.6380 C   0  0  0  0  0  0  0  0  0  0  0  0
  143.0110  158.1420  134.3290 C   0  0  0  0  0  0  0  0  0  0  0  0
  142.8300  159.5500  134.3850 C   0  0  0  0  0  0  0  0  0  0  0  0
  143.8850  160.4260  134.0760 C   0  0  0  0  0  0  0  0  0  0  0  0
  145.1030  159.8720  133.6970 C   0  0  0  0  0  0  0  0  0  0  0  0
  146.2910  160.4830  133.3590 C   0  0  0  0  0  0  0  0  0  0  0  0
  147.1680  159.4430  133.0640 C   0  0  0  0  0  0  0  0  0  0  0  0
  148.5530  159.6540  132.5910 C   0  0  0  0  0  0  0  0  0  0  0  0
  149.6060  158.7580  132.9480 N   0  0  0  0  0  0  0  0  0  0  0  0
  148.8010  160.6200  131.8220 O   0  0  0  0  0  0  0  0  0  0  0  0
  146.5550  158.2370  133.2300 N   0  0  0  0  0  0  0  0  0  0  0  0
  147.1280  156.9250  133.1170 C   0  0  0  0  0  0  0  0  0  0  0  0
  147.9990  156.6990  132.2340 O   0  0  0  0  0  0  0  0  0  0  0  0
  146.6870  155.8310  133.9980 C   0  0  0  0  0  0  0  0  0  0  0  0
  145.8850  154.7690  133.6370 C   0  0  0  0  0  0  0  0  0  0  0  0
  145.7500  154.0470  134.8020 C   0  0  0  0  0  0  0  0  0  0  0  0
  146.4220  154.6580  135.7510 O   0  0  0  0  0  0  0  0  0  0  0  0
  146.9970  155.7370  135.3050 N   0  0  0  0  0  0  0  0  0  0  0  0
  145.2910  158.5190  133.6110 C   0  0  0  0  0  0  0  0  0  0  0  0
  144.2680  157.6230  133.9310 C   0  0  0  0  0  0  0  0  0  0  0  0
  141.3600  156.4090  133.4000 C   0  0  0  0  0  0  0  0  0  0  0  0
  139.9250  156.7380  132.9540 C   0  0  0  0  0  0  0  0  0  0  0  0
  137.7640  158.3470  130.3240 H   0  0  0  0  0  0  0  0  0  0  0  0
  140.5232  159.7837  134.1051 H   0  0  0  0  0  0  0  0  0  0  0  0
  138.9570  159.1497  134.7665 H   0  0  0  0  0  0  0  0  0  0  0  0
  141.1120  158.6433  136.1021 H   0  0  0  0  0  0  0  0  0  0  0  0
  139.9812  157.2719  135.7317 H   0  0  0  0  0  0  0  0  0  0  0  0
  142.1906  156.4708  135.3576 H   0  0  0  0  0  0  0  0  0  0  0  0
  141.8511  159.9602  134.6740 H   0  0  0  0  0  0  0  0  0  0  0  0
  143.7513  161.5164  134.1323 H   0  0  0  0  0  0  0  0  0  0  0  0
  146.5014  161.5623  133.3287 H   0  0  0  0  0  0  0  0  0  0  0  0
  150.5870  158.9600  132.6520 H   0  0  0  0  0  0  0  0  0  0  0  0
  149.4080  157.8500  133.4230 H   0  0  0  0  0  0  0  0  0  0  0  0
  145.4537  154.5497  132.6491 H   0  0  0  0  0  0  0  0  0  0  0  0
  145.1762  153.1157  134.9182 H   0  0  0  0  0  0  0  0  0  0  0  0
  144.4349  156.5372  133.8752 H   0  0  0  0  0  0  0  0  0  0  0  0
  142.0409  156.6221  132.5627 H   0  0  0  0  0  0  0  0  0  0  0  0
  141.3698  155.3482  133.6910 H   0  0  0  0  0  0  0  0  0  0  0  0
  139.7898  156.4169  131.9106 H   0  0  0  0  0  0  0  0  0  0  0  0
  139.2223  156.2081  133.6139 H   0  0  0  0  0  0  0  0  0  0  0  0
  1  2  1  0
  2  3  2  0
  2  4  1  0
  4  5  1  0
  5  6  1  0
  6  7  1  0
  7  8  1  0
  8  9  2  0
  9 10  1  0
 10 11  2  0
 11 12  1  0
 12 13  2  0
 13 14  1  0
 14 15  1  0
 14 16  2  0
 13 17  1  0
 17 18  1  0
 18 19  2  0
 18 20  1  0
 20 21  1  0
 21 22  2  0
 22 23  1  0
 23 24  1  0
 17 25  1  0
 25 26  2  0
  7 27  1  0
 27 28  1  0
 28  4  1  0
 26  8  1  0
 25 11  1  0
 24 20  2  0
  1 29  1  0
  5 30  1  0
  5 31  1  0
  6 32  1  0
  6 33  1  0
  7 34  1  0
  9 35  1  0
 10 36  1  0
 12 37  1  0
 15 38  1  0
 15 39  1  0
 21 40  1  0
 22 41  1  0
 26 42  1  0
 27 43  1  0
 27 44  1  0
 28 45  1  0
 28 46  1  0
M  CHG  1   1  -1
M  END
>  <UniqueID>  (52) 
50

>  <SMILES>  (52) 
[NH-]C(=O)N1CCC(c2ccc3cc(C(N)=O)n(C(=O)c4ccon4)c3c2)CC1

>  <Energy>  (52) 
122.5090989405902

>  <Genealogy>  (52) 
[NH-]C(=O)N1CCC(c2ccc3cc(C(N)=O)n(C(=O)c4ccon4)c3c2)CC1 (protonated)
[NH-]C(=O)N1CCC(c2ccc3cc(C(N)=O)n(C(=O)c4ccon4)c3c2)CC1 (3D coordinates assigned)
[NH-]C(=O)N1CCC(c2ccc3cc(C(N)=O)n(C(=O)c4ccon4)c3c2)CC1 (nonaromatic ring conformer: 122.5090989405902 kcal/mol)

>  <smiles>  (52) 
NC(=O)c1cc2ccc(C3CCN(C(N)=O)CC3)cc2n1C(=O)c1ccon1

>  <score_type>  (52) 
oracle

>  <origin>  (52) 
adg

>  <m_score__min__energy>  (52) 
-9.5700000000000003

>  <m_primary>  (52) 
energy

$$$$
52:0
     RDKit          3D

 30 32  0  0  0  0  0  0  0  0999 V2000
  146.6130  155.7180  132.3560 N   0  0  0  0  0  0  0  0  0  0  0  0
  146.4100  156.5300  133.5090 C   0  0  0  0  0  0  0  0  0  0  0  0
  146.4020  155.9950  134.6490 O   0  0  0  0  0  0  0  0  0  0  0  0
  146.2280  157.9510  133.3730 N   0  0  0  0  0  0  0  0  0  0  0  0
  147.1780  158.8830  133.0820 C   0  0  0  0  0  0  0  0  0  0  0  0
  148.5680  158.6050  132.6700 C   0  0  0  0  0  0  0  0  0  0  0  0
  148.8820  157.4850  131.8400 N   0  0  0  0  0  0  0  0  0  0  0  0
  149.4850  159.3980  133.0090 O   0  0  0  0  0  0  0  0  0  0  0  0
  146.6500  160.1680  133.1690 C   0  0  0  0  0  0  0  0  0  0  0  0
  145.3280  159.9940  133.5120 C   0  0  0  0  0  0  0  0  0  0  0  0
  144.3340  160.9380  133.7410 C   0  0  0  0  0  0  0  0  0  0  0  0
  143.0610  160.4780  134.1160 C   0  0  0  0  0  0  0  0  0  0  0  0
  142.8020  159.0900  134.2640 C   0  0  0  0  0  0  0  0  0  0  0  0
  141.4560  158.6170  134.6740 C   0  0  0  0  0  0  0  0  0  0  0  0
  140.4270  158.3060  133.7640 C   0  0  0  0  0  0  0  0  0  0  0  0
  139.2520  157.8830  134.3680 C   0  0  0  0  0  0  0  0  0  0  0  0
  139.4850  157.8950  136.0300 S   0  0  0  0  0  0  0  0  0  0  0  0
  141.0770  158.4320  136.0040 C   0  0  0  0  0  0  0  0  0  0  0  0
  143.8450  158.1620  134.0230 C   0  0  0  0  0  0  0  0  0  0  0  0
  145.0980  158.6480  133.6300 C   0  0  0  0  0  0  0  0  0  0  0  0
  146.2320  156.0010  131.4250 H   0  0  0  0  0  0  0  0  0  0  0  0
  149.8750  157.2830  131.5870 H   0  0  0  0  0  0  0  0  0  0  0  0
  148.1300  156.9070  131.4070 H   0  0  0  0  0  0  0  0  0  0  0  0
  147.1763  161.1190  132.9999 H   0  0  0  0  0  0  0  0  0  0  0  0
  144.5382  162.0134  133.6318 H   0  0  0  0  0  0  0  0  0  0  0  0
  142.2538  161.2029  134.2975 H   0  0  0  0  0  0  0  0  0  0  0  0
  140.5444  158.3908  132.6736 H   0  0  0  0  0  0  0  0  0  0  0  0
  138.3279  157.5905  133.8479 H   0  0  0  0  0  0  0  0  0  0  0  0
  141.7119  158.6077  136.8850 H   0  0  0  0  0  0  0  0  0  0  0  0
  143.6740  157.0819  134.1421 H   0  0  0  0  0  0  0  0  0  0  0  0
  1  2  1  0
  2  3  2  0
  2  4  1  0
  4  5  1  0
  5  6  1  0
  6  7  1  0
  6  8  2  0
  5  9  2  0
  9 10  1  0
 10 11  2  0
 11 12  1  0
 12 13  2  0
 13 14  1  0
 14 15  1  0
 15 16  2  0
 16 17  1  0
 17 18  1  0
 13 19  1  0
 19 20  2  0
 20  4  1  0
 20 10  1  0
 18 14  2  0
  1 21  1  0
  7 22  1  0
  7 23  1  0
  9 24  1  0
 11 25  1  0
 12 26  1  0
 15 27  1  0
 16 28  1  0
 18 29  1  0
 19 30  1  0
M  CHG  1   1  -1
M  END
>  <UniqueID>  (53) 
51

>  <SMILES>  (53) 
[NH-]C(=O)n1c(C(N)=O)cc2ccc(-c3ccsc3)cc21

>  <Energy>  (53) 
101.52288304867793

>  <Genealogy>  (53) 
[NH-]C(=O)n1c(C(N)=O)cc2ccc(-c3ccsc3)cc21 (protonated)
[NH-]C(=O)n1c(C(N)=O)cc2ccc(-c3ccsc3)cc21 (3D coordinates assigned)
[NH-]C(=O)n1c(C(N)=O)cc2ccc(-c3ccsc3)cc21 (optimized conformer: 101.52288304867793 kcal/mol)

>  <smiles>  (53) 
NC(=O)c1cc2ccc(-c3ccsc3)cc2n1C(N)=O

>  <score_type>  (53) 
oracle

>  <origin>  (53) 
adg

>  <m_score__min__energy>  (53) 
-7.4000000000000004

>  <m_primary>  (53) 
energy

$$$$
53:0
     RDKit          3D

 45 48  0  0  0  0  0  0  0  0999 V2000
  141.2390  159.4850  134.7980 N   0  0  0  0  0  0  0  0  0  0  0  0
  142.1820  160.2890  134.0940 C   0  0  0  0  0  0  0  0  0  0  0  0
  141.8480  161.4440  133.7200 O   0  0  0  0  0  0  0  0  0  0  0  0
  143.5520  159.8000  133.8270 C   0  0  0  0  0  0  0  0  0  0  0  0
  144.6070  160.6300  133.4520 C   0  0  0  0  0  0  0  0  0  0  0  0
  145.7010  159.8020  133.3410 C   0  0  0  0  0  0  0  0  0  0  0  0
  147.0100  160.0920  132.9640 C   0  0  0  0  0  0  0  0  0  0  0  0
  147.9250  159.0280  132.8900 C   0  0  0  0  0  0  0  0  0  0  0  0
  147.5180  157.7050  133.1980 C   0  0  0  0  0  0  0  0  0  0  0  0
  148.4870  156.5630  133.0780 C   0  0  0  0  0  0  0  0  0  0  0  0
  147.9270  155.3690  133.7030 N   0  0  0  0  0  0  0  0  0  0  0  0
  147.4130  154.2990  133.0730 C   0  0  0  0  0  0  0  0  0  0  0  0
  146.9150  153.4300  133.9680 N   0  0  0  0  0  0  0  0  0  0  0  0
  147.1410  154.0250  135.1570 C   0  0  0  0  0  0  0  0  0  0  0  0
  147.7530  155.2170  135.0060 N   0  0  0  0  0  0  0  0  0  0  0  0
  146.1810  157.4500  133.5680 C   0  0  0  0  0  0  0  0  0  0  0  0
  145.2940  158.5280  133.6430 C   0  0  0  0  0  0  0  0  0  0  0  0
  143.9770  158.5120  133.9440 N   0  0  0  0  0  0  0  0  0  0  0  0
  143.1760  157.3530  134.2210 C   0  0  0  0  0  0  0  0  0  0  0  0
  142.8280  157.1160  135.4100 O   0  0  0  0  0  0  0  0  0  0  0  0
  142.8520  156.3800  133.1150 C   0  0  0  0  0  0  0  0  0  0  0  0
  141.8810  155.2420  133.5150 C   0  0  0  0  0  0  0  0  0  0  0  0
  142.3920  153.7820  133.4210 C   0  0  0  0  0  0  0  0  0  0  0  0
  143.2510  153.3090  134.5720 C   0  0  0  0  0  0  0  0  0  0  0  0
  144.3670  153.0960  133.7380 O   0  0  0  0  0  0  0  0  0  0  0  0
  143.6360  153.5050  132.6050 C   0  0  0  0  0  0  0  0  0  0  0  0
  141.5460  158.8380  135.5580 H   0  0  0  0  0  0  0  0  0  0  0  0
  144.5727  161.7161  133.2810 H   0  0  0  0  0  0  0  0  0  0  0  0
  147.3181  161.1220  132.7314 H   0  0  0  0  0  0  0  0  0  0  0  0
  148.9654  159.2230  132.5907 H   0  0  0  0  0  0  0  0  0  0  0  0
  148.6824  156.3606  132.0146 H   0  0  0  0  0  0  0  0  0  0  0  0
  149.4263  156.8302  133.5842 H   0  0  0  0  0  0  0  0  0  0  0  0
  147.4017  154.1556  131.9824 H   0  0  0  0  0  0  0  0  0  0  0  0
  146.4510  152.5130  133.7860 H   0  0  0  0  0  0  0  0  0  0  0  0
  146.8611  153.5920  136.1287 H   0  0  0  0  0  0  0  0  0  0  0  0
  145.8442  156.4271  133.7922 H   0  0  0  0  0  0  0  0  0  0  0  0
  142.3970  156.9427  132.2866 H   0  0  0  0  0  0  0  0  0  0  0  0
  143.8008  155.8955  132.8410 H   0  0  0  0  0  0  0  0  0  0  0  0
  141.5838  155.4178  134.5594 H   0  0  0  0  0  0  0  0  0  0  0  0
  141.0718  155.2979  132.7720 H   0  0  0  0  0  0  0  0  0  0  0  0
  141.4074  153.3676  133.1586 H   0  0  0  0  0  0  0  0  0  0  0  0
  143.4180  154.0788  135.3398 H   0  0  0  0  0  0  0  0  0  0  0  0
  142.8904  152.4817  135.2009 H   0  0  0  0  0  0  0  0  0  0  0  0
  144.0485  154.4001  132.1165 H   0  0  0  0  0  0  0  0  0  0  0  0
  143.5671  152.8268  131.7417 H   0  0  0  0  0  0  0  0  0  0  0  0
  1  2  1  0
  2  3  2  0
  2  4  1  0
  4  5  2  0
  5  6  1  0
  6  7  2  0
  7  8  1  0
  8  9  2  0
  9 10  1  0
 10 11  1  0
 11 12  1  0
 12 13  2  0
 13 14  1  0
 14 15  2  0
  9 16  1  0
 16 17  2  0
 17 18  1  0
 18 19  1  0
 19 20  2  0
 19 21  1  0
 21 22  1  0
 22 23  1  0
 23 24  1  0
 24 25  1  0
 25 26  1  0
 18  4  1  0
 26 23  1  0
 17  6  1  0
 15 11  1  0
  1 27  1  0
  5 28  1  0
  7 29  1  0
  8 30  1  0
 10 31  1  0
 10 32  1  0
 12 33  1  0
 13 34  1  0
 14 35  1  0
 16 36  1  0
 21 37  1  0
 21 38  1  0
 22 39  1  0
 22 40  1  0
 23 41  1  0
 24 42  1  0
 24 43  1  0
 26 44  1  0
 26 45  1  0
M  CHG  2   1  -1  13   1
M  END
>  <UniqueID>  (54) 
52

>  <SMILES>  (54) 
[NH-]C(=O)c1cc2ccc(Cn3c[nH+]cn3)cc2n1C(=O)CCC1COC1

>  <Energy>  (54) 
187.03934794044673

>  <Genealogy>  (54) 
[NH-]C(=O)c1cc2ccc(Cn3c[nH+]cn3)cc2n1C(=O)CCC1COC1 (protonated)
[NH-]C(=O)c1cc2ccc(Cn3c[nH+]cn3)cc2n1C(=O)CCC1COC1 (3D coordinates assigned)
[NH-]C(=O)c1cc2ccc(Cn3c[nH+]cn3)cc2n1C(=O)CCC1COC1 (nonaromatic ring conformer: 187.03934794044673 kcal/mol)

>  <smiles>  (54) 
NC(=O)c1cc2ccc(Cn3cncn3)cc2n1C(=O)CCC1COC1

>  <score_type>  (54) 
oracle

>  <origin>  (54) 
adg

>  <m_score__min__energy>  (54) 
-8.1300000000000008

>  <m_primary>  (54) 
energy

$$$$
54:0
     RDKit          3D

 38 40  0  0  0  0  0  0  0  0999 V2000
  139.5820  157.4900  132.7290 C   0  0  0  0  0  0  0  0  0  0  0  0
  139.6350  157.4350  134.2230 C   0  0  0  0  0  0  0  0  0  0  0  0
  138.7610  158.0460  134.8940 O   0  0  0  0  0  0  0  0  0  0  0  0
  140.7130  156.7660  134.8960 N   0  0  0  0  0  0  0  0  0  0  0  0
  141.4690  157.2230  135.9330 C   0  0  0  0  0  0  0  0  0  0  0  0
  141.4360  158.5880  136.4960 C   0  0  0  0  0  0  0  0  0  0  0  0
  140.2840  159.0710  137.1800 N   0  0  0  0  0  0  0  0  0  0  0  0
  142.4250  159.3540  136.3370 O   0  0  0  0  0  0  0  0  0  0  0  0
  142.3610  156.2380  136.3550 C   0  0  0  0  0  0  0  0  0  0  0  0
  142.1320  155.1600  135.5300 C   0  0  0  0  0  0  0  0  0  0  0  0
  142.7390  153.9080  135.4990 C   0  0  0  0  0  0  0  0  0  0  0  0
  142.2910  152.9840  134.5400 C   0  0  0  0  0  0  0  0  0  0  0  0
  141.2460  153.3210  133.6440 C   0  0  0  0  0  0  0  0  0  0  0  0
  140.8040  152.3370  132.5910 C   0  0  0  0  0  0  0  0  0  0  0  0
  141.1860  150.8990  132.9610 C   0  0  0  0  0  0  0  0  0  0  0  0
  140.4580  149.8970  132.1130 C   0  0  0  0  0  0  0  0  0  0  0  0
  140.9600  148.6260  131.8370 C   0  0  0  0  0  0  0  0  0  0  0  0
  139.8910  147.8610  130.7860 S   0  0  0  0  0  0  0  0  0  0  0  0
  138.8510  149.1790  130.7320 C   0  0  0  0  0  0  0  0  0  0  0  0
  137.6520  149.2310  129.9640 N   0  0  0  0  0  0  0  0  0  0  0  0
  139.2880  150.2050  131.4900 N   0  0  0  0  0  0  0  0  0  0  0  0
  140.6580  154.6030  133.7010 C   0  0  0  0  0  0  0  0  0  0  0  0
  141.1340  155.5070  134.6580 C   0  0  0  0  0  0  0  0  0  0  0  0
  138.8504  158.2494  132.4158 H   0  0  0  0  0  0  0  0  0  0  0  0
  140.5751  157.7537  132.3363 H   0  0  0  0  0  0  0  0  0  0  0  0
  139.2815  156.5074  132.3363 H   0  0  0  0  0  0  0  0  0  0  0  0
  139.3420  159.0510  136.7290 H   0  0  0  0  0  0  0  0  0  0  0  0
  143.0925  156.3075  137.1735 H   0  0  0  0  0  0  0  0  0  0  0  0
  143.5439  153.6500  136.2029 H   0  0  0  0  0  0  0  0  0  0  0  0
  142.7562  151.9888  134.4841 H   0  0  0  0  0  0  0  0  0  0  0  0
  139.7111  152.3985  132.4822 H   0  0  0  0  0  0  0  0  0  0  0  0
  141.3096  152.5939  131.6485 H   0  0  0  0  0  0  0  0  0  0  0  0
  142.2687  150.7691  132.8165 H   0  0  0  0  0  0  0  0  0  0  0  0
  140.9059  150.7285  134.0110 H   0  0  0  0  0  0  0  0  0  0  0  0
  141.8915  148.1982  132.2362 H   0  0  0  0  0  0  0  0  0  0  0  0
  137.5250  149.9680  129.2360 H   0  0  0  0  0  0  0  0  0  0  0  0
  136.8940  148.5320  130.1220 H   0  0  0  0  0  0  0  0  0  0  0  0
  139.8478  154.8840  133.0121 H   0  0  0  0  0  0  0  0  0  0  0  0
  1  2  1  0
  2  3  2  0
  2  4  1  0
  4  5  1  0
  5  6  1  0
  6  7  1  0
  6  8  2  0
  5  9  2  0
  9 10  1  0
 10 11  2  0
 11 12  1  0
 12 13  2  0
 13 14  1  0
 14 15  1  0
 15 16  1  0
 16 17  2  0
 17 18  1  0
 18 19  1  0
 19 20  1  0
 19 21  2  0
 13 22  1  0
 22 23  2  0
 23  4  1  0
 23 10  1  0
 21 16  1  0
  1 24  1  0
  1 25  1  0
  1 26  1  0
  7 27  1  0
  9 28  1  0
 11 29  1  0
 12 30  1  0
 14 31  1  0
 14 32  1  0
 15 33  1  0
 15 34  1  0
 17 35  1  0
 20 36  1  0
 20 37  1  0
 22 38  1  0
M  CHG  1   7  -1
M  END
>  <UniqueID>  (55) 
53

>  <SMILES>  (55) 
CC(=O)n1c(C([NH-])=O)cc2ccc(CCc3csc(N)n3)cc21

>  <Energy>  (55) 
103.20157028829739

>  <Genealogy>  (55) 
CC(=O)n1c(C([NH-])=O)cc2ccc(CCc3csc(N)n3)cc21 (protonated)
CC(=O)n1c(C([NH-])=O)cc2ccc(CCc3csc(N)n3)cc21 (3D coordinates assigned)
CC(=O)n1c(C([NH-])=O)cc2ccc(CCc3csc(N)n3)cc21 (optimized conformer: 103.20157028829739 kcal/mol)

>  <smiles>  (55) 
CC(=O)n1c(C(N)=O)cc2ccc(CCc3csc(N)n3)cc21

>  <score_type>  (55) 
oracle

>  <origin>  (55) 
adg

>  <m_score__min__energy>  (55) 
-8.3699999999999992

>  <m_primary>  (55) 
energy

$$$$
55:0
     RDKit          3D

 34 35  0  0  0  0  0  0  0  0999 V2000
  149.6330  151.4290  133.6720 C   0  0  0  0  0  0  0  0  0  0  0  0
  148.8500  151.8620  132.4380 C   0  0  0  0  0  0  0  0  0  0  0  0
  148.1620  153.0860  132.6830 O   0  0  0  0  0  0  0  0  0  0  0  0
  148.8040  154.3250  132.7910 C   0  0  0  0  0  0  0  0  0  0  0  0
  149.9640  154.4850  132.3210 O   0  0  0  0  0  0  0  0  0  0  0  0
  148.1460  155.4130  133.4570 N   0  0  0  0  0  0  0  0  0  0  0  0
  147.3050  155.3470  134.5270 C   0  0  0  0  0  0  0  0  0  0  0  0
  146.7510  154.1130  135.1210 C   0  0  0  0  0  0  0  0  0  0  0  0
  145.8980  153.2560  134.3680 N   0  0  0  0  0  0  0  0  0  0  0  0
  146.9960  153.8360  136.3260 O   0  0  0  0  0  0  0  0  0  0  0  0
  146.9550  156.6270  134.9540 C   0  0  0  0  0  0  0  0  0  0  0  0
  147.6080  157.4860  134.1010 C   0  0  0  0  0  0  0  0  0  0  0  0
  147.6220  158.8780  134.0710 C   0  0  0  0  0  0  0  0  0  0  0  0
  148.4080  159.5070  133.0920 C   0  0  0  0  0  0  0  0  0  0  0  0
  149.1740  158.7400  132.1790 C   0  0  0  0  0  0  0  0  0  0  0  0
  149.9970  159.4250  131.1230 C   0  0  0  0  0  0  0  0  0  0  0  0
  149.1750  160.4570  130.4200 C   0  0  0  0  0  0  0  0  0  0  0  0
  149.6010  161.8180  130.4040 N   0  0  0  0  0  0  0  0  0  0  0  0
  148.1270  160.1190  129.8070 O   0  0  0  0  0  0  0  0  0  0  0  0
  149.1280  157.3290  132.2330 C   0  0  0  0  0  0  0  0  0  0  0  0
  148.3200  156.7300  133.2070 C   0  0  0  0  0  0  0  0  0  0  0  0
  149.0866  151.7312  134.5776 H   0  0  0  0  0  0  0  0  0  0  0  0
  149.7541  150.3357  133.6645 H   0  0  0  0  0  0  0  0  0  0  0  0
  150.6234  151.9076  133.6645 H   0  0  0  0  0  0  0  0  0  0  0  0
  149.5469  152.0011  131.5984 H   0  0  0  0  0  0  0  0  0  0  0  0
  148.1119  151.0832  132.1957 H   0  0  0  0  0  0  0  0  0  0  0  0
  146.2920  152.5270  133.7320 H   0  0  0  0  0  0  0  0  0  0  0  0
  146.2968  156.8933  135.7941 H   0  0  0  0  0  0  0  0  0  0  0  0
  147.0356  159.4667  134.7918 H   0  0  0  0  0  0  0  0  0  0  0  0
  148.4294  160.6052  133.0332 H   0  0  0  0  0  0  0  0  0  0  0  0
  150.8639  159.9102  131.5953 H   0  0  0  0  0  0  0  0  0  0  0  0
  150.3387  158.6776  130.3918 H   0  0  0  0  0  0  0  0  0  0  0  0
  150.5480  162.0870  130.7520 H   0  0  0  0  0  0  0  0  0  0  0  0
  149.7113  156.7175  131.5288 H   0  0  0  0  0  0  0  0  0  0  0  0
  1  2  1  0
  2  3  1  0
  3  4  1  0
  4  5  2  0
  4  6  1  0
  6  7  1  0
  7  8  1  0
  8  9  1  0
  8 10  2  0
  7 11  2  0
 11 12  1  0
 12 13  2  0
 13 14  1  0
 14 15  2  0
 15 16  1  0
 16 17  1  0
 17 18  1  0
 17 19  2  0
 15 20  1  0
 20 21  2  0
 21  6  1  0
 21 12  1  0
  1 22  1  0
  1 23  1  0
  1 24  1  0
  2 25  1  0
  2 26  1  0
  9 27  1  0
 11 28  1  0
 13 29  1  0
 14 30  1  0
 16 31  1  0
 16 32  1  0
 18 33  1  0
 20 34  1  0
M  CHG  2   9  -1  18  -1
M  END
>  <UniqueID>  (56) 
54

>  <SMILES>  (56) 
CCOC(=O)n1c(C([NH-])=O)cc2ccc(CC([NH-])=O)cc21

>  <Energy>  (56) 
66.96114991676669

>  <Genealogy>  (56) 
CCOC(=O)n1c(C([NH-])=O)cc2ccc(CC([NH-])=O)cc21 (protonated)
CCOC(=O)n1c(C([NH-])=O)cc2ccc(CC([NH-])=O)cc21 (3D coordinates assigned)
CCOC(=O)n1c(C([NH-])=O)cc2ccc(CC([NH-])=O)cc21 (optimized conformer: 66.96114991676669 kcal/mol)

>  <smiles>  (56) 
CCOC(=O)n1c(C(N)=O)cc2ccc(CC(N)=O)cc21

>  <score_type>  (56) 
oracle

>  <origin>  (56) 
adg

>  <m_score__min__energy>  (56) 
-6.29

>  <m_primary>  (56) 
energy

$$$$
56:0
     RDKit          3D

 54 57  0  0  0  0  0  0  0  0999 V2000
  146.7410  156.2630  134.6710 C   0  0  0  0  0  0  0  0  0  0  0  0
  147.0250  156.1200  133.1680 C   0  0  0  0  0  0  0  0  0  0  0  0
  148.5030  155.7300  132.9750 C   0  0  0  0  0  0  0  0  0  0  0  0
  146.0960  155.0350  132.5870 C   0  0  0  0  0  0  0  0  0  0  0  0
  146.7550  157.3940  132.5630 O   0  0  0  0  0  0  0  0  0  0  0  0
  146.9130  158.6530  133.1650 C   0  0  0  0  0  0  0  0  0  0  0  0
  148.0620  159.1000  133.4230 O   0  0  0  0  0  0  0  0  0  0  0  0
  145.7420  159.4220  133.4840 N   0  0  0  0  0  0  0  0  0  0  0  0
  145.7900  160.8550  133.7760 C   0  0  0  0  0  0  0  0  0  0  0  0
  144.3360  161.2840  134.0780 C   0  0  0  0  0  0  0  0  0  0  0  0
  143.5660  160.0200  133.9270 C   0  0  0  0  0  0  0  0  0  0  0  0
  142.1950  159.8390  134.0950 C   0  0  0  0  0  0  0  0  0  0  0  0
  141.6550  158.5580  133.9090 C   0  0  0  0  0  0  0  0  0  0  0  0
  140.3270  158.3720  134.1110 F   0  0  0  0  0  0  0  0  0  0  0  0
  142.4950  157.4710  133.5550 C   0  0  0  0  0  0  0  0  0  0  0  0
  141.9350  156.1140  133.3500 C   0  0  0  0  0  0  0  0  0  0  0  0
  140.5330  155.9330  133.2160 C   0  0  0  0  0  0  0  0  0  0  0  0
  139.9880  154.6490  133.0420 C   0  0  0  0  0  0  0  0  0  0  0  0
  140.8630  153.5690  132.9980 C   0  0  0  0  0  0  0  0  0  0  0  0
  140.6040  152.2230  132.8710 C   0  0  0  0  0  0  0  0  0  0  0  0
  141.8510  151.6010  132.9100 C   0  0  0  0  0  0  0  0  0  0  0  0
  142.0420  150.1440  132.7450 C   0  0  0  0  0  0  0  0  0  0  0  0
  143.0310  149.6280  131.8590 N   0  0  0  0  0  0  0  0  0  0  0  0
  141.2950  149.3430  133.3690 O   0  0  0  0  0  0  0  0  0  0  0  0
  142.8410  152.5280  133.0570 N   0  0  0  0  0  0  0  0  0  0  0  0
  144.2500  152.2940  133.2070 C   0  0  0  0  0  0  0  0  0  0  0  0
  144.9510  151.4810  132.2670 N   0  0  0  0  0  0  0  0  0  0  0  0
  144.8760  152.8160  134.1680 O   0  0  0  0  0  0  0  0  0  0  0  0
  142.2200  153.7260  133.1100 C   0  0  0  0  0  0  0  0  0  0  0  0
  142.7900  154.9880  133.3080 C   0  0  0  0  0  0  0  0  0  0  0  0
  143.8820  157.6910  133.3970 C   0  0  0  0  0  0  0  0  0  0  0  0
  144.3910  158.9810  133.5910 C   0  0  0  0  0  0  0  0  0  0  0  0
  147.5794  155.8408  135.2444 H   0  0  0  0  0  0  0  0  0  0  0  0
  146.6240  157.3275  134.9224 H   0  0  0  0  0  0  0  0  0  0  0  0
  145.8162  155.7231  134.9224 H   0  0  0  0  0  0  0  0  0  0  0  0
  148.9803  155.6040  133.9580 H   0  0  0  0  0  0  0  0  0  0  0  0
  148.5628  154.7853  132.4146 H   0  0  0  0  0  0  0  0  0  0  0  0
  149.0211  156.5222  132.4146 H   0  0  0  0  0  0  0  0  0  0  0  0
  145.6210  154.4802  133.4095 H   0  0  0  0  0  0  0  0  0  0  0  0
  145.3199  155.5096  131.9685 H   0  0  0  0  0  0  0  0  0  0  0  0
  146.6844  154.3413  131.9685 H   0  0  0  0  0  0  0  0  0  0  0  0
  146.4323  161.0448  134.6486 H   0  0  0  0  0  0  0  0  0  0  0  0
  146.2072  161.4220  132.9307 H   0  0  0  0  0  0  0  0  0  0  0  0
  144.2465  161.6798  135.1004 H   0  0  0  0  0  0  0  0  0  0  0  0
  143.9785  162.0867  133.4163 H   0  0  0  0  0  0  0  0  0  0  0  0
  141.5478  160.6853  134.3685 H   0  0  0  0  0  0  0  0  0  0  0  0
  139.8661  156.8072  133.2487 H   0  0  0  0  0  0  0  0  0  0  0  0
  138.9022  154.5029  132.9436 H   0  0  0  0  0  0  0  0  0  0  0  0
  139.6215  151.7406  132.7619 H   0  0  0  0  0  0  0  0  0  0  0  0
  143.0970  148.6030  131.6670 H   0  0  0  0  0  0  0  0  0  0  0  0
  144.4370  150.9890  131.5040 H   0  0  0  0  0  0  0  0  0  0  0  0
  145.9820  151.3430  132.3550 H   0  0  0  0  0  0  0  0  0  0  0  0
  143.8774  155.1020  133.4282 H   0  0  0  0  0  0  0  0  0  0  0  0
  144.5516  156.8615  133.1258 H   0  0  0  0  0  0  0  0  0  0  0  0
  1  2  1  0
  2  3  1  0
  2  4  1  0
  2  5  1  0
  5  6  1  0
  6  7  2  0
  6  8  1  0
  8  9  1  0
  9 10  1  0
 10 11  1  0
 11 12  2  0
 12 13  1  0
 13 14  1  0
 13 15  2  0
 15 16  1  0
 16 17  2  0
 17 18  1  0
 18 19  2  0
 19 20  1  0
 20 21  2  0
 21 22  1  0
 22 23  1  0
 22 24  2  0
 21 25  1  0
 25 26  1  0
 26 27  1  0
 26 28  2  0
 25 29  1  0
 29 30  2  0
 15 31  1  0
 31 32  2  0
 32  8  1  0
 32 11  1  0
 30 16  1  0
 29 19  1  0
  1 33  1  0
  1 34  1  0
  1 35  1  0
  3 36  1  0
  3 37  1  0
  3 38  1  0
  4 39  1  0
  4 40  1  0
  4 41  1  0
  9 42  1  0
  9 43  1  0
 10 44  1  0
 10 45  1  0
 12 46  1  0
 17 47  1  0
 18 48  1  0
 20 49  1  0
 23 50  1  0
 27 51  1  0
 27 52  1  0
 30 53  1  0
 31 54  1  0
M  CHG  1  23  -1
M  END
>  <UniqueID>  (57) 
55

>  <SMILES>  (57) 
CC(C)(C)OC(=O)N1CCc2cc(F)c(-c3ccc4cc(C([NH-])=O)n(C(N)=O)c4c3)cc21

>  <Energy>  (57) 
113.23253332101308

>  <Genealogy>  (57) 
CC(C)(C)OC(=O)N1CCc2cc(F)c(-c3ccc4cc(C([NH-])=O)n(C(N)=O)c4c3)cc21 (protonated)
CC(C)(C)OC(=O)N1CCc2cc(F)c(-c3ccc4cc(C([NH-])=O)n(C(N)=O)c4c3)cc21 (3D coordinates assigned)
CC(C)(C)OC(=O)N1CCc2cc(F)c(-c3ccc4cc(C([NH-])=O)n(C(N)=O)c4c3)cc21 (nonaromatic ring conformer: 113.23253332101308 kcal/mol)

>  <smiles>  (57) 
CC(C)(C)OC(=O)N1CCc2cc(F)c(-c3ccc4cc(C(N)=O)n(C(N)=O)c4c3)cc21

>  <score_type>  (57) 
oracle

>  <origin>  (57) 
adg

>  <m_score__min__energy>  (57) 
-9.1500000000000004

>  <m_primary>  (57) 
energy

$$$$
57:0
     RDKit          3D

 35 37  0  0  0  0  0  0  0  0999 V2000
  147.1240  155.8840  134.2940 C   0  0  0  0  0  0  0  0  0  0  0  0
  146.9390  156.6690  133.0360 C   0  0  0  0  0  0  0  0  0  0  0  0
  146.9480  156.0690  131.9280 O   0  0  0  0  0  0  0  0  0  0  0  0
  146.7630  158.0940  133.0750 N   0  0  0  0  0  0  0  0  0  0  0  0
  147.7070  159.0550  132.8730 C   0  0  0  0  0  0  0  0  0  0  0  0
  149.1030  158.8240  132.4420 C   0  0  0  0  0  0  0  0  0  0  0  0
  149.5990  157.5040  132.2340 N   0  0  0  0  0  0  0  0  0  0  0  0
  149.8590  159.8070  132.2210 O   0  0  0  0  0  0  0  0  0  0  0  0
  147.1640  160.3230  133.0740 C   0  0  0  0  0  0  0  0  0  0  0  0
  145.8470  160.1070  133.4050 C   0  0  0  0  0  0  0  0  0  0  0  0
  144.8500  161.0150  133.7480 C   0  0  0  0  0  0  0  0  0  0  0  0
  143.5870  160.5070  134.0940 C   0  0  0  0  0  0  0  0  0  0  0  0
  143.3300  159.1090  134.0700 C   0  0  0  0  0  0  0  0  0  0  0  0
  141.9830  158.5680  134.5270 C   0  0  0  0  0  0  0  0  0  0  0  0
  141.7900  158.7800  135.9750 C   0  0  0  0  0  0  0  0  0  0  0  0
  141.6390  158.9460  137.1100 N   0  0  0  0  0  0  0  0  0  0  0  0
  140.7730  159.0380  133.7020 C   0  0  0  0  0  0  0  0  0  0  0  0
  140.4560  157.5960  133.3330 C   0  0  0  0  0  0  0  0  0  0  0  0
  141.6790  157.1210  134.1040 C   0  0  0  0  0  0  0  0  0  0  0  0
  144.3880  158.2200  133.7640 C   0  0  0  0  0  0  0  0  0  0  0  0
  145.6300  158.7550  133.4010 C   0  0  0  0  0  0  0  0  0  0  0  0
  146.9691  156.5412  135.1624 H   0  0  0  0  0  0  0  0  0  0  0  0
  146.3953  155.0605  134.3228 H   0  0  0  0  0  0  0  0  0  0  0  0
  148.1437  155.4725  134.3228 H   0  0  0  0  0  0  0  0  0  0  0  0
  148.9900  156.7580  131.8300 H   0  0  0  0  0  0  0  0  0  0  0  0
  147.6795  161.2908  132.9864 H   0  0  0  0  0  0  0  0  0  0  0  0
  145.0450  162.0976  133.7482 H   0  0  0  0  0  0  0  0  0  0  0  0
  142.7854  161.2007  134.3877 H   0  0  0  0  0  0  0  0  0  0  0  0
  139.9896  159.5310  134.2964 H   0  0  0  0  0  0  0  0  0  0  0  0
  140.8990  159.7967  132.9156 H   0  0  0  0  0  0  0  0  0  0  0  0
  139.5011  157.2296  133.7380 H   0  0  0  0  0  0  0  0  0  0  0  0
  140.3203  157.3109  132.2793 H   0  0  0  0  0  0  0  0  0  0  0  0
  141.4465  156.4484  134.9428 H   0  0  0  0  0  0  0  0  0  0  0  0
  142.4495  156.5162  133.6035 H   0  0  0  0  0  0  0  0  0  0  0  0
  144.2376  157.1313  133.8104 H   0  0  0  0  0  0  0  0  0  0  0  0
  1  2  1  0
  2  3  2  0
  2  4  1  0
  4  5  1  0
  5  6  1  0
  6  7  1  0
  6  8  2  0
  5  9  2  0
  9 10  1  0
 10 11  2  0
 11 12  1  0
 12 13  2  0
 13 14  1  0
 14 15  1  0
 15 16  3  0
 14 17  1  0
 17 18  1  0
 18 19  1  0
 13 20  1  0
 20 21  2  0
 21  4  1  0
 21 10  1  0
 19 14  1  0
  1 22  1  0
  1 23  1  0
  1 24  1  0
  7 25  1  0
  9 26  1  0
 11 27  1  0
 12 28  1  0
 17 29  1  0
 17 30  1  0
 18 31  1  0
 18 32  1  0
 19 33  1  0
 19 34  1  0
 20 35  1  0
M  CHG  1   7  -1
M  END
>  <UniqueID>  (58) 
56

>  <SMILES>  (58) 
CC(=O)n1c(C([NH-])=O)cc2ccc(C3(C#N)CCC3)cc21

>  <Energy>  (58) 
137.75017042803213

>  <Genealogy>  (58) 
CC(=O)n1c(C([NH-])=O)cc2ccc(C3(C#N)CCC3)cc21 (protonated)
CC(=O)n1c(C([NH-])=O)cc2ccc(C3(C#N)CCC3)cc21 (3D coordinates assigned)
CC(=O)n1c(C([NH-])=O)cc2ccc(C3(C#N)CCC3)cc21 (nonaromatic ring conformer: 137.75017042803213 kcal/mol)

>  <smiles>  (58) 
CC(=O)n1c(C(N)=O)cc2ccc(C3(C#N)CCC3)cc21

>  <score_type>  (58) 
oracle

>  <origin>  (58) 
adg

>  <m_score__min__energy>  (58) 
-7.4000000000000004

>  <m_primary>  (58) 
energy

$$$$
58:0
     RDKit          3D

 40 42  0  0  0  0  0  0  0  0999 V2000
  149.5490  161.8450  130.3230 C   0  0  0  0  0  0  0  0  0  0  0  0
  148.7380  160.6020  130.6860 C   0  0  0  0  0  0  0  0  0  0  0  0
  149.4930  159.6690  131.6430 C   0  0  0  0  0  0  0  0  0  0  0  0
  148.5520  158.8250  132.4630 C   0  0  0  0  0  0  0  0  0  0  0  0
  147.2210  159.2300  132.6430 C   0  0  0  0  0  0  0  0  0  0  0  0
  146.3380  158.4250  133.3800 C   0  0  0  0  0  0  0  0  0  0  0  0
  144.9270  158.8410  133.5830 C   0  0  0  0  0  0  0  0  0  0  0  0
  144.5860  160.2170  133.6510 C   0  0  0  0  0  0  0  0  0  0  0  0
  143.2540  160.6220  133.8330 C   0  0  0  0  0  0  0  0  0  0  0  0
  142.2820  159.6330  133.9510 C   0  0  0  0  0  0  0  0  0  0  0  0
  140.9200  159.7460  134.1070 C   0  0  0  0  0  0  0  0  0  0  0  0
  140.4440  158.4380  134.1550 C   0  0  0  0  0  0  0  0  0  0  0  0
  139.0270  158.0980  134.4030 C   0  0  0  0  0  0  0  0  0  0  0  0
  138.2090  157.5670  133.3650 N   0  0  0  0  0  0  0  0  0  0  0  0
  138.5480  158.2300  135.5610 O   0  0  0  0  0  0  0  0  0  0  0  0
  141.4710  157.5500  134.0260 N   0  0  0  0  0  0  0  0  0  0  0  0
  141.3860  156.1180  133.9320 C   0  0  0  0  0  0  0  0  0  0  0  0
  142.3070  155.3960  134.3960 O   0  0  0  0  0  0  0  0  0  0  0  0
  140.3010  155.5190  133.3050 O   0  0  0  0  0  0  0  0  0  0  0  0
  142.5900  158.2990  133.9060 C   0  0  0  0  0  0  0  0  0  0  0  0
  143.9070  157.8660  133.7070 C   0  0  0  0  0  0  0  0  0  0  0  0
  146.8140  157.2200  133.9210 C   0  0  0  0  0  0  0  0  0  0  0  0
  148.1420  156.8460  133.7140 C   0  0  0  0  0  0  0  0  0  0  0  0
  148.9770  157.6420  132.9960 N   0  0  0  0  0  0  0  0  0  0  0  0
  149.8783  162.3496  131.2433 H   0  0  0  0  0  0  0  0  0  0  0  0
  150.4285  161.5493  129.7322 H   0  0  0  0  0  0  0  0  0  0  0  0
  148.9241  162.5309  129.7322 H   0  0  0  0  0  0  0  0  0  0  0  0
  147.8016  160.9196  131.1679 H   0  0  0  0  0  0  0  0  0  0  0  0
  148.5449  160.0448  129.7574 H   0  0  0  0  0  0  0  0  0  0  0  0
  150.1438  159.0061  131.0539 H   0  0  0  0  0  0  0  0  0  0  0  0
  150.0817  160.2917  132.3327 H   0  0  0  0  0  0  0  0  0  0  0  0
  146.8697  160.1770  132.2073 H   0  0  0  0  0  0  0  0  0  0  0  0
  145.3762  160.9767  133.5599 H   0  0  0  0  0  0  0  0  0  0  0  0
  142.9870  161.6880  133.8808 H   0  0  0  0  0  0  0  0  0  0  0  0
  140.3317  160.6727  134.1786 H   0  0  0  0  0  0  0  0  0  0  0  0
  138.3930  156.6190  132.9670 H   0  0  0  0  0  0  0  0  0  0  0  0
  144.1438  156.7934  133.6484 H   0  0  0  0  0  0  0  0  0  0  0  0
  146.1428  156.5736  134.5055 H   0  0  0  0  0  0  0  0  0  0  0  0
  148.5155  155.9007  134.1347 H   0  0  0  0  0  0  0  0  0  0  0  0
  149.9640  157.3300  132.8520 H   0  0  0  0  0  0  0  0  0  0  0  0
  1  2  1  0
  2  3  1  0
  3  4  1  0
  4  5  2  0
  5  6  1  0
  6  7  1  0
  7  8  2  0
  8  9  1  0
  9 10  2  0
 10 11  1  0
 11 12  2  0
 12 13  1  0
 13 14  1  0
 13 15  2  0
 12 16  1  0
 16 17  1  0
 17 18  2  0
 17 19  1  0
 16 20  1  0
 20 21  2  0
  6 22  2  0
 22 23  1  0
 23 24  2  0
 24  4  1  0
 21  7  1  0
 20 10  1  0
  1 25  1  0
  1 26  1  0
  1 27  1  0
  2 28  1  0
  2 29  1  0
  3 30  1  0
  3 31  1  0
  5 32  1  0
  8 33  1  0
  9 34  1  0
 11 35  1  0
 14 36  1  0
 21 37  1  0
 22 38  1  0
 23 39  1  0
 24 40  1  0
M  CHG  3  14  -1  19  -1  24   1
M  END
>  <UniqueID>  (59) 
57

>  <SMILES>  (59) 
CCCc1cc(-c2ccc3cc(C([NH-])=O)n(C(=O)[O-])c3c2)cc[nH+]1

>  <Energy>  (59) 
82.30329747886158

>  <Genealogy>  (59) 
CCCc1cc(-c2ccc3cc(C([NH-])=O)n(C(=O)[O-])c3c2)cc[nH+]1 (protonated)
CCCc1cc(-c2ccc3cc(C([NH-])=O)n(C(=O)[O-])c3c2)cc[nH+]1 (3D coordinates assigned)
CCCc1cc(-c2ccc3cc(C([NH-])=O)n(C(=O)[O-])c3c2)cc[nH+]1 (optimized conformer: 82.30329747886158 kcal/mol)

>  <smiles>  (59) 
CCCc1cc(-c2ccc3cc(C(N)=O)n(C(=O)O)c3c2)ccn1

>  <score_type>  (59) 
oracle

>  <origin>  (59) 
adg

>  <m_score__min__energy>  (59) 
-7.9900000000000002

>  <m_primary>  (59) 
energy

$$$$
59:0
     RDKit          3D

 36 38  0  0  0  0  0  0  0  0999 V2000
  149.4330  159.4860  131.1430 C   0  0  0  0  0  0  0  0  0  0  0  0
  149.3920  158.3690  132.0230 O   0  0  0  0  0  0  0  0  0  0  0  0
  148.6890  158.3860  133.2320 C   0  0  0  0  0  0  0  0  0  0  0  0
  149.1670  158.9830  134.2350 O   0  0  0  0  0  0  0  0  0  0  0  0
  147.4170  157.7220  133.3270 N   0  0  0  0  0  0  0  0  0  0  0  0
  146.1860  158.3030  133.3660 C   0  0  0  0  0  0  0  0  0  0  0  0
  145.9140  159.7490  133.4890 C   0  0  0  0  0  0  0  0  0  0  0  0
  146.9500  160.7160  133.3080 N   0  0  0  0  0  0  0  0  0  0  0  0
  144.7600  160.1370  133.8130 O   0  0  0  0  0  0  0  0  0  0  0  0
  145.1840  157.3370  133.3280 C   0  0  0  0  0  0  0  0  0  0  0  0
  145.8450  156.1320  133.2770 C   0  0  0  0  0  0  0  0  0  0  0  0
  145.3390  154.8390  133.2100 C   0  0  0  0  0  0  0  0  0  0  0  0
  146.2520  153.7760  133.1270 C   0  0  0  0  0  0  0  0  0  0  0  0
  147.6520  154.0170  133.1050 C   0  0  0  0  0  0  0  0  0  0  0  0
  148.6090  152.8840  133.0060 C   0  0  0  0  0  0  0  0  0  0  0  0
  149.2230  152.1960  134.0440 C   0  0  0  0  0  0  0  0  0  0  0  0
  150.0300  151.2450  133.5370 N   0  0  0  0  0  0  0  0  0  0  0  0
  149.9380  151.3030  132.2190 N   0  0  0  0  0  0  0  0  0  0  0  0
  150.7180  150.4730  131.3120 C   0  0  0  0  0  0  0  0  0  0  0  0
  149.0970  152.2880  131.8550 C   0  0  0  0  0  0  0  0  0  0  0  0
  148.1240  155.3500  133.1730 C   0  0  0  0  0  0  0  0  0  0  0  0
  147.1910  156.3890  133.2760 C   0  0  0  0  0  0  0  0  0  0  0  0
  149.4671  160.4150  131.7311 H   0  0  0  0  0  0  0  0  0  0  0  0
  150.3293  159.4204  130.5088 H   0  0  0  0  0  0  0  0  0  0  0  0
  148.5343  159.4863  130.5088 H   0  0  0  0  0  0  0  0  0  0  0  0
  146.7300  161.7350  133.3560 H   0  0  0  0  0  0  0  0  0  0  0  0
  147.9470  160.4240  133.2080 H   0  0  0  0  0  0  0  0  0  0  0  0
  144.0965  157.5022  133.3369 H   0  0  0  0  0  0  0  0  0  0  0  0
  144.2547  154.6542  133.2217 H   0  0  0  0  0  0  0  0  0  0  0  0
  145.8785  152.7425  133.0783 H   0  0  0  0  0  0  0  0  0  0  0  0
  149.0733  152.3969  135.1151 H   0  0  0  0  0  0  0  0  0  0  0  0
  151.3569  149.7932  131.8949 H   0  0  0  0  0  0  0  0  0  0  0  0
  150.0387  149.8843  130.6779 H   0  0  0  0  0  0  0  0  0  0  0  0
  151.3477  151.1144  130.6779 H   0  0  0  0  0  0  0  0  0  0  0  0
  148.8415  152.5707  130.8231 H   0  0  0  0  0  0  0  0  0  0  0  0
  149.2024  155.5652  133.1455 H   0  0  0  0  0  0  0  0  0  0  0  0
  1  2  1  0
  2  3  1  0
  3  4  2  0
  3  5  1  0
  5  6  1  0
  6  7  1  0
  7  8  1  0
  7  9  2  0
  6 10  2  0
 10 11  1  0
 11 12  2  0
 12 13  1  0
 13 14  2  0
 14 15  1  0
 15 16  1  0
 16 17  2  0
 17 18  1  0
 18 19  1  0
 18 20  1  0
 14 21  1  0
 21 22  2  0
 22  5  1  0
 22 11  1  0
 20 15  2  0
  1 23  1  0
  1 24  1  0
  1 25  1  0
  8 26  1  0
  8 27  1  0
 10 28  1  0
 12 29  1  0
 13 30  1  0
 16 31  1  0
 19 32  1  0
 19 33  1  0
 19 34  1  0
 20 35  1  0
 21 36  1  0
M  END
>  <UniqueID>  (60) 
58

>  <SMILES>  (60) 
COC(=O)n1c(C(N)=O)cc2ccc(-c3cnn(C)c3)cc21

>  <Energy>  (60) 
106.56032049212052

>  <Genealogy>  (60) 
COC(=O)n1c(C(N)=O)cc2ccc(-c3cnn(C)c3)cc21 (3D coordinates assigned)
COC(=O)n1c(C(N)=O)cc2ccc(-c3cnn(C)c3)cc21 (optimized conformer: 106.56032049212052 kcal/mol)

>  <smiles>  (60) 
COC(=O)n1c(C(N)=O)cc2ccc(-c3cnn(C)c3)cc21

>  <score_type>  (60) 
oracle

>  <origin>  (60) 
adg

>  <m_score__min__energy>  (60) 
-6.9400000000000004

>  <m_primary>  (60) 
energy

$$$$
60:0
     RDKit          3D

 36 37  0  0  0  0  0  0  0  0999 V2000
  149.9640  160.1300  129.2100 C   0  0  0  0  0  0  0  0  0  0  0  0
  149.0560  159.9830  130.3610 N   0  0  0  0  0  0  0  0  0  0  0  0
  148.8650  161.2910  131.0060 C   0  0  0  0  0  0  0  0  0  0  0  0
  149.5860  159.0040  131.3370 C   0  0  0  0  0  0  0  0  0  0  0  0
  149.1830  159.3700  132.7730 C   0  0  0  0  0  0  0  0  0  0  0  0
  147.7280  159.0730  133.0280 C   0  0  0  0  0  0  0  0  0  0  0  0
  147.2320  157.7560  132.8700 C   0  0  0  0  0  0  0  0  0  0  0  0
  145.8670  157.4780  133.0590 C   0  0  0  0  0  0  0  0  0  0  0  0
  145.0280  158.5340  133.4040 C   0  0  0  0  0  0  0  0  0  0  0  0
  143.6690  158.5510  133.6140 C   0  0  0  0  0  0  0  0  0  0  0  0
  143.3580  159.8770  133.9120 C   0  0  0  0  0  0  0  0  0  0  0  0
  142.0040  160.3260  134.2970 C   0  0  0  0  0  0  0  0  0  0  0  0
  141.3640  159.8080  135.4600 N   0  0  0  0  0  0  0  0  0  0  0  0
  141.3830  161.1400  133.5620 O   0  0  0  0  0  0  0  0  0  0  0  0
  144.4790  160.6510  133.8760 N   0  0  0  0  0  0  0  0  0  0  0  0
  144.5710  162.0760  134.0270 C   0  0  0  0  0  0  0  0  0  0  0  0
  143.6460  162.9310  133.3580 N   0  0  0  0  0  0  0  0  0  0  0  0
  145.4910  162.5810  134.7260 O   0  0  0  0  0  0  0  0  0  0  0  0
  145.4940  159.8130  133.5680 C   0  0  0  0  0  0  0  0  0  0  0  0
  146.8440  160.1210  133.3690 C   0  0  0  0  0  0  0  0  0  0  0  0
  150.9897  160.2961  129.5710 H   0  0  0  0  0  0  0  0  0  0  0  0
  149.9336  159.2152  128.5998 H   0  0  0  0  0  0  0  0  0  0  0  0
  149.6466  160.9885  128.5998 H   0  0  0  0  0  0  0  0  0  0  0  0
  148.8831  161.1670  132.0988 H   0  0  0  0  0  0  0  0  0  0  0  0
  149.6733  161.9719  130.7008 H   0  0  0  0  0  0  0  0  0  0  0  0
  147.8958  161.7123  130.7008 H   0  0  0  0  0  0  0  0  0  0  0  0
  149.1876  158.0073  131.0965 H   0  0  0  0  0  0  0  0  0  0  0  0
  150.6841  159.0113  131.2731 H   0  0  0  0  0  0  0  0  0  0  0  0
  149.7959  158.7872  133.4763 H   0  0  0  0  0  0  0  0  0  0  0  0
  149.3462  160.4486  132.9143 H   0  0  0  0  0  0  0  0  0  0  0  0
  147.9210  156.9432  132.5969 H   0  0  0  0  0  0  0  0  0  0  0  0
  145.4740  156.4577  132.9381 H   0  0  0  0  0  0  0  0  0  0  0  0
  142.9749  157.6994  133.5586 H   0  0  0  0  0  0  0  0  0  0  0  0
  141.7000  158.9270  135.9100 H   0  0  0  0  0  0  0  0  0  0  0  0
  142.6270  162.7080  133.3390 H   0  0  0  0  0  0  0  0  0  0  0  0
  147.2082  161.1535  133.4754 H   0  0  0  0  0  0  0  0  0  0  0  0
  1  2  1  0
  2  3  1  0
  2  4  1  0
  4  5  1  0
  5  6  1  0
  6  7  2  0
  7  8  1  0
  8  9  2  0
  9 10  1  0
 10 11  2  0
 11 12  1  0
 12 13  1  0
 12 14  2  0
 11 15  1  0
 15 16  1  0
 16 17  1  0
 16 18  2  0
 15 19  1  0
 19 20  2  0
 20  6  1  0
 19  9  1  0
  1 21  1  0
  1 22  1  0
  1 23  1  0
  3 24  1  0
  3 25  1  0
  3 26  1  0
  4 27  1  0
  4 28  1  0
  5 29  1  0
  5 30  1  0
  7 31  1  0
  8 32  1  0
 10 33  1  0
 13 34  1  0
 17 35  1  0
 20 36  1  0
M  CHG  2  13  -1  17  -1
M  END
>  <UniqueID>  (61) 
59

>  <SMILES>  (61) 
CN(C)CCc1ccc2cc(C([NH-])=O)n(C([NH-])=O)c2c1

>  <Energy>  (61) 
73.2966093501171

>  <Genealogy>  (61) 
CN(C)CCc1ccc2cc(C([NH-])=O)n(C([NH-])=O)c2c1 (protonated)
CN(C)CCc1ccc2cc(C([NH-])=O)n(C([NH-])=O)c2c1 (3D coordinates assigned)
CN(C)CCc1ccc2cc(C([NH-])=O)n(C([NH-])=O)c2c1 (optimized conformer: 73.2966093501171 kcal/mol)

>  <smiles>  (61) 
CN(C)CCc1ccc2cc(C(N)=O)n(C(N)=O)c2c1

>  <score_type>  (61) 
oracle

>  <origin>  (61) 
adg

>  <m_score__min__energy>  (61) 
-6.9199999999999999

>  <m_primary>  (61) 
energy

$$$$
61:0
     RDKit          3D

 34 35  0  0  0  0  0  0  0  0999 V2000
  150.0160  160.0730  129.2300 C   0  0  0  0  0  0  0  0  0  0  0  0
  149.5010  160.2750  130.6320 C   0  0  0  0  0  0  0  0  0  0  0  0
  148.7880  161.5580  130.9860 C   0  0  0  0  0  0  0  0  0  0  0  0
  149.6900  159.2890  131.5360 C   0  0  0  0  0  0  0  0  0  0  0  0
  149.2260  159.3470  132.9720 C   0  0  0  0  0  0  0  0  0  0  0  0
  147.7690  158.9850  133.0970 C   0  0  0  0  0  0  0  0  0  0  0  0
  147.3580  157.6320  132.9900 C   0  0  0  0  0  0  0  0  0  0  0  0
  146.0040  157.2820  133.1240 C   0  0  0  0  0  0  0  0  0  0  0  0
  145.0870  158.3020  133.3650 C   0  0  0  0  0  0  0  0  0  0  0  0
  143.7270  158.2400  133.5620 C   0  0  0  0  0  0  0  0  0  0  0  0
  143.3240  159.5570  133.7730 C   0  0  0  0  0  0  0  0  0  0  0  0
  141.9110  159.9550  133.9390 C   0  0  0  0  0  0  0  0  0  0  0  0
  141.0300  160.0150  132.8200 N   0  0  0  0  0  0  0  0  0  0  0  0
  141.4610  160.1960  135.0910 O   0  0  0  0  0  0  0  0  0  0  0  0
  144.3940  160.4000  133.7190 N   0  0  0  0  0  0  0  0  0  0  0  0
  144.4120  161.8130  133.9760 C   0  0  0  0  0  0  0  0  0  0  0  0
  143.5920  162.5760  133.4000 O   0  0  0  0  0  0  0  0  0  0  0  0
  145.3540  162.3570  134.8410 O   0  0  0  0  0  0  0  0  0  0  0  0
  145.4660  159.6160  133.4650 C   0  0  0  0  0  0  0  0  0  0  0  0
  146.8100  159.9910  133.3540 C   0  0  0  0  0  0  0  0  0  0  0  0
  151.0394  159.6716  129.2696 H   0  0  0  0  0  0  0  0  0  0  0  0
  149.3643  159.3639  128.6986 H   0  0  0  0  0  0  0  0  0  0  0  0
  150.0202  161.0361  128.6986 H   0  0  0  0  0  0  0  0  0  0  0  0
  148.7330  161.6570  132.0801 H   0  0  0  0  0  0  0  0  0  0  0  0
  149.3408  162.4121  130.5679 H   0  0  0  0  0  0  0  0  0  0  0  0
  147.7707  161.5395  130.5679 H   0  0  0  0  0  0  0  0  0  0  0  0
  150.2175  158.3827  131.2037 H   0  0  0  0  0  0  0  0  0  0  0  0
  149.8221  158.6411  133.5689 H   0  0  0  0  0  0  0  0  0  0  0  0
  149.3580  160.3767  133.3358 H   0  0  0  0  0  0  0  0  0  0  0  0
  148.1067  156.8488  132.8002 H   0  0  0  0  0  0  0  0  0  0  0  0
  145.6782  156.2346  133.0411 H   0  0  0  0  0  0  0  0  0  0  0  0
  143.0924  157.3415  133.5545 H   0  0  0  0  0  0  0  0  0  0  0  0
  141.3660  159.7870  131.8590 H   0  0  0  0  0  0  0  0  0  0  0  0
  147.1124  161.0429  133.4641 H   0  0  0  0  0  0  0  0  0  0  0  0
  1  2  1  0
  2  3  1  0
  2  4  2  3
  4  5  1  0
  5  6  1  0
  6  7  2  0
  7  8  1  0
  8  9  2  0
  9 10  1  0
 10 11  2  0
 11 12  1  0
 12 13  1  0
 12 14  2  0
 11 15  1  0
 15 16  1  0
 16 17  2  0
 16 18  1  0
 15 19  1  0
 19 20  2  0
 20  6  1  0
 19  9  1  0
  1 21  1  0
  1 22  1  0
  1 23  1  0
  3 24  1  0
  3 25  1  0
  3 26  1  0
  4 27  1  0
  5 28  1  0
  5 29  1  0
  7 30  1  0
  8 31  1  0
 10 32  1  0
 13 33  1  0
 20 34  1  0
M  CHG  2  13  -1  18  -1
M  END
>  <UniqueID>  (62) 
60

>  <SMILES>  (62) 
CC(C)=CCc1ccc2cc(C([NH-])=O)n(C(=O)[O-])c2c1

>  <Energy>  (62) 
68.93336305575079

>  <Genealogy>  (62) 
CC(C)=CCc1ccc2cc(C([NH-])=O)n(C(=O)[O-])c2c1 (protonated)
CC(C)=CCc1ccc2cc(C([NH-])=O)n(C(=O)[O-])c2c1 (3D coordinates assigned)
CC(C)=CCc1ccc2cc(C([NH-])=O)n(C(=O)[O-])c2c1 (optimized conformer: 68.93336305575079 kcal/mol)

>  <smiles>  (62) 
CC(C)=CCc1ccc2cc(C(N)=O)n(C(=O)O)c2c1

>  <score_type>  (62) 
oracle

>  <origin>  (62) 
adg

>  <m_score__min__energy>  (62) 
-7.79

>  <m_primary>  (62) 
energy

$$$$
62:0
     RDKit          3D

 38 40  0  0  0  0  0  0  0  0999 V2000
  147.3490  155.8490  134.1760 C   0  0  0  0  0  0  0  0  0  0  0  0
  147.1370  156.6830  132.9560 C   0  0  0  0  0  0  0  0  0  0  0  0
  147.1660  156.1440  131.8170 O   0  0  0  0  0  0  0  0  0  0  0  0
  146.9850  158.1020  133.0730 N   0  0  0  0  0  0  0  0  0  0  0  0
  147.9040  159.0650  132.7920 C   0  0  0  0  0  0  0  0  0  0  0  0
  149.2820  158.8310  132.3130 C   0  0  0  0  0  0  0  0  0  0  0  0
  149.8150  157.5130  132.2200 N   0  0  0  0  0  0  0  0  0  0  0  0
  149.9970  159.8120  131.9720 O   0  0  0  0  0  0  0  0  0  0  0  0
  147.3500  160.3320  132.9800 C   0  0  0  0  0  0  0  0  0  0  0  0
  146.0520  160.1070  133.3840 C   0  0  0  0  0  0  0  0  0  0  0  0
  145.0430  161.0060  133.7080 C   0  0  0  0  0  0  0  0  0  0  0  0
  143.7960  160.4850  134.0980 C   0  0  0  0  0  0  0  0  0  0  0  0
  143.5780  159.0830  134.1520 C   0  0  0  0  0  0  0  0  0  0  0  0
  142.2320  158.5420  134.6030 C   0  0  0  0  0  0  0  0  0  0  0  0
  141.6720  159.3440  135.7940 C   0  0  0  0  0  0  0  0  0  0  0  0
  140.4900  158.6280  136.4790 C   0  0  0  0  0  0  0  0  0  0  0  0
  139.4800  157.5670  135.3680 S   0  0  0  0  0  0  0  0  0  0  0  0
  139.7610  158.5400  133.8530 C   0  0  0  0  0  0  0  0  0  0  0  0
  141.2320  158.4910  133.4190 C   0  0  0  0  0  0  0  0  0  0  0  0
  144.6340  158.2040  133.8150 C   0  0  0  0  0  0  0  0  0  0  0  0
  145.8590  158.7530  133.4290 C   0  0  0  0  0  0  0  0  0  0  0  0
  147.1923  156.4655  135.0734 H   0  0  0  0  0  0  0  0  0  0  0  0
  146.6350  155.0122  134.1767 H   0  0  0  0  0  0  0  0  0  0  0  0
  148.3759  155.4548  134.1767 H   0  0  0  0  0  0  0  0  0  0  0  0
  149.2510  156.7300  131.8250 H   0  0  0  0  0  0  0  0  0  0  0  0
  147.8446  161.3040  132.8362 H   0  0  0  0  0  0  0  0  0  0  0  0
  145.2142  162.0916  133.6609 H   0  0  0  0  0  0  0  0  0  0  0  0
  142.9795  161.1723  134.3645 H   0  0  0  0  0  0  0  0  0  0  0  0
  142.3814  157.5105  134.9547 H   0  0  0  0  0  0  0  0  0  0  0  0
  142.4746  159.4872  136.5325 H   0  0  0  0  0  0  0  0  0  0  0  0
  141.3041  160.3062  135.4081 H   0  0  0  0  0  0  0  0  0  0  0  0
  140.8934  157.9947  137.2828 H   0  0  0  0  0  0  0  0  0  0  0  0
  139.8191  159.4196  136.8441 H   0  0  0  0  0  0  0  0  0  0  0  0
  139.1360  158.1321  133.0449 H   0  0  0  0  0  0  0  0  0  0  0  0
  139.4969  159.5873  134.0611 H   0  0  0  0  0  0  0  0  0  0  0  0
  141.3993  157.5568  132.8629 H   0  0  0  0  0  0  0  0  0  0  0  0
  141.4160  159.3839  132.8034 H   0  0  0  0  0  0  0  0  0  0  0  0
  144.4937  157.1138  133.8560 H   0  0  0  0  0  0  0  0  0  0  0  0
  1  2  1  0
  2  3  2  0
  2  4  1  0
  4  5  1  0
  5  6  1  0
  6  7  1  0
  6  8  2  0
  5  9  2  0
  9 10  1  0
 10 11  2  0
 11 12  1  0
 12 13  2  0
 13 14  1  0
 14 15  1  0
 15 16  1  0
 16 17  1  0
 17 18  1  0
 18 19  1  0
 13 20  1  0
 20 21  2  0
 21  4  1  0
 21 10  1  0
 19 14  1  0
  1 22  1  0
  1 23  1  0
  1 24  1  0
  7 25  1  0
  9 26  1  0
 11 27  1  0
 12 28  1  0
 14 29  1  0
 15 30  1  0
 15 31  1  0
 16 32  1  0
 16 33  1  0
 18 34  1  0
 18 35  1  0
 19 36  1  0
 19 37  1  0
 20 38  1  0
M  CHG  1   7  -1
M  END
>  <UniqueID>  (63) 
61

>  <SMILES>  (63) 
CC(=O)n1c(C([NH-])=O)cc2ccc(C3CCSCC3)cc21

>  <Energy>  (63) 
81.44410694759736

>  <Genealogy>  (63) 
CC(=O)n1c(C([NH-])=O)cc2ccc(C3CCSCC3)cc21 (protonated)
CC(=O)n1c(C([NH-])=O)cc2ccc(C3CCSCC3)cc21 (3D coordinates assigned)
CC(=O)n1c(C([NH-])=O)cc2ccc(C3CCSCC3)cc21 (nonaromatic ring conformer: 81.44410694759736 kcal/mol)

>  <smiles>  (63) 
CC(=O)n1c(C(N)=O)cc2ccc(C3CCSCC3)cc21

>  <score_type>  (63) 
oracle

>  <origin>  (63) 
adg

>  <m_score__min__energy>  (63) 
-7.6799999999999997

>  <m_primary>  (63) 
energy

$$$$
63:0
     RDKit          3D

 42 44  0  0  0  0  0  0  0  0999 V2000
  138.9340  158.2290  131.8510 C   0  0  0  0  0  0  0  0  0  0  0  0
  139.1960  157.1480  132.7370 O   0  0  0  0  0  0  0  0  0  0  0  0
  139.4660  157.3350  134.0960 C   0  0  0  0  0  0  0  0  0  0  0  0
  138.6250  157.9150  134.8360 O   0  0  0  0  0  0  0  0  0  0  0  0
  140.7050  156.8640  134.6520 N   0  0  0  0  0  0  0  0  0  0  0  0
  141.5310  157.5200  135.5140 C   0  0  0  0  0  0  0  0  0  0  0  0
  141.3990  158.9300  135.9340 C   0  0  0  0  0  0  0  0  0  0  0  0
  140.2230  159.3990  136.5940 N   0  0  0  0  0  0  0  0  0  0  0  0
  142.3170  159.7470  135.6540 O   0  0  0  0  0  0  0  0  0  0  0  0
  142.5710  156.6930  135.9280 C   0  0  0  0  0  0  0  0  0  0  0  0
  142.3660  155.4990  135.2760 C   0  0  0  0  0  0  0  0  0  0  0  0
  143.0950  154.3140  135.3300 C   0  0  0  0  0  0  0  0  0  0  0  0
  142.6310  153.2200  134.5790 C   0  0  0  0  0  0  0  0  0  0  0  0
  141.4530  153.3320  133.8060 C   0  0  0  0  0  0  0  0  0  0  0  0
  140.9810  152.2010  133.0540 C   0  0  0  0  0  0  0  0  0  0  0  0
  140.5830  151.2520  132.4240 C   0  0  0  0  0  0  0  0  0  0  0  0
  140.1070  150.1210  131.6730 C   0  0  0  0  0  0  0  0  0  0  0  0
  138.7350  149.9490  131.4560 C   0  0  0  0  0  0  0  0  0  0  0  0
  138.2720  148.8480  130.7280 C   0  0  0  0  0  0  0  0  0  0  0  0
  139.1820  147.9070  130.2070 C   0  0  0  0  0  0  0  0  0  0  0  0
  138.7690  146.7870  129.4700 O   0  0  0  0  0  0  0  0  0  0  0  0
  139.4700  145.5490  129.4300 C   0  0  0  0  0  0  0  0  0  0  0  0
  140.5540  148.0890  130.4300 C   0  0  0  0  0  0  0  0  0  0  0  0
  141.0150  149.1890  131.1580 C   0  0  0  0  0  0  0  0  0  0  0  0
  140.7360  154.5440  133.7730 C   0  0  0  0  0  0  0  0  0  0  0  0
  141.2320  155.6260  134.5130 C   0  0  0  0  0  0  0  0  0  0  0  0
  138.7143  159.1357  132.4337 H   0  0  0  0  0  0  0  0  0  0  0  0
  139.8154  158.4053  131.2169 H   0  0  0  0  0  0  0  0  0  0  0  0
  138.0697  157.9822  131.2169 H   0  0  0  0  0  0  0  0  0  0  0  0
  140.1640  160.3900  136.9180 H   0  0  0  0  0  0  0  0  0  0  0  0
  139.3780  158.7930  136.6870 H   0  0  0  0  0  0  0  0  0  0  0  0
  143.3833  156.9410  136.6271 H   0  0  0  0  0  0  0  0  0  0  0  0
  144.0060  154.2362  135.9415 H   0  0  0  0  0  0  0  0  0  0  0  0
  143.1878  152.2715  134.5930 H   0  0  0  0  0  0  0  0  0  0  0  0
  138.0195  150.6810  131.8587 H   0  0  0  0  0  0  0  0  0  0  0  0
  137.1927  148.7163  130.5615 H   0  0  0  0  0  0  0  0  0  0  0  0
  139.6650  145.2047  130.4564 H   0  0  0  0  0  0  0  0  0  0  0  0
  138.8619  144.8002  128.9013 H   0  0  0  0  0  0  0  0  0  0  0  0
  140.4250  145.6853  128.9013 H   0  0  0  0  0  0  0  0  0  0  0  0
  141.2734  147.3601  130.0287 H   0  0  0  0  0  0  0  0  0  0  0  0
  142.0938  149.3226  131.3266 H   0  0  0  0  0  0  0  0  0  0  0  0
  139.8125  154.6386  133.1829 H   0  0  0  0  0  0  0  0  0  0  0  0
  1  2  1  0
  2  3  1  0
  3  4  2  0
  3  5  1  0
  5  6  1  0
  6  7  1  0
  7  8  1  0
  7  9  2  0
  6 10  2  0
 10 11  1  0
 11 12  2  0
 12 13  1  0
 13 14  2  0
 14 15  1  0
 15 16  3  0
 16 17  1  0
 17 18  2  0
 18 19  1  0
 19 20  2  0
 20 21  1  0
 21 22  1  0
 20 23  1  0
 23 24  2  0
 14 25  1  0
 25 26  2  0
 26  5  1  0
 26 11  1  0
 24 17  1  0
  1 27  1  0
  1 28  1  0
  1 29  1  0
  8 30  1  0
  8 31  1  0
 10 32  1  0
 12 33  1  0
 13 34  1  0
 18 35  1  0
 19 36  1  0
 22 37  1  0
 22 38  1  0
 22 39  1  0
 23 40  1  0
 24 41  1  0
 25 42  1  0
M  END
>  <UniqueID>  (64) 
62

>  <SMILES>  (64) 
COC(=O)n1c(C(N)=O)cc2ccc(C#Cc3ccc(OC)cc3)cc21

>  <Energy>  (64) 
77.49502814270278

>  <Genealogy>  (64) 
COC(=O)n1c(C(N)=O)cc2ccc(C#Cc3ccc(OC)cc3)cc21 (3D coordinates assigned)
COC(=O)n1c(C(N)=O)cc2ccc(C#Cc3ccc(OC)cc3)cc21 (optimized conformer: 77.49502814270278 kcal/mol)

>  <smiles>  (64) 
COC(=O)n1c(C(N)=O)cc2ccc(C#Cc3ccc(OC)cc3)cc21

>  <score_type>  (64) 
oracle

>  <origin>  (64) 
adg

>  <m_score__min__energy>  (64) 
-8.1600000000000001

>  <m_primary>  (64) 
energy

$$$$
64:0
     RDKit          3D

 35 37  0  0  0  0  0  0  0  0999 V2000
  148.4630  157.4980  131.8800 N   0  0  0  0  0  0  0  0  0  0  0  0
  148.1180  158.4450  132.8920 C   0  0  0  0  0  0  0  0  0  0  0  0
  149.0280  158.9390  133.6090 O   0  0  0  0  0  0  0  0  0  0  0  0
  146.7110  158.8040  133.1560 C   0  0  0  0  0  0  0  0  0  0  0  0
  146.2580  160.1180  133.2250 C   0  0  0  0  0  0  0  0  0  0  0  0
  144.9240  160.0250  133.5460 C   0  0  0  0  0  0  0  0  0  0  0  0
  143.9760  161.0270  133.7250 C   0  0  0  0  0  0  0  0  0  0  0  0
  142.6550  160.6440  134.0090 C   0  0  0  0  0  0  0  0  0  0  0  0
  142.3040  159.2730  134.1000 C   0  0  0  0  0  0  0  0  0  0  0  0
  140.8760  158.8800  134.3660 C   0  0  0  0  0  0  0  0  0  0  0  0
  140.0280  159.0710  133.1300 C   0  0  0  0  0  0  0  0  0  0  0  0
  139.8640  160.3660  132.6060 C   0  0  0  0  0  0  0  0  0  0  0  0
  139.1140  160.5730  131.4460 C   0  0  0  0  0  0  0  0  0  0  0  0
  138.5230  159.4920  130.7920 C   0  0  0  0  0  0  0  0  0  0  0  0
  138.6810  158.1990  131.2960 C   0  0  0  0  0  0  0  0  0  0  0  0
  139.4310  157.9780  132.4580 C   0  0  0  0  0  0  0  0  0  0  0  0
  139.5890  156.3250  133.0390 Cl  0  0  0  0  0  0  0  0  0  0  0  0
  143.2950  158.2830  133.9130 C   0  0  0  0  0  0  0  0  0  0  0  0
  144.6080  158.6940  133.6510 C   0  0  0  0  0  0  0  0  0  0  0  0
  145.6970  157.9290  133.4110 N   0  0  0  0  0  0  0  0  0  0  0  0
  145.7370  156.4940  133.3180 C   0  0  0  0  0  0  0  0  0  0  0  0
  146.2530  155.9360  132.3150 O   0  0  0  0  0  0  0  0  0  0  0  0
  145.2060  155.7080  134.3330 O   0  0  0  0  0  0  0  0  0  0  0  0
  147.7280  156.9460  131.3860 H   0  0  0  0  0  0  0  0  0  0  0  0
  149.4660  157.2850  131.6810 H   0  0  0  0  0  0  0  0  0  0  0  0
  146.8421  161.0351  133.0584 H   0  0  0  0  0  0  0  0  0  0  0  0
  144.2529  162.0887  133.6464 H   0  0  0  0  0  0  0  0  0  0  0  0
  141.8853  161.4148  134.1623 H   0  0  0  0  0  0  0  0  0  0  0  0
  140.8429  157.8223  134.6662 H   0  0  0  0  0  0  0  0  0  0  0  0
  140.4782  159.5183  135.1687 H   0  0  0  0  0  0  0  0  0  0  0  0
  140.3303  161.2230  133.1141 H   0  0  0  0  0  0  0  0  0  0  0  0
  138.9892  161.5906  131.0474 H   0  0  0  0  0  0  0  0  0  0  0  0
  137.9323  159.6579  129.8790 H   0  0  0  0  0  0  0  0  0  0  0  0
  138.2136  157.3491  130.7772 H   0  0  0  0  0  0  0  0  0  0  0  0
  143.0410  157.2143  133.9718 H   0  0  0  0  0  0  0  0  0  0  0  0
  1  2  1  0
  2  3  2  0
  2  4  1  0
  4  5  2  0
  5  6  1  0
  6  7  2  0
  7  8  1  0
  8  9  2  0
  9 10  1  0
 10 11  1  0
 11 12  2  0
 12 13  1  0
 13 14  2  0
 14 15  1  0
 15 16  2  0
 16 17  1  0
  9 18  1  0
 18 19  2  0
 19 20  1  0
 20 21  1  0
 21 22  2  0
 21 23  1  0
 20  4  1  0
 19  6  1  0
 16 11  1  0
  1 24  1  0
  1 25  1  0
  5 26  1  0
  7 27  1  0
  8 28  1  0
 10 29  1  0
 10 30  1  0
 12 31  1  0
 13 32  1  0
 14 33  1  0
 15 34  1  0
 18 35  1  0
M  CHG  1  23  -1
M  END
>  <UniqueID>  (65) 
63

>  <SMILES>  (65) 
NC(=O)c1cc2ccc(Cc3ccccc3Cl)cc2n1C(=O)[O-]

>  <Energy>  (65) 
77.90082411053429

>  <Genealogy>  (65) 
NC(=O)c1cc2ccc(Cc3ccccc3Cl)cc2n1C(=O)[O-] (protonated)
NC(=O)c1cc2ccc(Cc3ccccc3Cl)cc2n1C(=O)[O-] (3D coordinates assigned)
NC(=O)c1cc2ccc(Cc3ccccc3Cl)cc2n1C(=O)[O-] (optimized conformer: 77.90082411053429 kcal/mol)

>  <smiles>  (65) 
NC(=O)c1cc2ccc(Cc3ccccc3Cl)cc2n1C(=O)O

>  <score_type>  (65) 
oracle

>  <origin>  (65) 
adg

>  <m_score__min__energy>  (65) 
-8.3000000000000007

>  <m_primary>  (65) 
energy

$$$$
65:0
     RDKit          3D

 39 41  0  0  0  0  0  0  0  0999 V2000
  150.3360  150.5050  130.0750 C   0  0  0  0  0  0  0  0  0  0  0  0
  150.3200  150.1330  131.4480 O   0  0  0  0  0  0  0  0  0  0  0  0
  149.2850  150.4950  132.3170 C   0  0  0  0  0  0  0  0  0  0  0  0
  148.6710  149.6060  132.9710 O   0  0  0  0  0  0  0  0  0  0  0  0
  148.9100  151.9190  132.4660 C   0  0  0  0  0  0  0  0  0  0  0  0
  147.5670  152.2940  132.6450 C   0  0  0  0  0  0  0  0  0  0  0  0
  147.2190  153.6400  132.7860 C   0  0  0  0  0  0  0  0  0  0  0  0
  148.2050  154.6410  132.7510 C   0  0  0  0  0  0  0  0  0  0  0  0
  147.8350  156.0710  132.9000 C   0  0  0  0  0  0  0  0  0  0  0  0
  148.8300  157.0810  132.8360 C   0  0  0  0  0  0  0  0  0  0  0  0
  148.4920  158.4360  132.9890 C   0  0  0  0  0  0  0  0  0  0  0  0
  147.1530  158.7550  133.1930 C   0  0  0  0  0  0  0  0  0  0  0  0
  146.5610  159.9790  133.4030 C   0  0  0  0  0  0  0  0  0  0  0  0
  145.2040  159.7060  133.5640 C   0  0  0  0  0  0  0  0  0  0  0  0
  144.1830  160.7560  133.7460 C   0  0  0  0  0  0  0  0  0  0  0  0
  142.8280  160.5460  133.3470 N   0  0  0  0  0  0  0  0  0  0  0  0
  144.5230  161.8770  134.2100 O   0  0  0  0  0  0  0  0  0  0  0  0
  144.9680  158.3670  133.4720 N   0  0  0  0  0  0  0  0  0  0  0  0
  143.7250  157.6810  133.6980 C   0  0  0  0  0  0  0  0  0  0  0  0
  142.7590  157.5840  132.6530 N   0  0  0  0  0  0  0  0  0  0  0  0
  143.4740  157.1720  134.8220 O   0  0  0  0  0  0  0  0  0  0  0  0
  146.1730  157.7990  133.2400 C   0  0  0  0  0  0  0  0  0  0  0  0
  146.4840  156.4390  133.1120 C   0  0  0  0  0  0  0  0  0  0  0  0
  149.5470  154.2660  132.5700 C   0  0  0  0  0  0  0  0  0  0  0  0
  149.8960  152.9180  132.4310 C   0  0  0  0  0  0  0  0  0  0  0  0
  150.3831  151.6009  129.9926 H   0  0  0  0  0  0  0  0  0  0  0  0
  151.2159  150.0623  129.5854 H   0  0  0  0  0  0  0  0  0  0  0  0
  149.4213  150.1395  129.5854 H   0  0  0  0  0  0  0  0  0  0  0  0
  146.7840  151.5219  132.6743 H   0  0  0  0  0  0  0  0  0  0  0  0
  146.1641  153.9186  132.9256 H   0  0  0  0  0  0  0  0  0  0  0  0
  149.8794  156.7992  132.6644 H   0  0  0  0  0  0  0  0  0  0  0  0
  149.2620  159.2205  132.9488 H   0  0  0  0  0  0  0  0  0  0  0  0
  147.0532  160.9622  133.4366 H   0  0  0  0  0  0  0  0  0  0  0  0
  142.5490  159.6950  132.8110 H   0  0  0  0  0  0  0  0  0  0  0  0
  142.1110  161.2850  133.5180 H   0  0  0  0  0  0  0  0  0  0  0  0
  142.9930  157.8700  131.6770 H   0  0  0  0  0  0  0  0  0  0  0  0
  145.6962  155.6739  133.1748 H   0  0  0  0  0  0  0  0  0  0  0  0
  150.3296  155.0383  132.5373 H   0  0  0  0  0  0  0  0  0  0  0  0
  150.9510  152.6389  132.2932 H   0  0  0  0  0  0  0  0  0  0  0  0
  1  2  1  0
  2  3  1  0
  3  4  2  0
  3  5  1  0
  5  6  2  0
  6  7  1  0
  7  8  2  0
  8  9  1  0
  9 10  2  0
 10 11  1  0
 11 12  2  0
 12 13  1  0
 13 14  2  0
 14 15  1  0
 15 16  1  0
 15 17  2  0
 14 18  1  0
 18 19  1  0
 19 20  1  0
 19 21  2  0
 18 22  1  0
 22 23  2  0
  8 24  1  0
 24 25  2  0
 25  5  1  0
 23  9  1  0
 22 12  1  0
  1 26  1  0
  1 27  1  0
  1 28  1  0
  6 29  1  0
  7 30  1  0
 10 31  1  0
 11 32  1  0
 13 33  1  0
 16 34  1  0
 16 35  1  0
 20 36  1  0
 23 37  1  0
 24 38  1  0
 25 39  1  0
M  CHG  1  20  -1
M  END
>  <UniqueID>  (66) 
64

>  <SMILES>  (66) 
COC(=O)c1ccc(-c2ccc3cc(C(N)=O)n(C([NH-])=O)c3c2)cc1

>  <Energy>  (66) 
84.84534903358163

>  <Genealogy>  (66) 
COC(=O)c1ccc(-c2ccc3cc(C(N)=O)n(C([NH-])=O)c3c2)cc1 (protonated)
COC(=O)c1ccc(-c2ccc3cc(C(N)=O)n(C([NH-])=O)c3c2)cc1 (3D coordinates assigned)
COC(=O)c1ccc(-c2ccc3cc(C(N)=O)n(C([NH-])=O)c3c2)cc1 (optimized conformer: 84.84534903358163 kcal/mol)

>  <smiles>  (66) 
COC(=O)c1ccc(-c2ccc3cc(C(N)=O)n(C(N)=O)c3c2)cc1

>  <score_type>  (66) 
oracle

>  <origin>  (66) 
adg

>  <m_score__min__energy>  (66) 
-7.8600000000000003

>  <m_primary>  (66) 
energy

$$$$
66:0
     RDKit          3D

 37 39  0  0  0  0  0  0  0  0999 V2000
  147.7320  160.8000  132.7070 N   0  0  0  0  0  0  0  0  0  0  0  0
  147.3570  159.6760  133.5000 C   0  0  0  0  0  0  0  0  0  0  0  0
  148.2420  159.0460  134.1360 O   0  0  0  0  0  0  0  0  0  0  0  0
  145.9550  159.2070  133.5370 C   0  0  0  0  0  0  0  0  0  0  0  0
  145.5910  157.8740  133.3580 C   0  0  0  0  0  0  0  0  0  0  0  0
  144.2150  157.8670  133.3670 C   0  0  0  0  0  0  0  0  0  0  0  0
  143.3250  156.8070  133.2340 C   0  0  0  0  0  0  0  0  0  0  0  0
  141.9500  157.0880  133.3070 C   0  0  0  0  0  0  0  0  0  0  0  0
  141.4960  158.4110  133.5300 C   0  0  0  0  0  0  0  0  0  0  0  0
  140.0200  158.7030  133.5830 C   0  0  0  0  0  0  0  0  0  0  0  0
  139.3640  157.9450  134.7400 C   0  0  0  0  0  0  0  0  0  0  0  0
  140.2160  158.0260  135.9780 C   0  0  0  0  0  0  0  0  0  0  0  0
  140.5790  159.2750  136.5090 C   0  0  0  0  0  0  0  0  0  0  0  0
  141.3430  159.3480  137.6770 C   0  0  0  0  0  0  0  0  0  0  0  0
  141.7410  158.1780  138.3290 C   0  0  0  0  0  0  0  0  0  0  0  0
  142.4810  158.2510  139.4640 F   0  0  0  0  0  0  0  0  0  0  0  0
  141.3720  156.9320  137.8150 C   0  0  0  0  0  0  0  0  0  0  0  0
  140.6080  156.8540  136.6470 C   0  0  0  0  0  0  0  0  0  0  0  0
  142.4280  159.4650  133.6500 C   0  0  0  0  0  0  0  0  0  0  0  0
  143.7910  159.1580  133.5540 C   0  0  0  0  0  0  0  0  0  0  0  0
  144.8500  159.9930  133.6630 N   0  0  0  0  0  0  0  0  0  0  0  0
  144.8010  161.3990  133.9540 C   0  0  0  0  0  0  0  0  0  0  0  0
  143.7510  162.0580  133.7360 O   0  0  0  0  0  0  0  0  0  0  0  0
  145.9030  162.0390  134.5080 O   0  0  0  0  0  0  0  0  0  0  0  0
  147.3460  161.7490  132.9060 H   0  0  0  0  0  0  0  0  0  0  0  0
  146.2613  157.0105  133.2355 H   0  0  0  0  0  0  0  0  0  0  0  0
  143.6861  155.7800  133.0764 H   0  0  0  0  0  0  0  0  0  0  0  0
  141.2200  156.2735  133.1900 H   0  0  0  0  0  0  0  0  0  0  0  0
  139.8698  159.7832  133.7267 H   0  0  0  0  0  0  0  0  0  0  0  0
  139.5592  158.3780  132.6385 H   0  0  0  0  0  0  0  0  0  0  0  0
  138.3790  158.3876  134.9496 H   0  0  0  0  0  0  0  0  0  0  0  0
  139.2538  156.8885  134.4542 H   0  0  0  0  0  0  0  0  0  0  0  0
  140.2607  160.1988  136.0037 H   0  0  0  0  0  0  0  0  0  0  0  0
  141.6316  160.3284  138.0838 H   0  0  0  0  0  0  0  0  0  0  0  0
  141.6832  156.0113  138.3303 H   0  0  0  0  0  0  0  0  0  0  0  0
  140.3125  155.8716  136.2501 H   0  0  0  0  0  0  0  0  0  0  0  0
  142.0924  160.4996  133.8145 H   0  0  0  0  0  0  0  0  0  0  0  0
  1  2  1  0
  2  3  2  0
  2  4  1  0
  4  5  2  0
  5  6  1  0
  6  7  2  0
  7  8  1  0
  8  9  2  0
  9 10  1  0
 10 11  1  0
 11 12  1  0
 12 13  2  0
 13 14  1  0
 14 15  2  0
 15 16  1  0
 15 17  1  0
 17 18  2  0
  9 19  1  0
 19 20  2  0
 20 21  1  0
 21 22  1  0
 22 23  2  0
 22 24  1  0
 21  4  1  0
 20  6  1  0
 18 12  1  0
  1 25  1  0
  5 26  1  0
  7 27  1  0
  8 28  1  0
 10 29  1  0
 10 30  1  0
 11 31  1  0
 11 32  1  0
 13 33  1  0
 14 34  1  0
 17 35  1  0
 18 36  1  0
 19 37  1  0
M  CHG  2   1  -1  24  -1
M  END
>  <UniqueID>  (67) 
65

>  <SMILES>  (67) 
[NH-]C(=O)c1cc2ccc(CCc3ccc(F)cc3)cc2n1C(=O)[O-]

>  <Energy>  (67) 
76.23872420851023

>  <Genealogy>  (67) 
[NH-]C(=O)c1cc2ccc(CCc3ccc(F)cc3)cc2n1C(=O)[O-] (protonated)
[NH-]C(=O)c1cc2ccc(CCc3ccc(F)cc3)cc2n1C(=O)[O-] (3D coordinates assigned)
[NH-]C(=O)c1cc2ccc(CCc3ccc(F)cc3)cc2n1C(=O)[O-] (optimized conformer: 76.23872420851023 kcal/mol)

>  <smiles>  (67) 
NC(=O)c1cc2ccc(CCc3ccc(F)cc3)cc2n1C(=O)O

>  <score_type>  (67) 
oracle

>  <origin>  (67) 
adg

>  <m_score__min__energy>  (67) 
-7.96

>  <m_primary>  (67) 
energy

$$$$
67:0
     RDKit          3D

 34 36  0  0  0  0  0  0  0  0999 V2000
  150.3670  150.4540  131.0170 C   0  0  0  0  0  0  0  0  0  0  0  0
  149.1620  150.1710  132.3510 S   0  0  0  0  0  0  0  0  0  0  0  0
  148.7630  151.9110  132.5110 C   0  0  0  0  0  0  0  0  0  0  0  0
  149.6830  152.8450  132.1620 N   0  0  0  0  0  0  0  0  0  0  0  0
  149.4100  154.1710  132.2680 C   0  0  0  0  0  0  0  0  0  0  0  0
  148.1640  154.5990  132.7480 C   0  0  0  0  0  0  0  0  0  0  0  0
  147.8420  156.0420  132.8750 C   0  0  0  0  0  0  0  0  0  0  0  0
  148.8630  157.0200  132.7420 C   0  0  0  0  0  0  0  0  0  0  0  0
  148.5710  158.3880  132.8720 C   0  0  0  0  0  0  0  0  0  0  0  0
  147.2530  158.7530  133.1240 C   0  0  0  0  0  0  0  0  0  0  0  0
  146.7030  159.9990  133.3220 C   0  0  0  0  0  0  0  0  0  0  0  0
  145.3470  159.7720  133.5480 C   0  0  0  0  0  0  0  0  0  0  0  0
  144.3620  160.8590  133.7230 C   0  0  0  0  0  0  0  0  0  0  0  0
  142.9960  160.6800  133.3590 N   0  0  0  0  0  0  0  0  0  0  0  0
  144.7410  161.9810  134.1560 O   0  0  0  0  0  0  0  0  0  0  0  0
  145.0700  158.4380  133.5010 N   0  0  0  0  0  0  0  0  0  0  0  0
  143.8170  157.7870  133.7630 C   0  0  0  0  0  0  0  0  0  0  0  0
  143.6490  157.1330  134.8250 O   0  0  0  0  0  0  0  0  0  0  0  0
  142.7860  157.8510  132.8340 O   0  0  0  0  0  0  0  0  0  0  0  0
  146.2480  157.8280  133.2380 C   0  0  0  0  0  0  0  0  0  0  0  0
  146.5130  156.4570  133.1320 C   0  0  0  0  0  0  0  0  0  0  0  0
  147.2320  153.6120  133.1050 C   0  0  0  0  0  0  0  0  0  0  0  0
  147.5470  152.2950  132.9810 N   0  0  0  0  0  0  0  0  0  0  0  0
  151.3499  150.6848  131.4536 H   0  0  0  0  0  0  0  0  0  0  0  0
  150.4451  149.5498  130.3955 H   0  0  0  0  0  0  0  0  0  0  0  0
  150.0344  151.2985  130.3955 H   0  0  0  0  0  0  0  0  0  0  0  0
  150.1689  154.9119  131.9763 H   0  0  0  0  0  0  0  0  0  0  0  0
  149.8955  156.7024  132.5346 H   0  0  0  0  0  0  0  0  0  0  0  0
  149.3611  159.1475  132.7773 H   0  0  0  0  0  0  0  0  0  0  0  0
  147.2233  160.9680  133.3054 H   0  0  0  0  0  0  0  0  0  0  0  0
  142.7240  160.0100  132.6070 H   0  0  0  0  0  0  0  0  0  0  0  0
  145.7059  155.7184  133.2460 H   0  0  0  0  0  0  0  0  0  0  0  0
  146.2428  153.9051  133.4866 H   0  0  0  0  0  0  0  0  0  0  0  0
  146.8390  151.5730  133.2470 H   0  0  0  0  0  0  0  0  0  0  0  0
  1  2  1  0
  2  3  1  0
  3  4  2  0
  4  5  1  0
  5  6  2  0
  6  7  1  0
  7  8  2  0
  8  9  1  0
  9 10  2  0
 10 11  1  0
 11 12  2  0
 12 13  1  0
 13 14  1  0
 13 15  2  0
 12 16  1  0
 16 17  1  0
 17 18  2  0
 17 19  1  0
 16 20  1  0
 20 21  2  0
  6 22  1  0
 22 23  2  0
 23  3  1  0
 21  7  1  0
 20 10  1  0
  1 24  1  0
  1 25  1  0
  1 26  1  0
  5 27  1  0
  8 28  1  0
  9 29  1  0
 11 30  1  0
 14 31  1  0
 21 32  1  0
 22 33  1  0
 23 34  1  0
M  CHG  3  14  -1  19  -1  23   1
M  END
>  <UniqueID>  (68) 
66

>  <SMILES>  (68) 
CSc1ncc(-c2ccc3cc(C([NH-])=O)n(C(=O)[O-])c3c2)c[nH+]1

>  <Energy>  (68) 
77.96657717082483

>  <Genealogy>  (68) 
CSc1ncc(-c2ccc3cc(C([NH-])=O)n(C(=O)[O-])c3c2)c[nH+]1 (protonated)
CSc1ncc(-c2ccc3cc(C([NH-])=O)n(C(=O)[O-])c3c2)c[nH+]1 (3D coordinates assigned)
CSc1ncc(-c2ccc3cc(C([NH-])=O)n(C(=O)[O-])c3c2)c[nH+]1 (optimized conformer: 77.96657717082483 kcal/mol)

>  <smiles>  (68) 
CSc1ncc(-c2ccc3cc(C(N)=O)n(C(=O)O)c3c2)cn1

>  <score_type>  (68) 
oracle

>  <origin>  (68) 
adg

>  <m_score__min__energy>  (68) 
-7.7800000000000002

>  <m_primary>  (68) 
energy

$$$$
68:0
     RDKit          3D

 45 47  0  0  0  0  0  0  0  0999 V2000
  147.7320  155.5400  134.8470 C   0  0  0  0  0  0  0  0  0  0  0  0
  146.4120  154.9870  135.3720 C   0  0  0  0  0  0  0  0  0  0  0  0
  145.3110  155.7190  134.8360 O   0  0  0  0  0  0  0  0  0  0  0  0
  145.3350  156.3400  133.5820 C   0  0  0  0  0  0  0  0  0  0  0  0
  145.5070  155.6570  132.5360 O   0  0  0  0  0  0  0  0  0  0  0  0
  145.1560  157.7630  133.4870 N   0  0  0  0  0  0  0  0  0  0  0  0
  146.0980  158.6990  133.1820 C   0  0  0  0  0  0  0  0  0  0  0  0
  147.4830  158.4140  132.7460 C   0  0  0  0  0  0  0  0  0  0  0  0
  147.7600  157.3300  131.8580 N   0  0  0  0  0  0  0  0  0  0  0  0
  148.4380  159.1110  133.1800 O   0  0  0  0  0  0  0  0  0  0  0  0
  145.5470  159.9790  133.2350 C   0  0  0  0  0  0  0  0  0  0  0  0
  144.2290  159.7960  133.5840 C   0  0  0  0  0  0  0  0  0  0  0  0
  143.2120  160.7290  133.7650 C   0  0  0  0  0  0  0  0  0  0  0  0
  141.9400  160.2550  134.1240 C   0  0  0  0  0  0  0  0  0  0  0  0
  141.7140  158.8690  134.3160 C   0  0  0  0  0  0  0  0  0  0  0  0
  140.3320  158.3650  134.6450 C   0  0  0  0  0  0  0  0  0  0  0  0
  139.7330  157.5570  133.4850 C   0  0  0  0  0  0  0  0  0  0  0  0
  139.2570  158.4520  132.3680 C   0  0  0  0  0  0  0  0  0  0  0  0
  140.1760  158.9960  131.4530 C   0  0  0  0  0  0  0  0  0  0  0  0
  139.7240  159.7660  130.3770 C   0  0  0  0  0  0  0  0  0  0  0  0
  138.3580  159.9980  130.2050 C   0  0  0  0  0  0  0  0  0  0  0  0
  137.4380  159.4600  131.1090 C   0  0  0  0  0  0  0  0  0  0  0  0
  137.8840  158.6870  132.1860 C   0  0  0  0  0  0  0  0  0  0  0  0
  142.7720  157.9530  134.1250 C   0  0  0  0  0  0  0  0  0  0  0  0
  144.0200  158.4500  133.7360 C   0  0  0  0  0  0  0  0  0  0  0  0
  148.3789  155.8110  135.6944 H   0  0  0  0  0  0  0  0  0  0  0  0
  148.2318  154.7756  134.2339 H   0  0  0  0  0  0  0  0  0  0  0  0
  147.5377  156.4324  134.2339 H   0  0  0  0  0  0  0  0  0  0  0  0
  146.3206  153.9307  135.0788 H   0  0  0  0  0  0  0  0  0  0  0  0
  146.3997  155.0807  136.4679 H   0  0  0  0  0  0  0  0  0  0  0  0
  148.7450  157.1130  131.5870 H   0  0  0  0  0  0  0  0  0  0  0  0
  146.9920  156.7650  131.4350 H   0  0  0  0  0  0  0  0  0  0  0  0
  146.0582  160.9331  133.0392 H   0  0  0  0  0  0  0  0  0  0  0  0
  143.3991  161.8047  133.6309 H   0  0  0  0  0  0  0  0  0  0  0  0
  141.1112  160.9659  134.2575 H   0  0  0  0  0  0  0  0  0  0  0  0
  140.3894  157.7219  135.5356 H   0  0  0  0  0  0  0  0  0  0  0  0
  139.6838  159.2345  134.8289 H   0  0  0  0  0  0  0  0  0  0  0  0
  140.5011  156.8746  133.0921 H   0  0  0  0  0  0  0  0  0  0  0  0
  138.8670  156.9976  133.8684 H   0  0  0  0  0  0  0  0  0  0  0  0
  141.2531  158.8153  131.5841 H   0  0  0  0  0  0  0  0  0  0  0  0
  140.4465  160.1901  129.6641 H   0  0  0  0  0  0  0  0  0  0  0  0
  138.0058  160.6045  129.3576 H   0  0  0  0  0  0  0  0  0  0  0  0
  136.3621  159.6446  130.9734 H   0  0  0  0  0  0  0  0  0  0  0  0
  137.1569  158.2614  132.8932 H   0  0  0  0  0  0  0  0  0  0  0  0
  142.6181  156.8747  134.2785 H   0  0  0  0  0  0  0  0  0  0  0  0
  1  2  1  0
  2  3  1  0
  3  4  1  0
  4  5  2  0
  4  6  1  0
  6  7  1  0
  7  8  1  0
  8  9  1  0
  8 10  2  0
  7 11  2  0
 11 12  1  0
 12 13  2  0
 13 14  1  0
 14 15  2  0
 15 16  1  0
 16 17  1  0
 17 18  1  0
 18 19  2  0
 19 20  1  0
 20 21  2  0
 21 22  1  0
 22 23  2  0
 15 24  1  0
 24 25  2  0
 25  6  1  0
 25 12  1  0
 23 18  1  0
  1 26  1  0
  1 27  1  0
  1 28  1  0
  2 29  1  0
  2 30  1  0
  9 31  1  0
  9 32  1  0
 11 33  1  0
 13 34  1  0
 14 35  1  0
 16 36  1  0
 16 37  1  0
 17 38  1  0
 17 39  1  0
 19 40  1  0
 20 41  1  0
 21 42  1  0
 22 43  1  0
 23 44  1  0
 24 45  1  0
M  END
>  <UniqueID>  (69) 
67

>  <SMILES>  (69) 
CCOC(=O)n1c(C(N)=O)cc2ccc(CCc3ccccc3)cc21

>  <Energy>  (69) 
77.02797993124105

>  <Genealogy>  (69) 
CCOC(=O)n1c(C(N)=O)cc2ccc(CCc3ccccc3)cc21 (3D coordinates assigned)
CCOC(=O)n1c(C(N)=O)cc2ccc(CCc3ccccc3)cc21 (optimized conformer: 77.02797993124105 kcal/mol)

>  <smiles>  (69) 
CCOC(=O)n1c(C(N)=O)cc2ccc(CCc3ccccc3)cc21

>  <score_type>  (69) 
oracle

>  <origin>  (69) 
adg

>  <m_score__min__energy>  (69) 
-8.4700000000000006

>  <m_primary>  (69) 
energy

$$$$
69:0
     RDKit          3D

 37 38  0  0  0  0  0  0  0  0999 V2000
  139.6790  158.1270  134.2140 C   0  0  0  0  0  0  0  0  0  0  0  0
  140.9730  158.6970  133.5940 C   0  0  0  0  0  0  0  0  0  0  0  0
  141.5330  157.6450  132.6090 C   0  0  0  0  0  0  0  0  0  0  0  0
  141.9920  158.9760  134.7360 C   0  0  0  0  0  0  0  0  0  0  0  0
  143.3780  159.3300  134.2470 C   0  0  0  0  0  0  0  0  0  0  0  0
  143.7920  160.6850  134.1940 C   0  0  0  0  0  0  0  0  0  0  0  0
  145.0860  161.0250  133.7670 C   0  0  0  0  0  0  0  0  0  0  0  0
  145.9400  159.9920  133.3930 C   0  0  0  0  0  0  0  0  0  0  0  0
  147.2470  160.0340  132.9620 C   0  0  0  0  0  0  0  0  0  0  0  0
  147.6050  158.7070  132.7370 C   0  0  0  0  0  0  0  0  0  0  0  0
  148.9090  158.2950  132.1750 C   0  0  0  0  0  0  0  0  0  0  0  0
  149.7350  159.2550  131.5210 N   0  0  0  0  0  0  0  0  0  0  0  0
  149.2870  157.0950  132.2390 O   0  0  0  0  0  0  0  0  0  0  0  0
  146.5640  157.8760  133.0270 N   0  0  0  0  0  0  0  0  0  0  0  0
  146.5420  156.4400  132.9920 C   0  0  0  0  0  0  0  0  0  0  0  0
  147.1190  155.7350  131.8920 N   0  0  0  0  0  0  0  0  0  0  0  0
  146.0420  155.7950  133.9510 O   0  0  0  0  0  0  0  0  0  0  0  0
  145.5520  158.6790  133.4210 C   0  0  0  0  0  0  0  0  0  0  0  0
  144.2740  158.3100  133.8520 C   0  0  0  0  0  0  0  0  0  0  0  0
  140.6380  159.9850  132.8630 C   0  0  0  0  0  0  0  0  0  0  0  0
  139.9200  159.9580  131.8270 O   0  0  0  0  0  0  0  0  0  0  0  0
  141.0680  161.2160  133.3490 O   0  0  0  0  0  0  0  0  0  0  0  0
  139.7528  158.1595  135.3110 H   0  0  0  0  0  0  0  0  0  0  0  0
  138.8191  158.7296  133.8864 H   0  0  0  0  0  0  0  0  0  0  0  0
  139.5432  157.0858  133.8864 H   0  0  0  0  0  0  0  0  0  0  0  0
  141.9763  156.8123  133.1748 H   0  0  0  0  0  0  0  0  0  0  0  0
  140.7178  157.2651  131.9757 H   0  0  0  0  0  0  0  0  0  0  0  0
  142.3034  158.1092  131.9757 H   0  0  0  0  0  0  0  0  0  0  0  0
  141.6137  159.8133  135.3408 H   0  0  0  0  0  0  0  0  0  0  0  0
  142.0856  158.0454  135.3149 H   0  0  0  0  0  0  0  0  0  0  0  0
  143.0914  161.4794  134.4909 H   0  0  0  0  0  0  0  0  0  0  0  0
  145.4139  162.0743  133.7294 H   0  0  0  0  0  0  0  0  0  0  0  0
  147.8752  160.9264  132.8245 H   0  0  0  0  0  0  0  0  0  0  0  0
  150.7360  159.3770  131.7940 H   0  0  0  0  0  0  0  0  0  0  0  0
  147.0890  154.6920  131.8620 H   0  0  0  0  0  0  0  0  0  0  0  0
  147.6120  156.2510  131.1310 H   0  0  0  0  0  0  0  0  0  0  0  0
  143.9731  157.2524  133.8830 H   0  0  0  0  0  0  0  0  0  0  0  0
  1  2  1  0
  2  3  1  0
  2  4  1  0
  4  5  1  0
  5  6  2  0
  6  7  1  0
  7  8  2  0
  8  9  1  0
  9 10  2  0
 10 11  1  0
 11 12  1  0
 11 13  2  0
 10 14  1  0
 14 15  1  0
 15 16  1  0
 15 17  2  0
 14 18  1  0
 18 19  2  0
  2 20  1  0
 20 21  2  0
 20 22  1  0
 19  5  1  0
 18  8  1  0
  1 23  1  0
  1 24  1  0
  1 25  1  0
  3 26  1  0
  3 27  1  0
  3 28  1  0
  4 29  1  0
  4 30  1  0
  6 31  1  0
  7 32  1  0
  9 33  1  0
 12 34  1  0
 16 35  1  0
 16 36  1  0
 19 37  1  0
M  CHG  2  12  -1  22  -1
M  END
>  <UniqueID>  (70) 
68

>  <SMILES>  (70) 
CC(C)(Cc1ccc2cc(C([NH-])=O)n(C(N)=O)c2c1)C(=O)[O-]

>  <Energy>  (70) 
72.9127036681978

>  <Genealogy>  (70) 
CC(C)(Cc1ccc2cc(C([NH-])=O)n(C(N)=O)c2c1)C(=O)[O-] (protonated)
CC(C)(Cc1ccc2cc(C([NH-])=O)n(C(N)=O)c2c1)C(=O)[O-] (3D coordinates assigned)
CC(C)(Cc1ccc2cc(C([NH-])=O)n(C(N)=O)c2c1)C(=O)[O-] (optimized conformer: 72.9127036681978 kcal/mol)

>  <smiles>  (70) 
CC(C)(Cc1ccc2cc(C(N)=O)n(C(N)=O)c2c1)C(=O)O

>  <score_type>  (70) 
oracle

>  <origin>  (70) 
adg

>  <m_score__min__energy>  (70) 
-7.29

>  <m_primary>  (70) 
energy

$$$$
70:0
     RDKit          3D

 37 40  0  0  0  0  0  0  0  0999 V2000
  142.9900  155.4800  132.9100 N   0  0  0  0  0  0  0  0  0  0  0  0
  141.8150  156.1540  133.3550 C   0  0  0  0  0  0  0  0  0  0  0  0
  140.7340  155.5150  133.4540 O   0  0  0  0  0  0  0  0  0  0  0  0
  141.8660  157.5490  133.7030 N   0  0  0  0  0  0  0  0  0  0  0  0
  140.8160  158.3750  133.9720 C   0  0  0  0  0  0  0  0  0  0  0  0
  139.4080  157.9630  134.1320 C   0  0  0  0  0  0  0  0  0  0  0  0
  138.7590  157.1540  133.1500 N   0  0  0  0  0  0  0  0  0  0  0  0
  138.7860  158.2820  135.1790 O   0  0  0  0  0  0  0  0  0  0  0  0
  141.2530  159.6870  134.1390 C   0  0  0  0  0  0  0  0  0  0  0  0
  142.6190  159.6380  133.9780 C   0  0  0  0  0  0  0  0  0  0  0  0
  143.5600  160.6620  134.0190 C   0  0  0  0  0  0  0  0  0  0  0  0
  144.9020  160.3310  133.7730 C   0  0  0  0  0  0  0  0  0  0  0  0
  145.2800  158.9940  133.4940 C   0  0  0  0  0  0  0  0  0  0  0  0
  146.6970  158.6710  133.2190 C   0  0  0  0  0  0  0  0  0  0  0  0
  147.4830  157.7430  133.9050 C   0  0  0  0  0  0  0  0  0  0  0  0
  148.7360  157.7060  133.3950 N   0  0  0  0  0  0  0  0  0  0  0  0
  148.7410  158.5950  132.3890 C   0  0  0  0  0  0  0  0  0  0  0  0
  149.7850  158.8650  131.5700 N   0  0  0  0  0  0  0  0  0  0  0  0
  149.6050  159.7740  130.5640 C   0  0  0  0  0  0  0  0  0  0  0  0
  150.6860  160.0850  129.6870 N   0  0  0  0  0  0  0  0  0  0  0  0
  148.3870  160.3770  130.3860 N   0  0  0  0  0  0  0  0  0  0  0  0
  147.3300  160.1050  131.2060 C   0  0  0  0  0  0  0  0  0  0  0  0
  147.5280  159.1990  132.2440 C   0  0  0  0  0  0  0  0  0  0  0  0
  144.2930  157.9850  133.4460 C   0  0  0  0  0  0  0  0  0  0  0  0
  142.9650  158.3370  133.7150 C   0  0  0  0  0  0  0  0  0  0  0  0
  143.1930  155.3730  131.8910 H   0  0  0  0  0  0  0  0  0  0  0  0
  137.7520  156.9030  133.2610 H   0  0  0  0  0  0  0  0  0  0  0  0
  139.2920  156.7370  132.3560 H   0  0  0  0  0  0  0  0  0  0  0  0
  140.6377  160.5731  134.3538 H   0  0  0  0  0  0  0  0  0  0  0  0
  143.2619  161.6981  134.2372 H   0  0  0  0  0  0  0  0  0  0  0  0
  145.6692  161.1189  133.7971 H   0  0  0  0  0  0  0  0  0  0  0  0
  147.1317  157.1262  134.7453 H   0  0  0  0  0  0  0  0  0  0  0  0
  149.5280  157.1060  133.7120 H   0  0  0  0  0  0  0  0  0  0  0  0
  151.1080  161.0390  129.6850 H   0  0  0  0  0  0  0  0  0  0  0  0
  151.0660  159.3580  129.0400 H   0  0  0  0  0  0  0  0  0  0  0  0
  146.3531  160.5864  131.0514 H   0  0  0  0  0  0  0  0  0  0  0  0
  144.5616  156.9464  133.2028 H   0  0  0  0  0  0  0  0  0  0  0  0
  1  2  1  0
  2  3  2  0
  2  4  1  0
  4  5  1  0
  5  6  1  0
  6  7  1  0
  6  8  2  0
  5  9  2  0
  9 10  1  0
 10 11  2  0
 11 12  1  0
 12 13  2  0
 13 14  1  0
 14 15  2  0
 15 16  1  0
 16 17  1  0
 17 18  2  0
 18 19  1  0
 19 20  1  0
 19 21  2  0
 21 22  1  0
 22 23  2  0
 13 24  1  0
 24 25  2  0
 25  4  1  0
 25 10  1  0
 23 14  1  0
 23 17  1  0
  1 26  1  0
  7 27  1  0
  7 28  1  0
  9 29  1  0
 11 30  1  0
 12 31  1  0
 15 32  1  0
 16 33  1  0
 20 34  1  0
 20 35  1  0
 22 36  1  0
 24 37  1  0
M  CHG  1   1  -1
M  END
>  <UniqueID>  (71) 
69

>  <SMILES>  (71) 
[NH-]C(=O)n1c(C(N)=O)cc2ccc(-c3c[nH]c4nc(N)ncc34)cc21

>  <Energy>  (71) 
120.24372910015333

>  <Genealogy>  (71) 
[NH-]C(=O)n1c(C(N)=O)cc2ccc(-c3c[nH]c4nc(N)ncc34)cc21 (protonated)
[NH-]C(=O)n1c(C(N)=O)cc2ccc(-c3c[nH]c4nc(N)ncc34)cc21 (3D coordinates assigned)
[NH-]C(=O)n1c(C(N)=O)cc2ccc(-c3c[nH]c4nc(N)ncc34)cc21 (optimized conformer: 120.24372910015333 kcal/mol)

>  <smiles>  (71) 
NC(=O)c1cc2ccc(-c3c[nH]c4nc(N)ncc34)cc2n1C(N)=O

>  <score_type>  (71) 
oracle

>  <origin>  (71) 
adg

>  <m_score__min__energy>  (71) 
-8.9600000000000009

>  <m_primary>  (71) 
energy

$$$$
71:0
     RDKit          3D

 40 41  0  0  0  0  0  0  0  0999 V2000
  140.8970  151.3120  132.2450 C   0  0  0  0  0  0  0  0  0  0  0  0
  141.3630  152.5740  132.9780 C   0  0  2  0  0  0  0  0  0  0  0  0
  142.2720  153.3600  132.1360 N   0  0  0  0  0  0  0  0  0  0  0  0
  142.0270  152.2120  134.2780 C   0  0  0  0  0  0  0  0  0  0  0  0
  141.3750  151.6090  135.1740 O   0  0  0  0  0  0  0  0  0  0  0  0
  143.3680  152.5530  134.4820 O   0  0  0  0  0  0  0  0  0  0  0  0
  143.7960  153.8850  134.7510 C   0  0  0  0  0  0  0  0  0  0  0  0
  142.9630  154.8180  134.0690 O   0  0  0  0  0  0  0  0  0  0  0  0
  143.4500  155.7160  133.1140 C   0  0  0  0  0  0  0  0  0  0  0  0
  144.0500  155.2920  132.0890 O   0  0  0  0  0  0  0  0  0  0  0  0
  143.2490  157.1270  133.2960 N   0  0  0  0  0  0  0  0  0  0  0  0
  142.0700  157.7880  133.4750 C   0  0  0  0  0  0  0  0  0  0  0  0
  140.7190  157.1950  133.3910 C   0  0  0  0  0  0  0  0  0  0  0  0
  140.5630  155.8390  132.9810 N   0  0  0  0  0  0  0  0  0  0  0  0
  139.7000  157.8620  133.7110 O   0  0  0  0  0  0  0  0  0  0  0  0
  142.3000  159.1480  133.6740 C   0  0  0  0  0  0  0  0  0  0  0  0
  143.6650  159.3020  133.5990 C   0  0  0  0  0  0  0  0  0  0  0  0
  144.4450  160.4450  133.7420 C   0  0  0  0  0  0  0  0  0  0  0  0
  145.8400  160.3070  133.6490 C   0  0  0  0  0  0  0  0  0  0  0  0
  146.4290  159.0390  133.4040 C   0  0  0  0  0  0  0  0  0  0  0  0
  147.9290  158.8940  133.3690 C   0  0  0  0  0  0  0  0  0  0  0  0
  148.4100  158.4740  134.5970 F   0  0  0  0  0  0  0  0  0  0  0  0
  148.5290  160.1040  133.0620 F   0  0  0  0  0  0  0  0  0  0  0  0
  148.2740  157.9640  132.4080 F   0  0  0  0  0  0  0  0  0  0  0  0
  145.6010  157.8980  133.2900 C   0  0  0  0  0  0  0  0  0  0  0  0
  144.2150  158.0690  133.3690 C   0  0  0  0  0  0  0  0  0  0  0  0
  140.6136  150.5445  132.9802 H   0  0  0  0  0  0  0  0  0  0  0  0
  140.0289  151.5538  131.6142 H   0  0  0  0  0  0  0  0  0  0  0  0
  141.7140  150.9316  131.6142 H   0  0  0  0  0  0  0  0  0  0  0  0
  140.4794  153.1914  133.1974 H   0  0  0  0  0  0  0  0  0  0  0  0
  143.2510  153.2700  132.4920 H   0  0  0  0  0  0  0  0  0  0  0  0
  142.2350  153.0320  131.1430 H   0  0  0  0  0  0  0  0  0  0  0  0
  142.0020  154.3700  132.1720 H   0  0  0  0  0  0  0  0  0  0  0  0
  143.7407  154.0725  135.8335 H   0  0  0  0  0  0  0  0  0  0  0  0
  144.8316  154.0063  134.4006 H   0  0  0  0  0  0  0  0  0  0  0  0
  141.3760  155.2900  132.6220 H   0  0  0  0  0  0  0  0  0  0  0  0
  141.5494  159.9319  133.8530 H   0  0  0  0  0  0  0  0  0  0  0  0
  143.9835  161.4271  133.9224 H   0  0  0  0  0  0  0  0  0  0  0  0
  146.4830  161.1916  133.7674 H   0  0  0  0  0  0  0  0  0  0  0  0
  146.0371  156.8989  133.1426 H   0  0  0  0  0  0  0  0  0  0  0  0
  1  2  1  0
  2  3  1  0
  2  4  1  0
  4  5  2  0
  4  6  1  0
  6  7  1  0
  7  8  1  0
  8  9  1  0
  9 10  2  0
  9 11  1  0
 11 12  1  0
 12 13  1  0
 13 14  1  0
 13 15  2  0
 12 16  2  0
 16 17  1  0
 17 18  2  0
 18 19  1  0
 19 20  2  0
 20 21  1  0
 21 22  1  0
 21 23  1  0
 21 24  1  0
 20 25  1  0
 25 26  2  0
 26 11  1  0
 26 17  1  0
  1 27  1  0
  1 28  1  0
  1 29  1  0
  2 30  1  1
  3 31  1  0
  3 32  1  0
  3 33  1  0
  7 34  1  0
  7 35  1  0
 14 36  1  0
 16 37  1  0
 18 38  1  0
 19 39  1  0
 25 40  1  0
M  CHG  2   3   1  14  -1
M  END
>  <UniqueID>  (72) 
70

>  <SMILES>  (72) 
C[C@H]([NH3+])C(=O)OCOC(=O)n1c(C([NH-])=O)cc2ccc(C(F)(F)F)cc21

>  <Energy>  (72) 
72.18641797656107

>  <Genealogy>  (72) 
CC([NH3+])C(=O)OCOC(=O)n1c(C([NH-])=O)cc2ccc(C(F)(F)F)cc21 (protonated)
C[C@H]([NH3+])C(=O)OCOC(=O)n1c(C([NH-])=O)cc2ccc(C(F)(F)F)cc21 (chirality)
C[C@H]([NH3+])C(=O)OCOC(=O)n1c(C([NH-])=O)cc2ccc(C(F)(F)F)cc21 (3D coordinates assigned)
C[C@H]([NH3+])C(=O)OCOC(=O)n1c(C([NH-])=O)cc2ccc(C(F)(F)F)cc21 (optimized conformer: 72.18641797656107 kcal/mol)

>  <smiles>  (72) 
CC(N)C(=O)OCOC(=O)n1c(C(N)=O)cc2ccc(C(F)(F)F)cc21

>  <score_type>  (72) 
oracle

>  <origin>  (72) 
adg

>  <m_score__min__energy>  (72) 
-4.8399999999999999

>  <m_primary>  (72) 
energy

$$$$
72:0
     RDKit          3D

 39 41  0  0  0  0  0  0  0  0999 V2000
  141.6730  158.5930  134.8970 C   0  0  0  0  0  0  0  0  0  0  0  0
  143.0870  158.4550  134.8300 O   0  0  0  0  0  0  0  0  0  0  0  0
  143.7840  158.4160  133.6190 C   0  0  0  0  0  0  0  0  0  0  0  0
  143.2780  157.8520  132.6100 O   0  0  0  0  0  0  0  0  0  0  0  0
  145.0930  159.0010  133.5310 N   0  0  0  0  0  0  0  0  0  0  0  0
  145.4230  160.3240  133.5390 C   0  0  0  0  0  0  0  0  0  0  0  0
  144.5020  161.4490  133.8020 C   0  0  0  0  0  0  0  0  0  0  0  0
  143.0890  161.2730  133.7350 N   0  0  0  0  0  0  0  0  0  0  0  0
  144.9680  162.5700  134.1390 O   0  0  0  0  0  0  0  0  0  0  0  0
  146.7930  160.4870  133.3440 C   0  0  0  0  0  0  0  0  0  0  0  0
  147.2980  159.2120  133.2240 C   0  0  0  0  0  0  0  0  0  0  0  0
  148.6040  158.7840  133.0060 C   0  0  0  0  0  0  0  0  0  0  0  0
  148.8360  157.4030  132.8940 C   0  0  0  0  0  0  0  0  0  0  0  0
  147.7640  156.4760  132.9920 C   0  0  0  0  0  0  0  0  0  0  0  0
  148.0180  155.0190  132.8600 C   0  0  0  0  0  0  0  0  0  0  0  0
  146.9660  154.0950  132.9970 C   0  0  0  0  0  0  0  0  0  0  0  0
  147.2040  152.7230  132.8720 C   0  0  0  0  0  0  0  0  0  0  0  0
  148.5020  152.2500  132.6060 C   0  0  0  0  0  0  0  0  0  0  0  0
  148.7920  150.8830  132.4720 O   0  0  0  0  0  0  0  0  0  0  0  0
  149.7560  150.3500  131.5690 C   0  0  0  0  0  0  0  0  0  0  0  0
  149.5480  153.1670  132.4690 C   0  0  0  0  0  0  0  0  0  0  0  0
  149.3130  154.5390  132.5960 C   0  0  0  0  0  0  0  0  0  0  0  0
  146.4500  156.9530  133.2140 C   0  0  0  0  0  0  0  0  0  0  0  0
  146.2540  158.3330  133.3410 C   0  0  0  0  0  0  0  0  0  0  0  0
  141.3571  158.6238  135.9502 H   0  0  0  0  0  0  0  0  0  0  0  0
  141.3714  159.5248  134.3963 H   0  0  0  0  0  0  0  0  0  0  0  0
  141.1969  157.7371  134.3963 H   0  0  0  0  0  0  0  0  0  0  0  0
  142.6660  160.3190  133.7430 H   0  0  0  0  0  0  0  0  0  0  0  0
  147.3520  161.4331  133.2961 H   0  0  0  0  0  0  0  0  0  0  0  0
  149.4302  159.5056  132.9238 H   0  0  0  0  0  0  0  0  0  0  0  0
  149.8594  157.0352  132.7285 H   0  0  0  0  0  0  0  0  0  0  0  0
  145.9475  154.4551  133.2042 H   0  0  0  0  0  0  0  0  0  0  0  0
  146.3731  152.0106  132.9820 H   0  0  0  0  0  0  0  0  0  0  0  0
  150.5795  149.8947  132.1386 H   0  0  0  0  0  0  0  0  0  0  0  0
  149.2819  149.5859  130.9355 H   0  0  0  0  0  0  0  0  0  0  0  0
  150.1510  151.1579  130.9355 H   0  0  0  0  0  0  0  0  0  0  0  0
  150.5655  152.8056  132.2593 H   0  0  0  0  0  0  0  0  0  0  0  0
  150.1470  155.2482  132.4887 H   0  0  0  0  0  0  0  0  0  0  0  0
  145.6025  156.2553  133.2851 H   0  0  0  0  0  0  0  0  0  0  0  0
  1  2  1  0
  2  3  1  0
  3  4  2  0
  3  5  1  0
  5  6  1  0
  6  7  1  0
  7  8  1  0
  7  9  2  0
  6 10  2  0
 10 11  1  0
 11 12  2  0
 12 13  1  0
 13 14  2  0
 14 15  1  0
 15 16  2  0
 16 17  1  0
 17 18  2  0
 18 19  1  0
 19 20  1  0
 18 21  1  0
 21 22  2  0
 14 23  1  0
 23 24  2  0
 24  5  1  0
 24 11  1  0
 22 15  1  0
  1 25  1  0
  1 26  1  0
  1 27  1  0
  8 28  1  0
 10 29  1  0
 12 30  1  0
 13 31  1  0
 16 32  1  0
 17 33  1  0
 20 34  1  0
 20 35  1  0
 20 36  1  0
 21 37  1  0
 22 38  1  0
 23 39  1  0
M  CHG  1   8  -1
M  END
>  <UniqueID>  (73) 
71

>  <SMILES>  (73) 
COC(=O)n1c(C([NH-])=O)cc2ccc(-c3ccc(OC)cc3)cc21

>  <Energy>  (73) 
83.36429947016732

>  <Genealogy>  (73) 
COC(=O)n1c(C([NH-])=O)cc2ccc(-c3ccc(OC)cc3)cc21 (protonated)
COC(=O)n1c(C([NH-])=O)cc2ccc(-c3ccc(OC)cc3)cc21 (3D coordinates assigned)
COC(=O)n1c(C([NH-])=O)cc2ccc(-c3ccc(OC)cc3)cc21 (optimized conformer: 83.36429947016732 kcal/mol)

>  <smiles>  (73) 
COC(=O)n1c(C(N)=O)cc2ccc(-c3ccc(OC)cc3)cc21

>  <score_type>  (73) 
oracle

>  <origin>  (73) 
adg

>  <m_score__min__energy>  (73) 
-6.9199999999999999

>  <m_primary>  (73) 
energy

$$$$
73:0
     RDKit          3D

 40 42  0  0  0  0  0  0  0  0999 V2000
  146.1340  154.9750  134.8610 C   0  0  0  0  0  0  0  0  0  0  0  0
  145.5200  155.7080  133.8080 O   0  0  0  0  0  0  0  0  0  0  0  0
  146.2210  156.6240  133.0180 C   0  0  0  0  0  0  0  0  0  0  0  0
  146.9720  156.2190  132.0890 O   0  0  0  0  0  0  0  0  0  0  0  0
  146.0670  158.0320  133.2510 N   0  0  0  0  0  0  0  0  0  0  0  0
  147.0330  158.9940  133.2460 C   0  0  0  0  0  0  0  0  0  0  0  0
  148.4900  158.7630  133.1540 C   0  0  0  0  0  0  0  0  0  0  0  0
  149.0760  158.2400  131.9660 N   0  0  0  0  0  0  0  0  0  0  0  0
  149.2210  158.9840  134.1570 O   0  0  0  0  0  0  0  0  0  0  0  0
  146.4680  160.2550  133.4240 C   0  0  0  0  0  0  0  0  0  0  0  0
  145.1160  160.0350  133.5500 C   0  0  0  0  0  0  0  0  0  0  0  0
  144.0760  160.9390  133.7370 C   0  0  0  0  0  0  0  0  0  0  0  0
  142.7680  160.4340  133.8040 C   0  0  0  0  0  0  0  0  0  0  0  0
  142.5170  159.0420  133.6730 C   0  0  0  0  0  0  0  0  0  0  0  0
  141.1020  158.4950  133.7330 C   0  0  0  0  0  0  0  0  0  0  0  0
  140.1140  159.3790  132.9350 C   0  0  0  0  0  0  0  0  0  0  0  0
  138.8400  158.6110  132.5400 C   0  0  0  0  0  0  0  0  0  0  0  0
  138.5760  157.5210  133.4870 N   0  0  0  0  0  0  0  0  0  0  0  0
  139.6030  156.4660  133.3850 C   0  0  0  0  0  0  0  0  0  0  0  0
  141.0360  157.0330  133.2590 C   0  0  0  0  0  0  0  0  0  0  0  0
  143.6040  158.1560  133.4840 C   0  0  0  0  0  0  0  0  0  0  0  0
  144.8990  158.6850  133.4410 C   0  0  0  0  0  0  0  0  0  0  0  0
  145.7993  155.3746  135.8296 H   0  0  0  0  0  0  0  0  0  0  0  0
  145.8503  153.9150  134.7839 H   0  0  0  0  0  0  0  0  0  0  0  0
  147.2273  155.0685  134.7839 H   0  0  0  0  0  0  0  0  0  0  0  0
  148.6490  157.4280  131.4670 H   0  0  0  0  0  0  0  0  0  0  0  0
  146.9920  161.2216  133.4568 H   0  0  0  0  0  0  0  0  0  0  0  0
  144.2724  162.0173  133.8296 H   0  0  0  0  0  0  0  0  0  0  0  0
  141.9265  161.1251  133.9600 H   0  0  0  0  0  0  0  0  0  0  0  0
  140.7954  158.5180  134.7892 H   0  0  0  0  0  0  0  0  0  0  0  0
  139.8301  160.2422  133.5548 H   0  0  0  0  0  0  0  0  0  0  0  0
  140.6167  159.6998  132.0107 H   0  0  0  0  0  0  0  0  0  0  0  0
  137.9859  159.3042  132.5403 H   0  0  0  0  0  0  0  0  0  0  0  0
  138.9829  158.1813  131.5375 H   0  0  0  0  0  0  0  0  0  0  0  0
  137.6510  157.0950  133.2460 H   0  0  0  0  0  0  0  0  0  0  0  0
  139.5519  155.8378  134.2865 H   0  0  0  0  0  0  0  0  0  0  0  0
  139.3944  155.8888  132.4721 H   0  0  0  0  0  0  0  0  0  0  0  0
  141.7169  156.4259  133.8736 H   0  0  0  0  0  0  0  0  0  0  0  0
  141.3317  156.9975  132.2001 H   0  0  0  0  0  0  0  0  0  0  0  0
  143.4348  157.0748  133.3732 H   0  0  0  0  0  0  0  0  0  0  0  0
  1  2  1  0
  2  3  1  0
  3  4  2  0
  3  5  1  0
  5  6  1  0
  6  7  1  0
  7  8  1  0
  7  9  2  0
  6 10  2  0
 10 11  1  0
 11 12  2  0
 12 13  1  0
 13 14  2  0
 14 15  1  0
 15 16  1  0
 16 17  1  0
 17 18  1  0
 18 19  1  0
 19 20  1  0
 14 21  1  0
 21 22  2  0
 22  5  1  0
 22 11  1  0
 20 15  1  0
  1 23  1  0
  1 24  1  0
  1 25  1  0
  8 26  1  0
 10 27  1  0
 12 28  1  0
 13 29  1  0
 15 30  1  0
 16 31  1  0
 16 32  1  0
 17 33  1  0
 17 34  1  0
 18 35  1  0
 19 36  1  0
 19 37  1  0
 20 38  1  0
 20 39  1  0
 21 40  1  0
M  CHG  1   8  -1
M  END
>  <UniqueID>  (74) 
72

>  <SMILES>  (74) 
COC(=O)n1c(C([NH-])=O)cc2ccc(C3CCNCC3)cc21

>  <Energy>  (74) 
83.20939808225445

>  <Genealogy>  (74) 
COC(=O)n1c(C([NH-])=O)cc2ccc(C3CCNCC3)cc21 (protonated)
COC(=O)n1c(C([NH-])=O)cc2ccc(C3CCNCC3)cc21 (3D coordinates assigned)
COC(=O)n1c(C([NH-])=O)cc2ccc(C3CCNCC3)cc21 (nonaromatic ring conformer: 83.20939808225445 kcal/mol)

>  <smiles>  (74) 
COC(=O)n1c(C(N)=O)cc2ccc(C3CCNCC3)cc21

>  <score_type>  (74) 
oracle

>  <origin>  (74) 
adg

>  <m_score__min__energy>  (74) 
-7.3200000000000003

>  <m_primary>  (74) 
energy

$$$$
74:0
     RDKit          3D

 43 45  0  0  0  0  0  0  0  0999 V2000
  140.2720  151.3020  140.8930 N   0  0  0  0  0  0  0  0  0  0  0  0
  141.5460  151.0760  140.2940 C   0  0  0  0  0  0  0  0  0  0  0  0
  142.3790  150.3330  140.8760 O   0  0  0  0  0  0  0  0  0  0  0  0
  141.8590  151.6790  138.9820 C   0  0  0  0  0  0  0  0  0  0  0  0
  142.8090  152.6840  138.8070 C   0  0  0  0  0  0  0  0  0  0  0  0
  142.7300  153.0350  137.4790 C   0  0  0  0  0  0  0  0  0  0  0  0
  143.4490  153.9860  136.7610 C   0  0  0  0  0  0  0  0  0  0  0  0
  143.1660  154.1290  135.3930 C   0  0  0  0  0  0  0  0  0  0  0  0
  142.1890  153.3140  134.7690 C   0  0  0  0  0  0  0  0  0  0  0  0
  141.8690  153.5090  133.3100 C   0  0  0  0  0  0  0  0  0  0  0  0
  140.7780  152.5380  132.8110 C   0  0  0  0  0  0  0  0  0  0  0  0
  141.3090  151.4860  131.8930 N   0  0  0  0  0  0  0  0  0  0  0  0
  140.2130  150.7510  131.2190 C   0  0  0  0  0  0  0  0  0  0  0  0
  139.3730  149.9110  132.2020 C   0  0  0  0  0  0  0  0  0  0  0  0
  140.2200  149.2750  133.3160 C   0  0  0  0  0  0  0  0  0  0  0  0
  141.6900  149.1740  132.9140 C   0  0  0  0  0  0  0  0  0  0  0  0
  142.2710  150.5620  132.5730 C   0  0  0  0  0  0  0  0  0  0  0  0
  141.4800  152.3580  135.5300 C   0  0  0  0  0  0  0  0  0  0  0  0
  141.7660  152.2540  136.8970 C   0  0  0  0  0  0  0  0  0  0  0  0
  141.2210  151.4140  137.8050 N   0  0  0  0  0  0  0  0  0  0  0  0
  140.2260  150.4100  137.5530 C   0  0  0  0  0  0  0  0  0  0  0  0
  140.2030  149.8020  136.4500 O   0  0  0  0  0  0  0  0  0  0  0  0
  139.2960  150.0800  138.5300 O   0  0  0  0  0  0  0  0  0  0  0  0
  139.4410  150.7340  140.6150 H   0  0  0  0  0  0  0  0  0  0  0  0
  143.4799  153.1069  139.5693 H   0  0  0  0  0  0  0  0  0  0  0  0
  144.2149  154.6061  137.2497 H   0  0  0  0  0  0  0  0  0  0  0  0
  143.7078  154.8807  134.8002 H   0  0  0  0  0  0  0  0  0  0  0  0
  141.5186  154.5409  133.1602 H   0  0  0  0  0  0  0  0  0  0  0  0
  142.7854  153.3067  132.7361 H   0  0  0  0  0  0  0  0  0  0  0  0
  140.3220  152.0453  133.6824 H   0  0  0  0  0  0  0  0  0  0  0  0
  140.0446  153.1301  132.2439 H   0  0  0  0  0  0  0  0  0  0  0  0
  141.8330  151.9630  131.1210 H   0  0  0  0  0  0  0  0  0  0  0  0
  139.5531  151.4783  130.7234 H   0  0  0  0  0  0  0  0  0  0  0  0
  140.6698  150.0602  130.4950 H   0  0  0  0  0  0  0  0  0  0  0  0
  138.6167  150.5626  132.6640 H   0  0  0  0  0  0  0  0  0  0  0  0
  138.9116  149.0934  131.6288 H   0  0  0  0  0  0  0  0  0  0  0  0
  140.1392  149.8923  134.2229 H   0  0  0  0  0  0  0  0  0  0  0  0
  139.8419  148.2583  133.4989 H   0  0  0  0  0  0  0  0  0  0  0  0
  142.2613  148.7408  133.7482 H   0  0  0  0  0  0  0  0  0  0  0  0
  141.7642  148.5360  132.0210 H   0  0  0  0  0  0  0  0  0  0  0  0
  142.6001  151.0365  133.5092 H   0  0  0  0  0  0  0  0  0  0  0  0
  143.0956  150.3915  131.8652 H   0  0  0  0  0  0  0  0  0  0  0  0
  140.7230  151.7122  135.0611 H   0  0  0  0  0  0  0  0  0  0  0  0
  1  2  1  0
  2  3  2  0
  2  4  1  0
  4  5  2  0
  5  6  1  0
  6  7  2  0
  7  8  1  0
  8  9  2  0
  9 10  1  0
 10 11  1  0
 11 12  1  0
 12 13  1  0
 13 14  1  0
 14 15  1  0
 15 16  1  0
 16 17  1  0
  9 18  1  0
 18 19  2  0
 19 20  1  0
 20 21  1  0
 21 22  2  0
 21 23  1  0
 20  4  1  0
 19  6  1  0
 17 12  1  0
  1 24  1  0
  5 25  1  0
  7 26  1  0
  8 27  1  0
 10 28  1  0
 10 29  1  0
 11 30  1  0
 11 31  1  0
 12 32  1  0
 13 33  1  0
 13 34  1  0
 14 35  1  0
 14 36  1  0
 15 37  1  0
 15 38  1  0
 16 39  1  0
 16 40  1  0
 17 41  1  0
 17 42  1  0
 18 43  1  0
M  CHG  3   1  -1  12   1  23  -1
M  END
>  <UniqueID>  (75) 
73

>  <SMILES>  (75) 
[NH-]C(=O)c1cc2ccc(CC[NH+]3CCCCC3)cc2n1C(=O)[O-]

>  <Energy>  (75) 
91.39066122653867

>  <Genealogy>  (75) 
[NH-]C(=O)c1cc2ccc(CC[NH+]3CCCCC3)cc2n1C(=O)[O-] (protonated)
[NH-]C(=O)c1cc2ccc(CC[NH+]3CCCCC3)cc2n1C(=O)[O-] (3D coordinates assigned)
[NH-]C(=O)c1cc2ccc(CC[NH+]3CCCCC3)cc2n1C(=O)[O-] (nonaromatic ring conformer: 91.39066122653867 kcal/mol)

>  <smiles>  (75) 
NC(=O)c1cc2ccc(CCN3CCCCC3)cc2n1C(=O)O

>  <score_type>  (75) 
oracle

>  <origin>  (75) 
adg

>  <m_score__min__energy>  (75) 
-7.0700000000000003

>  <m_primary>  (75) 
energy

$$$$
75:0
     RDKit          3D

 54 56  0  0  0  0  0  0  0  0999 V2000
  149.9880  150.9980  131.5790 C   0  0  0  0  0  0  0  0  0  0  0  0
  150.0430  151.5270  132.8860 O   0  0  0  0  0  0  0  0  0  0  0  0
  148.9120  152.3410  133.1130 C   0  0  0  0  0  0  0  0  0  0  0  0
  148.8580  153.4230  132.0190 C   0  0  0  0  0  0  0  0  0  0  0  0
  148.2340  154.7130  132.4350 N   0  0  1  0  0  0  0  0  0  0  0  0
  147.2840  154.5810  133.5710 C   0  0  0  0  0  0  0  0  0  0  0  0
  145.8030  154.6970  133.1640 C   0  0  0  0  0  0  0  0  0  0  0  0
  145.6730  155.1850  131.8560 O   0  0  0  0  0  0  0  0  0  0  0  0
  149.2320  155.7700  132.7440 C   0  0  0  0  0  0  0  0  0  0  0  0
  148.6920  157.1650  132.5210 C   0  0  0  0  0  0  0  0  0  0  0  0
  149.4550  158.1220  131.8350 C   0  0  0  0  0  0  0  0  0  0  0  0
  148.9420  159.4010  131.6130 C   0  0  0  0  0  0  0  0  0  0  0  0
  147.6660  159.7370  132.0700 C   0  0  0  0  0  0  0  0  0  0  0  0
  146.8840  158.7920  132.7580 C   0  0  0  0  0  0  0  0  0  0  0  0
  145.5240  159.1430  133.2350 C   0  0  0  0  0  0  0  0  0  0  0  0
  145.2080  160.4820  133.5840 C   0  0  0  0  0  0  0  0  0  0  0  0
  143.9200  160.8260  134.0250 C   0  0  0  0  0  0  0  0  0  0  0  0
  142.9700  159.8150  134.1190 C   0  0  0  0  0  0  0  0  0  0  0  0
  141.6470  159.8760  134.4910 C   0  0  0  0  0  0  0  0  0  0  0  0
  141.1740  158.5690  134.3900 C   0  0  0  0  0  0  0  0  0  0  0  0
  139.8080  158.1680  134.7870 C   0  0  0  0  0  0  0  0  0  0  0  0
  139.4260  158.1270  136.1590 N   0  0  0  0  0  0  0  0  0  0  0  0
  138.9530  157.9070  133.9000 O   0  0  0  0  0  0  0  0  0  0  0  0
  142.1630  157.7340  133.9640 N   0  0  0  0  0  0  0  0  0  0  0  0
  142.0570  156.3350  133.6500 C   0  0  0  0  0  0  0  0  0  0  0  0
  142.9680  155.7600  132.9970 O   0  0  0  0  0  0  0  0  0  0  0  0
  140.9350  155.6130  134.0360 O   0  0  0  0  0  0  0  0  0  0  0  0
  143.2580  158.5130  133.8060 C   0  0  0  0  0  0  0  0  0  0  0  0
  144.5260  158.1440  133.3450 C   0  0  0  0  0  0  0  0  0  0  0  0
  147.4090  157.5050  132.9800 C   0  0  0  0  0  0  0  0  0  0  0  0
  149.8744  149.9051  131.6303 H   0  0  0  0  0  0  0  0  0  0  0  0
  149.1300  151.4311  131.0439 H   0  0  0  0  0  0  0  0  0  0  0  0
  150.9167  151.2454  131.0439 H   0  0  0  0  0  0  0  0  0  0  0  0
  147.9998  151.7276  133.0728 H   0  0  0  0  0  0  0  0  0  0  0  0
  148.9811  152.8123  134.1045 H   0  0  0  0  0  0  0  0  0  0  0  0
  149.8883  153.6317  131.6949 H   0  0  0  0  0  0  0  0  0  0  0  0
  148.2207  153.0183  131.2190 H   0  0  0  0  0  0  0  0  0  0  0  0
  147.6790  155.0550  131.6140 H   0  0  0  0  0  0  0  0  0  0  0  0
  147.4384  153.5975  134.0389 H   0  0  0  0  0  0  0  0  0  0  0  0
  147.4918  155.4138  134.2589 H   0  0  0  0  0  0  0  0  0  0  0  0
  145.3355  153.7031  133.2242 H   0  0  0  0  0  0  0  0  0  0  0  0
  145.3078  155.4009  133.8490 H   0  0  0  0  0  0  0  0  0  0  0  0
  144.8080  155.6710  131.8200 H   0  0  0  0  0  0  0  0  0  0  0  0
  149.5325  155.6732  133.7977 H   0  0  0  0  0  0  0  0  0  0  0  0
  150.0850  155.6310  132.0636 H   0  0  0  0  0  0  0  0  0  0  0  0
  150.4604  157.8636  131.4711 H   0  0  0  0  0  0  0  0  0  0  0  0
  149.5455  160.1475  131.0758 H   0  0  0  0  0  0  0  0  0  0  0  0
  147.2699  160.7474  131.8907 H   0  0  0  0  0  0  0  0  0  0  0  0
  145.9818  161.2601  133.5081 H   0  0  0  0  0  0  0  0  0  0  0  0
  143.6700  161.8644  134.2882 H   0  0  0  0  0  0  0  0  0  0  0  0
  141.0823  160.7673  134.8021 H   0  0  0  0  0  0  0  0  0  0  0  0
  139.4570  158.9870  136.7510 H   0  0  0  0  0  0  0  0  0  0  0  0
  144.7434  157.1004  133.0737 H   0  0  0  0  0  0  0  0  0  0  0  0
  146.8080  156.7576  133.5187 H   0  0  0  0  0  0  0  0  0  0  0  0
  1  2  1  0
  2  3  1  0
  3  4  1  0
  4  5  1  0
  5  6  1  0
  6  7  1  0
  7  8  1  0
  5  9  1  0
  9 10  1  0
 10 11  2  0
 11 12  1  0
 12 13  2  0
 13 14  1  0
 14 15  1  0
 15 16  2  0
 16 17  1  0
 17 18  2  0
 18 19  1  0
 19 20  2  0
 20 21  1  0
 21 22  1  0
 21 23  2  0
 20 24  1  0
 24 25  1  0
 25 26  2  0
 25 27  1  0
 24 28  1  0
 28 29  2  0
 14 30  2  0
 30 10  1  0
 29 15  1  0
 28 18  1  0
  1 31  1  0
  1 32  1  0
  1 33  1  0
  3 34  1  0
  3 35  1  0
  4 36  1  0
  4 37  1  0
  5 38  1  6
  6 39  1  0
  6 40  1  0
  7 41  1  0
  7 42  1  0
  8 43  1  0
  9 44  1  0
  9 45  1  0
 11 46  1  0
 12 47  1  0
 13 48  1  0
 16 49  1  0
 17 50  1  0
 19 51  1  0
 22 52  1  0
 29 53  1  0
 30 54  1  0
M  CHG  3   5   1  22  -1  27  -1
M  END
>  <UniqueID>  (76) 
74

>  <SMILES>  (76) 
COCC[N@@H+](CCO)Cc1cccc(-c2ccc3cc(C([NH-])=O)n(C(=O)[O-])c3c2)c1

>  <Energy>  (76) 
105.37818067931947

>  <Genealogy>  (76) 
COCC[NH+](CCO)Cc1cccc(-c2ccc3cc(C([NH-])=O)n(C(=O)[O-])c3c2)c1 (protonated)
COCC[N@@H+](CCO)Cc1cccc(-c2ccc3cc(C([NH-])=O)n(C(=O)[O-])c3c2)c1 (chirality)
COCC[N@@H+](CCO)Cc1cccc(-c2ccc3cc(C([NH-])=O)n(C(=O)[O-])c3c2)c1 (3D coordinates assigned)
COCC[N@@H+](CCO)Cc1cccc(-c2ccc3cc(C([NH-])=O)n(C(=O)[O-])c3c2)c1 (optimized conformer: 105.37818067931947 kcal/mol)

>  <smiles>  (76) 
COCCN(CCO)Cc1cccc(-c2ccc3cc(C(N)=O)n(C(=O)O)c3c2)c1

>  <score_type>  (76) 
oracle

>  <origin>  (76) 
adg

>  <m_score__min__energy>  (76) 
-7.4000000000000004

>  <m_primary>  (76) 
energy

$$$$
76:0
     RDKit          3D

 43 45  0  0  0  0  0  0  0  0999 V2000
  140.1900  151.9470  132.8990 N   0  0  0  0  0  0  0  0  0  0  0  0
  141.2400  152.0500  133.8620 C   0  0  0  0  0  0  0  0  0  0  0  0
  141.3660  151.1510  134.7350 O   0  0  0  0  0  0  0  0  0  0  0  0
  142.2180  153.1550  133.8130 C   0  0  0  0  0  0  0  0  0  0  0  0
  143.5890  152.9690  133.9630 C   0  0  0  0  0  0  0  0  0  0  0  0
  144.1450  154.2150  133.7870 C   0  0  0  0  0  0  0  0  0  0  0  0
  145.4760  154.6140  133.8500 C   0  0  0  0  0  0  0  0  0  0  0  0
  145.7640  155.9770  133.6720 C   0  0  0  0  0  0  0  0  0  0  0  0
  144.7240  156.9100  133.4400 C   0  0  0  0  0  0  0  0  0  0  0  0
  145.0450  158.3750  133.2980 C   0  0  0  0  0  0  0  0  0  0  0  0
  146.5440  158.6150  133.0680 C   0  0  0  0  0  0  0  0  0  0  0  0
  146.8750  160.1190  132.9130 C   0  0  0  0  0  0  0  0  0  0  0  0
  148.2880  160.4030  132.5660 N   0  0  0  0  0  0  0  0  0  0  0  0
  149.1970  159.2750  132.8030 C   0  0  0  0  0  0  0  0  0  0  0  0
  149.5300  158.6560  131.4560 C   0  0  0  0  0  0  0  0  0  0  0  0
  149.2020  159.7180  130.4230 C   0  0  0  0  0  0  0  0  0  0  0  0
  148.4820  160.8330  131.1740 C   0  0  0  0  0  0  0  0  0  0  0  0
  143.3820  156.4680  133.3890 C   0  0  0  0  0  0  0  0  0  0  0  0
  143.1250  155.1010  133.5500 C   0  0  0  0  0  0  0  0  0  0  0  0
  141.9310  154.4650  133.5660 N   0  0  0  0  0  0  0  0  0  0  0  0
  140.6290  155.0690  133.4790 C   0  0  0  0  0  0  0  0  0  0  0  0
  139.7590  154.6000  132.7000 O   0  0  0  0  0  0  0  0  0  0  0  0
  140.3190  156.1820  134.2510 O   0  0  0  0  0  0  0  0  0  0  0  0
  139.4860  151.1800  132.9700 H   0  0  0  0  0  0  0  0  0  0  0  0
  140.1570  152.5820  132.0690 H   0  0  0  0  0  0  0  0  0  0  0  0
  144.1155  152.0271  134.1766 H   0  0  0  0  0  0  0  0  0  0  0  0
  146.2784  153.8843  134.0336 H   0  0  0  0  0  0  0  0  0  0  0  0
  146.8073  156.3232  133.7131 H   0  0  0  0  0  0  0  0  0  0  0  0
  144.4849  158.7801  132.4423 H   0  0  0  0  0  0  0  0  0  0  0  0
  144.7597  158.8779  134.2338 H   0  0  0  0  0  0  0  0  0  0  0  0
  147.1032  158.2153  133.9268 H   0  0  0  0  0  0  0  0  0  0  0  0
  146.8295  158.1071  132.1350 H   0  0  0  0  0  0  0  0  0  0  0  0
  146.2361  160.5317  132.1183 H   0  0  0  0  0  0  0  0  0  0  0  0
  146.6935  160.5828  133.8938 H   0  0  0  0  0  0  0  0  0  0  0  0
  150.1173  159.6317  133.2887 H   0  0  0  0  0  0  0  0  0  0  0  0
  148.7234  158.5315  133.4610 H   0  0  0  0  0  0  0  0  0  0  0  0
  150.5967  158.3916  131.4087 H   0  0  0  0  0  0  0  0  0  0  0  0
  148.9600  157.7314  131.2824 H   0  0  0  0  0  0  0  0  0  0  0  0
  150.1251  160.1016  129.9639 H   0  0  0  0  0  0  0  0  0  0  0  0
  148.5777  159.3112  129.6138 H   0  0  0  0  0  0  0  0  0  0  0  0
  149.0890  161.7500  131.1494 H   0  0  0  0  0  0  0  0  0  0  0  0
  147.5098  161.0401  130.7029 H   0  0  0  0  0  0  0  0  0  0  0  0
  142.5599  157.1806  133.2268 H   0  0  0  0  0  0  0  0  0  0  0  0
  1  2  1  0
  2  3  2  0
  2  4  1  0
  4  5  2  0
  5  6  1  0
  6  7  2  0
  7  8  1  0
  8  9  2  0
  9 10  1  0
 10 11  1  0
 11 12  1  0
 12 13  1  0
 13 14  1  0
 14 15  1  0
 15 16  1  0
 16 17  1  0
  9 18  1  0
 18 19  2  0
 19 20  1  0
 20 21  1  0
 21 22  2  0
 21 23  1  0
 20  4  1  0
 19  6  1  0
 17 13  1  0
  1 24  1  0
  1 25  1  0
  5 26  1  0
  7 27  1  0
  8 28  1  0
 10 29  1  0
 10 30  1  0
 11 31  1  0
 11 32  1  0
 12 33  1  0
 12 34  1  0
 14 35  1  0
 14 36  1  0
 15 37  1  0
 15 38  1  0
 16 39  1  0
 16 40  1  0
 17 41  1  0
 17 42  1  0
 18 43  1  0
M  CHG  1  23  -1
M  END
>  <UniqueID>  (77) 
75

>  <SMILES>  (77) 
NC(=O)c1cc2ccc(CCCN3CCCC3)cc2n1C(=O)[O-]

>  <Energy>  (77) 
85.6430333491466

>  <Genealogy>  (77) 
NC(=O)c1cc2ccc(CCCN3CCCC3)cc2n1C(=O)[O-] (protonated)
NC(=O)c1cc2ccc(CCCN3CCCC3)cc2n1C(=O)[O-] (3D coordinates assigned)
NC(=O)c1cc2ccc(CCCN3CCCC3)cc2n1C(=O)[O-] (nonaromatic ring conformer: 85.6430333491466 kcal/mol)

>  <smiles>  (77) 
NC(=O)c1cc2ccc(CCCN3CCCC3)cc2n1C(=O)O

>  <score_type>  (77) 
oracle

>  <origin>  (77) 
adg

>  <m_score__min__energy>  (77) 
-7.8099999999999996

>  <m_primary>  (77) 
energy

$$$$
77:0
     RDKit          3D

 32 33  0  0  0  0  0  0  0  0999 V2000
  146.4120  155.8460  132.5470 C   0  0  0  0  0  0  0  0  0  0  0  0
  146.8560  156.9180  133.4910 C   0  0  0  0  0  0  0  0  0  0  0  0
  147.7650  156.6630  134.3250 O   0  0  0  0  0  0  0  0  0  0  0  0
  146.2960  158.2390  133.4260 N   0  0  0  0  0  0  0  0  0  0  0  0
  146.9270  159.4050  133.1070 C   0  0  0  0  0  0  0  0  0  0  0  0
  148.3150  159.5180  132.6080 C   0  0  0  0  0  0  0  0  0  0  0  0
  149.3910  158.8670  133.2860 N   0  0  0  0  0  0  0  0  0  0  0  0
  148.5640  160.2140  131.5880 O   0  0  0  0  0  0  0  0  0  0  0  0
  146.0470  160.4820  133.2190 C   0  0  0  0  0  0  0  0  0  0  0  0
  144.8480  159.9320  133.6120 C   0  0  0  0  0  0  0  0  0  0  0  0
  143.6230  160.5430  133.8690 C   0  0  0  0  0  0  0  0  0  0  0  0
  142.5520  159.7270  134.2700 C   0  0  0  0  0  0  0  0  0  0  0  0
  142.7260  158.3270  134.4190 C   0  0  0  0  0  0  0  0  0  0  0  0
  141.5620  157.4630  134.8260 C   0  0  0  0  0  0  0  0  0  0  0  0
  140.3330  158.3070  135.1730 C   0  0  0  0  0  0  0  0  0  0  0  0
  140.2770  158.5590  136.5530 O   0  0  0  0  0  0  0  0  0  0  0  0
  143.9810  157.7430  134.1390 C   0  0  0  0  0  0  0  0  0  0  0  0
  145.0240  158.5790  133.7290 C   0  0  0  0  0  0  0  0  0  0  0  0
  146.0527  154.9785  133.1201 H   0  0  0  0  0  0  0  0  0  0  0  0
  145.5986  156.2292  131.9134 H   0  0  0  0  0  0  0  0  0  0  0  0
  147.2582  155.5419  131.9134 H   0  0  0  0  0  0  0  0  0  0  0  0
  150.3710  158.9860  132.9460 H   0  0  0  0  0  0  0  0  0  0  0  0
  149.2190  158.2370  134.0990 H   0  0  0  0  0  0  0  0  0  0  0  0
  146.2649  161.5440  133.0329 H   0  0  0  0  0  0  0  0  0  0  0  0
  143.4980  161.6306  133.7613 H   0  0  0  0  0  0  0  0  0  0  0  0
  141.5689  160.1780  134.4704 H   0  0  0  0  0  0  0  0  0  0  0  0
  141.3095  156.7883  133.9947 H   0  0  0  0  0  0  0  0  0  0  0  0
  141.8520  156.8908  135.7196 H   0  0  0  0  0  0  0  0  0  0  0  0
  140.3881  159.2639  134.6333 H   0  0  0  0  0  0  0  0  0  0  0  0
  139.4294  157.7535  134.8779 H   0  0  0  0  0  0  0  0  0  0  0  0
  139.4540  159.0900  136.7140 H   0  0  0  0  0  0  0  0  0  0  0  0
  144.1340  156.6585  134.2409 H   0  0  0  0  0  0  0  0  0  0  0  0
  1  2  1  0
  2  3  2  0
  2  4  1  0
  4  5  1  0
  5  6  1  0
  6  7  1  0
  6  8  2  0
  5  9  2  0
  9 10  1  0
 10 11  2  0
 11 12  1  0
 12 13  2  0
 13 14  1  0
 14 15  1  0
 15 16  1  0
 13 17  1  0
 17 18  2  0
 18  4  1  0
 18 10  1  0
  1 19  1  0
  1 20  1  0
  1 21  1  0
  7 22  1  0
  7 23  1  0
  9 24  1  0
 11 25  1  0
 12 26  1  0
 14 27  1  0
 14 28  1  0
 15 29  1  0
 15 30  1  0
 16 31  1  0
 17 32  1  0
M  END
>  <UniqueID>  (78) 
76

>  <SMILES>  (78) 
CC(=O)n1c(C(N)=O)cc2ccc(CCO)cc21

>  <Energy>  (78) 
67.87861777511024

>  <Genealogy>  (78) 
CC(=O)n1c(C(N)=O)cc2ccc(CCO)cc21 (3D coordinates assigned)
CC(=O)n1c(C(N)=O)cc2ccc(CCO)cc21 (optimized conformer: 67.87861777511024 kcal/mol)

>  <smiles>  (78) 
CC(=O)n1c(C(N)=O)cc2ccc(CCO)cc21

>  <score_type>  (78) 
oracle

>  <origin>  (78) 
adg

>  <m_score__min__energy>  (78) 
-6.1100000000000003

>  <m_primary>  (78) 
energy

$$$$
78:0
     RDKit          3D

 30 31  0  0  0  0  0  0  0  0999 V2000
  141.3640  160.9830  133.7600 N   0  0  0  0  0  0  0  0  0  0  0  0
  142.2130  160.1160  134.5070 C   0  0  0  0  0  0  0  0  0  0  0  0
  141.8210  159.6770  135.6210 O   0  0  0  0  0  0  0  0  0  0  0  0
  143.5640  159.7720  134.0190 C   0  0  0  0  0  0  0  0  0  0  0  0
  143.9520  158.4740  133.6930 C   0  0  0  0  0  0  0  0  0  0  0  0
  145.2900  158.5610  133.3840 C   0  0  0  0  0  0  0  0  0  0  0  0
  146.1840  157.5700  132.9860 C   0  0  0  0  0  0  0  0  0  0  0  0
  147.5070  157.9490  132.7090 C   0  0  0  0  0  0  0  0  0  0  0  0
  147.9080  159.3040  132.8200 C   0  0  0  0  0  0  0  0  0  0  0  0
  149.3370  159.6980  132.5420 C   0  0  0  0  0  0  0  0  0  0  0  0
  149.7420  159.3820  131.0970 C   0  0  0  0  0  0  0  0  0  0  0  0
  149.6260  160.5880  130.2160 C   0  0  0  0  0  0  0  0  0  0  0  0
  149.3060  161.7030  130.7060 O   0  0  0  0  0  0  0  0  0  0  0  0
  149.9120  160.4880  128.8610 O   0  0  0  0  0  0  0  0  0  0  0  0
  146.9750  160.2810  133.2340 C   0  0  0  0  0  0  0  0  0  0  0  0
  145.6680  159.8720  133.5190 C   0  0  0  0  0  0  0  0  0  0  0  0
  144.6170  160.6290  133.9060 N   0  0  0  0  0  0  0  0  0  0  0  0
  144.6130  162.0580  134.0620 C   0  0  0  0  0  0  0  0  0  0  0  0
  143.6300  162.8480  133.3980 N   0  0  0  0  0  0  0  0  0  0  0  0
  145.4970  162.6210  134.7610 O   0  0  0  0  0  0  0  0  0  0  0  0
  141.6370  161.9740  133.5750 H   0  0  0  0  0  0  0  0  0  0  0  0
  143.3227  157.5719  133.6845 H   0  0  0  0  0  0  0  0  0  0  0  0
  145.8631  156.5221  132.8915 H   0  0  0  0  0  0  0  0  0  0  0  0
  148.2393  157.1874  132.4030 H   0  0  0  0  0  0  0  0  0  0  0  0
  149.4490  160.7785  132.7154 H   0  0  0  0  0  0  0  0  0  0  0  0
  149.9887  159.1210  133.2146 H   0  0  0  0  0  0  0  0  0  0  0  0
  150.7846  159.0314  131.0869 H   0  0  0  0  0  0  0  0  0  0  0  0
  149.0634  158.6071  130.7109 H   0  0  0  0  0  0  0  0  0  0  0  0
  147.2690  161.3367  133.3298 H   0  0  0  0  0  0  0  0  0  0  0  0
  142.7740  162.4100  132.9910 H   0  0  0  0  0  0  0  0  0  0  0  0
  1  2  1  0
  2  3  2  0
  2  4  1  0
  4  5  2  0
  5  6  1  0
  6  7  2  0
  7  8  1  0
  8  9  2  0
  9 10  1  0
 10 11  1  0
 11 12  1  0
 12 13  2  0
 12 14  1  0
  9 15  1  0
 15 16  2  0
 16 17  1  0
 17 18  1  0
 18 19  1  0
 18 20  2  0
 17  4  1  0
 16  6  1  0
  1 21  1  0
  5 22  1  0
  7 23  1  0
  8 24  1  0
 10 25  1  0
 10 26  1  0
 11 27  1  0
 11 28  1  0
 15 29  1  0
 19 30  1  0
M  CHG  3   1  -1  14  -1  19  -1
M  END
>  <UniqueID>  (79) 
77

>  <SMILES>  (79) 
[NH-]C(=O)c1cc2ccc(CCC(=O)[O-])cc2n1C([NH-])=O

>  <Energy>  (79) 
66.41838152853776

>  <Genealogy>  (79) 
[NH-]C(=O)c1cc2ccc(CCC(=O)[O-])cc2n1C([NH-])=O (protonated)
[NH-]C(=O)c1cc2ccc(CCC(=O)[O-])cc2n1C([NH-])=O (3D coordinates assigned)
[NH-]C(=O)c1cc2ccc(CCC(=O)[O-])cc2n1C([NH-])=O (optimized conformer: 66.41838152853776 kcal/mol)

>  <smiles>  (79) 
NC(=O)c1cc2ccc(CCC(=O)O)cc2n1C(N)=O

>  <score_type>  (79) 
oracle

>  <origin>  (79) 
adg

>  <m_score__min__energy>  (79) 
-6.4500000000000002

>  <m_primary>  (79) 
energy

$$$$
79:0
     RDKit          3D

 38 40  0  0  0  0  0  0  0  0999 V2000
  145.6140  155.5800  134.6440 C   0  0  0  0  0  0  0  0  0  0  0  0
  145.8890  156.4200  133.4380 C   0  0  0  0  0  0  0  0  0  0  0  0
  146.2140  155.8580  132.3590 O   0  0  0  0  0  0  0  0  0  0  0  0
  145.8050  157.8540  133.4980 N   0  0  0  0  0  0  0  0  0  0  0  0
  146.7840  158.7480  133.1840 C   0  0  0  0  0  0  0  0  0  0  0  0
  148.1860  158.4120  132.8590 C   0  0  0  0  0  0  0  0  0  0  0  0
  148.5070  157.4390  131.8640 N   0  0  0  0  0  0  0  0  0  0  0  0
  149.1190  158.9610  133.5060 O   0  0  0  0  0  0  0  0  0  0  0  0
  146.2950  160.0500  133.2250 C   0  0  0  0  0  0  0  0  0  0  0  0
  144.9720  159.9300  133.5820 C   0  0  0  0  0  0  0  0  0  0  0  0
  143.9950  160.9090  133.7360 C   0  0  0  0  0  0  0  0  0  0  0  0
  142.6910  160.4950  134.0510 C   0  0  0  0  0  0  0  0  0  0  0  0
  142.3870  159.1200  134.2030 C   0  0  0  0  0  0  0  0  0  0  0  0
  140.9750  158.6850  134.4810 C   0  0  0  0  0  0  0  0  0  0  0  0
  140.1280  158.8520  133.2490 C   0  0  0  0  0  0  0  0  0  0  0  0
  139.5140  157.7370  132.6540 C   0  0  0  0  0  0  0  0  0  0  0  0
  138.7580  157.8900  131.4880 C   0  0  0  0  0  0  0  0  0  0  0  0
  138.6190  159.1500  130.9010 C   0  0  0  0  0  0  0  0  0  0  0  0
  139.2390  160.2620  131.4790 C   0  0  0  0  0  0  0  0  0  0  0  0
  139.1090  161.4850  130.9050 F   0  0  0  0  0  0  0  0  0  0  0  0
  139.9950  160.1150  132.6470 C   0  0  0  0  0  0  0  0  0  0  0  0
  143.4020  158.1530  134.0240 C   0  0  0  0  0  0  0  0  0  0  0  0
  144.6980  158.5940  133.7360 C   0  0  0  0  0  0  0  0  0  0  0  0
  145.8068  156.1690  135.5528 H   0  0  0  0  0  0  0  0  0  0  0  0
  144.5629  155.2560  134.6332 H   0  0  0  0  0  0  0  0  0  0  0  0
  146.2700  154.6971  134.6332 H   0  0  0  0  0  0  0  0  0  0  0  0
  147.7700  156.8320  131.4440 H   0  0  0  0  0  0  0  0  0  0  0  0
  149.5030  157.2570  131.6140 H   0  0  0  0  0  0  0  0  0  0  0  0
  146.8484  160.9775  133.0164 H   0  0  0  0  0  0  0  0  0  0  0  0
  144.2372  161.9751  133.6146 H   0  0  0  0  0  0  0  0  0  0  0  0
  141.8977  161.2458  134.1810 H   0  0  0  0  0  0  0  0  0  0  0  0
  140.9734  157.6271  134.7824 H   0  0  0  0  0  0  0  0  0  0  0  0
  140.5604  159.3062  135.2886 H   0  0  0  0  0  0  0  0  0  0  0  0
  139.6285  156.7411  133.1068 H   0  0  0  0  0  0  0  0  0  0  0  0
  138.2712  157.0156  131.0314 H   0  0  0  0  0  0  0  0  0  0  0  0
  138.0221  159.2673  129.9845 H   0  0  0  0  0  0  0  0  0  0  0  0
  140.4868  160.9907  133.0956 H   0  0  0  0  0  0  0  0  0  0  0  0
  143.1783  157.0793  134.1091 H   0  0  0  0  0  0  0  0  0  0  0  0
  1  2  1  0
  2  3  2  0
  2  4  1  0
  4  5  1  0
  5  6  1  0
  6  7  1  0
  6  8  2  0
  5  9  2  0
  9 10  1  0
 10 11  2  0
 11 12  1  0
 12 13  2  0
 13 14  1  0
 14 15  1  0
 15 16  2  0
 16 17  1  0
 17 18  2  0
 18 19  1  0
 19 20  1  0
 19 21  2  0
 13 22  1  0
 22 23  2  0
 23  4  1  0
 23 10  1  0
 21 15  1  0
  1 24  1  0
  1 25  1  0
  1 26  1  0
  7 27  1  0
  7 28  1  0
  9 29  1  0
 11 30  1  0
 12 31  1  0
 14 32  1  0
 14 33  1  0
 16 34  1  0
 17 35  1  0
 18 36  1  0
 21 37  1  0
 22 38  1  0
M  END
>  <UniqueID>  (80) 
78

>  <SMILES>  (80) 
CC(=O)n1c(C(N)=O)cc2ccc(Cc3cccc(F)c3)cc21

>  <Energy>  (80) 
78.07616611094514

>  <Genealogy>  (80) 
CC(=O)n1c(C(N)=O)cc2ccc(Cc3cccc(F)c3)cc21 (3D coordinates assigned)
CC(=O)n1c(C(N)=O)cc2ccc(Cc3cccc(F)c3)cc21 (optimized conformer: 78.07616611094514 kcal/mol)

>  <smiles>  (80) 
CC(=O)n1c(C(N)=O)cc2ccc(Cc3cccc(F)c3)cc21

>  <score_type>  (80) 
oracle

>  <origin>  (80) 
adg

>  <m_score__min__energy>  (80) 
-7.9500000000000002

>  <m_primary>  (80) 
energy

$$$$
80:0
     RDKit          3D

 36 38  0  0  0  0  0  0  0  0999 V2000
  148.8270  158.4580  131.2120 N   0  0  0  0  0  0  0  0  0  0  0  0
  148.5160  158.8470  132.5470 C   0  0  0  0  0  0  0  0  0  0  0  0
  149.4510  159.0560  133.3630 O   0  0  0  0  0  0  0  0  0  0  0  0
  147.1050  158.9660  132.9690 C   0  0  0  0  0  0  0  0  0  0  0  0
  146.4740  160.1840  133.2170 C   0  0  0  0  0  0  0  0  0  0  0  0
  145.1600  159.8680  133.4820 C   0  0  0  0  0  0  0  0  0  0  0  0
  144.0860  160.6920  133.7980 C   0  0  0  0  0  0  0  0  0  0  0  0
  142.8410  160.0880  134.0400 C   0  0  0  0  0  0  0  0  0  0  0  0
  142.6930  158.6790  133.9730 C   0  0  0  0  0  0  0  0  0  0  0  0
  141.4100  158.0760  134.2230 N   0  0  0  0  0  0  0  0  0  0  0  0
  140.5450  157.7050  133.0960 C   0  0  0  0  0  0  0  0  0  0  0  0
  139.1420  157.3540  133.5930 C   0  0  0  0  0  0  0  0  0  0  0  0
  138.7860  158.2260  134.6440 O   0  0  0  0  0  0  0  0  0  0  0  0
  139.5050  157.8920  135.8190 C   0  0  0  0  0  0  0  0  0  0  0  0
  141.0220  157.6960  135.5880 C   0  0  0  0  0  0  0  0  0  0  0  0
  143.8090  157.8760  133.6430 C   0  0  0  0  0  0  0  0  0  0  0  0
  145.0320  158.5060  133.3940 C   0  0  0  0  0  0  0  0  0  0  0  0
  146.2180  157.9380  133.0860 N   0  0  0  0  0  0  0  0  0  0  0  0
  146.4770  156.5310  132.9670 C   0  0  0  0  0  0  0  0  0  0  0  0
  147.2150  156.0220  131.8560 N   0  0  0  0  0  0  0  0  0  0  0  0
  146.0820  155.7400  133.8650 O   0  0  0  0  0  0  0  0  0  0  0  0
  149.1420  157.4880  130.9950 H   0  0  0  0  0  0  0  0  0  0  0  0
  146.9291  161.1853  133.2038 H   0  0  0  0  0  0  0  0  0  0  0  0
  144.2073  161.7837  133.8568 H   0  0  0  0  0  0  0  0  0  0  0  0
  141.9709  160.7150  134.2843 H   0  0  0  0  0  0  0  0  0  0  0  0
  140.4802  158.5505  132.3953 H   0  0  0  0  0  0  0  0  0  0  0  0
  140.9743  156.8272  132.5909 H   0  0  0  0  0  0  0  0  0  0  0  0
  138.4227  157.4609  132.7677 H   0  0  0  0  0  0  0  0  0  0  0  0
  139.1296  156.3158  133.9564 H   0  0  0  0  0  0  0  0  0  0  0  0
  139.3674  158.7010  136.5516 H   0  0  0  0  0  0  0  0  0  0  0  0
  139.1081  156.9298  136.1749 H   0  0  0  0  0  0  0  0  0  0  0  0
  141.5766  158.3198  136.3044 H   0  0  0  0  0  0  0  0  0  0  0  0
  141.2593  156.6315  135.7316 H   0  0  0  0  0  0  0  0  0  0  0  0
  143.7172  156.7815  133.5836 H   0  0  0  0  0  0  0  0  0  0  0  0
  147.3890  154.9960  131.7630 H   0  0  0  0  0  0  0  0  0  0  0  0
  147.6220  156.6710  131.1470 H   0  0  0  0  0  0  0  0  0  0  0  0
  1  2  1  0
  2  3  2  0
  2  4  1  0
  4  5  2  0
  5  6  1  0
  6  7  2  0
  7  8  1  0
  8  9  2  0
  9 10  1  0
 10 11  1  0
 11 12  1  0
 12 13  1  0
 13 14  1  0
 14 15  1  0
  9 16  1  0
 16 17  2  0
 17 18  1  0
 18 19  1  0
 19 20  1  0
 19 21  2  0
 18  4  1  0
 17  6  1  0
 15 10  1  0
  1 22  1  0
  5 23  1  0
  7 24  1  0
  8 25  1  0
 11 26  1  0
 11 27  1  0
 12 28  1  0
 12 29  1  0
 14 30  1  0
 14 31  1  0
 15 32  1  0
 15 33  1  0
 16 34  1  0
 20 35  1  0
 20 36  1  0
M  CHG  1   1  -1
M  END
>  <UniqueID>  (81) 
79

>  <SMILES>  (81) 
[NH-]C(=O)c1cc2ccc(N3CCOCC3)cc2n1C(N)=O

>  <Energy>  (81) 
86.3301986315892

>  <Genealogy>  (81) 
[NH-]C(=O)c1cc2ccc(N3CCOCC3)cc2n1C(N)=O (protonated)
[NH-]C(=O)c1cc2ccc(N3CCOCC3)cc2n1C(N)=O (3D coordinates assigned)
[NH-]C(=O)c1cc2ccc(N3CCOCC3)cc2n1C(N)=O (nonaromatic ring conformer: 86.3301986315892 kcal/mol)

>  <smiles>  (81) 
NC(=O)c1cc2ccc(N3CCOCC3)cc2n1C(N)=O

>  <score_type>  (81) 
oracle

>  <origin>  (81) 
adg

>  <m_score__min__energy>  (81) 
-7.0800000000000001

>  <m_primary>  (81) 
energy

$$$$
81:0
     RDKit          3D

 39 41  0  0  0  0  0  0  0  0999 V2000
  143.8680  153.3110  137.5850 N   0  0  0  0  0  0  0  0  0  0  0  0
  143.5140  153.5250  136.2210 C   0  0  0  0  0  0  0  0  0  0  0  0
  142.7630  152.6960  135.6410 O   0  0  0  0  0  0  0  0  0  0  0  0
  144.0630  154.6890  135.4930 C   0  0  0  0  0  0  0  0  0  0  0  0
  143.2720  155.7120  134.9760 C   0  0  0  0  0  0  0  0  0  0  0  0
  144.1550  156.6320  134.4610 C   0  0  0  0  0  0  0  0  0  0  0  0
  143.9130  157.8370  133.8120 C   0  0  0  0  0  0  0  0  0  0  0  0
  145.0190  158.5740  133.3540 C   0  0  0  0  0  0  0  0  0  0  0  0
  146.3400  158.0960  133.5500 C   0  0  0  0  0  0  0  0  0  0  0  0
  147.4650  158.8470  133.0540 N   0  0  0  0  0  0  0  0  0  0  0  0
  148.7030  158.1700  132.6450 C   0  0  0  0  0  0  0  0  0  0  0  0
  149.0480  158.5040  131.1830 C   0  0  0  0  0  0  0  0  0  0  0  0
  148.6210  159.9380  130.7690 C   0  0  0  0  0  0  0  0  0  0  0  0
  149.5940  160.5230  129.7790 C   0  0  0  0  0  0  0  0  0  0  0  0
  149.6580  161.9360  129.5980 N   0  0  0  0  0  0  0  0  0  0  0  0
  150.3370  159.7710  129.0950 O   0  0  0  0  0  0  0  0  0  0  0  0
  148.4510  160.8650  131.9860 C   0  0  0  0  0  0  0  0  0  0  0  0
  147.3700  160.3110  132.9260 C   0  0  0  0  0  0  0  0  0  0  0  0
  146.5430  156.8610  134.2080 C   0  0  0  0  0  0  0  0  0  0  0  0
  145.4240  156.1580  134.6700 C   0  0  0  0  0  0  0  0  0  0  0  0
  145.3860  154.9620  135.2990 N   0  0  0  0  0  0  0  0  0  0  0  0
  146.5170  154.1380  135.6290 C   0  0  0  0  0  0  0  0  0  0  0  0
  147.5280  154.1140  134.8790 O   0  0  0  0  0  0  0  0  0  0  0  0
  146.5160  153.3800  136.7930 O   0  0  0  0  0  0  0  0  0  0  0  0
  144.7260  153.7460  137.9910 H   0  0  0  0  0  0  0  0  0  0  0  0
  142.1736  155.7716  134.9789 H   0  0  0  0  0  0  0  0  0  0  0  0
  142.8867  158.2030  133.6612 H   0  0  0  0  0  0  0  0  0  0  0  0
  144.8582  159.5320  132.8379 H   0  0  0  0  0  0  0  0  0  0  0  0
  149.5268  158.5002  133.2949 H   0  0  0  0  0  0  0  0  0  0  0  0
  148.5581  157.0833  132.7348 H   0  0  0  0  0  0  0  0  0  0  0  0
  150.1359  158.4105  131.0498 H   0  0  0  0  0  0  0  0  0  0  0  0
  148.4931  157.7997  130.5458 H   0  0  0  0  0  0  0  0  0  0  0  0
  147.6373  159.8568  130.2834 H   0  0  0  0  0  0  0  0  0  0  0  0
  148.7920  162.5190  129.6140 H   0  0  0  0  0  0  0  0  0  0  0  0
  149.4055  160.9314  132.5287 H   0  0  0  0  0  0  0  0  0  0  0  0
  148.1475  161.8634  131.6379 H   0  0  0  0  0  0  0  0  0  0  0  0
  147.4936  160.7655  133.9201 H   0  0  0  0  0  0  0  0  0  0  0  0
  146.3851  160.5573  132.5026 H   0  0  0  0  0  0  0  0  0  0  0  0
  147.5575  156.4615  134.3536 H   0  0  0  0  0  0  0  0  0  0  0  0
  1  2  1  0
  2  3  2  0
  2  4  1  0
  4  5  2  0
  5  6  1  0
  6  7  2  0
  7  8  1  0
  8  9  2  0
  9 10  1  0
 10 11  1  0
 11 12  1  0
 12 13  1  0
 13 14  1  0
 14 15  1  0
 14 16  2  0
 13 17  1  0
 17 18  1  0
  9 19  1  0
 19 20  2  0
 20 21  1  0
 21 22  1  0
 22 23  2  0
 22 24  1  0
 21  4  1  0
 20  6  1  0
 18 10  1  0
  1 25  1  0
  5 26  1  0
  7 27  1  0
  8 28  1  0
 11 29  1  0
 11 30  1  0
 12 31  1  0
 12 32  1  0
 13 33  1  0
 15 34  1  0
 17 35  1  0
 17 36  1  0
 18 37  1  0
 18 38  1  0
 19 39  1  0
M  CHG  3   1  -1  15  -1  24  -1
M  END
>  <UniqueID>  (82) 
80

>  <SMILES>  (82) 
[NH-]C(=O)c1cc2ccc(N3CCC(C([NH-])=O)CC3)cc2n1C(=O)[O-]

>  <Energy>  (82) 
84.98588074051628

>  <Genealogy>  (82) 
[NH-]C(=O)c1cc2ccc(N3CCC(C([NH-])=O)CC3)cc2n1C(=O)[O-] (protonated)
[NH-]C(=O)c1cc2ccc(N3CCC(C([NH-])=O)CC3)cc2n1C(=O)[O-] (3D coordinates assigned)
[NH-]C(=O)c1cc2ccc(N3CCC(C([NH-])=O)CC3)cc2n1C(=O)[O-] (nonaromatic ring conformer: 84.98588074051628 kcal/mol)

>  <smiles>  (82) 
NC(=O)c1cc2ccc(N3CCC(C(N)=O)CC3)cc2n1C(=O)O

>  <score_type>  (82) 
oracle

>  <origin>  (82) 
adg

>  <m_score__min__energy>  (82) 
-7.71

>  <m_primary>  (82) 
energy

$$$$
82:0
     RDKit          3D

 52 55  0  0  0  0  0  0  0  0999 V2000
  147.6260  152.0070  132.4100 C   0  0  0  0  0  0  0  0  0  0  0  0
  147.5350  153.4580  132.6510 N   0  0  1  0  0  0  0  0  0  0  0  0
  146.8770  153.7370  133.9620 C   0  0  0  0  0  0  0  0  0  0  0  0
  147.5770  154.8180  134.8120 C   0  0  0  0  0  0  0  0  0  0  0  0
  148.0890  156.0190  133.9890 C   0  0  2  0  0  0  0  0  0  0  0  0
  146.9940  157.0540  133.7770 C   0  0  0  0  0  0  0  0  0  0  0  0
  147.3140  158.3010  133.1750 C   0  0  0  0  0  0  0  0  0  0  0  0
  146.3290  159.2870  132.9870 C   0  0  0  0  0  0  0  0  0  0  0  0
  145.0370  159.0090  133.4190 C   0  0  0  0  0  0  0  0  0  0  0  0
  143.8930  159.7730  133.3570 C   0  0  0  0  0  0  0  0  0  0  0  0
  142.8950  158.9930  133.9400 C   0  0  0  0  0  0  0  0  0  0  0  0
  141.5020  159.4440  134.1340 C   0  0  0  0  0  0  0  0  0  0  0  0
  140.8470  159.2110  135.3800 N   0  0  0  0  0  0  0  0  0  0  0  0
  140.8760  160.0180  133.2050 O   0  0  0  0  0  0  0  0  0  0  0  0
  143.4040  157.7930  134.3360 N   0  0  0  0  0  0  0  0  0  0  0  0
  142.7120  156.6970  134.9540 C   0  0  0  0  0  0  0  0  0  0  0  0
  142.4520  156.7570  136.1870 O   0  0  0  0  0  0  0  0  0  0  0  0
  142.3350  155.4910  134.1770 C   0  0  0  0  0  0  0  0  0  0  0  0
  140.9890  155.2420  133.8630 C   0  0  0  0  0  0  0  0  0  0  0  0
  140.6320  154.1090  133.1310 C   0  0  0  0  0  0  0  0  0  0  0  0
  141.6100  153.2080  132.7070 C   0  0  0  0  0  0  0  0  0  0  0  0
  142.9640  153.4310  133.0140 C   0  0  0  0  0  0  0  0  0  0  0  0
  143.9760  152.5030  132.5830 N   0  0  0  0  0  0  0  0  0  0  0  0
  143.9500  151.3120  132.9580 O   0  0  0  0  0  0  0  0  0  0  0  0
  144.9890  152.9110  131.7450 O   0  0  0  0  0  0  0  0  0  0  0  0
  143.3160  154.5740  133.7530 C   0  0  0  0  0  0  0  0  0  0  0  0
  144.7140  157.8210  134.0180 C   0  0  0  0  0  0  0  0  0  0  0  0
  145.6660  156.8180  134.2090 C   0  0  0  0  0  0  0  0  0  0  0  0
  148.7820  155.5980  132.6670 C   0  0  0  0  0  0  0  0  0  0  0  0
  148.8720  154.0740  132.5150 C   0  0  0  0  0  0  0  0  0  0  0  0
  147.6593  151.4767  133.3732 H   0  0  0  0  0  0  0  0  0  0  0  0
  146.7470  151.6744  131.8385 H   0  0  0  0  0  0  0  0  0  0  0  0
  148.5397  151.7868  131.8385 H   0  0  0  0  0  0  0  0  0  0  0  0
  146.9300  153.8470  131.8880 H   0  0  0  0  0  0  0  0  0  0  0  0
  146.8576  152.8028  134.5424 H   0  0  0  0  0  0  0  0  0  0  0  0
  145.8724  154.1216  133.7323 H   0  0  0  0  0  0  0  0  0  0  0  0
  148.4347  154.3564  135.3232 H   0  0  0  0  0  0  0  0  0  0  0  0
  146.8280  155.2074  135.5172 H   0  0  0  0  0  0  0  0  0  0  0  0
  148.8770  156.5005  134.5866 H   0  0  0  0  0  0  0  0  0  0  0  0
  148.3468  158.4977  132.8515 H   0  0  0  0  0  0  0  0  0  0  0  0
  146.5733  160.2489  132.5126 H   0  0  0  0  0  0  0  0  0  0  0  0
  143.7886  160.7842  132.9367 H   0  0  0  0  0  0  0  0  0  0  0  0
  141.2440  158.5410  136.0760 H   0  0  0  0  0  0  0  0  0  0  0  0
  140.2111  155.9447  134.1963 H   0  0  0  0  0  0  0  0  0  0  0  0
  139.5753  153.9251  132.8870 H   0  0  0  0  0  0  0  0  0  0  0  0
  141.3198  152.3181  132.1292 H   0  0  0  0  0  0  0  0  0  0  0  0
  144.3718  154.7544  134.0034 H   0  0  0  0  0  0  0  0  0  0  0  0
  145.3907  155.8651  134.6847 H   0  0  0  0  0  0  0  0  0  0  0  0
  149.7996  156.0154  132.6528 H   0  0  0  0  0  0  0  0  0  0  0  0
  148.1773  155.9837  131.8330 H   0  0  0  0  0  0  0  0  0  0  0  0
  149.5364  153.6716  133.2938 H   0  0  0  0  0  0  0  0  0  0  0  0
  149.2706  153.8400  131.5168 H   0  0  0  0  0  0  0  0  0  0  0  0
  1  2  1  0
  2  3  1  0
  3  4  1  0
  4  5  1  0
  5  6  1  0
  6  7  2  0
  7  8  1  0
  8  9  2  0
  9 10  1  0
 10 11  2  0
 11 12  1  0
 12 13  1  0
 12 14  2  0
 11 15  1  0
 15 16  1  0
 16 17  2  0
 16 18  1  0
 18 19  2  0
 19 20  1  0
 20 21  2  0
 21 22  1  0
 22 23  1  0
 23 24  2  0
 23 25  1  0
 22 26  2  0
 15 27  1  0
 27 28  2  0
  5 29  1  0
 29 30  1  0
 30  2  1  0
 28  6  1  0
 27  9  1  0
 26 18  1  0
  1 31  1  0
  1 32  1  0
  1 33  1  0
  2 34  1  6
  3 35  1  0
  3 36  1  0
  4 37  1  0
  4 38  1  0
  5 39  1  1
  7 40  1  0
  8 41  1  0
 10 42  1  0
 13 43  1  0
 19 44  1  0
 20 45  1  0
 21 46  1  0
 26 47  1  0
 28 48  1  0
 29 49  1  0
 29 50  1  0
 30 51  1  0
 30 52  1  0
M  CHG  4   2   1  13  -1  23   1  25  -1
M  END
>  <UniqueID>  (83) 
81

>  <SMILES>  (83) 
C[NH+]1CCC(c2ccc3cc(C([NH-])=O)n(C(=O)c4cccc([N+](=O)[O-])c4)c3c2)CC1

>  <Energy>  (83) 
107.32836599239558

>  <Genealogy>  (83) 
C[NH+]1CCC(c2ccc3cc(C([NH-])=O)n(C(=O)c4cccc([N+](=O)[O-])c4)c3c2)CC1 (protonated)
C[NH+]1CCC(c2ccc3cc(C([NH-])=O)n(C(=O)c4cccc([N+](=O)[O-])c4)c3c2)CC1 (3D coordinates assigned)
C[NH+]1CCC(c2ccc3cc(C([NH-])=O)n(C(=O)c4cccc([N+](=O)[O-])c4)c3c2)CC1 (nonaromatic ring conformer: 107.32836599239558 kcal/mol)

>  <smiles>  (83) 
CN1CCC(c2ccc3cc(C(N)=O)n(C(=O)c4cccc([N+](=O)[O-])c4)c3c2)CC1

>  <score_type>  (83) 
oracle

>  <origin>  (83) 
adg

>  <m_score__min__energy>  (83) 
-8.8900000000000006

>  <m_primary>  (83) 
energy

$$$$
83:0
     RDKit          3D

 46 48  0  0  0  0  0  0  0  0999 V2000
  140.7890  159.2700  132.6340 C   0  0  0  0  0  0  0  0  0  0  0  0
  141.5520  158.0120  133.0140 C   0  0  0  0  0  0  0  0  0  0  0  0
  142.9510  158.2730  132.9660 O   0  0  0  0  0  0  0  0  0  0  0  0
  143.6060  159.0600  133.9170 C   0  0  0  0  0  0  0  0  0  0  0  0
  143.0160  159.3980  134.9800 O   0  0  0  0  0  0  0  0  0  0  0  0
  144.9680  159.4580  133.6940 N   0  0  0  0  0  0  0  0  0  0  0  0
  145.4940  160.7150  133.7460 C   0  0  0  0  0  0  0  0  0  0  0  0
  144.7280  161.9730  133.8840 C   0  0  0  0  0  0  0  0  0  0  0  0
  143.3170  161.9970  133.6950 N   0  0  0  0  0  0  0  0  0  0  0  0
  145.3380  163.0500  134.1230 O   0  0  0  0  0  0  0  0  0  0  0  0
  146.8740  160.6760  133.5640 C   0  0  0  0  0  0  0  0  0  0  0  0
  147.1810  159.3460  133.3870 C   0  0  0  0  0  0  0  0  0  0  0  0
  148.4100  158.7330  133.1720 C   0  0  0  0  0  0  0  0  0  0  0  0
  148.4360  157.3340  133.0490 C   0  0  0  0  0  0  0  0  0  0  0  0
  147.2430  156.5710  133.1520 C   0  0  0  0  0  0  0  0  0  0  0  0
  147.2840  155.1310  133.0320 N   0  0  0  0  0  0  0  0  0  0  0  0
  148.5410  154.4010  133.2500 C   0  0  0  0  0  0  0  0  0  0  0  0
  148.5180  153.0740  132.4830 C   0  0  0  0  0  0  0  0  0  0  0  0
  147.3740  152.2140  132.8840 N   0  0  0  0  0  0  0  0  0  0  0  0
  147.1000  151.2240  131.8280 C   0  0  0  0  0  0  0  0  0  0  0  0
  146.1370  152.9650  133.2430 C   0  0  0  0  0  0  0  0  0  0  0  0
  146.0870  154.3760  132.6410 C   0  0  0  0  0  0  0  0  0  0  0  0
  146.0130  157.2360  133.3720 C   0  0  0  0  0  0  0  0  0  0  0  0
  146.0150  158.6320  133.4710 C   0  0  0  0  0  0  0  0  0  0  0  0
  140.4704  159.7953  133.5465 H   0  0  0  0  0  0  0  0  0  0  0  0
  141.4401  159.9284  132.0402 H   0  0  0  0  0  0  0  0  0  0  0  0
  139.9042  158.9969  132.0402 H   0  0  0  0  0  0  0  0  0  0  0  0
  141.2708  157.7061  134.0325 H   0  0  0  0  0  0  0  0  0  0  0  0
  141.3049  157.2057  132.3077 H   0  0  0  0  0  0  0  0  0  0  0  0
  142.7610  161.1120  133.6830 H   0  0  0  0  0  0  0  0  0  0  0  0
  147.5707  161.5272  133.5621 H   0  0  0  0  0  0  0  0  0  0  0  0
  149.3340  159.3255  133.1004 H   0  0  0  0  0  0  0  0  0  0  0  0
  149.3934  156.8227  132.8705 H   0  0  0  0  0  0  0  0  0  0  0  0
  149.3834  155.0124  132.8944 H   0  0  0  0  0  0  0  0  0  0  0  0
  148.6563  154.1945  134.3243 H   0  0  0  0  0  0  0  0  0  0  0  0
  148.4402  153.2881  131.4068 H   0  0  0  0  0  0  0  0  0  0  0  0
  149.4463  152.5323  132.7171 H   0  0  0  0  0  0  0  0  0  0  0  0
  147.6720  151.6740  133.7320 H   0  0  0  0  0  0  0  0  0  0  0  0
  146.8335  150.2611  132.2883 H   0  0  0  0  0  0  0  0  0  0  0  0
  146.2653  151.5754  131.2036 H   0  0  0  0  0  0  0  0  0  0  0  0
  147.9966  151.0963  131.2036 H   0  0  0  0  0  0  0  0  0  0  0  0
  145.2669  152.3990  132.8788 H   0  0  0  0  0  0  0  0  0  0  0  0
  146.1301  153.0773  134.3372 H   0  0  0  0  0  0  0  0  0  0  0  0
  146.0444  154.3029  131.5443 H   0  0  0  0  0  0  0  0  0  0  0  0
  145.1932  154.8969  133.0150 H   0  0  0  0  0  0  0  0  0  0  0  0
  145.0756  156.6677  133.4632 H   0  0  0  0  0  0  0  0  0  0  0  0
  1  2  1  0
  2  3  1  0
  3  4  1  0
  4  5  2  0
  4  6  1  0
  6  7  1  0
  7  8  1  0
  8  9  1  0
  8 10  2  0
  7 11  2  0
 11 12  1  0
 12 13  2  0
 13 14  1  0
 14 15  2  0
 15 16  1  0
 16 17  1  0
 17 18  1  0
 18 19  1  0
 19 20  1  0
 19 21  1  0
 21 22  1  0
 15 23  1  0
 23 24  2  0
 24  6  1  0
 24 12  1  0
 22 16  1  0
  1 25  1  0
  1 26  1  0
  1 27  1  0
  2 28  1  0
  2 29  1  0
  9 30  1  0
 11 31  1  0
 13 32  1  0
 14 33  1  0
 17 34  1  0
 17 35  1  0
 18 36  1  0
 18 37  1  0
 19 38  1  0
 20 39  1  0
 20 40  1  0
 20 41  1  0
 21 42  1  0
 21 43  1  0
 22 44  1  0
 22 45  1  0
 23 46  1  0
M  CHG  2   9  -1  19   1
M  END
>  <UniqueID>  (84) 
82

>  <SMILES>  (84) 
CCOC(=O)n1c(C([NH-])=O)cc2ccc(N3CC[NH+](C)CC3)cc21

>  <Energy>  (84) 
90.72200619397577

>  <Genealogy>  (84) 
CCOC(=O)n1c(C([NH-])=O)cc2ccc(N3CC[NH+](C)CC3)cc21 (protonated)
CCOC(=O)n1c(C([NH-])=O)cc2ccc(N3CC[NH+](C)CC3)cc21 (3D coordinates assigned)
CCOC(=O)n1c(C([NH-])=O)cc2ccc(N3CC[NH+](C)CC3)cc21 (nonaromatic ring conformer: 90.72200619397577 kcal/mol)

>  <smiles>  (84) 
CCOC(=O)n1c(C(N)=O)cc2ccc(N3CCN(C)CC3)cc21

>  <score_type>  (84) 
oracle

>  <origin>  (84) 
adg

>  <m_score__min__energy>  (84) 
-6.6100000000000003

>  <m_primary>  (84) 
energy

$$$$
84:0
     RDKit          3D

 52 53  0  0  0  0  0  0  0  0999 V2000
  140.4440  158.5560  136.7430 C   0  0  0  0  0  0  0  0  0  0  0  0
  139.8710  157.4760  136.0140 O   0  0  0  0  0  0  0  0  0  0  0  0
  139.6950  157.5130  134.6270 C   0  0  0  0  0  0  0  0  0  0  0  0
  138.6980  158.1020  134.1220 O   0  0  0  0  0  0  0  0  0  0  0  0
  140.6850  156.7980  133.7490 C   0  0  2  0  0  0  0  0  0  0  0  0
  140.2020  155.3940  133.3570 C   0  0  0  0  0  0  0  0  0  0  0  0
  142.0100  156.7490  134.3950 N   0  0  0  0  0  0  0  0  0  0  0  0
  142.3250  155.7220  135.3900 C   0  0  0  0  0  0  0  0  0  0  0  0
  143.0350  157.7010  134.0680 C   0  0  0  0  0  0  0  0  0  0  0  0
  142.7280  159.0810  134.0440 C   0  0  0  0  0  0  0  0  0  0  0  0
  143.7120  160.0250  133.7080 C   0  0  0  0  0  0  0  0  0  0  0  0
  144.9910  159.5590  133.4180 C   0  0  0  0  0  0  0  0  0  0  0  0
  146.1150  160.2520  133.0380 C   0  0  0  0  0  0  0  0  0  0  0  0
  147.0960  159.2850  132.8520 C   0  0  0  0  0  0  0  0  0  0  0  0
  148.4670  159.6100  132.4240 C   0  0  0  0  0  0  0  0  0  0  0  0
  149.5910  158.9760  133.0330 N   0  0  0  0  0  0  0  0  0  0  0  0
  148.6450  160.3930  131.4530 O   0  0  0  0  0  0  0  0  0  0  0  0
  146.6140  158.0390  133.1360 N   0  0  0  0  0  0  0  0  0  0  0  0
  147.3590  156.8080  133.2330 C   0  0  0  0  0  0  0  0  0  0  0  0
  148.4260  156.7630  133.8990 O   0  0  0  0  0  0  0  0  0  0  0  0
  146.8650  155.6520  132.6130 O   0  0  0  0  0  0  0  0  0  0  0  0
  146.5930  154.3910  133.2410 C   0  0  0  0  0  0  0  0  0  0  0  0
  146.4280  154.5730  134.7610 C   0  0  0  0  0  0  0  0  0  0  0  0
  147.8040  153.4860  132.9760 C   0  0  0  0  0  0  0  0  0  0  0  0
  145.3390  153.7380  132.6330 C   0  0  0  0  0  0  0  0  0  0  0  0
  145.3150  158.2260  133.4670 C   0  0  0  0  0  0  0  0  0  0  0  0
  144.3450  157.2640  133.7850 C   0  0  0  0  0  0  0  0  0  0  0  0
  140.3427  158.3650  137.8215 H   0  0  0  0  0  0  0  0  0  0  0  0
  141.5095  158.6479  136.4854 H   0  0  0  0  0  0  0  0  0  0  0  0
  139.9227  159.4897  136.4854 H   0  0  0  0  0  0  0  0  0  0  0  0
  140.7756  157.3729  132.8156 H   0  0  0  0  0  0  0  0  0  0  0  0
  140.0006  154.8084  134.2661 H   0  0  0  0  0  0  0  0  0  0  0  0
  139.2804  155.4761  132.7620 H   0  0  0  0  0  0  0  0  0  0  0  0
  140.9790  154.8918  132.7620 H   0  0  0  0  0  0  0  0  0  0  0  0
  142.1972  156.1386  136.4000 H   0  0  0  0  0  0  0  0  0  0  0  0
  141.6485  154.8646  135.2587 H   0  0  0  0  0  0  0  0  0  0  0  0
  143.3659  155.3913  135.2587 H   0  0  0  0  0  0  0  0  0  0  0  0
  141.7103  159.4179  134.2905 H   0  0  0  0  0  0  0  0  0  0  0  0
  143.4791  161.0995  133.6750 H   0  0  0  0  0  0  0  0  0  0  0  0
  146.2167  161.3396  132.9086 H   0  0  0  0  0  0  0  0  0  0  0  0
  150.5600  159.2140  132.7290 H   0  0  0  0  0  0  0  0  0  0  0  0
  149.4560  158.2170  133.7380 H   0  0  0  0  0  0  0  0  0  0  0  0
  147.0764  153.8579  135.2884 H   0  0  0  0  0  0  0  0  0  0  0  0
  146.7102  155.5988  135.0402 H   0  0  0  0  0  0  0  0  0  0  0  0
  145.3795  154.3923  135.0402 H   0  0  0  0  0  0  0  0  0  0  0  0
  148.2367  153.1626  133.9342 H   0  0  0  0  0  0  0  0  0  0  0  0
  147.4839  152.6039  132.4019 H   0  0  0  0  0  0  0  0  0  0  0  0
  148.5592  154.0428  132.4019 H   0  0  0  0  0  0  0  0  0  0  0  0
  144.6769  153.3932  133.4409 H   0  0  0  0  0  0  0  0  0  0  0  0
  144.8071  154.4737  132.0118 H   0  0  0  0  0  0  0  0  0  0  0  0
  145.6368  152.8804  132.0118 H   0  0  0  0  0  0  0  0  0  0  0  0
  144.6004  156.1944  133.8129 H   0  0  0  0  0  0  0  0  0  0  0  0
  1  2  1  0
  2  3  1  0
  3  4  2  0
  3  5  1  0
  5  6  1  0
  5  7  1  0
  7  8  1  0
  7  9  1  0
  9 10  2  0
 10 11  1  0
 11 12  2  0
 12 13  1  0
 13 14  2  0
 14 15  1  0
 15 16  1  0
 15 17  2  0
 14 18  1  0
 18 19  1  0
 19 20  2  0
 19 21  1  0
 21 22  1  0
 22 23  1  0
 22 24  1  0
 22 25  1  0
 18 26  1  0
 26 27  2  0
 27  9  1  0
 26 12  1  0
  1 28  1  0
  1 29  1  0
  1 30  1  0
  5 31  1  6
  6 32  1  0
  6 33  1  0
  6 34  1  0
  8 35  1  0
  8 36  1  0
  8 37  1  0
 10 38  1  0
 11 39  1  0
 13 40  1  0
 16 41  1  0
 16 42  1  0
 23 43  1  0
 23 44  1  0
 23 45  1  0
 24 46  1  0
 24 47  1  0
 24 48  1  0
 25 49  1  0
 25 50  1  0
 25 51  1  0
 27 52  1  0
M  END
>  <UniqueID>  (85) 
83

>  <SMILES>  (85) 
COC(=O)[C@H](C)N(C)c1ccc2cc(C(N)=O)n(C(=O)OC(C)(C)C)c2c1

>  <Energy>  (85) 
87.6591461916985

>  <Genealogy>  (85) 
COC(=O)[C@H](C)N(C)c1ccc2cc(C(N)=O)n(C(=O)OC(C)(C)C)c2c1 (chirality)
COC(=O)[C@H](C)N(C)c1ccc2cc(C(N)=O)n(C(=O)OC(C)(C)C)c2c1 (3D coordinates assigned)
COC(=O)[C@H](C)N(C)c1ccc2cc(C(N)=O)n(C(=O)OC(C)(C)C)c2c1 (optimized conformer: 87.6591461916985 kcal/mol)

>  <smiles>  (85) 
COC(=O)C(C)N(C)c1ccc2cc(C(N)=O)n(C(=O)OC(C)(C)C)c2c1

>  <score_type>  (85) 
oracle

>  <origin>  (85) 
adg

>  <m_score__min__energy>  (85) 
-7.6900000000000004

>  <m_primary>  (85) 
energy

$$$$
85:0
     RDKit          3D

 26 27  0  0  0  0  0  0  0  0999 V2000
  145.1560  160.7700  133.8120 N   0  0  0  0  0  0  0  0  0  0  0  0
  145.2040  159.4870  133.1910 C   0  0  0  0  0  0  0  0  0  0  0  0
  144.1470  158.9840  132.7260 O   0  0  0  0  0  0  0  0  0  0  0  0
  146.4470  158.7670  133.1100 N   0  0  0  0  0  0  0  0  0  0  0  0
  146.7110  157.5130  133.5730 C   0  0  0  0  0  0  0  0  0  0  0  0
  145.8160  156.6970  134.4180 C   0  0  0  0  0  0  0  0  0  0  0  0
  144.3970  156.8320  134.3390 N   0  0  0  0  0  0  0  0  0  0  0  0
  146.3150  155.9070  135.2640 O   0  0  0  0  0  0  0  0  0  0  0  0
  147.9850  157.1040  133.1910 C   0  0  0  0  0  0  0  0  0  0  0  0
  148.5080  158.1610  132.4830 C   0  0  0  0  0  0  0  0  0  0  0  0
  149.7420  158.2910  131.8520 C   0  0  0  0  0  0  0  0  0  0  0  0
  150.0040  159.4830  131.1560 C   0  0  0  0  0  0  0  0  0  0  0  0
  149.0360  160.5160  131.1050 C   0  0  0  0  0  0  0  0  0  0  0  0
  149.3080  161.7610  130.3150 C   0  0  0  0  0  0  0  0  0  0  0  0
  149.9140  161.4240  129.1190 F   0  0  0  0  0  0  0  0  0  0  0  0
  147.7880  160.3420  131.7430 C   0  0  0  0  0  0  0  0  0  0  0  0
  147.5610  159.1540  132.4470 C   0  0  0  0  0  0  0  0  0  0  0  0
  145.4970  161.6210  133.3130 H   0  0  0  0  0  0  0  0  0  0  0  0
  143.7790  156.2210  134.9190 H   0  0  0  0  0  0  0  0  0  0  0  0
  143.9580  157.5900  133.7710 H   0  0  0  0  0  0  0  0  0  0  0  0
  148.4702  156.1411  133.4087 H   0  0  0  0  0  0  0  0  0  0  0  0
  150.4892  157.4850  131.8970 H   0  0  0  0  0  0  0  0  0  0  0  0
  150.9696  159.6153  130.6460 H   0  0  0  0  0  0  0  0  0  0  0  0
  148.3602  162.2811  130.1122 H   0  0  0  0  0  0  0  0  0  0  0  0
  149.9731  162.4223  130.8898 H   0  0  0  0  0  0  0  0  0  0  0  0
  147.0135  161.1211  131.6879 H   0  0  0  0  0  0  0  0  0  0  0  0
  1  2  1  0
  2  3  2  0
  2  4  1  0
  4  5  1  0
  5  6  1  0
  6  7  1  0
  6  8  2  0
  5  9  2  0
  9 10  1  0
 10 11  2  0
 11 12  1  0
 12 13  2  0
 13 14  1  0
 14 15  1  0
 13 16  1  0
 16 17  2  0
 17  4  1  0
 17 10  1  0
  1 18  1  0
  7 19  1  0
  7 20  1  0
  9 21  1  0
 11 22  1  0
 12 23  1  0
 14 24  1  0
 14 25  1  0
 16 26  1  0
M  CHG  1   1  -1
M  END
>  <UniqueID>  (86) 
84

>  <SMILES>  (86) 
[NH-]C(=O)n1c(C(N)=O)cc2ccc(CF)cc21

>  <Energy>  (86) 
65.31771477077923

>  <Genealogy>  (86) 
[NH-]C(=O)n1c(C(N)=O)cc2ccc(CF)cc21 (protonated)
[NH-]C(=O)n1c(C(N)=O)cc2ccc(CF)cc21 (3D coordinates assigned)
[NH-]C(=O)n1c(C(N)=O)cc2ccc(CF)cc21 (optimized conformer: 65.31771477077923 kcal/mol)

>  <smiles>  (86) 
NC(=O)c1cc2ccc(CF)cc2n1C(N)=O

>  <score_type>  (86) 
oracle

>  <origin>  (86) 
adg

>  <m_score__min__energy>  (86) 
-5.7000000000000002

>  <m_primary>  (86) 
energy

$$$$
86:0
     RDKit          3D

 36 37  0  0  0  0  0  0  0  0999 V2000
  144.1936  151.6963  131.9859 H   0  0  0  0  0  0  0  0  0  0  0  0
  143.4650  152.1420  132.6790 C   0  0  0  0  0  0  0  0  0  0  0  0
  143.7330  153.8480  133.1800 S   0  0  0  0  0  0  0  0  0  0  0  0
  144.7570  153.3870  134.6220 C   0  0  0  0  0  0  0  0  0  0  0  0
  144.1482  152.7944  135.3207 H   0  0  0  0  0  0  0  0  0  0  0  0
  145.6175  152.8007  134.2674 H   0  0  0  0  0  0  0  0  0  0  0  0
  145.2790  154.6300  135.3440 C   0  0  0  0  0  0  0  0  0  0  0  0
  144.4348  155.3055  135.5465 H   0  0  0  0  0  0  0  0  0  0  0  0
  145.7586  154.3071  136.2798 H   0  0  0  0  0  0  0  0  0  0  0  0
  146.3050  155.3640  134.5190 C   0  0  0  0  0  0  0  0  0  0  0  0
  147.4900  154.7010  134.1130 C   0  0  0  0  0  0  0  0  0  0  0  0
  147.6606  153.6567  134.4134 H   0  0  0  0  0  0  0  0  0  0  0  0
  148.4490  155.3660  133.3300 C   0  0  0  0  0  0  0  0  0  0  0  0
  149.3750  154.8610  133.0177 H   0  0  0  0  0  0  0  0  0  0  0  0
  148.1910  156.6830  132.9620 C   0  0  0  0  0  0  0  0  0  0  0  0
  148.9540  157.5600  132.2260 C   0  0  0  0  0  0  0  0  0  0  0  0
  149.9409  157.3715  131.7783 H   0  0  0  0  0  0  0  0  0  0  0  0
  148.2110  158.7380  132.1680 C   0  0  0  0  0  0  0  0  0  0  0  0
  148.6170  159.9290  131.3900 C   0  0  0  0  0  0  0  0  0  0  0  0
  149.4440  159.8170  130.4480 O   0  0  0  0  0  0  0  0  0  0  0  0
  148.1070  161.2230  131.7170 N   0  0  0  0  0  0  0  0  0  0  0  0
  147.3780  161.3500  132.4540 H   0  0  0  0  0  0  0  0  0  0  0  0
  148.4300  162.0630  131.1870 H   0  0  0  0  0  0  0  0  0  0  0  0
  147.0340  158.5950  132.8440 N   0  0  0  0  0  0  0  0  0  0  0  0
  146.0220  159.5900  133.0640 C   0  0  0  0  0  0  0  0  0  0  0  0
  144.8410  159.3950  132.6730 O   0  0  0  0  0  0  0  0  0  0  0  0
  146.3360  160.7850  133.6980 O   0  0  0  0  0  0  0  0  0  0  0  0
  147.0370  157.3310  133.3240 C   0  0  0  0  0  0  0  0  0  0  0  0
  146.0760  156.6990  134.1200 C   0  0  0  0  0  0  0  0  0  0  0  0
  145.1630  157.2297  134.4280 H   0  0  0  0  0  0  0  0  0  0  0  0
  142.4430  151.3690  133.0860 C   0  0  0  0  0  0  0  0  0  0  0  0
  142.4050  150.0060  132.6120 C   0  0  0  0  0  0  0  0  0  0  0  0
  142.3750  148.9130  132.2330 N   0  0  0  0  0  0  0  0  0  0  0  0
  141.3580  151.8190  133.9950 C   0  0  0  0  0  0  0  0  0  0  0  0
  140.6710  152.8320  133.6930 O   0  0  0  0  0  0  0  0  0  0  0  0
  141.0830  151.1650  135.1900 O   0  0  0  0  0  0  0  0  0  0  0  0
  1  2  1  0
  2  3  1  0
  3  4  1  0
  4  5  1  0
  4  6  1  0
  4  7  1  0
  7  8  1  0
  7  9  1  0
  7 10  1  0
 10 11  2  0
 11 12  1  0
 11 13  1  0
 13 14  1  0
 13 15  2  0
 15 16  1  0
 16 17  1  0
 16 18  2  0
 18 19  1  0
 19 20  2  0
 19 21  1  0
 21 22  1  0
 21 23  1  0
 18 24  1  0
 24 25  1  0
 25 26  2  0
 25 27  1  0
 24 28  1  0
 28 29  2  0
 29 30  1  0
  2 31  2  0
 31 32  1  0
 32 33  3  0
 31 34  1  0
 34 35  2  0
 34 36  1  0
 29 10  1  0
 28 15  1  0
M  CHG  2  27  -1  36  -1
M  END
>  <UniqueID>  (87) 
85

>  <SMILES>  (87) 
N#C/C(=C/SCCc1ccc2cc(C(N)=O)n(C(=O)[O-])c2c1)C(=O)[O-]

>  <Energy>  (87) 
71.4221961410535

>  <Genealogy>  (87) 
N#C/C(=C/SCCc1ccc2cc(C(N)=O)n(C(=O)[O-])c2c1)C(=O)[O-] (protonated)
N#C/C(=C/SCCc1ccc2cc(C(N)=O)n(C(=O)[O-])c2c1)C(=O)[O-] (cis-trans isomerization)
N#C/C(=C/SCCc1ccc2cc(C(N)=O)n(C(=O)[O-])c2c1)C(=O)[O-] (3D coordinates assigned)
N#C/C(=C/SCCc1ccc2cc(C(N)=O)n(C(=O)[O-])c2c1)C(=O)[O-] (optimized conformer: 71.4221961410535 kcal/mol)

>  <smiles>  (87) 
N#C/C(=C/SCCc1ccc2cc(C(N)=O)n(C(=O)O)c2c1)C(=O)O

>  <score_type>  (87) 
oracle

>  <origin>  (87) 
adg

>  <m_score__min__energy>  (87) 
-7.79

>  <m_primary>  (87) 
energy

$$$$
87:0
     RDKit          3D

 41 43  0  0  0  0  0  0  0  0999 V2000
  142.0420  153.6850  134.3690 C   0  0  0  0  0  0  0  0  0  0  0  0
  142.5780  154.8400  135.2060 C   0  0  0  0  0  0  0  0  0  0  0  0
  143.6770  155.4700  134.5500 O   0  0  0  0  0  0  0  0  0  0  0  0
  143.5440  156.2240  133.3780 C   0  0  0  0  0  0  0  0  0  0  0  0
  143.5870  155.6620  132.2490 O   0  0  0  0  0  0  0  0  0  0  0  0
  143.3270  157.6400  133.4640 N   0  0  0  0  0  0  0  0  0  0  0  0
  142.1400  158.3030  133.5580 C   0  0  0  0  0  0  0  0  0  0  0  0
  140.7960  157.6990  133.4380 C   0  0  0  0  0  0  0  0  0  0  0  0
  140.6340  156.3400  133.0440 N   0  0  0  0  0  0  0  0  0  0  0  0
  139.7740  158.4080  133.6410 O   0  0  0  0  0  0  0  0  0  0  0  0
  142.3540  159.6730  133.7000 C   0  0  0  0  0  0  0  0  0  0  0  0
  143.7210  159.8320  133.6790 C   0  0  0  0  0  0  0  0  0  0  0  0
  144.4890  160.9880  133.7780 C   0  0  0  0  0  0  0  0  0  0  0  0
  145.8870  160.8540  133.7420 C   0  0  0  0  0  0  0  0  0  0  0  0
  146.4880  159.5750  133.6260 C   0  0  0  0  0  0  0  0  0  0  0  0
  147.9840  159.4450  133.5580 C   0  0  0  0  0  0  0  0  0  0  0  0
  148.4660  159.7430  132.1650 C   0  0  0  0  0  0  0  0  0  0  0  0
  148.8340  158.6950  131.3030 C   0  0  0  0  0  0  0  0  0  0  0  0
  149.2450  158.9700  129.9950 C   0  0  0  0  0  0  0  0  0  0  0  0
  149.2820  160.2900  129.5350 C   0  0  0  0  0  0  0  0  0  0  0  0
  148.9050  161.3360  130.3820 C   0  0  0  0  0  0  0  0  0  0  0  0
  148.4940  161.0650  131.6910 C   0  0  0  0  0  0  0  0  0  0  0  0
  145.6750  158.4250  133.5200 C   0  0  0  0  0  0  0  0  0  0  0  0
  144.2850  158.5900  133.5360 C   0  0  0  0  0  0  0  0  0  0  0  0
  141.6732  152.8903  135.0342 H   0  0  0  0  0  0  0  0  0  0  0  0
  141.2182  154.0435  133.7343 H   0  0  0  0  0  0  0  0  0  0  0  0
  142.8476  153.2874  133.7343 H   0  0  0  0  0  0  0  0  0  0  0  0
  141.7768  155.5782  135.3580 H   0  0  0  0  0  0  0  0  0  0  0  0
  142.9222  154.4459  136.1736 H   0  0  0  0  0  0  0  0  0  0  0  0
  141.4240  155.8060  132.6170 H   0  0  0  0  0  0  0  0  0  0  0  0
  141.5925  160.4596  133.8062 H   0  0  0  0  0  0  0  0  0  0  0  0
  144.0163  161.9759  133.8812 H   0  0  0  0  0  0  0  0  0  0  0  0
  146.5217  161.7502  133.8044 H   0  0  0  0  0  0  0  0  0  0  0  0
  148.4432  160.1551  134.2615 H   0  0  0  0  0  0  0  0  0  0  0  0
  148.2684  158.4165  133.8250 H   0  0  0  0  0  0  0  0  0  0  0  0
  148.7985  157.6548  131.6589 H   0  0  0  0  0  0  0  0  0  0  0  0
  149.5395  158.1470  129.3272 H   0  0  0  0  0  0  0  0  0  0  0  0
  149.6078  160.5052  128.5066 H   0  0  0  0  0  0  0  0  0  0  0  0
  148.9316  162.3738  130.0185 H   0  0  0  0  0  0  0  0  0  0  0  0
  148.1914  161.8905  132.3521 H   0  0  0  0  0  0  0  0  0  0  0  0
  146.1229  157.4246  133.4272 H   0  0  0  0  0  0  0  0  0  0  0  0
  1  2  1  0
  2  3  1  0
  3  4  1  0
  4  5  2  0
  4  6  1  0
  6  7  1  0
  7  8  1  0
  8  9  1  0
  8 10  2  0
  7 11  2  0
 11 12  1  0
 12 13  2  0
 13 14  1  0
 14 15  2  0
 15 16  1  0
 16 17  1  0
 17 18  2  0
 18 19  1  0
 19 20  2  0
 20 21  1  0
 21 22  2  0
 15 23  1  0
 23 24  2  0
 24  6  1  0
 24 12  1  0
 22 17  1  0
  1 25  1  0
  1 26  1  0
  1 27  1  0
  2 28  1  0
  2 29  1  0
  9 30  1  0
 11 31  1  0
 13 32  1  0
 14 33  1  0
 16 34  1  0
 16 35  1  0
 18 36  1  0
 19 37  1  0
 20 38  1  0
 21 39  1  0
 22 40  1  0
 23 41  1  0
M  CHG  1   9  -1
M  END
>  <UniqueID>  (88) 
86

>  <SMILES>  (88) 
CCOC(=O)n1c(C([NH-])=O)cc2ccc(Cc3ccccc3)cc21

>  <Energy>  (88) 
76.86125402609748

>  <Genealogy>  (88) 
CCOC(=O)n1c(C([NH-])=O)cc2ccc(Cc3ccccc3)cc21 (protonated)
CCOC(=O)n1c(C([NH-])=O)cc2ccc(Cc3ccccc3)cc21 (3D coordinates assigned)
CCOC(=O)n1c(C([NH-])=O)cc2ccc(Cc3ccccc3)cc21 (optimized conformer: 76.86125402609748 kcal/mol)

>  <smiles>  (88) 
CCOC(=O)n1c(C(N)=O)cc2ccc(Cc3ccccc3)cc21

>  <score_type>  (88) 
oracle

>  <origin>  (88) 
adg

>  <m_score__min__energy>  (88) 
-7.9500000000000002

>  <m_primary>  (88) 
energy

$$$$
88:0
     RDKit          3D

 38 39  0  0  0  0  0  0  0  0999 V2000
  148.4450  157.2620  133.7880 N   0  0  0  0  0  0  0  0  0  0  0  0
  147.7500  158.5110  133.7350 C   0  0  0  0  0  0  0  0  0  0  0  0
  148.4080  159.5820  133.8150 O   0  0  0  0  0  0  0  0  0  0  0  0
  146.2830  158.5550  133.5670 C   0  0  0  0  0  0  0  0  0  0  0  0
  145.5230  159.7220  133.6210 C   0  0  0  0  0  0  0  0  0  0  0  0
  144.2130  159.3110  133.5170 C   0  0  0  0  0  0  0  0  0  0  0  0
  143.0380  160.0560  133.5130 C   0  0  0  0  0  0  0  0  0  0  0  0
  141.8220  159.3640  133.3770 C   0  0  0  0  0  0  0  0  0  0  0  0
  141.8050  157.9540  133.2350 C   0  0  0  0  0  0  0  0  0  0  0  0
  140.4940  157.2190  133.1020 C   0  0  0  0  0  0  0  0  0  0  0  0
  139.2950  158.1840  133.0650 C   0  0  2  0  0  0  0  0  0  0  0  0
  138.0840  157.4840  133.4980 N   0  0  0  0  0  0  0  0  0  0  0  0
  139.0970  158.7780  131.6930 C   0  0  0  0  0  0  0  0  0  0  0  0
  137.9360  159.0280  131.2760 O   0  0  0  0  0  0  0  0  0  0  0  0
  140.1890  159.0220  130.8680 O   0  0  0  0  0  0  0  0  0  0  0  0
  143.0190  157.2330  133.2500 C   0  0  0  0  0  0  0  0  0  0  0  0
  144.2110  157.9470  133.4020 C   0  0  0  0  0  0  0  0  0  0  0  0
  145.4710  157.4660  133.4300 N   0  0  0  0  0  0  0  0  0  0  0  0
  145.8520  156.0890  133.2690 C   0  0  0  0  0  0  0  0  0  0  0  0
  146.4830  155.7400  132.2350 O   0  0  0  0  0  0  0  0  0  0  0  0
  145.6540  155.1120  134.3950 C   0  0  0  0  0  0  0  0  0  0  0  0
  147.2330  154.6190  135.1630 P   0  0  0  0  0  0  0  0  0  0  0  0
  148.1890  154.1370  134.0960 O   0  0  0  0  0  0  0  0  0  0  0  0
  147.9080  155.9520  135.9520 O   0  0  0  0  0  0  0  0  0  0  0  0
  146.9740  153.3790  136.2830 O   0  0  0  0  0  0  0  0  0  0  0  0
  147.9300  156.3550  133.7980 H   0  0  0  0  0  0  0  0  0  0  0  0
  149.4870  157.2460  133.8610 H   0  0  0  0  0  0  0  0  0  0  0  0
  145.8917  160.7532  133.7248 H   0  0  0  0  0  0  0  0  0  0  0  0
  143.0598  161.1512  133.6130 H   0  0  0  0  0  0  0  0  0  0  0  0
  140.8743  159.9224  133.3808 H   0  0  0  0  0  0  0  0  0  0  0  0
  140.5077  156.6333  132.1710 H   0  0  0  0  0  0  0  0  0  0  0  0
  140.3789  156.5664  133.9800 H   0  0  0  0  0  0  0  0  0  0  0  0
  139.5048  159.0150  133.7545 H   0  0  0  0  0  0  0  0  0  0  0  0
  137.2690  157.8570  132.9590 H   0  0  0  0  0  0  0  0  0  0  0  0
  138.1690  156.4650  133.2730 H   0  0  0  0  0  0  0  0  0  0  0  0
  143.0265  156.1381  133.1448 H   0  0  0  0  0  0  0  0  0  0  0  0
  145.0175  155.5785  135.1613 H   0  0  0  0  0  0  0  0  0  0  0  0
  145.1831  154.2086  133.9801 H   0  0  0  0  0  0  0  0  0  0  0  0
  1  2  1  0
  2  3  2  0
  2  4  1  0
  4  5  2  0
  5  6  1  0
  6  7  2  0
  7  8  1  0
  8  9  2  0
  9 10  1  0
 10 11  1  0
 11 12  1  0
 11 13  1  0
 13 14  2  0
 13 15  1  0
  9 16  1  0
 16 17  2  0
 17 18  1  0
 18 19  1  0
 19 20  2  0
 19 21  1  0
 21 22  1  0
 22 23  2  0
 22 24  1  0
 22 25  1  0
 18  4  1  0
 17  6  1  0
  1 26  1  0
  1 27  1  0
  5 28  1  0
  7 29  1  0
  8 30  1  0
 10 31  1  0
 10 32  1  0
 11 33  1  1
 12 34  1  0
 12 35  1  0
 16 36  1  0
 21 37  1  0
 21 38  1  0
M  CHG  3  15  -1  24  -1  25  -1
M  END
>  <UniqueID>  (89) 
87

>  <SMILES>  (89) 
NC(=O)c1cc2ccc(C[C@H](N)C(=O)[O-])cc2n1C(=O)CP(=O)([O-])[O-]

>  <Energy>  (89) 
71.64364090651335

>  <Genealogy>  (89) 
NC(=O)c1cc2ccc(C[C@H](N)C(=O)[O-])cc2n1C(=O)CP(=O)([O-])[O-] (protonated)
NC(=O)c1cc2ccc(C[C@H](N)C(=O)[O-])cc2n1C(=O)CP(=O)([O-])[O-] (3D coordinates assigned)
NC(=O)c1cc2ccc(C[C@H](N)C(=O)[O-])cc2n1C(=O)CP(=O)([O-])[O-] (optimized conformer: 71.64364090651335 kcal/mol)

>  <smiles>  (89) 
NC(=O)c1cc2ccc(C[C@H](N)C(=O)O)cc2n1C(=O)CP(=O)(O)O

>  <score_type>  (89) 
oracle

>  <origin>  (89) 
adg

>  <m_score__min__energy>  (89) 
-7.6900000000000004

>  <m_primary>  (89) 
energy

$$$$
89:0
     RDKit          3D

 40 42  0  0  0  0  0  0  0  0999 V2000
  146.9190  155.9750  131.9350 N   0  0  0  0  0  0  0  0  0  0  0  0
  147.7180  156.8370  132.7410 C   0  0  0  0  0  0  0  0  0  0  0  0
  148.7230  156.3700  133.3400 O   0  0  0  0  0  0  0  0  0  0  0  0
  147.3710  158.2250  132.8820 N   0  0  0  0  0  0  0  0  0  0  0  0
  148.1200  159.3080  132.5310 C   0  0  0  0  0  0  0  0  0  0  0  0
  149.5320  159.2800  132.0960 C   0  0  0  0  0  0  0  0  0  0  0  0
  150.3250  158.1000  132.2360 N   0  0  0  0  0  0  0  0  0  0  0  0
  150.0620  160.3300  131.6470 O   0  0  0  0  0  0  0  0  0  0  0  0
  147.3930  160.4840  132.6900 C   0  0  0  0  0  0  0  0  0  0  0  0
  146.1640  160.0880  133.1660 C   0  0  0  0  0  0  0  0  0  0  0  0
  145.0440  160.8480  133.4880 C   0  0  0  0  0  0  0  0  0  0  0  0
  143.8910  160.1730  133.9220 C   0  0  0  0  0  0  0  0  0  0  0  0
  143.8710  158.7580  134.0160 C   0  0  0  0  0  0  0  0  0  0  0  0
  142.6140  158.0500  134.4870 C   0  0  1  0  0  0  0  0  0  0  0  0
  142.1020  158.5730  135.8300 C   0  0  0  0  0  0  0  0  0  0  0  0
  140.6970  159.0930  135.5600 C   0  0  0  0  0  0  0  0  0  0  0  0
  140.2440  158.5430  134.2760 N   0  0  0  0  0  0  0  0  0  0  0  0
  139.3040  157.4050  134.4200 C   0  0  0  0  0  0  0  0  0  0  0  0
  139.7940  156.1290  133.7900 C   0  0  0  0  0  0  0  0  0  0  0  0
  140.6930  155.4480  134.3500 O   0  0  0  0  0  0  0  0  0  0  0  0
  139.2470  155.6870  132.5910 O   0  0  0  0  0  0  0  0  0  0  0  0
  141.4500  158.2140  133.5030 C   0  0  0  0  0  0  0  0  0  0  0  0
  145.0360  158.0210  133.6850 C   0  0  0  0  0  0  0  0  0  0  0  0
  146.1750  158.7210  133.2720 C   0  0  0  0  0  0  0  0  0  0  0  0
  146.7080  156.2110  130.9400 H   0  0  0  0  0  0  0  0  0  0  0  0
  151.3090  158.0870  131.8860 H   0  0  0  0  0  0  0  0  0  0  0  0
  149.9750  157.2750  132.7710 H   0  0  0  0  0  0  0  0  0  0  0  0
  147.7288  161.5102  132.4801 H   0  0  0  0  0  0  0  0  0  0  0  0
  145.0609  161.9448  133.4052 H   0  0  0  0  0  0  0  0  0  0  0  0
  142.9933  160.7485  134.1920 H   0  0  0  0  0  0  0  0  0  0  0  0
  142.9198  156.9968  134.5723 H   0  0  0  0  0  0  0  0  0  0  0  0
  142.0748  157.7618  136.5725 H   0  0  0  0  0  0  0  0  0  0  0  0
  142.7554  159.3595  136.2356 H   0  0  0  0  0  0  0  0  0  0  0  0
  140.0192  158.7695  136.3637 H   0  0  0  0  0  0  0  0  0  0  0  0
  140.6989  160.1924  135.5234 H   0  0  0  0  0  0  0  0  0  0  0  0
  139.1422  157.2224  135.4926 H   0  0  0  0  0  0  0  0  0  0  0  0
  138.3783  157.6859  133.8965 H   0  0  0  0  0  0  0  0  0  0  0  0
  141.2942  157.2762  132.9496 H   0  0  0  0  0  0  0  0  0  0  0  0
  141.6705  159.0136  132.7805 H   0  0  0  0  0  0  0  0  0  0  0  0
  145.0443  156.9230  133.7514 H   0  0  0  0  0  0  0  0  0  0  0  0
  1  2  1  0
  2  3  2  0
  2  4  1  0
  4  5  1  0
  5  6  1  0
  6  7  1  0
  6  8  2  0
  5  9  2  0
  9 10  1  0
 10 11  2  0
 11 12  1  0
 12 13  2  0
 13 14  1  0
 14 15  1  0
 15 16  1  0
 16 17  1  0
 17 18  1  0
 18 19  1  0
 19 20  2  0
 19 21  1  0
 17 22  1  0
 13 23  1  0
 23 24  2  0
 24  4  1  0
 24 10  1  0
 22 14  1  0
  1 25  1  0
  7 26  1  0
  7 27  1  0
  9 28  1  0
 11 29  1  0
 12 30  1  0
 14 31  1  1
 15 32  1  0
 15 33  1  0
 16 34  1  0
 16 35  1  0
 18 36  1  0
 18 37  1  0
 22 38  1  0
 22 39  1  0
 23 40  1  0
M  CHG  2   1  -1  21  -1
M  END
>  <UniqueID>  (90) 
88

>  <SMILES>  (90) 
[NH-]C(=O)n1c(C(N)=O)cc2ccc([C@H]3CCN(CC(=O)[O-])C3)cc21

>  <Energy>  (90) 
88.13334556005675

>  <Genealogy>  (90) 
[NH-]C(=O)n1c(C(N)=O)cc2ccc([C@H]3CCN(CC(=O)[O-])C3)cc21 (protonated)
[NH-]C(=O)n1c(C(N)=O)cc2ccc([C@H]3CCN(CC(=O)[O-])C3)cc21 (3D coordinates assigned)
[NH-]C(=O)n1c(C(N)=O)cc2ccc([C@H]3CCN(CC(=O)[O-])C3)cc21 (nonaromatic ring conformer: 88.13334556005675 kcal/mol)

>  <smiles>  (90) 
NC(=O)c1cc2ccc([C@H]3CCN(CC(=O)O)C3)cc2n1C(N)=O

>  <score_type>  (90) 
oracle

>  <origin>  (90) 
adg

>  <m_score__min__energy>  (90) 
-7.9500000000000002

>  <m_primary>  (90) 
energy

$$$$
90:0
     RDKit          3D

 34 35  0  0  0  0  0  0  0  0999 V2000
  147.8690  151.0520  131.9180 C   0  0  0  0  0  0  0  0  0  0  0  0
  148.9760  152.0060  132.3600 C   0  0  0  0  0  0  0  0  0  0  0  0
  149.9510  151.2960  133.3030 C   0  0  0  0  0  0  0  0  0  0  0  0
  148.3840  153.1260  133.0180 O   0  0  0  0  0  0  0  0  0  0  0  0
  148.8710  154.4340  132.9150 C   0  0  0  0  0  0  0  0  0  0  0  0
  149.9730  154.6600  132.3430 O   0  0  0  0  0  0  0  0  0  0  0  0
  148.1200  155.5170  133.4820 N   0  0  0  0  0  0  0  0  0  0  0  0
  147.1120  155.4510  134.4000 C   0  0  0  0  0  0  0  0  0  0  0  0
  146.6670  154.2380  135.1150 C   0  0  0  0  0  0  0  0  0  0  0  0
  147.6310  153.3640  135.7000 N   0  0  0  0  0  0  0  0  0  0  0  0
  145.4450  153.9410  135.1850 O   0  0  0  0  0  0  0  0  0  0  0  0
  146.5950  156.7210  134.6480 C   0  0  0  0  0  0  0  0  0  0  0  0
  147.3250  157.5740  133.8530 C   0  0  0  0  0  0  0  0  0  0  0  0
  147.2260  158.9540  133.6930 C   0  0  0  0  0  0  0  0  0  0  0  0
  148.0930  159.5750  132.7790 C   0  0  0  0  0  0  0  0  0  0  0  0
  149.0330  158.8120  132.0430 C   0  0  0  0  0  0  0  0  0  0  0  0
  149.9400  159.4940  131.0580 C   0  0  0  0  0  0  0  0  0  0  0  0
  149.4870  159.2630  129.7720 F   0  0  0  0  0  0  0  0  0  0  0  0
  149.9530  160.8550  131.3000 F   0  0  0  0  0  0  0  0  0  0  0  0
  149.1030  157.4140  132.2300 C   0  0  0  0  0  0  0  0  0  0  0  0
  148.2390  156.8240  133.1600 C   0  0  0  0  0  0  0  0  0  0  0  0
  147.3757  150.6269  132.8045 H   0  0  0  0  0  0  0  0  0  0  0  0
  147.1305  151.6012  131.3155 H   0  0  0  0  0  0  0  0  0  0  0  0
  148.3032  150.2405  131.3155 H   0  0  0  0  0  0  0  0  0  0  0  0
  149.5391  152.3464  131.4785 H   0  0  0  0  0  0  0  0  0  0  0  0
  149.6681  151.5020  134.3459 H   0  0  0  0  0  0  0  0  0  0  0  0
  149.9140  150.2119  133.1203 H   0  0  0  0  0  0  0  0  0  0  0  0
  150.9714  151.6640  133.1203 H   0  0  0  0  0  0  0  0  0  0  0  0
  148.1310  152.6530  135.1230 H   0  0  0  0  0  0  0  0  0  0  0  0
  145.7767  156.9854  135.3339 H   0  0  0  0  0  0  0  0  0  0  0  0
  146.4912  159.5397  134.2650 H   0  0  0  0  0  0  0  0  0  0  0  0
  148.0417  160.6641  132.6332 H   0  0  0  0  0  0  0  0  0  0  0  0
  150.9582  159.0924  131.1678 H   0  0  0  0  0  0  0  0  0  0  0  0
  149.8185  156.8040  131.6591 H   0  0  0  0  0  0  0  0  0  0  0  0
  1  2  1  0
  2  3  1  0
  2  4  1  0
  4  5  1  0
  5  6  2  0
  5  7  1  0
  7  8  1  0
  8  9  1  0
  9 10  1  0
  9 11  2  0
  8 12  2  0
 12 13  1  0
 13 14  2  0
 14 15  1  0
 15 16  2  0
 16 17  1  0
 17 18  1  0
 17 19  1  0
 16 20  1  0
 20 21  2  0
 21  7  1  0
 21 13  1  0
  1 22  1  0
  1 23  1  0
  1 24  1  0
  2 25  1  0
  3 26  1  0
  3 27  1  0
  3 28  1  0
 10 29  1  0
 12 30  1  0
 14 31  1  0
 15 32  1  0
 17 33  1  0
 20 34  1  0
M  CHG  1  10  -1
M  END
>  <UniqueID>  (91) 
89

>  <SMILES>  (91) 
CC(C)OC(=O)n1c(C([NH-])=O)cc2ccc(C(F)F)cc21

>  <Energy>  (91) 
66.18857659211157

>  <Genealogy>  (91) 
CC(C)OC(=O)n1c(C([NH-])=O)cc2ccc(C(F)F)cc21 (protonated)
CC(C)OC(=O)n1c(C([NH-])=O)cc2ccc(C(F)F)cc21 (3D coordinates assigned)
CC(C)OC(=O)n1c(C([NH-])=O)cc2ccc(C(F)F)cc21 (optimized conformer: 66.18857659211157 kcal/mol)

>  <smiles>  (91) 
CC(C)OC(=O)n1c(C(N)=O)cc2ccc(C(F)F)cc21

>  <score_type>  (91) 
oracle

>  <origin>  (91) 
adg

>  <m_score__min__energy>  (91) 
-6.0199999999999996

>  <m_primary>  (91) 
energy

$$$$
91:0
     RDKit          3D

 48 50  0  0  0  0  0  0  0  0999 V2000
  140.8570  151.6290  132.6300 C   0  0  0  0  0  0  0  0  0  0  0  0
  142.0120  152.0000  133.5540 C   0  0  0  0  0  0  0  0  0  0  0  0
  141.9660  153.3860  133.8820 O   0  0  0  0  0  0  0  0  0  0  0  0
  143.1080  154.1750  134.0590 C   0  0  0  0  0  0  0  0  0  0  0  0
  143.6800  154.2410  135.1820 O   0  0  0  0  0  0  0  0  0  0  0  0
  143.6240  154.9850  132.9150 C   0  0  0  0  0  0  0  0  0  0  0  0
  143.4560  156.4480  133.2100 C   0  0  0  0  0  0  0  0  0  0  0  0
  142.1800  156.9600  133.5570 C   0  0  0  0  0  0  0  0  0  0  0  0
  142.0180  158.3160  133.8840 C   0  0  0  0  0  0  0  0  0  0  0  0
  143.1460  159.1330  133.8570 C   0  0  0  0  0  0  0  0  0  0  0  0
  143.2750  160.4690  134.1560 C   0  0  0  0  0  0  0  0  0  0  0  0
  144.6270  160.7580  133.9790 C   0  0  0  0  0  0  0  0  0  0  0  0
  145.2030  162.1150  134.1060 C   0  0  0  0  0  0  0  0  0  0  0  0
  146.6090  162.2980  134.2790 N   0  0  0  0  0  0  0  0  0  0  0  0
  144.4510  163.1240  134.0970 O   0  0  0  0  0  0  0  0  0  0  0  0
  145.3070  159.6430  133.5880 N   0  0  0  0  0  0  0  0  0  0  0  0
  146.7250  159.5160  133.3850 C   0  0  0  0  0  0  0  0  0  0  0  0
  147.3930  158.7090  134.0880 O   0  0  0  0  0  0  0  0  0  0  0  0
  147.3600  160.3040  132.4200 O   0  0  0  0  0  0  0  0  0  0  0  0
  148.7730  160.3140  132.2170 C   0  0  0  0  0  0  0  0  0  0  0  0
  149.2640  158.9400  131.7660 C   0  0  0  0  0  0  0  0  0  0  0  0
  149.2420  158.9500  130.2410 C   0  0  0  0  0  0  0  0  0  0  0  0
  148.9750  160.3890  129.8090 C   0  0  0  0  0  0  0  0  0  0  0  0
  149.1060  161.2410  131.0600 C   0  0  0  0  0  0  0  0  0  0  0  0
  144.3860  158.6560  133.5170 C   0  0  0  0  0  0  0  0  0  0  0  0
  144.5790  157.3050  133.2060 C   0  0  0  0  0  0  0  0  0  0  0  0
  139.9810  151.3476  133.2329 H   0  0  0  0  0  0  0  0  0  0  0  0
  140.6037  152.4910  131.9953 H   0  0  0  0  0  0  0  0  0  0  0  0
  141.1531  150.7808  131.9953 H   0  0  0  0  0  0  0  0  0  0  0  0
  141.9407  151.4072  134.4779 H   0  0  0  0  0  0  0  0  0  0  0  0
  142.9606  151.7886  133.0387 H   0  0  0  0  0  0  0  0  0  0  0  0
  144.6906  154.7635  132.7626 H   0  0  0  0  0  0  0  0  0  0  0  0
  143.0588  154.7308  132.0062 H   0  0  0  0  0  0  0  0  0  0  0  0
  141.3088  156.2886  133.5702 H   0  0  0  0  0  0  0  0  0  0  0  0
  141.0311  158.7205  134.1531 H   0  0  0  0  0  0  0  0  0  0  0  0
  142.4802  161.1623  134.4685 H   0  0  0  0  0  0  0  0  0  0  0  0
  147.0010  163.2560  134.4060 H   0  0  0  0  0  0  0  0  0  0  0  0
  147.2690  161.4890  134.2440 H   0  0  0  0  0  0  0  0  0  0  0  0
  149.2386  160.6215  133.1650 H   0  0  0  0  0  0  0  0  0  0  0  0
  150.2870  158.7640  132.1299 H   0  0  0  0  0  0  0  0  0  0  0  0
  148.6261  158.1387  132.1673 H   0  0  0  0  0  0  0  0  0  0  0  0
  150.2113  158.6107  129.8468 H   0  0  0  0  0  0  0  0  0  0  0  0
  148.4655  158.2733  129.8548 H   0  0  0  0  0  0  0  0  0  0  0  0
  149.7119  160.7033  129.0552 H   0  0  0  0  0  0  0  0  0  0  0  0
  147.9772  160.4923  129.3576 H   0  0  0  0  0  0  0  0  0  0  0  0
  150.1320  161.6254  131.1580 H   0  0  0  0  0  0  0  0  0  0  0  0
  148.4386  162.1149  131.0312 H   0  0  0  0  0  0  0  0  0  0  0  0
  145.5807  156.9200  132.9644 H   0  0  0  0  0  0  0  0  0  0  0  0
  1  2  1  0
  2  3  1  0
  3  4  1  0
  4  5  2  0
  4  6  1  0
  6  7  1  0
  7  8  2  0
  8  9  1  0
  9 10  2  0
 10 11  1  0
 11 12  2  0
 12 13  1  0
 13 14  1  0
 13 15  2  0
 12 16  1  0
 16 17  1  0
 17 18  2  0
 17 19  1  0
 19 20  1  0
 20 21  1  0
 21 22  1  0
 22 23  1  0
 23 24  1  0
 16 25  1  0
 25 26  2  0
 26  7  1  0
 25 10  1  0
 24 20  1  0
  1 27  1  0
  1 28  1  0
  1 29  1  0
  2 30  1  0
  2 31  1  0
  6 32  1  0
  6 33  1  0
  8 34  1  0
  9 35  1  0
 11 36  1  0
 14 37  1  0
 14 38  1  0
 20 39  1  0
 21 40  1  0
 21 41  1  0
 22 42  1  0
 22 43  1  0
 23 44  1  0
 23 45  1  0
 24 46  1  0
 24 47  1  0
 26 48  1  0
M  END
>  <UniqueID>  (92) 
90

>  <SMILES>  (92) 
CCOC(=O)Cc1ccc2cc(C(N)=O)n(C(=O)OC3CCCC3)c2c1

>  <Energy>  (92) 
78.653780247161

>  <Genealogy>  (92) 
CCOC(=O)Cc1ccc2cc(C(N)=O)n(C(=O)OC3CCCC3)c2c1 (3D coordinates assigned)
CCOC(=O)Cc1ccc2cc(C(N)=O)n(C(=O)OC3CCCC3)c2c1 (nonaromatic ring conformer: 78.653780247161 kcal/mol)

>  <smiles>  (92) 
CCOC(=O)Cc1ccc2cc(C(N)=O)n(C(=O)OC3CCCC3)c2c1

>  <score_type>  (92) 
oracle

>  <origin>  (92) 
adg

>  <m_score__min__energy>  (92) 
-8.0199999999999996

>  <m_primary>  (92) 
energy

$$$$
92:0
     RDKit          3D

 38 39  0  0  0  0  0  0  0  0999 V2000
  144.4420  163.2420  134.0590 C   0  0  0  0  0  0  0  0  0  0  0  0
  144.5660  161.7540  133.9160 C   0  0  0  0  0  0  0  0  0  0  0  0
  143.4070  160.9600  133.7380 C   0  0  0  0  0  0  0  0  0  0  0  0
  143.5120  159.5710  133.5510 C   0  0  0  0  0  0  0  0  0  0  0  0
  144.7860  159.0100  133.5450 C   0  0  0  0  0  0  0  0  0  0  0  0
  145.1740  157.7040  133.3470 C   0  0  0  0  0  0  0  0  0  0  0  0
  146.5650  157.7200  133.4210 C   0  0  0  0  0  0  0  0  0  0  0  0
  147.3980  156.5060  133.3240 C   0  0  0  0  0  0  0  0  0  0  0  0
  148.8200  156.5710  133.4410 N   0  0  0  0  0  0  0  0  0  0  0  0
  146.8420  155.3840  133.1870 O   0  0  0  0  0  0  0  0  0  0  0  0
  147.0210  158.9850  133.6430 N   0  0  0  0  0  0  0  0  0  0  0  0
  148.3850  159.4310  133.6740 C   0  0  0  0  0  0  0  0  0  0  0  0
  149.1530  159.0290  134.5880 O   0  0  0  0  0  0  0  0  0  0  0  0
  148.8450  160.3110  132.6820 O   0  0  0  0  0  0  0  0  0  0  0  0
  148.8240  160.0850  131.2660 C   0  0  0  0  0  0  0  0  0  0  0  0
  147.4550  160.4720  130.6760 C   0  0  0  0  0  0  0  0  0  0  0  0
  149.0520  158.5810  131.0450 C   0  0  0  0  0  0  0  0  0  0  0  0
  149.9570  160.8660  130.5750 C   0  0  0  0  0  0  0  0  0  0  0  0
  145.9180  159.7640  133.7200 C   0  0  0  0  0  0  0  0  0  0  0  0
  145.8430  161.1530  133.8850 C   0  0  0  0  0  0  0  0  0  0  0  0
  144.4199  163.5072  135.1263 H   0  0  0  0  0  0  0  0  0  0  0  0
  145.3026  163.7296  133.5778 H   0  0  0  0  0  0  0  0  0  0  0  0
  143.5125  163.5804  133.5778 H   0  0  0  0  0  0  0  0  0  0  0  0
  142.4149  161.4350  133.7462 H   0  0  0  0  0  0  0  0  0  0  0  0
  142.6164  158.9473  133.4138 H   0  0  0  0  0  0  0  0  0  0  0  0
  144.5247  156.8342  133.1686 H   0  0  0  0  0  0  0  0  0  0  0  0
  149.2990  157.4540  133.7270 H   0  0  0  0  0  0  0  0  0  0  0  0
  149.3960  155.7080  133.3270 H   0  0  0  0  0  0  0  0  0  0  0  0
  146.7468  160.6722  131.4935 H   0  0  0  0  0  0  0  0  0  0  0  0
  147.5646  161.3744  130.0565 H   0  0  0  0  0  0  0  0  0  0  0  0
  147.0759  159.6458  130.0565 H   0  0  0  0  0  0  0  0  0  0  0  0
  149.1287  158.0748  132.0186 H   0  0  0  0  0  0  0  0  0  0  0  0
  148.2072  158.1613  130.4791 H   0  0  0  0  0  0  0  0  0  0  0  0
  149.9832  158.4306  130.4791 H   0  0  0  0  0  0  0  0  0  0  0  0
  150.6100  161.3161  131.3373 H   0  0  0  0  0  0  0  0  0  0  0  0
  150.5449  160.1804  129.9471 H   0  0  0  0  0  0  0  0  0  0  0  0
  149.5255  161.6594  129.9471 H   0  0  0  0  0  0  0  0  0  0  0  0
  146.7550  161.7594  133.9877 H   0  0  0  0  0  0  0  0  0  0  0  0
  1  2  1  0
  2  3  2  0
  3  4  1  0
  4  5  2  0
  5  6  1  0
  6  7  2  0
  7  8  1  0
  8  9  1  0
  8 10  2  0
  7 11  1  0
 11 12  1  0
 12 13  2  0
 12 14  1  0
 14 15  1  0
 15 16  1  0
 15 17  1  0
 15 18  1  0
 11 19  1  0
 19 20  2  0
 20  2  1  0
 19  5  1  0
  1 21  1  0
  1 22  1  0
  1 23  1  0
  3 24  1  0
  4 25  1  0
  6 26  1  0
  9 27  1  0
  9 28  1  0
 16 29  1  0
 16 30  1  0
 16 31  1  0
 17 32  1  0
 17 33  1  0
 17 34  1  0
 18 35  1  0
 18 36  1  0
 18 37  1  0
 20 38  1  0
M  END
>  <UniqueID>  (93) 
91

>  <SMILES>  (93) 
Cc1ccc2cc(C(N)=O)n(C(=O)OC(C)(C)C)c2c1

>  <Energy>  (93) 
71.47726180832622

>  <Genealogy>  (93) 
Cc1ccc2cc(C(N)=O)n(C(=O)OC(C)(C)C)c2c1 (3D coordinates assigned)
Cc1ccc2cc(C(N)=O)n(C(=O)OC(C)(C)C)c2c1 (optimized conformer: 71.47726180832622 kcal/mol)

>  <smiles>  (93) 
Cc1ccc2cc(C(N)=O)n(C(=O)OC(C)(C)C)c2c1

>  <score_type>  (93) 
oracle

>  <origin>  (93) 
adg

>  <m_score__min__energy>  (93) 
-6.8700000000000001

>  <m_primary>  (93) 
energy

$$$$
93:0
     RDKit          3D

 38 40  0  0  0  0  0  0  0  0999 V2000
  147.6950  154.8270  134.3210 C   0  0  0  0  0  0  0  0  0  0  0  0
  146.9890  156.0530  134.1800 O   0  0  0  0  0  0  0  0  0  0  0  0
  146.9870  156.7890  132.9910 C   0  0  0  0  0  0  0  0  0  0  0  0
  147.2040  156.2150  131.8880 O   0  0  0  0  0  0  0  0  0  0  0  0
  146.7140  158.1990  133.0240 N   0  0  0  0  0  0  0  0  0  0  0  0
  147.5910  159.2210  132.8150 C   0  0  0  0  0  0  0  0  0  0  0  0
  148.9820  159.0880  132.3350 C   0  0  0  0  0  0  0  0  0  0  0  0
  149.5660  157.8050  132.1250 N   0  0  0  0  0  0  0  0  0  0  0  0
  149.6470  160.1210  132.0570 O   0  0  0  0  0  0  0  0  0  0  0  0
  146.9720  160.4480  133.0400 C   0  0  0  0  0  0  0  0  0  0  0  0
  145.6760  160.1460  133.3860 C   0  0  0  0  0  0  0  0  0  0  0  0
  144.6220  160.9850  133.7320 C   0  0  0  0  0  0  0  0  0  0  0  0
  143.3960  160.3960  134.0800 C   0  0  0  0  0  0  0  0  0  0  0  0
  143.2430  158.9860  134.0800 C   0  0  0  0  0  0  0  0  0  0  0  0
  141.9890  158.3870  134.4590 N   0  0  0  0  0  0  0  0  0  0  0  0
  140.9290  158.2140  133.4590 C   0  0  0  0  0  0  0  0  0  0  0  0
  139.6080  157.8570  134.1430 C   0  0  0  0  0  0  0  0  0  0  0  0
  139.4880  158.5910  135.3420 O   0  0  0  0  0  0  0  0  0  0  0  0
  140.3700  158.0720  136.3240 C   0  0  0  0  0  0  0  0  0  0  0  0
  141.8070  157.8280  135.8050 C   0  0  0  0  0  0  0  0  0  0  0  0
  144.3400  158.1660  133.7300 C   0  0  0  0  0  0  0  0  0  0  0  0
  145.5450  158.7820  133.3690 C   0  0  0  0  0  0  0  0  0  0  0  0
  147.8258  154.6000  135.3893 H   0  0  0  0  0  0  0  0  0  0  0  0
  147.1244  154.0180  133.8414 H   0  0  0  0  0  0  0  0  0  0  0  0
  148.6811  154.9145  133.8414 H   0  0  0  0  0  0  0  0  0  0  0  0
  149.1240  157.1120  131.4820 H   0  0  0  0  0  0  0  0  0  0  0  0
  147.4242  161.4474  132.9582 H   0  0  0  0  0  0  0  0  0  0  0  0
  144.7454  162.0781  133.7329 H   0  0  0  0  0  0  0  0  0  0  0  0
  142.5444  161.0353  134.3558 H   0  0  0  0  0  0  0  0  0  0  0  0
  140.8047  159.1508  132.8960 H   0  0  0  0  0  0  0  0  0  0  0  0
  141.2105  157.3989  132.7761 H   0  0  0  0  0  0  0  0  0  0  0  0
  138.7700  158.1054  133.4751 H   0  0  0  0  0  0  0  0  0  0  0  0
  139.5897  156.7804  134.3678 H   0  0  0  0  0  0  0  0  0  0  0  0
  140.4192  158.7868  137.1587 H   0  0  0  0  0  0  0  0  0  0  0  0
  139.9693  157.0945  136.6305 H   0  0  0  0  0  0  0  0  0  0  0  0
  142.5220  158.3054  136.4912 H   0  0  0  0  0  0  0  0  0  0  0  0
  141.9799  156.7427  135.7571 H   0  0  0  0  0  0  0  0  0  0  0  0
  144.2494  157.0698  133.7409 H   0  0  0  0  0  0  0  0  0  0  0  0
  1  2  1  0
  2  3  1  0
  3  4  2  0
  3  5  1  0
  5  6  1  0
  6  7  1  0
  7  8  1  0
  7  9  2  0
  6 10  2  0
 10 11  1  0
 11 12  2  0
 12 13  1  0
 13 14  2  0
 14 15  1  0
 15 16  1  0
 16 17  1  0
 17 18  1  0
 18 19  1  0
 19 20  1  0
 14 21  1  0
 21 22  2  0
 22  5  1  0
 22 11  1  0
 20 15  1  0
  1 23  1  0
  1 24  1  0
  1 25  1  0
  8 26  1  0
 10 27  1  0
 12 28  1  0
 13 29  1  0
 16 30  1  0
 16 31  1  0
 17 32  1  0
 17 33  1  0
 19 34  1  0
 19 35  1  0
 20 36  1  0
 20 37  1  0
 21 38  1  0
M  CHG  1   8  -1
M  END
>  <UniqueID>  (94) 
92

>  <SMILES>  (94) 
COC(=O)n1c(C([NH-])=O)cc2ccc(N3CCOCC3)cc21

>  <Energy>  (94) 
87.2736716371748

>  <Genealogy>  (94) 
COC(=O)n1c(C([NH-])=O)cc2ccc(N3CCOCC3)cc21 (protonated)
COC(=O)n1c(C([NH-])=O)cc2ccc(N3CCOCC3)cc21 (3D coordinates assigned)
COC(=O)n1c(C([NH-])=O)cc2ccc(N3CCOCC3)cc21 (nonaromatic ring conformer: 87.2736716371748 kcal/mol)

>  <smiles>  (94) 
COC(=O)n1c(C(N)=O)cc2ccc(N3CCOCC3)cc21

>  <score_type>  (94) 
oracle

>  <origin>  (94) 
adg

>  <m_score__min__energy>  (94) 
-6.3499999999999996

>  <m_primary>  (94) 
energy

$$$$
94:0
     RDKit          3D

 35 37  0  0  0  0  0  0  0  0999 V2000
  145.7840  155.9210  132.5960 N   0  0  0  0  0  0  0  0  0  0  0  0
  146.8010  156.6940  133.2280 C   0  0  0  0  0  0  0  0  0  0  0  0
  147.7890  156.1110  133.7500 O   0  0  0  0  0  0  0  0  0  0  0  0
  146.6950  158.1280  133.2830 N   0  0  0  0  0  0  0  0  0  0  0  0
  147.6140  159.0440  132.8630 C   0  0  0  0  0  0  0  0  0  0  0  0
  148.9930  158.7480  132.4270 C   0  0  0  0  0  0  0  0  0  0  0  0
  149.3370  157.4790  131.8700 N   0  0  0  0  0  0  0  0  0  0  0  0
  149.8940  159.6110  132.5990 O   0  0  0  0  0  0  0  0  0  0  0  0
  147.1000  160.3330  132.9510 C   0  0  0  0  0  0  0  0  0  0  0  0
  145.8290  160.1840  133.4570 C   0  0  0  0  0  0  0  0  0  0  0  0
  144.8600  161.1420  133.7340 C   0  0  0  0  0  0  0  0  0  0  0  0
  143.6160  160.7020  134.2170 C   0  0  0  0  0  0  0  0  0  0  0  0
  143.3610  159.3190  134.4080 C   0  0  0  0  0  0  0  0  0  0  0  0
  142.0380  158.8620  134.8970 C   0  0  0  0  0  0  0  0  0  0  0  0
  141.7340  158.9490  136.2650 C   0  0  0  0  0  0  0  0  0  0  0  0
  140.4970  158.5170  136.7430 C   0  0  0  0  0  0  0  0  0  0  0  0
  139.5480  157.9960  135.8640 C   0  0  0  0  0  0  0  0  0  0  0  0
  139.8210  157.9030  134.4880 C   0  0  0  0  0  0  0  0  0  0  0  0
  138.7900  157.3510  133.5740 C   0  0  0  0  0  0  0  0  0  0  0  0
  137.9490  158.1050  133.0160 O   0  0  0  0  0  0  0  0  0  0  0  0
  138.7380  155.9860  133.3180 O   0  0  0  0  0  0  0  0  0  0  0  0
  141.0750  158.3420  134.0080 C   0  0  0  0  0  0  0  0  0  0  0  0
  141.3500  158.3030  132.6780 F   0  0  0  0  0  0  0  0  0  0  0  0
  144.3700  158.3750  134.1070 C   0  0  0  0  0  0  0  0  0  0  0  0
  145.6070  158.8440  133.6470 C   0  0  0  0  0  0  0  0  0  0  0  0
  145.6970  155.8980  131.5560 H   0  0  0  0  0  0  0  0  0  0  0  0
  150.3100  157.3010  131.5340 H   0  0  0  0  0  0  0  0  0  0  0  0
  148.6550  156.6900  131.8650 H   0  0  0  0  0  0  0  0  0  0  0  0
  147.6024  161.2718  132.6749 H   0  0  0  0  0  0  0  0  0  0  0  0
  145.0613  162.2124  133.5796 H   0  0  0  0  0  0  0  0  0  0  0  0
  142.8315  161.4372  134.4495 H   0  0  0  0  0  0  0  0  0  0  0  0
  142.4765  159.3607  136.9645 H   0  0  0  0  0  0  0  0  0  0  0  0
  140.2692  158.5875  137.8168 H   0  0  0  0  0  0  0  0  0  0  0  0
  138.5766  157.6545  136.2509 H   0  0  0  0  0  0  0  0  0  0  0  0
  144.1876  157.2974  134.2312 H   0  0  0  0  0  0  0  0  0  0  0  0
  1  2  1  0
  2  3  2  0
  2  4  1  0
  4  5  1  0
  5  6  1  0
  6  7  1  0
  6  8  2  0
  5  9  2  0
  9 10  1  0
 10 11  2  0
 11 12  1  0
 12 13  2  0
 13 14  1  0
 14 15  2  0
 15 16  1  0
 16 17  2  0
 17 18  1  0
 18 19  1  0
 19 20  2  0
 19 21  1  0
 18 22  2  0
 22 23  1  0
 13 24  1  0
 24 25  2  0
 25  4  1  0
 25 10  1  0
 22 14  1  0
  1 26  1  0
  7 27  1  0
  7 28  1  0
  9 29  1  0
 11 30  1  0
 12 31  1  0
 15 32  1  0
 16 33  1  0
 17 34  1  0
 24 35  1  0
M  CHG  2   1  -1  21  -1
M  END
>  <UniqueID>  (95) 
93

>  <SMILES>  (95) 
[NH-]C(=O)n1c(C(N)=O)cc2ccc(-c3cccc(C(=O)[O-])c3F)cc21

>  <Energy>  (95) 
85.63464957765548

>  <Genealogy>  (95) 
[NH-]C(=O)n1c(C(N)=O)cc2ccc(-c3cccc(C(=O)[O-])c3F)cc21 (protonated)
[NH-]C(=O)n1c(C(N)=O)cc2ccc(-c3cccc(C(=O)[O-])c3F)cc21 (3D coordinates assigned)
[NH-]C(=O)n1c(C(N)=O)cc2ccc(-c3cccc(C(=O)[O-])c3F)cc21 (optimized conformer: 85.63464957765548 kcal/mol)

>  <smiles>  (95) 
NC(=O)c1cc2ccc(-c3cccc(C(=O)O)c3F)cc2n1C(N)=O

>  <score_type>  (95) 
oracle

>  <origin>  (95) 
adg

>  <m_score__min__energy>  (95) 
-8.2100000000000009

>  <m_primary>  (95) 
energy

$$$$
95:0
     RDKit          3D

 45 47  0  0  0  0  0  0  0  0999 V2000
  138.9750  158.1670  133.4030 C   0  0  0  0  0  0  0  0  0  0  0  0
  139.8510  158.6210  132.2230 C   0  0  0  0  0  0  0  0  0  0  0  0
  139.1200  159.6990  131.3960 C   0  0  0  0  0  0  0  0  0  0  0  0
  141.2570  158.9520  132.6370 N   0  0  0  0  0  0  0  0  0  0  0  0
  142.2400  157.8540  132.7130 C   0  0  0  0  0  0  0  0  0  0  0  0
  141.9730  156.9010  133.8670 C   0  0  0  0  0  0  0  0  0  0  0  0
  141.5980  157.5860  135.1180 N   0  0  0  0  0  0  0  0  0  0  0  0
  141.4420  156.7930  136.3330 C   0  0  0  0  0  0  0  0  0  0  0  0
  141.2120  157.4220  137.5940 C   0  0  0  0  0  0  0  0  0  0  0  0
  141.0680  156.6690  138.7700 C   0  0  0  0  0  0  0  0  0  0  0  0
  141.1450  155.2870  138.6760 C   0  0  0  0  0  0  0  0  0  0  0  0
  141.0630  154.3290  139.6590 C   0  0  0  0  0  0  0  0  0  0  0  0
  141.2180  153.1110  139.0010 C   0  0  0  0  0  0  0  0  0  0  0  0
  141.1130  151.8020  139.6780 C   0  0  0  0  0  0  0  0  0  0  0  0
  142.0360  150.7630  139.3580 N   0  0  0  0  0  0  0  0  0  0  0  0
  140.2410  151.5990  140.5630 O   0  0  0  0  0  0  0  0  0  0  0  0
  141.3960  153.3110  137.6630 N   0  0  0  0  0  0  0  0  0  0  0  0
  141.6480  152.3240  136.6500 C   0  0  0  0  0  0  0  0  0  0  0  0
  142.4690  152.5570  135.7240 O   0  0  0  0  0  0  0  0  0  0  0  0
  140.9730  151.1100  136.6710 O   0  0  0  0  0  0  0  0  0  0  0  0
  141.3470  154.6510  137.4820 C   0  0  0  0  0  0  0  0  0  0  0  0
  141.5150  155.3730  136.2960 C   0  0  0  0  0  0  0  0  0  0  0  0
  141.3730  159.0470  135.1850 C   0  0  0  0  0  0  0  0  0  0  0  0
  141.3620  159.8080  133.8350 C   0  0  0  0  0  0  0  0  0  0  0  0
  139.4726  158.4249  134.3495 H   0  0  0  0  0  0  0  0  0  0  0  0
  137.9997  158.6732  133.3517 H   0  0  0  0  0  0  0  0  0  0  0  0
  138.8263  157.0783  133.3517 H   0  0  0  0  0  0  0  0  0  0  0  0
  139.9970  157.7747  131.5357 H   0  0  0  0  0  0  0  0  0  0  0  0
  138.6343  160.4153  132.0750 H   0  0  0  0  0  0  0  0  0  0  0  0
  139.8456  160.2292  130.7617 H   0  0  0  0  0  0  0  0  0  0  0  0
  138.3589  159.2211  130.7617 H   0  0  0  0  0  0  0  0  0  0  0  0
  141.6140  159.5540  131.8530 H   0  0  0  0  0  0  0  0  0  0  0  0
  142.2044  157.2850  131.7723 H   0  0  0  0  0  0  0  0  0  0  0  0
  143.2286  158.3065  132.8800 H   0  0  0  0  0  0  0  0  0  0  0  0
  141.1530  156.2265  133.5795 H   0  0  0  0  0  0  0  0  0  0  0  0
  142.9093  156.3577  134.0625 H   0  0  0  0  0  0  0  0  0  0  0  0
  141.1463  158.5188  137.6450 H   0  0  0  0  0  0  0  0  0  0  0  0
  140.8988  157.1611  139.7391 H   0  0  0  0  0  0  0  0  0  0  0  0
  140.9080  154.4902  140.7360 H   0  0  0  0  0  0  0  0  0  0  0  0
  142.0960  150.3770  138.3890 H   0  0  0  0  0  0  0  0  0  0  0  0
  141.7012  154.8494  135.3467 H   0  0  0  0  0  0  0  0  0  0  0  0
  140.3999  159.2133  135.6702 H   0  0  0  0  0  0  0  0  0  0  0  0
  142.2344  159.4489  135.7385 H   0  0  0  0  0  0  0  0  0  0  0  0
  140.5043  160.4967  133.8385 H   0  0  0  0  0  0  0  0  0  0  0  0
  142.3329  160.3199  133.7628 H   0  0  0  0  0  0  0  0  0  0  0  0
  1  2  1  0
  2  3  1  0
  2  4  1  0
  4  5  1  0
  5  6  1  0
  6  7  1  0
  7  8  1  0
  8  9  2  0
  9 10  1  0
 10 11  2  0
 11 12  1  0
 12 13  2  0
 13 14  1  0
 14 15  1  0
 14 16  2  0
 13 17  1  0
 17 18  1  0
 18 19  2  0
 18 20  1  0
 17 21  1  0
 21 22  2  0
  7 23  1  0
 23 24  1  0
 24  4  1  0
 22  8  1  0
 21 11  1  0
  1 25  1  0
  1 26  1  0
  1 27  1  0
  2 28  1  0
  3 29  1  0
  3 30  1  0
  3 31  1  0
  4 32  1  0
  5 33  1  0
  5 34  1  0
  6 35  1  0
  6 36  1  0
  9 37  1  0
 10 38  1  0
 12 39  1  0
 15 40  1  0
 22 41  1  0
 23 42  1  0
 23 43  1  0
 24 44  1  0
 24 45  1  0
M  CHG  3   4   1  15  -1  20  -1
M  END
>  <UniqueID>  (96) 
94

>  <SMILES>  (96) 
CC(C)[NH+]1CCN(c2ccc3cc(C([NH-])=O)n(C(=O)[O-])c3c2)CC1

>  <Energy>  (96) 
105.86598565851142

>  <Genealogy>  (96) 
CC(C)[NH+]1CCN(c2ccc3cc(C([NH-])=O)n(C(=O)[O-])c3c2)CC1 (protonated)
CC(C)[NH+]1CCN(c2ccc3cc(C([NH-])=O)n(C(=O)[O-])c3c2)CC1 (3D coordinates assigned)
CC(C)[NH+]1CCN(c2ccc3cc(C([NH-])=O)n(C(=O)[O-])c3c2)CC1 (nonaromatic ring conformer: 105.86598565851142 kcal/mol)

>  <smiles>  (96) 
CC(C)N1CCN(c2ccc3cc(C(N)=O)n(C(=O)O)c3c2)CC1

>  <score_type>  (96) 
oracle

>  <origin>  (96) 
adg

>  <m_score__min__energy>  (96) 
-7.04

>  <m_primary>  (96) 
energy

$$$$
96:0
     RDKit          3D

 47 50  0  0  0  0  0  0  0  0999 V2000
  145.6360  161.6020  134.0940 N   0  0  0  0  0  0  0  0  0  0  0  0
  144.2340  161.6250  133.8380 C   0  0  0  0  0  0  0  0  0  0  0  0
  143.6620  162.7270  133.6310 O   0  0  0  0  0  0  0  0  0  0  0  0
  143.4630  160.3640  133.8610 C   0  0  0  0  0  0  0  0  0  0  0  0
  142.0910  160.3100  134.1010 C   0  0  0  0  0  0  0  0  0  0  0  0
  141.7460  158.9870  133.9480 C   0  0  0  0  0  0  0  0  0  0  0  0
  140.5100  158.3650  134.0820 C   0  0  0  0  0  0  0  0  0  0  0  0
  140.4470  156.9740  133.8920 C   0  0  0  0  0  0  0  0  0  0  0  0
  141.6150  156.2300  133.5810 C   0  0  0  0  0  0  0  0  0  0  0  0
  141.5410  154.7590  133.3930 C   0  0  0  0  0  0  0  0  0  0  0  0
  140.3060  154.1290  133.1640 C   0  0  0  0  0  0  0  0  0  0  0  0
  140.2360  152.7460  132.9820 C   0  0  0  0  0  0  0  0  0  0  0  0
  141.4020  151.9640  133.0090 C   0  0  0  0  0  0  0  0  0  0  0  0
  141.3330  150.4610  132.8060 C   0  0  0  0  0  0  0  0  0  0  0  0
  140.5070  150.0450  131.6490 N   0  0  0  0  0  0  0  0  0  0  0  0
  141.0360  148.8860  130.8950 C   0  0  0  0  0  0  0  0  0  0  0  0
  140.1330  147.6500  131.0550 C   0  0  0  0  0  0  0  0  0  0  0  0
  138.7960  147.8680  130.6240 O   0  0  0  0  0  0  0  0  0  0  0  0
  138.3350  149.2010  130.8220 C   0  0  0  0  0  0  0  0  0  0  0  0
  139.0640  149.9530  131.9470 C   0  0  0  0  0  0  0  0  0  0  0  0
  142.6330  152.5880  133.2660 C   0  0  0  0  0  0  0  0  0  0  0  0
  142.7040  153.9710  133.4490 C   0  0  0  0  0  0  0  0  0  0  0  0
  142.8540  156.9030  133.4530 C   0  0  0  0  0  0  0  0  0  0  0  0
  142.8820  158.2910  133.6290 C   0  0  0  0  0  0  0  0  0  0  0  0
  143.9480  159.1220  133.5760 N   0  0  0  0  0  0  0  0  0  0  0  0
  145.3150  158.7450  133.3410 C   0  0  0  0  0  0  0  0  0  0  0  0
  145.9940  159.3350  132.4600 O   0  0  0  0  0  0  0  0  0  0  0  0
  145.8910  157.7090  134.0650 O   0  0  0  0  0  0  0  0  0  0  0  0
  146.3110  161.2970  133.3590 H   0  0  0  0  0  0  0  0  0  0  0  0
  141.4255  161.1473  134.3581 H   0  0  0  0  0  0  0  0  0  0  0  0
  139.6082  158.9443  134.3294 H   0  0  0  0  0  0  0  0  0  0  0  0
  139.4812  156.4558  133.9854 H   0  0  0  0  0  0  0  0  0  0  0  0
  139.3858  154.7306  133.1277 H   0  0  0  0  0  0  0  0  0  0  0  0
  139.2603  152.2658  132.8163 H   0  0  0  0  0  0  0  0  0  0  0  0
  142.3556  150.0856  132.6533 H   0  0  0  0  0  0  0  0  0  0  0  0
  140.8562  150.0409  133.7039 H   0  0  0  0  0  0  0  0  0  0  0  0
  141.0952  149.1500  129.8288 H   0  0  0  0  0  0  0  0  0  0  0  0
  142.0315  148.6403  131.2931 H   0  0  0  0  0  0  0  0  0  0  0  0
  140.5603  146.8270  130.4632 H   0  0  0  0  0  0  0  0  0  0  0  0
  140.0936  147.4134  132.1285 H   0  0  0  0  0  0  0  0  0  0  0  0
  138.4764  149.7589  129.8846 H   0  0  0  0  0  0  0  0  0  0  0  0
  137.2778  149.1319  131.1179 H   0  0  0  0  0  0  0  0  0  0  0  0
  138.6463  150.9667  132.0361 H   0  0  0  0  0  0  0  0  0  0  0  0
  138.9273  149.4054  132.8912 H   0  0  0  0  0  0  0  0  0  0  0  0
  143.5496  151.9826  133.3238 H   0  0  0  0  0  0  0  0  0  0  0  0
  143.6773  154.4472  133.6384 H   0  0  0  0  0  0  0  0  0  0  0  0
  143.7743  156.3471  133.2204 H   0  0  0  0  0  0  0  0  0  0  0  0
  1  2  1  0
  2  3  2  0
  2  4  1  0
  4  5  2  0
  5  6  1  0
  6  7  2  0
  7  8  1  0
  8  9  2  0
  9 10  1  0
 10 11  2  0
 11 12  1  0
 12 13  2  0
 13 14  1  0
 14 15  1  0
 15 16  1  0
 16 17  1  0
 17 18  1  0
 18 19  1  0
 19 20  1  0
 13 21  1  0
 21 22  2  0
  9 23  1  0
 23 24  2  0
 24 25  1  0
 25 26  1  0
 26 27  2  0
 26 28  1  0
 25  4  1  0
 24  6  1  0
 22 10  1  0
 20 15  1  0
  1 29  1  0
  5 30  1  0
  7 31  1  0
  8 32  1  0
 11 33  1  0
 12 34  1  0
 14 35  1  0
 14 36  1  0
 16 37  1  0
 16 38  1  0
 17 39  1  0
 17 40  1  0
 19 41  1  0
 19 42  1  0
 20 43  1  0
 20 44  1  0
 21 45  1  0
 22 46  1  0
 23 47  1  0
M  CHG  2   1  -1  28  -1
M  END
>  <UniqueID>  (97) 
95

>  <SMILES>  (97) 
[NH-]C(=O)c1cc2ccc(-c3ccc(CN4CCOCC4)cc3)cc2n1C(=O)[O-]

>  <Energy>  (97) 
112.00596681385386

>  <Genealogy>  (97) 
[NH-]C(=O)c1cc2ccc(-c3ccc(CN4CCOCC4)cc3)cc2n1C(=O)[O-] (protonated)
[NH-]C(=O)c1cc2ccc(-c3ccc(CN4CCOCC4)cc3)cc2n1C(=O)[O-] (3D coordinates assigned)
[NH-]C(=O)c1cc2ccc(-c3ccc(CN4CCOCC4)cc3)cc2n1C(=O)[O-] (nonaromatic ring conformer: 112.00596681385386 kcal/mol)

>  <smiles>  (97) 
NC(=O)c1cc2ccc(-c3ccc(CN4CCOCC4)cc3)cc2n1C(=O)O

>  <score_type>  (97) 
oracle

>  <origin>  (97) 
adg

>  <m_score__min__energy>  (97) 
-8.9600000000000009

>  <m_primary>  (97) 
energy

$$$$
97:0
     RDKit          3D

 33 35  0  0  0  0  0  0  0  0999 V2000
  145.7130  162.5980  134.5010 C   0  0  0  0  0  0  0  0  0  0  0  0
  144.5620  161.9120  133.8350 C   0  0  0  0  0  0  0  0  0  0  0  0
  143.6210  162.6050  133.3630 O   0  0  0  0  0  0  0  0  0  0  0  0
  144.4780  160.4790  133.8030 N   0  0  0  0  0  0  0  0  0  0  0  0
  143.3680  159.6970  133.9190 C   0  0  0  0  0  0  0  0  0  0  0  0
  142.0090  160.1670  134.2610 C   0  0  0  0  0  0  0  0  0  0  0  0
  141.2610  160.9690  133.3520 N   0  0  0  0  0  0  0  0  0  0  0  0
  141.5190  159.8910  135.3890 O   0  0  0  0  0  0  0  0  0  0  0  0
  143.6980  158.3540  133.7450 C   0  0  0  0  0  0  0  0  0  0  0  0
  145.0580  158.3380  133.5280 C   0  0  0  0  0  0  0  0  0  0  0  0
  145.9140  157.2680  133.2810 C   0  0  0  0  0  0  0  0  0  0  0  0
  147.2740  157.5510  133.0670 C   0  0  0  0  0  0  0  0  0  0  0  0
  147.7500  158.8860  133.1090 C   0  0  0  0  0  0  0  0  0  0  0  0
  149.1980  159.1800  132.8290 C   0  0  0  0  0  0  0  0  0  0  0  0
  149.3290  159.9250  131.5360 C   0  0  0  0  0  0  0  0  0  0  0  0
  149.6230  159.3010  130.3270 C   0  0  0  0  0  0  0  0  0  0  0  0
  149.6080  160.4820  129.1330 S   0  0  0  0  0  0  0  0  0  0  0  0
  149.2220  161.7270  130.1930 C   0  0  0  0  0  0  0  0  0  0  0  0
  149.0980  161.2640  131.4550 N   0  0  0  0  0  0  0  0  0  0  0  0
  146.8480  159.9460  133.3510 C   0  0  0  0  0  0  0  0  0  0  0  0
  145.5040  159.6330  133.5720 C   0  0  0  0  0  0  0  0  0  0  0  0
  145.5985  162.5298  135.5929 H   0  0  0  0  0  0  0  0  0  0  0  0
  146.6531  162.1128  134.1999 H   0  0  0  0  0  0  0  0  0  0  0  0
  145.7335  163.6558  134.1999 H   0  0  0  0  0  0  0  0  0  0  0  0
  141.6070  161.9070  133.0530 H   0  0  0  0  0  0  0  0  0  0  0  0
  143.0171  157.4906  133.7747 H   0  0  0  0  0  0  0  0  0  0  0  0
  145.5380  156.2346  133.2542 H   0  0  0  0  0  0  0  0  0  0  0  0
  147.9761  156.7287  132.8649 H   0  0  0  0  0  0  0  0  0  0  0  0
  149.6099  159.7917  133.6452 H   0  0  0  0  0  0  0  0  0  0  0  0
  149.7515  158.2321  132.7571 H   0  0  0  0  0  0  0  0  0  0  0  0
  149.8277  158.2302  130.1804 H   0  0  0  0  0  0  0  0  0  0  0  0
  149.0883  162.7783  129.8982 H   0  0  0  0  0  0  0  0  0  0  0  0
  147.1943  160.9900  133.3651 H   0  0  0  0  0  0  0  0  0  0  0  0
  1  2  1  0
  2  3  2  0
  2  4  1  0
  4  5  1  0
  5  6  1  0
  6  7  1  0
  6  8  2  0
  5  9  2  0
  9 10  1  0
 10 11  2  0
 11 12  1  0
 12 13  2  0
 13 14  1  0
 14 15  1  0
 15 16  2  0
 16 17  1  0
 17 18  1  0
 18 19  2  0
 13 20  1  0
 20 21  2  0
 21  4  1  0
 21 10  1  0
 19 15  1  0
  1 22  1  0
  1 23  1  0
  1 24  1  0
  7 25  1  0
  9 26  1  0
 11 27  1  0
 12 28  1  0
 14 29  1  0
 14 30  1  0
 16 31  1  0
 18 32  1  0
 20 33  1  0
M  CHG  1   7  -1
M  END
>  <UniqueID>  (98) 
96

>  <SMILES>  (98) 
CC(=O)n1c(C([NH-])=O)cc2ccc(Cc3cscn3)cc21

>  <Energy>  (98) 
101.73975658923662

>  <Genealogy>  (98) 
CC(=O)n1c(C([NH-])=O)cc2ccc(Cc3cscn3)cc21 (protonated)
CC(=O)n1c(C([NH-])=O)cc2ccc(Cc3cscn3)cc21 (3D coordinates assigned)
CC(=O)n1c(C([NH-])=O)cc2ccc(Cc3cscn3)cc21 (optimized conformer: 101.73975658923662 kcal/mol)

>  <smiles>  (98) 
CC(=O)n1c(C(N)=O)cc2ccc(Cc3cscn3)cc21

>  <score_type>  (98) 
oracle

>  <origin>  (98) 
adg

>  <m_score__min__energy>  (98) 
-7.6399999999999997

>  <m_primary>  (98) 
energy

$$$$
98:0
     RDKit          3D

 35 36  0  0  0  0  0  0  0  0999 V2000
  149.5840  161.0730  130.3320 C   0  0  0  0  0  0  0  0  0  0  0  0
  149.2830  159.6390  130.7480 C   0  0  0  0  0  0  0  0  0  0  0  0
  148.1340  159.5900  131.5910 O   0  0  0  0  0  0  0  0  0  0  0  0
  148.0880  158.8720  132.7910 C   0  0  0  0  0  0  0  0  0  0  0  0
  148.9160  159.1160  133.7120 O   0  0  0  0  0  0  0  0  0  0  0  0
  147.0960  157.8480  132.9750 N   0  0  0  0  0  0  0  0  0  0  0  0
  145.7950  158.0120  133.3460 C   0  0  0  0  0  0  0  0  0  0  0  0
  145.0890  159.3020  133.4790 C   0  0  0  0  0  0  0  0  0  0  0  0
  145.5860  160.4860  132.8530 N   0  0  0  0  0  0  0  0  0  0  0  0
  144.0010  159.3490  134.1120 O   0  0  0  0  0  0  0  0  0  0  0  0
  145.1800  156.7790  133.5400 C   0  0  0  0  0  0  0  0  0  0  0  0
  146.1480  155.8420  133.2590 C   0  0  0  0  0  0  0  0  0  0  0  0
  146.0890  154.4520  133.3100 C   0  0  0  0  0  0  0  0  0  0  0  0
  147.2570  153.7320  133.0100 C   0  0  0  0  0  0  0  0  0  0  0  0
  148.4550  154.4080  132.6710 C   0  0  0  0  0  0  0  0  0  0  0  0
  149.7120  153.6240  132.3940 C   0  0  0  0  0  0  0  0  0  0  0  0
  149.5480  152.1500  132.7700 C   0  0  0  0  0  0  0  0  0  0  0  0
  148.5740  151.5790  131.9730 F   0  0  0  0  0  0  0  0  0  0  0  0
  150.7390  151.4720  132.5770 F   0  0  0  0  0  0  0  0  0  0  0  0
  149.1660  152.0330  134.0950 F   0  0  0  0  0  0  0  0  0  0  0  0
  148.4800  155.8200  132.6400 C   0  0  0  0  0  0  0  0  0  0  0  0
  147.2960  156.5130  132.9230 C   0  0  0  0  0  0  0  0  0  0  0  0
  149.7146  161.6954  131.2295 H   0  0  0  0  0  0  0  0  0  0  0  0
  150.5064  161.0951  129.7330 H   0  0  0  0  0  0  0  0  0  0  0  0
  148.7484  161.4641  129.7330 H   0  0  0  0  0  0  0  0  0  0  0  0
  149.0973  159.0334  129.8487 H   0  0  0  0  0  0  0  0  0  0  0  0
  150.1462  159.2429  131.3029 H   0  0  0  0  0  0  0  0  0  0  0  0
  146.3840  160.4480  132.1820 H   0  0  0  0  0  0  0  0  0  0  0  0
  145.0960  161.3970  132.9930 H   0  0  0  0  0  0  0  0  0  0  0  0
  144.1416  156.5929  133.8515 H   0  0  0  0  0  0  0  0  0  0  0  0
  145.1563  153.9336  133.5770 H   0  0  0  0  0  0  0  0  0  0  0  0
  147.2415  152.6325  133.0385 H   0  0  0  0  0  0  0  0  0  0  0  0
  149.9488  153.6952  131.3221 H   0  0  0  0  0  0  0  0  0  0  0  0
  150.5240  154.0473  133.0034 H   0  0  0  0  0  0  0  0  0  0  0  0
  149.4065  156.3621  132.3995 H   0  0  0  0  0  0  0  0  0  0  0  0
  1  2  1  0
  2  3  1  0
  3  4  1  0
  4  5  2  0
  4  6  1  0
  6  7  1  0
  7  8  1  0
  8  9  1  0
  8 10  2  0
  7 11  2  0
 11 12  1  0
 12 13  2  0
 13 14  1  0
 14 15  2  0
 15 16  1  0
 16 17  1  0
 17 18  1  0
 17 19  1  0
 17 20  1  0
 15 21  1  0
 21 22  2  0
 22  6  1  0
 22 12  1  0
  1 23  1  0
  1 24  1  0
  1 25  1  0
  2 26  1  0
  2 27  1  0
  9 28  1  0
  9 29  1  0
 11 30  1  0
 13 31  1  0
 14 32  1  0
 16 33  1  0
 16 34  1  0
 21 35  1  0
M  END
>  <UniqueID>  (99) 
97

>  <SMILES>  (99) 
CCOC(=O)n1c(C(N)=O)cc2ccc(CC(F)(F)F)cc21

>  <Energy>  (99) 
67.67598719166743

>  <Genealogy>  (99) 
CCOC(=O)n1c(C(N)=O)cc2ccc(CC(F)(F)F)cc21 (3D coordinates assigned)
CCOC(=O)n1c(C(N)=O)cc2ccc(CC(F)(F)F)cc21 (optimized conformer: 67.67598719166743 kcal/mol)

>  <smiles>  (99) 
CCOC(=O)n1c(C(N)=O)cc2ccc(CC(F)(F)F)cc21

>  <score_type>  (99) 
oracle

>  <origin>  (99) 
adg

>  <m_score__min__energy>  (99) 
-6.4800000000000004

>  <m_primary>  (99) 
energy

$$$$
99:0
     RDKit          3D

 35 37  0  0  0  0  0  0  0  0999 V2000
  149.6780  151.1370  134.1390 C   0  0  0  0  0  0  0  0  0  0  0  0
  149.6910  151.4990  132.6450 C   0  0  0  0  0  0  0  0  0  0  0  0
  149.6410  152.9570  132.4120 N   0  0  0  0  0  0  0  0  0  0  0  0
  148.5290  153.8470  132.6490 C   0  0  0  0  0  0  0  0  0  0  0  0
  147.2350  153.3680  132.9880 C   0  0  0  0  0  0  0  0  0  0  0  0
  146.1840  154.2610  133.2560 C   0  0  0  0  0  0  0  0  0  0  0  0
  146.4520  155.6240  133.1880 C   0  0  0  0  0  0  0  0  0  0  0  0
  145.6280  156.6990  133.4280 C   0  0  0  0  0  0  0  0  0  0  0  0
  146.4240  157.8250  133.2310 C   0  0  0  0  0  0  0  0  0  0  0  0
  145.9170  159.2140  133.2970 C   0  0  0  0  0  0  0  0  0  0  0  0
  146.7450  160.3120  132.9110 N   0  0  0  0  0  0  0  0  0  0  0  0
  144.7560  159.4450  133.7280 O   0  0  0  0  0  0  0  0  0  0  0  0
  147.6910  157.4600  132.8850 N   0  0  0  0  0  0  0  0  0  0  0  0
  148.8220  158.3190  132.6560 C   0  0  0  0  0  0  0  0  0  0  0  0
  149.4300  158.2920  131.5540 O   0  0  0  0  0  0  0  0  0  0  0  0
  149.2460  159.1990  133.6440 O   0  0  0  0  0  0  0  0  0  0  0  0
  147.6910  156.1080  132.8630 C   0  0  0  0  0  0  0  0  0  0  0  0
  148.7600  155.2400  132.6100 C   0  0  0  0  0  0  0  0  0  0  0  0
  148.6950  150.7160  131.8180 C   0  0  0  0  0  0  0  0  0  0  0  0
  149.7140  150.0630  131.0920 O   0  0  0  0  0  0  0  0  0  0  0  0
  150.7160  150.7250  131.8330 C   0  0  0  0  0  0  0  0  0  0  0  0
  149.7111  152.0579  134.7397 H   0  0  0  0  0  0  0  0  0  0  0  0
  148.7592  150.5793  134.3732 H   0  0  0  0  0  0  0  0  0  0  0  0
  150.5544  150.5148  134.3732 H   0  0  0  0  0  0  0  0  0  0  0  0
  150.4260  153.3580  131.8490 H   0  0  0  0  0  0  0  0  0  0  0  0
  147.0538  152.2843  133.0413 H   0  0  0  0  0  0  0  0  0  0  0  0
  145.1794  153.8932  133.5119 H   0  0  0  0  0  0  0  0  0  0  0  0
  144.5663  156.6746  133.7145 H   0  0  0  0  0  0  0  0  0  0  0  0
  147.6910  160.1600  132.4970 H   0  0  0  0  0  0  0  0  0  0  0  0
  146.3910  161.2910  132.9990 H   0  0  0  0  0  0  0  0  0  0  0  0
  149.7614  155.6356  132.3850 H   0  0  0  0  0  0  0  0  0  0  0  0
  148.0726  150.0315  132.4130 H   0  0  0  0  0  0  0  0  0  0  0  0
  147.9134  151.2606  131.2680 H   0  0  0  0  0  0  0  0  0  0  0  0
  151.3357  150.0471  132.4383 H   0  0  0  0  0  0  0  0  0  0  0  0
  151.5025  151.2767  131.2971 H   0  0  0  0  0  0  0  0  0  0  0  0
  1  2  1  0
  2  3  1  0
  3  4  1  0
  4  5  2  0
  5  6  1  0
  6  7  2  0
  7  8  1  0
  8  9  2  0
  9 10  1  0
 10 11  1  0
 10 12  2  0
  9 13  1  0
 13 14  1  0
 14 15  2  0
 14 16  1  0
 13 17  1  0
 17 18  2  0
  2 19  1  0
 19 20  1  0
 20 21  1  0
 21  2  1  0
 18  4  1  0
 17  7  1  0
  1 22  1  0
  1 23  1  0
  1 24  1  0
  3 25  1  0
  5 26  1  0
  6 27  1  0
  8 28  1  0
 11 29  1  0
 11 30  1  0
 18 31  1  0
 19 32  1  0
 19 33  1  0
 21 34  1  0
 21 35  1  0
M  CHG  1  16  -1
M  END
>  <UniqueID>  (100) 
98

>  <SMILES>  (100) 
CC1(Nc2ccc3cc(C(N)=O)n(C(=O)[O-])c3c2)COC1

>  <Energy>  (100) 
147.05488167003577

>  <Genealogy>  (100) 
CC1(Nc2ccc3cc(C(N)=O)n(C(=O)[O-])c3c2)COC1 (protonated)
CC1(Nc2ccc3cc(C(N)=O)n(C(=O)[O-])c3c2)COC1 (3D coordinates assigned)
CC1(Nc2ccc3cc(C(N)=O)n(C(=O)[O-])c3c2)COC1 (nonaromatic ring conformer: 147.05488167003577 kcal/mol)

>  <smiles>  (100) 
CC1(Nc2ccc3cc(C(N)=O)n(C(=O)O)c3c2)COC1

>  <score_type>  (100) 
oracle

>  <origin>  (100) 
adg

>  <m_score__min__energy>  (100) 
-7.0300000000000002

>  <m_primary>  (100) 
energy

$$$$
