0:0
     RDKit          3D

 38 40  0  0  0  0  0  0  0  0999 V2000
  141.0490  161.1870  133.3870 N   0  0  0  0  0  0  0  0  0  0  0  0
  141.6680  160.3510  134.3620 C   0  0  0  0  0  0  0  0  0  0  0  0
  141.0680  160.1120  135.4440 O   0  0  0  0  0  0  0  0  0  0  0  0
  142.9990  159.7690  134.0900 C   0  0  0  0  0  0  0  0  0  0  0  0
  144.1140  160.5110  133.6970 C   0  0  0  0  0  0  0  0  0  0  0  0
  145.1320  159.5930  133.5510 C   0  0  0  0  0  0  0  0  0  0  0  0
  146.4630  159.7740  133.1870 C   0  0  0  0  0  0  0  0  0  0  0  0
  147.2970  158.6400  133.1460 C   0  0  0  0  0  0  0  0  0  0  0  0
  146.7940  157.3520  133.4770 C   0  0  0  0  0  0  0  0  0  0  0  0
  147.6930  156.1420  133.3950 C   0  0  0  0  0  0  0  0  0  0  0  0
  148.8230  156.4250  132.6460 F   0  0  0  0  0  0  0  0  0  0  0  0
  147.0040  155.1010  132.7970 F   0  0  0  0  0  0  0  0  0  0  0  0
  148.1000  155.7470  134.6590 F   0  0  0  0  0  0  0  0  0  0  0  0
  145.4260  157.2050  133.8050 C   0  0  0  0  0  0  0  0  0  0  0  0
  144.6240  158.3540  133.8420 C   0  0  0  0  0  0  0  0  0  0  0  0
  143.3200  158.4480  134.1730 N   0  0  0  0  0  0  0  0  0  0  0  0
  142.4510  157.3530  134.4830 C   0  0  0  0  0  0  0  0  0  0  0  0
  142.2360  157.0550  135.6880 O   0  0  0  0  0  0  0  0  0  0  0  0
  141.8620  156.5250  133.3710 C   0  0  0  0  0  0  0  0  0  0  0  0
  140.3620  156.8200  133.1600 C   0  0  1  0  0  0  0  0  0  0  0  0
  139.6320  157.1280  134.4950 C   0  0  0  0  0  0  0  0  0  0  0  0
  138.7190  158.2140  134.2000 N   0  0  0  0  0  0  0  0  0  0  0  0
  139.0070  158.7480  132.9240 C   0  0  0  0  0  0  0  0  0  0  0  0
  138.4230  159.7620  132.4590 O   0  0  0  0  0  0  0  0  0  0  0  0
  140.0990  158.0300  132.2310 C   0  0  0  0  0  0  0  0  0  0  0  0
  140.2830  160.8240  132.7730 H   0  0  0  0  0  0  0  0  0  0  0  0
  144.1688  161.5980  133.5376 H   0  0  0  0  0  0  0  0  0  0  0  0
  146.8518  160.7726  132.9388 H   0  0  0  0  0  0  0  0  0  0  0  0
  148.3516  158.7522  132.8540 H   0  0  0  0  0  0  0  0  0  0  0  0
  145.0022  156.2141  134.0254 H   0  0  0  0  0  0  0  0  0  0  0  0
  142.4019  156.7475  132.4388 H   0  0  0  0  0  0  0  0  0  0  0  0
  141.9633  155.4651  133.6474 H   0  0  0  0  0  0  0  0  0  0  0  0
  139.9750  155.9000  132.6976 H   0  0  0  0  0  0  0  0  0  0  0  0
  139.0772  156.2438  134.8418 H   0  0  0  0  0  0  0  0  0  0  0  0
  140.3400  157.3975  135.2926 H   0  0  0  0  0  0  0  0  0  0  0  0
  138.0270  158.6160  134.8740 H   0  0  0  0  0  0  0  0  0  0  0  0
  139.7828  157.6994  131.2306 H   0  0  0  0  0  0  0  0  0  0  0  0
  140.9909  158.6520  132.0651 H   0  0  0  0  0  0  0  0  0  0  0  0
  1  2  1  0
  2  3  2  0
  2  4  1  0
  4  5  2  0
  5  6  1  0
  6  7  2  0
  7  8  1  0
  8  9  2  0
  9 10  1  0
 10 11  1  0
 10 12  1  0
 10 13  1  0
  9 14  1  0
 14 15  2  0
 15 16  1  0
 16 17  1  0
 17 18  2  0
 17 19  1  0
 19 20  1  0
 20 21  1  0
 21 22  1  0
 22 23  1  0
 23 24  2  0
 23 25  1  0
 16  4  1  0
 25 20  1  0
 15  6  1  0
  1 26  1  0
  5 27  1  0
  7 28  1  0
  8 29  1  0
 14 30  1  0
 19 31  1  0
 19 32  1  0
 20 33  1  6
 21 34  1  0
 21 35  1  0
 22 36  1  0
 25 37  1  0
 25 38  1  0
M  CHG  1   1  -1
M  END
>  <UniqueID>  (1) 
1

>  <SMILES>  (1) 
[NH-]C(=O)c1cc2ccc(C(F)(F)F)cc2n1C(=O)C[C@H]1CNC(=O)C1

>  <Energy>  (1) 
86.15104439332589

>  <Genealogy>  (1) 
[NH-]C(=O)c1cc2ccc(C(F)(F)F)cc2n1C(=O)C[C@H]1CNC(=O)C1 (protonated)
[NH-]C(=O)c1cc2ccc(C(F)(F)F)cc2n1C(=O)C[C@H]1CNC(=O)C1 (3D coordinates assigned)
[NH-]C(=O)c1cc2ccc(C(F)(F)F)cc2n1C(=O)C[C@H]1CNC(=O)C1 (nonaromatic ring conformer: 86.15104439332589 kcal/mol)

>  <smiles>  (1) 
NC(=O)c1cc2ccc(C(F)(F)F)cc2n1C(=O)C[C@H]1CNC(=O)C1

>  <score_type>  (1) 
oracle

>  <origin>  (1) 
adg

>  <m_score__min__energy>  (1) 
-7.2800000000000002

>  <m_primary>  (1) 
energy

$$$$
1:0
     RDKit          3D

 52 54  0  0  0  0  0  0  0  0999 V2000
  144.8720  154.8260  131.8370 C   0  0  0  0  0  0  0  0  0  0  0  0
  145.6930  154.9340  133.0600 N   0  0  2  0  0  0  0  0  0  0  0  0
  146.0630  153.6230  133.6420 C   0  0  0  0  0  0  0  0  0  0  0  0
  146.3540  152.5120  132.6560 C   0  0  0  0  0  0  0  0  0  0  0  0
  145.4350  151.8020  132.1630 O   0  0  0  0  0  0  0  0  0  0  0  0
  147.7080  152.2670  132.2720 N   0  0  0  0  0  0  0  0  0  0  0  0
  148.0640  151.0990  131.4800 C   0  0  0  0  0  0  0  0  0  0  0  0
  149.5830  150.9770  131.6080 C   0  0  2  0  0  0  0  0  0  0  0  0
  150.0130  149.6380  131.6270 O   0  0  0  0  0  0  0  0  0  0  0  0
  149.9420  151.7320  132.8920 C   0  0  0  0  0  0  0  0  0  0  0  0
  148.8180  152.7590  133.0760 C   0  0  1  0  0  0  0  0  0  0  0  0
  149.2170  154.1750  132.6290 C   0  0  0  0  0  0  0  0  0  0  0  0
  148.6410  155.1540  133.4540 O   0  0  0  0  0  0  0  0  0  0  0  0
  145.1060  155.8150  134.0540 C   0  0  0  0  0  0  0  0  0  0  0  0
  144.7350  155.3780  135.1810 O   0  0  0  0  0  0  0  0  0  0  0  0
  144.9950  157.2220  133.7830 N   0  0  0  0  0  0  0  0  0  0  0  0
  145.9840  158.0740  133.3920 C   0  0  0  0  0  0  0  0  0  0  0  0
  147.3800  157.6960  133.0890 C   0  0  0  0  0  0  0  0  0  0  0  0
  147.7160  157.0020  131.8880 N   0  0  0  0  0  0  0  0  0  0  0  0
  148.2960  157.9790  133.9100 O   0  0  0  0  0  0  0  0  0  0  0  0
  145.4910  159.3730  133.2840 C   0  0  0  0  0  0  0  0  0  0  0  0
  144.1670  159.2930  133.6530 C   0  0  0  0  0  0  0  0  0  0  0  0
  143.2090  160.2960  133.7730 C   0  0  0  0  0  0  0  0  0  0  0  0
  141.9240  159.9300  134.2130 C   0  0  0  0  0  0  0  0  0  0  0  0
  141.6320  158.5830  134.5470 C   0  0  0  0  0  0  0  0  0  0  0  0
  140.2740  158.2210  135.0720 C   0  0  0  0  0  0  0  0  0  0  0  0
  140.0270  158.9210  136.2410 F   0  0  0  0  0  0  0  0  0  0  0  0
  139.3110  158.5470  134.1350 F   0  0  0  0  0  0  0  0  0  0  0  0
  142.6350  157.5950  134.4210 C   0  0  0  0  0  0  0  0  0  0  0  0
  143.8950  157.9830  133.9550 C   0  0  0  0  0  0  0  0  0  0  0  0
  143.8168  154.6872  132.1148 H   0  0  0  0  0  0  0  0  0  0  0  0
  144.9767  155.7457  131.2427 H   0  0  0  0  0  0  0  0  0  0  0  0
  145.2110  153.9647  131.2427 H   0  0  0  0  0  0  0  0  0  0  0  0
  146.6040  155.3690  132.7680 H   0  0  0  0  0  0  0  0  0  0  0  0
  146.9634  153.7707  134.2564 H   0  0  0  0  0  0  0  0  0  0  0  0
  145.1789  153.2915  134.2063 H   0  0  0  0  0  0  0  0  0  0  0  0
  147.5699  150.1993  131.8755 H   0  0  0  0  0  0  0  0  0  0  0  0
  147.7461  151.2000  130.4318 H   0  0  0  0  0  0  0  0  0  0  0  0
  150.0975  151.4078  130.7364 H   0  0  0  0  0  0  0  0  0  0  0  0
  149.2260  149.0570  131.4570 H   0  0  0  0  0  0  0  0  0  0  0  0
  149.9797  151.0425  133.7482 H   0  0  0  0  0  0  0  0  0  0  0  0
  150.9311  152.2090  132.8280 H   0  0  0  0  0  0  0  0  0  0  0  0
  148.5632  152.8548  134.1418 H   0  0  0  0  0  0  0  0  0  0  0  0
  150.3121  154.2689  132.6731 H   0  0  0  0  0  0  0  0  0  0  0  0
  148.8529  154.3294  131.6025 H   0  0  0  0  0  0  0  0  0  0  0  0
  148.8590  156.0340  133.0490 H   0  0  0  0  0  0  0  0  0  0  0  0
  148.6370  156.5260  131.7780 H   0  0  0  0  0  0  0  0  0  0  0  0
  146.0426  160.2716  132.9705 H   0  0  0  0  0  0  0  0  0  0  0  0
  143.4493  161.3419  133.5313 H   0  0  0  0  0  0  0  0  0  0  0  0
  141.1386  160.6954  134.2988 H   0  0  0  0  0  0  0  0  0  0  0  0
  140.2407  157.1402  135.2738 H   0  0  0  0  0  0  0  0  0  0  0  0
  142.4294  156.5467  134.6831 H   0  0  0  0  0  0  0  0  0  0  0  0
  1  2  1  0
  2  3  1  0
  3  4  1  0
  4  5  2  0
  4  6  1  0
  6  7  1  0
  7  8  1  0
  8  9  1  0
  8 10  1  0
 10 11  1  0
 11 12  1  0
 12 13  1  0
  2 14  1  0
 14 15  2  0
 14 16  1  0
 16 17  1  0
 17 18  1  0
 18 19  1  0
 18 20  2  0
 17 21  2  0
 21 22  1  0
 22 23  2  0
 23 24  1  0
 24 25  2  0
 25 26  1  0
 26 27  1  0
 26 28  1  0
 25 29  1  0
 29 30  2  0
 11  6  1  0
 30 16  1  0
 30 22  1  0
  1 31  1  0
  1 32  1  0
  1 33  1  0
  2 34  1  6
  3 35  1  0
  3 36  1  0
  7 37  1  0
  7 38  1  0
  8 39  1  6
  9 40  1  0
 10 41  1  0
 10 42  1  0
 11 43  1  1
 12 44  1  0
 12 45  1  0
 13 46  1  0
 19 47  1  0
 21 48  1  0
 23 49  1  0
 24 50  1  0
 26 51  1  0
 29 52  1  0
M  CHG  2   2   1  19  -1
M  END
>  <UniqueID>  (2) 
2

>  <SMILES>  (2) 
C[N@H+](CC(=O)N1C[C@H](O)CC1CO)C(=O)n1c(C([NH-])=O)cc2ccc(C(F)F)cc21

>  <Energy>  (2) 
107.27838372773759

>  <Genealogy>  (2) 
C[NH+](CC(=O)N1CC(O)CC1CO)C(=O)n1c(C([NH-])=O)cc2ccc(C(F)F)cc21 (protonated)
C[N@H+](CC(=O)N1C[C@H](O)CC1CO)C(=O)n1c(C([NH-])=O)cc2ccc(C(F)F)cc21 (chirality)
C[N@H+](CC(=O)N1C[C@H](O)CC1CO)C(=O)n1c(C([NH-])=O)cc2ccc(C(F)F)cc21 (3D coordinates assigned)
C[N@H+](CC(=O)N1C[C@H](O)CC1CO)C(=O)n1c(C([NH-])=O)cc2ccc(C(F)F)cc21 (nonaromatic ring conformer: 107.27838372773759 kcal/mol)

>  <smiles>  (2) 
CN(CC(=O)N1CC(O)CC1CO)C(=O)n1c(C(N)=O)cc2ccc(C(F)F)cc21

>  <score_type>  (2) 
oracle

>  <origin>  (2) 
adg

>  <m_score__min__energy>  (2) 
-7.3300000000000001

>  <m_primary>  (2) 
energy

$$$$
2:0
     RDKit          3D

 31 32  0  0  0  0  0  0  0  0999 V2000
  148.9790  157.7010  132.6280 N   0  0  0  0  0  0  0  0  0  0  0  0
  148.3970  158.5690  133.6040 C   0  0  0  0  0  0  0  0  0  0  0  0
  149.1180  159.0210  134.5320 O   0  0  0  0  0  0  0  0  0  0  0  0
  146.9590  158.9050  133.5740 C   0  0  0  0  0  0  0  0  0  0  0  0
  146.4710  160.2040  133.6970 C   0  0  0  0  0  0  0  0  0  0  0  0
  145.0990  160.0810  133.6830 C   0  0  0  0  0  0  0  0  0  0  0  0
  144.1090  161.0560  133.7620 C   0  0  0  0  0  0  0  0  0  0  0  0
  142.7680  160.6400  133.6890 C   0  0  0  0  0  0  0  0  0  0  0  0
  142.4510  159.2710  133.5320 C   0  0  0  0  0  0  0  0  0  0  0  0
  141.0740  158.8610  133.4470 C   0  0  0  0  0  0  0  0  0  0  0  0
  139.9210  158.5160  133.3750 C   0  0  0  0  0  0  0  0  0  0  0  0
  138.5190  158.0960  133.2890 C   0  0  0  0  0  0  0  0  0  0  0  0
  138.3860  156.7730  133.7290 O   0  0  0  0  0  0  0  0  0  0  0  0
  143.4760  158.3080  133.4540 C   0  0  0  0  0  0  0  0  0  0  0  0
  144.8010  158.7490  133.5450 C   0  0  0  0  0  0  0  0  0  0  0  0
  145.9320  158.0150  133.4710 N   0  0  0  0  0  0  0  0  0  0  0  0
  146.0030  156.6030  133.2190 C   0  0  0  0  0  0  0  0  0  0  0  0
  146.6050  156.1800  132.1970 O   0  0  0  0  0  0  0  0  0  0  0  0
  145.4390  155.6200  134.1970 C   0  0  0  0  0  0  0  0  0  0  0  0
  146.8720  154.8660  135.2550 Br  0  0  0  0  0  0  0  0  0  0  0  0
  148.3860  157.1630  131.9600 H   0  0  0  0  0  0  0  0  0  0  0  0
  150.0070  157.5230  132.6350 H   0  0  0  0  0  0  0  0  0  0  0  0
  147.0567  161.1308  133.7863 H   0  0  0  0  0  0  0  0  0  0  0  0
  144.3676  162.1189  133.8779 H   0  0  0  0  0  0  0  0  0  0  0  0
  141.9605  161.3841  133.7544 H   0  0  0  0  0  0  0  0  0  0  0  0
  137.9028  158.7532  133.9201 H   0  0  0  0  0  0  0  0  0  0  0  0
  138.1862  158.1631  132.2427 H   0  0  0  0  0  0  0  0  0  0  0  0
  137.9870  156.2620  132.9770 H   0  0  0  0  0  0  0  0  0  0  0  0
  143.2419  157.2409  133.3254 H   0  0  0  0  0  0  0  0  0  0  0  0
  144.7243  156.1308  134.8591 H   0  0  0  0  0  0  0  0  0  0  0  0
  144.9241  154.8153  133.6517 H   0  0  0  0  0  0  0  0  0  0  0  0
  1  2  1  0
  2  3  2  0
  2  4  1  0
  4  5  2  0
  5  6  1  0
  6  7  2  0
  7  8  1  0
  8  9  2  0
  9 10  1  0
 10 11  3  0
 11 12  1  0
 12 13  1  0
  9 14  1  0
 14 15  2  0
 15 16  1  0
 16 17  1  0
 17 18  2  0
 17 19  1  0
 19 20  1  0
 16  4  1  0
 15  6  1  0
  1 21  1  0
  1 22  1  0
  5 23  1  0
  7 24  1  0
  8 25  1  0
 12 26  1  0
 12 27  1  0
 13 28  1  0
 14 29  1  0
 19 30  1  0
 19 31  1  0
M  END
>  <UniqueID>  (3) 
3

>  <SMILES>  (3) 
NC(=O)c1cc2ccc(C#CCO)cc2n1C(=O)CBr

>  <Energy>  (3) 
65.4783240429694

>  <Genealogy>  (3) 
NC(=O)c1cc2ccc(C#CCO)cc2n1C(=O)CBr (3D coordinates assigned)
NC(=O)c1cc2ccc(C#CCO)cc2n1C(=O)CBr (optimized conformer: 65.4783240429694 kcal/mol)

>  <smiles>  (3) 
NC(=O)c1cc2ccc(C#CCO)cc2n1C(=O)CBr

>  <score_type>  (3) 
oracle

>  <origin>  (3) 
adg

>  <m_score__min__energy>  (3) 
-7.4699999999999998

>  <m_primary>  (3) 
energy

$$$$
3:0
     RDKit          3D

 50 51  0  0  0  0  0  0  0  0999 V2000
  139.2350  157.6730  132.5130 C   0  0  0  0  0  0  0  0  0  0  0  0
  140.1450  156.5990  132.6120 O   0  0  0  0  0  0  0  0  0  0  0  0
  139.4390  155.4090  132.9050 C   0  0  0  0  0  0  0  0  0  0  0  0
  140.4350  154.2850  133.2710 C   0  0  0  0  0  0  0  0  0  0  0  0
  141.8660  154.6820  133.2450 N   0  0  2  0  0  0  0  0  0  0  0  0
  142.7410  153.6470  132.6650 C   0  0  0  0  0  0  0  0  0  0  0  0
  142.3320  155.1200  134.5520 C   0  0  0  0  0  0  0  0  0  0  0  0
  141.5550  155.2120  135.4940 O   0  0  0  0  0  0  0  0  0  0  0  0
  143.7910  155.4400  134.7730 C   0  0  0  0  0  0  0  0  0  0  0  0
  144.3700  156.0800  133.5830 N   0  0  0  0  0  0  0  0  0  0  0  0
  145.5440  155.4980  132.9270 C   0  0  0  0  0  0  0  0  0  0  0  0
  143.7400  157.2420  133.0040 C   0  0  0  0  0  0  0  0  0  0  0  0
  142.8580  157.1120  132.1130 O   0  0  0  0  0  0  0  0  0  0  0  0
  144.1210  158.5610  133.4170 N   0  0  0  0  0  0  0  0  0  0  0  0
  143.3590  159.4840  134.0680 C   0  0  0  0  0  0  0  0  0  0  0  0
  141.9340  159.3250  134.4380 C   0  0  0  0  0  0  0  0  0  0  0  0
  141.3630  158.0310  134.6270 N   0  0  0  0  0  0  0  0  0  0  0  0
  141.2050  160.3450  134.5840 O   0  0  0  0  0  0  0  0  0  0  0  0
  144.1050  160.6380  134.3140 C   0  0  0  0  0  0  0  0  0  0  0  0
  145.3560  160.3850  133.7860 C   0  0  0  0  0  0  0  0  0  0  0  0
  146.4940  161.1860  133.7440 C   0  0  0  0  0  0  0  0  0  0  0  0
  147.6480  160.6580  133.1370 C   0  0  0  0  0  0  0  0  0  0  0  0
  147.6480  159.3420  132.6050 C   0  0  0  0  0  0  0  0  0  0  0  0
  148.8780  158.7930  131.9440 C   0  0  0  0  0  0  0  0  0  0  0  0
  149.3570  159.9590  130.2170 I   0  0  0  0  0  0  0  0  0  0  0  0
  146.4700  158.5650  132.6570 C   0  0  0  0  0  0  0  0  0  0  0  0
  145.3360  159.1220  133.2570 C   0  0  0  0  0  0  0  0  0  0  0  0
  138.9515  158.0076  133.5218 H   0  0  0  0  0  0  0  0  0  0  0  0
  139.7073  158.5049  131.9700 H   0  0  0  0  0  0  0  0  0  0  0  0
  138.3368  157.3437  131.9700 H   0  0  0  0  0  0  0  0  0  0  0  0
  138.7609  155.5862  133.7528 H   0  0  0  0  0  0  0  0  0  0  0  0
  138.8575  155.1053  132.0220 H   0  0  0  0  0  0  0  0  0  0  0  0
  140.1964  153.9347  134.2860 H   0  0  0  0  0  0  0  0  0  0  0  0
  140.3175  153.5074  132.5019 H   0  0  0  0  0  0  0  0  0  0  0  0
  141.9290  155.5050  132.5960 H   0  0  0  0  0  0  0  0  0  0  0  0
  143.2221  153.0780  133.4742 H   0  0  0  0  0  0  0  0  0  0  0  0
  142.1410  152.9655  132.0440 H   0  0  0  0  0  0  0  0  0  0  0  0
  143.5128  154.1252  132.0440 H   0  0  0  0  0  0  0  0  0  0  0  0
  143.8849  156.1218  135.6311 H   0  0  0  0  0  0  0  0  0  0  0  0
  144.3324  154.5026  134.9684 H   0  0  0  0  0  0  0  0  0  0  0  0
  146.2537  155.1462  133.6902 H   0  0  0  0  0  0  0  0  0  0  0  0
  145.2309  154.6508  132.2992 H   0  0  0  0  0  0  0  0  0  0  0  0
  146.0287  156.2602  132.2992 H   0  0  0  0  0  0  0  0  0  0  0  0
  141.6540  157.2200  134.0350 H   0  0  0  0  0  0  0  0  0  0  0  0
  143.7681  161.5543  134.8208 H   0  0  0  0  0  0  0  0  0  0  0  0
  146.4909  162.1994  134.1718 H   0  0  0  0  0  0  0  0  0  0  0  0
  148.5592  161.2709  133.0740 H   0  0  0  0  0  0  0  0  0  0  0  0
  149.7190  158.8274  132.6522 H   0  0  0  0  0  0  0  0  0  0  0  0
  148.6917  157.7528  131.6387 H   0  0  0  0  0  0  0  0  0  0  0  0
  146.4449  157.5487  132.2368 H   0  0  0  0  0  0  0  0  0  0  0  0
  1  2  1  0
  2  3  1  0
  3  4  1  0
  4  5  1  0
  5  6  1  0
  5  7  1  0
  7  8  2  0
  7  9  1  0
  9 10  1  0
 10 11  1  0
 10 12  1  0
 12 13  2  0
 12 14  1  0
 14 15  1  0
 15 16  1  0
 16 17  1  0
 16 18  2  0
 15 19  2  0
 19 20  1  0
 20 21  2  0
 21 22  1  0
 22 23  2  0
 23 24  1  0
 24 25  1  0
 23 26  1  0
 26 27  2  0
 27 14  1  0
 27 20  1  0
  1 28  1  0
  1 29  1  0
  1 30  1  0
  3 31  1  0
  3 32  1  0
  4 33  1  0
  4 34  1  0
  5 35  1  6
  6 36  1  0
  6 37  1  0
  6 38  1  0
  9 39  1  0
  9 40  1  0
 11 41  1  0
 11 42  1  0
 11 43  1  0
 17 44  1  0
 19 45  1  0
 21 46  1  0
 22 47  1  0
 24 48  1  0
 24 49  1  0
 26 50  1  0
M  CHG  2   5   1  17  -1
M  END
>  <UniqueID>  (4) 
4

>  <SMILES>  (4) 
COCC[N@H+](C)C(=O)CN(C)C(=O)n1c(C([NH-])=O)cc2ccc(CI)cc21

>  <Energy>  (4) 
88.73760736256878

>  <Genealogy>  (4) 
COCC[NH+](C)C(=O)CN(C)C(=O)n1c(C([NH-])=O)cc2ccc(CI)cc21 (protonated)
COCC[N@H+](C)C(=O)CN(C)C(=O)n1c(C([NH-])=O)cc2ccc(CI)cc21 (chirality)
COCC[N@H+](C)C(=O)CN(C)C(=O)n1c(C([NH-])=O)cc2ccc(CI)cc21 (3D coordinates assigned)
COCC[N@H+](C)C(=O)CN(C)C(=O)n1c(C([NH-])=O)cc2ccc(CI)cc21 (optimized conformer: 88.73760736256878 kcal/mol)

>  <smiles>  (4) 
COCCN(C)C(=O)CN(C)C(=O)n1c(C(N)=O)cc2ccc(CI)cc21

>  <score_type>  (4) 
oracle

>  <origin>  (4) 
adg

>  <m_score__min__energy>  (4) 
-6.1799999999999997

>  <m_primary>  (4) 
energy

$$$$
4:0
     RDKit          3D

 42 43  0  0  0  0  0  0  0  0999 V2000
  140.7300  155.8720  133.6130 C   0  0  0  0  0  0  0  0  0  0  0  0
  141.1690  157.1410  133.0250 N   0  0  0  0  0  0  0  0  0  0  0  0
  140.1600  158.1310  132.6080 C   0  0  0  0  0  0  0  0  0  0  0  0
  140.2510  159.3750  133.4370 C   0  0  0  0  0  0  0  0  0  0  0  0
  140.3510  160.5010  132.8820 O   0  0  0  0  0  0  0  0  0  0  0  0
  140.2690  159.2880  134.8230 O   0  0  0  0  0  0  0  0  0  0  0  0
  142.5920  157.4000  132.9600 C   0  0  0  0  0  0  0  0  0  0  0  0
  143.2350  157.0110  131.9460 O   0  0  0  0  0  0  0  0  0  0  0  0
  143.3380  158.1150  134.0230 C   0  0  0  0  0  0  0  0  0  0  0  0
  142.8580  158.2460  135.1790 O   0  0  0  0  0  0  0  0  0  0  0  0
  144.6260  158.6860  133.7400 N   0  0  0  0  0  0  0  0  0  0  0  0
  144.9250  160.0030  133.5610 C   0  0  0  0  0  0  0  0  0  0  0  0
  143.9740  161.1230  133.7410 C   0  0  0  0  0  0  0  0  0  0  0  0
  142.5720  160.8830  133.8910 N   0  0  0  0  0  0  0  0  0  0  0  0
  144.3930  162.3110  133.7510 O   0  0  0  0  0  0  0  0  0  0  0  0
  146.2740  160.1510  133.2350 C   0  0  0  0  0  0  0  0  0  0  0  0
  146.7860  158.8720  133.2090 C   0  0  0  0  0  0  0  0  0  0  0  0
  148.0710  158.4280  132.9220 C   0  0  0  0  0  0  0  0  0  0  0  0
  148.3110  157.0440  132.9400 C   0  0  0  0  0  0  0  0  0  0  0  0
  147.2660  156.1190  133.2340 C   0  0  0  0  0  0  0  0  0  0  0  0
  147.5210  154.6910  133.2440 N   0  0  0  0  0  0  0  0  0  0  0  0
  146.5650  153.7650  133.8650 C   0  0  0  0  0  0  0  0  0  0  0  0
  148.7410  154.1460  132.6320 C   0  0  0  0  0  0  0  0  0  0  0  0
  145.9700  156.6250  133.5170 C   0  0  0  0  0  0  0  0  0  0  0  0
  145.7700  158.0080  133.5120 C   0  0  0  0  0  0  0  0  0  0  0  0
  140.7562  155.9477  134.7101 H   0  0  0  0  0  0  0  0  0  0  0  0
  139.7034  155.6516  133.2851 H   0  0  0  0  0  0  0  0  0  0  0  0
  141.4010  155.0644  133.2851 H   0  0  0  0  0  0  0  0  0  0  0  0
  140.3258  158.3901  131.5519 H   0  0  0  0  0  0  0  0  0  0  0  0
  139.1611  157.6914  132.7458 H   0  0  0  0  0  0  0  0  0  0  0  0
  142.1870  159.9150  133.9550 H   0  0  0  0  0  0  0  0  0  0  0  0
  141.9120  161.6860  133.9830 H   0  0  0  0  0  0  0  0  0  0  0  0
  146.8138  161.0894  133.0402 H   0  0  0  0  0  0  0  0  0  0  0  0
  148.8766  159.1393  132.6876 H   0  0  0  0  0  0  0  0  0  0  0  0
  149.3217  156.6675  132.7238 H   0  0  0  0  0  0  0  0  0  0  0  0
  146.6413  153.8389  134.9599 H   0  0  0  0  0  0  0  0  0  0  0  0
  145.5440  154.0264  133.5501 H   0  0  0  0  0  0  0  0  0  0  0  0
  146.7937  152.7361  133.5501 H   0  0  0  0  0  0  0  0  0  0  0  0
  149.4397  153.8339  133.4222 H   0  0  0  0  0  0  0  0  0  0  0  0
  148.4819  153.2781  132.0079 H   0  0  0  0  0  0  0  0  0  0  0  0
  149.2145  154.9181  132.0079 H   0  0  0  0  0  0  0  0  0  0  0  0
  145.1376  155.9401  133.7364 H   0  0  0  0  0  0  0  0  0  0  0  0
  1  2  1  0
  2  3  1  0
  3  4  1  0
  4  5  2  0
  4  6  1  0
  2  7  1  0
  7  8  2  0
  7  9  1  0
  9 10  2  0
  9 11  1  0
 11 12  1  0
 12 13  1  0
 13 14  1  0
 13 15  2  0
 12 16  2  0
 16 17  1  0
 17 18  2  0
 18 19  1  0
 19 20  2  0
 20 21  1  0
 21 22  1  0
 21 23  1  0
 20 24  1  0
 24 25  2  0
 25 11  1  0
 25 17  1  0
  1 26  1  0
  1 27  1  0
  1 28  1  0
  3 29  1  0
  3 30  1  0
 14 31  1  0
 14 32  1  0
 16 33  1  0
 18 34  1  0
 19 35  1  0
 22 36  1  0
 22 37  1  0
 22 38  1  0
 23 39  1  0
 23 40  1  0
 23 41  1  0
 24 42  1  0
M  CHG  1   6  -1
M  END
>  <UniqueID>  (5) 
5

>  <SMILES>  (5) 
CN(CC(=O)[O-])C(=O)C(=O)n1c(C(N)=O)cc2ccc(N(C)C)cc21

>  <Energy>  (5) 
83.66279987017874

>  <Genealogy>  (5) 
CN(CC(=O)[O-])C(=O)C(=O)n1c(C(N)=O)cc2ccc(N(C)C)cc21 (protonated)
CN(CC(=O)[O-])C(=O)C(=O)n1c(C(N)=O)cc2ccc(N(C)C)cc21 (3D coordinates assigned)
CN(CC(=O)[O-])C(=O)C(=O)n1c(C(N)=O)cc2ccc(N(C)C)cc21 (optimized conformer: 83.66279987017874 kcal/mol)

>  <smiles>  (5) 
CN(CC(=O)O)C(=O)C(=O)n1c(C(N)=O)cc2ccc(N(C)C)cc21

>  <score_type>  (5) 
oracle

>  <origin>  (5) 
adg

>  <m_score__min__energy>  (5) 
-7.1600000000000001

>  <m_primary>  (5) 
energy

$$$$
5:0
     RDKit          3D

 39 42  0  0  0  0  0  0  0  0999 V2000
  148.4030  156.9310  134.8910 N   0  0  0  0  0  0  0  0  0  0  0  0
  147.4870  156.1300  134.1540 C   0  0  0  0  0  0  0  0  0  0  0  0
  147.9100  155.1160  133.5450 O   0  0  0  0  0  0  0  0  0  0  0  0
  146.0720  156.5430  134.0380 C   0  0  0  0  0  0  0  0  0  0  0  0
  144.9950  155.6620  134.1150 C   0  0  0  0  0  0  0  0  0  0  0  0
  143.8740  156.4320  133.8990 C   0  0  0  0  0  0  0  0  0  0  0  0
  142.5360  156.0660  133.7940 C   0  0  0  0  0  0  0  0  0  0  0  0
  141.5980  157.0740  133.5130 C   0  0  0  0  0  0  0  0  0  0  0  0
  142.0050  158.4280  133.3540 C   0  0  0  0  0  0  0  0  0  0  0  0
  140.9830  159.4880  133.0230 C   0  0  0  0  0  0  0  0  0  0  0  0
  141.4940  160.7470  133.2790 F   0  0  0  0  0  0  0  0  0  0  0  0
  139.8590  159.2890  133.8010 F   0  0  0  0  0  0  0  0  0  0  0  0
  140.6230  159.4310  131.6840 F   0  0  0  0  0  0  0  0  0  0  0  0
  143.3780  158.7520  133.4440 C   0  0  0  0  0  0  0  0  0  0  0  0
  144.2890  157.7280  133.7170 C   0  0  0  0  0  0  0  0  0  0  0  0
  145.6350  157.8060  133.7790 N   0  0  0  0  0  0  0  0  0  0  0  0
  146.4390  158.9500  133.4480 C   0  0  0  0  0  0  0  0  0  0  0  0
  145.8780  160.0670  133.2700 O   0  0  0  0  0  0  0  0  0  0  0  0
  147.8640  158.8330  133.2120 N   0  0  0  0  0  0  0  0  0  0  0  0
  148.1760  158.3640  131.8440 C   0  0  0  0  0  0  0  0  0  0  0  0
  148.8830  159.6560  131.5240 C   0  0  0  0  0  0  0  0  0  0  0  0
  150.2730  159.7220  130.9720 C   0  0  0  0  0  0  0  0  0  0  0  0
  149.8320  160.5190  129.8820 O   0  0  0  0  0  0  0  0  0  0  0  0
  148.4930  160.4950  130.3450 C   0  0  0  0  0  0  0  0  0  0  0  0
  148.5760  160.1000  132.9330 C   0  0  0  0  0  0  0  0  0  0  0  0
  149.2210  157.3820  134.4250 H   0  0  0  0  0  0  0  0  0  0  0  0
  145.0325  154.5797  134.3077 H   0  0  0  0  0  0  0  0  0  0  0  0
  142.2220  155.0202  133.9268 H   0  0  0  0  0  0  0  0  0  0  0  0
  140.5341  156.8125  133.4146 H   0  0  0  0  0  0  0  0  0  0  0  0
  143.7218  159.7873  133.3023 H   0  0  0  0  0  0  0  0  0  0  0  0
  148.3480  158.2670  133.9480 H   0  0  0  0  0  0  0  0  0  0  0  0
  148.8313  157.4809  131.8163 H   0  0  0  0  0  0  0  0  0  0  0  0
  147.3644  158.0109  131.1908 H   0  0  0  0  0  0  0  0  0  0  0  0
  150.9903  160.2304  131.6330 H   0  0  0  0  0  0  0  0  0  0  0  0
  150.8298  158.7930  130.7800 H   0  0  0  0  0  0  0  0  0  0  0  0
  148.0985  161.4855  130.6155 H   0  0  0  0  0  0  0  0  0  0  0  0
  147.6894  160.1555  129.6750 H   0  0  0  0  0  0  0  0  0  0  0  0
  149.4702  160.2533  133.5551 H   0  0  0  0  0  0  0  0  0  0  0  0
  148.0676  161.0604  133.1037 H   0  0  0  0  0  0  0  0  0  0  0  0
  1  2  1  0
  2  3  2  0
  2  4  1  0
  4  5  2  0
  5  6  1  0
  6  7  2  0
  7  8  1  0
  8  9  2  0
  9 10  1  0
 10 11  1  0
 10 12  1  0
 10 13  1  0
  9 14  1  0
 14 15  2  0
 15 16  1  0
 16 17  1  0
 17 18  2  0
 17 19  1  0
 19 20  1  0
 20 21  1  0
 21 22  1  0
 22 23  1  0
 23 24  1  0
 21 25  1  0
 16  4  1  0
 25 19  1  0
 15  6  1  0
 24 21  1  0
  1 26  1  0
  5 27  1  0
  7 28  1  0
  8 29  1  0
 14 30  1  0
 19 31  1  0
 20 32  1  0
 20 33  1  0
 22 34  1  0
 22 35  1  0
 24 36  1  0
 24 37  1  0
 25 38  1  0
 25 39  1  0
M  CHG  2   1  -1  19   1
M  END
>  <UniqueID>  (6) 
6

>  <SMILES>  (6) 
[NH-]C(=O)c1cc2ccc(C(F)(F)F)cc2n1C(=O)[NH+]1CC2(COC2)C1

>  <Energy>  (6) 
235.8861723852345

>  <Genealogy>  (6) 
[NH-]C(=O)c1cc2ccc(C(F)(F)F)cc2n1C(=O)[NH+]1CC2(COC2)C1 (protonated)
[NH-]C(=O)c1cc2ccc(C(F)(F)F)cc2n1C(=O)[NH+]1CC2(COC2)C1 (3D coordinates assigned)
[NH-]C(=O)c1cc2ccc(C(F)(F)F)cc2n1C(=O)[NH+]1CC2(COC2)C1 (nonaromatic ring conformer: 235.8861723852345 kcal/mol)

>  <smiles>  (6) 
NC(=O)c1cc2ccc(C(F)(F)F)cc2n1C(=O)N1CC2(COC2)C1

>  <score_type>  (6) 
oracle

>  <origin>  (6) 
adg

>  <m_score__min__energy>  (6) 
-7.0800000000000001

>  <m_primary>  (6) 
energy

$$$$
6:0
     RDKit          3D

 43 44  0  0  0  0  0  0  0  0999 V2000
  148.5800  152.8910  133.3340 C   0  0  0  0  0  0  0  0  0  0  0  0
  147.5870  154.0640  133.4800 C   0  0  0  0  0  0  0  0  0  0  0  0
  147.7250  154.6310  134.9080 C   0  0  0  0  0  0  0  0  0  0  0  0
  146.1540  153.5210  133.2430 C   0  0  0  0  0  0  0  0  0  0  0  0
  145.4450  153.3770  134.4450 O   0  0  0  0  0  0  0  0  0  0  0  0
  147.9190  155.0910  132.4710 N   0  0  0  0  0  0  0  0  0  0  0  0
  147.7310  156.4980  132.6700 C   0  0  0  0  0  0  0  0  0  0  0  0
  148.8280  157.3760  132.5130 C   0  0  0  0  0  0  0  0  0  0  0  0
  148.6760  158.7580  132.7190 C   0  0  0  0  0  0  0  0  0  0  0  0
  147.4220  159.2240  133.1010 C   0  0  0  0  0  0  0  0  0  0  0  0
  146.9880  160.5050  133.3590 C   0  0  0  0  0  0  0  0  0  0  0  0
  145.6400  160.3770  133.6960 C   0  0  0  0  0  0  0  0  0  0  0  0
  144.7870  161.5060  134.1180 C   0  0  0  0  0  0  0  0  0  0  0  0
  143.4140  161.5410  133.7360 N   0  0  0  0  0  0  0  0  0  0  0  0
  145.2650  162.4560  134.7930 O   0  0  0  0  0  0  0  0  0  0  0  0
  145.2590  159.0710  133.6440 N   0  0  0  0  0  0  0  0  0  0  0  0
  143.9510  158.5210  133.8490 C   0  0  0  0  0  0  0  0  0  0  0  0
  143.2950  158.8560  134.8740 O   0  0  0  0  0  0  0  0  0  0  0  0
  143.4450  157.4350  132.9390 C   0  0  0  0  0  0  0  0  0  0  0  0
  143.4810  156.0840  133.5930 C   0  0  0  0  0  0  0  0  0  0  0  0
  143.5840  155.0490  132.8800 O   0  0  0  0  0  0  0  0  0  0  0  0
  143.4310  155.9660  135.0150 N   0  0  0  0  0  0  0  0  0  0  0  0
  143.5330  154.7530  135.6080 O   0  0  0  0  0  0  0  0  0  0  0  0
  146.3580  158.3790  133.2840 C   0  0  0  0  0  0  0  0  0  0  0  0
  146.4770  157.0020  133.0780 C   0  0  0  0  0  0  0  0  0  0  0  0
  148.8792  152.5376  134.3318 H   0  0  0  0  0  0  0  0  0  0  0  0
  148.0987  152.0695  132.7831 H   0  0  0  0  0  0  0  0  0  0  0  0
  149.4697  153.2301  132.7831 H   0  0  0  0  0  0  0  0  0  0  0  0
  147.5308  153.8330  135.6397 H   0  0  0  0  0  0  0  0  0  0  0  0
  148.7440  155.0198  135.0513 H   0  0  0  0  0  0  0  0  0  0  0  0
  146.9987  155.4446  135.0513 H   0  0  0  0  0  0  0  0  0  0  0  0
  145.6112  154.2216  132.5914 H   0  0  0  0  0  0  0  0  0  0  0  0
  146.2378  152.5290  132.7750 H   0  0  0  0  0  0  0  0  0  0  0  0
  144.7070  154.0390  134.4300 H   0  0  0  0  0  0  0  0  0  0  0  0
  148.0860  154.7900  131.4840 H   0  0  0  0  0  0  0  0  0  0  0  0
  149.8108  156.9733  132.2266 H   0  0  0  0  0  0  0  0  0  0  0  0
  149.5211  159.4488  132.5826 H   0  0  0  0  0  0  0  0  0  0  0  0
  147.5783  161.4319  133.3099 H   0  0  0  0  0  0  0  0  0  0  0  0
  142.7880  160.7250  133.9140 H   0  0  0  0  0  0  0  0  0  0  0  0
  142.4068  157.6644  132.6569 H   0  0  0  0  0  0  0  0  0  0  0  0
  144.1014  157.4006  132.0570 H   0  0  0  0  0  0  0  0  0  0  0  0
  143.3160  156.8150  135.6100 H   0  0  0  0  0  0  0  0  0  0  0  0
  145.6189  156.3306  133.2293 H   0  0  0  0  0  0  0  0  0  0  0  0
  1  2  1  0
  2  3  1  0
  2  4  1  0
  4  5  1  0
  2  6  1  0
  6  7  1  0
  7  8  2  0
  8  9  1  0
  9 10  2  0
 10 11  1  0
 11 12  2  0
 12 13  1  0
 13 14  1  0
 13 15  2  0
 12 16  1  0
 16 17  1  0
 17 18  2  0
 17 19  1  0
 19 20  1  0
 20 21  2  0
 20 22  1  0
 22 23  1  0
 16 24  1  0
 24 25  2  0
 25  7  1  0
 24 10  1  0
  1 26  1  0
  1 27  1  0
  1 28  1  0
  3 29  1  0
  3 30  1  0
  3 31  1  0
  4 32  1  0
  4 33  1  0
  5 34  1  0
  6 35  1  0
  8 36  1  0
  9 37  1  0
 11 38  1  0
 14 39  1  0
 19 40  1  0
 19 41  1  0
 22 42  1  0
 25 43  1  0
M  CHG  2  14  -1  23  -1
M  END
>  <UniqueID>  (7) 
7

>  <SMILES>  (7) 
CC(C)(CO)Nc1ccc2cc(C([NH-])=O)n(C(=O)CC(=O)N[O-])c2c1

>  <Energy>  (7) 
84.4120392992314

>  <Genealogy>  (7) 
CC(C)(CO)Nc1ccc2cc(C([NH-])=O)n(C(=O)CC(=O)N[O-])c2c1 (protonated)
CC(C)(CO)Nc1ccc2cc(C([NH-])=O)n(C(=O)CC(=O)N[O-])c2c1 (3D coordinates assigned)
CC(C)(CO)Nc1ccc2cc(C([NH-])=O)n(C(=O)CC(=O)N[O-])c2c1 (optimized conformer: 84.4120392992314 kcal/mol)

>  <smiles>  (7) 
CC(C)(CO)Nc1ccc2cc(C(N)=O)n(C(=O)CC(=O)NO)c2c1

>  <score_type>  (7) 
oracle

>  <origin>  (7) 
adg

>  <m_score__min__energy>  (7) 
-7.6900000000000004

>  <m_primary>  (7) 
energy

$$$$
7:0
     RDKit          3D

 36 37  0  0  0  0  0  0  0  0999 V2000
  141.2460  156.5940  133.4180 C   0  0  0  0  0  0  0  0  0  0  0  0
  141.1510  158.0690  133.7990 C   0  0  0  0  0  0  0  0  0  0  0  0
  140.6120  158.1760  135.0700 F   0  0  0  0  0  0  0  0  0  0  0  0
  140.2950  158.7100  132.9190 F   0  0  0  0  0  0  0  0  0  0  0  0
  142.5220  158.7080  133.7600 C   0  0  0  0  0  0  0  0  0  0  0  0
  142.6610  160.1190  133.8450 C   0  0  0  0  0  0  0  0  0  0  0  0
  143.9260  160.7240  133.7490 C   0  0  0  0  0  0  0  0  0  0  0  0
  145.0300  159.9000  133.5560 C   0  0  0  0  0  0  0  0  0  0  0  0
  146.3590  160.2200  133.3810 C   0  0  0  0  0  0  0  0  0  0  0  0
  147.0090  159.0010  133.1860 C   0  0  0  0  0  0  0  0  0  0  0  0
  148.4710  158.8700  133.0220 C   0  0  0  0  0  0  0  0  0  0  0  0
  149.0300  158.4080  131.7960 N   0  0  0  0  0  0  0  0  0  0  0  0
  149.2350  159.1320  133.9890 O   0  0  0  0  0  0  0  0  0  0  0  0
  146.1170  157.9740  133.2360 N   0  0  0  0  0  0  0  0  0  0  0  0
  146.3500  156.5870  132.9600 C   0  0  0  0  0  0  0  0  0  0  0  0
  147.1030  156.2520  132.0080 O   0  0  0  0  0  0  0  0  0  0  0  0
  145.6370  155.3200  134.0130 S   0  0  0  0  0  0  0  0  0  0  0  0
  147.2420  154.5460  134.4380 C   0  0  0  0  0  0  0  0  0  0  0  0
  147.7070  154.9060  135.8520 C   0  0  0  0  0  0  0  0  0  0  0  0
  147.7260  153.7070  136.7480 C   0  0  0  0  0  0  0  0  0  0  0  0
  146.7010  152.9860  136.8630 O   0  0  0  0  0  0  0  0  0  0  0  0
  148.8890  153.3630  137.4260 O   0  0  0  0  0  0  0  0  0  0  0  0
  144.9140  158.5380  133.4660 C   0  0  0  0  0  0  0  0  0  0  0  0
  143.6680  157.9080  133.5470 C   0  0  0  0  0  0  0  0  0  0  0  0
  141.2855  155.9813  134.3307 H   0  0  0  0  0  0  0  0  0  0  0  0
  140.3642  156.3111  132.8243 H   0  0  0  0  0  0  0  0  0  0  0  0
  142.1568  156.4266  132.8243 H   0  0  0  0  0  0  0  0  0  0  0  0
  141.7682  160.7456  133.9876 H   0  0  0  0  0  0  0  0  0  0  0  0
  144.0395  161.8155  133.8242 H   0  0  0  0  0  0  0  0  0  0  0  0
  146.8110  161.2228  133.3926 H   0  0  0  0  0  0  0  0  0  0  0  0
  148.8110  157.4530  131.4320 H   0  0  0  0  0  0  0  0  0  0  0  0
  147.1368  153.4533  134.3681 H   0  0  0  0  0  0  0  0  0  0  0  0
  147.9947  154.9243  133.7307 H   0  0  0  0  0  0  0  0  0  0  0  0
  148.7217  155.3271  135.7977 H   0  0  0  0  0  0  0  0  0  0  0  0
  147.0000  155.6373  136.2709 H   0  0  0  0  0  0  0  0  0  0  0  0
  143.5817  156.8159  133.4473 H   0  0  0  0  0  0  0  0  0  0  0  0
  1  2  1  0
  2  3  1  0
  2  4  1  0
  2  5  1  0
  5  6  2  0
  6  7  1  0
  7  8  2  0
  8  9  1  0
  9 10  2  0
 10 11  1  0
 11 12  1  0
 11 13  2  0
 10 14  1  0
 14 15  1  0
 15 16  2  0
 15 17  1  0
 17 18  1  0
 18 19  1  0
 19 20  1  0
 20 21  2  0
 20 22  1  0
 14 23  1  0
 23 24  2  0
 24  5  1  0
 23  8  1  0
  1 25  1  0
  1 26  1  0
  1 27  1  0
  6 28  1  0
  7 29  1  0
  9 30  1  0
 12 31  1  0
 18 32  1  0
 18 33  1  0
 19 34  1  0
 19 35  1  0
 24 36  1  0
M  CHG  2  12  -1  22  -1
M  END
>  <UniqueID>  (8) 
8

>  <SMILES>  (8) 
CC(F)(F)c1ccc2cc(C([NH-])=O)n(C(=O)SCCC(=O)[O-])c2c1

>  <Energy>  (8) 
67.74623871201202

>  <Genealogy>  (8) 
CC(F)(F)c1ccc2cc(C([NH-])=O)n(C(=O)SCCC(=O)[O-])c2c1 (protonated)
CC(F)(F)c1ccc2cc(C([NH-])=O)n(C(=O)SCCC(=O)[O-])c2c1 (3D coordinates assigned)
CC(F)(F)c1ccc2cc(C([NH-])=O)n(C(=O)SCCC(=O)[O-])c2c1 (optimized conformer: 67.74623871201202 kcal/mol)

>  <smiles>  (8) 
CC(F)(F)c1ccc2cc(C(N)=O)n(C(=O)SCCC(=O)O)c2c1

>  <score_type>  (8) 
oracle

>  <origin>  (8) 
adg

>  <m_score__min__energy>  (8) 
-6.8799999999999999

>  <m_primary>  (8) 
energy

$$$$
8:0
     RDKit          3D

 42 43  0  0  0  0  0  0  0  0999 V2000
  138.6830  158.2280  132.8500 C   0  0  0  0  0  0  0  0  0  0  0  0
  140.1100  158.4690  133.0860 N   0  0  0  0  0  0  0  0  0  0  0  0
  140.5920  159.8360  133.3160 C   0  0  0  0  0  0  0  0  0  0  0  0
  141.8600  159.8330  134.1060 C   0  0  0  0  0  0  0  0  0  0  0  0
  141.8700  159.4030  135.2890 O   0  0  0  0  0  0  0  0  0  0  0  0
  143.0300  160.3230  133.5400 O   0  0  0  0  0  0  0  0  0  0  0  0
  141.0290  157.3620  132.9880 C   0  0  0  0  0  0  0  0  0  0  0  0
  142.0840  157.4840  132.3040 O   0  0  0  0  0  0  0  0  0  0  0  0
  140.7360  156.0960  133.5980 N   0  0  0  0  0  0  0  0  0  0  0  0
  139.7290  155.2340  132.9800 C   0  0  0  0  0  0  0  0  0  0  0  0
  141.6980  155.5190  134.4980 C   0  0  0  0  0  0  0  0  0  0  0  0
  141.5490  155.6290  135.7470 O   0  0  0  0  0  0  0  0  0  0  0  0
  142.8350  154.8160  133.9820 N   0  0  0  0  0  0  0  0  0  0  0  0
  144.0920  155.2970  133.7700 C   0  0  0  0  0  0  0  0  0  0  0  0
  144.5390  156.6800  134.0770 C   0  0  0  0  0  0  0  0  0  0  0  0
  143.6050  157.7020  134.4300 N   0  0  0  0  0  0  0  0  0  0  0  0
  145.7630  156.9750  134.0200 O   0  0  0  0  0  0  0  0  0  0  0  0
  144.9060  154.2900  133.2430 C   0  0  0  0  0  0  0  0  0  0  0  0
  144.0920  153.1830  133.1270 C   0  0  0  0  0  0  0  0  0  0  0  0
  144.3700  151.9080  132.6450 C   0  0  0  0  0  0  0  0  0  0  0  0
  143.3220  150.9710  132.6170 C   0  0  0  0  0  0  0  0  0  0  0  0
  142.0180  151.3260  133.0510 C   0  0  0  0  0  0  0  0  0  0  0  0
  140.9230  150.2920  133.0120 C   0  0  0  0  0  0  0  0  0  0  0  0
  141.3310  149.2210  132.2360 F   0  0  0  0  0  0  0  0  0  0  0  0
  139.7820  150.8430  132.4560 F   0  0  0  0  0  0  0  0  0  0  0  0
  140.6110  149.8310  134.2800 F   0  0  0  0  0  0  0  0  0  0  0  0
  141.7800  152.6310  133.5410 C   0  0  0  0  0  0  0  0  0  0  0  0
  142.8470  153.5320  133.5760 C   0  0  0  0  0  0  0  0  0  0  0  0
  138.1616  158.1399  133.8146 H   0  0  0  0  0  0  0  0  0  0  0  0
  138.2589  159.0672  132.2792 H   0  0  0  0  0  0  0  0  0  0  0  0
  138.5580  157.2960  132.2792 H   0  0  0  0  0  0  0  0  0  0  0  0
  140.7744  160.3207  132.3456 H   0  0  0  0  0  0  0  0  0  0  0  0
  139.8272  160.3853  133.8846 H   0  0  0  0  0  0  0  0  0  0  0  0
  139.1436  154.7329  133.7650 H   0  0  0  0  0  0  0  0  0  0  0  0
  139.0589  155.8427  132.3551 H   0  0  0  0  0  0  0  0  0  0  0  0
  140.2271  154.4781  132.3551 H   0  0  0  0  0  0  0  0  0  0  0  0
  143.9480  158.6710  134.6280 H   0  0  0  0  0  0  0  0  0  0  0  0
  142.5830  157.5150  134.5060 H   0  0  0  0  0  0  0  0  0  0  0  0
  145.9707  154.3649  132.9771 H   0  0  0  0  0  0  0  0  0  0  0  0
  145.3786  151.6411  132.2965 H   0  0  0  0  0  0  0  0  0  0  0  0
  143.5150  149.9506  132.2544 H   0  0  0  0  0  0  0  0  0  0  0  0
  140.7791  152.9294  133.8862 H   0  0  0  0  0  0  0  0  0  0  0  0
  1  2  1  0
  2  3  1  0
  3  4  1  0
  4  5  2  0
  4  6  1  0
  2  7  1  0
  7  8  2  0
  7  9  1  0
  9 10  1  0
  9 11  1  0
 11 12  2  0
 11 13  1  0
 13 14  1  0
 14 15  1  0
 15 16  1  0
 15 17  2  0
 14 18  2  0
 18 19  1  0
 19 20  2  0
 20 21  1  0
 21 22  2  0
 22 23  1  0
 23 24  1  0
 23 25  1  0
 23 26  1  0
 22 27  1  0
 27 28  2  0
 28 13  1  0
 28 19  1  0
  1 29  1  0
  1 30  1  0
  1 31  1  0
  3 32  1  0
  3 33  1  0
 10 34  1  0
 10 35  1  0
 10 36  1  0
 16 37  1  0
 16 38  1  0
 18 39  1  0
 20 40  1  0
 21 41  1  0
 27 42  1  0
M  CHG  1   6  -1
M  END
>  <UniqueID>  (9) 
9

>  <SMILES>  (9) 
CN(CC(=O)[O-])C(=O)N(C)C(=O)n1c(C(N)=O)cc2ccc(C(F)(F)F)cc21

>  <Energy>  (9) 
85.91209904036823

>  <Genealogy>  (9) 
CN(CC(=O)[O-])C(=O)N(C)C(=O)n1c(C(N)=O)cc2ccc(C(F)(F)F)cc21 (protonated)
CN(CC(=O)[O-])C(=O)N(C)C(=O)n1c(C(N)=O)cc2ccc(C(F)(F)F)cc21 (3D coordinates assigned)
CN(CC(=O)[O-])C(=O)N(C)C(=O)n1c(C(N)=O)cc2ccc(C(F)(F)F)cc21 (optimized conformer: 85.91209904036823 kcal/mol)

>  <smiles>  (9) 
CN(CC(=O)O)C(=O)N(C)C(=O)n1c(C(N)=O)cc2ccc(C(F)(F)F)cc21

>  <score_type>  (9) 
oracle

>  <origin>  (9) 
adg

>  <m_score__min__energy>  (9) 
-6.2300000000000004

>  <m_primary>  (9) 
energy

$$$$
9:0
     RDKit          3D

 41 42  0  0  0  0  0  0  0  0999 V2000
  139.4750  157.8780  135.0080 C   0  0  0  0  0  0  0  0  0  0  0  0
  141.0030  157.8770  134.8760 C   0  0  2  0  0  0  0  0  0  0  0  0
  141.5350  159.0340  135.4710 O   0  0  0  0  0  0  0  0  0  0  0  0
  141.4540  157.7820  133.4000 C   0  0  2  0  0  0  0  0  0  0  0  0
  142.7080  158.5150  133.1980 N   0  0  0  0  0  0  0  0  0  0  0  0
  143.9000  158.2140  133.9390 C   0  0  0  0  0  0  0  0  0  0  0  0
  143.8730  157.3490  134.8570 O   0  0  0  0  0  0  0  0  0  0  0  0
  145.1280  158.8900  133.6330 N   0  0  0  0  0  0  0  0  0  0  0  0
  145.3730  160.2300  133.6610 C   0  0  0  0  0  0  0  0  0  0  0  0
  144.3710  161.2890  133.9060 C   0  0  0  0  0  0  0  0  0  0  0  0
  142.9840  160.9620  133.9290 N   0  0  0  0  0  0  0  0  0  0  0  0
  144.7280  162.4780  134.1210 O   0  0  0  0  0  0  0  0  0  0  0  0
  146.7090  160.4880  133.3560 C   0  0  0  0  0  0  0  0  0  0  0  0
  147.2790  159.2540  133.1390 C   0  0  0  0  0  0  0  0  0  0  0  0
  148.5910  158.9150  132.8170 C   0  0  0  0  0  0  0  0  0  0  0  0
  148.9050  157.5520  132.6830 C   0  0  0  0  0  0  0  0  0  0  0  0
  147.9110  156.5660  132.8800 C   0  0  0  0  0  0  0  0  0  0  0  0
  148.2460  155.1720  132.7520 C   0  0  0  0  0  0  0  0  0  0  0  0
  148.5250  154.0040  132.6450 C   0  0  0  0  0  0  0  0  0  0  0  0
  148.8670  152.5880  132.5160 C   0  0  0  0  0  0  0  0  0  0  0  0
  150.2550  152.4380  132.5960 O   0  0  0  0  0  0  0  0  0  0  0  0
  146.5920  156.9410  133.2070 C   0  0  0  0  0  0  0  0  0  0  0  0
  146.3030  158.3060  133.3140 C   0  0  0  0  0  0  0  0  0  0  0  0
  140.4010  158.3120  132.4630 C   0  0  0  0  0  0  0  0  0  0  0  0
  139.3660  157.6350  132.2270 O   0  0  0  0  0  0  0  0  0  0  0  0
  140.5510  159.5610  131.8720 O   0  0  0  0  0  0  0  0  0  0  0  0
  139.1990  157.8782  136.0728 H   0  0  0  0  0  0  0  0  0  0  0  0
  139.0657  158.7764  134.5229 H   0  0  0  0  0  0  0  0  0  0  0  0
  139.0645  156.9801  134.5229 H   0  0  0  0  0  0  0  0  0  0  0  0
  141.3842  156.9860  135.3963 H   0  0  0  0  0  0  0  0  0  0  0  0
  142.4360  159.1730  135.0760 H   0  0  0  0  0  0  0  0  0  0  0  0
  141.6123  156.7174  133.1732 H   0  0  0  0  0  0  0  0  0  0  0  0
  142.7420  159.3090  132.5180 H   0  0  0  0  0  0  0  0  0  0  0  0
  142.5370  160.5750  134.7890 H   0  0  0  0  0  0  0  0  0  0  0  0
  147.2027  161.4694  133.3006 H   0  0  0  0  0  0  0  0  0  0  0  0
  149.3577  159.6904  132.6721 H   0  0  0  0  0  0  0  0  0  0  0  0
  149.9304  157.2502  132.4232 H   0  0  0  0  0  0  0  0  0  0  0  0
  148.3887  152.0192  133.3270 H   0  0  0  0  0  0  0  0  0  0  0  0
  148.5111  152.2101  131.5462 H   0  0  0  0  0  0  0  0  0  0  0  0
  150.6330  152.9790  131.8540 H   0  0  0  0  0  0  0  0  0  0  0  0
  145.8127  156.1827  133.3732 H   0  0  0  0  0  0  0  0  0  0  0  0
  1  2  1  0
  2  3  1  0
  2  4  1  0
  4  5  1  0
  5  6  1  0
  6  7  2  0
  6  8  1  0
  8  9  1  0
  9 10  1  0
 10 11  1  0
 10 12  2  0
  9 13  2  0
 13 14  1  0
 14 15  2  0
 15 16  1  0
 16 17  2  0
 17 18  1  0
 18 19  3  0
 19 20  1  0
 20 21  1  0
 17 22  1  0
 22 23  2  0
  4 24  1  0
 24 25  2  0
 24 26  1  0
 23  8  1  0
 23 14  1  0
  1 27  1  0
  1 28  1  0
  1 29  1  0
  2 30  1  1
  3 31  1  0
  4 32  1  6
  5 33  1  0
 11 34  1  0
 13 35  1  0
 15 36  1  0
 16 37  1  0
 20 38  1  0
 20 39  1  0
 21 40  1  0
 22 41  1  0
M  CHG  2  11  -1  26  -1
M  END
>  <UniqueID>  (10) 
10

>  <SMILES>  (10) 
C[C@H](O)[C@H](NC(=O)n1c(C([NH-])=O)cc2ccc(C#CCO)cc21)C(=O)[O-]

>  <Energy>  (10) 
69.95686032216526

>  <Genealogy>  (10) 
CC(O)[C@H](NC(=O)n1c(C([NH-])=O)cc2ccc(C#CCO)cc21)C(=O)[O-] (protonated)
C[C@H](O)[C@H](NC(=O)n1c(C([NH-])=O)cc2ccc(C#CCO)cc21)C(=O)[O-] (chirality)
C[C@H](O)[C@H](NC(=O)n1c(C([NH-])=O)cc2ccc(C#CCO)cc21)C(=O)[O-] (3D coordinates assigned)
C[C@H](O)[C@H](NC(=O)n1c(C([NH-])=O)cc2ccc(C#CCO)cc21)C(=O)[O-] (optimized conformer: 69.95686032216526 kcal/mol)

>  <smiles>  (10) 
CC(O)[C@H](NC(=O)n1c(C(N)=O)cc2ccc(C#CCO)cc21)C(=O)O

>  <score_type>  (10) 
oracle

>  <origin>  (10) 
adg

>  <m_score__min__energy>  (10) 
-7.3600000000000003

>  <m_primary>  (10) 
energy

$$$$
10:0
     RDKit          3D

 32 33  0  0  0  0  0  0  0  0999 V2000
  143.0190  160.4130  133.3530 N   0  0  0  0  0  0  0  0  0  0  0  0
  144.3750  160.6070  133.7490 C   0  0  0  0  0  0  0  0  0  0  0  0
  144.6990  161.6700  134.3410 O   0  0  0  0  0  0  0  0  0  0  0  0
  145.3780  159.5540  133.4820 C   0  0  0  0  0  0  0  0  0  0  0  0
  146.7460  159.7960  133.3730 C   0  0  0  0  0  0  0  0  0  0  0  0
  147.3100  158.5760  133.0770 C   0  0  0  0  0  0  0  0  0  0  0  0
  148.6420  158.2270  132.8790 C   0  0  0  0  0  0  0  0  0  0  0  0
  148.9410  156.8800  132.6180 C   0  0  0  0  0  0  0  0  0  0  0  0
  147.9070  155.9030  132.5650 C   0  0  0  0  0  0  0  0  0  0  0  0
  148.1900  154.5130  132.3110 N   0  0  0  0  0  0  0  0  0  0  0  0
  149.4620  153.8560  132.6100 C   0  0  0  0  0  0  0  0  0  0  0  0
  149.3580  152.3750  132.3790 C   0  0  0  0  0  0  0  0  0  0  0  0
  150.3400  151.6330  132.6440 O   0  0  0  0  0  0  0  0  0  0  0  0
  148.1620  151.7890  131.8650 N   0  0  0  0  0  0  0  0  0  0  0  0
  147.0700  151.9120  132.4570 O   0  0  0  0  0  0  0  0  0  0  0  0
  146.5700  156.3000  132.7790 C   0  0  0  0  0  0  0  0  0  0  0  0
  146.3010  157.6520  133.0170 C   0  0  0  0  0  0  0  0  0  0  0  0
  145.1090  158.2370  133.2590 N   0  0  0  0  0  0  0  0  0  0  0  0
  143.8340  157.5810  133.3230 C   0  0  0  0  0  0  0  0  0  0  0  0
  143.0660  157.6050  132.3230 O   0  0  0  0  0  0  0  0  0  0  0  0
  143.4120  156.8490  134.5590 C   0  0  0  0  0  0  0  0  0  0  0  0
  142.0960  157.7370  135.3650 Cl  0  0  0  0  0  0  0  0  0  0  0  0
  142.7720  159.7360  132.5970 H   0  0  0  0  0  0  0  0  0  0  0  0
  147.2649  160.7579  133.4972 H   0  0  0  0  0  0  0  0  0  0  0  0
  149.4382  158.9845  132.9256 H   0  0  0  0  0  0  0  0  0  0  0  0
  149.9853  156.5766  132.4527 H   0  0  0  0  0  0  0  0  0  0  0  0
  147.4480  153.9300  131.8610 H   0  0  0  0  0  0  0  0  0  0  0  0
  150.2450  154.2698  131.9575 H   0  0  0  0  0  0  0  0  0  0  0  0
  149.7141  154.0339  133.6658 H   0  0  0  0  0  0  0  0  0  0  0  0
  145.7554  155.5610  132.7591 H   0  0  0  0  0  0  0  0  0  0  0  0
  143.0602  155.8432  134.2858 H   0  0  0  0  0  0  0  0  0  0  0  0
  144.2689  156.7682  135.2440 H   0  0  0  0  0  0  0  0  0  0  0  0
  1  2  1  0
  2  3  2  0
  2  4  1  0
  4  5  2  0
  5  6  1  0
  6  7  2  0
  7  8  1  0
  8  9  2  0
  9 10  1  0
 10 11  1  0
 11 12  1  0
 12 13  2  0
 12 14  1  0
 14 15  2  0
  9 16  1  0
 16 17  2  0
 17 18  1  0
 18 19  1  0
 19 20  2  0
 19 21  1  0
 21 22  1  0
 18  4  1  0
 17  6  1  0
  1 23  1  0
  5 24  1  0
  7 25  1  0
  8 26  1  0
 10 27  1  0
 11 28  1  0
 11 29  1  0
 16 30  1  0
 21 31  1  0
 21 32  1  0
M  CHG  1   1  -1
M  END
>  <UniqueID>  (11) 
11

>  <SMILES>  (11) 
[NH-]C(=O)c1cc2ccc(NCC(=O)N=O)cc2n1C(=O)CCl

>  <Energy>  (11) 
69.39126338480021

>  <Genealogy>  (11) 
[NH-]C(=O)c1cc2ccc(NCC(=O)N=O)cc2n1C(=O)CCl (protonated)
[NH-]C(=O)c1cc2ccc(NCC(=O)N=O)cc2n1C(=O)CCl (3D coordinates assigned)
[NH-]C(=O)c1cc2ccc(NCC(=O)N=O)cc2n1C(=O)CCl (optimized conformer: 69.39126338480021 kcal/mol)

>  <smiles>  (11) 
NC(=O)c1cc2ccc(NCC(=O)N=O)cc2n1C(=O)CCl

>  <score_type>  (11) 
oracle

>  <origin>  (11) 
adg

>  <m_score__min__energy>  (11) 
-6.7800000000000002

>  <m_primary>  (11) 
energy

$$$$
11:0
     RDKit          3D

 46 47  0  0  0  0  0  0  0  0999 V2000
  148.5320  153.6870  132.5500 C   0  0  0  0  0  0  0  0  0  0  0  0
  148.2260  154.8430  132.7030 C   0  0  0  0  0  0  0  0  0  0  0  0
  147.8560  156.2220  132.8880 C   0  0  0  0  0  0  0  0  0  0  0  0
  148.8480  157.2290  132.8610 C   0  0  0  0  0  0  0  0  0  0  0  0
  148.4950  158.5800  133.0180 C   0  0  0  0  0  0  0  0  0  0  0  0
  147.1500  158.8840  133.2070 C   0  0  0  0  0  0  0  0  0  0  0  0
  146.5280  160.1040  133.3550 C   0  0  0  0  0  0  0  0  0  0  0  0
  145.1710  159.8140  133.4960 C   0  0  0  0  0  0  0  0  0  0  0  0
  144.1290  160.8310  133.7650 C   0  0  0  0  0  0  0  0  0  0  0  0
  142.7780  160.6200  133.3520 N   0  0  0  0  0  0  0  0  0  0  0  0
  144.4320  161.9080  134.3430 O   0  0  0  0  0  0  0  0  0  0  0  0
  144.9650  158.4680  133.4390 N   0  0  0  0  0  0  0  0  0  0  0  0
  143.7160  157.7640  133.5110 C   0  0  0  0  0  0  0  0  0  0  0  0
  142.9930  157.6640  132.4830 O   0  0  0  0  0  0  0  0  0  0  0  0
  143.3110  157.2080  134.7320 O   0  0  0  0  0  0  0  0  0  0  0  0
  141.9960  156.8460  135.0560 C   0  0  0  0  0  0  0  0  0  0  0  0
  141.6060  155.6550  134.9110 O   0  0  0  0  0  0  0  0  0  0  0  0
  141.0890  157.8400  135.5680 N   0  0  0  0  0  0  0  0  0  0  0  0
  140.6780  157.7950  136.9730 C   0  0  0  0  0  0  0  0  0  0  0  0
  140.5770  158.8930  134.6820 C   0  0  0  0  0  0  0  0  0  0  0  0
  140.1920  158.3040  133.3230 C   0  0  0  0  0  0  0  0  0  0  0  0
  140.4970  159.2590  132.2480 N   0  0  0  0  0  0  0  0  0  0  0  0
  139.5010  159.1840  131.1710 C   0  0  0  0  0  0  0  0  0  0  0  0
  138.6730  160.4620  131.1350 C   0  0  0  0  0  0  0  0  0  0  0  0
  146.1830  157.9140  133.2600 C   0  0  0  0  0  0  0  0  0  0  0  0
  146.5030  156.5630  133.0860 C   0  0  0  0  0  0  0  0  0  0  0  0
  148.8112  152.6322  132.4104 H   0  0  0  0  0  0  0  0  0  0  0  0
  149.9029  156.9531  132.7161 H   0  0  0  0  0  0  0  0  0  0  0  0
  149.2576  159.3723  132.9924 H   0  0  0  0  0  0  0  0  0  0  0  0
  147.0013  161.0969  133.3608 H   0  0  0  0  0  0  0  0  0  0  0  0
  142.0590  161.3590  133.5180 H   0  0  0  0  0  0  0  0  0  0  0  0
  142.4740  159.7180  132.9230 H   0  0  0  0  0  0  0  0  0  0  0  0
  141.5641  157.8920  137.6175 H   0  0  0  0  0  0  0  0  0  0  0  0
  139.9829  158.6224  137.1784 H   0  0  0  0  0  0  0  0  0  0  0  0
  140.1783  156.8368  137.1784 H   0  0  0  0  0  0  0  0  0  0  0  0
  139.6905  159.3545  135.1416 H   0  0  0  0  0  0  0  0  0  0  0  0
  141.3622  159.6491  134.5344 H   0  0  0  0  0  0  0  0  0  0  0  0
  140.7590  157.3763  133.1559 H   0  0  0  0  0  0  0  0  0  0  0  0
  139.1126  158.0922  133.3177 H   0  0  0  0  0  0  0  0  0  0  0  0
  141.4240  158.9950  131.8380 H   0  0  0  0  0  0  0  0  0  0  0  0
  140.0159  159.0566  130.2073 H   0  0  0  0  0  0  0  0  0  0  0  0
  138.8350  158.3281  131.3550 H   0  0  0  0  0  0  0  0  0  0  0  0
  138.4604  160.7902  132.1631 H   0  0  0  0  0  0  0  0  0  0  0  0
  139.2341  161.2477  130.6079 H   0  0  0  0  0  0  0  0  0  0  0  0
  137.7266  160.2710  130.6079 H   0  0  0  0  0  0  0  0  0  0  0  0
  145.7211  155.7895  133.1033 H   0  0  0  0  0  0  0  0  0  0  0  0
  1  2  3  0
  2  3  1  0
  3  4  2  0
  4  5  1  0
  5  6  2  0
  6  7  1  0
  7  8  2  0
  8  9  1  0
  9 10  1  0
  9 11  2  0
  8 12  1  0
 12 13  1  0
 13 14  2  0
 13 15  1  0
 15 16  1  0
 16 17  2  0
 16 18  1  0
 18 19  1  0
 18 20  1  0
 20 21  1  0
 21 22  1  0
 22 23  1  0
 23 24  1  0
 12 25  1  0
 25 26  2  0
 26  3  1  0
 25  6  1  0
  1 27  1  0
  4 28  1  0
  5 29  1  0
  7 30  1  0
 10 31  1  0
 10 32  1  0
 19 33  1  0
 19 34  1  0
 19 35  1  0
 20 36  1  0
 20 37  1  0
 21 38  1  0
 21 39  1  0
 22 40  1  0
 23 41  1  0
 23 42  1  0
 24 43  1  0
 24 44  1  0
 24 45  1  0
 26 46  1  0
M  END
>  <UniqueID>  (12) 
12

>  <SMILES>  (12) 
C#Cc1ccc2cc(C(N)=O)n(C(=O)OC(=O)N(C)CCNCC)c2c1

>  <Energy>  (12) 
72.850571139774

>  <Genealogy>  (12) 
C#Cc1ccc2cc(C(N)=O)n(C(=O)OC(=O)N(C)CCNCC)c2c1 (3D coordinates assigned)
C#Cc1ccc2cc(C(N)=O)n(C(=O)OC(=O)N(C)CCNCC)c2c1 (optimized conformer: 72.850571139774 kcal/mol)

>  <smiles>  (12) 
C#Cc1ccc2cc(C(N)=O)n(C(=O)OC(=O)N(C)CCNCC)c2c1

>  <score_type>  (12) 
oracle

>  <origin>  (12) 
adg

>  <m_score__min__energy>  (12) 
-7.8399999999999999

>  <m_primary>  (12) 
energy

$$$$
12:0
     RDKit          3D

 42 43  0  0  0  0  0  0  0  0999 V2000
  144.0360  159.9030  133.9310 C   0  0  0  0  0  0  0  0  0  0  0  0
  145.3030  160.2150  133.2780 N   0  0  0  0  0  0  0  0  0  0  0  0
  146.3610  159.2570  133.0930 C   0  0  0  0  0  0  0  0  0  0  0  0
  147.6550  159.6530  132.6570 C   0  0  0  0  0  0  0  0  0  0  0  0
  148.6720  158.7010  132.4700 C   0  0  0  0  0  0  0  0  0  0  0  0
  148.3740  157.3680  132.7330 C   0  0  0  0  0  0  0  0  0  0  0  0
  149.1580  156.2430  132.6070 C   0  0  0  0  0  0  0  0  0  0  0  0
  148.3410  155.1770  132.9850 C   0  0  0  0  0  0  0  0  0  0  0  0
  148.7820  153.7640  133.0520 C   0  0  0  0  0  0  0  0  0  0  0  0
  148.2370  152.8700  134.0250 N   0  0  0  0  0  0  0  0  0  0  0  0
  149.6350  153.3300  132.2340 O   0  0  0  0  0  0  0  0  0  0  0  0
  147.1070  155.6310  133.3400 N   0  0  0  0  0  0  0  0  0  0  0  0
  145.9680  154.8470  133.7300 C   0  0  0  0  0  0  0  0  0  0  0  0
  145.2090  154.3690  132.8440 O   0  0  0  0  0  0  0  0  0  0  0  0
  145.6810  154.5880  135.1490 C   0  0  0  0  0  0  0  0  0  0  0  0
  144.8240  155.2870  135.7550 O   0  0  0  0  0  0  0  0  0  0  0  0
  146.3910  153.5560  135.8400 N   0  0  0  0  0  0  0  0  0  0  0  0
  147.0280  153.7420  137.1400 C   0  0  1  0  0  0  0  0  0  0  0  0
  146.2930  152.9360  138.2150 C   0  0  0  0  0  0  0  0  0  0  0  0
  148.4600  153.3050  137.0600 C   0  0  0  0  0  0  0  0  0  0  0  0
  148.7790  152.3120  136.3490 O   0  0  0  0  0  0  0  0  0  0  0  0
  149.4290  153.9900  137.8000 O   0  0  0  0  0  0  0  0  0  0  0  0
  149.7030  153.6910  139.1640 C   0  0  0  0  0  0  0  0  0  0  0  0
  147.1400  156.9710  133.1710 C   0  0  0  0  0  0  0  0  0  0  0  0
  146.1020  157.8920  133.3460 C   0  0  0  0  0  0  0  0  0  0  0  0
  144.1683  159.9356  135.0225 H   0  0  0  0  0  0  0  0  0  0  0  0
  143.2775  160.6412  133.6314 H   0  0  0  0  0  0  0  0  0  0  0  0
  143.7070  158.8970  133.6314 H   0  0  0  0  0  0  0  0  0  0  0  0
  145.4400  161.1920  132.9280 H   0  0  0  0  0  0  0  0  0  0  0  0
  147.8625  160.7159  132.4639 H   0  0  0  0  0  0  0  0  0  0  0  0
  149.6729  159.0009  132.1262 H   0  0  0  0  0  0  0  0  0  0  0  0
  150.2065  156.1949  132.2779 H   0  0  0  0  0  0  0  0  0  0  0  0
  147.5790  153.2020  134.7640 H   0  0  0  0  0  0  0  0  0  0  0  0
  148.5300  151.8680  134.0350 H   0  0  0  0  0  0  0  0  0  0  0  0
  146.9844  154.8068  137.4127 H   0  0  0  0  0  0  0  0  0  0  0  0
  146.6075  153.2809  139.2110 H   0  0  0  0  0  0  0  0  0  0  0  0
  145.2081  153.0793  138.1030 H   0  0  0  0  0  0  0  0  0  0  0  0
  146.5354  151.8689  138.1030 H   0  0  0  0  0  0  0  0  0  0  0  0
  149.1020  154.3469  139.8110 H   0  0  0  0  0  0  0  0  0  0  0  0
  149.4472  152.6407  139.3677 H   0  0  0  0  0  0  0  0  0  0  0  0
  150.7716  153.8543  139.3677 H   0  0  0  0  0  0  0  0  0  0  0  0
  145.1057  157.5603  133.6735 H   0  0  0  0  0  0  0  0  0  0  0  0
  1  2  1  0
  2  3  1  0
  3  4  2  0
  4  5  1  0
  5  6  2  0
  6  7  1  0
  7  8  2  0
  8  9  1  0
  9 10  1  0
  9 11  2  0
  8 12  1  0
 12 13  1  0
 13 14  2  0
 13 15  1  0
 15 16  2  0
 15 17  1  0
 17 18  1  0
 18 19  1  0
 18 20  1  0
 20 21  2  0
 20 22  1  0
 22 23  1  0
 12 24  1  0
 24 25  2  0
 25  3  1  0
 24  6  1  0
  1 26  1  0
  1 27  1  0
  1 28  1  0
  2 29  1  0
  4 30  1  0
  5 31  1  0
  7 32  1  0
 10 33  1  0
 10 34  1  0
 18 35  1  1
 19 36  1  0
 19 37  1  0
 19 38  1  0
 23 39  1  0
 23 40  1  0
 23 41  1  0
 25 42  1  0
M  CHG  1  17  -1
M  END
>  <UniqueID>  (13) 
13

>  <SMILES>  (13) 
CNc1ccc2cc(C(N)=O)n(C(=O)C(=O)[N-][C@@H](C)C(=O)OC)c2c1

>  <Energy>  (13) 
72.26761384010024

>  <Genealogy>  (13) 
CNc1ccc2cc(C(N)=O)n(C(=O)C(=O)[N-]C(C)C(=O)OC)c2c1 (protonated)
CNc1ccc2cc(C(N)=O)n(C(=O)C(=O)[N-][C@@H](C)C(=O)OC)c2c1 (chirality)
CNc1ccc2cc(C(N)=O)n(C(=O)C(=O)[N-][C@@H](C)C(=O)OC)c2c1 (3D coordinates assigned)
CNc1ccc2cc(C(N)=O)n(C(=O)C(=O)[N-][C@@H](C)C(=O)OC)c2c1 (optimized conformer: 72.26761384010024 kcal/mol)

>  <smiles>  (13) 
CNc1ccc2cc(C(N)=O)n(C(=O)C(=O)NC(C)C(=O)OC)c2c1

>  <score_type>  (13) 
oracle

>  <origin>  (13) 
adg

>  <m_score__min__energy>  (13) 
-6.9100000000000001

>  <m_primary>  (13) 
energy

$$$$
13:0
     RDKit          3D

 44 45  0  0  0  0  0  0  0  0999 V2000
  149.5850  160.7050  130.1780 C   0  0  0  0  0  0  0  0  0  0  0  0
  148.4830  160.9980  131.1900 C   0  0  0  0  0  0  0  0  0  0  0  0
  148.1380  159.7610  131.9740 C   0  0  0  0  0  0  0  0  0  0  0  0
  149.1650  158.8940  132.4230 C   0  0  0  0  0  0  0  0  0  0  0  0
  148.8570  157.7480  133.1760 C   0  0  0  0  0  0  0  0  0  0  0  0
  147.5190  157.5060  133.4750 C   0  0  0  0  0  0  0  0  0  0  0  0
  146.9380  156.4680  134.1700 C   0  0  0  0  0  0  0  0  0  0  0  0
  145.5680  156.7330  134.1540 C   0  0  0  0  0  0  0  0  0  0  0  0
  144.5560  155.8850  134.8170 C   0  0  0  0  0  0  0  0  0  0  0  0
  143.2980  156.4420  135.1930 N   0  0  0  0  0  0  0  0  0  0  0  0
  144.7820  154.6670  135.0440 O   0  0  0  0  0  0  0  0  0  0  0  0
  145.3180  157.8900  133.4800 N   0  0  0  0  0  0  0  0  0  0  0  0
  144.0430  158.4980  133.2320 C   0  0  0  0  0  0  0  0  0  0  0  0
  143.1720  157.8740  132.5680 O   0  0  0  0  0  0  0  0  0  0  0  0
  143.7100  159.8310  133.8290 C   0  0  0  0  0  0  0  0  0  0  0  0
  142.4780  159.7130  134.6650 C   0  0  0  0  0  0  0  0  0  0  0  0
  142.5020  159.0350  135.7290 O   0  0  0  0  0  0  0  0  0  0  0  0
  141.2640  160.3260  134.2250 N   0  0  0  0  0  0  0  0  0  0  0  0
  140.3150  159.6560  133.3450 C   0  0  0  0  0  0  0  0  0  0  0  0
  139.9640  158.2660  133.8980 C   0  0  1  0  0  0  0  0  0  0  0  0
  141.0000  157.3640  133.6100 O   0  0  0  0  0  0  0  0  0  0  0  0
  139.7300  158.2910  135.4150 C   0  0  0  0  0  0  0  0  0  0  0  0
  140.6060  157.4080  136.0590 O   0  0  0  0  0  0  0  0  0  0  0  0
  146.5180  158.3490  133.0690 C   0  0  0  0  0  0  0  0  0  0  0  0
  146.7920  159.4870  132.3050 C   0  0  0  0  0  0  0  0  0  0  0  0
  150.5153  160.4577  130.7103 H   0  0  0  0  0  0  0  0  0  0  0  0
  149.2866  159.8550  129.5468 H   0  0  0  0  0  0  0  0  0  0  0  0
  149.7482  161.5910  129.5468 H   0  0  0  0  0  0  0  0  0  0  0  0
  148.8275  161.7801  131.8826 H   0  0  0  0  0  0  0  0  0  0  0  0
  147.5866  161.3351  130.6489 H   0  0  0  0  0  0  0  0  0  0  0  0
  150.2137  159.1202  132.1798 H   0  0  0  0  0  0  0  0  0  0  0  0
  149.6478  157.0642  133.5181 H   0  0  0  0  0  0  0  0  0  0  0  0
  147.4461  155.6121  134.6381 H   0  0  0  0  0  0  0  0  0  0  0  0
  142.8680  157.2170  134.6410 H   0  0  0  0  0  0  0  0  0  0  0  0
  144.5471  160.1701  134.4568 H   0  0  0  0  0  0  0  0  0  0  0  0
  143.5355  160.5586  133.0227 H   0  0  0  0  0  0  0  0  0  0  0  0
  139.3984  160.2598  133.2729 H   0  0  0  0  0  0  0  0  0  0  0  0
  140.7698  159.5407  132.3501 H   0  0  0  0  0  0  0  0  0  0  0  0
  139.0299  157.9468  133.4126 H   0  0  0  0  0  0  0  0  0  0  0  0
  141.7570  157.5930  134.2100 H   0  0  0  0  0  0  0  0  0  0  0  0
  139.9013  159.3103  135.7914 H   0  0  0  0  0  0  0  0  0  0  0  0
  138.6951  157.9807  135.6214 H   0  0  0  0  0  0  0  0  0  0  0  0
  141.5070  157.5920  135.6850 H   0  0  0  0  0  0  0  0  0  0  0  0
  145.9816  160.1513  131.9705 H   0  0  0  0  0  0  0  0  0  0  0  0
  1  2  1  0
  2  3  1  0
  3  4  2  0
  4  5  1  0
  5  6  2  0
  6  7  1  0
  7  8  2  0
  8  9  1  0
  9 10  1  0
  9 11  2  0
  8 12  1  0
 12 13  1  0
 13 14  2  0
 13 15  1  0
 15 16  1  0
 16 17  2  0
 16 18  1  0
 18 19  1  0
 19 20  1  0
 20 21  1  0
 20 22  1  0
 22 23  1  0
 12 24  1  0
 24 25  2  0
 25  3  1  0
 24  6  1  0
  1 26  1  0
  1 27  1  0
  1 28  1  0
  2 29  1  0
  2 30  1  0
  4 31  1  0
  5 32  1  0
  7 33  1  0
 10 34  1  0
 15 35  1  0
 15 36  1  0
 19 37  1  0
 19 38  1  0
 20 39  1  6
 21 40  1  0
 22 41  1  0
 22 42  1  0
 23 43  1  0
 25 44  1  0
M  CHG  2  10  -1  18  -1
M  END
>  <UniqueID>  (14) 
14

>  <SMILES>  (14) 
CCc1ccc2cc(C([NH-])=O)n(C(=O)CC(=O)[N-]C[C@@H](O)CO)c2c1

>  <Energy>  (14) 
71.23682977338646

>  <Genealogy>  (14) 
CCc1ccc2cc(C([NH-])=O)n(C(=O)CC(=O)[N-]CC(O)CO)c2c1 (protonated)
CCc1ccc2cc(C([NH-])=O)n(C(=O)CC(=O)[N-]C[C@@H](O)CO)c2c1 (chirality)
CCc1ccc2cc(C([NH-])=O)n(C(=O)CC(=O)[N-]C[C@@H](O)CO)c2c1 (3D coordinates assigned)
CCc1ccc2cc(C([NH-])=O)n(C(=O)CC(=O)[N-]C[C@@H](O)CO)c2c1 (optimized conformer: 71.23682977338646 kcal/mol)

>  <smiles>  (14) 
CCc1ccc2cc(C(N)=O)n(C(=O)CC(=O)NCC(O)CO)c2c1

>  <score_type>  (14) 
oracle

>  <origin>  (14) 
adg

>  <m_score__min__energy>  (14) 
-5.4100000000000001

>  <m_primary>  (14) 
energy

$$$$
14:0
     RDKit          3D

 49 50  0  0  0  0  0  0  0  0999 V2000
  143.9560  155.6040  135.1200 C   0  0  0  0  0  0  0  0  0  0  0  0
  143.5480  156.1220  133.8110 N   0  0  0  0  0  0  0  0  0  0  0  0
  143.6900  155.2690  132.6240 C   0  0  0  0  0  0  0  0  0  0  0  0
  145.0340  154.6110  132.6170 C   0  0  0  0  0  0  0  0  0  0  0  0
  145.9970  155.1430  132.0070 O   0  0  0  0  0  0  0  0  0  0  0  0
  145.2290  153.4200  133.3060 O   0  0  0  0  0  0  0  0  0  0  0  0
  142.8690  157.3930  133.7370 C   0  0  0  0  0  0  0  0  0  0  0  0
  141.6090  157.4340  133.7130 O   0  0  0  0  0  0  0  0  0  0  0  0
  143.6060  158.6220  133.6770 N   0  0  0  0  0  0  0  0  0  0  0  0
  143.1380  159.8900  133.8480 C   0  0  0  0  0  0  0  0  0  0  0  0
  141.7270  160.2660  134.0830 C   0  0  0  0  0  0  0  0  0  0  0  0
  140.9970  159.7340  135.1850 N   0  0  0  0  0  0  0  0  0  0  0  0
  141.1530  161.0590  133.2890 O   0  0  0  0  0  0  0  0  0  0  0  0
  144.1820  160.8080  133.7540 C   0  0  0  0  0  0  0  0  0  0  0  0
  145.3110  160.0550  133.5140 C   0  0  0  0  0  0  0  0  0  0  0  0
  146.6360  160.4480  133.3540 C   0  0  0  0  0  0  0  0  0  0  0  0
  147.5990  159.4450  133.1470 C   0  0  0  0  0  0  0  0  0  0  0  0
  147.2220  158.0790  133.0990 C   0  0  0  0  0  0  0  0  0  0  0  0
  148.2640  157.0090  132.9430 C   0  0  0  0  0  0  0  0  0  0  0  0
  148.1210  155.9760  134.0320 C   0  0  0  0  0  0  0  0  0  0  0  0
  148.1240  156.3450  135.1980 O   0  0  0  0  0  0  0  0  0  0  0  0
  147.9720  154.5700  133.7010 N   0  0  2  0  0  0  0  0  0  0  0  0
  147.7170  153.7650  134.9080 C   0  0  0  0  0  0  0  0  0  0  0  0
  149.1020  154.0630  132.8820 C   0  0  0  0  0  0  0  0  0  0  0  0
  148.7850  152.8170  132.0350 C   0  0  0  0  0  0  0  0  0  0  0  0
  147.4520  152.4450  132.2500 O   0  0  0  0  0  0  0  0  0  0  0  0
  145.8660  157.7190  133.2650 C   0  0  0  0  0  0  0  0  0  0  0  0
  144.9320  158.7390  133.4660 C   0  0  0  0  0  0  0  0  0  0  0  0
  143.4850  156.2020  135.9140 H   0  0  0  0  0  0  0  0  0  0  0  0
  143.6390  154.5549  135.2142 H   0  0  0  0  0  0  0  0  0  0  0  0
  145.0502  155.6663  135.2142 H   0  0  0  0  0  0  0  0  0  0  0  0
  142.9073  154.4962  132.6364 H   0  0  0  0  0  0  0  0  0  0  0  0
  143.5905  155.8905  131.7219 H   0  0  0  0  0  0  0  0  0  0  0  0
  140.8150  158.7100  135.2650 H   0  0  0  0  0  0  0  0  0  0  0  0
  144.1185  161.9019  133.8508 H   0  0  0  0  0  0  0  0  0  0  0  0
  146.9210  161.5099  133.3884 H   0  0  0  0  0  0  0  0  0  0  0  0
  148.6559  159.7228  133.0210 H   0  0  0  0  0  0  0  0  0  0  0  0
  148.1414  156.5232  131.9637 H   0  0  0  0  0  0  0  0  0  0  0  0
  149.2612  157.4678  133.0140 H   0  0  0  0  0  0  0  0  0  0  0  0
  147.1160  154.4720  133.1040 H   0  0  0  0  0  0  0  0  0  0  0  0
  147.9101  154.3747  135.8030 H   0  0  0  0  0  0  0  0  0  0  0  0
  146.6690  153.4308  134.9112 H   0  0  0  0  0  0  0  0  0  0  0  0
  148.3814  152.8883  134.9112 H   0  0  0  0  0  0  0  0  0  0  0  0
  149.4174  154.8672  132.2010 H   0  0  0  0  0  0  0  0  0  0  0  0
  149.8848  153.7600  133.5929 H   0  0  0  0  0  0  0  0  0  0  0  0
  148.9363  153.0471  130.9700 H   0  0  0  0  0  0  0  0  0  0  0  0
  149.4519  151.9917  132.3250 H   0  0  0  0  0  0  0  0  0  0  0  0
  146.8970  153.1760  131.8730 H   0  0  0  0  0  0  0  0  0  0  0  0
  145.5538  156.6646  133.2368 H   0  0  0  0  0  0  0  0  0  0  0  0
  1  2  1  0
  2  3  1  0
  3  4  1  0
  4  5  2  0
  4  6  1  0
  2  7  1  0
  7  8  2  0
  7  9  1  0
  9 10  1  0
 10 11  1  0
 11 12  1  0
 11 13  2  0
 10 14  2  0
 14 15  1  0
 15 16  2  0
 16 17  1  0
 17 18  2  0
 18 19  1  0
 19 20  1  0
 20 21  2  0
 20 22  1  0
 22 23  1  0
 22 24  1  0
 24 25  1  0
 25 26  1  0
 18 27  1  0
 27 28  2  0
 28  9  1  0
 28 15  1  0
  1 29  1  0
  1 30  1  0
  1 31  1  0
  3 32  1  0
  3 33  1  0
 12 34  1  0
 14 35  1  0
 16 36  1  0
 17 37  1  0
 19 38  1  0
 19 39  1  0
 22 40  1  6
 23 41  1  0
 23 42  1  0
 23 43  1  0
 24 44  1  0
 24 45  1  0
 25 46  1  0
 25 47  1  0
 26 48  1  0
 27 49  1  0
M  CHG  3   6  -1  12  -1  22   1
M  END
>  <UniqueID>  (15) 
15

>  <SMILES>  (15) 
CN(CC(=O)[O-])C(=O)n1c(C([NH-])=O)cc2ccc(CC(=O)[N@H+](C)CCO)cc21

>  <Energy>  (15) 
84.04996175353034

>  <Genealogy>  (15) 
CN(CC(=O)[O-])C(=O)n1c(C([NH-])=O)cc2ccc(CC(=O)[NH+](C)CCO)cc21 (protonated)
CN(CC(=O)[O-])C(=O)n1c(C([NH-])=O)cc2ccc(CC(=O)[N@H+](C)CCO)cc21 (chirality)
CN(CC(=O)[O-])C(=O)n1c(C([NH-])=O)cc2ccc(CC(=O)[N@H+](C)CCO)cc21 (3D coordinates assigned)
CN(CC(=O)[O-])C(=O)n1c(C([NH-])=O)cc2ccc(CC(=O)[N@H+](C)CCO)cc21 (optimized conformer: 84.04996175353034 kcal/mol)

>  <smiles>  (15) 
CN(CCO)C(=O)Cc1ccc2cc(C(N)=O)n(C(=O)N(C)CC(=O)O)c2c1

>  <score_type>  (15) 
oracle

>  <origin>  (15) 
adg

>  <m_score__min__energy>  (15) 
-4.8899999999999997

>  <m_primary>  (15) 
energy

$$$$
15:0
     RDKit          3D

 39 40  0  0  0  0  0  0  0  0999 V2000
  137.9060  160.4840  131.3730 C   0  0  0  0  0  0  0  0  0  0  0  0
  138.6590  159.6520  131.8130 C   0  0  0  0  0  0  0  0  0  0  0  0
  139.5620  158.6610  132.3350 C   0  0  0  0  0  0  0  0  0  0  0  0
  139.1310  157.3230  132.4910 C   0  0  0  0  0  0  0  0  0  0  0  0
  140.0160  156.3410  132.9710 C   0  0  0  0  0  0  0  0  0  0  0  0
  141.3130  156.7340  133.2930 C   0  0  0  0  0  0  0  0  0  0  0  0
  142.3850  155.9840  133.7190 C   0  0  0  0  0  0  0  0  0  0  0  0
  143.4400  156.8860  133.8400 C   0  0  0  0  0  0  0  0  0  0  0  0
  144.7900  156.5060  134.3060 C   0  0  0  0  0  0  0  0  0  0  0  0
  145.9570  156.8420  133.5530 N   0  0  0  0  0  0  0  0  0  0  0  0
  144.9190  155.9190  135.4130 O   0  0  0  0  0  0  0  0  0  0  0  0
  143.0400  158.1420  133.4980 N   0  0  0  0  0  0  0  0  0  0  0  0
  143.8560  159.3130  133.3460 C   0  0  0  0  0  0  0  0  0  0  0  0
  143.4490  160.4220  133.7870 O   0  0  0  0  0  0  0  0  0  0  0  0
  145.1030  159.2160  132.7200 O   0  0  0  0  0  0  0  0  0  0  0  0
  146.2510  159.9280  133.1760 C   0  0  0  0  0  0  0  0  0  0  0  0
  147.2800  159.0050  133.5180 O   0  0  0  0  0  0  0  0  0  0  0  0
  148.1560  158.4680  132.5690 C   0  0  0  0  0  0  0  0  0  0  0  0
  148.0400  157.2720  132.1880 O   0  0  0  0  0  0  0  0  0  0  0  0
  149.2780  159.3060  132.0470 C   0  0  0  0  0  0  0  0  0  0  0  0
  149.2450  159.3360  130.5170 C   0  0  0  0  0  0  0  0  0  0  0  0
  149.5050  160.7210  130.0140 C   0  0  0  0  0  0  0  0  0  0  0  0
  149.9840  160.8950  128.8620 O   0  0  0  0  0  0  0  0  0  0  0  0
  149.2590  161.8160  130.8320 O   0  0  0  0  0  0  0  0  0  0  0  0
  141.7350  158.0330  133.1660 C   0  0  0  0  0  0  0  0  0  0  0  0
  140.8800  159.0250  132.6720 C   0  0  0  0  0  0  0  0  0  0  0  0
  137.2188  161.2433  130.9714 H   0  0  0  0  0  0  0  0  0  0  0  0
  138.0969  157.0487  132.2352 H   0  0  0  0  0  0  0  0  0  0  0  0
  139.6942  155.2957  133.0884 H   0  0  0  0  0  0  0  0  0  0  0  0
  142.4049  154.9029  133.9210 H   0  0  0  0  0  0  0  0  0  0  0  0
  146.8960  156.5170  133.8720 H   0  0  0  0  0  0  0  0  0  0  0  0
  145.9030  157.4830  132.7310 H   0  0  0  0  0  0  0  0  0  0  0  0
  146.6084  160.5959  132.3784 H   0  0  0  0  0  0  0  0  0  0  0  0
  145.9842  160.5229  134.0619 H   0  0  0  0  0  0  0  0  0  0  0  0
  149.1766  160.3310  132.4332 H   0  0  0  0  0  0  0  0  0  0  0  0
  150.2340  158.8740  132.3779 H   0  0  0  0  0  0  0  0  0  0  0  0
  150.0171  158.6576  130.1249 H   0  0  0  0  0  0  0  0  0  0  0  0
  148.2495  159.0150  130.1764 H   0  0  0  0  0  0  0  0  0  0  0  0
  141.2283  160.0613  132.5502 H   0  0  0  0  0  0  0  0  0  0  0  0
  1  2  3  0
  2  3  1  0
  3  4  2  0
  4  5  1  0
  5  6  2  0
  6  7  1  0
  7  8  2  0
  8  9  1  0
  9 10  1  0
  9 11  2  0
  8 12  1  0
 12 13  1  0
 13 14  2  0
 13 15  1  0
 15 16  1  0
 16 17  1  0
 17 18  1  0
 18 19  2  0
 18 20  1  0
 20 21  1  0
 21 22  1  0
 22 23  2  0
 22 24  1  0
 12 25  1  0
 25 26  2  0
 26  3  1  0
 25  6  1  0
  1 27  1  0
  4 28  1  0
  5 29  1  0
  7 30  1  0
 10 31  1  0
 10 32  1  0
 16 33  1  0
 16 34  1  0
 20 35  1  0
 20 36  1  0
 21 37  1  0
 21 38  1  0
 26 39  1  0
M  CHG  1  24  -1
M  END
>  <UniqueID>  (16) 
16

>  <SMILES>  (16) 
C#Cc1ccc2cc(C(N)=O)n(C(=O)OCOC(=O)CCC(=O)[O-])c2c1

>  <Energy>  (16) 
67.5620293551625

>  <Genealogy>  (16) 
C#Cc1ccc2cc(C(N)=O)n(C(=O)OCOC(=O)CCC(=O)[O-])c2c1 (protonated)
C#Cc1ccc2cc(C(N)=O)n(C(=O)OCOC(=O)CCC(=O)[O-])c2c1 (3D coordinates assigned)
C#Cc1ccc2cc(C(N)=O)n(C(=O)OCOC(=O)CCC(=O)[O-])c2c1 (optimized conformer: 67.5620293551625 kcal/mol)

>  <smiles>  (16) 
C#Cc1ccc2cc(C(N)=O)n(C(=O)OCOC(=O)CCC(=O)O)c2c1

>  <score_type>  (16) 
oracle

>  <origin>  (16) 
adg

>  <m_score__min__energy>  (16) 
-7.7400000000000002

>  <m_primary>  (16) 
energy

$$$$
16:0
     RDKit          3D

 34 35  0  0  0  0  0  0  0  0999 V2000
  145.4380  154.0950  134.5610 C   0  0  0  0  0  0  0  0  0  0  0  0
  146.7260  154.7130  135.0490 C   0  0  0  0  0  0  0  0  0  0  0  0
  147.3160  155.7410  134.4020 C   0  0  0  0  0  0  0  0  0  0  0  0
  146.7630  156.4430  133.2230 C   0  0  0  0  0  0  0  0  0  0  0  0
  146.5930  155.7900  132.1600 O   0  0  0  0  0  0  0  0  0  0  0  0
  146.4900  157.8550  133.2340 N   0  0  0  0  0  0  0  0  0  0  0  0
  147.3660  158.8670  132.9770 C   0  0  0  0  0  0  0  0  0  0  0  0
  148.7540  158.6900  132.4890 C   0  0  0  0  0  0  0  0  0  0  0  0
  149.1580  157.4770  131.8510 N   0  0  0  0  0  0  0  0  0  0  0  0
  149.6010  159.6090  132.6480 O   0  0  0  0  0  0  0  0  0  0  0  0
  146.7500  160.1030  133.1660 C   0  0  0  0  0  0  0  0  0  0  0  0
  145.4640  159.8140  133.5640 C   0  0  0  0  0  0  0  0  0  0  0  0
  144.4120  160.6650  133.8870 C   0  0  0  0  0  0  0  0  0  0  0  0
  143.1940  160.0890  134.2810 C   0  0  0  0  0  0  0  0  0  0  0  0
  143.0540  158.6790  134.3710 C   0  0  0  0  0  0  0  0  0  0  0  0
  141.7290  158.0700  134.7530 C   0  0  0  0  0  0  0  0  0  0  0  0
  141.5370  158.1370  136.1220 F   0  0  0  0  0  0  0  0  0  0  0  0
  141.7080  156.7450  134.3600 F   0  0  0  0  0  0  0  0  0  0  0  0
  140.6860  158.7400  134.1370 F   0  0  0  0  0  0  0  0  0  0  0  0
  144.1390  157.8470  134.0140 C   0  0  0  0  0  0  0  0  0  0  0  0
  145.3350  158.4500  133.6060 C   0  0  0  0  0  0  0  0  0  0  0  0
  147.3400  154.1700  136.2870 C   0  0  0  0  0  0  0  0  0  0  0  0
  146.9380  153.0860  136.7870 O   0  0  0  0  0  0  0  0  0  0  0  0
  148.3810  154.8490  136.9090 O   0  0  0  0  0  0  0  0  0  0  0  0
  144.8229  153.7999  135.4239 H   0  0  0  0  0  0  0  0  0  0  0  0
  144.8878  154.8272  133.9518 H   0  0  0  0  0  0  0  0  0  0  0  0
  145.6648  153.2077  133.9518 H   0  0  0  0  0  0  0  0  0  0  0  0
  148.2887  156.0851  134.7833 H   0  0  0  0  0  0  0  0  0  0  0  0
  150.1500  157.3530  131.5460 H   0  0  0  0  0  0  0  0  0  0  0  0
  148.4760  156.7170  131.6380 H   0  0  0  0  0  0  0  0  0  0  0  0
  147.1967  161.0985  133.0267 H   0  0  0  0  0  0  0  0  0  0  0  0
  144.5311  161.7573  133.8352 H   0  0  0  0  0  0  0  0  0  0  0  0
  142.3387  160.7371  134.5227 H   0  0  0  0  0  0  0  0  0  0  0  0
  144.0462  156.7517  134.0557 H   0  0  0  0  0  0  0  0  0  0  0  0
  1  2  1  0
  2  3  2  3
  3  4  1  0
  4  5  2  0
  4  6  1  0
  6  7  1  0
  7  8  1  0
  8  9  1  0
  8 10  2  0
  7 11  2  0
 11 12  1  0
 12 13  2  0
 13 14  1  0
 14 15  2  0
 15 16  1  0
 16 17  1  0
 16 18  1  0
 16 19  1  0
 15 20  1  0
 20 21  2  0
  2 22  1  0
 22 23  2  0
 22 24  1  0
 21  6  1  0
 21 12  1  0
  1 25  1  0
  1 26  1  0
  1 27  1  0
  3 28  1  0
  9 29  1  0
  9 30  1  0
 11 31  1  0
 13 32  1  0
 14 33  1  0
 20 34  1  0
M  CHG  1  24  -1
M  END
>  <UniqueID>  (17) 
17

>  <SMILES>  (17) 
CC(=CC(=O)n1c(C(N)=O)cc2ccc(C(F)(F)F)cc21)C(=O)[O-]

>  <Energy>  (17) 
77.11349415502352

>  <Genealogy>  (17) 
CC(=CC(=O)n1c(C(N)=O)cc2ccc(C(F)(F)F)cc21)C(=O)[O-] (protonated)
CC(=CC(=O)n1c(C(N)=O)cc2ccc(C(F)(F)F)cc21)C(=O)[O-] (3D coordinates assigned)
CC(=CC(=O)n1c(C(N)=O)cc2ccc(C(F)(F)F)cc21)C(=O)[O-] (optimized conformer: 77.11349415502352 kcal/mol)

>  <smiles>  (17) 
CC(=CC(=O)n1c(C(N)=O)cc2ccc(C(F)(F)F)cc21)C(=O)O

>  <score_type>  (17) 
oracle

>  <origin>  (17) 
adg

>  <m_score__min__energy>  (17) 
-7.2800000000000002

>  <m_primary>  (17) 
energy

$$$$
17:0
     RDKit          3D

 44 45  0  0  0  0  0  0  0  0999 V2000
  140.0850  154.8520  139.0800 C   0  0  0  0  0  0  0  0  0  0  0  0
  140.9980  155.9960  138.6560 C   0  0  0  0  0  0  0  0  0  0  0  0
  140.5670  156.5550  137.4150 O   0  0  0  0  0  0  0  0  0  0  0  0
  141.3440  156.5310  136.2510 C   0  0  0  0  0  0  0  0  0  0  0  0
  142.5180  156.0690  136.2670 O   0  0  0  0  0  0  0  0  0  0  0  0
  140.7910  157.1030  134.9840 C   0  0  0  0  0  0  0  0  0  0  0  0
  141.8380  157.8250  134.2720 N   0  0  0  0  0  0  0  0  0  0  0  0
  142.1330  159.2070  134.4980 C   0  0  0  0  0  0  0  0  0  0  0  0
  141.8810  159.7410  135.6110 O   0  0  0  0  0  0  0  0  0  0  0  0
  142.7950  160.0080  133.4220 C   0  0  0  0  0  0  0  0  0  0  0  0
  143.9970  159.3670  132.9990 O   0  0  0  0  0  0  0  0  0  0  0  0
  145.2730  159.7880  133.3950 C   0  0  0  0  0  0  0  0  0  0  0  0
  145.4220  160.9060  133.9570 O   0  0  0  0  0  0  0  0  0  0  0  0
  146.4160  158.9460  133.1550 N   0  0  0  0  0  0  0  0  0  0  0  0
  146.6360  157.6880  133.6360 C   0  0  0  0  0  0  0  0  0  0  0  0
  145.6690  156.8730  134.4030 C   0  0  0  0  0  0  0  0  0  0  0  0
  144.2640  157.0810  134.2520 N   0  0  0  0  0  0  0  0  0  0  0  0
  146.0770  156.0170  135.2310 O   0  0  0  0  0  0  0  0  0  0  0  0
  147.8780  157.2140  133.2220 C   0  0  0  0  0  0  0  0  0  0  0  0
  148.4180  158.2230  132.4600 C   0  0  0  0  0  0  0  0  0  0  0  0
  149.6450  158.2870  131.8050 C   0  0  0  0  0  0  0  0  0  0  0  0
  149.9580  159.4650  131.1090 C   0  0  0  0  0  0  0  0  0  0  0  0
  149.0470  160.5480  131.0770 C   0  0  0  0  0  0  0  0  0  0  0  0
  149.4160  161.8210  130.3750 C   0  0  0  0  0  0  0  0  0  0  0  0
  147.8180  160.4530  131.7670 C   0  0  0  0  0  0  0  0  0  0  0  0
  147.5200  159.2590  132.4350 C   0  0  0  0  0  0  0  0  0  0  0  0
  140.0453  154.8023  140.1782 H   0  0  0  0  0  0  0  0  0  0  0  0
  139.0733  155.0242  138.6840 H   0  0  0  0  0  0  0  0  0  0  0  0
  140.4773  153.9037  138.6840 H   0  0  0  0  0  0  0  0  0  0  0  0
  140.9795  156.7779  139.4295 H   0  0  0  0  0  0  0  0  0  0  0  0
  142.0186  155.6051  138.5312 H   0  0  0  0  0  0  0  0  0  0  0  0
  140.4128  156.2879  134.3495 H   0  0  0  0  0  0  0  0  0  0  0  0
  139.9707  157.7952  135.2248 H   0  0  0  0  0  0  0  0  0  0  0  0
  142.1115  160.1002  132.5651 H   0  0  0  0  0  0  0  0  0  0  0  0
  143.0399  161.0053  133.8163 H   0  0  0  0  0  0  0  0  0  0  0  0
  143.8890  157.7420  133.5360 H   0  0  0  0  0  0  0  0  0  0  0  0
  143.5880  156.5370  134.8330 H   0  0  0  0  0  0  0  0  0  0  0  0
  148.3311  156.2391  133.4551 H   0  0  0  0  0  0  0  0  0  0  0  0
  150.3472  157.4407  131.8321 H   0  0  0  0  0  0  0  0  0  0  0  0
  150.9207  159.5474  130.5832 H   0  0  0  0  0  0  0  0  0  0  0  0
  149.6414  162.5984  131.1199 H   0  0  0  0  0  0  0  0  0  0  0  0
  150.3013  161.6491  129.7451 H   0  0  0  0  0  0  0  0  0  0  0  0
  148.5760  162.1492  129.7451 H   0  0  0  0  0  0  0  0  0  0  0  0
  147.1122  161.2966  131.7792 H   0  0  0  0  0  0  0  0  0  0  0  0
  1  2  1  0
  2  3  1  0
  3  4  1  0
  4  5  2  0
  4  6  1  0
  6  7  1  0
  7  8  1  0
  8  9  2  0
  8 10  1  0
 10 11  1  0
 11 12  1  0
 12 13  2  0
 12 14  1  0
 14 15  1  0
 15 16  1  0
 16 17  1  0
 16 18  2  0
 15 19  2  0
 19 20  1  0
 20 21  2  0
 21 22  1  0
 22 23  2  0
 23 24  1  0
 23 25  1  0
 25 26  2  0
 26 14  1  0
 26 20  1  0
  1 27  1  0
  1 28  1  0
  1 29  1  0
  2 30  1  0
  2 31  1  0
  6 32  1  0
  6 33  1  0
 10 34  1  0
 10 35  1  0
 17 36  1  0
 17 37  1  0
 19 38  1  0
 21 39  1  0
 22 40  1  0
 24 41  1  0
 24 42  1  0
 24 43  1  0
 25 44  1  0
M  CHG  1   7  -1
M  END
>  <UniqueID>  (18) 
18

>  <SMILES>  (18) 
CCOC(=O)C[N-]C(=O)COC(=O)n1c(C(N)=O)cc2ccc(C)cc21

>  <Energy>  (18) 
69.39537000923973

>  <Genealogy>  (18) 
CCOC(=O)C[N-]C(=O)COC(=O)n1c(C(N)=O)cc2ccc(C)cc21 (protonated)
CCOC(=O)C[N-]C(=O)COC(=O)n1c(C(N)=O)cc2ccc(C)cc21 (3D coordinates assigned)
CCOC(=O)C[N-]C(=O)COC(=O)n1c(C(N)=O)cc2ccc(C)cc21 (optimized conformer: 69.39537000923973 kcal/mol)

>  <smiles>  (18) 
CCOC(=O)CNC(=O)COC(=O)n1c(C(N)=O)cc2ccc(C)cc21

>  <score_type>  (18) 
oracle

>  <origin>  (18) 
adg

>  <m_score__min__energy>  (18) 
-6.3499999999999996

>  <m_primary>  (18) 
energy

$$$$
18:0
     RDKit          3D

 55 56  0  0  0  0  0  0  0  0999 V2000
  137.2960  159.7310  131.0220 C   0  0  0  0  0  0  0  0  0  0  0  0
  138.7120  159.2680  130.6940 C   0  0  1  0  0  0  0  0  0  0  0  0
  139.3660  160.2500  129.9710 F   0  0  0  0  0  0  0  0  0  0  0  0
  139.4770  158.9540  131.9540 C   0  0  0  0  0  0  0  0  0  0  0  0
  140.0030  160.0070  132.7460 C   0  0  0  0  0  0  0  0  0  0  0  0
  140.7420  159.7300  133.9100 C   0  0  0  0  0  0  0  0  0  0  0  0
  140.9430  158.3950  134.2520 C   0  0  0  0  0  0  0  0  0  0  0  0
  141.6310  157.8390  135.3090 C   0  0  0  0  0  0  0  0  0  0  0  0
  141.5230  156.4590  135.1360 C   0  0  0  0  0  0  0  0  0  0  0  0
  142.1360  155.4650  136.0410 C   0  0  0  0  0  0  0  0  0  0  0  0
  143.5420  155.2410  136.0410 N   0  0  0  0  0  0  0  0  0  0  0  0
  141.4050  154.7960  136.8220 O   0  0  0  0  0  0  0  0  0  0  0  0
  140.7970  156.1810  134.0190 N   0  0  0  0  0  0  0  0  0  0  0  0
  140.5220  154.8980  133.4440 C   0  0  0  0  0  0  0  0  0  0  0  0
  139.3800  154.6510  132.9790 O   0  0  0  0  0  0  0  0  0  0  0  0
  141.5920  153.8550  133.3990 C   0  0  0  0  0  0  0  0  0  0  0  0
  142.8530  154.4910  133.4310 O   0  0  0  0  0  0  0  0  0  0  0  0
  143.6150  154.1610  132.2870 C   0  0  0  0  0  0  0  0  0  0  0  0
  144.8780  155.0410  132.2290 C   0  0  0  0  0  0  0  0  0  0  0  0
  145.0220  155.9090  133.4220 N   0  0  2  0  0  0  0  0  0  0  0  0
  144.1510  157.0950  133.3500 C   0  0  0  0  0  0  0  0  0  0  0  0
  146.4010  156.3380  133.5520 C   0  0  0  0  0  0  0  0  0  0  0  0
  146.7130  157.5330  133.2850 O   0  0  0  0  0  0  0  0  0  0  0  0
  147.4300  155.4210  133.9710 N   0  0  0  0  0  0  0  0  0  0  0  0
  148.4720  155.0490  133.0090 C   0  0  0  0  0  0  0  0  0  0  0  0
  147.5770  155.0220  135.3780 C   0  0  0  0  0  0  0  0  0  0  0  0
  146.7140  153.8350  135.6680 C   0  0  0  0  0  0  0  0  0  0  0  0
  145.7330  153.5650  134.9270 O   0  0  0  0  0  0  0  0  0  0  0  0
  146.9820  153.0330  136.7710 O   0  0  0  0  0  0  0  0  0  0  0  0
  140.4530  157.3700  133.4880 C   0  0  0  0  0  0  0  0  0  0  0  0
  139.7200  157.6110  132.3240 C   0  0  0  0  0  0  0  0  0  0  0  0
  137.1676  159.7730  132.1137 H   0  0  0  0  0  0  0  0  0  0  0  0
  137.1288  160.7306  130.5944 H   0  0  0  0  0  0  0  0  0  0  0  0
  136.5705  159.0233  130.5944 H   0  0  0  0  0  0  0  0  0  0  0  0
  138.6527  158.3499  130.0911 H   0  0  0  0  0  0  0  0  0  0  0  0
  139.8310  161.0513  132.4464 H   0  0  0  0  0  0  0  0  0  0  0  0
  141.1484  160.5421  134.5307 H   0  0  0  0  0  0  0  0  0  0  0  0
  142.1542  158.3706  136.1175 H   0  0  0  0  0  0  0  0  0  0  0  0
  144.0240  154.8470  135.2040 H   0  0  0  0  0  0  0  0  0  0  0  0
  141.4932  153.1871  134.2674 H   0  0  0  0  0  0  0  0  0  0  0  0
  141.4966  153.2630  132.4768 H   0  0  0  0  0  0  0  0  0  0  0  0
  143.9096  153.1024  132.3375 H   0  0  0  0  0  0  0  0  0  0  0  0
  143.0097  154.3349  131.3851 H   0  0  0  0  0  0  0  0  0  0  0  0
  145.7601  154.3875  132.1600 H   0  0  0  0  0  0  0  0  0  0  0  0
  144.7887  155.6952  131.3492 H   0  0  0  0  0  0  0  0  0  0  0  0
  144.7590  155.3440  134.2620 H   0  0  0  0  0  0  0  0  0  0  0  0
  143.9042  157.4310  134.3679 H   0  0  0  0  0  0  0  0  0  0  0  0
  144.6731  157.9014  132.8142 H   0  0  0  0  0  0  0  0  0  0  0  0
  143.2253  156.8381  132.8142 H   0  0  0  0  0  0  0  0  0  0  0  0
  149.3734  154.7272  133.5511 H   0  0  0  0  0  0  0  0  0  0  0  0
  148.1102  154.2245  132.3771 H   0  0  0  0  0  0  0  0  0  0  0  0
  148.7141  155.9162  132.3771 H   0  0  0  0  0  0  0  0  0  0  0  0
  148.6281  154.7647  135.5754 H   0  0  0  0  0  0  0  0  0  0  0  0
  147.2690  155.8577  136.0235 H   0  0  0  0  0  0  0  0  0  0  0  0
  139.3420  156.7789  131.7118 H   0  0  0  0  0  0  0  0  0  0  0  0
  1  2  1  0
  2  3  1  0
  2  4  1  0
  4  5  2  0
  5  6  1  0
  6  7  2  0
  7  8  1  0
  8  9  2  0
  9 10  1  0
 10 11  1  0
 10 12  2  0
  9 13  1  0
 13 14  1  0
 14 15  2  0
 14 16  1  0
 16 17  1  0
 17 18  1  0
 18 19  1  0
 19 20  1  0
 20 21  1  0
 20 22  1  0
 22 23  2  0
 22 24  1  0
 24 25  1  0
 24 26  1  0
 26 27  1  0
 27 28  2  0
 27 29  1  0
 13 30  1  0
 30 31  2  0
 31  4  1  0
 30  7  1  0
  1 32  1  0
  1 33  1  0
  1 34  1  0
  2 35  1  6
  5 36  1  0
  6 37  1  0
  8 38  1  0
 11 39  1  0
 16 40  1  0
 16 41  1  0
 18 42  1  0
 18 43  1  0
 19 44  1  0
 19 45  1  0
 20 46  1  1
 21 47  1  0
 21 48  1  0
 21 49  1  0
 25 50  1  0
 25 51  1  0
 25 52  1  0
 26 53  1  0
 26 54  1  0
 31 55  1  0
M  CHG  3  11  -1  20   1  29  -1
M  END
>  <UniqueID>  (19) 
19

>  <SMILES>  (19) 
C[C@@H](F)c1ccc2cc(C([NH-])=O)n(C(=O)COCC[N@H+](C)C(=O)N(C)CC(=O)[O-])c2c1

>  <Energy>  (19) 
94.88346183686453

>  <Genealogy>  (19) 
CC(F)c1ccc2cc(C([NH-])=O)n(C(=O)COCC[NH+](C)C(=O)N(C)CC(=O)[O-])c2c1 (protonated)
C[C@@H](F)c1ccc2cc(C([NH-])=O)n(C(=O)COCC[N@H+](C)C(=O)N(C)CC(=O)[O-])c2c1 (chirality)
C[C@@H](F)c1ccc2cc(C([NH-])=O)n(C(=O)COCC[N@H+](C)C(=O)N(C)CC(=O)[O-])c2c1 (3D coordinates assigned)
C[C@@H](F)c1ccc2cc(C([NH-])=O)n(C(=O)COCC[N@H+](C)C(=O)N(C)CC(=O)[O-])c2c1 (optimized conformer: 94.88346183686453 kcal/mol)

>  <smiles>  (19) 
CC(F)c1ccc2cc(C(N)=O)n(C(=O)COCCN(C)C(=O)N(C)CC(=O)O)c2c1

>  <score_type>  (19) 
oracle

>  <origin>  (19) 
adg

>  <m_score__min__energy>  (19) 
-6.0800000000000001

>  <m_primary>  (19) 
energy

$$$$
19:0
     RDKit          3D

 39 40  0  0  0  0  0  0  0  0999 V2000
  141.3200  156.9590  136.6090 C   0  0  0  0  0  0  0  0  0  0  0  0
  141.0880  158.3830  136.3580 N   0  0  0  0  0  0  0  0  0  0  0  0
  140.9740  159.3320  137.4690 C   0  0  0  0  0  0  0  0  0  0  0  0
  140.9910  158.8520  135.0040 C   0  0  0  0  0  0  0  0  0  0  0  0
  140.7880  160.0770  134.7720 O   0  0  0  0  0  0  0  0  0  0  0  0
  141.1210  157.9500  133.9420 O   0  0  0  0  0  0  0  0  0  0  0  0
  141.7100  158.3020  132.6940 C   0  0  0  0  0  0  0  0  0  0  0  0
  143.0550  157.8350  132.6400 O   0  0  0  0  0  0  0  0  0  0  0  0
  143.9450  157.9620  133.7120 C   0  0  0  0  0  0  0  0  0  0  0  0
  143.6400  157.5110  134.8500 O   0  0  0  0  0  0  0  0  0  0  0  0
  145.1990  158.6320  133.5190 N   0  0  0  0  0  0  0  0  0  0  0  0
  145.4390  159.9750  133.5010 C   0  0  0  0  0  0  0  0  0  0  0  0
  144.4600  161.0360  133.8140 C   0  0  0  0  0  0  0  0  0  0  0  0
  143.0640  160.7540  133.7500 N   0  0  0  0  0  0  0  0  0  0  0  0
  144.8400  162.1990  134.1090 O   0  0  0  0  0  0  0  0  0  0  0  0
  146.7800  160.2250  133.2130 C   0  0  0  0  0  0  0  0  0  0  0  0
  147.3580  158.9860  133.0560 C   0  0  0  0  0  0  0  0  0  0  0  0
  148.6690  158.6410  132.7410 C   0  0  0  0  0  0  0  0  0  0  0  0
  148.9770  157.2770  132.6060 C   0  0  0  0  0  0  0  0  0  0  0  0
  147.9760  156.2890  132.7820 C   0  0  0  0  0  0  0  0  0  0  0  0
  148.3010  154.8330  132.6150 C   0  0  0  0  0  0  0  0  0  0  0  0
  148.0560  154.1620  133.8000 F   0  0  0  0  0  0  0  0  0  0  0  0
  149.6340  154.6890  132.2760 F   0  0  0  0  0  0  0  0  0  0  0  0
  146.6560  156.6790  133.1010 C   0  0  0  0  0  0  0  0  0  0  0  0
  146.3820  158.0430  133.2460 C   0  0  0  0  0  0  0  0  0  0  0  0
  141.3495  156.7779  137.6936 H   0  0  0  0  0  0  0  0  0  0  0  0
  140.5059  156.3703  136.1610 H   0  0  0  0  0  0  0  0  0  0  0  0
  142.2788  156.6592  136.1610 H   0  0  0  0  0  0  0  0  0  0  0  0
  141.0392  158.7889  138.4233 H   0  0  0  0  0  0  0  0  0  0  0  0
  141.7903  160.0668  137.4088 H   0  0  0  0  0  0  0  0  0  0  0  0
  140.0069  159.8526  137.4088 H   0  0  0  0  0  0  0  0  0  0  0  0
  141.1327  157.8446  131.8770 H   0  0  0  0  0  0  0  0  0  0  0  0
  141.7038  159.3969  132.5883 H   0  0  0  0  0  0  0  0  0  0  0  0
  142.7100  159.7730  133.8080 H   0  0  0  0  0  0  0  0  0  0  0  0
  147.2720  161.2053  133.1290 H   0  0  0  0  0  0  0  0  0  0  0  0
  149.4404  159.4128  132.6020 H   0  0  0  0  0  0  0  0  0  0  0  0
  150.0053  156.9726  132.3613 H   0  0  0  0  0  0  0  0  0  0  0  0
  147.6712  154.4124  131.8172 H   0  0  0  0  0  0  0  0  0  0  0  0
  145.8629  155.9281  133.2322 H   0  0  0  0  0  0  0  0  0  0  0  0
  1  2  1  0
  2  3  1  0
  2  4  1  0
  4  5  2  0
  4  6  1  0
  6  7  1  0
  7  8  1  0
  8  9  1  0
  9 10  2  0
  9 11  1  0
 11 12  1  0
 12 13  1  0
 13 14  1  0
 13 15  2  0
 12 16  2  0
 16 17  1  0
 17 18  2  0
 18 19  1  0
 19 20  2  0
 20 21  1  0
 21 22  1  0
 21 23  1  0
 20 24  1  0
 24 25  2  0
 25 11  1  0
 25 17  1  0
  1 26  1  0
  1 27  1  0
  1 28  1  0
  3 29  1  0
  3 30  1  0
  3 31  1  0
  7 32  1  0
  7 33  1  0
 14 34  1  0
 16 35  1  0
 18 36  1  0
 19 37  1  0
 21 38  1  0
 24 39  1  0
M  CHG  1  14  -1
M  END
>  <UniqueID>  (20) 
20

>  <SMILES>  (20) 
CN(C)C(=O)OCOC(=O)n1c(C([NH-])=O)cc2ccc(C(F)F)cc21

>  <Energy>  (20) 
69.64278363068571

>  <Genealogy>  (20) 
CN(C)C(=O)OCOC(=O)n1c(C([NH-])=O)cc2ccc(C(F)F)cc21 (protonated)
CN(C)C(=O)OCOC(=O)n1c(C([NH-])=O)cc2ccc(C(F)F)cc21 (3D coordinates assigned)
CN(C)C(=O)OCOC(=O)n1c(C([NH-])=O)cc2ccc(C(F)F)cc21 (optimized conformer: 69.64278363068571 kcal/mol)

>  <smiles>  (20) 
CN(C)C(=O)OCOC(=O)n1c(C(N)=O)cc2ccc(C(F)F)cc21

>  <score_type>  (20) 
oracle

>  <origin>  (20) 
adg

>  <m_score__min__energy>  (20) 
-5.9400000000000004

>  <m_primary>  (20) 
energy

$$$$
20:0
     RDKit          3D

 35 36  0  0  0  0  0  0  0  0999 V2000
  139.3650  147.4680  130.3260 C   0  0  0  0  0  0  0  0  0  0  0  0
  140.2490  148.2570  131.1720 N   0  0  0  0  0  0  0  0  0  0  0  0
  140.2680  149.6900  131.2350 C   0  0  0  0  0  0  0  0  0  0  0  0
  139.5940  150.3350  130.3880 O   0  0  0  0  0  0  0  0  0  0  0  0
  141.0090  150.4410  132.3230 C   0  0  2  0  0  0  0  0  0  0  0  0
  140.6180  149.8760  133.6910 C   0  0  0  0  0  0  0  0  0  0  0  0
  140.7050  151.8790  132.2630 N   0  0  0  0  0  0  0  0  0  0  0  0
  141.1460  152.8540  133.2310 C   0  0  0  0  0  0  0  0  0  0  0  0
  142.2060  152.5880  134.1440 C   0  0  0  0  0  0  0  0  0  0  0  0
  142.6100  153.5560  135.0780 C   0  0  0  0  0  0  0  0  0  0  0  0
  141.9490  154.7790  135.0800 C   0  0  0  0  0  0  0  0  0  0  0  0
  142.1310  155.8820  135.8820 C   0  0  0  0  0  0  0  0  0  0  0  0
  141.1970  156.8180  135.4410 C   0  0  0  0  0  0  0  0  0  0  0  0
  141.1230  158.1950  135.9710 C   0  0  0  0  0  0  0  0  0  0  0  0
  139.9460  158.6300  136.6470 N   0  0  0  0  0  0  0  0  0  0  0  0
  142.1070  158.9760  135.8790 O   0  0  0  0  0  0  0  0  0  0  0  0
  140.4550  156.3060  134.4140 N   0  0  0  0  0  0  0  0  0  0  0  0
  139.3380  156.8970  133.7310 C   0  0  0  0  0  0  0  0  0  0  0  0
  138.6990  157.8550  134.2380 O   0  0  0  0  0  0  0  0  0  0  0  0
  140.9360  155.0610  134.2030 C   0  0  0  0  0  0  0  0  0  0  0  0
  140.5040  154.1130  133.2690 C   0  0  0  0  0  0  0  0  0  0  0  0
  138.6928  146.8680  130.9570 H   0  0  0  0  0  0  0  0  0  0  0  0
  138.7691  148.1400  129.6909 H   0  0  0  0  0  0  0  0  0  0  0  0
  139.9652  146.7999  129.6909 H   0  0  0  0  0  0  0  0  0  0  0  0
  142.0906  150.3125  132.1695 H   0  0  0  0  0  0  0  0  0  0  0  0
  141.0517  150.5027  134.4841 H   0  0  0  0  0  0  0  0  0  0  0  0
  139.5221  149.8708  133.7859 H   0  0  0  0  0  0  0  0  0  0  0  0
  140.9992  148.8485  133.7859 H   0  0  0  0  0  0  0  0  0  0  0  0
  140.0990  152.2260  131.4830 H   0  0  0  0  0  0  0  0  0  0  0  0
  142.7144  151.6129  134.1174 H   0  0  0  0  0  0  0  0  0  0  0  0
  143.4257  153.3524  135.7873 H   0  0  0  0  0  0  0  0  0  0  0  0
  142.8591  156.0001  136.6981 H   0  0  0  0  0  0  0  0  0  0  0  0
  139.1000  158.9290  136.1130 H   0  0  0  0  0  0  0  0  0  0  0  0
  139.0362  156.5055  132.7483 H   0  0  0  0  0  0  0  0  0  0  0  0
  139.6803  154.3430  132.5772 H   0  0  0  0  0  0  0  0  0  0  0  0
  1  2  1  0
  2  3  1  0
  3  4  2  0
  3  5  1  0
  5  6  1  0
  5  7  1  0
  7  8  1  0
  8  9  2  0
  9 10  1  0
 10 11  2  0
 11 12  1  0
 12 13  2  0
 13 14  1  0
 14 15  1  0
 14 16  2  0
 13 17  1  0
 17 18  1  0
 18 19  2  0
 17 20  1  0
 20 21  2  0
 21  8  1  0
 20 11  1  0
  1 22  1  0
  1 23  1  0
  1 24  1  0
  5 25  1  6
  6 26  1  0
  6 27  1  0
  6 28  1  0
  7 29  1  0
  9 30  1  0
 10 31  1  0
 12 32  1  0
 15 33  1  0
 18 34  1  0
 21 35  1  0
M  CHG  2   2  -1  15  -1
M  END
>  <UniqueID>  (21) 
21

>  <SMILES>  (21) 
C[N-]C(=O)[C@H](C)Nc1ccc2cc(C([NH-])=O)n(C=O)c2c1

>  <Energy>  (21) 
70.67590968851663

>  <Genealogy>  (21) 
C[N-]C(=O)[C@H](C)Nc1ccc2cc(C([NH-])=O)n(C=O)c2c1 (protonated)
C[N-]C(=O)[C@H](C)Nc1ccc2cc(C([NH-])=O)n(C=O)c2c1 (3D coordinates assigned)
C[N-]C(=O)[C@H](C)Nc1ccc2cc(C([NH-])=O)n(C=O)c2c1 (optimized conformer: 70.67590968851663 kcal/mol)

>  <smiles>  (21) 
CNC(=O)[C@H](C)Nc1ccc2cc(C(N)=O)n(C=O)c2c1

>  <score_type>  (21) 
oracle

>  <origin>  (21) 
adg

>  <m_score__min__energy>  (21) 
-6.1500000000000004

>  <m_primary>  (21) 
energy

$$$$
21:0
     RDKit          3D

 41 42  0  0  0  0  0  0  0  0999 V2000
  149.5730  153.3700  138.2620 C   0  0  0  0  0  0  0  0  0  0  0  0
  148.5840  153.0710  137.4160 C   0  0  0  0  0  0  0  0  0  0  0  0
  147.9730  154.1140  136.5310 C   0  0  0  0  0  0  0  0  0  0  0  0
  146.6830  153.6860  136.1060 O   0  0  0  0  0  0  0  0  0  0  0  0
  145.8130  154.5140  135.3920 C   0  0  0  0  0  0  0  0  0  0  0  0
  144.8470  155.0810  135.9740 O   0  0  0  0  0  0  0  0  0  0  0  0
  146.0370  154.7340  133.9570 C   0  0  0  0  0  0  0  0  0  0  0  0
  145.2280  154.2480  133.1220 O   0  0  0  0  0  0  0  0  0  0  0  0
  147.1720  155.4830  133.4930 N   0  0  0  0  0  0  0  0  0  0  0  0
  148.3480  154.9890  133.0120 C   0  0  0  0  0  0  0  0  0  0  0  0
  148.7240  153.5570  132.9860 C   0  0  0  0  0  0  0  0  0  0  0  0
  147.8830  152.5660  133.5780 N   0  0  0  0  0  0  0  0  0  0  0  0
  149.7910  153.1960  132.4220 O   0  0  0  0  0  0  0  0  0  0  0  0
  149.1790  156.0320  132.6030 C   0  0  0  0  0  0  0  0  0  0  0  0
  148.4650  157.1860  132.8400 C   0  0  0  0  0  0  0  0  0  0  0  0
  148.8020  158.5140  132.6030 C   0  0  0  0  0  0  0  0  0  0  0  0
  147.8530  159.5020  132.9170 C   0  0  0  0  0  0  0  0  0  0  0  0
  146.5890  159.1450  133.4550 C   0  0  0  0  0  0  0  0  0  0  0  0
  145.5700  160.2050  133.7760 C   0  0  0  0  0  0  0  0  0  0  0  0
  144.1720  159.6790  133.5950 C   0  0  0  0  0  0  0  0  0  0  0  0
  143.9510  158.8310  132.6900 O   0  0  0  0  0  0  0  0  0  0  0  0
  143.0890  160.0850  134.4400 N   0  0  0  0  0  0  0  0  0  0  0  0
  141.7390  160.3730  133.9770 C   0  0  0  0  0  0  0  0  0  0  0  0
  146.2800  157.7830  133.6720 C   0  0  0  0  0  0  0  0  0  0  0  0
  147.2550  156.8250  133.3710 C   0  0  0  0  0  0  0  0  0  0  0  0
  150.0053  152.5865  138.9016 H   0  0  0  0  0  0  0  0  0  0  0  0
  149.9553  154.3998  138.3192 H   0  0  0  0  0  0  0  0  0  0  0  0
  148.2102  152.0376  137.3679 H   0  0  0  0  0  0  0  0  0  0  0  0
  147.8801  155.0578  137.0883 H   0  0  0  0  0  0  0  0  0  0  0  0
  148.6148  154.2668  135.6508 H   0  0  0  0  0  0  0  0  0  0  0  0
  148.1430  151.5570  133.5170 H   0  0  0  0  0  0  0  0  0  0  0  0
  147.0270  152.8250  134.1160 H   0  0  0  0  0  0  0  0  0  0  0  0
  150.1912  155.9502  132.1803 H   0  0  0  0  0  0  0  0  0  0  0  0
  149.7821  158.7833  132.1823 H   0  0  0  0  0  0  0  0  0  0  0  0
  148.0921  160.5617  132.7442 H   0  0  0  0  0  0  0  0  0  0  0  0
  145.7014  160.5264  134.8197 H   0  0  0  0  0  0  0  0  0  0  0  0
  145.7176  161.0530  133.0910 H   0  0  0  0  0  0  0  0  0  0  0  0
  141.0765  160.5143  134.8437 H   0  0  0  0  0  0  0  0  0  0  0  0
  141.7477  161.2895  133.3688 H   0  0  0  0  0  0  0  0  0  0  0  0
  141.3729  159.5327  133.3688 H   0  0  0  0  0  0  0  0  0  0  0  0
  145.2982  157.4835  134.0674 H   0  0  0  0  0  0  0  0  0  0  0  0
  1  2  2  0
  2  3  1  0
  3  4  1  0
  4  5  1  0
  5  6  2  0
  5  7  1  0
  7  8  2  0
  7  9  1  0
  9 10  1  0
 10 11  1  0
 11 12  1  0
 11 13  2  0
 10 14  2  0
 14 15  1  0
 15 16  2  0
 16 17  1  0
 17 18  2  0
 18 19  1  0
 19 20  1  0
 20 21  2  0
 20 22  1  0
 22 23  1  0
 18 24  1  0
 24 25  2  0
 25  9  1  0
 25 15  1  0
  1 26  1  0
  1 27  1  0
  2 28  1  0
  3 29  1  0
  3 30  1  0
 12 31  1  0
 12 32  1  0
 14 33  1  0
 16 34  1  0
 17 35  1  0
 19 36  1  0
 19 37  1  0
 23 38  1  0
 23 39  1  0
 23 40  1  0
 24 41  1  0
M  CHG  1  22  -1
M  END
>  <UniqueID>  (22) 
22

>  <SMILES>  (22) 
C=CCOC(=O)C(=O)n1c(C(N)=O)cc2ccc(CC(=O)[N-]C)cc21

>  <Energy>  (22) 
70.73747362412026

>  <Genealogy>  (22) 
C=CCOC(=O)C(=O)n1c(C(N)=O)cc2ccc(CC(=O)[N-]C)cc21 (protonated)
C=CCOC(=O)C(=O)n1c(C(N)=O)cc2ccc(CC(=O)[N-]C)cc21 (3D coordinates assigned)
C=CCOC(=O)C(=O)n1c(C(N)=O)cc2ccc(CC(=O)[N-]C)cc21 (optimized conformer: 70.73747362412026 kcal/mol)

>  <smiles>  (22) 
C=CCOC(=O)C(=O)n1c(C(N)=O)cc2ccc(CC(=O)NC)cc21

>  <score_type>  (22) 
oracle

>  <origin>  (22) 
adg

>  <m_score__min__energy>  (22) 
-6.9299999999999997

>  <m_primary>  (22) 
energy

$$$$
22:0
     RDKit          3D

 45 46  0  0  0  0  0  0  0  0999 V2000
  141.9350  157.7780  132.2210 N   0  0  0  0  0  0  0  0  0  0  0  0
  141.9000  158.6500  133.3530 C   0  0  0  0  0  0  0  0  0  0  0  0
  142.0340  159.8890  133.1770 O   0  0  0  0  0  0  0  0  0  0  0  0
  141.6720  158.1160  134.7140 C   0  0  0  0  0  0  0  0  0  0  0  0
  141.8410  158.8500  135.8880 C   0  0  0  0  0  0  0  0  0  0  0  0
  141.6300  157.9550  136.9130 C   0  0  0  0  0  0  0  0  0  0  0  0
  141.6550  158.1440  138.2910 C   0  0  0  0  0  0  0  0  0  0  0  0
  141.3780  157.0380  139.1130 C   0  0  0  0  0  0  0  0  0  0  0  0
  141.0950  155.7660  138.5490 C   0  0  0  0  0  0  0  0  0  0  0  0
  140.7500  154.6000  139.4400 C   0  0  0  0  0  0  0  0  0  0  0  0
  139.8750  153.7400  138.7990 F   0  0  0  0  0  0  0  0  0  0  0  0
  141.9050  153.9130  139.7600 F   0  0  0  0  0  0  0  0  0  0  0  0
  140.1490  155.0370  140.6080 F   0  0  0  0  0  0  0  0  0  0  0  0
  141.0540  155.6220  137.1420 C   0  0  0  0  0  0  0  0  0  0  0  0
  141.3480  156.7370  136.3530 C   0  0  0  0  0  0  0  0  0  0  0  0
  141.3660  156.8210  135.0070 N   0  0  0  0  0  0  0  0  0  0  0  0
  141.0320  155.7640  134.0950 C   0  0  0  0  0  0  0  0  0  0  0  0
  140.0830  155.9210  133.2800 O   0  0  0  0  0  0  0  0  0  0  0  0
  141.8750  154.5240  134.0240 C   0  0  0  0  0  0  0  0  0  0  0  0
  143.2280  154.7630  134.7000 C   0  0  0  0  0  0  0  0  0  0  0  0
  143.9990  155.8200  133.9750 C   0  0  0  0  0  0  0  0  0  0  0  0
  143.8490  155.9600  132.7310 O   0  0  0  0  0  0  0  0  0  0  0  0
  144.9230  156.6430  134.7020 N   0  0  0  0  0  0  0  0  0  0  0  0
  146.2270  157.1070  134.2200 C   0  0  0  0  0  0  0  0  0  0  0  0
  146.9300  156.0040  133.4020 C   0  0  0  0  0  0  0  0  0  0  0  0
  146.3620  155.8870  132.1240 O   0  0  0  0  0  0  0  0  0  0  0  0
  146.0720  158.4210  133.4350 C   0  0  0  0  0  0  0  0  0  0  0  0
  144.9440  158.3720  132.6020 O   0  0  0  0  0  0  0  0  0  0  0  0
  142.0540  158.1720  131.2610 H   0  0  0  0  0  0  0  0  0  0  0  0
  141.8710  156.7410  132.3300 H   0  0  0  0  0  0  0  0  0  0  0  0
  142.0901  159.9178  135.9763 H   0  0  0  0  0  0  0  0  0  0  0  0
  141.8845  159.1288  138.7240 H   0  0  0  0  0  0  0  0  0  0  0  0
  141.3805  157.1593  140.2063 H   0  0  0  0  0  0  0  0  0  0  0  0
  140.7972  154.6568  136.6811 H   0  0  0  0  0  0  0  0  0  0  0  0
  141.3540  153.7011  134.5353 H   0  0  0  0  0  0  0  0  0  0  0  0
  142.0428  154.2649  132.9682 H   0  0  0  0  0  0  0  0  0  0  0  0
  143.0614  155.0852  135.7385 H   0  0  0  0  0  0  0  0  0  0  0  0
  143.8048  153.8266  134.6801 H   0  0  0  0  0  0  0  0  0  0  0  0
  146.8751  157.3220  135.0824 H   0  0  0  0  0  0  0  0  0  0  0  0
  147.9960  156.2556  133.3003 H   0  0  0  0  0  0  0  0  0  0  0  0
  146.8089  155.0459  133.9286 H   0  0  0  0  0  0  0  0  0  0  0  0
  145.4710  156.3270  132.1650 H   0  0  0  0  0  0  0  0  0  0  0  0
  145.9608  159.2543  134.1444 H   0  0  0  0  0  0  0  0  0  0  0  0
  146.9659  158.5672  132.8109 H   0  0  0  0  0  0  0  0  0  0  0  0
  144.6810  157.4170  132.5280 H   0  0  0  0  0  0  0  0  0  0  0  0
  1  2  1  0
  2  3  2  0
  2  4  1  0
  4  5  2  0
  5  6  1  0
  6  7  2  0
  7  8  1  0
  8  9  2  0
  9 10  1  0
 10 11  1  0
 10 12  1  0
 10 13  1  0
  9 14  1  0
 14 15  2  0
 15 16  1  0
 16 17  1  0
 17 18  2  0
 17 19  1  0
 19 20  1  0
 20 21  1  0
 21 22  2  0
 21 23  1  0
 23 24  1  0
 24 25  1  0
 25 26  1  0
 24 27  1  0
 27 28  1  0
 16  4  1  0
 15  6  1  0
  1 29  1  0
  1 30  1  0
  5 31  1  0
  7 32  1  0
  8 33  1  0
 14 34  1  0
 19 35  1  0
 19 36  1  0
 20 37  1  0
 20 38  1  0
 24 39  1  0
 25 40  1  0
 25 41  1  0
 26 42  1  0
 27 43  1  0
 27 44  1  0
 28 45  1  0
M  CHG  1  23  -1
M  END
>  <UniqueID>  (23) 
23

>  <SMILES>  (23) 
NC(=O)c1cc2ccc(C(F)(F)F)cc2n1C(=O)CCC(=O)[N-]C(CO)CO

>  <Energy>  (23) 
77.7164496741319

>  <Genealogy>  (23) 
NC(=O)c1cc2ccc(C(F)(F)F)cc2n1C(=O)CCC(=O)[N-]C(CO)CO (protonated)
NC(=O)c1cc2ccc(C(F)(F)F)cc2n1C(=O)CCC(=O)[N-]C(CO)CO (3D coordinates assigned)
NC(=O)c1cc2ccc(C(F)(F)F)cc2n1C(=O)CCC(=O)[N-]C(CO)CO (optimized conformer: 77.7164496741319 kcal/mol)

>  <smiles>  (23) 
NC(=O)c1cc2ccc(C(F)(F)F)cc2n1C(=O)CCC(=O)NC(CO)CO

>  <score_type>  (23) 
oracle

>  <origin>  (23) 
adg

>  <m_score__min__energy>  (23) 
-6.2199999999999998

>  <m_primary>  (23) 
energy

$$$$
23:0
     RDKit          3D

 41 42  0  0  0  0  0  0  0  0999 V2000
  148.7340  158.4290  131.6910 N   0  0  0  0  0  0  0  0  0  0  0  0
  148.3440  158.8260  133.0030 C   0  0  0  0  0  0  0  0  0  0  0  0
  149.2230  158.9870  133.8890 O   0  0  0  0  0  0  0  0  0  0  0  0
  146.9140  159.0070  133.3220 C   0  0  0  0  0  0  0  0  0  0  0  0
  146.2810  160.2470  133.3670 C   0  0  0  0  0  0  0  0  0  0  0  0
  144.9490  159.9690  133.5790 C   0  0  0  0  0  0  0  0  0  0  0  0
  143.8660  160.8290  133.7350 C   0  0  0  0  0  0  0  0  0  0  0  0
  142.6070  160.2600  133.9930 C   0  0  0  0  0  0  0  0  0  0  0  0
  142.4520  158.8550  134.0780 C   0  0  0  0  0  0  0  0  0  0  0  0
  141.1120  158.2590  134.4040 C   0  0  0  0  0  0  0  0  0  0  0  0
  140.6620  158.6300  136.1270 P   0  0  0  0  0  0  0  0  0  0  0  0
  140.6500  160.1280  136.3300 O   0  0  0  0  0  0  0  0  0  0  0  0
  141.7920  157.9350  137.1730 O   0  0  0  0  0  0  0  0  0  0  0  0
  139.1260  158.0100  136.4640 O   0  0  0  0  0  0  0  0  0  0  0  0
  143.5750  158.0140  133.9130 C   0  0  0  0  0  0  0  0  0  0  0  0
  144.8140  158.6080  133.6540 C   0  0  0  0  0  0  0  0  0  0  0  0
  146.0110  158.0040  133.5120 N   0  0  0  0  0  0  0  0  0  0  0  0
  146.2620  156.5950  133.6350 C   0  0  0  0  0  0  0  0  0  0  0  0
  146.2380  156.0580  134.7740 O   0  0  0  0  0  0  0  0  0  0  0  0
  146.6700  155.7760  132.4390 C   0  0  0  0  0  0  0  0  0  0  0  0
  147.3780  154.4800  132.8550 C   0  0  0  0  0  0  0  0  0  0  0  0
  148.8590  154.5620  132.6380 C   0  0  0  0  0  0  0  0  0  0  0  0
  149.4240  155.6880  132.6050 O   0  0  0  0  0  0  0  0  0  0  0  0
  149.6030  153.3850  132.4980 O   0  0  0  0  0  0  0  0  0  0  0  0
  149.0140  152.0920  132.4110 C   0  0  0  0  0  0  0  0  0  0  0  0
  150.0360  151.0380  132.6820 C   0  0  0  0  0  0  0  0  0  0  0  0
  150.3280  150.7270  133.8660 O   0  0  0  0  0  0  0  0  0  0  0  0
  150.6770  150.4070  131.6240 O   0  0  0  0  0  0  0  0  0  0  0  0
  148.8770  157.4200  131.4560 H   0  0  0  0  0  0  0  0  0  0  0  0
  146.7462  161.2377  133.2567 H   0  0  0  0  0  0  0  0  0  0  0  0
  143.9913  161.9192  133.6588 H   0  0  0  0  0  0  0  0  0  0  0  0
  141.7326  160.9131  134.1304 H   0  0  0  0  0  0  0  0  0  0  0  0
  140.3523  158.6828  133.7307 H   0  0  0  0  0  0  0  0  0  0  0  0
  141.1630  157.1680  134.2733 H   0  0  0  0  0  0  0  0  0  0  0  0
  143.4773  156.9208  133.9863 H   0  0  0  0  0  0  0  0  0  0  0  0
  145.7714  155.5209  131.8580 H   0  0  0  0  0  0  0  0  0  0  0  0
  147.3715  156.3726  131.8374 H   0  0  0  0  0  0  0  0  0  0  0  0
  147.1839  154.2946  133.9217 H   0  0  0  0  0  0  0  0  0  0  0  0
  146.9857  153.6610  132.2343 H   0  0  0  0  0  0  0  0  0  0  0  0
  148.2044  152.0114  133.1513 H   0  0  0  0  0  0  0  0  0  0  0  0
  148.6127  151.9490  131.3968 H   0  0  0  0  0  0  0  0  0  0  0  0
  1  2  1  0
  2  3  2  0
  2  4  1  0
  4  5  2  0
  5  6  1  0
  6  7  2  0
  7  8  1  0
  8  9  2  0
  9 10  1  0
 10 11  1  0
 11 12  2  0
 11 13  1  0
 11 14  1  0
  9 15  1  0
 15 16  2  0
 16 17  1  0
 17 18  1  0
 18 19  2  0
 18 20  1  0
 20 21  1  0
 21 22  1  0
 22 23  2  0
 22 24  1  0
 24 25  1  0
 25 26  1  0
 26 27  2  0
 26 28  1  0
 17  4  1  0
 16  6  1  0
  1 29  1  0
  5 30  1  0
  7 31  1  0
  8 32  1  0
 10 33  1  0
 10 34  1  0
 15 35  1  0
 20 36  1  0
 20 37  1  0
 21 38  1  0
 21 39  1  0
 25 40  1  0
 25 41  1  0
M  CHG  4   1  -1  13  -1  14  -1  28  -1
M  END
>  <UniqueID>  (24) 
24

>  <SMILES>  (24) 
[NH-]C(=O)c1cc2ccc(CP(=O)([O-])[O-])cc2n1C(=O)CCC(=O)OCC(=O)[O-]

>  <Energy>  (24) 
65.7306210824044

>  <Genealogy>  (24) 
[NH-]C(=O)c1cc2ccc(CP(=O)([O-])[O-])cc2n1C(=O)CCC(=O)OCC(=O)[O-] (protonated)
[NH-]C(=O)c1cc2ccc(CP(=O)([O-])[O-])cc2n1C(=O)CCC(=O)OCC(=O)[O-] (3D coordinates assigned)
[NH-]C(=O)c1cc2ccc(CP(=O)([O-])[O-])cc2n1C(=O)CCC(=O)OCC(=O)[O-] (optimized conformer: 65.7306210824044 kcal/mol)

>  <smiles>  (24) 
NC(=O)c1cc2ccc(CP(=O)(O)O)cc2n1C(=O)CCC(=O)OCC(=O)O

>  <score_type>  (24) 
oracle

>  <origin>  (24) 
adg

>  <m_score__min__energy>  (24) 
-7.5199999999999996

>  <m_primary>  (24) 
energy

$$$$
24:0
     RDKit          3D

 45 46  0  0  0  0  0  0  0  0999 V2000
  142.6020  156.2680  135.0280 C   0  0  0  0  0  0  0  0  0  0  0  0
  141.6970  157.3290  134.3830 C   0  0  1  0  0  0  0  0  0  0  0  0
  140.2330  157.2620  134.8630 C   0  0  0  0  0  0  0  0  0  0  0  0
  140.0510  157.9750  136.1690 C   0  0  0  0  0  0  0  0  0  0  0  0
  139.7810  157.3260  137.2130 O   0  0  0  0  0  0  0  0  0  0  0  0
  140.2220  159.3520  136.2390 O   0  0  0  0  0  0  0  0  0  0  0  0
  142.2620  158.6820  134.5300 N   0  0  0  0  0  0  0  0  0  0  0  0
  143.5720  159.1360  134.1220 C   0  0  0  0  0  0  0  0  0  0  0  0
  143.8370  160.5300  134.1280 C   0  0  0  0  0  0  0  0  0  0  0  0
  145.0870  161.0320  133.7300 C   0  0  0  0  0  0  0  0  0  0  0  0
  146.0580  160.1210  133.3310 C   0  0  0  0  0  0  0  0  0  0  0  0
  147.3410  160.3330  132.8820 C   0  0  0  0  0  0  0  0  0  0  0  0
  147.8540  159.0650  132.6160 C   0  0  0  0  0  0  0  0  0  0  0  0
  149.2490  158.8230  132.1940 C   0  0  0  0  0  0  0  0  0  0  0  0
  149.7440  157.4880  132.1160 N   0  0  0  0  0  0  0  0  0  0  0  0
  150.0010  159.7790  131.8670 O   0  0  0  0  0  0  0  0  0  0  0  0
  146.9190  158.1080  132.8830 N   0  0  0  0  0  0  0  0  0  0  0  0
  147.0320  156.6860  132.7080 C   0  0  0  0  0  0  0  0  0  0  0  0
  147.0250  156.1930  131.5470 O   0  0  0  0  0  0  0  0  0  0  0  0
  147.1150  155.8560  133.8310 O   0  0  0  0  0  0  0  0  0  0  0  0
  146.5070  154.5680  133.9060 C   0  0  0  0  0  0  0  0  0  0  0  0
  147.3030  153.5520  133.0820 C   0  0  0  0  0  0  0  0  0  0  0  0
  148.8140  153.7500  133.2420 C   0  0  0  0  0  0  0  0  0  0  0  0
  149.3020  154.6700  132.3030 O   0  0  0  0  0  0  0  0  0  0  0  0
  145.8280  158.7720  133.3230 C   0  0  0  0  0  0  0  0  0  0  0  0
  144.5830  158.2460  133.6890 C   0  0  0  0  0  0  0  0  0  0  0  0
  142.5354  156.3460  136.1232 H   0  0  0  0  0  0  0  0  0  0  0  0
  142.2759  155.2663  134.7113 H   0  0  0  0  0  0  0  0  0  0  0  0
  143.6426  156.4321  134.7113 H   0  0  0  0  0  0  0  0  0  0  0  0
  141.6672  157.0910  133.3095 H   0  0  0  0  0  0  0  0  0  0  0  0
  139.5867  157.7310  134.1064 H   0  0  0  0  0  0  0  0  0  0  0  0
  139.9642  156.2050  135.0060 H   0  0  0  0  0  0  0  0  0  0  0  0
  141.7020  159.3390  135.1200 H   0  0  0  0  0  0  0  0  0  0  0  0
  143.0507  161.2288  134.4496 H   0  0  0  0  0  0  0  0  0  0  0  0
  145.2912  162.1129  133.7339 H   0  0  0  0  0  0  0  0  0  0  0  0
  147.8533  161.2986  132.7591 H   0  0  0  0  0  0  0  0  0  0  0  0
  149.1230  156.7010  131.8230 H   0  0  0  0  0  0  0  0  0  0  0  0
  146.4795  154.2410  134.9559 H   0  0  0  0  0  0  0  0  0  0  0  0
  145.4856  154.6320  133.5027 H   0  0  0  0  0  0  0  0  0  0  0  0
  147.0393  152.5376  133.4159 H   0  0  0  0  0  0  0  0  0  0  0  0
  147.0491  153.6971  132.0216 H   0  0  0  0  0  0  0  0  0  0  0  0
  149.0225  154.1248  134.2549 H   0  0  0  0  0  0  0  0  0  0  0  0
  149.3135  152.7837  133.0785 H   0  0  0  0  0  0  0  0  0  0  0  0
  148.8540  155.5360  132.4940 H   0  0  0  0  0  0  0  0  0  0  0  0
  144.3949  157.1633  133.6409 H   0  0  0  0  0  0  0  0  0  0  0  0
  1  2  1  0
  2  3  1  0
  3  4  1  0
  4  5  2  0
  4  6  1  0
  2  7  1  0
  7  8  1  0
  8  9  2  0
  9 10  1  0
 10 11  2  0
 11 12  1  0
 12 13  2  0
 13 14  1  0
 14 15  1  0
 14 16  2  0
 13 17  1  0
 17 18  1  0
 18 19  2  0
 18 20  1  0
 20 21  1  0
 21 22  1  0
 22 23  1  0
 23 24  1  0
 17 25  1  0
 25 26  2  0
 26  8  1  0
 25 11  1  0
  1 27  1  0
  1 28  1  0
  1 29  1  0
  2 30  1  6
  3 31  1  0
  3 32  1  0
  7 33  1  0
  9 34  1  0
 10 35  1  0
 12 36  1  0
 15 37  1  0
 21 38  1  0
 21 39  1  0
 22 40  1  0
 22 41  1  0
 23 42  1  0
 23 43  1  0
 24 44  1  0
 26 45  1  0
M  CHG  2   6  -1  15  -1
M  END
>  <UniqueID>  (25) 
25

>  <SMILES>  (25) 
C[C@@H](CC(=O)[O-])Nc1ccc2cc(C([NH-])=O)n(C(=O)OCCCO)c2c1

>  <Energy>  (25) 
78.0111458662001

>  <Genealogy>  (25) 
CC(CC(=O)[O-])Nc1ccc2cc(C([NH-])=O)n(C(=O)OCCCO)c2c1 (protonated)
C[C@@H](CC(=O)[O-])Nc1ccc2cc(C([NH-])=O)n(C(=O)OCCCO)c2c1 (chirality)
C[C@@H](CC(=O)[O-])Nc1ccc2cc(C([NH-])=O)n(C(=O)OCCCO)c2c1 (3D coordinates assigned)
C[C@@H](CC(=O)[O-])Nc1ccc2cc(C([NH-])=O)n(C(=O)OCCCO)c2c1 (optimized conformer: 78.0111458662001 kcal/mol)

>  <smiles>  (25) 
CC(CC(=O)O)Nc1ccc2cc(C(N)=O)n(C(=O)OCCCO)c2c1

>  <score_type>  (25) 
oracle

>  <origin>  (25) 
adg

>  <m_score__min__energy>  (25) 
-6.2400000000000002

>  <m_primary>  (25) 
energy

$$$$
25:0
     RDKit          3D

 37 38  0  0  0  0  0  0  0  0999 V2000
  142.7090  161.6530  133.6950 N   0  0  0  0  0  0  0  0  0  0  0  0
  143.9330  160.9300  133.8140 C   0  0  0  0  0  0  0  0  0  0  0  0
  145.0000  161.5600  134.0390 O   0  0  0  0  0  0  0  0  0  0  0  0
  143.9380  159.4600  133.6570 C   0  0  0  0  0  0  0  0  0  0  0  0
  145.1010  158.6960  133.5710 C   0  0  0  0  0  0  0  0  0  0  0  0
  144.6750  157.3920  133.4640 C   0  0  0  0  0  0  0  0  0  0  0  0
  145.4100  156.2170  133.3270 C   0  0  0  0  0  0  0  0  0  0  0  0
  144.7040  155.0100  133.1970 C   0  0  0  0  0  0  0  0  0  0  0  0
  143.2890  155.0060  133.1920 C   0  0  0  0  0  0  0  0  0  0  0  0
  142.5770  153.7660  133.0370 C   0  0  0  0  0  0  0  0  0  0  0  0
  141.9770  152.7280  132.9070 C   0  0  0  0  0  0  0  0  0  0  0  0
  141.2480  151.4650  132.7470 C   0  0  0  0  0  0  0  0  0  0  0  0
  139.8880  151.7210  132.5310 O   0  0  0  0  0  0  0  0  0  0  0  0
  142.5750  156.2120  133.3300 C   0  0  0  0  0  0  0  0  0  0  0  0
  143.3040  157.3960  133.4860 C   0  0  0  0  0  0  0  0  0  0  0  0
  142.8370  158.6570  133.6160 N   0  0  0  0  0  0  0  0  0  0  0  0
  141.4620  159.0580  133.6990 C   0  0  0  0  0  0  0  0  0  0  0  0
  140.9940  159.4470  134.8030 O   0  0  0  0  0  0  0  0  0  0  0  0
  140.5570  158.9690  132.5000 C   0  0  0  0  0  0  0  0  0  0  0  0
  139.2330  158.2710  132.8350 C   0  0  0  0  0  0  0  0  0  0  0  0
  139.4450  156.8860  133.3830 C   0  0  0  0  0  0  0  0  0  0  0  0
  139.9340  156.7390  134.5360 O   0  0  0  0  0  0  0  0  0  0  0  0
  139.1170  155.7370  132.6010 N   0  0  0  0  0  0  0  0  0  0  0  0
  139.2660  154.4930  133.1150 O   0  0  0  0  0  0  0  0  0  0  0  0
  141.7890  161.1660  133.7700 H   0  0  0  0  0  0  0  0  0  0  0  0
  146.1393  159.0588  133.5856 H   0  0  0  0  0  0  0  0  0  0  0  0
  146.5099  156.2338  133.3208 H   0  0  0  0  0  0  0  0  0  0  0  0
  145.2540  154.0625  133.0985 H   0  0  0  0  0  0  0  0  0  0  0  0
  141.6564  150.9152  131.8862 H   0  0  0  0  0  0  0  0  0  0  0  0
  141.3616  150.8642  133.6614 H   0  0  0  0  0  0  0  0  0  0  0  0
  139.8230  152.6560  132.2030 H   0  0  0  0  0  0  0  0  0  0  0  0
  141.4751  156.2228  133.3156 H   0  0  0  0  0  0  0  0  0  0  0  0
  140.3420  159.9860  132.1401 H   0  0  0  0  0  0  0  0  0  0  0  0
  141.0699  158.3761  131.7283 H   0  0  0  0  0  0  0  0  0  0  0  0
  138.6960  158.8705  133.5848 H   0  0  0  0  0  0  0  0  0  0  0  0
  138.6529  158.1816  131.9047 H   0  0  0  0  0  0  0  0  0  0  0  0
  138.7520  155.8430  131.6290 H   0  0  0  0  0  0  0  0  0  0  0  0
  1  2  1  0
  2  3  2  0
  2  4  1  0
  4  5  2  0
  5  6  1  0
  6  7  2  0
  7  8  1  0
  8  9  2  0
  9 10  1  0
 10 11  3  0
 11 12  1  0
 12 13  1  0
  9 14  1  0
 14 15  2  0
 15 16  1  0
 16 17  1  0
 17 18  2  0
 17 19  1  0
 19 20  1  0
 20 21  1  0
 21 22  2  0
 21 23  1  0
 23 24  1  0
 16  4  1  0
 15  6  1  0
  1 25  1  0
  5 26  1  0
  7 27  1  0
  8 28  1  0
 12 29  1  0
 12 30  1  0
 13 31  1  0
 14 32  1  0
 19 33  1  0
 19 34  1  0
 20 35  1  0
 20 36  1  0
 23 37  1  0
M  CHG  2   1  -1  24  -1
M  END
>  <UniqueID>  (26) 
26

>  <SMILES>  (26) 
[NH-]C(=O)c1cc2ccc(C#CCO)cc2n1C(=O)CCC(=O)N[O-]

>  <Energy>  (26) 
66.32842391178417

>  <Genealogy>  (26) 
[NH-]C(=O)c1cc2ccc(C#CCO)cc2n1C(=O)CCC(=O)N[O-] (protonated)
[NH-]C(=O)c1cc2ccc(C#CCO)cc2n1C(=O)CCC(=O)N[O-] (3D coordinates assigned)
[NH-]C(=O)c1cc2ccc(C#CCO)cc2n1C(=O)CCC(=O)N[O-] (optimized conformer: 66.32842391178417 kcal/mol)

>  <smiles>  (26) 
NC(=O)c1cc2ccc(C#CCO)cc2n1C(=O)CCC(=O)NO

>  <score_type>  (26) 
oracle

>  <origin>  (26) 
adg

>  <m_score__min__energy>  (26) 
-7.6600000000000001

>  <m_primary>  (26) 
energy

$$$$
26:0
     RDKit          3D

 36 37  0  0  0  0  0  0  0  0999 V2000
  141.3120  155.7330  132.5820 H   0  0  0  0  0  0  0  0  0  0  0  0
  140.6850  156.2190  133.2600 N   0  0  0  0  0  0  0  0  0  0  0  0
  141.0570  157.4660  133.8400 C   0  0  0  0  0  0  0  0  0  0  0  0
  140.1800  158.1640  134.4140 O   0  0  0  0  0  0  0  0  0  0  0  0
  142.4460  157.9650  133.7480 C   0  0  0  0  0  0  0  0  0  0  0  0
  142.7750  159.3150  133.6310 C   0  0  0  0  0  0  0  0  0  0  0  0
  142.0847  160.1714  133.6227 H   0  0  0  0  0  0  0  0  0  0  0  0
  144.1480  159.3480  133.5280 C   0  0  0  0  0  0  0  0  0  0  0  0
  145.0140  160.4310  133.4070 C   0  0  0  0  0  0  0  0  0  0  0  0
  144.6306  161.4608  133.3567 H   0  0  0  0  0  0  0  0  0  0  0  0
  146.3940  160.1680  133.3510 C   0  0  0  0  0  0  0  0  0  0  0  0
  147.1037  161.0025  133.2511 H   0  0  0  0  0  0  0  0  0  0  0  0
  146.8800  158.8380  133.4220 C   0  0  0  0  0  0  0  0  0  0  0  0
  148.3580  158.5790  133.3710 C   0  0  0  0  0  0  0  0  0  0  0  0
  148.8028  159.1860  132.5687 H   0  0  0  0  0  0  0  0  0  0  0  0
  148.5870  157.2390  133.1190 F   0  0  0  0  0  0  0  0  0  0  0  0
  148.9330  158.9200  134.5820 F   0  0  0  0  0  0  0  0  0  0  0  0
  145.9700  157.7650  133.5480 C   0  0  0  0  0  0  0  0  0  0  0  0
  146.3278  156.7270  133.6146 H   0  0  0  0  0  0  0  0  0  0  0  0
  144.6020  158.0560  133.5860 C   0  0  0  0  0  0  0  0  0  0  0  0
  143.5690  157.1960  133.7150 N   0  0  0  0  0  0  0  0  0  0  0  0
  143.6680  155.7740  133.8940 C   0  0  0  0  0  0  0  0  0  0  0  0
  143.2660  155.0080  132.9770 O   0  0  0  0  0  0  0  0  0  0  0  0
  144.2170  155.1890  135.1360 C   0  0  0  0  0  0  0  0  0  0  0  0
  145.4970  155.6190  135.6020 N   0  0  0  0  0  0  0  0  0  0  0  0
  146.8690  154.5650  135.5530 S   0  0  0  0  0  0  0  0  0  0  0  0
  148.0870  155.3380  135.9750 O   0  0  0  0  0  0  0  0  0  0  0  0
  146.6620  153.4250  136.5110 O   0  0  0  0  0  0  0  0  0  0  0  0
  147.1190  153.9340  133.9060 C   0  0  0  0  0  0  0  0  0  0  0  0
  146.1240  153.0290  133.5950 F   0  0  0  0  0  0  0  0  0  0  0  0
  148.3460  153.3020  133.8350 F   0  0  0  0  0  0  0  0  0  0  0  0
  147.0910  154.9790  133.0010 F   0  0  0  0  0  0  0  0  0  0  0  0
  143.5140  154.3140  135.8600 C   0  0  0  0  0  0  0  0  0  0  0  0
  142.5123  154.0071  135.5248 H   0  0  0  0  0  0  0  0  0  0  0  0
  144.0410  153.7880  137.0360 O   0  0  0  0  0  0  0  0  0  0  0  0
  144.8740  154.1880  137.4480 H   0  0  0  0  0  0  0  0  0  0  0  0
  1  2  1  0
  2  3  1  0
  3  4  2  0
  3  5  1  0
  5  6  2  0
  6  7  1  0
  6  8  1  0
  8  9  2  0
  9 10  1  0
  9 11  1  0
 11 12  1  0
 11 13  2  0
 13 14  1  0
 14 15  1  0
 14 16  1  0
 14 17  1  0
 13 18  1  0
 18 19  1  0
 18 20  2  0
 20 21  1  0
 21 22  1  0
 22 23  2  0
 22 24  1  0
 24 25  1  0
 25 26  1  0
 26 27  2  0
 26 28  2  0
 26 29  1  0
 29 30  1  0
 29 31  1  0
 29 32  1  0
 24 33  2  0
 33 34  1  0
 33 35  1  0
 35 36  1  0
 21  5  1  0
 20  8  1  0
M  CHG  2   2  -1  25  -1
M  END
>  <UniqueID>  (27) 
27

>  <SMILES>  (27) 
[NH-]C(=O)c1cc2ccc(C(F)F)cc2n1C(=O)/C(=C/O)[N-]S(=O)(=O)C(F)(F)F

>  <Energy>  (27) 
78.66568664294478

>  <Genealogy>  (27) 
[NH-]C(=O)c1cc2ccc(C(F)F)cc2n1C(=O)/C(=C/O)[N-]S(=O)(=O)C(F)(F)F (protonated)
[NH-]C(=O)c1cc2ccc(C(F)F)cc2n1C(=O)/C(=C/O)[N-]S(=O)(=O)C(F)(F)F (cis-trans isomerization)
[NH-]C(=O)c1cc2ccc(C(F)F)cc2n1C(=O)/C(=C/O)[N-]S(=O)(=O)C(F)(F)F (3D coordinates assigned)
[NH-]C(=O)c1cc2ccc(C(F)F)cc2n1C(=O)/C(=C/O)[N-]S(=O)(=O)C(F)(F)F (optimized conformer: 78.66568664294478 kcal/mol)

>  <smiles>  (27) 
NC(=O)c1cc2ccc(C(F)F)cc2n1C(=O)/C(=C/O)NS(=O)(=O)C(F)(F)F

>  <score_type>  (27) 
oracle

>  <origin>  (27) 
adg

>  <m_score__min__energy>  (27) 
-6.3899999999999997

>  <m_primary>  (27) 
energy

$$$$
27:0
     RDKit          3D

 43 44  0  0  0  0  0  0  0  0999 V2000
  140.9790  158.4410  133.5250 C   0  0  0  0  0  0  0  0  0  0  0  0
  142.4030  158.9070  133.5720 C   0  0  0  0  0  0  0  0  0  0  0  0
  142.6920  160.2810  133.7700 C   0  0  0  0  0  0  0  0  0  0  0  0
  144.0220  160.7380  133.7780 C   0  0  0  0  0  0  0  0  0  0  0  0
  145.0340  159.8030  133.5790 C   0  0  0  0  0  0  0  0  0  0  0  0
  146.4010  159.9670  133.5310 C   0  0  0  0  0  0  0  0  0  0  0  0
  146.9200  158.6930  133.2920 C   0  0  0  0  0  0  0  0  0  0  0  0
  148.3620  158.3780  133.1270 C   0  0  0  0  0  0  0  0  0  0  0  0
  148.8490  157.0390  133.2490 N   0  0  0  0  0  0  0  0  0  0  0  0
  149.1850  159.3010  132.8870 O   0  0  0  0  0  0  0  0  0  0  0  0
  145.9070  157.7880  133.1920 N   0  0  0  0  0  0  0  0  0  0  0  0
  146.0140  156.3740  132.9720 C   0  0  0  0  0  0  0  0  0  0  0  0
  146.6680  155.9570  131.9770 O   0  0  0  0  0  0  0  0  0  0  0  0
  145.3840  155.4360  133.8690 N   0  0  0  0  0  0  0  0  0  0  0  0
  144.2500  154.6410  133.3880 C   0  0  0  0  0  0  0  0  0  0  0  0
  145.8290  155.3180  135.2650 C   0  0  0  0  0  0  0  0  0  0  0  0
  146.9940  154.3680  135.3650 C   0  0  0  0  0  0  0  0  0  0  0  0
  147.0650  153.6040  136.3620 O   0  0  0  0  0  0  0  0  0  0  0  0
  148.0240  154.2870  134.3680 N   0  0  0  0  0  0  0  0  0  0  0  0
  148.4880  153.0890  133.6720 C   0  0  0  0  0  0  0  0  0  0  0  0
  149.4830  153.4470  132.5690 C   0  0  0  0  0  0  0  0  0  0  0  0
  149.5210  154.8330  132.3750 O   0  0  0  0  0  0  0  0  0  0  0  0
  144.7650  158.4770  133.3730 C   0  0  0  0  0  0  0  0  0  0  0  0
  143.4550  157.9910  133.3610 C   0  0  0  0  0  0  0  0  0  0  0  0
  140.5998  158.3169  134.5501 H   0  0  0  0  0  0  0  0  0  0  0  0
  140.3668  159.1857  132.9952 H   0  0  0  0  0  0  0  0  0  0  0  0
  140.9255  157.4785  132.9952 H   0  0  0  0  0  0  0  0  0  0  0  0
  141.8689  160.9955  133.9186 H   0  0  0  0  0  0  0  0  0  0  0  0
  144.2554  161.8012  133.9366 H   0  0  0  0  0  0  0  0  0  0  0  0
  146.9645  160.9036  133.6548 H   0  0  0  0  0  0  0  0  0  0  0  0
  149.8730  156.8490  133.1710 H   0  0  0  0  0  0  0  0  0  0  0  0
  148.2180  156.2370  133.4570 H   0  0  0  0  0  0  0  0  0  0  0  0
  143.6878  154.2469  134.2474 H   0  0  0  0  0  0  0  0  0  0  0  0
  143.5901  155.2753  132.7779 H   0  0  0  0  0  0  0  0  0  0  0  0
  144.6213  153.8044  132.7779 H   0  0  0  0  0  0  0  0  0  0  0  0
  146.1359  156.3082  135.6328 H   0  0  0  0  0  0  0  0  0  0  0  0
  144.9985  154.9303  135.8732 H   0  0  0  0  0  0  0  0  0  0  0  0
  148.9778  152.4200  134.3949 H   0  0  0  0  0  0  0  0  0  0  0  0
  147.6204  152.5921  133.2134 H   0  0  0  0  0  0  0  0  0  0  0  0
  150.4845  153.0939  132.8561 H   0  0  0  0  0  0  0  0  0  0  0  0
  149.1654  152.9649  131.6327 H   0  0  0  0  0  0  0  0  0  0  0  0
  148.5840  155.1490  132.4570 H   0  0  0  0  0  0  0  0  0  0  0  0
  143.2497  156.9237  133.1917 H   0  0  0  0  0  0  0  0  0  0  0  0
  1  2  1  0
  2  3  2  0
  3  4  1  0
  4  5  2  0
  5  6  1  0
  6  7  2  0
  7  8  1  0
  8  9  1  0
  8 10  2  0
  7 11  1  0
 11 12  1  0
 12 13  2  0
 12 14  1  0
 14 15  1  0
 14 16  1  0
 16 17  1  0
 17 18  2  0
 17 19  1  0
 19 20  1  0
 20 21  1  0
 21 22  1  0
 11 23  1  0
 23 24  2  0
 24  2  1  0
 23  5  1  0
  1 25  1  0
  1 26  1  0
  1 27  1  0
  3 28  1  0
  4 29  1  0
  6 30  1  0
  9 31  1  0
  9 32  1  0
 15 33  1  0
 15 34  1  0
 15 35  1  0
 16 36  1  0
 16 37  1  0
 20 38  1  0
 20 39  1  0
 21 40  1  0
 21 41  1  0
 22 42  1  0
 24 43  1  0
M  CHG  1  19  -1
M  END
>  <UniqueID>  (28) 
28

>  <SMILES>  (28) 
Cc1ccc2cc(C(N)=O)n(C(=O)N(C)CC(=O)[N-]CCO)c2c1

>  <Energy>  (28) 
74.08094117366207

>  <Genealogy>  (28) 
Cc1ccc2cc(C(N)=O)n(C(=O)N(C)CC(=O)[N-]CCO)c2c1 (protonated)
Cc1ccc2cc(C(N)=O)n(C(=O)N(C)CC(=O)[N-]CCO)c2c1 (3D coordinates assigned)
Cc1ccc2cc(C(N)=O)n(C(=O)N(C)CC(=O)[N-]CCO)c2c1 (optimized conformer: 74.08094117366207 kcal/mol)

>  <smiles>  (28) 
Cc1ccc2cc(C(N)=O)n(C(=O)N(C)CC(=O)NCCO)c2c1

>  <score_type>  (28) 
oracle

>  <origin>  (28) 
adg

>  <m_score__min__energy>  (28) 
-5.71

>  <m_primary>  (28) 
energy

$$$$
28:0
     RDKit          3D

 43 44  0  0  0  0  0  0  0  0999 V2000
  139.1160  156.9120  133.3510 C   0  0  0  0  0  0  0  0  0  0  0  0
  140.2430  157.6800  132.8130 N   0  0  0  0  0  0  0  0  0  0  0  0
  139.9710  158.9300  132.0890 C   0  0  0  0  0  0  0  0  0  0  0  0
  140.3670  160.1360  132.9390 C   0  0  0  0  0  0  0  0  0  0  0  0
  141.7610  160.2550  132.9630 O   0  0  0  0  0  0  0  0  0  0  0  0
  141.5890  157.2120  133.0620 C   0  0  0  0  0  0  0  0  0  0  0  0
  142.5600  157.7850  132.4940 O   0  0  0  0  0  0  0  0  0  0  0  0
  141.8690  156.0880  134.0260 C   0  0  0  0  0  0  0  0  0  0  0  0
  142.7400  155.0880  133.4130 N   0  0  0  0  0  0  0  0  0  0  0  0
  143.8450  154.4310  134.0500 C   0  0  0  0  0  0  0  0  0  0  0  0
  144.2290  153.3270  133.5830 O   0  0  0  0  0  0  0  0  0  0  0  0
  144.5510  154.9910  135.2250 C   0  0  0  0  0  0  0  0  0  0  0  0
  144.0290  154.9470  136.3700 O   0  0  0  0  0  0  0  0  0  0  0  0
  145.8370  155.6110  135.0650 N   0  0  0  0  0  0  0  0  0  0  0  0
  147.0550  155.0960  135.3930 C   0  0  0  0  0  0  0  0  0  0  0  0
  147.2900  153.8120  136.0880 C   0  0  0  0  0  0  0  0  0  0  0  0
  146.3770  153.3700  137.0900 N   0  0  0  0  0  0  0  0  0  0  0  0
  148.2780  153.0890  135.7920 O   0  0  0  0  0  0  0  0  0  0  0  0
  148.0710  155.9760  135.0260 C   0  0  0  0  0  0  0  0  0  0  0  0
  147.4320  157.0540  134.4550 C   0  0  0  0  0  0  0  0  0  0  0  0
  147.9550  158.2170  133.8970 C   0  0  0  0  0  0  0  0  0  0  0  0
  147.0550  159.1480  133.3510 C   0  0  0  0  0  0  0  0  0  0  0  0
  145.6620  158.8960  133.3640 C   0  0  0  0  0  0  0  0  0  0  0  0
  144.7580  159.8460  132.7940 N   0  0  0  0  0  0  0  0  0  0  0  0
  145.1660  157.7070  133.9370 C   0  0  0  0  0  0  0  0  0  0  0  0
  146.0830  156.8060  134.4890 C   0  0  0  0  0  0  0  0  0  0  0  0
  139.1486  156.9342  134.4503 H   0  0  0  0  0  0  0  0  0  0  0  0
  138.1711  157.3550  133.0032 H   0  0  0  0  0  0  0  0  0  0  0  0
  139.1827  155.8706  133.0032 H   0  0  0  0  0  0  0  0  0  0  0  0
  140.5499  158.9402  131.1537 H   0  0  0  0  0  0  0  0  0  0  0  0
  138.8948  158.9873  131.8687 H   0  0  0  0  0  0  0  0  0  0  0  0
  139.9290  161.0480  132.5073 H   0  0  0  0  0  0  0  0  0  0  0  0
  139.9940  159.9987  133.9647 H   0  0  0  0  0  0  0  0  0  0  0  0
  142.0980  159.6710  132.2340 H   0  0  0  0  0  0  0  0  0  0  0  0
  142.3606  156.4946  134.9221 H   0  0  0  0  0  0  0  0  0  0  0  0
  140.9167  155.6092  134.2978 H   0  0  0  0  0  0  0  0  0  0  0  0
  145.6520  154.0130  137.4770 H   0  0  0  0  0  0  0  0  0  0  0  0
  149.1537  155.8388  135.1632 H   0  0  0  0  0  0  0  0  0  0  0  0
  149.0393  158.4016  133.8838 H   0  0  0  0  0  0  0  0  0  0  0  0
  147.4362  160.0807  132.9097 H   0  0  0  0  0  0  0  0  0  0  0  0
  145.0780  160.8110  132.5530 H   0  0  0  0  0  0  0  0  0  0  0  0
  143.7620  159.5910  132.6110 H   0  0  0  0  0  0  0  0  0  0  0  0
  144.0870  157.4935  133.9497 H   0  0  0  0  0  0  0  0  0  0  0  0
  1  2  1  0
  2  3  1  0
  3  4  1  0
  4  5  1  0
  2  6  1  0
  6  7  2  0
  6  8  1  0
  8  9  1  0
  9 10  1  0
 10 11  2  0
 10 12  1  0
 12 13  2  0
 12 14  1  0
 14 15  1  0
 15 16  1  0
 16 17  1  0
 16 18  2  0
 15 19  2  0
 19 20  1  0
 20 21  2  0
 21 22  1  0
 22 23  2  0
 23 24  1  0
 23 25  1  0
 25 26  2  0
 26 14  1  0
 26 20  1  0
  1 27  1  0
  1 28  1  0
  1 29  1  0
  3 30  1  0
  3 31  1  0
  4 32  1  0
  4 33  1  0
  5 34  1  0
  8 35  1  0
  8 36  1  0
 17 37  1  0
 19 38  1  0
 21 39  1  0
 22 40  1  0
 24 41  1  0
 24 42  1  0
 25 43  1  0
M  CHG  2   9  -1  17  -1
M  END
>  <UniqueID>  (29) 
29

>  <SMILES>  (29) 
CN(CCO)C(=O)C[N-]C(=O)C(=O)n1c(C([NH-])=O)cc2ccc(N)cc21

>  <Energy>  (29) 
77.07280390087433

>  <Genealogy>  (29) 
CN(CCO)C(=O)C[N-]C(=O)C(=O)n1c(C([NH-])=O)cc2ccc(N)cc21 (protonated)
CN(CCO)C(=O)C[N-]C(=O)C(=O)n1c(C([NH-])=O)cc2ccc(N)cc21 (3D coordinates assigned)
CN(CCO)C(=O)C[N-]C(=O)C(=O)n1c(C([NH-])=O)cc2ccc(N)cc21 (optimized conformer: 77.07280390087433 kcal/mol)

>  <smiles>  (29) 
CN(CCO)C(=O)CNC(=O)C(=O)n1c(C(N)=O)cc2ccc(N)cc21

>  <score_type>  (29) 
oracle

>  <origin>  (29) 
adg

>  <m_score__min__energy>  (29) 
-6.2300000000000004

>  <m_primary>  (29) 
energy

$$$$
29:0
     RDKit          3D

 33 34  0  0  0  0  0  0  0  0999 V2000
  148.2630  157.2900  134.4160 N   0  0  0  0  0  0  0  0  0  0  0  0
  147.5850  157.8910  133.3110 C   0  0  0  0  0  0  0  0  0  0  0  0
  148.2390  158.1840  132.2750 O   0  0  0  0  0  0  0  0  0  0  0  0
  146.1280  158.1480  133.3640 C   0  0  0  0  0  0  0  0  0  0  0  0
  145.5570  159.4030  133.5730 C   0  0  0  0  0  0  0  0  0  0  0  0
  144.1990  159.1770  133.6460 C   0  0  0  0  0  0  0  0  0  0  0  0
  143.1500  160.0740  133.8080 C   0  0  0  0  0  0  0  0  0  0  0  0
  141.8410  159.5630  133.8060 C   0  0  0  0  0  0  0  0  0  0  0  0
  141.5950  158.1660  133.6720 C   0  0  0  0  0  0  0  0  0  0  0  0
  140.1740  157.6290  133.5890 C   0  0  0  0  0  0  0  0  0  0  0  0
  139.3330  158.4310  132.2400 Cl  0  0  0  0  0  0  0  0  0  0  0  0
  139.2390  157.9130  135.0870 Cl  0  0  0  0  0  0  0  0  0  0  0  0
  140.1360  155.8630  133.3090 Cl  0  0  0  0  0  0  0  0  0  0  0  0
  142.6990  157.2990  133.4730 C   0  0  0  0  0  0  0  0  0  0  0  0
  143.9890  157.8350  133.4860 C   0  0  0  0  0  0  0  0  0  0  0  0
  145.1600  157.1910  133.3050 N   0  0  0  0  0  0  0  0  0  0  0  0
  145.3180  155.7910  133.0290 C   0  0  0  0  0  0  0  0  0  0  0  0
  144.6680  155.2630  132.0880 O   0  0  0  0  0  0  0  0  0  0  0  0
  146.3270  154.9700  133.7820 C   0  0  0  0  0  0  0  0  0  0  0  0
  145.8530  154.6700  135.2090 C   0  0  0  0  0  0  0  0  0  0  0  0
  146.9940  154.3050  136.1120 C   0  0  0  0  0  0  0  0  0  0  0  0
  146.9840  153.2130  136.7380 O   0  0  0  0  0  0  0  0  0  0  0  0
  148.0630  155.1790  136.2720 O   0  0  0  0  0  0  0  0  0  0  0  0
  147.7720  157.0900  135.3140 H   0  0  0  0  0  0  0  0  0  0  0  0
  149.2850  157.0820  134.3510 H   0  0  0  0  0  0  0  0  0  0  0  0
  146.0788  160.3674  133.6609 H   0  0  0  0  0  0  0  0  0  0  0  0
  143.3385  161.1504  133.9339 H   0  0  0  0  0  0  0  0  0  0  0  0
  140.9912  160.2537  133.9097 H   0  0  0  0  0  0  0  0  0  0  0  0
  142.5424  156.2223  133.3111 H   0  0  0  0  0  0  0  0  0  0  0  0
  146.4838  154.0200  133.2500 H   0  0  0  0  0  0  0  0  0  0  0  0
  147.2637  155.5436  133.8423 H   0  0  0  0  0  0  0  0  0  0  0  0
  145.3517  155.5622  135.6122 H   0  0  0  0  0  0  0  0  0  0  0  0
  145.1642  153.8134  135.1666 H   0  0  0  0  0  0  0  0  0  0  0  0
  1  2  1  0
  2  3  2  0
  2  4  1  0
  4  5  2  0
  5  6  1  0
  6  7  2  0
  7  8  1  0
  8  9  2  0
  9 10  1  0
 10 11  1  0
 10 12  1  0
 10 13  1  0
  9 14  1  0
 14 15  2  0
 15 16  1  0
 16 17  1  0
 17 18  2  0
 17 19  1  0
 19 20  1  0
 20 21  1  0
 21 22  2  0
 21 23  1  0
 16  4  1  0
 15  6  1  0
  1 24  1  0
  1 25  1  0
  5 26  1  0
  7 27  1  0
  8 28  1  0
 14 29  1  0
 19 30  1  0
 19 31  1  0
 20 32  1  0
 20 33  1  0
M  CHG  1  23  -1
M  END
>  <UniqueID>  (30) 
30

>  <SMILES>  (30) 
NC(=O)c1cc2ccc(C(Cl)(Cl)Cl)cc2n1C(=O)CCC(=O)[O-]

>  <Energy>  (30) 
71.55139409590429

>  <Genealogy>  (30) 
NC(=O)c1cc2ccc(C(Cl)(Cl)Cl)cc2n1C(=O)CCC(=O)[O-] (protonated)
NC(=O)c1cc2ccc(C(Cl)(Cl)Cl)cc2n1C(=O)CCC(=O)[O-] (3D coordinates assigned)
NC(=O)c1cc2ccc(C(Cl)(Cl)Cl)cc2n1C(=O)CCC(=O)[O-] (optimized conformer: 71.55139409590429 kcal/mol)

>  <smiles>  (30) 
NC(=O)c1cc2ccc(C(Cl)(Cl)Cl)cc2n1C(=O)CCC(=O)O

>  <score_type>  (30) 
oracle

>  <origin>  (30) 
adg

>  <m_score__min__energy>  (30) 
-7.9500000000000002

>  <m_primary>  (30) 
energy

$$$$
30:0
     RDKit          3D

 38 39  0  0  0  0  0  0  0  0999 V2000
  142.3910  159.3130  135.3210 C   0  0  0  0  0  0  0  0  0  0  0  0
  143.2130  159.4600  134.1150 N   0  0  0  0  0  0  0  0  0  0  0  0
  143.6720  160.8080  133.7420 C   0  0  0  0  0  0  0  0  0  0  0  0
  144.8960  161.2300  134.5640 C   0  0  0  0  0  0  0  0  0  0  0  0
  145.2300  162.6780  134.3740 C   0  0  0  0  0  0  0  0  0  0  0  0
  144.4080  163.4540  133.8210 O   0  0  0  0  0  0  0  0  0  0  0  0
  146.4590  163.1680  134.7990 O   0  0  0  0  0  0  0  0  0  0  0  0
  143.6540  158.3040  133.3740 C   0  0  0  0  0  0  0  0  0  0  0  0
  142.9240  157.8230  132.4650 O   0  0  0  0  0  0  0  0  0  0  0  0
  144.9170  157.6760  133.6610 N   0  0  0  0  0  0  0  0  0  0  0  0
  145.1350  156.5460  134.3890 C   0  0  0  0  0  0  0  0  0  0  0  0
  144.0910  155.6500  134.9260 C   0  0  0  0  0  0  0  0  0  0  0  0
  144.3940  154.7750  136.0110 N   0  0  0  0  0  0  0  0  0  0  0  0
  142.9360  155.6290  134.4220 O   0  0  0  0  0  0  0  0  0  0  0  0
  146.5030  156.3020  134.5140 C   0  0  0  0  0  0  0  0  0  0  0  0
  147.1190  157.3300  133.8350 C   0  0  0  0  0  0  0  0  0  0  0  0
  148.4720  157.5910  133.6390 C   0  0  0  0  0  0  0  0  0  0  0  0
  148.8220  158.7380  132.9080 C   0  0  0  0  0  0  0  0  0  0  0  0
  147.8210  159.6060  132.4040 C   0  0  0  0  0  0  0  0  0  0  0  0
  148.2030  160.8170  131.6000 C   0  0  0  0  0  0  0  0  0  0  0  0
  149.2110  160.4550  130.6000 C   0  0  0  0  0  0  0  0  0  0  0  0
  150.0060  160.1680  129.8100 N   0  0  0  0  0  0  0  0  0  0  0  0
  146.4580  159.3030  132.6160 C   0  0  0  0  0  0  0  0  0  0  0  0
  146.1390  158.1470  133.3340 C   0  0  0  0  0  0  0  0  0  0  0  0
  143.0249  159.4264  136.2128 H   0  0  0  0  0  0  0  0  0  0  0  0
  141.6078  160.0853  135.3273 H   0  0  0  0  0  0  0  0  0  0  0  0
  141.9240  158.3171  135.3273 H   0  0  0  0  0  0  0  0  0  0  0  0
  143.9387  160.8127  132.6748 H   0  0  0  0  0  0  0  0  0  0  0  0
  142.8575  161.5192  133.9440 H   0  0  0  0  0  0  0  0  0  0  0  0
  144.6870  161.0509  135.6290 H   0  0  0  0  0  0  0  0  0  0  0  0
  145.7559  160.6360  134.2208 H   0  0  0  0  0  0  0  0  0  0  0  0
  144.7340  155.1500  136.9240 H   0  0  0  0  0  0  0  0  0  0  0  0
  146.9865  155.4669  135.0421 H   0  0  0  0  0  0  0  0  0  0  0  0
  149.2434  156.9196  134.0442 H   0  0  0  0  0  0  0  0  0  0  0  0
  149.8827  158.9649  132.7249 H   0  0  0  0  0  0  0  0  0  0  0  0
  147.3115  161.2135  131.0921 H   0  0  0  0  0  0  0  0  0  0  0  0
  148.6190  161.5815  132.2727 H   0  0  0  0  0  0  0  0  0  0  0  0
  145.6671  159.9604  132.2258 H   0  0  0  0  0  0  0  0  0  0  0  0
  1  2  1  0
  2  3  1  0
  3  4  1  0
  4  5  1  0
  5  6  2  0
  5  7  1  0
  2  8  1  0
  8  9  2  0
  8 10  1  0
 10 11  1  0
 11 12  1  0
 12 13  1  0
 12 14  2  0
 11 15  2  0
 15 16  1  0
 16 17  2  0
 17 18  1  0
 18 19  2  0
 19 20  1  0
 20 21  1  0
 21 22  3  0
 19 23  1  0
 23 24  2  0
 24 10  1  0
 24 16  1  0
  1 25  1  0
  1 26  1  0
  1 27  1  0
  3 28  1  0
  3 29  1  0
  4 30  1  0
  4 31  1  0
 13 32  1  0
 15 33  1  0
 17 34  1  0
 18 35  1  0
 20 36  1  0
 20 37  1  0
 23 38  1  0
M  CHG  2   7  -1  13  -1
M  END
>  <UniqueID>  (31) 
31

>  <SMILES>  (31) 
CN(CCC(=O)[O-])C(=O)n1c(C([NH-])=O)cc2ccc(CC#N)cc21

>  <Energy>  (31) 
71.15777993141016

>  <Genealogy>  (31) 
CN(CCC(=O)[O-])C(=O)n1c(C([NH-])=O)cc2ccc(CC#N)cc21 (protonated)
CN(CCC(=O)[O-])C(=O)n1c(C([NH-])=O)cc2ccc(CC#N)cc21 (3D coordinates assigned)
CN(CCC(=O)[O-])C(=O)n1c(C([NH-])=O)cc2ccc(CC#N)cc21 (optimized conformer: 71.15777993141016 kcal/mol)

>  <smiles>  (31) 
CN(CCC(=O)O)C(=O)n1c(C(N)=O)cc2ccc(CC#N)cc21

>  <score_type>  (31) 
oracle

>  <origin>  (31) 
adg

>  <m_score__min__energy>  (31) 
-6.9500000000000002

>  <m_primary>  (31) 
energy

$$$$
31:0
     RDKit          3D

 40 41  0  0  0  0  0  0  0  0999 V2000
  148.1160  154.8530  132.6400 C   0  0  0  0  0  0  0  0  0  0  0  0
  147.7040  156.2720  132.8870 C   0  0  0  0  0  0  0  0  0  0  0  0
  148.6840  157.2950  132.9230 C   0  0  0  0  0  0  0  0  0  0  0  0
  148.3140  158.6380  133.1090 C   0  0  0  0  0  0  0  0  0  0  0  0
  146.9590  158.9250  133.2470 C   0  0  0  0  0  0  0  0  0  0  0  0
  146.3160  160.1350  133.4040 C   0  0  0  0  0  0  0  0  0  0  0  0
  144.9570  159.8300  133.4570 C   0  0  0  0  0  0  0  0  0  0  0  0
  143.8910  160.8410  133.6380 C   0  0  0  0  0  0  0  0  0  0  0  0
  142.5260  160.5330  133.3650 N   0  0  0  0  0  0  0  0  0  0  0  0
  144.1900  161.9940  134.0500 O   0  0  0  0  0  0  0  0  0  0  0  0
  144.7690  158.4850  133.3400 N   0  0  0  0  0  0  0  0  0  0  0  0
  143.5270  157.7700  133.3470 C   0  0  0  0  0  0  0  0  0  0  0  0
  142.8390  157.7330  132.2930 O   0  0  0  0  0  0  0  0  0  0  0  0
  143.0830  157.0680  134.5740 C   0  0  0  0  0  0  0  0  0  0  0  0
  143.8790  156.2420  135.1020 O   0  0  0  0  0  0  0  0  0  0  0  0
  141.7950  157.3030  135.1890 N   0  0  0  0  0  0  0  0  0  0  0  0
  141.6660  157.5050  136.6360 C   0  0  0  0  0  0  0  0  0  0  0  0
  140.5700  157.1550  134.3910 C   0  0  0  0  0  0  0  0  0  0  0  0
  140.2810  158.4230  133.6350 C   0  0  0  0  0  0  0  0  0  0  0  0
  140.3850  159.5000  134.2040 O   0  0  0  0  0  0  0  0  0  0  0  0
  139.8400  158.3640  132.1970 C   0  0  0  0  0  0  0  0  0  0  0  0
  140.6040  159.2230  131.3930 O   0  0  0  0  0  0  0  0  0  0  0  0
  146.0000  157.9460  133.2130 C   0  0  0  0  0  0  0  0  0  0  0  0
  146.3380  156.6040  133.0230 C   0  0  0  0  0  0  0  0  0  0  0  0
  148.2645  154.3415  133.6024 H   0  0  0  0  0  0  0  0  0  0  0  0
  147.3305  154.3374  132.0681 H   0  0  0  0  0  0  0  0  0  0  0  0
  149.0555  154.8382  132.0681 H   0  0  0  0  0  0  0  0  0  0  0  0
  149.7462  157.0350  132.8041 H   0  0  0  0  0  0  0  0  0  0  0  0
  149.0703  159.4360  133.1443 H   0  0  0  0  0  0  0  0  0  0  0  0
  146.7782  161.1308  133.4729 H   0  0  0  0  0  0  0  0  0  0  0  0
  142.2680  159.7410  132.7360 H   0  0  0  0  0  0  0  0  0  0  0  0
  142.1844  156.6932  137.1672 H   0  0  0  0  0  0  0  0  0  0  0  0
  142.1154  158.4701  136.9130 H   0  0  0  0  0  0  0  0  0  0  0  0
  140.6015  157.5033  136.9130 H   0  0  0  0  0  0  0  0  0  0  0  0
  140.7002  156.3287  133.6767 H   0  0  0  0  0  0  0  0  0  0  0  0
  139.7279  156.9417  135.0658 H   0  0  0  0  0  0  0  0  0  0  0  0
  139.9541  157.3335  131.8294 H   0  0  0  0  0  0  0  0  0  0  0  0
  138.7885  158.6826  132.1434 H   0  0  0  0  0  0  0  0  0  0  0  0
  141.4590  159.3760  131.8720 H   0  0  0  0  0  0  0  0  0  0  0  0
  145.5610  155.8266  132.9804 H   0  0  0  0  0  0  0  0  0  0  0  0
  1  2  1  0
  2  3  2  0
  3  4  1  0
  4  5  2  0
  5  6  1  0
  6  7  2  0
  7  8  1  0
  8  9  1  0
  8 10  2  0
  7 11  1  0
 11 12  1  0
 12 13  2  0
 12 14  1  0
 14 15  2  0
 14 16  1  0
 16 17  1  0
 16 18  1  0
 18 19  1  0
 19 20  2  0
 19 21  1  0
 21 22  1  0
 11 23  1  0
 23 24  2  0
 24  2  1  0
 23  5  1  0
  1 25  1  0
  1 26  1  0
  1 27  1  0
  3 28  1  0
  4 29  1  0
  6 30  1  0
  9 31  1  0
 17 32  1  0
 17 33  1  0
 17 34  1  0
 18 35  1  0
 18 36  1  0
 21 37  1  0
 21 38  1  0
 22 39  1  0
 24 40  1  0
M  CHG  1   9  -1
M  END
>  <UniqueID>  (32) 
32

>  <SMILES>  (32) 
Cc1ccc2cc(C([NH-])=O)n(C(=O)C(=O)N(C)CC(=O)CO)c2c1

>  <Energy>  (32) 
78.41219508324625

>  <Genealogy>  (32) 
Cc1ccc2cc(C([NH-])=O)n(C(=O)C(=O)N(C)CC(=O)CO)c2c1 (protonated)
Cc1ccc2cc(C([NH-])=O)n(C(=O)C(=O)N(C)CC(=O)CO)c2c1 (3D coordinates assigned)
Cc1ccc2cc(C([NH-])=O)n(C(=O)C(=O)N(C)CC(=O)CO)c2c1 (optimized conformer: 78.41219508324625 kcal/mol)

>  <smiles>  (32) 
Cc1ccc2cc(C(N)=O)n(C(=O)C(=O)N(C)CC(=O)CO)c2c1

>  <score_type>  (32) 
oracle

>  <origin>  (32) 
adg

>  <m_score__min__energy>  (32) 
-6.0499999999999998

>  <m_primary>  (32) 
energy

$$$$
32:0
     RDKit          3D

 44 45  0  0  0  0  0  0  0  0999 V2000
  139.5990  156.7970  132.6410 C   0  0  0  0  0  0  0  0  0  0  0  0
  139.2760  158.1200  133.1880 N   0  0  0  0  0  0  0  0  0  0  0  0
  138.9810  158.2310  134.6230 C   0  0  0  0  0  0  0  0  0  0  0  0
  140.2270  158.5730  135.3740 C   0  0  0  0  0  0  0  0  0  0  0  0
  140.7380  159.7210  135.2480 O   0  0  0  0  0  0  0  0  0  0  0  0
  140.8510  157.5960  136.1540 O   0  0  0  0  0  0  0  0  0  0  0  0
  142.1100  157.0300  135.8090 C   0  0  0  0  0  0  0  0  0  0  0  0
  142.8900  158.0130  135.1360 O   0  0  0  0  0  0  0  0  0  0  0  0
  143.5990  157.7520  133.9600 C   0  0  0  0  0  0  0  0  0  0  0  0
  143.1640  156.9040  133.1330 O   0  0  0  0  0  0  0  0  0  0  0  0
  144.8190  158.4640  133.6920 N   0  0  0  0  0  0  0  0  0  0  0  0
  144.9690  159.8080  133.5180 C   0  0  0  0  0  0  0  0  0  0  0  0
  143.9230  160.8280  133.7520 C   0  0  0  0  0  0  0  0  0  0  0  0
  142.5410  160.4660  133.7560 N   0  0  0  0  0  0  0  0  0  0  0  0
  144.2420  162.0360  133.9130 O   0  0  0  0  0  0  0  0  0  0  0  0
  146.2820  160.1150  133.1690 C   0  0  0  0  0  0  0  0  0  0  0  0
  146.9400  158.9060  133.1360 C   0  0  0  0  0  0  0  0  0  0  0  0
  148.2650  158.6210  132.8200 C   0  0  0  0  0  0  0  0  0  0  0  0
  148.6700  157.2760  132.8270 C   0  0  0  0  0  0  0  0  0  0  0  0
  147.7510  156.2430  133.1530 C   0  0  0  0  0  0  0  0  0  0  0  0
  148.1750  154.7970  133.0880 C   0  0  0  0  0  0  0  0  0  0  0  0
  147.1610  154.0100  132.5690 F   0  0  0  0  0  0  0  0  0  0  0  0
  148.4810  154.3550  134.3620 F   0  0  0  0  0  0  0  0  0  0  0  0
  149.2890  154.6560  132.2800 F   0  0  0  0  0  0  0  0  0  0  0  0
  146.4070  156.5730  133.4470 C   0  0  0  0  0  0  0  0  0  0  0  0
  146.0370  157.9250  133.4530 C   0  0  0  0  0  0  0  0  0  0  0  0
  139.4460  159.3210  132.3970 C   0  0  0  0  0  0  0  0  0  0  0  0
  140.4480  160.0590  132.6000 O   0  0  0  0  0  0  0  0  0  0  0  0
  138.4880  159.7360  131.3500 C   0  0  0  0  0  0  0  0  0  0  0  0
  137.2670  159.4420  131.4220 O   0  0  0  0  0  0  0  0  0  0  0  0
  138.9390  160.4910  130.2730 O   0  0  0  0  0  0  0  0  0  0  0  0
  139.7714  156.0910  133.4667 H   0  0  0  0  0  0  0  0  0  0  0  0
  138.7613  156.4412  132.0232 H   0  0  0  0  0  0  0  0  0  0  0  0
  140.5064  156.8672  132.0232 H   0  0  0  0  0  0  0  0  0  0  0  0
  138.2316  159.0205  134.7812 H   0  0  0  0  0  0  0  0  0  0  0  0
  138.5910  157.2693  134.9878 H   0  0  0  0  0  0  0  0  0  0  0  0
  142.6317  156.7064  136.7218 H   0  0  0  0  0  0  0  0  0  0  0  0
  141.9598  156.1604  135.1523 H   0  0  0  0  0  0  0  0  0  0  0  0
  141.8070  161.1980  133.8780 H   0  0  0  0  0  0  0  0  0  0  0  0
  142.2440  159.4680  133.6820 H   0  0  0  0  0  0  0  0  0  0  0  0
  146.7031  161.1103  132.9637 H   0  0  0  0  0  0  0  0  0  0  0  0
  148.9738  159.4248  132.5722 H   0  0  0  0  0  0  0  0  0  0  0  0
  149.7102  157.0198  132.5773 H   0  0  0  0  0  0  0  0  0  0  0  0
  145.6695  155.7868  133.6658 H   0  0  0  0  0  0  0  0  0  0  0  0
  1  2  1  0
  2  3  1  0
  3  4  1  0
  4  5  2  0
  4  6  1  0
  6  7  1  0
  7  8  1  0
  8  9  1  0
  9 10  2  0
  9 11  1  0
 11 12  1  0
 12 13  1  0
 13 14  1  0
 13 15  2  0
 12 16  2  0
 16 17  1  0
 17 18  2  0
 18 19  1  0
 19 20  2  0
 20 21  1  0
 21 22  1  0
 21 23  1  0
 21 24  1  0
 20 25  1  0
 25 26  2  0
  2 27  1  0
 27 28  2  0
 27 29  1  0
 29 30  2  0
 29 31  1  0
 26 11  1  0
 26 17  1  0
  1 32  1  0
  1 33  1  0
  1 34  1  0
  3 35  1  0
  3 36  1  0
  7 37  1  0
  7 38  1  0
 14 39  1  0
 14 40  1  0
 16 41  1  0
 18 42  1  0
 19 43  1  0
 25 44  1  0
M  CHG  1  31  -1
M  END
>  <UniqueID>  (33) 
33

>  <SMILES>  (33) 
CN(CC(=O)OCOC(=O)n1c(C(N)=O)cc2ccc(C(F)(F)F)cc21)C(=O)C(=O)[O-]

>  <Energy>  (33) 
77.40319555393631

>  <Genealogy>  (33) 
CN(CC(=O)OCOC(=O)n1c(C(N)=O)cc2ccc(C(F)(F)F)cc21)C(=O)C(=O)[O-] (protonated)
CN(CC(=O)OCOC(=O)n1c(C(N)=O)cc2ccc(C(F)(F)F)cc21)C(=O)C(=O)[O-] (3D coordinates assigned)
CN(CC(=O)OCOC(=O)n1c(C(N)=O)cc2ccc(C(F)(F)F)cc21)C(=O)C(=O)[O-] (optimized conformer: 77.40319555393631 kcal/mol)

>  <smiles>  (33) 
CN(CC(=O)OCOC(=O)n1c(C(N)=O)cc2ccc(C(F)(F)F)cc21)C(=O)C(=O)O

>  <score_type>  (33) 
oracle

>  <origin>  (33) 
adg

>  <m_score__min__energy>  (33) 
-5.9299999999999997

>  <m_primary>  (33) 
energy

$$$$
33:0
     RDKit          3D

 32 33  0  0  0  0  0  0  0  0999 V2000
  139.0230  158.3520  135.3880 N   0  0  0  0  0  0  0  0  0  0  0  0
  139.6740  157.5810  134.3770 C   0  0  0  0  0  0  0  0  0  0  0  0
  138.9860  156.8320  133.6340 O   0  0  0  0  0  0  0  0  0  0  0  0
  141.1280  157.6980  134.1440 C   0  0  0  0  0  0  0  0  0  0  0  0
  141.9460  156.6090  133.8600 C   0  0  0  0  0  0  0  0  0  0  0  0
  143.1980  157.1400  133.6530 C   0  0  0  0  0  0  0  0  0  0  0  0
  144.4000  156.5040  133.3560 C   0  0  0  0  0  0  0  0  0  0  0  0
  145.5530  157.2960  133.2390 C   0  0  0  0  0  0  0  0  0  0  0  0
  145.4850  158.7000  133.4220 C   0  0  0  0  0  0  0  0  0  0  0  0
  146.7380  159.5350  133.3440 C   0  0  0  0  0  0  0  0  0  0  0  0
  147.9410  158.7140  132.8330 C   0  0  2  0  0  0  0  0  0  0  0  0
  148.8280  158.3410  133.9370 N   0  0  0  0  0  0  0  0  0  0  0  0
  148.7210  159.4730  131.7950 C   0  0  0  0  0  0  0  0  0  0  0  0
  149.9750  159.5620  131.8770 O   0  0  0  0  0  0  0  0  0  0  0  0
  148.0560  160.1070  130.7530 O   0  0  0  0  0  0  0  0  0  0  0  0
  144.2490  159.3100  133.7310 C   0  0  0  0  0  0  0  0  0  0  0  0
  143.1110  158.4990  133.8210 C   0  0  0  0  0  0  0  0  0  0  0  0
  141.8440  158.8580  134.1280 N   0  0  0  0  0  0  0  0  0  0  0  0
  141.3850  160.1740  134.4840 C   0  0  0  0  0  0  0  0  0  0  0  0
  141.3780  161.0980  133.6280 O   0  0  0  0  0  0  0  0  0  0  0  0
  140.9420  160.4410  135.7730 O   0  0  0  0  0  0  0  0  0  0  0  0
  139.5310  159.1030  135.9040 H   0  0  0  0  0  0  0  0  0  0  0  0
  138.0010  158.2270  135.5640 H   0  0  0  0  0  0  0  0  0  0  0  0
  141.6539  155.5496  133.8114 H   0  0  0  0  0  0  0  0  0  0  0  0
  144.4450  155.4137  133.2172 H   0  0  0  0  0  0  0  0  0  0  0  0
  146.5177  156.8230  133.0032 H   0  0  0  0  0  0  0  0  0  0  0  0
  146.5634  160.3764  132.6573 H   0  0  0  0  0  0  0  0  0  0  0  0
  146.9738  159.8945  134.3565 H   0  0  0  0  0  0  0  0  0  0  0  0
  147.5380  157.8003  132.3717 H   0  0  0  0  0  0  0  0  0  0  0  0
  149.2250  157.3890  133.7630 H   0  0  0  0  0  0  0  0  0  0  0  0
  149.6320  159.0110  133.9590 H   0  0  0  0  0  0  0  0  0  0  0  0
  144.1821  160.3954  133.8969 H   0  0  0  0  0  0  0  0  0  0  0  0
  1  2  1  0
  2  3  2  0
  2  4  1  0
  4  5  2  0
  5  6  1  0
  6  7  2  0
  7  8  1  0
  8  9  2  0
  9 10  1  0
 10 11  1  0
 11 12  1  0
 11 13  1  0
 13 14  2  0
 13 15  1  0
  9 16  1  0
 16 17  2  0
 17 18  1  0
 18 19  1  0
 19 20  2  0
 19 21  1  0
 18  4  1  0
 17  6  1  0
  1 22  1  0
  1 23  1  0
  5 24  1  0
  7 25  1  0
  8 26  1  0
 10 27  1  0
 10 28  1  0
 11 29  1  6
 12 30  1  0
 12 31  1  0
 16 32  1  0
M  CHG  2  15  -1  21  -1
M  END
>  <UniqueID>  (34) 
34

>  <SMILES>  (34) 
NC(=O)c1cc2ccc(C[C@H](N)C(=O)[O-])cc2n1C(=O)[O-]

>  <Energy>  (34) 
69.62212342669902

>  <Genealogy>  (34) 
NC(=O)c1cc2ccc(C[C@H](N)C(=O)[O-])cc2n1C(=O)[O-] (protonated)
NC(=O)c1cc2ccc(C[C@H](N)C(=O)[O-])cc2n1C(=O)[O-] (3D coordinates assigned)
NC(=O)c1cc2ccc(C[C@H](N)C(=O)[O-])cc2n1C(=O)[O-] (optimized conformer: 69.62212342669902 kcal/mol)

>  <smiles>  (34) 
NC(=O)c1cc2ccc(C[C@H](N)C(=O)O)cc2n1C(=O)O

>  <score_type>  (34) 
oracle

>  <origin>  (34) 
adg

>  <m_score__min__energy>  (34) 
-6.5800000000000001

>  <m_primary>  (34) 
energy

$$$$
34:0
     RDKit          3D

 43 44  0  0  0  0  0  0  0  0999 V2000
  143.3800  156.0930  134.9830 C   0  0  0  0  0  0  0  0  0  0  0  0
  144.3660  155.7410  133.9560 N   0  0  0  0  0  0  0  0  0  0  0  0
  143.9320  155.5170  132.5720 C   0  0  0  0  0  0  0  0  0  0  0  0
  144.4750  154.2090  132.0640 C   0  0  0  0  0  0  0  0  0  0  0  0
  144.7220  154.0900  130.8710 O   0  0  0  0  0  0  0  0  0  0  0  0
  144.7430  153.1170  132.9790 N   0  0  0  0  0  0  0  0  0  0  0  0
  143.5820  152.8830  133.8500 C   0  0  0  0  0  0  0  0  0  0  0  0
  145.0890  151.8980  132.2290 C   0  0  0  0  0  0  0  0  0  0  0  0
  145.7390  155.5100  134.3320 C   0  0  0  0  0  0  0  0  0  0  0  0
  146.0190  154.6870  135.2440 O   0  0  0  0  0  0  0  0  0  0  0  0
  146.8040  156.2160  133.6820 N   0  0  0  0  0  0  0  0  0  0  0  0
  147.9440  155.6950  133.1490 C   0  0  0  0  0  0  0  0  0  0  0  0
  148.3310  154.2690  133.1830 C   0  0  0  0  0  0  0  0  0  0  0  0
  147.3440  153.2690  133.4230 N   0  0  0  0  0  0  0  0  0  0  0  0
  149.5280  153.9230  132.9960 O   0  0  0  0  0  0  0  0  0  0  0  0
  148.7180  156.7050  132.5790 C   0  0  0  0  0  0  0  0  0  0  0  0
  148.0040  157.8670  132.7770 C   0  0  0  0  0  0  0  0  0  0  0  0
  148.2950  159.1750  132.4020 C   0  0  0  0  0  0  0  0  0  0  0  0
  147.3610  160.1750  132.7240 C   0  0  0  0  0  0  0  0  0  0  0  0
  146.1600  159.8510  133.4040 C   0  0  0  0  0  0  0  0  0  0  0  0
  145.1730  160.9340  133.7350 C   0  0  0  0  0  0  0  0  0  0  0  0
  144.1460  160.4120  134.4990 F   0  0  0  0  0  0  0  0  0  0  0  0
  145.8050  161.9390  134.4440 F   0  0  0  0  0  0  0  0  0  0  0  0
  145.8980  158.5100  133.7660 C   0  0  0  0  0  0  0  0  0  0  0  0
  146.8520  157.5410  133.4420 C   0  0  0  0  0  0  0  0  0  0  0  0
  143.8175  155.9368  135.9801 H   0  0  0  0  0  0  0  0  0  0  0  0
  143.0935  157.1490  134.8696 H   0  0  0  0  0  0  0  0  0  0  0  0
  142.4895  155.4572  134.8696 H   0  0  0  0  0  0  0  0  0  0  0  0
  142.8329  155.4934  132.5349 H   0  0  0  0  0  0  0  0  0  0  0  0
  144.3110  156.3335  131.9397 H   0  0  0  0  0  0  0  0  0  0  0  0
  145.5580  153.3610  133.5880 H   0  0  0  0  0  0  0  0  0  0  0  0
  143.8948  152.9460  134.9027 H   0  0  0  0  0  0  0  0  0  0  0  0
  142.8138  153.6444  133.6495 H   0  0  0  0  0  0  0  0  0  0  0  0
  143.1687  151.8835  133.6495 H   0  0  0  0  0  0  0  0  0  0  0  0
  145.3194  151.0863  132.9347 H   0  0  0  0  0  0  0  0  0  0  0  0
  144.2390  151.6033  131.5960 H   0  0  0  0  0  0  0  0  0  0  0  0
  145.9671  152.0938  131.5960 H   0  0  0  0  0  0  0  0  0  0  0  0
  147.0670  153.0110  134.3950 H   0  0  0  0  0  0  0  0  0  0  0  0
  149.6913  156.5973  132.0779 H   0  0  0  0  0  0  0  0  0  0  0  0
  149.2266  159.4188  131.8703 H   0  0  0  0  0  0  0  0  0  0  0  0
  147.5641  161.2196  132.4455 H   0  0  0  0  0  0  0  0  0  0  0  0
  144.7627  161.3450  132.8008 H   0  0  0  0  0  0  0  0  0  0  0  0
  144.9692  158.2365  134.2881 H   0  0  0  0  0  0  0  0  0  0  0  0
  1  2  1  0
  2  3  1  0
  3  4  1  0
  4  5  2  0
  4  6  1  0
  6  7  1  0
  6  8  1  0
  2  9  1  0
  9 10  2  0
  9 11  1  0
 11 12  1  0
 12 13  1  0
 13 14  1  0
 13 15  2  0
 12 16  2  0
 16 17  1  0
 17 18  2  0
 18 19  1  0
 19 20  2  0
 20 21  1  0
 21 22  1  0
 21 23  1  0
 20 24  1  0
 24 25  2  0
 25 11  1  0
 25 17  1  0
  1 26  1  0
  1 27  1  0
  1 28  1  0
  3 29  1  0
  3 30  1  0
  6 31  1  0
  7 32  1  0
  7 33  1  0
  7 34  1  0
  8 35  1  0
  8 36  1  0
  8 37  1  0
 14 38  1  0
 16 39  1  0
 18 40  1  0
 19 41  1  0
 21 42  1  0
 24 43  1  0
M  CHG  2   6   1  14  -1
M  END
>  <UniqueID>  (35) 
35

>  <SMILES>  (35) 
CN(CC(=O)[NH+](C)C)C(=O)n1c(C([NH-])=O)cc2ccc(C(F)F)cc21

>  <Energy>  (35) 
77.04477179026665

>  <Genealogy>  (35) 
CN(CC(=O)[NH+](C)C)C(=O)n1c(C([NH-])=O)cc2ccc(C(F)F)cc21 (protonated)
CN(CC(=O)[NH+](C)C)C(=O)n1c(C([NH-])=O)cc2ccc(C(F)F)cc21 (3D coordinates assigned)
CN(CC(=O)[NH+](C)C)C(=O)n1c(C([NH-])=O)cc2ccc(C(F)F)cc21 (optimized conformer: 77.04477179026665 kcal/mol)

>  <smiles>  (35) 
CN(C)C(=O)CN(C)C(=O)n1c(C(N)=O)cc2ccc(C(F)F)cc21

>  <score_type>  (35) 
oracle

>  <origin>  (35) 
adg

>  <m_score__min__energy>  (35) 
-5.0499999999999998

>  <m_primary>  (35) 
energy

$$$$
35:0
     RDKit          3D

 38 40  0  0  0  0  0  0  0  0999 V2000
  138.7410  157.7130  132.8680 N   0  0  0  0  0  0  0  0  0  0  0  0
  139.6160  157.5110  133.9780 C   0  0  0  0  0  0  0  0  0  0  0  0
  139.1360  157.1540  135.0860 O   0  0  0  0  0  0  0  0  0  0  0  0
  141.0640  157.7770  133.8670 C   0  0  0  0  0  0  0  0  0  0  0  0
  142.0390  156.8190  134.1300 C   0  0  0  0  0  0  0  0  0  0  0  0
  143.2400  157.4750  133.9820 C   0  0  0  0  0  0  0  0  0  0  0  0
  144.5380  156.9980  134.1130 C   0  0  0  0  0  0  0  0  0  0  0  0
  145.5970  157.8860  133.8650 C   0  0  0  0  0  0  0  0  0  0  0  0
  145.3460  159.2330  133.4830 C   0  0  0  0  0  0  0  0  0  0  0  0
  146.4090  160.1750  133.2060 N   0  0  0  0  0  0  0  0  0  0  0  0
  147.8130  159.8720  132.8880 C   0  0  1  0  0  0  0  0  0  0  0  0
  148.0040  158.4650  132.3050 C   0  0  0  0  0  0  0  0  0  0  0  0
  148.9230  158.6230  131.0960 C   0  0  0  0  0  0  0  0  0  0  0  0
  149.0830  160.0540  130.8940 N   0  0  0  0  0  0  0  0  0  0  0  0
  149.8230  160.6150  129.8020 C   0  0  0  0  0  0  0  0  0  0  0  0
  149.8260  161.8600  129.6080 O   0  0  0  0  0  0  0  0  0  0  0  0
  150.5440  159.7900  128.9480 O   0  0  0  0  0  0  0  0  0  0  0  0
  148.4260  160.8670  131.9000 C   0  0  0  0  0  0  0  0  0  0  0  0
  144.0080  159.6730  133.3610 C   0  0  0  0  0  0  0  0  0  0  0  0
  142.9710  158.7730  133.6340 C   0  0  0  0  0  0  0  0  0  0  0  0
  141.6350  158.9750  133.5550 N   0  0  0  0  0  0  0  0  0  0  0  0
  140.9670  160.1670  133.1080 C   0  0  0  0  0  0  0  0  0  0  0  0
  139.9990  160.0960  132.3080 O   0  0  0  0  0  0  0  0  0  0  0  0
  141.3810  161.4140  133.5610 O   0  0  0  0  0  0  0  0  0  0  0  0
  139.0790  158.1650  131.9890 H   0  0  0  0  0  0  0  0  0  0  0  0
  137.7250  157.4860  132.9530 H   0  0  0  0  0  0  0  0  0  0  0  0
  141.8831  155.7637  134.3986 H   0  0  0  0  0  0  0  0  0  0  0  0
  144.7307  155.9545  134.4027 H   0  0  0  0  0  0  0  0  0  0  0  0
  146.6346  157.5353  133.9675 H   0  0  0  0  0  0  0  0  0  0  0  0
  146.1640  161.1910  133.2360 H   0  0  0  0  0  0  0  0  0  0  0  0
  148.3275  159.9445  133.8576 H   0  0  0  0  0  0  0  0  0  0  0  0
  148.4672  157.8031  133.0515 H   0  0  0  0  0  0  0  0  0  0  0  0
  147.0410  158.0166  132.0192 H   0  0  0  0  0  0  0  0  0  0  0  0
  149.8982  158.1542  131.2941 H   0  0  0  0  0  0  0  0  0  0  0  0
  148.5006  158.1365  130.2044 H   0  0  0  0  0  0  0  0  0  0  0  0
  149.1555  161.5146  132.4084 H   0  0  0  0  0  0  0  0  0  0  0  0
  147.6652  161.5282  131.4595 H   0  0  0  0  0  0  0  0  0  0  0  0
  143.7853  160.7062  133.0563 H   0  0  0  0  0  0  0  0  0  0  0  0
  1  2  1  0
  2  3  2  0
  2  4  1  0
  4  5  2  0
  5  6  1  0
  6  7  2  0
  7  8  1  0
  8  9  2  0
  9 10  1  0
 10 11  1  0
 11 12  1  0
 12 13  1  0
 13 14  1  0
 14 15  1  0
 15 16  2  0
 15 17  1  0
 14 18  1  0
  9 19  1  0
 19 20  2  0
 20 21  1  0
 21 22  1  0
 22 23  2  0
 22 24  1  0
 21  4  1  0
 20  6  1  0
 18 11  1  0
  1 25  1  0
  1 26  1  0
  5 27  1  0
  7 28  1  0
  8 29  1  0
 10 30  1  0
 11 31  1  1
 12 32  1  0
 12 33  1  0
 13 34  1  0
 13 35  1  0
 18 36  1  0
 18 37  1  0
 19 38  1  0
M  CHG  2  17  -1  24  -1
M  END
>  <UniqueID>  (36) 
36

>  <SMILES>  (36) 
NC(=O)c1cc2ccc(N[C@H]3CCN(C(=O)[O-])C3)cc2n1C(=O)[O-]

>  <Energy>  (36) 
81.73995001417542

>  <Genealogy>  (36) 
NC(=O)c1cc2ccc(N[C@H]3CCN(C(=O)[O-])C3)cc2n1C(=O)[O-] (protonated)
NC(=O)c1cc2ccc(N[C@H]3CCN(C(=O)[O-])C3)cc2n1C(=O)[O-] (3D coordinates assigned)
NC(=O)c1cc2ccc(N[C@H]3CCN(C(=O)[O-])C3)cc2n1C(=O)[O-] (nonaromatic ring conformer: 81.73995001417542 kcal/mol)

>  <smiles>  (36) 
NC(=O)c1cc2ccc(N[C@H]3CCN(C(=O)O)C3)cc2n1C(=O)O

>  <score_type>  (36) 
oracle

>  <origin>  (36) 
adg

>  <m_score__min__energy>  (36) 
-7.9000000000000004

>  <m_primary>  (36) 
energy

$$$$
36:0
     RDKit          3D

 34 35  0  0  0  0  0  0  0  0999 V2000
  149.5840  162.4570  130.1770 C   0  0  0  0  0  0  0  0  0  0  0  0
  149.2350  161.4360  130.7110 C   0  0  0  0  0  0  0  0  0  0  0  0
  148.8160  160.2150  131.3500 C   0  0  0  0  0  0  0  0  0  0  0  0
  149.6400  159.0680  131.2840 C   0  0  0  0  0  0  0  0  0  0  0  0
  149.2360  157.8660  131.8910 C   0  0  0  0  0  0  0  0  0  0  0  0
  148.0140  157.8510  132.5590 C   0  0  0  0  0  0  0  0  0  0  0  0
  147.3740  156.8220  133.2090 C   0  0  0  0  0  0  0  0  0  0  0  0
  146.1810  157.3660  133.6810 C   0  0  0  0  0  0  0  0  0  0  0  0
  145.2100  156.6290  134.5200 C   0  0  0  0  0  0  0  0  0  0  0  0
  143.8280  156.9900  134.5260 N   0  0  0  0  0  0  0  0  0  0  0  0
  145.5910  155.6530  135.2210 O   0  0  0  0  0  0  0  0  0  0  0  0
  146.0870  158.6810  133.3330 N   0  0  0  0  0  0  0  0  0  0  0  0
  144.9910  159.5760  133.5860 C   0  0  0  0  0  0  0  0  0  0  0  0
  145.1730  160.6060  134.2910 O   0  0  0  0  0  0  0  0  0  0  0  0
  143.6960  159.2920  133.0490 N   0  0  0  0  0  0  0  0  0  0  0  0
  142.4950  160.0620  133.3570 C   0  0  0  0  0  0  0  0  0  0  0  0
  141.8280  159.5350  134.6390 C   0  0  2  0  0  0  0  0  0  0  0  0
  142.7810  159.1510  135.5980 O   0  0  0  0  0  0  0  0  0  0  0  0
  140.9010  158.3910  134.3320 C   0  0  0  0  0  0  0  0  0  0  0  0
  141.3580  157.2300  134.1470 O   0  0  0  0  0  0  0  0  0  0  0  0
  139.5330  158.6090  134.2450 O   0  0  0  0  0  0  0  0  0  0  0  0
  147.2160  158.9640  132.6470 C   0  0  0  0  0  0  0  0  0  0  0  0
  147.5840  160.1680  132.0340 C   0  0  0  0  0  0  0  0  0  0  0  0
  149.9029  163.3899  129.6891 H   0  0  0  0  0  0  0  0  0  0  0  0
  150.6030  159.1164  130.7545 H   0  0  0  0  0  0  0  0  0  0  0  0
  149.8655  156.9654  131.8399 H   0  0  0  0  0  0  0  0  0  0  0  0
  147.7288  155.7879  133.3307 H   0  0  0  0  0  0  0  0  0  0  0  0
  143.4820  157.8260  134.0060 H   0  0  0  0  0  0  0  0  0  0  0  0
  143.1450  156.4380  135.0930 H   0  0  0  0  0  0  0  0  0  0  0  0
  142.7691  161.1177  133.4998 H   0  0  0  0  0  0  0  0  0  0  0  0
  141.7861  159.9626  132.5218 H   0  0  0  0  0  0  0  0  0  0  0  0
  141.2367  160.3600  135.0630 H   0  0  0  0  0  0  0  0  0  0  0  0
  143.6820  159.3260  135.2170 H   0  0  0  0  0  0  0  0  0  0  0  0
  146.9308  161.0516  132.0846 H   0  0  0  0  0  0  0  0  0  0  0  0
  1  2  3  0
  2  3  1  0
  3  4  2  0
  4  5  1  0
  5  6  2  0
  6  7  1  0
  7  8  2  0
  8  9  1  0
  9 10  1  0
  9 11  2  0
  8 12  1  0
 12 13  1  0
 13 14  2  0
 13 15  1  0
 15 16  1  0
 16 17  1  0
 17 18  1  0
 17 19  1  0
 19 20  2  0
 19 21  1  0
 12 22  1  0
 22 23  2  0
 23  3  1  0
 22  6  1  0
  1 24  1  0
  4 25  1  0
  5 26  1  0
  7 27  1  0
 10 28  1  0
 10 29  1  0
 16 30  1  0
 16 31  1  0
 17 32  1  1
 18 33  1  0
 23 34  1  0
M  CHG  2  15  -1  21  -1
M  END
>  <UniqueID>  (37) 
37

>  <SMILES>  (37) 
C#Cc1ccc2cc(C(N)=O)n(C(=O)[N-]C[C@H](O)C(=O)[O-])c2c1

>  <Energy>  (37) 
69.06062844415806

>  <Genealogy>  (37) 
C#Cc1ccc2cc(C(N)=O)n(C(=O)[N-]CC(O)C(=O)[O-])c2c1 (protonated)
C#Cc1ccc2cc(C(N)=O)n(C(=O)[N-]C[C@H](O)C(=O)[O-])c2c1 (chirality)
C#Cc1ccc2cc(C(N)=O)n(C(=O)[N-]C[C@H](O)C(=O)[O-])c2c1 (3D coordinates assigned)
C#Cc1ccc2cc(C(N)=O)n(C(=O)[N-]C[C@H](O)C(=O)[O-])c2c1 (optimized conformer: 69.06062844415806 kcal/mol)

>  <smiles>  (37) 
C#Cc1ccc2cc(C(N)=O)n(C(=O)NCC(O)C(=O)O)c2c1

>  <score_type>  (37) 
oracle

>  <origin>  (37) 
adg

>  <m_score__min__energy>  (37) 
-6.8700000000000001

>  <m_primary>  (37) 
energy

$$$$
37:0
     RDKit          3D

 42 43  0  0  0  0  0  0  0  0999 V2000
  139.4770  157.8660  136.3930 C   0  0  0  0  0  0  0  0  0  0  0  0
  139.9120  158.2060  135.0350 N   0  0  0  0  0  0  0  0  0  0  0  0
  139.3750  157.4450  133.8980 C   0  0  0  0  0  0  0  0  0  0  0  0
  138.3630  158.2890  133.1080 C   0  0  0  0  0  0  0  0  0  0  0  0
  138.8050  158.5200  131.6580 C   0  0  0  0  0  0  0  0  0  0  0  0
  138.1180  159.7040  131.0500 C   0  0  0  0  0  0  0  0  0  0  0  0
  136.8620  159.7870  131.0680 O   0  0  0  0  0  0  0  0  0  0  0  0
  138.8650  160.6990  130.4310 O   0  0  0  0  0  0  0  0  0  0  0  0
  140.9480  159.1980  134.8690 C   0  0  0  0  0  0  0  0  0  0  0  0
  141.1360  160.0470  135.7820 O   0  0  0  0  0  0  0  0  0  0  0  0
  141.7930  159.2690  133.6540 C   0  0  0  0  0  0  0  0  0  0  0  0
  141.4200  159.9260  132.6470 O   0  0  0  0  0  0  0  0  0  0  0  0
  143.0470  158.5760  133.6080 N   0  0  0  0  0  0  0  0  0  0  0  0
  144.3030  159.0990  133.6840 C   0  0  0  0  0  0  0  0  0  0  0  0
  144.6400  160.5370  133.7340 C   0  0  0  0  0  0  0  0  0  0  0  0
  143.6180  161.5310  133.7470 N   0  0  0  0  0  0  0  0  0  0  0  0
  145.8480  160.8950  133.7380 O   0  0  0  0  0  0  0  0  0  0  0  0
  145.2540  158.0790  133.6510 C   0  0  0  0  0  0  0  0  0  0  0  0
  144.5330  156.9110  133.5390 C   0  0  0  0  0  0  0  0  0  0  0  0
  144.9650  155.5900  133.4760 C   0  0  0  0  0  0  0  0  0  0  0  0
  143.9910  154.5810  133.3820 C   0  0  0  0  0  0  0  0  0  0  0  0
  142.6100  154.9070  133.3350 C   0  0  0  0  0  0  0  0  0  0  0  0
  141.5730  153.8130  133.2900 C   0  0  0  0  0  0  0  0  0  0  0  0
  141.8910  152.9270  132.2780 F   0  0  0  0  0  0  0  0  0  0  0  0
  141.5310  153.1290  134.4920 F   0  0  0  0  0  0  0  0  0  0  0  0
  140.3170  154.3420  133.0490 F   0  0  0  0  0  0  0  0  0  0  0  0
  142.2120  156.2610  133.4250 C   0  0  0  0  0  0  0  0  0  0  0  0
  143.2040  157.2410  133.5120 C   0  0  0  0  0  0  0  0  0  0  0  0
  140.1251  158.3726  137.1233 H   0  0  0  0  0  0  0  0  0  0  0  0
  138.4366  158.1928  136.5374 H   0  0  0  0  0  0  0  0  0  0  0  0
  139.5428  156.7775  136.5374 H   0  0  0  0  0  0  0  0  0  0  0  0
  140.2026  157.1577  133.2328 H   0  0  0  0  0  0  0  0  0  0  0  0
  138.8647  156.5493  134.2818 H   0  0  0  0  0  0  0  0  0  0  0  0
  137.3943  157.7678  133.1039 H   0  0  0  0  0  0  0  0  0  0  0  0
  138.2884  159.2711  133.5978 H   0  0  0  0  0  0  0  0  0  0  0  0
  139.8916  158.6904  131.6396 H   0  0  0  0  0  0  0  0  0  0  0  0
  138.5350  157.6292  131.0718 H   0  0  0  0  0  0  0  0  0  0  0  0
  142.6160  161.2700  133.8760 H   0  0  0  0  0  0  0  0  0  0  0  0
  146.3476  158.1851  133.7033 H   0  0  0  0  0  0  0  0  0  0  0  0
  146.0366  155.3426  133.4991 H   0  0  0  0  0  0  0  0  0  0  0  0
  144.3023  153.5266  133.3444 H   0  0  0  0  0  0  0  0  0  0  0  0
  141.1469  156.5360  133.4265 H   0  0  0  0  0  0  0  0  0  0  0  0
  1  2  1  0
  2  3  1  0
  3  4  1  0
  4  5  1  0
  5  6  1  0
  6  7  2  0
  6  8  1  0
  2  9  1  0
  9 10  2  0
  9 11  1  0
 11 12  2  0
 11 13  1  0
 13 14  1  0
 14 15  1  0
 15 16  1  0
 15 17  2  0
 14 18  2  0
 18 19  1  0
 19 20  2  0
 20 21  1  0
 21 22  2  0
 22 23  1  0
 23 24  1  0
 23 25  1  0
 23 26  1  0
 22 27  1  0
 27 28  2  0
 28 13  1  0
 28 19  1  0
  1 29  1  0
  1 30  1  0
  1 31  1  0
  3 32  1  0
  3 33  1  0
  4 34  1  0
  4 35  1  0
  5 36  1  0
  5 37  1  0
 16 38  1  0
 18 39  1  0
 20 40  1  0
 21 41  1  0
 27 42  1  0
M  CHG  2   8  -1  16  -1
M  END
>  <UniqueID>  (38) 
38

>  <SMILES>  (38) 
CN(CCCC(=O)[O-])C(=O)C(=O)n1c(C([NH-])=O)cc2ccc(C(F)(F)F)cc21

>  <Energy>  (38) 
79.54689185910189

>  <Genealogy>  (38) 
CN(CCCC(=O)[O-])C(=O)C(=O)n1c(C([NH-])=O)cc2ccc(C(F)(F)F)cc21 (protonated)
CN(CCCC(=O)[O-])C(=O)C(=O)n1c(C([NH-])=O)cc2ccc(C(F)(F)F)cc21 (3D coordinates assigned)
CN(CCCC(=O)[O-])C(=O)C(=O)n1c(C([NH-])=O)cc2ccc(C(F)(F)F)cc21 (optimized conformer: 79.54689185910189 kcal/mol)

>  <smiles>  (38) 
CN(CCCC(=O)O)C(=O)C(=O)n1c(C(N)=O)cc2ccc(C(F)(F)F)cc21

>  <score_type>  (38) 
oracle

>  <origin>  (38) 
adg

>  <m_score__min__energy>  (38) 
-6.7999999999999998

>  <m_primary>  (38) 
energy

$$$$
38:0
     RDKit          3D

 45 47  0  0  0  0  0  0  0  0999 V2000
  148.3290  153.3170  133.5450 C   0  0  0  0  0  0  0  0  0  0  0  0
  148.1010  152.6450  132.2540 N   0  0  0  0  0  0  0  0  0  0  0  0
  149.2840  151.8840  131.8250 C   0  0  0  0  0  0  0  0  0  0  0  0
  146.9110  151.8130  132.2410 C   0  0  0  0  0  0  0  0  0  0  0  0
  147.0330  150.5880  131.9620 O   0  0  0  0  0  0  0  0  0  0  0  0
  145.5420  152.3270  132.5060 C   0  0  0  0  0  0  0  0  0  0  0  0
  145.3390  153.7130  132.6000 C   0  0  0  0  0  0  0  0  0  0  0  0
  144.0660  154.2320  132.8480 C   0  0  0  0  0  0  0  0  0  0  0  0
  142.9650  153.3740  133.0020 C   0  0  0  0  0  0  0  0  0  0  0  0
  141.6190  153.9240  133.2890 C   0  0  0  0  0  0  0  0  0  0  0  0
  140.6230  153.5320  132.6210 O   0  0  0  0  0  0  0  0  0  0  0  0
  141.4280  154.9180  134.3100 N   0  0  0  0  0  0  0  0  0  0  0  0
  141.7300  154.8200  135.6340 C   0  0  0  0  0  0  0  0  0  0  0  0
  142.4450  153.6990  136.2800 C   0  0  0  0  0  0  0  0  0  0  0  0
  143.7880  153.8460  136.7310 N   0  0  0  0  0  0  0  0  0  0  0  0
  141.8510  152.6030  136.4620 O   0  0  0  0  0  0  0  0  0  0  0  0
  141.3150  155.9650  136.3140 C   0  0  0  0  0  0  0  0  0  0  0  0
  140.7440  156.7720  135.3550 C   0  0  0  0  0  0  0  0  0  0  0  0
  140.1480  158.0230  135.4730 C   0  0  0  0  0  0  0  0  0  0  0  0
  139.6170  158.6130  134.3120 C   0  0  0  0  0  0  0  0  0  0  0  0
  139.6980  157.9510  133.0590 C   0  0  0  0  0  0  0  0  0  0  0  0
  139.0810  158.5670  131.8300 C   0  0  0  0  0  0  0  0  0  0  0  0
  137.9820  159.3200  132.2020 F   0  0  0  0  0  0  0  0  0  0  0  0
  139.9900  159.3860  131.1820 F   0  0  0  0  0  0  0  0  0  0  0  0
  138.6750  157.5840  130.9430 F   0  0  0  0  0  0  0  0  0  0  0  0
  140.2860  156.6670  132.9880 C   0  0  0  0  0  0  0  0  0  0  0  0
  140.8220  156.1140  134.1550 C   0  0  0  0  0  0  0  0  0  0  0  0
  143.1600  151.9890  132.8700 C   0  0  0  0  0  0  0  0  0  0  0  0
  144.4340  151.4720  132.6230 C   0  0  0  0  0  0  0  0  0  0  0  0
  148.0937  152.6236  134.3659 H   0  0  0  0  0  0  0  0  0  0  0  0
  149.3823  153.6260  133.6165 H   0  0  0  0  0  0  0  0  0  0  0  0
  147.6812  154.2032  133.6165 H   0  0  0  0  0  0  0  0  0  0  0  0
  147.9520  153.4050  131.5470 H   0  0  0  0  0  0  0  0  0  0  0  0
  149.8334  151.5306  132.7100 H   0  0  0  0  0  0  0  0  0  0  0  0
  148.9658  151.0207  131.2220 H   0  0  0  0  0  0  0  0  0  0  0  0
  149.9376  152.5315  131.2220 H   0  0  0  0  0  0  0  0  0  0  0  0
  146.1913  154.3974  132.4771 H   0  0  0  0  0  0  0  0  0  0  0  0
  143.9250  155.3203  132.9232 H   0  0  0  0  0  0  0  0  0  0  0  0
  144.0310  154.5260  137.4850 H   0  0  0  0  0  0  0  0  0  0  0  0
  141.4212  156.1781  137.3879 H   0  0  0  0  0  0  0  0  0  0  0  0
  140.0935  158.5354  136.4448 H   0  0  0  0  0  0  0  0  0  0  0  0
  139.1333  159.5989  134.3757 H   0  0  0  0  0  0  0  0  0  0  0  0
  140.3209  156.1159  132.0366 H   0  0  0  0  0  0  0  0  0  0  0  0
  142.3025  151.3061  132.9619 H   0  0  0  0  0  0  0  0  0  0  0  0
  144.5706  150.3855  132.5192 H   0  0  0  0  0  0  0  0  0  0  0  0
  1  2  1  0
  2  3  1  0
  2  4  1  0
  4  5  2  0
  4  6  1  0
  6  7  2  0
  7  8  1  0
  8  9  2  0
  9 10  1  0
 10 11  2  0
 10 12  1  0
 12 13  1  0
 13 14  1  0
 14 15  1  0
 14 16  2  0
 13 17  2  0
 17 18  1  0
 18 19  2  0
 19 20  1  0
 20 21  2  0
 21 22  1  0
 22 23  1  0
 22 24  1  0
 22 25  1  0
 21 26  1  0
 26 27  2  0
  9 28  1  0
 28 29  2  0
 29  6  1  0
 27 12  1  0
 27 18  1  0
  1 30  1  0
  1 31  1  0
  1 32  1  0
  2 33  1  0
  3 34  1  0
  3 35  1  0
  3 36  1  0
  7 37  1  0
  8 38  1  0
 15 39  1  0
 17 40  1  0
 19 41  1  0
 20 42  1  0
 26 43  1  0
 28 44  1  0
 29 45  1  0
M  CHG  2   2   1  15  -1
M  END
>  <UniqueID>  (39) 
39

>  <SMILES>  (39) 
C[NH+](C)C(=O)c1ccc(C(=O)n2c(C([NH-])=O)cc3ccc(C(F)(F)F)cc32)cc1

>  <Energy>  (39) 
96.98813552655982

>  <Genealogy>  (39) 
C[NH+](C)C(=O)c1ccc(C(=O)n2c(C([NH-])=O)cc3ccc(C(F)(F)F)cc32)cc1 (protonated)
C[NH+](C)C(=O)c1ccc(C(=O)n2c(C([NH-])=O)cc3ccc(C(F)(F)F)cc32)cc1 (3D coordinates assigned)
C[NH+](C)C(=O)c1ccc(C(=O)n2c(C([NH-])=O)cc3ccc(C(F)(F)F)cc32)cc1 (optimized conformer: 96.98813552655982 kcal/mol)

>  <smiles>  (39) 
CN(C)C(=O)c1ccc(C(=O)n2c(C(N)=O)cc3ccc(C(F)(F)F)cc32)cc1

>  <score_type>  (39) 
oracle

>  <origin>  (39) 
adg

>  <m_score__min__energy>  (39) 
-7.5300000000000002

>  <m_primary>  (39) 
energy

$$$$
39:0
     RDKit          3D

 41 44  0  0  0  0  0  0  0  0999 V2000
  142.6850  160.0970  133.3360 N   0  0  0  0  0  0  0  0  0  0  0  0
  144.0260  160.4650  133.6520 C   0  0  0  0  0  0  0  0  0  0  0  0
  144.2650  161.6300  134.0650 O   0  0  0  0  0  0  0  0  0  0  0  0
  145.1120  159.4720  133.5260 C   0  0  0  0  0  0  0  0  0  0  0  0
  146.4560  159.8110  133.3730 C   0  0  0  0  0  0  0  0  0  0  0  0
  147.1170  158.6150  133.2110 C   0  0  0  0  0  0  0  0  0  0  0  0
  148.4720  158.3550  133.0220 C   0  0  0  0  0  0  0  0  0  0  0  0
  148.8750  157.0140  132.9010 C   0  0  0  0  0  0  0  0  0  0  0  0
  147.9230  155.9690  132.9730 C   0  0  0  0  0  0  0  0  0  0  0  0
  148.3450  154.6090  132.8560 N   0  0  0  0  0  0  0  0  0  0  0  0
  147.7430  153.2620  133.0200 C   0  0  0  0  0  0  0  0  0  0  0  0
  148.9900  152.5370  132.6750 C   0  0  0  0  0  0  0  0  0  0  0  0
  149.5870  151.4930  133.5680 C   0  0  0  0  0  0  0  0  0  0  0  0
  149.6070  150.5580  132.5040 O   0  0  0  0  0  0  0  0  0  0  0  0
  149.0450  151.4950  131.6020 C   0  0  0  0  0  0  0  0  0  0  0  0
  149.5920  153.8830  132.5110 C   0  0  0  0  0  0  0  0  0  0  0  0
  146.5580  156.2670  133.1650 C   0  0  0  0  0  0  0  0  0  0  0  0
  146.1860  157.6100  133.2710 C   0  0  0  0  0  0  0  0  0  0  0  0
  144.9520  158.1200  133.4690 N   0  0  0  0  0  0  0  0  0  0  0  0
  143.7480  157.3570  133.6420 C   0  0  0  0  0  0  0  0  0  0  0  0
  142.9390  157.2550  132.6810 O   0  0  0  0  0  0  0  0  0  0  0  0
  143.5470  156.5400  134.8880 C   0  0  0  0  0  0  0  0  0  0  0  0
  143.9000  154.7720  134.6190 P   0  0  0  0  0  0  0  0  0  0  0  0
  144.0500  154.5020  133.1390 O   0  0  0  0  0  0  0  0  0  0  0  0
  145.3410  154.3690  135.4060 O   0  0  0  0  0  0  0  0  0  0  0  0
  142.6420  153.8250  135.2360 O   0  0  0  0  0  0  0  0  0  0  0  0
  142.4840  159.3750  132.6100 H   0  0  0  0  0  0  0  0  0  0  0  0
  146.8945  160.8198  133.3803 H   0  0  0  0  0  0  0  0  0  0  0  0
  149.2044  159.1740  132.9690 H   0  0  0  0  0  0  0  0  0  0  0  0
  149.9379  156.7748  132.7492 H   0  0  0  0  0  0  0  0  0  0  0  0
  147.3992  153.0651  134.0462 H   0  0  0  0  0  0  0  0  0  0  0  0
  146.8341  153.0289  132.4459 H   0  0  0  0  0  0  0  0  0  0  0  0
  150.5849  151.7527  133.9510 H   0  0  0  0  0  0  0  0  0  0  0  0
  149.0913  151.2341  134.5153 H   0  0  0  0  0  0  0  0  0  0  0  0
  149.7059  151.7557  130.7622 H   0  0  0  0  0  0  0  0  0  0  0  0
  148.1338  151.2372  131.0423 H   0  0  0  0  0  0  0  0  0  0  0  0
  150.4134  154.0771  133.2164 H   0  0  0  0  0  0  0  0  0  0  0  0
  150.0783  154.1181  131.5527 H   0  0  0  0  0  0  0  0  0  0  0  0
  145.8076  155.4653  133.2295 H   0  0  0  0  0  0  0  0  0  0  0  0
  144.2184  156.9196  135.6723 H   0  0  0  0  0  0  0  0  0  0  0  0
  142.4916  156.6316  135.1844 H   0  0  0  0  0  0  0  0  0  0  0  0
  1  2  1  0
  2  3  2  0
  2  4  1  0
  4  5  2  0
  5  6  1  0
  6  7  2  0
  7  8  1  0
  8  9  2  0
  9 10  1  0
 10 11  1  0
 11 12  1  0
 12 13  1  0
 13 14  1  0
 14 15  1  0
 12 16  1  0
  9 17  1  0
 17 18  2  0
 18 19  1  0
 19 20  1  0
 20 21  2  0
 20 22  1  0
 22 23  1  0
 23 24  2  0
 23 25  1  0
 23 26  1  0
 19  4  1  0
 18  6  1  0
 16 10  1  0
 15 12  1  0
  1 27  1  0
  5 28  1  0
  7 29  1  0
  8 30  1  0
 11 31  1  0
 11 32  1  0
 13 33  1  0
 13 34  1  0
 15 35  1  0
 15 36  1  0
 16 37  1  0
 16 38  1  0
 17 39  1  0
 22 40  1  0
 22 41  1  0
M  CHG  3   1  -1  25  -1  26  -1
M  END
>  <UniqueID>  (40) 
40

>  <SMILES>  (40) 
[NH-]C(=O)c1cc2ccc(N3CC4(COC4)C3)cc2n1C(=O)CP(=O)([O-])[O-]

>  <Energy>  (40) 
203.62321345661036

>  <Genealogy>  (40) 
[NH-]C(=O)c1cc2ccc(N3CC4(COC4)C3)cc2n1C(=O)CP(=O)([O-])[O-] (protonated)
[NH-]C(=O)c1cc2ccc(N3CC4(COC4)C3)cc2n1C(=O)CP(=O)([O-])[O-] (3D coordinates assigned)
[NH-]C(=O)c1cc2ccc(N3CC4(COC4)C3)cc2n1C(=O)CP(=O)([O-])[O-] (nonaromatic ring conformer: 203.62321345661036 kcal/mol)

>  <smiles>  (40) 
NC(=O)c1cc2ccc(N3CC4(COC4)C3)cc2n1C(=O)CP(=O)(O)O

>  <score_type>  (40) 
oracle

>  <origin>  (40) 
adg

>  <m_score__min__energy>  (40) 
-7.4000000000000004

>  <m_primary>  (40) 
energy

$$$$
40:0
     RDKit          3D

 51 53  0  0  0  0  0  0  0  0999 V2000
  139.7290  157.0680  132.6980 C   0  0  0  0  0  0  0  0  0  0  0  0
  140.3200  158.3970  132.9350 N   0  0  0  0  0  0  0  0  0  0  0  0
  139.5630  159.4160  132.1880 C   0  0  0  0  0  0  0  0  0  0  0  0
  140.3460  158.7380  134.3780 C   0  0  0  0  0  0  0  0  0  0  0  0
  140.1160  157.4980  135.2900 C   0  0  2  0  0  0  0  0  0  0  0  0
  139.5150  157.8690  136.6520 C   0  0  0  0  0  0  0  0  0  0  0  0
  140.6760  157.8410  137.6430 C   0  0  0  0  0  0  0  0  0  0  0  0
  141.7310  156.9410  137.0170 C   0  0  0  0  0  0  0  0  0  0  0  0
  141.3840  156.8560  135.6090 N   0  0  0  0  0  0  0  0  0  0  0  0
  142.1250  156.0730  134.6610 C   0  0  0  0  0  0  0  0  0  0  0  0
  141.6390  154.9960  134.2180 O   0  0  0  0  0  0  0  0  0  0  0  0
  143.3890  156.5160  134.2510 O   0  0  0  0  0  0  0  0  0  0  0  0
  143.6380  157.3920  133.1870 C   0  0  0  0  0  0  0  0  0  0  0  0
  142.8300  157.4870  132.2240 O   0  0  0  0  0  0  0  0  0  0  0  0
  144.8390  158.1810  133.1950 N   0  0  0  0  0  0  0  0  0  0  0  0
  144.9510  159.5190  133.4290 C   0  0  0  0  0  0  0  0  0  0  0  0
  143.8310  160.4790  133.5210 C   0  0  0  0  0  0  0  0  0  0  0  0
  142.5070  160.0940  133.1660 N   0  0  0  0  0  0  0  0  0  0  0  0
  144.0570  161.6710  133.8660 O   0  0  0  0  0  0  0  0  0  0  0  0
  146.2910  159.8970  133.4870 C   0  0  0  0  0  0  0  0  0  0  0  0
  147.0050  158.7420  133.2710 C   0  0  0  0  0  0  0  0  0  0  0  0
  148.3820  158.5360  133.2230 C   0  0  0  0  0  0  0  0  0  0  0  0
  148.8440  157.2260  133.0050 C   0  0  0  0  0  0  0  0  0  0  0  0
  147.9300  156.1530  132.8600 C   0  0  0  0  0  0  0  0  0  0  0  0
  148.4370  154.7640  132.6030 C   0  0  0  0  0  0  0  0  0  0  0  0
  149.7970  154.8090  132.3540 F   0  0  0  0  0  0  0  0  0  0  0  0
  146.5400  156.4020  132.9000 C   0  0  0  0  0  0  0  0  0  0  0  0
  146.1070  157.7190  133.0980 C   0  0  0  0  0  0  0  0  0  0  0  0
  139.5142  156.5849  133.6626 H   0  0  0  0  0  0  0  0  0  0  0  0
  138.7952  157.1785  132.1272 H   0  0  0  0  0  0  0  0  0  0  0  0
  140.4365  156.4486  132.1272 H   0  0  0  0  0  0  0  0  0  0  0  0
  141.3000  158.3960  132.5630 H   0  0  0  0  0  0  0  0  0  0  0  0
  139.0609  160.0919  132.8959 H   0  0  0  0  0  0  0  0  0  0  0  0
  140.2523  159.9942  131.5551 H   0  0  0  0  0  0  0  0  0  0  0  0
  138.8104  158.9230  131.5551 H   0  0  0  0  0  0  0  0  0  0  0  0
  141.3259  159.1757  134.6190 H   0  0  0  0  0  0  0  0  0  0  0  0
  139.5271  159.4476  134.5676 H   0  0  0  0  0  0  0  0  0  0  0  0
  139.4340  156.8473  134.7231 H   0  0  0  0  0  0  0  0  0  0  0  0
  139.0696  158.8740  136.6127 H   0  0  0  0  0  0  0  0  0  0  0  0
  138.7169  157.1710  136.9450 H   0  0  0  0  0  0  0  0  0  0  0  0
  141.0766  158.8544  137.7930 H   0  0  0  0  0  0  0  0  0  0  0  0
  140.3591  157.4697  138.6288 H   0  0  0  0  0  0  0  0  0  0  0  0
  142.7323  157.3794  137.1402 H   0  0  0  0  0  0  0  0  0  0  0  0
  141.7544  155.9490  137.4917 H   0  0  0  0  0  0  0  0  0  0  0  0
  142.3150  159.5810  132.2770 H   0  0  0  0  0  0  0  0  0  0  0  0
  146.6923  160.9052  133.6673 H   0  0  0  0  0  0  0  0  0  0  0  0
  149.0856  159.3717  133.3516 H   0  0  0  0  0  0  0  0  0  0  0  0
  149.9252  157.0323  132.9465 H   0  0  0  0  0  0  0  0  0  0  0  0
  148.2462  154.1348  133.4849 H   0  0  0  0  0  0  0  0  0  0  0  0
  147.9181  154.3394  131.7309 H   0  0  0  0  0  0  0  0  0  0  0  0
  145.8164  155.5825  132.7787 H   0  0  0  0  0  0  0  0  0  0  0  0
  1  2  1  0
  2  3  1  0
  2  4  1  0
  4  5  1  0
  5  6  1  0
  6  7  1  0
  7  8  1  0
  8  9  1  0
  9 10  1  0
 10 11  2  0
 10 12  1  0
 12 13  1  0
 13 14  2  0
 13 15  1  0
 15 16  1  0
 16 17  1  0
 17 18  1  0
 17 19  2  0
 16 20  2  0
 20 21  1  0
 21 22  2  0
 22 23  1  0
 23 24  2  0
 24 25  1  0
 25 26  1  0
 24 27  1  0
 27 28  2  0
  9  5  1  0
 28 15  1  0
 28 21  1  0
  1 29  1  0
  1 30  1  0
  1 31  1  0
  2 32  1  0
  3 33  1  0
  3 34  1  0
  3 35  1  0
  4 36  1  0
  4 37  1  0
  5 38  1  6
  6 39  1  0
  6 40  1  0
  7 41  1  0
  7 42  1  0
  8 43  1  0
  8 44  1  0
 18 45  1  0
 20 46  1  0
 22 47  1  0
 23 48  1  0
 25 49  1  0
 25 50  1  0
 27 51  1  0
M  CHG  2   2   1  18  -1
M  END
>  <UniqueID>  (41) 
41

>  <SMILES>  (41) 
C[NH+](C)C[C@@H]1CCCN1C(=O)OC(=O)n1c(C([NH-])=O)cc2ccc(CF)cc21

>  <Energy>  (41) 
90.22683741433977

>  <Genealogy>  (41) 
C[NH+](C)CC1CCCN1C(=O)OC(=O)n1c(C([NH-])=O)cc2ccc(CF)cc21 (protonated)
C[NH+](C)C[C@@H]1CCCN1C(=O)OC(=O)n1c(C([NH-])=O)cc2ccc(CF)cc21 (chirality)
C[NH+](C)C[C@@H]1CCCN1C(=O)OC(=O)n1c(C([NH-])=O)cc2ccc(CF)cc21 (3D coordinates assigned)
C[NH+](C)C[C@@H]1CCCN1C(=O)OC(=O)n1c(C([NH-])=O)cc2ccc(CF)cc21 (nonaromatic ring conformer: 90.22683741433977 kcal/mol)

>  <smiles>  (41) 
CN(C)CC1CCCN1C(=O)OC(=O)n1c(C(N)=O)cc2ccc(CF)cc21

>  <score_type>  (41) 
oracle

>  <origin>  (41) 
adg

>  <m_score__min__energy>  (41) 
-6.4500000000000002

>  <m_primary>  (41) 
energy

$$$$
41:0
     RDKit          3D

 47 49  0  0  0  0  0  0  0  0999 V2000
  138.5390  158.2760  130.7170 C   0  0  0  0  0  0  0  0  0  0  0  0
  138.8670  159.0220  131.9310 N   0  0  0  0  0  0  0  0  0  0  0  0
  139.0030  160.4810  131.8940 C   0  0  0  0  0  0  0  0  0  0  0  0
  138.8490  158.3400  133.1950 C   0  0  0  0  0  0  0  0  0  0  0  0
  137.9230  157.5190  133.4370 O   0  0  0  0  0  0  0  0  0  0  0  0
  139.9010  158.5680  134.2100 C   0  0  0  0  0  0  0  0  0  0  0  0
  139.6160  158.3720  135.5710 C   0  0  0  0  0  0  0  0  0  0  0  0
  140.6170  158.5360  136.5300 C   0  0  0  0  0  0  0  0  0  0  0  0
  141.9110  158.8890  136.1430 C   0  0  0  0  0  0  0  0  0  0  0  0
  142.2230  159.0850  134.7850 C   0  0  0  0  0  0  0  0  0  0  0  0
  143.6110  159.4330  134.3760 C   0  0  0  0  0  0  0  0  0  0  0  0
  144.0020  160.7910  134.2310 C   0  0  0  0  0  0  0  0  0  0  0  0
  145.2900  161.1270  133.7790 C   0  0  0  0  0  0  0  0  0  0  0  0
  146.1720  160.0890  133.4900 C   0  0  0  0  0  0  0  0  0  0  0  0
  147.4380  160.1290  132.9480 C   0  0  0  0  0  0  0  0  0  0  0  0
  147.8180  158.7960  132.8060 C   0  0  0  0  0  0  0  0  0  0  0  0
  149.0980  158.3740  132.1970 C   0  0  0  0  0  0  0  0  0  0  0  0
  149.5290  157.0120  132.2350 N   0  0  0  0  0  0  0  0  0  0  0  0
  149.8350  159.2350  131.6520 O   0  0  0  0  0  0  0  0  0  0  0  0
  146.8330  157.9650  133.2520 N   0  0  0  0  0  0  0  0  0  0  0  0
  146.7880  156.5330  133.1610 C   0  0  0  0  0  0  0  0  0  0  0  0
  147.1020  155.9670  132.0780 O   0  0  0  0  0  0  0  0  0  0  0  0
  146.3790  155.7030  134.3410 C   0  0  0  0  0  0  0  0  0  0  0  0
  147.4410  154.7050  134.6740 C   0  0  0  0  0  0  0  0  0  0  0  0
  148.4700  154.6090  133.9570 O   0  0  0  0  0  0  0  0  0  0  0  0
  147.2690  153.8390  135.7460 O   0  0  0  0  0  0  0  0  0  0  0  0
  145.8270  158.7740  133.6560 C   0  0  0  0  0  0  0  0  0  0  0  0
  144.5450  158.4100  134.0840 C   0  0  0  0  0  0  0  0  0  0  0  0
  141.2080  158.9170  133.8230 C   0  0  0  0  0  0  0  0  0  0  0  0
  138.1102  157.3007  130.9906 H   0  0  0  0  0  0  0  0  0  0  0  0
  137.8079  158.8445  130.1235 H   0  0  0  0  0  0  0  0  0  0  0  0
  139.4522  158.1216  130.1235 H   0  0  0  0  0  0  0  0  0  0  0  0
  139.0395  160.8720  132.9215 H   0  0  0  0  0  0  0  0  0  0  0  0
  139.9301  160.7496  131.3664 H   0  0  0  0  0  0  0  0  0  0  0  0
  138.1415  160.9163  131.3664 H   0  0  0  0  0  0  0  0  0  0  0  0
  138.6000  158.0881  135.8826 H   0  0  0  0  0  0  0  0  0  0  0  0
  140.3853  158.3865  137.5949 H   0  0  0  0  0  0  0  0  0  0  0  0
  142.6932  159.0150  136.9060 H   0  0  0  0  0  0  0  0  0  0  0  0
  143.2872  161.5905  134.4757 H   0  0  0  0  0  0  0  0  0  0  0  0
  145.5918  162.1778  133.6573 H   0  0  0  0  0  0  0  0  0  0  0  0
  148.0234  161.0220  132.6839 H   0  0  0  0  0  0  0  0  0  0  0  0
  150.3320  156.7060  131.6460 H   0  0  0  0  0  0  0  0  0  0  0  0
  149.0930  156.3210  132.8800 H   0  0  0  0  0  0  0  0  0  0  0  0
  146.2166  156.3611  135.2073 H   0  0  0  0  0  0  0  0  0  0  0  0
  145.4517  155.1657  134.0931 H   0  0  0  0  0  0  0  0  0  0  0  0
  144.2689  157.3506  134.1913 H   0  0  0  0  0  0  0  0  0  0  0  0
  141.4397  159.0603  132.7573 H   0  0  0  0  0  0  0  0  0  0  0  0
  1  2  1  0
  2  3  1  0
  2  4  1  0
  4  5  2  0
  4  6  1  0
  6  7  2  0
  7  8  1  0
  8  9  2  0
  9 10  1  0
 10 11  1  0
 11 12  2  0
 12 13  1  0
 13 14  2  0
 14 15  1  0
 15 16  2  0
 16 17  1  0
 17 18  1  0
 17 19  2  0
 16 20  1  0
 20 21  1  0
 21 22  2  0
 21 23  1  0
 23 24  1  0
 24 25  2  0
 24 26  1  0
 20 27  1  0
 27 28  2  0
 10 29  2  0
 29  6  1  0
 28 11  1  0
 27 14  1  0
  1 30  1  0
  1 31  1  0
  1 32  1  0
  3 33  1  0
  3 34  1  0
  3 35  1  0
  7 36  1  0
  8 37  1  0
  9 38  1  0
 12 39  1  0
 13 40  1  0
 15 41  1  0
 18 42  1  0
 18 43  1  0
 23 44  1  0
 23 45  1  0
 28 46  1  0
 29 47  1  0
M  CHG  1  26  -1
M  END
>  <UniqueID>  (42) 
42

>  <SMILES>  (42) 
CN(C)C(=O)c1cccc(-c2ccc3cc(C(N)=O)n(C(=O)CC(=O)[O-])c3c2)c1

>  <Energy>  (42) 
96.88441213025031

>  <Genealogy>  (42) 
CN(C)C(=O)c1cccc(-c2ccc3cc(C(N)=O)n(C(=O)CC(=O)[O-])c3c2)c1 (protonated)
CN(C)C(=O)c1cccc(-c2ccc3cc(C(N)=O)n(C(=O)CC(=O)[O-])c3c2)c1 (3D coordinates assigned)
CN(C)C(=O)c1cccc(-c2ccc3cc(C(N)=O)n(C(=O)CC(=O)[O-])c3c2)c1 (optimized conformer: 96.88441213025031 kcal/mol)

>  <smiles>  (42) 
CN(C)C(=O)c1cccc(-c2ccc3cc(C(N)=O)n(C(=O)CC(=O)O)c3c2)c1

>  <score_type>  (42) 
oracle

>  <origin>  (42) 
adg

>  <m_score__min__energy>  (42) 
-8.8599999999999994

>  <m_primary>  (42) 
energy

$$$$
42:0
     RDKit          3D

 49 50  0  0  0  0  0  0  0  0999 V2000
  149.4880  151.2140  131.2410 C   0  0  0  0  0  0  0  0  0  0  0  0
  148.4910  151.4940  132.2750 N   0  0  0  0  0  0  0  0  0  0  0  0
  147.1880  150.8230  132.2260 C   0  0  0  0  0  0  0  0  0  0  0  0
  146.0790  151.8390  131.9560 C   0  0  0  0  0  0  0  0  0  0  0  0
  145.4710  152.2350  133.1590 O   0  0  0  0  0  0  0  0  0  0  0  0
  148.7210  152.5320  133.2430 C   0  0  0  0  0  0  0  0  0  0  0  0
  149.2380  152.2400  134.3560 O   0  0  0  0  0  0  0  0  0  0  0  0
  148.4480  153.9740  132.9150 C   0  0  0  0  0  0  0  0  0  0  0  0
  147.3080  154.5250  133.6680 N   0  0  0  0  0  0  0  0  0  0  0  0
  147.4350  154.8240  135.1010 C   0  0  0  0  0  0  0  0  0  0  0  0
  146.7540  153.7840  135.9270 C   0  0  0  0  0  0  0  0  0  0  0  0
  145.6090  153.3700  135.6100 O   0  0  0  0  0  0  0  0  0  0  0  0
  147.3750  153.2850  137.0670 O   0  0  0  0  0  0  0  0  0  0  0  0
  146.2710  155.1900  132.9220 C   0  0  0  0  0  0  0  0  0  0  0  0
  145.7060  154.5930  131.9640 O   0  0  0  0  0  0  0  0  0  0  0  0
  145.8570  156.5170  133.2660 N   0  0  0  0  0  0  0  0  0  0  0  0
  144.7480  156.9030  133.9550 C   0  0  0  0  0  0  0  0  0  0  0  0
  143.7450  155.9820  134.5340 C   0  0  0  0  0  0  0  0  0  0  0  0
  143.8380  154.5700  134.3270 N   0  0  0  0  0  0  0  0  0  0  0  0
  142.7950  156.4360  135.2200 O   0  0  0  0  0  0  0  0  0  0  0  0
  144.7140  158.2940  134.0730 C   0  0  0  0  0  0  0  0  0  0  0  0
  145.8560  158.7440  133.4440 C   0  0  0  0  0  0  0  0  0  0  0  0
  146.3590  160.0340  133.3040 C   0  0  0  0  0  0  0  0  0  0  0  0
  147.5900  160.1930  132.6390 C   0  0  0  0  0  0  0  0  0  0  0  0
  148.2900  159.0700  132.1290 C   0  0  0  0  0  0  0  0  0  0  0  0
  149.6300  159.2440  131.4600 C   0  0  0  0  0  0  0  0  0  0  0  0
  150.1370  160.4920  131.7730 F   0  0  0  0  0  0  0  0  0  0  0  0
  149.5020  159.1390  130.0850 F   0  0  0  0  0  0  0  0  0  0  0  0
  150.5200  158.2730  131.8860 F   0  0  0  0  0  0  0  0  0  0  0  0
  147.7630  157.7740  132.3310 C   0  0  0  0  0  0  0  0  0  0  0  0
  146.5290  157.6490  132.9710 C   0  0  0  0  0  0  0  0  0  0  0  0
  150.4433  150.9457  131.7158 H   0  0  0  0  0  0  0  0  0  0  0  0
  149.1422  150.3782  130.6150 H   0  0  0  0  0  0  0  0  0  0  0  0
  149.6279  152.1076  130.6150 H   0  0  0  0  0  0  0  0  0  0  0  0
  147.1962  150.0723  131.4220 H   0  0  0  0  0  0  0  0  0  0  0  0
  146.9994  150.3357  133.1940 H   0  0  0  0  0  0  0  0  0  0  0  0
  146.5095  152.7216  131.4603 H   0  0  0  0  0  0  0  0  0  0  0  0
  145.3199  151.3738  131.3100 H   0  0  0  0  0  0  0  0  0  0  0  0
  146.1910  152.2630  133.8460 H   0  0  0  0  0  0  0  0  0  0  0  0
  149.3449  154.5645  133.1533 H   0  0  0  0  0  0  0  0  0  0  0  0
  148.1958  154.0283  131.8457 H   0  0  0  0  0  0  0  0  0  0  0  0
  148.5014  154.8547  135.3689 H   0  0  0  0  0  0  0  0  0  0  0  0
  146.9596  155.7959  135.2996 H   0  0  0  0  0  0  0  0  0  0  0  0
  143.1160  153.9380  134.7310 H   0  0  0  0  0  0  0  0  0  0  0  0
  144.6430  154.1430  133.8180 H   0  0  0  0  0  0  0  0  0  0  0  0
  143.9400  158.9023  134.5639 H   0  0  0  0  0  0  0  0  0  0  0  0
  145.8121  160.9022  133.7004 H   0  0  0  0  0  0  0  0  0  0  0  0
  148.0138  161.2003  132.5136 H   0  0  0  0  0  0  0  0  0  0  0  0
  148.3131  156.8840  131.9914 H   0  0  0  0  0  0  0  0  0  0  0  0
  1  2  1  0
  2  3  1  0
  3  4  1  0
  4  5  1  0
  2  6  1  0
  6  7  2  0
  6  8  1  0
  8  9  1  0
  9 10  1  0
 10 11  1  0
 11 12  2  0
 11 13  1  0
  9 14  1  0
 14 15  2  0
 14 16  1  0
 16 17  1  0
 17 18  1  0
 18 19  1  0
 18 20  2  0
 17 21  2  0
 21 22  1  0
 22 23  2  0
 23 24  1  0
 24 25  2  0
 25 26  1  0
 26 27  1  0
 26 28  1  0
 26 29  1  0
 25 30  1  0
 30 31  2  0
 31 16  1  0
 31 22  1  0
  1 32  1  0
  1 33  1  0
  1 34  1  0
  3 35  1  0
  3 36  1  0
  4 37  1  0
  4 38  1  0
  5 39  1  0
  8 40  1  0
  8 41  1  0
 10 42  1  0
 10 43  1  0
 19 44  1  0
 19 45  1  0
 21 46  1  0
 23 47  1  0
 24 48  1  0
 30 49  1  0
M  CHG  1  13  -1
M  END
>  <UniqueID>  (43) 
43

>  <SMILES>  (43) 
CN(CCO)C(=O)CN(CC(=O)[O-])C(=O)n1c(C(N)=O)cc2ccc(C(F)(F)F)cc21

>  <Energy>  (43) 
90.45363655626704

>  <Genealogy>  (43) 
CN(CCO)C(=O)CN(CC(=O)[O-])C(=O)n1c(C(N)=O)cc2ccc(C(F)(F)F)cc21 (protonated)
CN(CCO)C(=O)CN(CC(=O)[O-])C(=O)n1c(C(N)=O)cc2ccc(C(F)(F)F)cc21 (3D coordinates assigned)
CN(CCO)C(=O)CN(CC(=O)[O-])C(=O)n1c(C(N)=O)cc2ccc(C(F)(F)F)cc21 (optimized conformer: 90.45363655626704 kcal/mol)

>  <smiles>  (43) 
CN(CCO)C(=O)CN(CC(=O)O)C(=O)n1c(C(N)=O)cc2ccc(C(F)(F)F)cc21

>  <score_type>  (43) 
oracle

>  <origin>  (43) 
adg

>  <m_score__min__energy>  (43) 
-7.2699999999999996

>  <m_primary>  (43) 
energy

$$$$
43:0
     RDKit          3D

 48 49  0  0  0  0  0  0  0  0999 V2000
  149.2650  153.2900  132.3630 C   0  0  0  0  0  0  0  0  0  0  0  0
  148.4990  154.2700  133.2480 C   0  0  0  0  0  0  0  0  0  0  0  0
  147.3250  154.8040  132.5450 N   0  0  0  0  0  0  0  0  0  0  0  0
  147.2640  156.2360  132.7070 C   0  0  0  0  0  0  0  0  0  0  0  0
  148.4440  157.0170  132.6090 C   0  0  0  0  0  0  0  0  0  0  0  0
  148.4050  158.4070  132.8100 C   0  0  0  0  0  0  0  0  0  0  0  0
  147.1760  158.9880  133.1070 C   0  0  0  0  0  0  0  0  0  0  0  0
  146.8610  160.2970  133.3890 C   0  0  0  0  0  0  0  0  0  0  0  0
  145.4910  160.3020  133.6440 C   0  0  0  0  0  0  0  0  0  0  0  0
  144.7180  161.5290  133.9250 C   0  0  0  0  0  0  0  0  0  0  0  0
  143.3050  161.5660  133.7380 N   0  0  0  0  0  0  0  0  0  0  0  0
  145.3190  162.5740  134.2920 O   0  0  0  0  0  0  0  0  0  0  0  0
  144.9800  159.0440  133.5270 N   0  0  0  0  0  0  0  0  0  0  0  0
  143.6430  158.6090  133.8130 C   0  0  0  0  0  0  0  0  0  0  0  0
  143.1330  158.8420  134.9430 O   0  0  0  0  0  0  0  0  0  0  0  0
  142.9010  157.9550  132.8220 O   0  0  0  0  0  0  0  0  0  0  0  0
  142.3800  156.6370  132.9750 C   0  0  0  0  0  0  0  0  0  0  0  0
  141.1490  156.6520  133.8400 C   0  0  0  0  0  0  0  0  0  0  0  0
  141.0840  155.8430  134.8050 O   0  0  0  0  0  0  0  0  0  0  0  0
  140.0630  157.5800  133.6050 N   0  0  0  0  0  0  0  0  0  0  0  0
  139.0810  157.8660  134.6570 C   0  0  0  0  0  0  0  0  0  0  0  0
  139.9510  158.2650  132.3100 C   0  0  0  0  0  0  0  0  0  0  0  0
  140.2840  159.7500  132.4620 C   0  0  0  0  0  0  0  0  0  0  0  0
  141.0030  159.9680  133.6460 O   0  0  0  0  0  0  0  0  0  0  0  0
  146.0230  158.2520  133.1970 C   0  0  0  0  0  0  0  0  0  0  0  0
  146.0350  156.8640  133.0210 C   0  0  0  0  0  0  0  0  0  0  0  0
  149.8192  152.5809  132.9955 H   0  0  0  0  0  0  0  0  0  0  0  0
  148.5562  152.7383  131.7279 H   0  0  0  0  0  0  0  0  0  0  0  0
  149.9715  153.8446  131.7279 H   0  0  0  0  0  0  0  0  0  0  0  0
  148.1675  153.7495  134.1586 H   0  0  0  0  0  0  0  0  0  0  0  0
  149.1655  155.1066  133.5046 H   0  0  0  0  0  0  0  0  0  0  0  0
  147.3820  154.5670  131.5270 H   0  0  0  0  0  0  0  0  0  0  0  0
  146.4520  154.3700  132.9310 H   0  0  0  0  0  0  0  0  0  0  0  0
  149.4009  156.5286  132.3728 H   0  0  0  0  0  0  0  0  0  0  0  0
  149.3174  159.0168  132.7349 H   0  0  0  0  0  0  0  0  0  0  0  0
  147.5457  161.1577  133.4090 H   0  0  0  0  0  0  0  0  0  0  0  0
  142.7010  160.7750  134.0520 H   0  0  0  0  0  0  0  0  0  0  0  0
  142.1215  156.2332  131.9850 H   0  0  0  0  0  0  0  0  0  0  0  0
  143.1434  156.0071  133.4550 H   0  0  0  0  0  0  0  0  0  0  0  0
  139.5495  157.7295  135.6428 H   0  0  0  0  0  0  0  0  0  0  0  0
  138.7298  158.9037  134.5584 H   0  0  0  0  0  0  0  0  0  0  0  0
  138.2275  157.1791  134.5584 H   0  0  0  0  0  0  0  0  0  0  0  0
  140.6519  157.8076  131.5962 H   0  0  0  0  0  0  0  0  0  0  0  0
  138.9190  158.1665  131.9422 H   0  0  0  0  0  0  0  0  0  0  0  0
  140.8902  160.0758  131.6039 H   0  0  0  0  0  0  0  0  0  0  0  0
  139.3471  160.3250  132.5009 H   0  0  0  0  0  0  0  0  0  0  0  0
  141.9630  159.8550  133.4210 H   0  0  0  0  0  0  0  0  0  0  0  0
  145.1117  156.2751  133.1241 H   0  0  0  0  0  0  0  0  0  0  0  0
  1  2  1  0
  2  3  1  0
  3  4  1  0
  4  5  2  0
  5  6  1  0
  6  7  2  0
  7  8  1  0
  8  9  2  0
  9 10  1  0
 10 11  1  0
 10 12  2  0
  9 13  1  0
 13 14  1  0
 14 15  2  0
 14 16  1  0
 16 17  1  0
 17 18  1  0
 18 19  2  0
 18 20  1  0
 20 21  1  0
 20 22  1  0
 22 23  1  0
 23 24  1  0
 13 25  1  0
 25 26  2  0
 26  4  1  0
 25  7  1  0
  1 27  1  0
  1 28  1  0
  1 29  1  0
  2 30  1  0
  2 31  1  0
  3 32  1  0
  3 33  1  0
  5 34  1  0
  6 35  1  0
  8 36  1  0
 11 37  1  0
 17 38  1  0
 17 39  1  0
 21 40  1  0
 21 41  1  0
 21 42  1  0
 22 43  1  0
 22 44  1  0
 23 45  1  0
 23 46  1  0
 24 47  1  0
 26 48  1  0
M  CHG  2   3   1  11  -1
M  END
>  <UniqueID>  (44) 
44

>  <SMILES>  (44) 
CC[NH2+]c1ccc2cc(C([NH-])=O)n(C(=O)OCC(=O)N(C)CCO)c2c1

>  <Energy>  (44) 
77.69829073350567

>  <Genealogy>  (44) 
CC[NH2+]c1ccc2cc(C([NH-])=O)n(C(=O)OCC(=O)N(C)CCO)c2c1 (protonated)
CC[NH2+]c1ccc2cc(C([NH-])=O)n(C(=O)OCC(=O)N(C)CCO)c2c1 (3D coordinates assigned)
CC[NH2+]c1ccc2cc(C([NH-])=O)n(C(=O)OCC(=O)N(C)CCO)c2c1 (optimized conformer: 77.69829073350567 kcal/mol)

>  <smiles>  (44) 
CCNc1ccc2cc(C(N)=O)n(C(=O)OCC(=O)N(C)CCO)c2c1

>  <score_type>  (44) 
oracle

>  <origin>  (44) 
adg

>  <m_score__min__energy>  (44) 
-6.0700000000000003

>  <m_primary>  (44) 
energy

$$$$
44:0
     RDKit          3D

 46 50  0  0  0  0  0  0  0  0999 V2000
  146.5450  153.3590  136.7050 N   0  0  0  0  0  0  0  0  0  0  0  0
  146.9360  154.0630  135.5300 C   0  0  0  0  0  0  0  0  0  0  0  0
  147.9650  153.6910  134.9030 O   0  0  0  0  0  0  0  0  0  0  0  0
  146.1390  155.2000  135.0200 C   0  0  0  0  0  0  0  0  0  0  0  0
  146.6940  156.3140  134.3930 C   0  0  0  0  0  0  0  0  0  0  0  0
  145.6220  157.1020  134.0350 C   0  0  0  0  0  0  0  0  0  0  0  0
  145.5890  158.3290  133.3810 C   0  0  0  0  0  0  0  0  0  0  0  0
  144.3350  158.9210  133.1540 C   0  0  0  0  0  0  0  0  0  0  0  0
  143.1430  158.2950  133.6060 C   0  0  0  0  0  0  0  0  0  0  0  0
  141.8010  158.9170  133.3170 C   0  0  0  0  0  0  0  0  0  0  0  0
  140.9630  158.8010  134.4130 F   0  0  0  0  0  0  0  0  0  0  0  0
  141.9390  160.2620  133.0180 F   0  0  0  0  0  0  0  0  0  0  0  0
  141.2230  158.2730  132.2390 F   0  0  0  0  0  0  0  0  0  0  0  0
  143.2200  157.0380  134.2490 C   0  0  0  0  0  0  0  0  0  0  0  0
  144.4810  156.4670  134.4450 C   0  0  0  0  0  0  0  0  0  0  0  0
  144.7810  155.2950  135.0460 N   0  0  0  0  0  0  0  0  0  0  0  0
  143.8480  154.3940  135.6630 C   0  0  0  0  0  0  0  0  0  0  0  0
  143.6790  154.4480  136.9110 O   0  0  0  0  0  0  0  0  0  0  0  0
  143.0810  153.4180  134.8540 C   0  0  0  0  0  0  0  0  0  0  0  0
  142.0990  152.6100  135.4400 C   0  0  0  0  0  0  0  0  0  0  0  0
  141.4050  151.7230  134.6820 N   0  0  0  0  0  0  0  0  0  0  0  0
  141.6410  151.5890  133.3490 C   0  0  0  0  0  0  0  0  0  0  0  0
  140.8800  150.6360  132.5850 N   0  0  0  0  0  0  0  0  0  0  0  0
  141.4170  149.3460  132.1780 C   0  0  0  0  0  0  0  0  0  0  0  0
  140.3100  148.6520  131.3970 C   0  0  2  0  0  0  0  0  0  0  0  0
  139.8850  149.3160  130.0950 C   0  0  0  0  0  0  0  0  0  0  0  0
  139.1130  149.5900  131.3780 C   0  0  2  0  0  0  0  0  0  0  0  0
  139.5070  150.8420  132.1490 C   0  0  0  0  0  0  0  0  0  0  0  0
  142.6000  152.3600  132.7590 N   0  0  0  0  0  0  0  0  0  0  0  0
  143.3170  153.2610  133.4810 C   0  0  0  0  0  0  0  0  0  0  0  0
  145.6800  153.6240  137.2280 H   0  0  0  0  0  0  0  0  0  0  0  0
  147.7607  156.5202  134.2206 H   0  0  0  0  0  0  0  0  0  0  0  0
  146.5161  158.8209  133.0515 H   0  0  0  0  0  0  0  0  0  0  0  0
  144.2759  159.8808  132.6198 H   0  0  0  0  0  0  0  0  0  0  0  0
  142.3094  156.5217  134.5869 H   0  0  0  0  0  0  0  0  0  0  0  0
  141.8895  152.6941  136.5166 H   0  0  0  0  0  0  0  0  0  0  0  0
  141.6908  148.7510  133.0618 H   0  0  0  0  0  0  0  0  0  0  0  0
  142.3244  149.4643  131.5676 H   0  0  0  0  0  0  0  0  0  0  0  0
  140.5450  147.6059  131.6430 H   0  0  0  0  0  0  0  0  0  0  0  0
  139.4272  148.7155  129.2951 H   0  0  0  0  0  0  0  0  0  0  0  0
  140.3858  149.9397  129.3399 H   0  0  0  0  0  0  0  0  0  0  0  0
  138.0363  149.5722  131.6025 H   0  0  0  0  0  0  0  0  0  0  0  0
  138.8472  150.9776  133.0186 H   0  0  0  0  0  0  0  0  0  0  0  0
  139.4161  151.7425  131.5238 H   0  0  0  0  0  0  0  0  0  0  0  0
  142.8040  152.2740  131.7390 H   0  0  0  0  0  0  0  0  0  0  0  0
  144.0869  153.8705  132.9852 H   0  0  0  0  0  0  0  0  0  0  0  0
  1  2  1  0
  2  3  2  0
  2  4  1  0
  4  5  2  0
  5  6  1  0
  6  7  2  0
  7  8  1  0
  8  9  2  0
  9 10  1  0
 10 11  1  0
 10 12  1  0
 10 13  1  0
  9 14  1  0
 14 15  2  0
 15 16  1  0
 16 17  1  0
 17 18  2  0
 17 19  1  0
 19 20  2  0
 20 21  1  0
 21 22  2  0
 22 23  1  0
 23 24  1  0
 24 25  1  0
 25 26  1  0
 26 27  1  0
 27 28  1  0
 22 29  1  0
 29 30  2  0
 16  4  1  0
 30 19  1  0
 15  6  1  0
 28 23  1  0
 27 25  1  0
  1 31  1  0
  5 32  1  0
  7 33  1  0
  8 34  1  0
 14 35  1  0
 20 36  1  0
 24 37  1  0
 24 38  1  0
 25 39  1  6
 26 40  1  0
 26 41  1  0
 27 42  1  6
 28 43  1  0
 28 44  1  0
 29 45  1  0
 30 46  1  0
M  CHG  2   1  -1  29   1
M  END
>  <UniqueID>  (45) 
45

>  <SMILES>  (45) 
[NH-]C(=O)c1cc2ccc(C(F)(F)F)cc2n1C(=O)c1cnc(N2C[C@H]3C[C@H]3C2)[nH+]c1

>  <Energy>  (45) 
357.3271155995398

>  <Genealogy>  (45) 
[NH-]C(=O)c1cc2ccc(C(F)(F)F)cc2n1C(=O)c1cnc(N2CC3CC3C2)[nH+]c1 (protonated)
[NH-]C(=O)c1cc2ccc(C(F)(F)F)cc2n1C(=O)c1cnc(N2C[C@H]3C[C@H]3C2)[nH+]c1 (chirality)
[NH-]C(=O)c1cc2ccc(C(F)(F)F)cc2n1C(=O)c1cnc(N2C[C@H]3C[C@H]3C2)[nH+]c1 (3D coordinates assigned)
[NH-]C(=O)c1cc2ccc(C(F)(F)F)cc2n1C(=O)c1cnc(N2C[C@H]3C[C@H]3C2)[nH+]c1 (nonaromatic ring conformer: 357.3271155995398 kcal/mol)

>  <smiles>  (45) 
NC(=O)c1cc2ccc(C(F)(F)F)cc2n1C(=O)c1cnc(N2CC3CC3C2)nc1

>  <score_type>  (45) 
oracle

>  <origin>  (45) 
adg

>  <m_score__min__energy>  (45) 
-8.8800000000000008

>  <m_primary>  (45) 
energy

$$$$
45:0
     RDKit          3D

 52 54  0  0  0  0  0  0  0  0999 V2000
  140.8860  158.1230  135.6790 C   0  0  0  0  0  0  0  0  0  0  0  0
  141.0900  156.8750  134.8730 C   0  0  0  0  0  0  0  0  0  0  0  0
  140.0550  156.4020  134.0300 C   0  0  0  0  0  0  0  0  0  0  0  0
  140.2230  155.2210  133.2880 C   0  0  0  0  0  0  0  0  0  0  0  0
  141.4260  154.5300  133.4220 C   0  0  0  0  0  0  0  0  0  0  0  0
  141.8580  153.3830  132.7970 C   0  0  0  0  0  0  0  0  0  0  0  0
  143.1390  153.1560  133.2930 C   0  0  0  0  0  0  0  0  0  0  0  0
  143.9480  151.9730  132.9350 C   0  0  0  0  0  0  0  0  0  0  0  0
  145.3530  151.9300  133.1890 N   0  0  0  0  0  0  0  0  0  0  0  0
  143.3790  150.9570  132.4530 O   0  0  0  0  0  0  0  0  0  0  0  0
  143.4940  154.1300  134.1780 N   0  0  0  0  0  0  0  0  0  0  0  0
  144.7720  154.3180  134.8070 C   0  0  0  0  0  0  0  0  0  0  0  0
  145.1520  153.5230  135.7090 O   0  0  0  0  0  0  0  0  0  0  0  0
  145.5910  155.3810  134.4150 O   0  0  0  0  0  0  0  0  0  0  0  0
  146.4520  155.3370  133.2780 C   0  0  2  0  0  0  0  0  0  0  0  0
  147.4330  154.2190  133.4510 C   0  0  0  0  0  0  0  0  0  0  0  0
  147.5600  153.6680  134.5780 O   0  0  0  0  0  0  0  0  0  0  0  0
  148.1580  153.7640  132.3460 O   0  0  0  0  0  0  0  0  0  0  0  0
  149.5670  153.5490  132.3620 C   0  0  0  0  0  0  0  0  0  0  0  0
  149.9070  152.0900  132.7080 C   0  0  0  0  0  0  0  0  0  0  0  0
  148.9460  151.0860  132.0580 C   0  0  0  0  0  0  0  0  0  0  0  0
  147.6600  151.1940  132.6120 O   0  0  0  0  0  0  0  0  0  0  0  0
  147.1940  156.6450  133.1200 C   0  0  0  0  0  0  0  0  0  0  0  0
  146.5790  157.8560  133.4810 C   0  0  0  0  0  0  0  0  0  0  0  0
  147.2600  159.0660  133.3290 C   0  0  0  0  0  0  0  0  0  0  0  0
  148.5530  159.0800  132.7980 C   0  0  0  0  0  0  0  0  0  0  0  0
  149.1750  157.8820  132.4440 C   0  0  0  0  0  0  0  0  0  0  0  0
  148.5020  156.6680  132.6050 C   0  0  0  0  0  0  0  0  0  0  0  0
  142.4290  154.9600  134.2530 C   0  0  0  0  0  0  0  0  0  0  0  0
  142.2930  156.1410  134.9950 C   0  0  0  0  0  0  0  0  0  0  0  0
  140.9260  157.8780  136.7506 H   0  0  0  0  0  0  0  0  0  0  0  0
  141.6775  158.8481  135.4388 H   0  0  0  0  0  0  0  0  0  0  0  0
  139.9048  158.5583  135.4388 H   0  0  0  0  0  0  0  0  0  0  0  0
  139.1122  156.9637  133.9556 H   0  0  0  0  0  0  0  0  0  0  0  0
  139.4292  154.8528  132.6214 H   0  0  0  0  0  0  0  0  0  0  0  0
  141.3089  152.7754  132.0626 H   0  0  0  0  0  0  0  0  0  0  0  0
  145.9080  151.0890  132.9160 H   0  0  0  0  0  0  0  0  0  0  0  0
  145.8240  152.6810  133.7360 H   0  0  0  0  0  0  0  0  0  0  0  0
  145.8459  155.1703  132.3753 H   0  0  0  0  0  0  0  0  0  0  0  0
  149.9767  153.7864  131.3691 H   0  0  0  0  0  0  0  0  0  0  0  0
  150.0082  154.1995  133.1315 H   0  0  0  0  0  0  0  0  0  0  0  0
  150.9282  151.8750  132.3602 H   0  0  0  0  0  0  0  0  0  0  0  0
  149.8156  151.9780  133.7985 H   0  0  0  0  0  0  0  0  0  0  0  0
  148.8911  151.2871  130.9779 H   0  0  0  0  0  0  0  0  0  0  0  0
  149.3234  150.0690  132.2402 H   0  0  0  0  0  0  0  0  0  0  0  0
  147.7140  151.8650  133.3420 H   0  0  0  0  0  0  0  0  0  0  0  0
  145.5560  157.8509  133.8854 H   0  0  0  0  0  0  0  0  0  0  0  0
  146.7783  160.0088  133.6274 H   0  0  0  0  0  0  0  0  0  0  0  0
  149.0802  160.0354  132.6592 H   0  0  0  0  0  0  0  0  0  0  0  0
  150.1971  157.8934  132.0374 H   0  0  0  0  0  0  0  0  0  0  0  0
  148.9978  155.7261  132.3275 H   0  0  0  0  0  0  0  0  0  0  0  0
  143.1012  156.4884  135.6555 H   0  0  0  0  0  0  0  0  0  0  0  0
  1  2  1  0
  2  3  2  0
  3  4  1  0
  4  5  2  0
  5  6  1  0
  6  7  2  0
  7  8  1  0
  8  9  1  0
  8 10  2  0
  7 11  1  0
 11 12  1  0
 12 13  2  0
 12 14  1  0
 14 15  1  0
 15 16  1  0
 16 17  2  0
 16 18  1  0
 18 19  1  0
 19 20  1  0
 20 21  1  0
 21 22  1  0
 15 23  1  0
 23 24  2  0
 24 25  1  0
 25 26  2  0
 26 27  1  0
 27 28  2  0
 11 29  1  0
 29 30  2  0
 30  2  1  0
 29  5  1  0
 28 23  1  0
  1 31  1  0
  1 32  1  0
  1 33  1  0
  3 34  1  0
  4 35  1  0
  6 36  1  0
  9 37  1  0
  9 38  1  0
 15 39  1  6
 19 40  1  0
 19 41  1  0
 20 42  1  0
 20 43  1  0
 21 44  1  0
 21 45  1  0
 22 46  1  0
 24 47  1  0
 25 48  1  0
 26 49  1  0
 27 50  1  0
 28 51  1  0
 30 52  1  0
M  END
>  <UniqueID>  (46) 
46

>  <SMILES>  (46) 
Cc1ccc2cc(C(N)=O)n(C(=O)O[C@H](C(=O)OCCCO)c3ccccc3)c2c1

>  <Energy>  (46) 
83.5081587456805

>  <Genealogy>  (46) 
Cc1ccc2cc(C(N)=O)n(C(=O)O[C@H](C(=O)OCCCO)c3ccccc3)c2c1 (chirality)
Cc1ccc2cc(C(N)=O)n(C(=O)O[C@H](C(=O)OCCCO)c3ccccc3)c2c1 (3D coordinates assigned)
Cc1ccc2cc(C(N)=O)n(C(=O)O[C@H](C(=O)OCCCO)c3ccccc3)c2c1 (optimized conformer: 83.5081587456805 kcal/mol)

>  <smiles>  (46) 
Cc1ccc2cc(C(N)=O)n(C(=O)OC(C(=O)OCCCO)c3ccccc3)c2c1

>  <score_type>  (46) 
oracle

>  <origin>  (46) 
adg

>  <m_score__min__energy>  (46) 
-7.8600000000000003

>  <m_primary>  (46) 
energy

$$$$
46:0
     RDKit          3D

 39 40  0  0  0  0  0  0  0  0999 V2000
  143.0210  161.1100  133.9720 N   0  0  0  0  0  0  0  0  0  0  0  0
  144.4210  161.3760  133.9300 C   0  0  0  0  0  0  0  0  0  0  0  0
  144.8330  162.5520  134.1100 O   0  0  0  0  0  0  0  0  0  0  0  0
  145.3680  160.2830  133.6260 C   0  0  0  0  0  0  0  0  0  0  0  0
  146.7210  160.4910  133.3750 C   0  0  0  0  0  0  0  0  0  0  0  0
  147.2640  159.2360  133.2390 C   0  0  0  0  0  0  0  0  0  0  0  0
  148.5780  158.8530  132.9830 C   0  0  0  0  0  0  0  0  0  0  0  0
  148.8560  157.4810  132.8790 C   0  0  0  0  0  0  0  0  0  0  0  0
  147.8230  156.5190  133.0090 C   0  0  0  0  0  0  0  0  0  0  0  0
  148.1530  155.0480  132.9410 C   0  0  0  0  0  0  0  0  0  0  0  0
  148.2800  154.5100  134.2100 F   0  0  0  0  0  0  0  0  0  0  0  0
  147.1520  154.3600  132.2780 F   0  0  0  0  0  0  0  0  0  0  0  0
  149.3430  154.8800  132.2600 F   0  0  0  0  0  0  0  0  0  0  0  0
  146.5040  156.9470  133.2880 C   0  0  0  0  0  0  0  0  0  0  0  0
  146.2560  158.3210  133.4010 C   0  0  0  0  0  0  0  0  0  0  0  0
  145.0820  158.9490  133.6360 N   0  0  0  0  0  0  0  0  0  0  0  0
  143.7900  158.3310  133.7590 C   0  0  0  0  0  0  0  0  0  0  0  0
  143.2730  158.1750  134.8990 O   0  0  0  0  0  0  0  0  0  0  0  0
  143.1200  157.8860  132.6120 O   0  0  0  0  0  0  0  0  0  0  0  0
  141.8710  157.1930  132.6380 C   0  0  0  0  0  0  0  0  0  0  0  0
  140.6980  158.1870  132.5650 C   0  0  2  0  0  0  0  0  0  0  0  0
  141.0930  159.4500  133.0410 O   0  0  0  0  0  0  0  0  0  0  0  0
  139.4410  157.6980  133.3050 C   0  0  0  0  0  0  0  0  0  0  0  0
  139.1360  158.5620  134.3770 O   0  0  0  0  0  0  0  0  0  0  0  0
  140.2250  158.2440  135.6510 P   0  0  0  0  0  0  0  0  0  0  0  0
  141.2470  159.3520  135.7680 O   0  0  0  0  0  0  0  0  0  0  0  0
  141.0160  156.7750  135.3750 O   0  0  0  0  0  0  0  0  0  0  0  0
  139.3580  158.1400  137.0990 O   0  0  0  0  0  0  0  0  0  0  0  0
  142.6590  160.2020  134.3360 H   0  0  0  0  0  0  0  0  0  0  0  0
  147.2447  161.4555  133.3011 H   0  0  0  0  0  0  0  0  0  0  0  0
  149.3742  159.6029  132.8658 H   0  0  0  0  0  0  0  0  0  0  0  0
  149.8881  157.1483  132.6944 H   0  0  0  0  0  0  0  0  0  0  0  0
  145.6909  156.2169  133.4135 H   0  0  0  0  0  0  0  0  0  0  0  0
  141.8192  156.5090  131.7781 H   0  0  0  0  0  0  0  0  0  0  0  0
  141.7987  156.6278  133.5789 H   0  0  0  0  0  0  0  0  0  0  0  0
  140.4214  158.2673  131.5034 H   0  0  0  0  0  0  0  0  0  0  0  0
  141.8300  159.3110  133.6920 H   0  0  0  0  0  0  0  0  0  0  0  0
  138.5932  157.6759  132.6044 H   0  0  0  0  0  0  0  0  0  0  0  0
  139.6292  156.6893  133.7013 H   0  0  0  0  0  0  0  0  0  0  0  0
  1  2  1  0
  2  3  2  0
  2  4  1  0
  4  5  2  0
  5  6  1  0
  6  7  2  0
  7  8  1  0
  8  9  2  0
  9 10  1  0
 10 11  1  0
 10 12  1  0
 10 13  1  0
  9 14  1  0
 14 15  2  0
 15 16  1  0
 16 17  1  0
 17 18  2  0
 17 19  1  0
 19 20  1  0
 20 21  1  0
 21 22  1  0
 21 23  1  0
 23 24  1  0
 24 25  1  0
 25 26  2  0
 25 27  1  0
 25 28  1  0
 16  4  1  0
 15  6  1  0
  1 29  1  0
  5 30  1  0
  7 31  1  0
  8 32  1  0
 14 33  1  0
 20 34  1  0
 20 35  1  0
 21 36  1  6
 22 37  1  0
 23 38  1  0
 23 39  1  0
M  CHG  3   1  -1  27  -1  28  -1
M  END
>  <UniqueID>  (47) 
47

>  <SMILES>  (47) 
[NH-]C(=O)c1cc2ccc(C(F)(F)F)cc2n1C(=O)OC[C@H](O)COP(=O)([O-])[O-]

>  <Energy>  (47) 
73.92321660400647

>  <Genealogy>  (47) 
[NH-]C(=O)c1cc2ccc(C(F)(F)F)cc2n1C(=O)OCC(O)COP(=O)([O-])[O-] (protonated)
[NH-]C(=O)c1cc2ccc(C(F)(F)F)cc2n1C(=O)OC[C@H](O)COP(=O)([O-])[O-] (chirality)
[NH-]C(=O)c1cc2ccc(C(F)(F)F)cc2n1C(=O)OC[C@H](O)COP(=O)([O-])[O-] (3D coordinates assigned)
[NH-]C(=O)c1cc2ccc(C(F)(F)F)cc2n1C(=O)OC[C@H](O)COP(=O)([O-])[O-] (optimized conformer: 73.92321660400647 kcal/mol)

>  <smiles>  (47) 
NC(=O)c1cc2ccc(C(F)(F)F)cc2n1C(=O)OCC(O)COP(=O)(O)O

>  <score_type>  (47) 
oracle

>  <origin>  (47) 
adg

>  <m_score__min__energy>  (47) 
-6.2999999999999998

>  <m_primary>  (47) 
energy

$$$$
47:0
     RDKit          3D

 37 38  0  0  0  0  0  0  0  0999 V2000
  148.1770  161.2410  131.0130 N   0  0  0  0  0  0  0  0  0  0  0  0
  149.1490  160.2350  131.2860 C   0  0  0  0  0  0  0  0  0  0  0  0
  150.3440  160.4190  130.9310 O   0  0  0  0  0  0  0  0  0  0  0  0
  148.7540  159.0020  131.9990 C   0  0  0  0  0  0  0  0  0  0  0  0
  149.4040  157.7770  131.8500 C   0  0  0  0  0  0  0  0  0  0  0  0
  148.7040  156.8940  132.6410 C   0  0  0  0  0  0  0  0  0  0  0  0
  148.9240  155.5420  132.8890 C   0  0  0  0  0  0  0  0  0  0  0  0
  148.0580  154.8860  133.7810 C   0  0  0  0  0  0  0  0  0  0  0  0
  146.9960  155.5890  134.4040 C   0  0  0  0  0  0  0  0  0  0  0  0
  146.0990  154.8900  135.3870 C   0  0  0  0  0  0  0  0  0  0  0  0
  146.9190  154.1970  136.4280 C   0  0  0  0  0  0  0  0  0  0  0  0
  148.0280  154.6770  136.7830 O   0  0  0  0  0  0  0  0  0  0  0  0
  146.4830  152.9960  136.9720 O   0  0  0  0  0  0  0  0  0  0  0  0
  146.8150  156.9640  134.1400 C   0  0  0  0  0  0  0  0  0  0  0  0
  147.6780  157.5850  133.2330 C   0  0  0  0  0  0  0  0  0  0  0  0
  147.6920  158.8780  132.8450 N   0  0  0  0  0  0  0  0  0  0  0  0
  146.8070  159.9140  133.2990 C   0  0  0  0  0  0  0  0  0  0  0  0
  147.2830  161.0040  133.7150 O   0  0  0  0  0  0  0  0  0  0  0  0
  145.3500  159.7240  133.2810 C   0  0  0  0  0  0  0  0  0  0  0  0
  144.8480  158.7790  132.6110 O   0  0  0  0  0  0  0  0  0  0  0  0
  144.5310  160.6110  133.9890 O   0  0  0  0  0  0  0  0  0  0  0  0
  143.1090  160.4930  134.0590 C   0  0  0  0  0  0  0  0  0  0  0  0
  142.6980  159.2820  134.8980 C   0  0  0  0  0  0  0  0  0  0  0  0
  141.2770  159.3740  135.3580 C   0  0  0  0  0  0  0  0  0  0  0  0
  140.3370  159.3630  134.5190 O   0  0  0  0  0  0  0  0  0  0  0  0
  140.9870  159.4750  136.7130 O   0  0  0  0  0  0  0  0  0  0  0  0
  147.7850  161.8300  131.7800 H   0  0  0  0  0  0  0  0  0  0  0  0
  150.2881  157.5620  131.2318 H   0  0  0  0  0  0  0  0  0  0  0  0
  149.7502  155.0035  132.4019 H   0  0  0  0  0  0  0  0  0  0  0  0
  148.2056  153.8177  133.9976 H   0  0  0  0  0  0  0  0  0  0  0  0
  145.4446  155.6293  135.8719 H   0  0  0  0  0  0  0  0  0  0  0  0
  145.4907  154.1451  134.8529 H   0  0  0  0  0  0  0  0  0  0  0  0
  146.0145  157.5325  134.6359 H   0  0  0  0  0  0  0  0  0  0  0  0
  142.6949  161.4039  134.5159 H   0  0  0  0  0  0  0  0  0  0  0  0
  142.7186  160.3604  133.0392 H   0  0  0  0  0  0  0  0  0  0  0  0
  142.8163  158.3726  134.2905 H   0  0  0  0  0  0  0  0  0  0  0  0
  143.3420  159.2522  135.7892 H   0  0  0  0  0  0  0  0  0  0  0  0
  1  2  1  0
  2  3  2  0
  2  4  1  0
  4  5  2  0
  5  6  1  0
  6  7  2  0
  7  8  1  0
  8  9  2  0
  9 10  1  0
 10 11  1  0
 11 12  2  0
 11 13  1  0
  9 14  1  0
 14 15  2  0
 15 16  1  0
 16 17  1  0
 17 18  2  0
 17 19  1  0
 19 20  2  0
 19 21  1  0
 21 22  1  0
 22 23  1  0
 23 24  1  0
 24 25  2  0
 24 26  1  0
 16  4  1  0
 15  6  1  0
  1 27  1  0
  5 28  1  0
  7 29  1  0
  8 30  1  0
 10 31  1  0
 10 32  1  0
 14 33  1  0
 22 34  1  0
 22 35  1  0
 23 36  1  0
 23 37  1  0
M  CHG  3   1  -1  13  -1  26  -1
M  END
>  <UniqueID>  (48) 
48

>  <SMILES>  (48) 
[NH-]C(=O)c1cc2ccc(CC(=O)[O-])cc2n1C(=O)C(=O)OCCC(=O)[O-]

>  <Energy>  (48) 
70.16221333581953

>  <Genealogy>  (48) 
[NH-]C(=O)c1cc2ccc(CC(=O)[O-])cc2n1C(=O)C(=O)OCCC(=O)[O-] (protonated)
[NH-]C(=O)c1cc2ccc(CC(=O)[O-])cc2n1C(=O)C(=O)OCCC(=O)[O-] (3D coordinates assigned)
[NH-]C(=O)c1cc2ccc(CC(=O)[O-])cc2n1C(=O)C(=O)OCCC(=O)[O-] (optimized conformer: 70.16221333581953 kcal/mol)

>  <smiles>  (48) 
NC(=O)c1cc2ccc(CC(=O)O)cc2n1C(=O)C(=O)OCCC(=O)O

>  <score_type>  (48) 
oracle

>  <origin>  (48) 
adg

>  <m_score__min__energy>  (48) 
-6.7400000000000002

>  <m_primary>  (48) 
energy

$$$$
48:0
     RDKit          3D

 43 44  0  0  0  0  0  0  0  0999 V2000
  141.9870  159.3510  134.3480 H   0  0  0  0  0  0  0  0  0  0  0  0
  142.1200  160.3720  134.1760 N   0  0  0  0  0  0  0  0  0  0  0  0
  143.4010  160.8990  133.8430 C   0  0  0  0  0  0  0  0  0  0  0  0
  143.5360  162.1410  133.6860 O   0  0  0  0  0  0  0  0  0  0  0  0
  144.5560  159.9900  133.6920 C   0  0  0  0  0  0  0  0  0  0  0  0
  145.8880  160.4010  133.7390 C   0  0  0  0  0  0  0  0  0  0  0  0
  146.2655  161.4204  133.9072 H   0  0  0  0  0  0  0  0  0  0  0  0
  146.6310  159.2590  133.5300 C   0  0  0  0  0  0  0  0  0  0  0  0
  148.0100  159.0740  133.4910 C   0  0  0  0  0  0  0  0  0  0  0  0
  148.6994  159.9207  133.6243 H   0  0  0  0  0  0  0  0  0  0  0  0
  148.4950  157.7720  133.2760 C   0  0  0  0  0  0  0  0  0  0  0  0
  149.5800  157.5939  133.2424 H   0  0  0  0  0  0  0  0  0  0  0  0
  147.6000  156.6860  133.1020 C   0  0  0  0  0  0  0  0  0  0  0  0
  148.1210  155.2930  132.8980 C   0  0  0  0  0  0  0  0  0  0  0  0
  147.5791  154.8269  132.0619 H   0  0  0  0  0  0  0  0  0  0  0  0
  147.9260  154.5440  134.0450 F   0  0  0  0  0  0  0  0  0  0  0  0
  149.4730  155.3400  132.6070 F   0  0  0  0  0  0  0  0  0  0  0  0
  146.2070  156.9120  133.1540 C   0  0  0  0  0  0  0  0  0  0  0  0
  145.4956  156.0820  133.0317 H   0  0  0  0  0  0  0  0  0  0  0  0
  145.7560  158.2180  133.3650 C   0  0  0  0  0  0  0  0  0  0  0  0
  144.4840  158.6510  133.4630 N   0  0  0  0  0  0  0  0  0  0  0  0
  143.3150  157.8300  133.3880 C   0  0  0  0  0  0  0  0  0  0  0  0
  142.3780  158.1530  132.6110 O   0  0  0  0  0  0  0  0  0  0  0  0
  143.2070  156.6380  134.2500 C   0  0  0  0  0  0  0  0  0  0  0  0
  144.1455  156.1465  134.5462 H   0  0  0  0  0  0  0  0  0  0  0  0
  142.0640  156.1000  134.7050 C   0  0  0  0  0  0  0  0  0  0  0  0
  142.1556  155.2944  135.4484 H   0  0  0  0  0  0  0  0  0  0  0  0
  140.6890  156.4870  134.3020 C   0  0  0  0  0  0  0  0  0  0  0  0
  139.8640  155.6100  133.9220 O   0  0  0  0  0  0  0  0  0  0  0  0
  140.2580  157.8610  134.4650 N   0  0  1  0  0  0  0  0  0  0  0  0
  141.1020  158.4720  134.3430 H   0  0  0  0  0  0  0  0  0  0  0  0
  139.3140  158.2700  133.4070 C   0  0  0  0  0  0  0  0  0  0  0  0
  138.3972  158.6672  133.8671 H   0  0  0  0  0  0  0  0  0  0  0  0
  139.7776  159.0479  132.7826 H   0  0  0  0  0  0  0  0  0  0  0  0
  139.0635  157.3997  132.7826 H   0  0  0  0  0  0  0  0  0  0  0  0
  139.7360  158.1270  135.8300 C   0  0  0  0  0  0  0  0  0  0  0  0
  138.7772  158.6569  135.7307 H   0  0  0  0  0  0  0  0  0  0  0  0
  139.6463  157.1462  136.3198 H   0  0  0  0  0  0  0  0  0  0  0  0
  140.6590  158.9740  136.7310 C   0  0  0  0  0  0  0  0  0  0  0  0
  140.3447  160.0271  136.6831 H   0  0  0  0  0  0  0  0  0  0  0  0
  140.5859  158.6033  137.7641 H   0  0  0  0  0  0  0  0  0  0  0  0
  141.9900  158.8700  136.3050 O   0  0  0  0  0  0  0  0  0  0  0  0
  142.1320  159.6110  135.6590 H   0  0  0  0  0  0  0  0  0  0  0  0
  1  2  1  0
  2  3  1  0
  3  4  2  0
  3  5  1  0
  5  6  2  0
  6  7  1  0
  6  8  1  0
  8  9  2  0
  9 10  1  0
  9 11  1  0
 11 12  1  0
 11 13  2  0
 13 14  1  0
 14 15  1  0
 14 16  1  0
 14 17  1  0
 13 18  1  0
 18 19  1  0
 18 20  2  0
 20 21  1  0
 21 22  1  0
 22 23  2  0
 22 24  1  0
 24 25  1  0
 24 26  2  0
 26 27  1  0
 26 28  1  0
 28 29  2  0
 28 30  1  0
 30 31  1  6
 30 32  1  0
 32 33  1  0
 32 34  1  0
 32 35  1  0
 30 36  1  0
 36 37  1  0
 36 38  1  0
 36 39  1  0
 39 40  1  0
 39 41  1  0
 39 42  1  0
 42 43  1  0
 21  5  1  0
 20  8  1  0
M  CHG  2   2  -1  30   1
M  END
>  <UniqueID>  (49) 
49

>  <SMILES>  (49) 
C[N@@H+](CCO)C(=O)/C=C\C(=O)n1c(C([NH-])=O)cc2ccc(C(F)F)cc21

>  <Energy>  (49) 
92.76569561625612

>  <Genealogy>  (49) 
C[NH+](CCO)C(=O)C=CC(=O)n1c(C([NH-])=O)cc2ccc(C(F)F)cc21 (protonated)
C[N@@H+](CCO)C(=O)C=CC(=O)n1c(C([NH-])=O)cc2ccc(C(F)F)cc21 (chirality)
C[N@@H+](CCO)C(=O)/C=C\C(=O)n1c(C([NH-])=O)cc2ccc(C(F)F)cc21 (cis-trans isomerization)
C[N@@H+](CCO)C(=O)/C=C\C(=O)n1c(C([NH-])=O)cc2ccc(C(F)F)cc21 (3D coordinates assigned)
C[N@@H+](CCO)C(=O)/C=C\C(=O)n1c(C([NH-])=O)cc2ccc(C(F)F)cc21 (optimized conformer: 92.76569561625612 kcal/mol)

>  <smiles>  (49) 
CN(CCO)C(=O)C=CC(=O)n1c(C(N)=O)cc2ccc(C(F)F)cc21

>  <score_type>  (49) 
oracle

>  <origin>  (49) 
adg

>  <m_score__min__energy>  (49) 
-5.6399999999999997

>  <m_primary>  (49) 
energy

$$$$
49:0
     RDKit          3D

 55 58  0  0  0  0  0  0  0  0999 V2000
  141.8110  151.1110  133.6670 C   0  0  0  0  0  0  0  0  0  0  0  0
  141.3610  152.4410  134.1170 N   0  0  0  0  0  0  0  0  0  0  0  0
  141.1190  153.3420  132.9710 C   0  0  0  0  0  0  0  0  0  0  0  0
  142.3420  153.6720  132.3120 O   0  0  0  0  0  0  0  0  0  0  0  0
  143.5080  153.9030  133.0400 C   0  0  0  0  0  0  0  0  0  0  0  0
  144.6130  154.3980  132.4230 N   0  0  0  0  0  0  0  0  0  0  0  0
  145.7550  154.6390  133.1240 C   0  0  0  0  0  0  0  0  0  0  0  0
  146.9230  155.1320  132.4510 N   0  0  0  0  0  0  0  0  0  0  0  0
  147.0150  156.5560  132.6440 C   0  0  0  0  0  0  0  0  0  0  0  0
  148.2740  157.2080  132.5710 C   0  0  0  0  0  0  0  0  0  0  0  0
  148.3870  158.5850  132.8300 C   0  0  0  0  0  0  0  0  0  0  0  0
  147.2280  159.2830  133.1600 C   0  0  0  0  0  0  0  0  0  0  0  0
  147.0580  160.6040  133.5080 C   0  0  0  0  0  0  0  0  0  0  0  0
  145.6970  160.7440  133.7730 C   0  0  0  0  0  0  0  0  0  0  0  0
  145.0580  162.0300  134.1200 C   0  0  0  0  0  0  0  0  0  0  0  0
  143.9280  162.4860  133.3800 N   0  0  0  0  0  0  0  0  0  0  0  0
  145.4820  162.7180  135.0890 O   0  0  0  0  0  0  0  0  0  0  0  0
  145.0510  159.5570  133.5980 N   0  0  0  0  0  0  0  0  0  0  0  0
  143.6730  159.2630  133.8720 C   0  0  0  0  0  0  0  0  0  0  0  0
  142.7680  159.9410  133.3140 O   0  0  0  0  0  0  0  0  0  0  0  0
  143.3550  158.1990  134.7290 O   0  0  0  0  0  0  0  0  0  0  0  0
  142.0800  157.5480  134.8410 C   0  0  0  0  0  0  0  0  0  0  0  0
  141.0820  158.5950  135.3540 C   0  0  0  0  0  0  0  0  0  0  0  0
  142.1470  156.3870  135.8520 C   0  0  0  0  0  0  0  0  0  0  0  0
  141.6080  157.0420  133.4650 C   0  0  0  0  0  0  0  0  0  0  0  0
  146.0010  158.6730  133.2220 C   0  0  0  0  0  0  0  0  0  0  0  0
  145.8620  157.3010  132.9830 C   0  0  0  0  0  0  0  0  0  0  0  0
  145.7930  154.3850  134.4630 N   0  0  0  0  0  0  0  0  0  0  0  0
  144.7140  153.8780  135.1130 C   0  0  0  0  0  0  0  0  0  0  0  0
  143.5430  153.6000  134.4030 C   0  0  0  0  0  0  0  0  0  0  0  0
  142.3140  153.0430  135.0800 C   0  0  0  0  0  0  0  0  0  0  0  0
  142.0244  150.4804  134.5427 H   0  0  0  0  0  0  0  0  0  0  0  0
  141.0214  150.6423  133.0613 H   0  0  0  0  0  0  0  0  0  0  0  0
  142.7230  151.2180  133.0613 H   0  0  0  0  0  0  0  0  0  0  0  0
  140.4486  152.8425  132.2561 H   0  0  0  0  0  0  0  0  0  0  0  0
  140.6613  154.2696  133.3452 H   0  0  0  0  0  0  0  0  0  0  0  0
  146.8560  154.9050  131.4320 H   0  0  0  0  0  0  0  0  0  0  0  0
  147.7810  154.6640  132.8280 H   0  0  0  0  0  0  0  0  0  0  0  0
  149.1716  156.6288  132.3087 H   0  0  0  0  0  0  0  0  0  0  0  0
  149.3600  159.0950  132.7738 H   0  0  0  0  0  0  0  0  0  0  0  0
  147.8320  161.3835  133.5648 H   0  0  0  0  0  0  0  0  0  0  0  0
  143.0240  161.9620  133.4040 H   0  0  0  0  0  0  0  0  0  0  0  0
  141.0828  158.5942  136.4540 H   0  0  0  0  0  0  0  0  0  0  0  0
  141.3741  159.5903  134.9878 H   0  0  0  0  0  0  0  0  0  0  0  0
  140.0739  158.3509  134.9878 H   0  0  0  0  0  0  0  0  0  0  0  0
  142.1237  156.7900  136.8752 H   0  0  0  0  0  0  0  0  0  0  0  0
  141.2859  155.7193  135.7012 H   0  0  0  0  0  0  0  0  0  0  0  0
  143.0792  155.8228  135.7012 H   0  0  0  0  0  0  0  0  0  0  0  0
  140.8636  156.2440  133.6034 H   0  0  0  0  0  0  0  0  0  0  0  0
  141.1549  157.8729  132.9044 H   0  0  0  0  0  0  0  0  0  0  0  0
  142.4684  156.6477  132.9044 H   0  0  0  0  0  0  0  0  0  0  0  0
  144.8787  156.8136  133.0572 H   0  0  0  0  0  0  0  0  0  0  0  0
  144.7616  153.6867  136.1952 H   0  0  0  0  0  0  0  0  0  0  0  0
  142.6260  152.2702  135.7979 H   0  0  0  0  0  0  0  0  0  0  0  0
  141.8012  153.8767  135.5820 H   0  0  0  0  0  0  0  0  0  0  0  0
  1  2  1  0
  2  3  1  0
  3  4  1  0
  4  5  1  0
  5  6  2  0
  6  7  1  0
  7  8  1  0
  8  9  1  0
  9 10  2  0
 10 11  1  0
 11 12  2  0
 12 13  1  0
 13 14  2  0
 14 15  1  0
 15 16  1  0
 15 17  2  0
 14 18  1  0
 18 19  1  0
 19 20  2  0
 19 21  1  0
 21 22  1  0
 22 23  1  0
 22 24  1  0
 22 25  1  0
 18 26  1  0
 26 27  2  0
  7 28  2  0
 28 29  1  0
 29 30  2  0
 30 31  1  0
 31  2  1  0
 30  5  1  0
 27  9  1  0
 26 12  1  0
  1 32  1  0
  1 33  1  0
  1 34  1  0
  3 35  1  0
  3 36  1  0
  8 37  1  0
  8 38  1  0
 10 39  1  0
 11 40  1  0
 13 41  1  0
 16 42  1  0
 23 43  1  0
 23 44  1  0
 23 45  1  0
 24 46  1  0
 24 47  1  0
 24 48  1  0
 25 49  1  0
 25 50  1  0
 25 51  1  0
 27 52  1  0
 29 53  1  0
 31 54  1  0
 31 55  1  0
M  CHG  2   8   1  16  -1
M  END
>  <UniqueID>  (50) 
50

>  <SMILES>  (50) 
CN1COc2nc([NH2+]c3ccc4cc(C([NH-])=O)n(C(=O)OC(C)(C)C)c4c3)ncc2C1

>  <Energy>  (50) 
98.98108636022079

>  <Genealogy>  (50) 
CN1COc2nc([NH2+]c3ccc4cc(C([NH-])=O)n(C(=O)OC(C)(C)C)c4c3)ncc2C1 (protonated)
CN1COc2nc([NH2+]c3ccc4cc(C([NH-])=O)n(C(=O)OC(C)(C)C)c4c3)ncc2C1 (3D coordinates assigned)
CN1COc2nc([NH2+]c3ccc4cc(C([NH-])=O)n(C(=O)OC(C)(C)C)c4c3)ncc2C1 (nonaromatic ring conformer: 98.98108636022079 kcal/mol)

>  <smiles>  (50) 
CN1COc2nc(Nc3ccc4cc(C(N)=O)n(C(=O)OC(C)(C)C)c4c3)ncc2C1

>  <score_type>  (50) 
oracle

>  <origin>  (50) 
adg

>  <m_score__min__energy>  (50) 
-8.0299999999999994

>  <m_primary>  (50) 
energy

$$$$
50:0
     RDKit          3D

 38 39  0  0  0  0  0  0  0  0999 V2000
  144.9500  160.2940  133.3830 C   0  0  0  0  0  0  0  0  0  0  0  0
  146.0450  159.2760  133.2650 C   0  0  0  0  0  0  0  0  0  0  0  0
  147.4050  159.6780  133.2900 C   0  0  0  0  0  0  0  0  0  0  0  0
  148.4340  158.7230  133.2180 C   0  0  0  0  0  0  0  0  0  0  0  0
  148.0730  157.3800  133.1270 C   0  0  0  0  0  0  0  0  0  0  0  0
  148.8570  156.2510  133.0430 C   0  0  0  0  0  0  0  0  0  0  0  0
  147.9630  155.1790  132.9740 C   0  0  0  0  0  0  0  0  0  0  0  0
  148.3480  153.7540  132.8320 C   0  0  0  0  0  0  0  0  0  0  0  0
  147.9630  152.7800  133.8070 N   0  0  0  0  0  0  0  0  0  0  0  0
  149.0390  153.3840  131.8450 O   0  0  0  0  0  0  0  0  0  0  0  0
  146.6820  155.6410  133.0140 N   0  0  0  0  0  0  0  0  0  0  0  0
  145.4740  154.8730  132.9690 C   0  0  0  0  0  0  0  0  0  0  0  0
  144.8430  154.7980  131.8800 O   0  0  0  0  0  0  0  0  0  0  0  0
  144.9810  154.1910  134.1410 N   0  0  0  0  0  0  0  0  0  0  0  0
  144.0720  153.0520  133.9550 C   0  0  0  0  0  0  0  0  0  0  0  0
  145.2500  154.7220  135.4940 C   0  0  1  0  0  0  0  0  0  0  0  0
  144.0670  154.4060  136.4180 C   0  0  0  0  0  0  0  0  0  0  0  0
  146.5590  154.1990  136.0330 C   0  0  0  0  0  0  0  0  0  0  0  0
  147.6120  154.8760  135.8860 O   0  0  0  0  0  0  0  0  0  0  0  0
  146.6180  152.9930  136.7270 O   0  0  0  0  0  0  0  0  0  0  0  0
  146.7620  156.9820  133.1040 C   0  0  0  0  0  0  0  0  0  0  0  0
  145.7170  157.9050  133.1780 C   0  0  0  0  0  0  0  0  0  0  0  0
  144.7420  160.4873  134.4457 H   0  0  0  0  0  0  0  0  0  0  0  0
  145.2639  161.2285  132.8949 H   0  0  0  0  0  0  0  0  0  0  0  0
  144.0409  159.9129  132.8949 H   0  0  0  0  0  0  0  0  0  0  0  0
  147.6566  160.7461  133.3664 H   0  0  0  0  0  0  0  0  0  0  0  0
  149.4913  159.0263  133.2330 H   0  0  0  0  0  0  0  0  0  0  0  0
  149.9559  156.2030  133.0324 H   0  0  0  0  0  0  0  0  0  0  0  0
  148.2670  151.7870  133.6960 H   0  0  0  0  0  0  0  0  0  0  0  0
  147.4060  153.0310  134.6510 H   0  0  0  0  0  0  0  0  0  0  0  0
  143.7632  152.6651  134.9373 H   0  0  0  0  0  0  0  0  0  0  0  0
  143.1841  153.3793  133.3942 H   0  0  0  0  0  0  0  0  0  0  0  0
  144.5881  152.2588  133.3942 H   0  0  0  0  0  0  0  0  0  0  0  0
  145.3529  155.8159  135.4410 H   0  0  0  0  0  0  0  0  0  0  0  0
  144.3878  154.4917  137.4667 H   0  0  0  0  0  0  0  0  0  0  0  0
  143.2507  155.1176  136.2249 H   0  0  0  0  0  0  0  0  0  0  0  0
  143.7142  153.3821  136.2249 H   0  0  0  0  0  0  0  0  0  0  0  0
  144.6681  157.5738  133.1688 H   0  0  0  0  0  0  0  0  0  0  0  0
  1  2  1  0
  2  3  2  0
  3  4  1  0
  4  5  2  0
  5  6  1  0
  6  7  2  0
  7  8  1  0
  8  9  1  0
  8 10  2  0
  7 11  1  0
 11 12  1  0
 12 13  2  0
 12 14  1  0
 14 15  1  0
 14 16  1  0
 16 17  1  0
 16 18  1  0
 18 19  2  0
 18 20  1  0
 11 21  1  0
 21 22  2  0
 22  2  1  0
 21  5  1  0
  1 23  1  0
  1 24  1  0
  1 25  1  0
  3 26  1  0
  4 27  1  0
  6 28  1  0
  9 29  1  0
  9 30  1  0
 15 31  1  0
 15 32  1  0
 15 33  1  0
 16 34  1  6
 17 35  1  0
 17 36  1  0
 17 37  1  0
 22 38  1  0
M  CHG  1  20  -1
M  END
>  <UniqueID>  (51) 
51

>  <SMILES>  (51) 
Cc1ccc2cc(C(N)=O)n(C(=O)N(C)[C@@H](C)C(=O)[O-])c2c1

>  <Energy>  (51) 
74.83592573862816

>  <Genealogy>  (51) 
Cc1ccc2cc(C(N)=O)n(C(=O)N(C)C(C)C(=O)[O-])c2c1 (protonated)
Cc1ccc2cc(C(N)=O)n(C(=O)N(C)[C@@H](C)C(=O)[O-])c2c1 (chirality)
Cc1ccc2cc(C(N)=O)n(C(=O)N(C)[C@@H](C)C(=O)[O-])c2c1 (3D coordinates assigned)
Cc1ccc2cc(C(N)=O)n(C(=O)N(C)[C@@H](C)C(=O)[O-])c2c1 (optimized conformer: 74.83592573862816 kcal/mol)

>  <smiles>  (51) 
Cc1ccc2cc(C(N)=O)n(C(=O)N(C)C(C)C(=O)O)c2c1

>  <score_type>  (51) 
oracle

>  <origin>  (51) 
adg

>  <m_score__min__energy>  (51) 
-6.3300000000000001

>  <m_primary>  (51) 
energy

$$$$
51:0
     RDKit          3D

 50 51  0  0  0  0  0  0  0  0999 V2000
  139.1480  146.6050  129.9200 C   0  0  0  0  0  0  0  0  0  0  0  0
  138.7350  147.5610  128.9690 O   0  0  0  0  0  0  0  0  0  0  0  0
  139.0120  148.8720  129.4250 C   0  0  0  0  0  0  0  0  0  0  0  0
  139.5740  148.8570  130.8560 C   0  0  0  0  0  0  0  0  0  0  0  0
  140.9610  149.1430  130.8900 O   0  0  0  0  0  0  0  0  0  0  0  0
  141.4300  149.2950  132.2170 C   0  0  0  0  0  0  0  0  0  0  0  0
  140.6520  150.4180  132.9030 C   0  0  0  0  0  0  0  0  0  0  0  0
  141.5280  151.4860  133.2650 O   0  0  0  0  0  0  0  0  0  0  0  0
  141.3700  152.7940  132.7980 C   0  0  0  0  0  0  0  0  0  0  0  0
  140.3320  153.4550  133.0800 O   0  0  0  0  0  0  0  0  0  0  0  0
  142.3920  153.3740  132.0420 O   0  0  0  0  0  0  0  0  0  0  0  0
  143.7100  153.5370  132.5520 C   0  0  0  0  0  0  0  0  0  0  0  0
  144.0460  154.9200  132.5320 O   0  0  0  0  0  0  0  0  0  0  0  0
  144.3870  155.6480  133.6730 C   0  0  0  0  0  0  0  0  0  0  0  0
  144.9030  155.0700  134.6680 O   0  0  0  0  0  0  0  0  0  0  0  0
  144.1500  157.0650  133.7020 N   0  0  0  0  0  0  0  0  0  0  0  0
  142.9510  157.7100  133.7780 C   0  0  0  0  0  0  0  0  0  0  0  0
  141.6350  157.0700  133.9690 C   0  0  0  0  0  0  0  0  0  0  0  0
  141.2590  155.9120  133.2210 N   0  0  0  0  0  0  0  0  0  0  0  0
  140.8520  157.5170  134.8480 O   0  0  0  0  0  0  0  0  0  0  0  0
  143.1300  159.0890  133.7100 C   0  0  0  0  0  0  0  0  0  0  0  0
  144.4900  159.2750  133.6060 C   0  0  0  0  0  0  0  0  0  0  0  0
  145.2270  160.4510  133.5080 C   0  0  0  0  0  0  0  0  0  0  0  0
  146.6220  160.3450  133.3780 C   0  0  0  0  0  0  0  0  0  0  0  0
  147.2480  159.0750  133.3300 C   0  0  0  0  0  0  0  0  0  0  0  0
  148.7380  158.9710  133.1870 C   0  0  0  0  0  0  0  0  0  0  0  0
  149.2090  159.2830  131.4980 Cl  0  0  0  0  0  0  0  0  0  0  0  0
  146.4700  157.9030  133.4490 C   0  0  0  0  0  0  0  0  0  0  0  0
  145.0830  158.0380  133.6000 C   0  0  0  0  0  0  0  0  0  0  0  0
  138.9780  146.9984  130.9331 H   0  0  0  0  0  0  0  0  0  0  0  0
  138.5695  145.6793  129.7843 H   0  0  0  0  0  0  0  0  0  0  0  0
  140.2185  146.3916  129.7843 H   0  0  0  0  0  0  0  0  0  0  0  0
  139.7502  149.3363  128.7547 H   0  0  0  0  0  0  0  0  0  0  0  0
  138.0733  149.4455  129.4259 H   0  0  0  0  0  0  0  0  0  0  0  0
  139.0420  149.6121  131.4533 H   0  0  0  0  0  0  0  0  0  0  0  0
  139.4278  147.8465  131.2653 H   0  0  0  0  0  0  0  0  0  0  0  0
  141.2817  148.3551  132.7689 H   0  0  0  0  0  0  0  0  0  0  0  0
  142.5012  149.5446  132.2026 H   0  0  0  0  0  0  0  0  0  0  0  0
  139.8830  150.7984  132.2145 H   0  0  0  0  0  0  0  0  0  0  0  0
  140.1822  150.0195  133.8143 H   0  0  0  0  0  0  0  0  0  0  0  0
  143.7551  153.1613  133.5849 H   0  0  0  0  0  0  0  0  0  0  0  0
  144.4215  152.9723  131.9315 H   0  0  0  0  0  0  0  0  0  0  0  0
  140.3090  155.4970  133.3400 H   0  0  0  0  0  0  0  0  0  0  0  0
  141.9480  155.4140  132.6160 H   0  0  0  0  0  0  0  0  0  0  0  0
  142.3506  159.8648  133.7342 H   0  0  0  0  0  0  0  0  0  0  0  0
  144.7328  161.4335  133.5316 H   0  0  0  0  0  0  0  0  0  0  0  0
  147.2339  161.2568  133.3129 H   0  0  0  0  0  0  0  0  0  0  0  0
  149.2198  159.7114  133.8426 H   0  0  0  0  0  0  0  0  0  0  0  0
  149.0589  157.9579  133.4709 H   0  0  0  0  0  0  0  0  0  0  0  0
  146.9404  156.9090  133.4239 H   0  0  0  0  0  0  0  0  0  0  0  0
  1  2  1  0
  2  3  1  0
  3  4  1  0
  4  5  1  0
  5  6  1  0
  6  7  1  0
  7  8  1  0
  8  9  1  0
  9 10  2  0
  9 11  1  0
 11 12  1  0
 12 13  1  0
 13 14  1  0
 14 15  2  0
 14 16  1  0
 16 17  1  0
 17 18  1  0
 18 19  1  0
 18 20  2  0
 17 21  2  0
 21 22  1  0
 22 23  2  0
 23 24  1  0
 24 25  2  0
 25 26  1  0
 26 27  1  0
 25 28  1  0
 28 29  2  0
 29 16  1  0
 29 22  1  0
  1 30  1  0
  1 31  1  0
  1 32  1  0
  3 33  1  0
  3 34  1  0
  4 35  1  0
  4 36  1  0
  6 37  1  0
  6 38  1  0
  7 39  1  0
  7 40  1  0
 12 41  1  0
 12 42  1  0
 19 43  1  0
 19 44  1  0
 21 45  1  0
 23 46  1  0
 24 47  1  0
 26 48  1  0
 26 49  1  0
 28 50  1  0
M  END
>  <UniqueID>  (52) 
52

>  <SMILES>  (52) 
COCCOCCOC(=O)OCOC(=O)n1c(C(N)=O)cc2ccc(CCl)cc21

>  <Energy>  (52) 
83.23407136639064

>  <Genealogy>  (52) 
COCCOCCOC(=O)OCOC(=O)n1c(C(N)=O)cc2ccc(CCl)cc21 (3D coordinates assigned)
COCCOCCOC(=O)OCOC(=O)n1c(C(N)=O)cc2ccc(CCl)cc21 (optimized conformer: 83.23407136639064 kcal/mol)

>  <smiles>  (52) 
COCCOCCOC(=O)OCOC(=O)n1c(C(N)=O)cc2ccc(CCl)cc21

>  <score_type>  (52) 
oracle

>  <origin>  (52) 
adg

>  <m_score__min__energy>  (52) 
-6.1200000000000001

>  <m_primary>  (52) 
energy

$$$$
52:0
     RDKit          3D

 37 38  0  0  0  0  0  0  0  0999 V2000
  145.8760  156.1148  135.6815 H   0  0  0  0  0  0  0  0  0  0  0  0
  146.4410  155.7880  134.7960 C   0  0  0  0  0  0  0  0  0  0  0  0
  146.1740  156.4860  133.5210 C   0  0  0  0  0  0  0  0  0  0  0  0
  146.0020  155.7970  132.4810 O   0  0  0  0  0  0  0  0  0  0  0  0
  146.0430  157.9160  133.4490 N   0  0  0  0  0  0  0  0  0  0  0  0
  146.9490  158.8220  132.9840 C   0  0  0  0  0  0  0  0  0  0  0  0
  148.3270  158.5190  132.5440 C   0  0  0  0  0  0  0  0  0  0  0  0
  149.2560  159.3210  132.8290 O   0  0  0  0  0  0  0  0  0  0  0  0
  148.6350  157.3110  131.8500 N   0  0  0  0  0  0  0  0  0  0  0  0
  147.9290  156.5480  131.7530 H   0  0  0  0  0  0  0  0  0  0  0  0
  149.6040  157.1400  131.5020 H   0  0  0  0  0  0  0  0  0  0  0  0
  146.4100  160.1060  132.9950 C   0  0  0  0  0  0  0  0  0  0  0  0
  146.8949  161.0361  132.6636 H   0  0  0  0  0  0  0  0  0  0  0  0
  145.1410  159.9630  133.5090 C   0  0  0  0  0  0  0  0  0  0  0  0
  144.1540  160.9160  133.7400 C   0  0  0  0  0  0  0  0  0  0  0  0
  144.3319  161.9799  133.5245 H   0  0  0  0  0  0  0  0  0  0  0  0
  142.9230  160.4780  134.2570 C   0  0  0  0  0  0  0  0  0  0  0  0
  142.1273  161.2091  134.4627 H   0  0  0  0  0  0  0  0  0  0  0  0
  142.6970  159.1020  134.5160 C   0  0  0  0  0  0  0  0  0  0  0  0
  141.3850  158.6480  135.0900 C   0  0  0  0  0  0  0  0  0  0  0  0
  141.5224  158.3877  136.1499 H   0  0  0  0  0  0  0  0  0  0  0  0
  140.6506  159.4615  134.9960 H   0  0  0  0  0  0  0  0  0  0  0  0
  140.7770  157.1910  134.1870 P   0  0  0  0  0  0  0  0  0  0  0  0
  139.2670  157.2190  134.1490 O   0  0  0  0  0  0  0  0  0  0  0  0
  141.2930  155.7830  134.9670 O   0  0  0  0  0  0  0  0  0  0  0  0
  141.3780  157.2110  132.6060 O   0  0  0  0  0  0  0  0  0  0  0  0
  143.7250  158.1640  134.2760 C   0  0  0  0  0  0  0  0  0  0  0  0
  143.5702  157.0935  134.4760 H   0  0  0  0  0  0  0  0  0  0  0  0
  144.9460  158.6320  133.7770 C   0  0  0  0  0  0  0  0  0  0  0  0
  147.3250  154.7800  134.9580 C   0  0  0  0  0  0  0  0  0  0  0  0
  147.5810  154.2340  136.3150 C   0  0  0  0  0  0  0  0  0  0  0  0
  146.9630  153.2150  136.7300 O   0  0  0  0  0  0  0  0  0  0  0  0
  148.5000  154.8480  137.1570 O   0  0  0  0  0  0  0  0  0  0  0  0
  148.0830  154.1870  133.7950 C   0  0  0  0  0  0  0  0  0  0  0  0
  148.8964  153.5506  134.1737 H   0  0  0  0  0  0  0  0  0  0  0  0
  147.3990  153.5817  133.1819 H   0  0  0  0  0  0  0  0  0  0  0  0
  148.5059  154.9965  133.1819 H   0  0  0  0  0  0  0  0  0  0  0  0
  1  2  1  0
  2  3  1  0
  3  4  2  0
  3  5  1  0
  5  6  1  0
  6  7  1  0
  7  8  2  0
  7  9  1  0
  9 10  1  0
  9 11  1  0
  6 12  2  0
 12 13  1  0
 12 14  1  0
 14 15  2  0
 15 16  1  0
 15 17  1  0
 17 18  1  0
 17 19  2  0
 19 20  1  0
 20 21  1  0
 20 22  1  0
 20 23  1  0
 23 24  2  0
 23 25  1  0
 23 26  1  0
 19 27  1  0
 27 28  1  0
 27 29  2  0
  2 30  2  0
 30 31  1  0
 31 32  2  0
 31 33  1  0
 30 34  1  0
 34 35  1  0
 34 36  1  0
 34 37  1  0
 29  5  1  0
 29 14  1  0
M  CHG  3  25  -1  26  -1  33  -1
M  END
>  <UniqueID>  (53) 
53

>  <SMILES>  (53) 
C/C(=C\C(=O)n1c(C(N)=O)cc2ccc(CP(=O)([O-])[O-])cc21)C(=O)[O-]

>  <Energy>  (53) 
75.7172829765336

>  <Genealogy>  (53) 
CC(=CC(=O)n1c(C(N)=O)cc2ccc(CP(=O)([O-])[O-])cc21)C(=O)[O-] (protonated)
C/C(=C\C(=O)n1c(C(N)=O)cc2ccc(CP(=O)([O-])[O-])cc21)C(=O)[O-] (cis-trans isomerization)
C/C(=C\C(=O)n1c(C(N)=O)cc2ccc(CP(=O)([O-])[O-])cc21)C(=O)[O-] (3D coordinates assigned)
C/C(=C\C(=O)n1c(C(N)=O)cc2ccc(CP(=O)([O-])[O-])cc21)C(=O)[O-] (optimized conformer: 75.7172829765336 kcal/mol)

>  <smiles>  (53) 
CC(=CC(=O)n1c(C(N)=O)cc2ccc(CP(=O)(O)O)cc21)C(=O)O

>  <score_type>  (53) 
oracle

>  <origin>  (53) 
adg

>  <m_score__min__energy>  (53) 
-8.0899999999999999

>  <m_primary>  (53) 
energy

$$$$
53:0
     RDKit          3D

 41 42  0  0  0  0  0  0  0  0999 V2000
  141.7360  161.2070  133.7300 C   0  0  0  0  0  0  0  0  0  0  0  0
  141.5230  159.7560  133.7540 N   0  0  0  0  0  0  0  0  0  0  0  0
  142.5840  158.9300  134.2650 C   0  0  0  0  0  0  0  0  0  0  0  0
  142.9250  159.0400  135.4750 O   0  0  0  0  0  0  0  0  0  0  0  0
  143.2950  157.9710  133.3960 C   0  0  0  0  0  0  0  0  0  0  0  0
  142.8520  157.7140  132.2450 O   0  0  0  0  0  0  0  0  0  0  0  0
  144.4840  157.3120  133.8540 N   0  0  0  0  0  0  0  0  0  0  0  0
  144.5820  156.1410  134.5440 C   0  0  0  0  0  0  0  0  0  0  0  0
  143.4370  155.3580  135.0600 C   0  0  0  0  0  0  0  0  0  0  0  0
  142.1190  155.5570  134.5450 N   0  0  0  0  0  0  0  0  0  0  0  0
  143.6200  154.4900  135.9540 O   0  0  0  0  0  0  0  0  0  0  0  0
  145.9230  155.8250  134.7700 C   0  0  0  0  0  0  0  0  0  0  0  0
  146.6420  156.8520  134.1980 C   0  0  0  0  0  0  0  0  0  0  0  0
  148.0170  157.0540  134.1260 C   0  0  0  0  0  0  0  0  0  0  0  0
  148.4800  158.2050  133.4640 C   0  0  0  0  0  0  0  0  0  0  0  0
  147.5650  159.1240  132.8880 C   0  0  0  0  0  0  0  0  0  0  0  0
  148.0630  160.3490  132.1750 C   0  0  0  0  0  0  0  0  0  0  0  0
  149.4320  160.2620  132.0030 F   0  0  0  0  0  0  0  0  0  0  0  0
  147.4520  160.4500  130.9390 F   0  0  0  0  0  0  0  0  0  0  0  0
  146.1760  158.8850  132.9830 C   0  0  0  0  0  0  0  0  0  0  0  0
  145.7480  157.7360  133.6550 C   0  0  0  0  0  0  0  0  0  0  0  0
  140.2060  159.1630  133.4420 C   0  0  1  0  0  0  0  0  0  0  0  0
  139.7190  159.6200  132.0540 C   0  0  0  0  0  0  0  0  0  0  0  0
  140.5800  159.1750  131.0420 O   0  0  0  0  0  0  0  0  0  0  0  0
  140.2340  157.6620  133.5920 C   0  0  0  0  0  0  0  0  0  0  0  0
  140.2660  156.9170  132.5770 O   0  0  0  0  0  0  0  0  0  0  0  0
  140.1280  157.0850  134.8520 O   0  0  0  0  0  0  0  0  0  0  0  0
  141.7917  161.5865  134.7609 H   0  0  0  0  0  0  0  0  0  0  0  0
  142.6766  161.4309  133.2055 H   0  0  0  0  0  0  0  0  0  0  0  0
  140.8994  161.6918  133.2055 H   0  0  0  0  0  0  0  0  0  0  0  0
  141.3280  154.9720  134.8960 H   0  0  0  0  0  0  0  0  0  0  0  0
  141.9110  156.3080  133.8530 H   0  0  0  0  0  0  0  0  0  0  0  0
  146.3211  154.9433  135.2936 H   0  0  0  0  0  0  0  0  0  0  0  0
  148.7199  156.3356  134.5731 H   0  0  0  0  0  0  0  0  0  0  0  0
  149.5611  158.3947  133.3920 H   0  0  0  0  0  0  0  0  0  0  0  0
  147.8235  161.2387  132.7759 H   0  0  0  0  0  0  0  0  0  0  0  0
  145.4509  159.5838  132.5404 H   0  0  0  0  0  0  0  0  0  0  0  0
  139.4710  159.5306  134.1732 H   0  0  0  0  0  0  0  0  0  0  0  0
  138.7134  159.2118  131.8745 H   0  0  0  0  0  0  0  0  0  0  0  0
  139.7006  160.7197  132.0365 H   0  0  0  0  0  0  0  0  0  0  0  0
  141.2290  158.5660  131.4810 H   0  0  0  0  0  0  0  0  0  0  0  0
  1  2  1  0
  2  3  1  0
  3  4  2  0
  3  5  1  0
  5  6  2  0
  5  7  1  0
  7  8  1  0
  8  9  1  0
  9 10  1  0
  9 11  2  0
  8 12  2  0
 12 13  1  0
 13 14  2  0
 14 15  1  0
 15 16  2  0
 16 17  1  0
 17 18  1  0
 17 19  1  0
 16 20  1  0
 20 21  2  0
  2 22  1  0
 22 23  1  0
 23 24  1  0
 22 25  1  0
 25 26  2  0
 25 27  1  0
 21  7  1  0
 21 13  1  0
  1 28  1  0
  1 29  1  0
  1 30  1  0
 10 31  1  0
 10 32  1  0
 12 33  1  0
 14 34  1  0
 15 35  1  0
 17 36  1  0
 20 37  1  0
 22 38  1  1
 23 39  1  0
 23 40  1  0
 24 41  1  0
M  CHG  1  27  -1
M  END
>  <UniqueID>  (54) 
54

>  <SMILES>  (54) 
CN(C(=O)C(=O)n1c(C(N)=O)cc2ccc(C(F)F)cc21)[C@@H](CO)C(=O)[O-]

>  <Energy>  (54) 
83.01398920659041

>  <Genealogy>  (54) 
CN(C(=O)C(=O)n1c(C(N)=O)cc2ccc(C(F)F)cc21)C(CO)C(=O)[O-] (protonated)
CN(C(=O)C(=O)n1c(C(N)=O)cc2ccc(C(F)F)cc21)[C@@H](CO)C(=O)[O-] (chirality)
CN(C(=O)C(=O)n1c(C(N)=O)cc2ccc(C(F)F)cc21)[C@@H](CO)C(=O)[O-] (3D coordinates assigned)
CN(C(=O)C(=O)n1c(C(N)=O)cc2ccc(C(F)F)cc21)[C@@H](CO)C(=O)[O-] (optimized conformer: 83.01398920659041 kcal/mol)

>  <smiles>  (54) 
CN(C(=O)C(=O)n1c(C(N)=O)cc2ccc(C(F)F)cc21)C(CO)C(=O)O

>  <score_type>  (54) 
oracle

>  <origin>  (54) 
adg

>  <m_score__min__energy>  (54) 
-6.0700000000000003

>  <m_primary>  (54) 
energy

$$$$
54:0
     RDKit          3D

 41 43  0  0  0  0  0  0  0  0999 V2000
  140.3350  157.0360  133.8240 C   0  0  0  0  0  0  0  0  0  0  0  0
  140.6710  158.5020  133.5260 C   0  0  0  0  0  0  0  0  0  0  0  0
  141.5820  159.1930  134.4660 N   0  0  0  0  0  0  0  0  0  0  0  0
  141.7860  158.6280  135.8110 C   0  0  0  0  0  0  0  0  0  0  0  0
  140.5980  158.9110  136.6910 C   0  0  0  0  0  0  0  0  0  0  0  0
  140.6940  159.7440  137.6360 O   0  0  0  0  0  0  0  0  0  0  0  0
  139.4080  158.1970  136.5260 O   0  0  0  0  0  0  0  0  0  0  0  0
  142.4560  160.2300  133.9810 C   0  0  0  0  0  0  0  0  0  0  0  0
  141.9910  161.3580  133.6640 O   0  0  0  0  0  0  0  0  0  0  0  0
  143.8590  159.9820  133.8100 N   0  0  0  0  0  0  0  0  0  0  0  0
  144.8860  160.8700  133.9090 C   0  0  0  0  0  0  0  0  0  0  0  0
  144.7380  162.3080  134.1870 C   0  0  0  0  0  0  0  0  0  0  0  0
  143.8890  163.1040  133.3650 N   0  0  0  0  0  0  0  0  0  0  0  0
  145.3460  162.8390  135.1490 O   0  0  0  0  0  0  0  0  0  0  0  0
  146.1080  160.2290  133.7020 C   0  0  0  0  0  0  0  0  0  0  0  0
  145.7870  158.9100  133.4590 C   0  0  0  0  0  0  0  0  0  0  0  0
  146.6090  157.8200  133.1850 C   0  0  0  0  0  0  0  0  0  0  0  0
  145.9950  156.5710  132.9870 C   0  0  0  0  0  0  0  0  0  0  0  0
  144.5810  156.4410  133.0060 C   0  0  0  0  0  0  0  0  0  0  0  0
  143.9430  155.0870  132.7940 C   0  0  0  0  0  0  0  0  0  0  0  0
  144.4690  154.1450  133.6700 F   0  0  0  0  0  0  0  0  0  0  0  0
  142.5790  155.1590  133.0090 F   0  0  0  0  0  0  0  0  0  0  0  0
  144.1710  154.6650  131.4960 F   0  0  0  0  0  0  0  0  0  0  0  0
  143.7840  157.5710  133.2860 C   0  0  0  0  0  0  0  0  0  0  0  0
  144.4240  158.7910  133.5260 C   0  0  0  0  0  0  0  0  0  0  0  0
  140.6090  159.0170  132.1000 C   0  0  0  0  0  0  0  0  0  0  0  0
  139.4800  159.3280  133.0640 C   0  0  0  0  0  0  0  0  0  0  0  0
  140.2997  156.8819  134.9126 H   0  0  0  0  0  0  0  0  0  0  0  0
  139.3567  156.7878  133.3866 H   0  0  0  0  0  0  0  0  0  0  0  0
  141.1076  156.3865  133.3866 H   0  0  0  0  0  0  0  0  0  0  0  0
  141.9238  157.5398  135.7288 H   0  0  0  0  0  0  0  0  0  0  0  0
  142.6772  159.0919  136.2588 H   0  0  0  0  0  0  0  0  0  0  0  0
  142.9010  163.3080  133.6500 H   0  0  0  0  0  0  0  0  0  0  0  0
  147.1115  160.6789  133.7272 H   0  0  0  0  0  0  0  0  0  0  0  0
  147.7016  157.9324  133.1255 H   0  0  0  0  0  0  0  0  0  0  0  0
  146.6188  155.6815  132.8149 H   0  0  0  0  0  0  0  0  0  0  0  0
  142.6870  157.4943  133.3148 H   0  0  0  0  0  0  0  0  0  0  0  0
  141.2899  159.8173  131.7747 H   0  0  0  0  0  0  0  0  0  0  0  0
  140.6747  158.5552  131.1038 H   0  0  0  0  0  0  0  0  0  0  0  0
  139.3430  160.3532  133.4385 H   0  0  0  0  0  0  0  0  0  0  0  0
  138.3894  159.1850  133.0573 H   0  0  0  0  0  0  0  0  0  0  0  0
  1  2  1  0
  2  3  1  0
  3  4  1  0
  4  5  1  0
  5  6  2  0
  5  7  1  0
  3  8  1  0
  8  9  2  0
  8 10  1  0
 10 11  1  0
 11 12  1  0
 12 13  1  0
 12 14  2  0
 11 15  2  0
 15 16  1  0
 16 17  2  0
 17 18  1  0
 18 19  2  0
 19 20  1  0
 20 21  1  0
 20 22  1  0
 20 23  1  0
 19 24  1  0
 24 25  2  0
  2 26  1  0
 26 27  1  0
 27  2  1  0
 25 10  1  0
 25 16  1  0
  1 28  1  0
  1 29  1  0
  1 30  1  0
  4 31  1  0
  4 32  1  0
 13 33  1  0
 15 34  1  0
 17 35  1  0
 18 36  1  0
 24 37  1  0
 26 38  1  0
 26 39  1  0
 27 40  1  0
 27 41  1  0
M  CHG  2   7  -1  13  -1
M  END
>  <UniqueID>  (55) 
55

>  <SMILES>  (55) 
CC1(N(CC(=O)[O-])C(=O)n2c(C([NH-])=O)cc3ccc(C(F)(F)F)cc32)CC1

>  <Energy>  (55) 
348.57692146562846

>  <Genealogy>  (55) 
CC1(N(CC(=O)[O-])C(=O)n2c(C([NH-])=O)cc3ccc(C(F)(F)F)cc32)CC1 (protonated)
CC1(N(CC(=O)[O-])C(=O)n2c(C([NH-])=O)cc3ccc(C(F)(F)F)cc32)CC1 (3D coordinates assigned)
CC1(N(CC(=O)[O-])C(=O)n2c(C([NH-])=O)cc3ccc(C(F)(F)F)cc32)CC1 (nonaromatic ring conformer: 348.57692146562846 kcal/mol)

>  <smiles>  (55) 
CC1(N(CC(=O)O)C(=O)n2c(C(N)=O)cc3ccc(C(F)(F)F)cc32)CC1

>  <score_type>  (55) 
oracle

>  <origin>  (55) 
adg

>  <m_score__min__energy>  (55) 
-6.9500000000000002

>  <m_primary>  (55) 
energy

$$$$
55:0
     RDKit          3D

 42 43  0  0  0  0  0  0  0  0999 V2000
  141.0450  156.9750  134.1250 C   0  0  0  0  0  0  0  0  0  0  0  0
  142.2050  157.8990  133.9050 C   0  0  0  0  0  0  0  0  0  0  0  0
  142.0110  159.3030  133.9080 C   0  0  0  0  0  0  0  0  0  0  0  0
  143.1000  160.1770  133.7450 C   0  0  0  0  0  0  0  0  0  0  0  0
  144.3650  159.6190  133.5830 C   0  0  0  0  0  0  0  0  0  0  0  0
  145.5910  160.2290  133.4390 C   0  0  0  0  0  0  0  0  0  0  0  0
  146.5130  159.1870  133.3460 C   0  0  0  0  0  0  0  0  0  0  0  0
  147.9630  159.3850  133.1420 C   0  0  0  0  0  0  0  0  0  0  0  0
  148.8680  159.1730  134.2220 N   0  0  0  0  0  0  0  0  0  0  0  0
  148.4100  159.7600  132.0260 O   0  0  0  0  0  0  0  0  0  0  0  0
  145.8800  157.9840  133.4260 N   0  0  0  0  0  0  0  0  0  0  0  0
  146.4800  156.6780  133.4410 C   0  0  0  0  0  0  0  0  0  0  0  0
  146.5780  156.0310  132.3640 O   0  0  0  0  0  0  0  0  0  0  0  0
  147.0030  156.1080  134.6980 C   0  0  0  0  0  0  0  0  0  0  0  0
  148.0240  156.6220  135.2330 O   0  0  0  0  0  0  0  0  0  0  0  0
  146.3850  154.9650  135.3150 N   0  0  0  0  0  0  0  0  0  0  0  0
  144.9260  154.8820  135.4190 C   0  0  0  0  0  0  0  0  0  0  0  0
  147.2050  153.8780  135.7860 C   0  0  0  0  0  0  0  0  0  0  0  0
  148.1120  153.4040  135.0490 O   0  0  0  0  0  0  0  0  0  0  0  0
  147.0060  153.3470  137.1030 N   0  0  0  0  0  0  0  0  0  0  0  0
  148.0850  153.1220  138.0590 C   0  0  1  0  0  0  0  0  0  0  0  0
  149.1160  154.2400  137.9310 C   0  0  0  0  0  0  0  0  0  0  0  0
  147.5410  153.0730  139.4570 C   0  0  0  0  0  0  0  0  0  0  0  0
  146.9940  154.0880  139.9650 O   0  0  0  0  0  0  0  0  0  0  0  0
  147.6630  151.9110  140.2090 O   0  0  0  0  0  0  0  0  0  0  0  0
  144.5680  158.2640  133.5760 C   0  0  0  0  0  0  0  0  0  0  0  0
  143.5060  157.3700  133.7580 C   0  0  0  0  0  0  0  0  0  0  0  0
  140.8803  156.8438  135.2047 H   0  0  0  0  0  0  0  0  0  0  0  0
  140.1422  157.4041  133.6659 H   0  0  0  0  0  0  0  0  0  0  0  0
  141.2614  155.9991  133.6659 H   0  0  0  0  0  0  0  0  0  0  0  0
  140.9986  159.7127  134.0391 H   0  0  0  0  0  0  0  0  0  0  0  0
  142.9570  161.2677  133.7454 H   0  0  0  0  0  0  0  0  0  0  0  0
  145.7989  161.3086  133.4046 H   0  0  0  0  0  0  0  0  0  0  0  0
  149.2320  158.2170  134.4370 H   0  0  0  0  0  0  0  0  0  0  0  0
  144.6344  154.8654  136.4795 H   0  0  0  0  0  0  0  0  0  0  0  0
  144.4731  155.7558  134.9278 H   0  0  0  0  0  0  0  0  0  0  0  0
  144.5751  153.9624  134.9278 H   0  0  0  0  0  0  0  0  0  0  0  0
  148.5667  152.1572  137.8418 H   0  0  0  0  0  0  0  0  0  0  0  0
  149.4227  154.5725  138.9337 H   0  0  0  0  0  0  0  0  0  0  0  0
  149.9945  153.8678  137.3835 H   0  0  0  0  0  0  0  0  0  0  0  0
  148.6739  155.0855  137.3835 H   0  0  0  0  0  0  0  0  0  0  0  0
  143.6804  156.2843  133.7857 H   0  0  0  0  0  0  0  0  0  0  0  0
  1  2  1  0
  2  3  2  0
  3  4  1  0
  4  5  2  0
  5  6  1  0
  6  7  2  0
  7  8  1  0
  8  9  1  0
  8 10  2  0
  7 11  1  0
 11 12  1  0
 12 13  2  0
 12 14  1  0
 14 15  2  0
 14 16  1  0
 16 17  1  0
 16 18  1  0
 18 19  2  0
 18 20  1  0
 20 21  1  0
 21 22  1  0
 21 23  1  0
 23 24  2  0
 23 25  1  0
 11 26  1  0
 26 27  2  0
 27  2  1  0
 26  5  1  0
  1 28  1  0
  1 29  1  0
  1 30  1  0
  3 31  1  0
  4 32  1  0
  6 33  1  0
  9 34  1  0
 17 35  1  0
 17 36  1  0
 17 37  1  0
 21 38  1  6
 22 39  1  0
 22 40  1  0
 22 41  1  0
 27 42  1  0
M  CHG  3   9  -1  20  -1  25  -1
M  END
>  <UniqueID>  (56) 
56

>  <SMILES>  (56) 
Cc1ccc2cc(C([NH-])=O)n(C(=O)C(=O)N(C)C(=O)[N-][C@@H](C)C(=O)[O-])c2c1

>  <Energy>  (56) 
78.74116537699192

>  <Genealogy>  (56) 
Cc1ccc2cc(C([NH-])=O)n(C(=O)C(=O)N(C)C(=O)[N-][C@@H](C)C(=O)[O-])c2c1 (protonated)
Cc1ccc2cc(C([NH-])=O)n(C(=O)C(=O)N(C)C(=O)[N-][C@@H](C)C(=O)[O-])c2c1 (3D coordinates assigned)
Cc1ccc2cc(C([NH-])=O)n(C(=O)C(=O)N(C)C(=O)[N-][C@@H](C)C(=O)[O-])c2c1 (optimized conformer: 78.74116537699192 kcal/mol)

>  <smiles>  (56) 
Cc1ccc2cc(C(N)=O)n(C(=O)C(=O)N(C)C(=O)N[C@@H](C)C(=O)O)c2c1

>  <score_type>  (56) 
oracle

>  <origin>  (56) 
adg

>  <m_score__min__energy>  (56) 
-8.0099999999999998

>  <m_primary>  (56) 
energy

$$$$
56:0
     RDKit          3D

 36 37  0  0  0  0  0  0  0  0999 V2000
  141.6980  159.4810  132.6270 N   0  0  0  0  0  0  0  0  0  0  0  0
  142.7870  159.6960  133.5270 C   0  0  0  0  0  0  0  0  0  0  0  0
  142.6410  160.4880  134.4960 O   0  0  0  0  0  0  0  0  0  0  0  0
  144.0560  158.9560  133.3800 C   0  0  0  0  0  0  0  0  0  0  0  0
  145.2800  159.5750  133.1430 C   0  0  0  0  0  0  0  0  0  0  0  0
  146.2070  158.5580  133.1430 C   0  0  0  0  0  0  0  0  0  0  0  0
  147.5810  158.6010  132.9300 C   0  0  0  0  0  0  0  0  0  0  0  0
  148.2880  157.3880  132.9400 C   0  0  0  0  0  0  0  0  0  0  0  0
  147.6170  156.1580  133.1700 C   0  0  0  0  0  0  0  0  0  0  0  0
  148.3770  154.8570  133.1150 C   0  0  0  0  0  0  0  0  0  0  0  0
  147.7190  153.9410  132.3120 F   0  0  0  0  0  0  0  0  0  0  0  0
  148.4860  154.3400  134.3910 F   0  0  0  0  0  0  0  0  0  0  0  0
  149.6460  155.0540  132.5970 F   0  0  0  0  0  0  0  0  0  0  0  0
  146.2150  156.1540  133.3560 C   0  0  0  0  0  0  0  0  0  0  0  0
  145.5390  157.3810  133.3620 C   0  0  0  0  0  0  0  0  0  0  0  0
  144.2140  157.6090  133.5050 N   0  0  0  0  0  0  0  0  0  0  0  0
  143.1810  156.6170  133.6310 C   0  0  0  0  0  0  0  0  0  0  0  0
  143.3860  155.5750  134.3090 O   0  0  0  0  0  0  0  0  0  0  0  0
  141.9240  156.8070  132.9710 N   0  0  0  0  0  0  0  0  0  0  0  0
  140.6450  156.8720  133.6680 C   0  0  0  0  0  0  0  0  0  0  0  0
  139.5450  157.3560  132.7270 C   0  0  0  0  0  0  0  0  0  0  0  0
  139.1210  158.6340  133.1370 O   0  0  0  0  0  0  0  0  0  0  0  0
  138.9130  159.6020  131.7490 P   0  0  0  0  0  0  0  0  0  0  0  0
  137.5330  159.3870  131.1680 O   0  0  0  0  0  0  0  0  0  0  0  0
  140.0690  159.1630  130.5970 O   0  0  0  0  0  0  0  0  0  0  0  0
  139.1150  161.2380  132.1360 O   0  0  0  0  0  0  0  0  0  0  0  0
  140.8240  160.0440  132.7190 H   0  0  0  0  0  0  0  0  0  0  0  0
  141.7270  158.7140  131.9200 H   0  0  0  0  0  0  0  0  0  0  0  0
  145.4665  160.6480  132.9887 H   0  0  0  0  0  0  0  0  0  0  0  0
  148.0981  159.5567  132.7588 H   0  0  0  0  0  0  0  0  0  0  0  0
  149.3744  157.3906  132.7677 H   0  0  0  0  0  0  0  0  0  0  0  0
  145.6681  155.2094  133.4928 H   0  0  0  0  0  0  0  0  0  0  0  0
  140.3859  155.8706  134.0424 H   0  0  0  0  0  0  0  0  0  0  0  0
  140.7327  157.5800  134.5053 H   0  0  0  0  0  0  0  0  0  0  0  0
  139.9351  157.4087  131.6998 H   0  0  0  0  0  0  0  0  0  0  0  0
  138.6969  156.6561  132.7555 H   0  0  0  0  0  0  0  0  0  0  0  0
  1  2  1  0
  2  3  2  0
  2  4  1  0
  4  5  2  0
  5  6  1  0
  6  7  2  0
  7  8  1  0
  8  9  2  0
  9 10  1  0
 10 11  1  0
 10 12  1  0
 10 13  1  0
  9 14  1  0
 14 15  2  0
 15 16  1  0
 16 17  1  0
 17 18  2  0
 17 19  1  0
 19 20  1  0
 20 21  1  0
 21 22  1  0
 22 23  1  0
 23 24  2  0
 23 25  1  0
 23 26  1  0
 16  4  1  0
 15  6  1  0
  1 27  1  0
  1 28  1  0
  5 29  1  0
  7 30  1  0
  8 31  1  0
 14 32  1  0
 20 33  1  0
 20 34  1  0
 21 35  1  0
 21 36  1  0
M  CHG  3  19  -1  25  -1  26  -1
M  END
>  <UniqueID>  (57) 
57

>  <SMILES>  (57) 
NC(=O)c1cc2ccc(C(F)(F)F)cc2n1C(=O)[N-]CCOP(=O)([O-])[O-]

>  <Energy>  (57) 
70.71310144099505

>  <Genealogy>  (57) 
NC(=O)c1cc2ccc(C(F)(F)F)cc2n1C(=O)[N-]CCOP(=O)([O-])[O-] (protonated)
NC(=O)c1cc2ccc(C(F)(F)F)cc2n1C(=O)[N-]CCOP(=O)([O-])[O-] (3D coordinates assigned)
NC(=O)c1cc2ccc(C(F)(F)F)cc2n1C(=O)[N-]CCOP(=O)([O-])[O-] (optimized conformer: 70.71310144099505 kcal/mol)

>  <smiles>  (57) 
NC(=O)c1cc2ccc(C(F)(F)F)cc2n1C(=O)NCCOP(=O)(O)O

>  <score_type>  (57) 
oracle

>  <origin>  (57) 
adg

>  <m_score__min__energy>  (57) 
-7.4000000000000004

>  <m_primary>  (57) 
energy

$$$$
57:0
     RDKit          3D

 44 46  0  0  0  0  0  0  0  0999 V2000
  148.6210  157.4140  131.8550 N   0  0  0  0  0  0  0  0  0  0  0  0
  148.2320  158.5720  132.5950 C   0  0  0  0  0  0  0  0  0  0  0  0
  149.0900  159.4610  132.8430 O   0  0  0  0  0  0  0  0  0  0  0  0
  146.8350  158.7720  133.0320 C   0  0  0  0  0  0  0  0  0  0  0  0
  146.2630  160.0260  133.2300 C   0  0  0  0  0  0  0  0  0  0  0  0
  144.9690  159.7760  133.6260 C   0  0  0  0  0  0  0  0  0  0  0  0
  143.9610  160.6630  133.9900 C   0  0  0  0  0  0  0  0  0  0  0  0
  142.7340  160.1250  134.4110 C   0  0  0  0  0  0  0  0  0  0  0  0
  142.5420  158.7220  134.4740 C   0  0  0  0  0  0  0  0  0  0  0  0
  141.2160  158.1620  134.9270 C   0  0  0  0  0  0  0  0  0  0  0  0
  140.8340  156.8820  134.1640 C   0  0  0  0  0  0  0  0  0  0  0  0
  140.0550  157.1410  132.8560 C   0  0  0  0  0  0  0  0  0  0  0  0
  138.7330  157.8930  133.0720 C   0  0  0  0  0  0  0  0  0  0  0  0
  138.5390  158.9380  132.0690 N   0  0  0  0  0  0  0  0  0  0  0  0
  139.3550  159.9720  131.8090 C   0  0  0  0  0  0  0  0  0  0  0  0
  138.7850  160.7120  130.7960 C   0  0  0  0  0  0  0  0  0  0  0  0
  137.6190  160.1440  130.4220 N   0  0  0  0  0  0  0  0  0  0  0  0
  137.5030  159.0630  131.2190 C   0  0  0  0  0  0  0  0  0  0  0  0
  143.5930  157.8530  134.1050 C   0  0  0  0  0  0  0  0  0  0  0  0
  144.7960  158.4150  133.6630 C   0  0  0  0  0  0  0  0  0  0  0  0
  145.9340  157.7850  133.2930 N   0  0  0  0  0  0  0  0  0  0  0  0
  146.1960  156.3720  133.3520 C   0  0  0  0  0  0  0  0  0  0  0  0
  146.2210  155.7020  132.2840 O   0  0  0  0  0  0  0  0  0  0  0  0
  146.4110  155.6670  134.6580 C   0  0  0  0  0  0  0  0  0  0  0  0
  146.8240  154.3700  134.4170 F   0  0  0  0  0  0  0  0  0  0  0  0
  147.3890  156.3230  135.3810 F   0  0  0  0  0  0  0  0  0  0  0  0
  145.2410  155.6290  135.3960 F   0  0  0  0  0  0  0  0  0  0  0  0
  147.9110  156.7590  131.4630 H   0  0  0  0  0  0  0  0  0  0  0  0
  149.6240  157.2660  131.6060 H   0  0  0  0  0  0  0  0  0  0  0  0
  146.7430  161.0069  133.0980 H   0  0  0  0  0  0  0  0  0  0  0  0
  144.1199  161.7507  133.9494 H   0  0  0  0  0  0  0  0  0  0  0  0
  141.9129  160.7997  134.6950 H   0  0  0  0  0  0  0  0  0  0  0  0
  141.2779  157.9293  136.0003 H   0  0  0  0  0  0  0  0  0  0  0  0
  140.4435  158.9185  134.7250 H   0  0  0  0  0  0  0  0  0  0  0  0
  141.7575  156.3387  133.9151 H   0  0  0  0  0  0  0  0  0  0  0  0
  140.1684  156.3048  134.8226 H   0  0  0  0  0  0  0  0  0  0  0  0
  140.6898  157.7376  132.1844 H   0  0  0  0  0  0  0  0  0  0  0  0
  139.8040  156.1594  132.4277 H   0  0  0  0  0  0  0  0  0  0  0  0
  137.9003  157.1771  133.0075 H   0  0  0  0  0  0  0  0  0  0  0  0
  138.7656  158.3689  134.0632 H   0  0  0  0  0  0  0  0  0  0  0  0
  140.3077  160.1894  132.3141 H   0  0  0  0  0  0  0  0  0  0  0  0
  139.2144  161.6256  130.3591 H   0  0  0  0  0  0  0  0  0  0  0  0
  136.6565  158.3617  131.1791 H   0  0  0  0  0  0  0  0  0  0  0  0
  143.4688  156.7616  134.1637 H   0  0  0  0  0  0  0  0  0  0  0  0
  1  2  1  0
  2  3  2  0
  2  4  1  0
  4  5  2  0
  5  6  1  0
  6  7  2  0
  7  8  1  0
  8  9  2  0
  9 10  1  0
 10 11  1  0
 11 12  1  0
 12 13  1  0
 13 14  1  0
 14 15  1  0
 15 16  2  0
 16 17  1  0
 17 18  2  0
  9 19  1  0
 19 20  2  0
 20 21  1  0
 21 22  1  0
 22 23  2  0
 22 24  1  0
 24 25  1  0
 24 26  1  0
 24 27  1  0
 21  4  1  0
 20  6  1  0
 18 14  1  0
  1 28  1  0
  1 29  1  0
  5 30  1  0
  7 31  1  0
  8 32  1  0
 10 33  1  0
 10 34  1  0
 11 35  1  0
 11 36  1  0
 12 37  1  0
 12 38  1  0
 13 39  1  0
 13 40  1  0
 15 41  1  0
 16 42  1  0
 18 43  1  0
 19 44  1  0
M  END
>  <UniqueID>  (58) 
58

>  <SMILES>  (58) 
NC(=O)c1cc2ccc(CCCCn3ccnc3)cc2n1C(=O)C(F)(F)F

>  <Energy>  (58) 
108.87547195519609

>  <Genealogy>  (58) 
NC(=O)c1cc2ccc(CCCCn3ccnc3)cc2n1C(=O)C(F)(F)F (3D coordinates assigned)
NC(=O)c1cc2ccc(CCCCn3ccnc3)cc2n1C(=O)C(F)(F)F (optimized conformer: 108.87547195519609 kcal/mol)

>  <smiles>  (58) 
NC(=O)c1cc2ccc(CCCCn3ccnc3)cc2n1C(=O)C(F)(F)F

>  <score_type>  (58) 
oracle

>  <origin>  (58) 
adg

>  <m_score__min__energy>  (58) 
-7.5499999999999998

>  <m_primary>  (58) 
energy

$$$$
58:0
     RDKit          3D

 45 46  0  0  0  0  0  0  0  0999 V2000
  149.2280  153.3850  137.9150 C   0  0  0  0  0  0  0  0  0  0  0  0
  147.9510  152.5950  137.6610 C   0  0  0  0  0  0  0  0  0  0  0  0
  147.3510  152.9900  136.4290 O   0  0  0  0  0  0  0  0  0  0  0  0
  146.8440  154.2730  136.1960 C   0  0  0  0  0  0  0  0  0  0  0  0
  147.6170  155.2550  136.0330 O   0  0  0  0  0  0  0  0  0  0  0  0
  145.3640  154.4830  136.1570 C   0  0  0  0  0  0  0  0  0  0  0  0
  144.9270  154.7050  134.8190 O   0  0  0  0  0  0  0  0  0  0  0  0
  145.7170  154.4320  133.6960 C   0  0  0  0  0  0  0  0  0  0  0  0
  145.5170  153.3870  133.0160 O   0  0  0  0  0  0  0  0  0  0  0  0
  146.7600  155.3430  133.3170 N   0  0  0  0  0  0  0  0  0  0  0  0
  148.0680  155.0500  133.0690 C   0  0  0  0  0  0  0  0  0  0  0  0
  148.6470  153.6960  132.9830 C   0  0  0  0  0  0  0  0  0  0  0  0
  148.1010  152.6090  133.7310 N   0  0  0  0  0  0  0  0  0  0  0  0
  149.6050  153.4810  132.1930 O   0  0  0  0  0  0  0  0  0  0  0  0
  148.8000  156.2130  132.8510 C   0  0  0  0  0  0  0  0  0  0  0  0
  147.8890  157.2400  132.9600 C   0  0  0  0  0  0  0  0  0  0  0  0
  148.0750  158.6130  132.8490 C   0  0  0  0  0  0  0  0  0  0  0  0
  146.9640  159.4470  133.0470 C   0  0  0  0  0  0  0  0  0  0  0  0
  145.6890  158.9050  133.3650 C   0  0  0  0  0  0  0  0  0  0  0  0
  144.5480  159.7730  133.5880 N   0  0  0  0  0  0  0  0  0  0  0  0
  144.7630  161.1560  134.0330 C   0  0  0  0  0  0  0  0  0  0  0  0
  143.1730  159.2980  133.3660 C   0  0  0  0  0  0  0  0  0  0  0  0
  142.2020  160.0980  134.1790 C   0  0  0  0  0  0  0  0  0  0  0  0
  141.8890  159.7270  135.3410 O   0  0  0  0  0  0  0  0  0  0  0  0
  141.6420  161.2530  133.6500 O   0  0  0  0  0  0  0  0  0  0  0  0
  145.5470  157.4990  133.4690 C   0  0  0  0  0  0  0  0  0  0  0  0
  146.6670  156.6900  133.2420 C   0  0  0  0  0  0  0  0  0  0  0  0
  149.3884  153.4842  138.9987 H   0  0  0  0  0  0  0  0  0  0  0  0
  150.0815  152.8569  137.4649 H   0  0  0  0  0  0  0  0  0  0  0  0
  149.1365  154.3845  137.4649 H   0  0  0  0  0  0  0  0  0  0  0  0
  148.1923  151.5227  137.6178 H   0  0  0  0  0  0  0  0  0  0  0  0
  147.2432  152.7940  138.4791 H   0  0  0  0  0  0  0  0  0  0  0  0
  144.8610  153.5911  136.5589 H   0  0  0  0  0  0  0  0  0  0  0  0
  145.1135  155.3653  136.7643 H   0  0  0  0  0  0  0  0  0  0  0  0
  147.2070  152.7150  134.2600 H   0  0  0  0  0  0  0  0  0  0  0  0
  148.5450  151.6660  133.6870 H   0  0  0  0  0  0  0  0  0  0  0  0
  149.8760  156.2946  132.6373 H   0  0  0  0  0  0  0  0  0  0  0  0
  149.0637  159.0333  132.6129 H   0  0  0  0  0  0  0  0  0  0  0  0
  147.0816  160.5368  132.9547 H   0  0  0  0  0  0  0  0  0  0  0  0
  144.7684  161.1908  135.1324 H   0  0  0  0  0  0  0  0  0  0  0  0
  145.7283  161.5186  133.6499 H   0  0  0  0  0  0  0  0  0  0  0  0
  143.9533  161.7945  133.6499 H   0  0  0  0  0  0  0  0  0  0  0  0
  142.9227  159.4005  132.2998 H   0  0  0  0  0  0  0  0  0  0  0  0
  143.1080  158.2434  133.6720 H   0  0  0  0  0  0  0  0  0  0  0  0
  144.5749  157.0514  133.7233 H   0  0  0  0  0  0  0  0  0  0  0  0
  1  2  1  0
  2  3  1  0
  3  4  1  0
  4  5  2  0
  4  6  1  0
  6  7  1  0
  7  8  1  0
  8  9  2  0
  8 10  1  0
 10 11  1  0
 11 12  1  0
 12 13  1  0
 12 14  2  0
 11 15  2  0
 15 16  1  0
 16 17  2  0
 17 18  1  0
 18 19  2  0
 19 20  1  0
 20 21  1  0
 20 22  1  0
 22 23  1  0
 23 24  2  0
 23 25  1  0
 19 26  1  0
 26 27  2  0
 27 10  1  0
 27 16  1  0
  1 28  1  0
  1 29  1  0
  1 30  1  0
  2 31  1  0
  2 32  1  0
  6 33  1  0
  6 34  1  0
 13 35  1  0
 13 36  1  0
 15 37  1  0
 17 38  1  0
 18 39  1  0
 21 40  1  0
 21 41  1  0
 21 42  1  0
 22 43  1  0
 22 44  1  0
 26 45  1  0
M  CHG  1  25  -1
M  END
>  <UniqueID>  (59) 
59

>  <SMILES>  (59) 
CCOC(=O)COC(=O)n1c(C(N)=O)cc2ccc(N(C)CC(=O)[O-])cc21

>  <Energy>  (59) 
78.21370693303139

>  <Genealogy>  (59) 
CCOC(=O)COC(=O)n1c(C(N)=O)cc2ccc(N(C)CC(=O)[O-])cc21 (protonated)
CCOC(=O)COC(=O)n1c(C(N)=O)cc2ccc(N(C)CC(=O)[O-])cc21 (3D coordinates assigned)
CCOC(=O)COC(=O)n1c(C(N)=O)cc2ccc(N(C)CC(=O)[O-])cc21 (optimized conformer: 78.21370693303139 kcal/mol)

>  <smiles>  (59) 
CCOC(=O)COC(=O)n1c(C(N)=O)cc2ccc(N(C)CC(=O)O)cc21

>  <score_type>  (59) 
oracle

>  <origin>  (59) 
adg

>  <m_score__min__energy>  (59) 
-6.71

>  <m_primary>  (59) 
energy

$$$$
59:0
     RDKit          3D

 40 41  0  0  0  0  0  0  0  0999 V2000
  141.7040  155.4530  138.9010 C   0  0  0  0  0  0  0  0  0  0  0  0
  141.3220  156.5330  137.9340 C   0  0  0  0  0  0  0  0  0  0  0  0
  141.3730  157.8930  138.3300 C   0  0  0  0  0  0  0  0  0  0  0  0
  141.0600  158.9170  137.4200 C   0  0  0  0  0  0  0  0  0  0  0  0
  140.7090  158.5520  136.1230 C   0  0  0  0  0  0  0  0  0  0  0  0
  140.3830  159.3320  135.0370 C   0  0  0  0  0  0  0  0  0  0  0  0
  140.1380  158.4360  133.9970 C   0  0  0  0  0  0  0  0  0  0  0  0
  139.6790  158.8450  132.6560 C   0  0  0  0  0  0  0  0  0  0  0  0
  140.6060  159.0210  131.5900 N   0  0  0  0  0  0  0  0  0  0  0  0
  138.4480  159.0030  132.4370 O   0  0  0  0  0  0  0  0  0  0  0  0
  140.3150  157.1540  134.4240 N   0  0  0  0  0  0  0  0  0  0  0  0
  140.2570  155.9440  133.6530 C   0  0  0  0  0  0  0  0  0  0  0  0
  139.1330  155.4540  133.3620 O   0  0  0  0  0  0  0  0  0  0  0  0
  141.5190  155.1740  133.3630 C   0  0  0  0  0  0  0  0  0  0  0  0
  142.7770  155.7840  134.0070 C   0  0  0  0  0  0  0  0  0  0  0  0
  143.1340  157.1330  133.4320 C   0  0  0  0  0  0  0  0  0  0  0  0
  142.9870  157.3280  132.1960 O   0  0  0  0  0  0  0  0  0  0  0  0
  143.7060  158.1840  134.2250 N   0  0  0  0  0  0  0  0  0  0  0  0
  144.4720  159.3240  133.7330 C   0  0  0  0  0  0  0  0  0  0  0  0
  143.6070  160.5810  133.6940 C   0  0  0  0  0  0  0  0  0  0  0  0
  142.3920  160.2920  133.0610 O   0  0  0  0  0  0  0  0  0  0  0  0
  140.6590  157.2410  135.7250 C   0  0  0  0  0  0  0  0  0  0  0  0
  140.9770  156.2020  136.6050 C   0  0  0  0  0  0  0  0  0  0  0  0
  141.5744  155.8195  139.9300 H   0  0  0  0  0  0  0  0  0  0  0  0
  141.0622  154.5740  138.7413 H   0  0  0  0  0  0  0  0  0  0  0  0
  142.7557  155.1730  138.7413 H   0  0  0  0  0  0  0  0  0  0  0  0
  141.6606  158.1495  139.3603 H   0  0  0  0  0  0  0  0  0  0  0  0
  141.0913  159.9740  137.7229 H   0  0  0  0  0  0  0  0  0  0  0  0
  140.3274  160.4299  134.9977 H   0  0  0  0  0  0  0  0  0  0  0  0
  141.6330  158.9120  131.7450 H   0  0  0  0  0  0  0  0  0  0  0  0
  141.3960  154.1493  133.7436 H   0  0  0  0  0  0  0  0  0  0  0  0
  141.6696  155.2015  132.2737 H   0  0  0  0  0  0  0  0  0  0  0  0
  142.5988  155.8982  135.0864 H   0  0  0  0  0  0  0  0  0  0  0  0
  143.6168  155.1040  133.8013 H   0  0  0  0  0  0  0  0  0  0  0  0
  145.3299  159.4969  134.3995 H   0  0  0  0  0  0  0  0  0  0  0  0
  144.8188  159.1024  132.7129 H   0  0  0  0  0  0  0  0  0  0  0  0
  143.4129  160.9245  134.7208 H   0  0  0  0  0  0  0  0  0  0  0  0
  144.1323  161.3704  133.1364 H   0  0  0  0  0  0  0  0  0  0  0  0
  142.4710  159.3620  132.7240 H   0  0  0  0  0  0  0  0  0  0  0  0
  140.9590  155.1541  136.2709 H   0  0  0  0  0  0  0  0  0  0  0  0
  1  2  1  0
  2  3  2  0
  3  4  1  0
  4  5  2  0
  5  6  1  0
  6  7  2  0
  7  8  1  0
  8  9  1  0
  8 10  2  0
  7 11  1  0
 11 12  1  0
 12 13  2  0
 12 14  1  0
 14 15  1  0
 15 16  1  0
 16 17  2  0
 16 18  1  0
 18 19  1  0
 19 20  1  0
 20 21  1  0
 11 22  1  0
 22 23  2  0
 23  2  1  0
 22  5  1  0
  1 24  1  0
  1 25  1  0
  1 26  1  0
  3 27  1  0
  4 28  1  0
  6 29  1  0
  9 30  1  0
 14 31  1  0
 14 32  1  0
 15 33  1  0
 15 34  1  0
 19 35  1  0
 19 36  1  0
 20 37  1  0
 20 38  1  0
 21 39  1  0
 23 40  1  0
M  CHG  2   9  -1  18  -1
M  END
>  <UniqueID>  (60) 
60

>  <SMILES>  (60) 
Cc1ccc2cc(C([NH-])=O)n(C(=O)CCC(=O)[N-]CCO)c2c1

>  <Energy>  (60) 
74.2946094998757

>  <Genealogy>  (60) 
Cc1ccc2cc(C([NH-])=O)n(C(=O)CCC(=O)[N-]CCO)c2c1 (protonated)
Cc1ccc2cc(C([NH-])=O)n(C(=O)CCC(=O)[N-]CCO)c2c1 (3D coordinates assigned)
Cc1ccc2cc(C([NH-])=O)n(C(=O)CCC(=O)[N-]CCO)c2c1 (optimized conformer: 74.2946094998757 kcal/mol)

>  <smiles>  (60) 
Cc1ccc2cc(C(N)=O)n(C(=O)CCC(=O)NCCO)c2c1

>  <score_type>  (60) 
oracle

>  <origin>  (60) 
adg

>  <m_score__min__energy>  (60) 
-5.9800000000000004

>  <m_primary>  (60) 
energy

$$$$
60:0
     RDKit          3D

 34 35  0  0  0  0  0  0  0  0999 V2000
  140.0500  151.2200  132.4700 N   0  0  0  0  0  0  0  0  0  0  0  0
  141.0690  151.3840  133.4520 C   0  0  0  0  0  0  0  0  0  0  0  0
  141.0150  150.7110  134.5160 O   0  0  0  0  0  0  0  0  0  0  0  0
  142.1510  152.3720  133.2660 C   0  0  0  0  0  0  0  0  0  0  0  0
  143.4910  152.0190  133.1120 C   0  0  0  0  0  0  0  0  0  0  0  0
  144.1780  153.2100  133.0640 C   0  0  0  0  0  0  0  0  0  0  0  0
  145.5390  153.4500  132.9070 C   0  0  0  0  0  0  0  0  0  0  0  0
  145.9720  154.7860  132.8610 C   0  0  0  0  0  0  0  0  0  0  0  0
  145.0420  155.8560  132.9690 C   0  0  0  0  0  0  0  0  0  0  0  0
  145.4610  157.2340  132.9170 N   0  0  0  0  0  0  0  0  0  0  0  0
  144.8690  158.3120  133.7080 C   0  0  0  0  0  0  0  0  0  0  0  0
  145.5150  159.6170  133.3730 C   0  0  0  0  0  0  0  0  0  0  0  0
  145.3060  160.6190  134.1110 O   0  0  0  0  0  0  0  0  0  0  0  0
  146.3660  159.6970  132.2630 O   0  0  0  0  0  0  0  0  0  0  0  0
  147.6990  159.2690  132.2380 C   0  0  0  0  0  0  0  0  0  0  0  0
  148.0890  158.3090  132.9580 O   0  0  0  0  0  0  0  0  0  0  0  0
  148.6860  160.0030  131.3900 C   0  0  0  0  0  0  0  0  0  0  0  0
  149.9730  159.7180  131.8090 F   0  0  0  0  0  0  0  0  0  0  0  0
  148.5400  159.6100  130.0730 F   0  0  0  0  0  0  0  0  0  0  0  0
  148.4740  161.3660  131.4860 F   0  0  0  0  0  0  0  0  0  0  0  0
  143.6670  155.5660  133.1180 C   0  0  0  0  0  0  0  0  0  0  0  0
  143.2670  154.2260  133.1800 C   0  0  0  0  0  0  0  0  0  0  0  0
  142.0150  153.7280  133.3020 N   0  0  0  0  0  0  0  0  0  0  0  0
  140.7960  154.4860  133.3520 C   0  0  0  0  0  0  0  0  0  0  0  0
  140.7330  155.5450  134.0310 O   0  0  0  0  0  0  0  0  0  0  0  0
  139.6820  154.0730  132.6310 O   0  0  0  0  0  0  0  0  0  0  0  0
  139.7790  152.0060  131.8390 H   0  0  0  0  0  0  0  0  0  0  0  0
  143.9098  151.0042  133.0435 H   0  0  0  0  0  0  0  0  0  0  0  0
  146.2547  152.6191  132.8214 H   0  0  0  0  0  0  0  0  0  0  0  0
  147.0428  155.0066  132.7400 H   0  0  0  0  0  0  0  0  0  0  0  0
  146.2110  157.5000  132.2380 H   0  0  0  0  0  0  0  0  0  0  0  0
  143.7927  158.3734  133.4894 H   0  0  0  0  0  0  0  0  0  0  0  0
  145.0255  158.0993  134.7758 H   0  0  0  0  0  0  0  0  0  0  0  0
  142.9263  156.3765  133.1839 H   0  0  0  0  0  0  0  0  0  0  0  0
  1  2  1  0
  2  3  2  0
  2  4  1  0
  4  5  2  0
  5  6  1  0
  6  7  2  0
  7  8  1  0
  8  9  2  0
  9 10  1  0
 10 11  1  0
 11 12  1  0
 12 13  2  0
 12 14  1  0
 14 15  1  0
 15 16  2  0
 15 17  1  0
 17 18  1  0
 17 19  1  0
 17 20  1  0
  9 21  1  0
 21 22  2  0
 22 23  1  0
 23 24  1  0
 24 25  2  0
 24 26  1  0
 23  4  1  0
 22  6  1  0
  1 27  1  0
  5 28  1  0
  7 29  1  0
  8 30  1  0
 10 31  1  0
 11 32  1  0
 11 33  1  0
 21 34  1  0
M  CHG  2   1  -1  26  -1
M  END
>  <UniqueID>  (61) 
61

>  <SMILES>  (61) 
[NH-]C(=O)c1cc2ccc(NCC(=O)OC(=O)C(F)(F)F)cc2n1C(=O)[O-]

>  <Energy>  (61) 
72.37050165352542

>  <Genealogy>  (61) 
[NH-]C(=O)c1cc2ccc(NCC(=O)OC(=O)C(F)(F)F)cc2n1C(=O)[O-] (protonated)
[NH-]C(=O)c1cc2ccc(NCC(=O)OC(=O)C(F)(F)F)cc2n1C(=O)[O-] (3D coordinates assigned)
[NH-]C(=O)c1cc2ccc(NCC(=O)OC(=O)C(F)(F)F)cc2n1C(=O)[O-] (optimized conformer: 72.37050165352542 kcal/mol)

>  <smiles>  (61) 
NC(=O)c1cc2ccc(NCC(=O)OC(=O)C(F)(F)F)cc2n1C(=O)O

>  <score_type>  (61) 
oracle

>  <origin>  (61) 
adg

>  <m_score__min__energy>  (61) 
-6.1500000000000004

>  <m_primary>  (61) 
energy

$$$$
61:0
     RDKit          3D

 40 41  0  0  0  0  0  0  0  0999 V2000
  137.6560  160.1220  130.7240 C   0  0  0  0  0  0  0  0  0  0  0  0
  137.6560  158.9120  131.5320 N   0  0  0  0  0  0  0  0  0  0  0  0
  138.5800  158.6580  132.5950 C   0  0  0  0  0  0  0  0  0  0  0  0
  138.2930  157.7790  133.4510 O   0  0  0  0  0  0  0  0  0  0  0  0
  139.8460  159.4590  132.7420 C   0  0  0  0  0  0  0  0  0  0  0  0
  140.9710  158.7500  132.2230 O   0  0  0  0  0  0  0  0  0  0  0  0
  141.9780  158.2100  133.0310 C   0  0  0  0  0  0  0  0  0  0  0  0
  142.0310  156.9700  133.2500 O   0  0  0  0  0  0  0  0  0  0  0  0
  142.9670  159.1220  133.6830 C   0  0  0  0  0  0  0  0  0  0  0  0
  144.1840  159.1320  132.9410 O   0  0  0  0  0  0  0  0  0  0  0  0
  145.4040  159.5720  133.4700 C   0  0  0  0  0  0  0  0  0  0  0  0
  145.4480  160.6000  134.2000 O   0  0  0  0  0  0  0  0  0  0  0  0
  146.6060  158.8330  133.2030 N   0  0  0  0  0  0  0  0  0  0  0  0
  146.9620  157.6140  133.6980 C   0  0  0  0  0  0  0  0  0  0  0  0
  146.0980  156.7140  134.4900 C   0  0  0  0  0  0  0  0  0  0  0  0
  144.6830  156.8820  134.4610 N   0  0  0  0  0  0  0  0  0  0  0  0
  146.5970  155.8190  135.2220 O   0  0  0  0  0  0  0  0  0  0  0  0
  148.2500  157.2760  133.2850 C   0  0  0  0  0  0  0  0  0  0  0  0
  148.6740  158.3320  132.5110 C   0  0  0  0  0  0  0  0  0  0  0  0
  149.8840  158.5290  131.8520 C   0  0  0  0  0  0  0  0  0  0  0  0
  150.0600  159.7310  131.1450 C   0  0  0  0  0  0  0  0  0  0  0  0
  149.0380  160.7120  131.1250 C   0  0  0  0  0  0  0  0  0  0  0  0
  149.2280  161.9790  130.3460 C   0  0  0  0  0  0  0  0  0  0  0  0
  149.8260  161.6890  129.1340 F   0  0  0  0  0  0  0  0  0  0  0  0
  147.8180  160.4700  131.7920 C   0  0  0  0  0  0  0  0  0  0  0  0
  147.6640  159.2590  132.4770 C   0  0  0  0  0  0  0  0  0  0  0  0
  138.6931  160.4269  130.5204 H   0  0  0  0  0  0  0  0  0  0  0  0
  137.1375  159.9282  129.7735 H   0  0  0  0  0  0  0  0  0  0  0  0
  137.1375  160.9257  131.2673 H   0  0  0  0  0  0  0  0  0  0  0  0
  139.7360  160.4068  132.1947 H   0  0  0  0  0  0  0  0  0  0  0  0
  140.0167  159.6456  133.8125 H   0  0  0  0  0  0  0  0  0  0  0  0
  142.5541  160.1409  133.7193 H   0  0  0  0  0  0  0  0  0  0  0  0
  143.1693  158.7648  134.7035 H   0  0  0  0  0  0  0  0  0  0  0  0
  144.1810  157.0610  133.5630 H   0  0  0  0  0  0  0  0  0  0  0  0
  148.8087  156.3598  133.5265 H   0  0  0  0  0  0  0  0  0  0  0  0
  150.6776  157.7680  131.8835 H   0  0  0  0  0  0  0  0  0  0  0  0
  150.9996  159.9116  130.6024 H   0  0  0  0  0  0  0  0  0  0  0  0
  148.2502  162.4508  130.1689 H   0  0  0  0  0  0  0  0  0  0  0  0
  149.8692  162.6674  130.9160 H   0  0  0  0  0  0  0  0  0  0  0  0
  147.0084  161.2144  131.7740 H   0  0  0  0  0  0  0  0  0  0  0  0
  1  2  1  0
  2  3  1  0
  3  4  2  0
  3  5  1  0
  5  6  1  0
  6  7  1  0
  7  8  2  0
  7  9  1  0
  9 10  1  0
 10 11  1  0
 11 12  2  0
 11 13  1  0
 13 14  1  0
 14 15  1  0
 15 16  1  0
 15 17  2  0
 14 18  2  0
 18 19  1  0
 19 20  2  0
 20 21  1  0
 21 22  2  0
 22 23  1  0
 23 24  1  0
 22 25  1  0
 25 26  2  0
 26 13  1  0
 26 19  1  0
  1 27  1  0
  1 28  1  0
  1 29  1  0
  5 30  1  0
  5 31  1  0
  9 32  1  0
  9 33  1  0
 16 34  1  0
 18 35  1  0
 20 36  1  0
 21 37  1  0
 23 38  1  0
 23 39  1  0
 25 40  1  0
M  CHG  2   2  -1  16  -1
M  END
>  <UniqueID>  (62) 
62

>  <SMILES>  (62) 
C[N-]C(=O)COC(=O)COC(=O)n1c(C([NH-])=O)cc2ccc(CF)cc21

>  <Energy>  (62) 
70.70939597554468

>  <Genealogy>  (62) 
C[N-]C(=O)COC(=O)COC(=O)n1c(C([NH-])=O)cc2ccc(CF)cc21 (protonated)
C[N-]C(=O)COC(=O)COC(=O)n1c(C([NH-])=O)cc2ccc(CF)cc21 (3D coordinates assigned)
C[N-]C(=O)COC(=O)COC(=O)n1c(C([NH-])=O)cc2ccc(CF)cc21 (optimized conformer: 70.70939597554468 kcal/mol)

>  <smiles>  (62) 
CNC(=O)COC(=O)COC(=O)n1c(C(N)=O)cc2ccc(CF)cc21

>  <score_type>  (62) 
oracle

>  <origin>  (62) 
adg

>  <m_score__min__energy>  (62) 
-6.0099999999999998

>  <m_primary>  (62) 
energy

$$$$
62:0
     RDKit          3D

 47 48  0  0  0  0  0  0  0  0999 V2000
  141.9690  153.6140  133.0340 C   0  0  0  0  0  0  0  0  0  0  0  0
  142.9510  154.3770  133.9200 C   0  0  0  0  0  0  0  0  0  0  0  0
  142.5170  155.7680  134.0970 N   0  0  0  0  0  0  0  0  0  0  0  0
  143.2160  156.8400  133.4220 C   0  0  0  0  0  0  0  0  0  0  0  0
  143.3990  156.7660  132.1770 O   0  0  0  0  0  0  0  0  0  0  0  0
  143.7450  158.0320  134.1340 C   0  0  0  0  0  0  0  0  0  0  0  0
  143.1190  158.5340  135.1070 O   0  0  0  0  0  0  0  0  0  0  0  0
  144.9700  158.6470  133.7050 N   0  0  0  0  0  0  0  0  0  0  0  0
  145.2450  159.9760  133.5800 C   0  0  0  0  0  0  0  0  0  0  0  0
  144.2730  161.0790  133.7320 C   0  0  0  0  0  0  0  0  0  0  0  0
  142.8680  160.8280  133.7690 N   0  0  0  0  0  0  0  0  0  0  0  0
  144.6880  162.2660  133.7880 O   0  0  0  0  0  0  0  0  0  0  0  0
  146.5830  160.1690  133.2430 C   0  0  0  0  0  0  0  0  0  0  0  0
  147.1180  158.9050  133.1450 C   0  0  0  0  0  0  0  0  0  0  0  0
  148.4130  158.5010  132.8320 C   0  0  0  0  0  0  0  0  0  0  0  0
  148.6900  157.1240  132.8220 C   0  0  0  0  0  0  0  0  0  0  0  0
  147.6820  156.1780  133.1500 C   0  0  0  0  0  0  0  0  0  0  0  0
  147.9840  154.7020  133.0940 C   0  0  0  0  0  0  0  0  0  0  0  0
  149.0660  154.4590  132.2650 F   0  0  0  0  0  0  0  0  0  0  0  0
  146.8820  154.0290  132.6030 F   0  0  0  0  0  0  0  0  0  0  0  0
  148.2880  154.2140  134.3530 F   0  0  0  0  0  0  0  0  0  0  0  0
  146.3730  156.6290  133.4420 C   0  0  0  0  0  0  0  0  0  0  0  0
  146.1250  158.0060  133.4280 C   0  0  0  0  0  0  0  0  0  0  0  0
  141.2720  155.9960  134.7750 C   0  0  0  0  0  0  0  0  0  0  0  0
  141.1470  155.6170  135.9720 O   0  0  0  0  0  0  0  0  0  0  0  0
  140.1750  156.6430  134.1000 N   0  0  0  0  0  0  0  0  0  0  0  0
  139.5270  155.9820  132.9630 C   0  0  0  0  0  0  0  0  0  0  0  0
  139.6640  157.9290  134.5890 C   0  0  0  0  0  0  0  0  0  0  0  0
  140.3920  159.0590  133.9300 C   0  0  0  0  0  0  0  0  0  0  0  0
  140.6360  160.1150  134.5710 O   0  0  0  0  0  0  0  0  0  0  0  0
  140.8130  158.9390  132.6110 O   0  0  0  0  0  0  0  0  0  0  0  0
  141.2580  153.0616  133.6659 H   0  0  0  0  0  0  0  0  0  0  0  0
  141.4197  154.3246  132.3989 H   0  0  0  0  0  0  0  0  0  0  0  0
  142.5218  152.9062  132.3989 H   0  0  0  0  0  0  0  0  0  0  0  0
  143.0052  153.8877  134.9037 H   0  0  0  0  0  0  0  0  0  0  0  0
  143.9394  154.3735  133.4371 H   0  0  0  0  0  0  0  0  0  0  0  0
  142.4810  159.8940  133.5090 H   0  0  0  0  0  0  0  0  0  0  0  0
  142.2010  161.6080  133.9580 H   0  0  0  0  0  0  0  0  0  0  0  0
  147.1010  161.1270  133.0883 H   0  0  0  0  0  0  0  0  0  0  0  0
  149.1958  159.2380  132.5995 H   0  0  0  0  0  0  0  0  0  0  0  0
  149.6987  156.7741  132.5573 H   0  0  0  0  0  0  0  0  0  0  0  0
  145.5697  155.9143  133.6744 H   0  0  0  0  0  0  0  0  0  0  0  0
  138.8019  155.2424  133.3334 H   0  0  0  0  0  0  0  0  0  0  0  0
  139.0051  156.7326  132.3513 H   0  0  0  0  0  0  0  0  0  0  0  0
  140.2878  155.4751  132.3513 H   0  0  0  0  0  0  0  0  0  0  0  0
  138.5910  158.0048  134.3590 H   0  0  0  0  0  0  0  0  0  0  0  0
  139.8200  157.9871  135.6763 H   0  0  0  0  0  0  0  0  0  0  0  0
  1  2  1  0
  2  3  1  0
  3  4  1  0
  4  5  2  0
  4  6  1  0
  6  7  2  0
  6  8  1  0
  8  9  1  0
  9 10  1  0
 10 11  1  0
 10 12  2  0
  9 13  2  0
 13 14  1  0
 14 15  2  0
 15 16  1  0
 16 17  2  0
 17 18  1  0
 18 19  1  0
 18 20  1  0
 18 21  1  0
 17 22  1  0
 22 23  2  0
  3 24  1  0
 24 25  2  0
 24 26  1  0
 26 27  1  0
 26 28  1  0
 28 29  1  0
 29 30  2  0
 29 31  1  0
 23  8  1  0
 23 14  1  0
  1 32  1  0
  1 33  1  0
  1 34  1  0
  2 35  1  0
  2 36  1  0
 11 37  1  0
 11 38  1  0
 13 39  1  0
 15 40  1  0
 16 41  1  0
 22 42  1  0
 27 43  1  0
 27 44  1  0
 27 45  1  0
 28 46  1  0
 28 47  1  0
M  CHG  1  31  -1
M  END
>  <UniqueID>  (63) 
63

>  <SMILES>  (63) 
CCN(C(=O)C(=O)n1c(C(N)=O)cc2ccc(C(F)(F)F)cc21)C(=O)N(C)CC(=O)[O-]

>  <Energy>  (63) 
89.39326665998591

>  <Genealogy>  (63) 
CCN(C(=O)C(=O)n1c(C(N)=O)cc2ccc(C(F)(F)F)cc21)C(=O)N(C)CC(=O)[O-] (protonated)
CCN(C(=O)C(=O)n1c(C(N)=O)cc2ccc(C(F)(F)F)cc21)C(=O)N(C)CC(=O)[O-] (3D coordinates assigned)
CCN(C(=O)C(=O)n1c(C(N)=O)cc2ccc(C(F)(F)F)cc21)C(=O)N(C)CC(=O)[O-] (optimized conformer: 89.39326665998591 kcal/mol)

>  <smiles>  (63) 
CCN(C(=O)C(=O)n1c(C(N)=O)cc2ccc(C(F)(F)F)cc21)C(=O)N(C)CC(=O)O

>  <score_type>  (63) 
oracle

>  <origin>  (63) 
adg

>  <m_score__min__energy>  (63) 
-7.3099999999999996

>  <m_primary>  (63) 
energy

$$$$
63:0
     RDKit          3D

 40 42  0  0  0  0  0  0  0  0999 V2000
  139.9080  158.2270  135.9830 C   0  0  0  0  0  0  0  0  0  0  0  0
  140.3200  158.0080  134.5200 C   0  0  0  0  0  0  0  0  0  0  0  0
  141.6410  158.6730  134.1750 C   0  0  0  0  0  0  0  0  0  0  0  0
  141.7020  160.0740  133.9600 C   0  0  0  0  0  0  0  0  0  0  0  0
  142.9300  160.7140  133.7270 C   0  0  0  0  0  0  0  0  0  0  0  0
  144.0830  159.9370  133.7370 C   0  0  0  0  0  0  0  0  0  0  0  0
  145.3970  160.3110  133.5760 C   0  0  0  0  0  0  0  0  0  0  0  0
  146.1290  159.1410  133.7330 C   0  0  0  0  0  0  0  0  0  0  0  0
  147.5960  159.0940  133.6320 C   0  0  0  0  0  0  0  0  0  0  0  0
  148.3060  157.8860  133.9080 N   0  0  0  0  0  0  0  0  0  0  0  0
  148.2350  160.1460  133.3690 O   0  0  0  0  0  0  0  0  0  0  0  0
  145.3080  158.0740  133.9570 N   0  0  0  0  0  0  0  0  0  0  0  0
  145.6760  156.6810  133.9970 C   0  0  0  0  0  0  0  0  0  0  0  0
  146.0120  156.1430  135.0870 O   0  0  0  0  0  0  0  0  0  0  0  0
  145.7010  155.9290  132.8170 O   0  0  0  0  0  0  0  0  0  0  0  0
  146.9000  155.6100  132.1130 C   0  0  0  0  0  0  0  0  0  0  0  0
  147.9900  155.2350  133.0680 C   0  0  0  0  0  0  0  0  0  0  0  0
  147.7520  154.2490  134.0700 N   0  0  0  0  0  0  0  0  0  0  0  0
  149.1260  155.7730  132.9720 O   0  0  0  0  0  0  0  0  0  0  0  0
  144.0540  158.5850  133.9660 C   0  0  0  0  0  0  0  0  0  0  0  0
  142.8430  157.9270  134.2190 C   0  0  0  0  0  0  0  0  0  0  0  0
  139.1900  158.2370  133.5250 C   0  0  0  0  0  0  0  0  0  0  0  0
  139.1150  156.8740  133.1850 O   0  0  0  0  0  0  0  0  0  0  0  0
  140.1780  156.5640  134.0530 C   0  0  0  0  0  0  0  0  0  0  0  0
  140.6821  157.8155  136.6475 H   0  0  0  0  0  0  0  0  0  0  0  0
  139.7950  159.3042  136.1748 H   0  0  0  0  0  0  0  0  0  0  0  0
  138.9518  157.7181  136.1748 H   0  0  0  0  0  0  0  0  0  0  0  0
  140.7754  160.6666  133.9760 H   0  0  0  0  0  0  0  0  0  0  0  0
  142.9783  161.7973  133.5422 H   0  0  0  0  0  0  0  0  0  0  0  0
  145.7845  161.3192  133.3678 H   0  0  0  0  0  0  0  0  0  0  0  0
  147.7990  157.0350  134.2370 H   0  0  0  0  0  0  0  0  0  0  0  0
  149.3450  157.8530  133.8120 H   0  0  0  0  0  0  0  0  0  0  0  0
  146.7071  154.7652  131.4354 H   0  0  0  0  0  0  0  0  0  0  0  0
  147.2197  156.4931  131.5403 H   0  0  0  0  0  0  0  0  0  0  0  0
  146.8360  154.2030  134.5690 H   0  0  0  0  0  0  0  0  0  0  0  0
  142.8268  156.8511  134.4474 H   0  0  0  0  0  0  0  0  0  0  0  0
  138.2704  158.6232  133.9889 H   0  0  0  0  0  0  0  0  0  0  0  0
  139.3318  158.9763  132.7229 H   0  0  0  0  0  0  0  0  0  0  0  0
  139.8970  155.8693  134.8583 H   0  0  0  0  0  0  0  0  0  0  0  0
  141.0609  156.0482  133.6475 H   0  0  0  0  0  0  0  0  0  0  0  0
  1  2  1  0
  2  3  1  0
  3  4  2  0
  4  5  1  0
  5  6  2  0
  6  7  1  0
  7  8  2  0
  8  9  1  0
  9 10  1  0
  9 11  2  0
  8 12  1  0
 12 13  1  0
 13 14  2  0
 13 15  1  0
 15 16  1  0
 16 17  1  0
 17 18  1  0
 17 19  2  0
 12 20  1  0
 20 21  2  0
  2 22  1  0
 22 23  1  0
 23 24  1  0
 24  2  1  0
 21  3  1  0
 20  6  1  0
  1 25  1  0
  1 26  1  0
  1 27  1  0
  4 28  1  0
  5 29  1  0
  7 30  1  0
 10 31  1  0
 10 32  1  0
 16 33  1  0
 16 34  1  0
 18 35  1  0
 21 36  1  0
 22 37  1  0
 22 38  1  0
 24 39  1  0
 24 40  1  0
M  CHG  1  18  -1
M  END
>  <UniqueID>  (64) 
64

>  <SMILES>  (64) 
CC1(c2ccc3cc(C(N)=O)n(C(=O)OCC([NH-])=O)c3c2)COC1

>  <Energy>  (64) 
145.27482046150288

>  <Genealogy>  (64) 
CC1(c2ccc3cc(C(N)=O)n(C(=O)OCC([NH-])=O)c3c2)COC1 (protonated)
CC1(c2ccc3cc(C(N)=O)n(C(=O)OCC([NH-])=O)c3c2)COC1 (3D coordinates assigned)
CC1(c2ccc3cc(C(N)=O)n(C(=O)OCC([NH-])=O)c3c2)COC1 (nonaromatic ring conformer: 145.27482046150288 kcal/mol)

>  <smiles>  (64) 
CC1(c2ccc3cc(C(N)=O)n(C(=O)OCC(N)=O)c3c2)COC1

>  <score_type>  (64) 
oracle

>  <origin>  (64) 
adg

>  <m_score__min__energy>  (64) 
-6.9199999999999999

>  <m_primary>  (64) 
energy

$$$$
64:0
     RDKit          3D

 47 48  0  0  0  0  0  0  0  0999 V2000
  140.9640  157.9280  137.0470 C   0  0  0  0  0  0  0  0  0  0  0  0
  141.8730  158.1720  135.8410 C   0  0  0  0  0  0  0  0  0  0  0  0
  141.7220  159.5860  135.2670 C   0  0  0  0  0  0  0  0  0  0  0  0
  142.1680  159.6550  133.8390 C   0  0  0  0  0  0  0  0  0  0  0  0
  143.2790  160.1800  133.5560 O   0  0  0  0  0  0  0  0  0  0  0  0
  141.3390  159.1380  132.8380 O   0  0  0  0  0  0  0  0  0  0  0  0
  140.1450  159.7730  132.3880 C   0  0  0  0  0  0  0  0  0  0  0  0
  139.0260  158.9220  132.6170 O   0  0  0  0  0  0  0  0  0  0  0  0
  139.0540  157.8120  133.4680 C   0  0  0  0  0  0  0  0  0  0  0  0
  139.0020  157.9560  134.7210 O   0  0  0  0  0  0  0  0  0  0  0  0
  139.1010  156.4450  132.8690 C   0  0  0  0  0  0  0  0  0  0  0  0
  140.4520  156.0390  132.6590 O   0  0  0  0  0  0  0  0  0  0  0  0
  141.1580  155.2740  133.5930 C   0  0  0  0  0  0  0  0  0  0  0  0
  140.7880  155.2490  134.8000 O   0  0  0  0  0  0  0  0  0  0  0  0
  142.3050  154.5120  133.1790 N   0  0  0  0  0  0  0  0  0  0  0  0
  143.5580  154.9830  132.9190 C   0  0  0  0  0  0  0  0  0  0  0  0
  143.9490  156.4050  132.8460 C   0  0  0  0  0  0  0  0  0  0  0  0
  143.0600  157.3890  132.3150 N   0  0  0  0  0  0  0  0  0  0  0  0
  145.1050  156.7490  133.2100 O   0  0  0  0  0  0  0  0  0  0  0  0
  144.4380  153.9360  132.6690 C   0  0  0  0  0  0  0  0  0  0  0  0
  143.6770  152.7940  132.7650 C   0  0  0  0  0  0  0  0  0  0  0  0
  144.0510  151.4620  132.6180 C   0  0  0  0  0  0  0  0  0  0  0  0
  143.0640  150.4790  132.7990 C   0  0  0  0  0  0  0  0  0  0  0  0
  141.7340  150.8440  133.1210 C   0  0  0  0  0  0  0  0  0  0  0  0
  140.6990  149.7800  133.3430 C   0  0  0  0  0  0  0  0  0  0  0  0
  139.8900  149.3950  131.8050 Cl  0  0  0  0  0  0  0  0  0  0  0  0
  141.3950  152.2050  133.2830 C   0  0  0  0  0  0  0  0  0  0  0  0
  142.3930  153.1670  133.0740 C   0  0  0  0  0  0  0  0  0  0  0  0
  141.5358  158.0815  137.9741 H   0  0  0  0  0  0  0  0  0  0  0  0
  140.1185  158.6310  137.0170 H   0  0  0  0  0  0  0  0  0  0  0  0
  140.5842  156.8961  137.0170 H   0  0  0  0  0  0  0  0  0  0  0  0
  142.9181  158.0276  136.1523 H   0  0  0  0  0  0  0  0  0  0  0  0
  141.5826  157.4598  135.0546 H   0  0  0  0  0  0  0  0  0  0  0  0
  140.6645  159.8831  135.3249 H   0  0  0  0  0  0  0  0  0  0  0  0
  142.3552  160.2649  135.8570 H   0  0  0  0  0  0  0  0  0  0  0  0
  140.0044  160.7157  132.9370 H   0  0  0  0  0  0  0  0  0  0  0  0
  140.2286  159.9783  131.3106 H   0  0  0  0  0  0  0  0  0  0  0  0
  138.6109  155.7340  133.5503 H   0  0  0  0  0  0  0  0  0  0  0  0
  138.5796  156.4623  131.9006 H   0  0  0  0  0  0  0  0  0  0  0  0
  143.3290  158.3990  132.3270 H   0  0  0  0  0  0  0  0  0  0  0  0
  142.1560  157.1160  131.8680 H   0  0  0  0  0  0  0  0  0  0  0  0
  145.5123  154.0058  132.4430 H   0  0  0  0  0  0  0  0  0  0  0  0
  145.0864  151.1874  132.3680 H   0  0  0  0  0  0  0  0  0  0  0  0
  143.3264  149.4164  132.6897 H   0  0  0  0  0  0  0  0  0  0  0  0
  141.1845  148.8749  133.7368 H   0  0  0  0  0  0  0  0  0  0  0  0
  139.9528  150.1443  134.0645 H   0  0  0  0  0  0  0  0  0  0  0  0
  140.3745  152.5027  133.5658 H   0  0  0  0  0  0  0  0  0  0  0  0
  1  2  1  0
  2  3  1  0
  3  4  1  0
  4  5  2  0
  4  6  1  0
  6  7  1  0
  7  8  1  0
  8  9  1  0
  9 10  2  0
  9 11  1  0
 11 12  1  0
 12 13  1  0
 13 14  2  0
 13 15  1  0
 15 16  1  0
 16 17  1  0
 17 18  1  0
 17 19  2  0
 16 20  2  0
 20 21  1  0
 21 22  2  0
 22 23  1  0
 23 24  2  0
 24 25  1  0
 25 26  1  0
 24 27  1  0
 27 28  2  0
 28 15  1  0
 28 21  1  0
  1 29  1  0
  1 30  1  0
  1 31  1  0
  2 32  1  0
  2 33  1  0
  3 34  1  0
  3 35  1  0
  7 36  1  0
  7 37  1  0
 11 38  1  0
 11 39  1  0
 18 40  1  0
 18 41  1  0
 20 42  1  0
 22 43  1  0
 23 44  1  0
 25 45  1  0
 25 46  1  0
 27 47  1  0
M  END
>  <UniqueID>  (65) 
65

>  <SMILES>  (65) 
CCCC(=O)OCOC(=O)COC(=O)n1c(C(N)=O)cc2ccc(CCl)cc21

>  <Energy>  (65) 
73.07107565375541

>  <Genealogy>  (65) 
CCCC(=O)OCOC(=O)COC(=O)n1c(C(N)=O)cc2ccc(CCl)cc21 (3D coordinates assigned)
CCCC(=O)OCOC(=O)COC(=O)n1c(C(N)=O)cc2ccc(CCl)cc21 (optimized conformer: 73.07107565375541 kcal/mol)

>  <smiles>  (65) 
CCCC(=O)OCOC(=O)COC(=O)n1c(C(N)=O)cc2ccc(CCl)cc21

>  <score_type>  (65) 
oracle

>  <origin>  (65) 
adg

>  <m_score__min__energy>  (65) 
-7.0499999999999998

>  <m_primary>  (65) 
energy

$$$$
65:0
     RDKit          3D

 52 55  0  0  0  0  0  0  0  0999 V2000
  145.9750  152.7410  132.6990 C   0  0  0  0  0  0  0  0  0  0  0  0
  145.5650  153.9270  133.4710 N   0  0  2  0  0  0  0  0  0  0  0  0
  144.5060  153.6360  134.4730 C   0  0  0  0  0  0  0  0  0  0  0  0
  144.8350  154.0320  135.9380 C   0  0  0  0  0  0  0  0  0  0  0  0
  146.3140  154.1040  136.1800 C   0  0  0  0  0  0  0  0  0  0  0  0
  146.9560  155.1490  135.8910 O   0  0  0  0  0  0  0  0  0  0  0  0
  146.9830  153.0230  136.7440 O   0  0  0  0  0  0  0  0  0  0  0  0
  145.2390  155.0220  132.5820 C   0  0  0  0  0  0  0  0  0  0  0  0
  144.7960  154.7990  131.4230 O   0  0  0  0  0  0  0  0  0  0  0  0
  145.5370  156.3760  132.9640 N   0  0  0  0  0  0  0  0  0  0  0  0
  146.7660  156.9400  133.1250 C   0  0  0  0  0  0  0  0  0  0  0  0
  148.0620  156.2400  132.9980 C   0  0  0  0  0  0  0  0  0  0  0  0
  148.1440  154.8420  133.2640 N   0  0  0  0  0  0  0  0  0  0  0  0
  149.0980  156.8610  132.6420 O   0  0  0  0  0  0  0  0  0  0  0  0
  146.6440  158.2860  133.4680 C   0  0  0  0  0  0  0  0  0  0  0  0
  145.2900  158.5290  133.5110 C   0  0  0  0  0  0  0  0  0  0  0  0
  144.5990  159.7060  133.7830 C   0  0  0  0  0  0  0  0  0  0  0  0
  143.1960  159.6750  133.7220 C   0  0  0  0  0  0  0  0  0  0  0  0
  142.5090  158.4800  133.3840 C   0  0  0  0  0  0  0  0  0  0  0  0
  141.0680  158.4500  133.3030 N   0  0  0  0  0  0  0  0  0  0  0  0
  140.2800  159.0420  132.2250 C   0  0  0  0  0  0  0  0  0  0  0  0
  138.9430  158.3070  132.4170 C   0  0  2  0  0  0  0  0  0  0  0  0
  137.7490  158.9770  131.7410 C   0  0  0  0  0  0  0  0  0  0  0  0
  138.8500  158.2290  133.9240 C   0  0  0  0  0  0  0  0  0  0  0  0
  140.1720  157.5280  134.0040 C   0  0  1  0  0  0  0  0  0  0  0  0
  139.8850  156.3760  133.0410 C   0  0  0  0  0  0  0  0  0  0  0  0
  139.1120  156.9600  132.0000 O   0  0  0  0  0  0  0  0  0  0  0  0
  143.2510  157.3070  133.1140 C   0  0  0  0  0  0  0  0  0  0  0  0
  144.6450  157.3620  133.2000 C   0  0  0  0  0  0  0  0  0  0  0  0
  146.2546  151.9322  133.3902 H   0  0  0  0  0  0  0  0  0  0  0  0
  145.1394  152.4092  132.0652 H   0  0  0  0  0  0  0  0  0  0  0  0
  146.8371  152.9961  132.0652 H   0  0  0  0  0  0  0  0  0  0  0  0
  146.4070  154.2150  134.0230 H   0  0  0  0  0  0  0  0  0  0  0  0
  143.5982  154.1795  134.1722 H   0  0  0  0  0  0  0  0  0  0  0  0
  144.3915  152.5420  134.4777 H   0  0  0  0  0  0  0  0  0  0  0  0
  144.3920  155.0167  136.1482 H   0  0  0  0  0  0  0  0  0  0  0  0
  144.4185  153.2597  136.6014 H   0  0  0  0  0  0  0  0  0  0  0  0
  147.7120  154.4320  134.1230 H   0  0  0  0  0  0  0  0  0  0  0  0
  147.4567  159.0012  133.6627 H   0  0  0  0  0  0  0  0  0  0  0  0
  145.1350  160.6321  134.0379 H   0  0  0  0  0  0  0  0  0  0  0  0
  142.6226  160.5883  133.9389 H   0  0  0  0  0  0  0  0  0  0  0  0
  140.1679  160.1287  132.3538 H   0  0  0  0  0  0  0  0  0  0  0  0
  140.7215  158.9351  131.2232 H   0  0  0  0  0  0  0  0  0  0  0  0
  137.0619  159.3626  132.5086 H   0  0  0  0  0  0  0  0  0  0  0  0
  138.1020  159.8088  131.1137 H   0  0  0  0  0  0  0  0  0  0  0  0
  137.2230  158.2423  131.1137 H   0  0  0  0  0  0  0  0  0  0  0  0
  138.8377  159.2111  134.4194 H   0  0  0  0  0  0  0  0  0  0  0  0
  137.9638  157.7761  134.3926 H   0  0  0  0  0  0  0  0  0  0  0  0
  140.5609  157.2361  134.9907 H   0  0  0  0  0  0  0  0  0  0  0  0
  140.8224  155.9611  132.6421 H   0  0  0  0  0  0  0  0  0  0  0  0
  139.3600  155.5436  133.5325 H   0  0  0  0  0  0  0  0  0  0  0  0
  142.7418  156.3707  132.8419 H   0  0  0  0  0  0  0  0  0  0  0  0
  1  2  1  0
  2  3  1  0
  3  4  1  0
  4  5  1  0
  5  6  2  0
  5  7  1  0
  2  8  1  0
  8  9  2  0
  8 10  1  0
 10 11  1  0
 11 12  1  0
 12 13  1  0
 12 14  2  0
 11 15  2  0
 15 16  1  0
 16 17  2  0
 17 18  1  0
 18 19  2  0
 19 20  1  0
 20 21  1  0
 21 22  1  0
 22 23  1  6
 22 24  1  0
 24 25  1  0
 25 26  1  0
 26 27  1  0
 19 28  1  0
 28 29  2  0
 29 10  1  0
 29 16  1  0
 25 20  1  0
 27 22  1  0
  1 30  1  0
  1 31  1  0
  1 32  1  0
  2 33  1  1
  3 34  1  0
  3 35  1  0
  4 36  1  0
  4 37  1  0
 13 38  1  0
 15 39  1  0
 17 40  1  0
 18 41  1  0
 21 42  1  0
 21 43  1  0
 23 44  1  0
 23 45  1  0
 23 46  1  0
 24 47  1  0
 24 48  1  0
 25 49  1  1
 26 50  1  0
 26 51  1  0
 28 52  1  0
M  CHG  3   2   1   7  -1  13  -1
M  END
>  <UniqueID>  (66) 
66

>  <SMILES>  (66) 
C[N@H+](CCC(=O)[O-])C(=O)n1c(C([NH-])=O)cc2ccc(N3C[C@]4(C)C[C@H]3CO4)cc21

>  <Energy>  (66) 
131.96324591637938

>  <Genealogy>  (66) 
C[NH+](CCC(=O)[O-])C(=O)n1c(C([NH-])=O)cc2ccc(N3C[C@]4(C)C[C@H]3CO4)cc21 (protonated)
C[N@H+](CCC(=O)[O-])C(=O)n1c(C([NH-])=O)cc2ccc(N3C[C@]4(C)C[C@H]3CO4)cc21 (chirality)
C[N@H+](CCC(=O)[O-])C(=O)n1c(C([NH-])=O)cc2ccc(N3C[C@]4(C)C[C@H]3CO4)cc21 (3D coordinates assigned)
C[N@H+](CCC(=O)[O-])C(=O)n1c(C([NH-])=O)cc2ccc(N3C[C@]4(C)C[C@H]3CO4)cc21 (nonaromatic ring conformer: 131.96324591637938 kcal/mol)

>  <smiles>  (66) 
CN(CCC(=O)O)C(=O)n1c(C(N)=O)cc2ccc(N3C[C@]4(C)C[C@H]3CO4)cc21

>  <score_type>  (66) 
oracle

>  <origin>  (66) 
adg

>  <m_score__min__energy>  (66) 
-8.4499999999999993

>  <m_primary>  (66) 
energy

$$$$
66:0
     RDKit          3D

 42 43  0  0  0  0  0  0  0  0999 V2000
  142.6850  159.8710  132.6020 H   0  0  0  0  0  0  0  0  0  0  0  0
  142.9990  160.5070  133.3680 N   0  0  0  0  0  0  0  0  0  0  0  0
  144.3530  160.5110  133.8090 C   0  0  0  0  0  0  0  0  0  0  0  0
  144.7600  161.4540  134.5400 O   0  0  0  0  0  0  0  0  0  0  0  0
  145.2730  159.4080  133.4580 C   0  0  0  0  0  0  0  0  0  0  0  0
  146.6530  159.5660  133.3400 C   0  0  0  0  0  0  0  0  0  0  0  0
  147.2277  160.4992  133.4339 H   0  0  0  0  0  0  0  0  0  0  0  0
  147.1440  158.3060  133.0810 C   0  0  0  0  0  0  0  0  0  0  0  0
  148.4510  157.8790  132.8730 C   0  0  0  0  0  0  0  0  0  0  0  0
  149.2915  158.5874  132.9140 H   0  0  0  0  0  0  0  0  0  0  0  0
  148.6660  156.5160  132.6090 C   0  0  0  0  0  0  0  0  0  0  0  0
  149.6903  156.1466  132.4526 H   0  0  0  0  0  0  0  0  0  0  0  0
  147.5750  155.6110  132.5420 C   0  0  0  0  0  0  0  0  0  0  0  0
  147.8080  154.2090  132.2920 N   0  0  0  0  0  0  0  0  0  0  0  0
  148.4210  154.1130  131.4490 H   0  0  0  0  0  0  0  0  0  0  0  0
  146.9100  153.7180  132.0720 H   0  0  0  0  0  0  0  0  0  0  0  0
  148.4770  153.5590  133.4330 C   0  0  0  0  0  0  0  0  0  0  0  0
  149.0599  154.3172  133.9764 H   0  0  0  0  0  0  0  0  0  0  0  0
  147.6941  153.1140  134.0647 H   0  0  0  0  0  0  0  0  0  0  0  0
  149.4230  152.4270  133.0060 C   0  0  0  0  0  0  0  0  0  0  0  0
  150.3770  152.5292  133.5440 H   0  0  0  0  0  0  0  0  0  0  0  0
  148.9557  151.4608  133.2468 H   0  0  0  0  0  0  0  0  0  0  0  0
  149.6620  152.4860  131.6260 O   0  0  0  0  0  0  0  0  0  0  0  0
  150.6370  152.6300  131.5220 H   0  0  0  0  0  0  0  0  0  0  0  0
  146.2590  156.0870  132.7530 C   0  0  0  0  0  0  0  0  0  0  0  0
  145.3973  155.4061  132.6911 H   0  0  0  0  0  0  0  0  0  0  0  0
  146.0800  157.4430  133.0420 C   0  0  0  0  0  0  0  0  0  0  0  0
  144.9250  158.1030  133.2820 N   0  0  0  0  0  0  0  0  0  0  0  0
  143.6000  157.5440  133.2560 C   0  0  0  0  0  0  0  0  0  0  0  0
  142.8820  157.7140  132.2350 O   0  0  0  0  0  0  0  0  0  0  0  0
  141.0710  158.0780  134.8870 C   0  0  0  0  0  0  0  0  0  0  0  0
  140.5924  158.1716  133.9010 H   0  0  0  0  0  0  0  0  0  0  0  0
  140.7770  158.9880  135.8240 C   0  0  0  0  0  0  0  0  0  0  0  0
  140.0640  159.7849  135.5659 H   0  0  0  0  0  0  0  0  0  0  0  0
  143.0810  156.6910  134.3460 C   0  0  0  0  0  0  0  0  0  0  0  0
  143.6243  155.7567  134.5510 H   0  0  0  0  0  0  0  0  0  0  0  0
  142.0070  156.9520  135.1090 C   0  0  0  0  0  0  0  0  0  0  0  0
  141.8086  156.2822  135.9587 H   0  0  0  0  0  0  0  0  0  0  0  0
  141.3620  158.9850  137.2040 C   0  0  0  0  0  0  0  0  0  0  0  0
  140.5503  158.9892  137.9464 H   0  0  0  0  0  0  0  0  0  0  0  0
  141.9779  158.0837  137.3392 H   0  0  0  0  0  0  0  0  0  0  0  0
  141.9871  159.8799  137.3392 H   0  0  0  0  0  0  0  0  0  0  0  0
  1  2  1  0
  2  3  1  0
  3  4  2  0
  3  5  1  0
  5  6  2  0
  6  7  1  0
  6  8  1  0
  8  9  2  0
  9 10  1  0
  9 11  1  0
 11 12  1  0
 11 13  2  0
 13 14  1  0
 14 15  1  0
 14 16  1  0
 14 17  1  0
 17 18  1  0
 17 19  1  0
 17 20  1  0
 20 21  1  0
 20 22  1  0
 20 23  1  0
 23 24  1  0
 13 25  1  0
 25 26  1  0
 25 27  2  0
 27 28  1  0
 28 29  1  0
 29 30  2  0
 29 31  1  0
 31 32  1  0
 31 33  2  0
 33 34  1  0
 33 35  1  0
 35 36  1  0
 35 37  2  3
 37 38  1  0
 37 39  1  0
 39 40  1  0
 39 41  1  0
 39 42  1  0
 28  5  1  0
 27  8  1  0
M  CHG  2   2  -1  14   1
M  END
>  <UniqueID>  (67) 
67

>  <SMILES>  (67) 
CC=C/C=C\C(=O)n1c(C([NH-])=O)cc2ccc([NH2+]CCO)cc21

>  <Energy>  (67) 
79.25921738379026

>  <Genealogy>  (67) 
CC=CC=CC(=O)n1c(C([NH-])=O)cc2ccc([NH2+]CCO)cc21 (protonated)
CC=C/C=C\C(=O)n1c(C([NH-])=O)cc2ccc([NH2+]CCO)cc21 (cis-trans isomerization)
CC=C/C=C\C(=O)n1c(C([NH-])=O)cc2ccc([NH2+]CCO)cc21 (3D coordinates assigned)
CC=C/C=C\C(=O)n1c(C([NH-])=O)cc2ccc([NH2+]CCO)cc21 (optimized conformer: 79.25921738379026 kcal/mol)

>  <smiles>  (67) 
CC=CC=CC(=O)n1c(C(N)=O)cc2ccc(NCCO)cc21

>  <score_type>  (67) 
oracle

>  <origin>  (67) 
adg

>  <m_score__min__energy>  (67) 
-7.79

>  <m_primary>  (67) 
energy

$$$$
67:0
     RDKit          3D

 37 38  0  0  0  0  0  0  0  0999 V2000
  141.1840  159.4240  136.0050 C   0  0  0  0  0  0  0  0  0  0  0  0
  141.3260  158.8770  134.6420 N   0  0  2  0  0  0  0  0  0  0  0  0
  140.0840  158.2340  134.1540 C   0  0  0  0  0  0  0  0  0  0  0  0
  139.4930  158.9030  132.9410 C   0  0  0  0  0  0  0  0  0  0  0  0
  138.4040  158.4980  132.4590 O   0  0  0  0  0  0  0  0  0  0  0  0
  140.1460  159.9790  132.3520 O   0  0  0  0  0  0  0  0  0  0  0  0
  142.4590  157.9760  134.5480 C   0  0  0  0  0  0  0  0  0  0  0  0
  142.6640  157.1180  135.4500 O   0  0  0  0  0  0  0  0  0  0  0  0
  143.3690  158.0130  133.3810 C   0  0  0  0  0  0  0  0  0  0  0  0
  143.0160  157.5070  132.2830 O   0  0  0  0  0  0  0  0  0  0  0  0
  144.6610  158.6280  133.4890 N   0  0  0  0  0  0  0  0  0  0  0  0
  144.9470  159.9550  133.6010 C   0  0  0  0  0  0  0  0  0  0  0  0
  143.9580  161.0460  133.7290 C   0  0  0  0  0  0  0  0  0  0  0  0
  142.5760  160.8230  133.4620 N   0  0  0  0  0  0  0  0  0  0  0  0
  144.3360  162.1900  134.1020 O   0  0  0  0  0  0  0  0  0  0  0  0
  146.3270  160.1520  133.6260 C   0  0  0  0  0  0  0  0  0  0  0  0
  146.8780  158.8940  133.5200 C   0  0  0  0  0  0  0  0  0  0  0  0
  148.2120  158.4950  133.4920 C   0  0  0  0  0  0  0  0  0  0  0  0
  148.4860  157.1240  133.3570 C   0  0  0  0  0  0  0  0  0  0  0  0
  147.4320  156.1800  133.2270 C   0  0  0  0  0  0  0  0  0  0  0  0
  147.7370  154.7080  133.1250 C   0  0  0  0  0  0  0  0  0  0  0  0
  148.0470  154.1860  134.3700 F   0  0  0  0  0  0  0  0  0  0  0  0
  146.6470  154.0160  132.6250 F   0  0  0  0  0  0  0  0  0  0  0  0
  148.8150  154.5250  132.2790 F   0  0  0  0  0  0  0  0  0  0  0  0
  146.0920  156.6260  133.2800 C   0  0  0  0  0  0  0  0  0  0  0  0
  145.8500  157.9940  133.4350 C   0  0  0  0  0  0  0  0  0  0  0  0
  141.3894  158.6326  136.7409 H   0  0  0  0  0  0  0  0  0  0  0  0
  141.8977  160.2492  136.1451 H   0  0  0  0  0  0  0  0  0  0  0  0
  140.1590  159.7979  136.1451 H   0  0  0  0  0  0  0  0  0  0  0  0
  141.5030  159.7030  134.0220 H   0  0  0  0  0  0  0  0  0  0  0  0
  140.3114  157.1887  133.8980 H   0  0  0  0  0  0  0  0  0  0  0  0
  139.3408  158.3160  134.9608 H   0  0  0  0  0  0  0  0  0  0  0  0
  142.2710  160.0740  132.8020 H   0  0  0  0  0  0  0  0  0  0  0  0
  146.8623  161.1091  133.7121 H   0  0  0  0  0  0  0  0  0  0  0  0
  149.0258  159.2306  133.5731 H   0  0  0  0  0  0  0  0  0  0  0  0
  149.5297  156.7767  133.3518 H   0  0  0  0  0  0  0  0  0  0  0  0
  145.2583  155.9128  133.2011 H   0  0  0  0  0  0  0  0  0  0  0  0
  1  2  1  0
  2  3  1  0
  3  4  1  0
  4  5  2  0
  4  6  1  0
  2  7  1  0
  7  8  2  0
  7  9  1  0
  9 10  2  0
  9 11  1  0
 11 12  1  0
 12 13  1  0
 13 14  1  0
 13 15  2  0
 12 16  2  0
 16 17  1  0
 17 18  2  0
 18 19  1  0
 19 20  2  0
 20 21  1  0
 21 22  1  0
 21 23  1  0
 21 24  1  0
 20 25  1  0
 25 26  2  0
 26 11  1  0
 26 17  1  0
  1 27  1  0
  1 28  1  0
  1 29  1  0
  2 30  1  6
  3 31  1  0
  3 32  1  0
 14 33  1  0
 16 34  1  0
 18 35  1  0
 19 36  1  0
 25 37  1  0
M  CHG  3   2   1   6  -1  14  -1
M  END
>  <UniqueID>  (68) 
68

>  <SMILES>  (68) 
C[N@H+](CC(=O)[O-])C(=O)C(=O)n1c(C([NH-])=O)cc2ccc(C(F)(F)F)cc21

>  <Energy>  (68) 
80.96291696239437

>  <Genealogy>  (68) 
C[NH+](CC(=O)[O-])C(=O)C(=O)n1c(C([NH-])=O)cc2ccc(C(F)(F)F)cc21 (protonated)
C[N@H+](CC(=O)[O-])C(=O)C(=O)n1c(C([NH-])=O)cc2ccc(C(F)(F)F)cc21 (chirality)
C[N@H+](CC(=O)[O-])C(=O)C(=O)n1c(C([NH-])=O)cc2ccc(C(F)(F)F)cc21 (3D coordinates assigned)
C[N@H+](CC(=O)[O-])C(=O)C(=O)n1c(C([NH-])=O)cc2ccc(C(F)(F)F)cc21 (optimized conformer: 80.96291696239437 kcal/mol)

>  <smiles>  (68) 
CN(CC(=O)O)C(=O)C(=O)n1c(C(N)=O)cc2ccc(C(F)(F)F)cc21

>  <score_type>  (68) 
oracle

>  <origin>  (68) 
adg

>  <m_score__min__energy>  (68) 
-5.5700000000000003

>  <m_primary>  (68) 
energy

$$$$
68:0
     RDKit          3D

 51 52  0  0  0  0  0  0  0  0999 V2000
  139.7280  157.2670  135.9070 H   0  0  0  0  0  0  0  0  0  0  0  0
  139.2650  158.0600  135.4120 N   0  0  0  0  0  0  0  0  0  0  0  0
  139.7930  158.5710  134.1910 C   0  0  0  0  0  0  0  0  0  0  0  0
  139.0010  158.9780  133.3000 O   0  0  0  0  0  0  0  0  0  0  0  0
  141.2510  158.6830  133.9800 C   0  0  0  0  0  0  0  0  0  0  0  0
  141.8890  159.8820  133.6680 C   0  0  0  0  0  0  0  0  0  0  0  0
  141.4185  160.8575  133.4755 H   0  0  0  0  0  0  0  0  0  0  0  0
  143.2330  159.5860  133.6520 C   0  0  0  0  0  0  0  0  0  0  0  0
  144.3270  160.4070  133.4000 C   0  0  0  0  0  0  0  0  0  0  0  0
  144.1942  161.4775  133.1844 H   0  0  0  0  0  0  0  0  0  0  0  0
  145.6070  159.8280  133.4290 C   0  0  0  0  0  0  0  0  0  0  0  0
  146.4925  160.4570  133.2553 H   0  0  0  0  0  0  0  0  0  0  0  0
  145.7700  158.4400  133.6800 C   0  0  0  0  0  0  0  0  0  0  0  0
  147.1470  157.8310  133.7420 C   0  0  0  0  0  0  0  0  0  0  0  0
  147.1650  156.8450  134.7090 F   0  0  0  0  0  0  0  0  0  0  0  0
  148.0960  158.7880  134.0570 F   0  0  0  0  0  0  0  0  0  0  0  0
  147.4850  157.2730  132.5220 F   0  0  0  0  0  0  0  0  0  0  0  0
  144.6320  157.6450  133.9550 C   0  0  0  0  0  0  0  0  0  0  0  0
  144.7358  156.5725  134.1765 H   0  0  0  0  0  0  0  0  0  0  0  0
  143.3720  158.2530  133.9390 C   0  0  0  0  0  0  0  0  0  0  0  0
  142.1630  157.6840  134.1420 N   0  0  0  0  0  0  0  0  0  0  0  0
  141.9090  156.2900  134.3740 C   0  0  0  0  0  0  0  0  0  0  0  0
  141.3650  155.9230  135.4500 O   0  0  0  0  0  0  0  0  0  0  0  0
  142.2410  155.3510  133.3860 O   0  0  0  0  0  0  0  0  0  0  0  0
  143.2960  154.4300  133.4660 C   0  0  0  0  0  0  0  0  0  0  0  0
  143.1562  153.5193  134.0669 H   0  0  0  0  0  0  0  0  0  0  0  0
  144.4650  154.6130  132.8420 C   0  0  0  0  0  0  0  0  0  0  0  0
  144.6100  155.5209  132.2380 H   0  0  0  0  0  0  0  0  0  0  0  0
  145.5620  153.6390  132.9380 C   0  0  0  0  0  0  0  0  0  0  0  0
  145.4680  152.5460  132.3180 O   0  0  0  0  0  0  0  0  0  0  0  0
  146.7010  153.9250  133.7030 O   0  0  0  0  0  0  0  0  0  0  0  0
  147.8990  154.4670  133.1500 C   0  0  0  0  0  0  0  0  0  0  0  0
  148.4127  155.0678  133.9149 H   0  0  0  0  0  0  0  0  0  0  0  0
  147.6417  155.0978  132.2864 H   0  0  0  0  0  0  0  0  0  0  0  0
  148.8060  153.3640  132.6960 C   0  0  0  0  0  0  0  0  0  0  0  0
  149.9500  153.6520  132.2510 O   0  0  0  0  0  0  0  0  0  0  0  0
  148.3620  151.9980  132.7680 N   0  0  0  0  0  0  0  0  0  0  0  0
  147.3680  151.8460  133.0570 H   0  0  0  0  0  0  0  0  0  0  0  0
  149.2180  150.8160  132.5420 C   0  0  0  0  0  0  0  0  0  0  0  0
  149.8530  150.8770  131.1390 C   0  0  0  0  0  0  0  0  0  0  0  0
  150.9438  150.9818  131.2345 H   0  0  0  0  0  0  0  0  0  0  0  0
  149.6201  149.9523  130.5906 H   0  0  0  0  0  0  0  0  0  0  0  0
  149.4483  151.7404  130.5906 H   0  0  0  0  0  0  0  0  0  0  0  0
  150.3120  150.7390  133.6250 C   0  0  0  0  0  0  0  0  0  0  0  0
  149.8453  150.7718  134.6206 H   0  0  0  0  0  0  0  0  0  0  0  0
  150.8727  149.7992  133.5137 H   0  0  0  0  0  0  0  0  0  0  0  0
  150.9988  151.5910  133.5137 H   0  0  0  0  0  0  0  0  0  0  0  0
  148.3490  149.5440  132.6310 C   0  0  0  0  0  0  0  0  0  0  0  0
  148.1762  149.2911  133.6875 H   0  0  0  0  0  0  0  0  0  0  0  0
  147.3840  149.7237  132.1345 H   0  0  0  0  0  0  0  0  0  0  0  0
  148.8672  148.7104  132.1345 H   0  0  0  0  0  0  0  0  0  0  0  0
  1  2  1  0
  2  3  1  0
  3  4  2  0
  3  5  1  0
  5  6  2  0
  6  7  1  0
  6  8  1  0
  8  9  2  0
  9 10  1  0
  9 11  1  0
 11 12  1  0
 11 13  2  0
 13 14  1  0
 14 15  1  0
 14 16  1  0
 14 17  1  0
 13 18  1  0
 18 19  1  0
 18 20  2  0
 20 21  1  0
 21 22  1  0
 22 23  2  0
 22 24  1  0
 24 25  1  0
 25 26  1  0
 25 27  2  0
 27 28  1  0
 27 29  1  0
 29 30  2  0
 29 31  1  0
 31 32  1  0
 32 33  1  0
 32 34  1  0
 32 35  1  0
 35 36  2  0
 35 37  1  0
 37 38  1  0
 37 39  1  0
 39 40  1  0
 40 41  1  0
 40 42  1  0
 40 43  1  0
 39 44  1  0
 44 45  1  0
 44 46  1  0
 44 47  1  0
 39 48  1  0
 48 49  1  0
 48 50  1  0
 48 51  1  0
 21  5  1  0
 20  8  1  0
M  CHG  1   2  -1
M  END
>  <UniqueID>  (69) 
69

>  <SMILES>  (69) 
CC(C)(C)NC(=O)COC(=O)/C=C/OC(=O)n1c(C([NH-])=O)cc2ccc(C(F)(F)F)cc21

>  <Energy>  (69) 
86.07859195307107

>  <Genealogy>  (69) 
CC(C)(C)NC(=O)COC(=O)/C=C/OC(=O)n1c(C([NH-])=O)cc2ccc(C(F)(F)F)cc21 (protonated)
CC(C)(C)NC(=O)COC(=O)/C=C/OC(=O)n1c(C([NH-])=O)cc2ccc(C(F)(F)F)cc21 (cis-trans isomerization)
CC(C)(C)NC(=O)COC(=O)/C=C/OC(=O)n1c(C([NH-])=O)cc2ccc(C(F)(F)F)cc21 (3D coordinates assigned)
CC(C)(C)NC(=O)COC(=O)/C=C/OC(=O)n1c(C([NH-])=O)cc2ccc(C(F)(F)F)cc21 (optimized conformer: 86.07859195307107 kcal/mol)

>  <smiles>  (69) 
CC(C)(C)NC(=O)COC(=O)/C=C/OC(=O)n1c(C(N)=O)cc2ccc(C(F)(F)F)cc21

>  <score_type>  (69) 
oracle

>  <origin>  (69) 
adg

>  <m_score__min__energy>  (69) 
-7.8899999999999997

>  <m_primary>  (69) 
energy

$$$$
69:0
     RDKit          3D

 41 42  0  0  0  0  0  0  0  0999 V2000
  145.4200  160.9410  133.8220 C   0  0  0  0  0  0  0  0  0  0  0  0
  146.4670  159.9740  133.3580 C   0  0  0  0  0  0  0  0  0  0  0  0
  147.6020  160.4390  132.6480 C   0  0  0  0  0  0  0  0  0  0  0  0
  148.6020  159.5420  132.2320 C   0  0  0  0  0  0  0  0  0  0  0  0
  148.4540  158.1990  132.5660 C   0  0  0  0  0  0  0  0  0  0  0  0
  149.2360  157.1120  132.2460 C   0  0  0  0  0  0  0  0  0  0  0  0
  148.5860  156.0110  132.8060 C   0  0  0  0  0  0  0  0  0  0  0  0
  149.0410  154.6150  132.6190 C   0  0  0  0  0  0  0  0  0  0  0  0
  148.1860  153.4990  132.8720 N   0  0  0  0  0  0  0  0  0  0  0  0
  150.2270  154.4010  132.2500 O   0  0  0  0  0  0  0  0  0  0  0  0
  147.4580  156.4090  133.4570 N   0  0  0  0  0  0  0  0  0  0  0  0
  146.4410  155.5850  134.0370 C   0  0  0  0  0  0  0  0  0  0  0  0
  146.7240  154.8930  135.0520 O   0  0  0  0  0  0  0  0  0  0  0  0
  145.1130  155.5310  133.4700 N   0  0  0  0  0  0  0  0  0  0  0  0
  144.1230  156.5270  133.8940 C   0  0  0  0  0  0  0  0  0  0  0  0
  144.7850  154.6120  132.3660 C   0  0  0  0  0  0  0  0  0  0  0  0
  144.7230  153.1470  132.8420 C   0  0  2  0  0  0  0  0  0  0  0  0
  145.2560  153.0200  134.1360 O   0  0  0  0  0  0  0  0  0  0  0  0
  145.4580  152.2190  131.8620 C   0  0  0  0  0  0  0  0  0  0  0  0
  146.5940  151.6840  132.4800 O   0  0  0  0  0  0  0  0  0  0  0  0
  147.3800  157.7430  133.2820 C   0  0  0  0  0  0  0  0  0  0  0  0
  146.3540  158.6040  133.6810 C   0  0  0  0  0  0  0  0  0  0  0  0
  145.3997  160.9597  134.9217 H   0  0  0  0  0  0  0  0  0  0  0  0
  145.6553  161.9463  133.4424 H   0  0  0  0  0  0  0  0  0  0  0  0
  144.4366  160.6267  133.4424 H   0  0  0  0  0  0  0  0  0  0  0  0
  147.7016  161.5106  132.4204 H   0  0  0  0  0  0  0  0  0  0  0  0
  149.4744  159.8911  131.6602 H   0  0  0  0  0  0  0  0  0  0  0  0
  150.1738  157.1113  131.6711 H   0  0  0  0  0  0  0  0  0  0  0  0
  148.5130  152.5330  132.6500 H   0  0  0  0  0  0  0  0  0  0  0  0
  147.2860  153.6040  133.3860 H   0  0  0  0  0  0  0  0  0  0  0  0
  144.0869  156.5633  134.9928 H   0  0  0  0  0  0  0  0  0  0  0  0
  144.4069  157.5154  133.5036 H   0  0  0  0  0  0  0  0  0  0  0  0
  143.1329  156.2491  133.5036 H   0  0  0  0  0  0  0  0  0  0  0  0
  143.8071  154.8924  131.9475 H   0  0  0  0  0  0  0  0  0  0  0  0
  145.5768  154.6923  131.6067 H   0  0  0  0  0  0  0  0  0  0  0  0
  143.6656  152.8454  132.8721 H   0  0  0  0  0  0  0  0  0  0  0  0
  146.2450  153.0030  134.0510 H   0  0  0  0  0  0  0  0  0  0  0  0
  144.7870  151.4014  131.5598 H   0  0  0  0  0  0  0  0  0  0  0  0
  145.7628  152.7940  130.9752 H   0  0  0  0  0  0  0  0  0  0  0  0
  146.3350  151.4900  133.4180 H   0  0  0  0  0  0  0  0  0  0  0  0
  145.4811  158.2243  134.2323 H   0  0  0  0  0  0  0  0  0  0  0  0
  1  2  1  0
  2  3  2  0
  3  4  1  0
  4  5  2  0
  5  6  1  0
  6  7  2  0
  7  8  1  0
  8  9  1  0
  8 10  2  0
  7 11  1  0
 11 12  1  0
 12 13  2  0
 12 14  1  0
 14 15  1  0
 14 16  1  0
 16 17  1  0
 17 18  1  0
 17 19  1  0
 19 20  1  0
 11 21  1  0
 21 22  2  0
 22  2  1  0
 21  5  1  0
  1 23  1  0
  1 24  1  0
  1 25  1  0
  3 26  1  0
  4 27  1  0
  6 28  1  0
  9 29  1  0
  9 30  1  0
 15 31  1  0
 15 32  1  0
 15 33  1  0
 16 34  1  0
 16 35  1  0
 17 36  1  1
 18 37  1  0
 19 38  1  0
 19 39  1  0
 20 40  1  0
 22 41  1  0
M  END
>  <UniqueID>  (70) 
70

>  <SMILES>  (70) 
Cc1ccc2cc(C(N)=O)n(C(=O)N(C)C[C@H](O)CO)c2c1

>  <Energy>  (70) 
77.05057734210813

>  <Genealogy>  (70) 
Cc1ccc2cc(C(N)=O)n(C(=O)N(C)C[C@H](O)CO)c2c1 (chirality)
Cc1ccc2cc(C(N)=O)n(C(=O)N(C)C[C@H](O)CO)c2c1 (3D coordinates assigned)
Cc1ccc2cc(C(N)=O)n(C(=O)N(C)C[C@H](O)CO)c2c1 (optimized conformer: 77.05057734210813 kcal/mol)

>  <smiles>  (70) 
Cc1ccc2cc(C(N)=O)n(C(=O)N(C)CC(O)CO)c2c1

>  <score_type>  (70) 
oracle

>  <origin>  (70) 
adg

>  <m_score__min__energy>  (70) 
-5.7300000000000004

>  <m_primary>  (70) 
energy

$$$$
70:0
     RDKit          3D

 40 41  0  0  0  0  0  0  0  0999 V2000
  144.2360  152.8620  132.8890 C   0  0  0  0  0  0  0  0  0  0  0  0
  143.4780  153.2110  134.0940 N   0  0  0  0  0  0  0  0  0  0  0  0
  142.0680  152.8120  134.2210 C   0  0  0  0  0  0  0  0  0  0  0  0
  141.1710  153.9010  133.7250 C   0  0  0  0  0  0  0  0  0  0  0  0
  140.5970  153.7890  132.6110 O   0  0  0  0  0  0  0  0  0  0  0  0
  140.9680  155.0410  134.4920 O   0  0  0  0  0  0  0  0  0  0  0  0
  144.1180  153.9970  135.1200 C   0  0  0  0  0  0  0  0  0  0  0  0
  143.8960  153.7490  136.3370 O   0  0  0  0  0  0  0  0  0  0  0  0
  145.0090  155.0690  134.7810 N   0  0  0  0  0  0  0  0  0  0  0  0
  146.3500  155.1370  135.0010 C   0  0  0  0  0  0  0  0  0  0  0  0
  147.1850  154.0520  135.5580 C   0  0  0  0  0  0  0  0  0  0  0  0
  146.7670  153.3680  136.7370 N   0  0  0  0  0  0  0  0  0  0  0  0
  148.2710  153.7300  135.0080 O   0  0  0  0  0  0  0  0  0  0  0  0
  146.8460  156.3740  134.5900 C   0  0  0  0  0  0  0  0  0  0  0  0
  145.7530  157.0660  134.1180 C   0  0  0  0  0  0  0  0  0  0  0  0
  145.6600  158.3540  133.5990 C   0  0  0  0  0  0  0  0  0  0  0  0
  144.3920  158.8160  133.2080 C   0  0  0  0  0  0  0  0  0  0  0  0
  143.2430  157.9950  133.3440 C   0  0  0  0  0  0  0  0  0  0  0  0
  141.9630  158.5070  132.9290 N   0  0  0  0  0  0  0  0  0  0  0  0
  140.7080  158.1650  133.6030 C   0  0  0  0  0  0  0  0  0  0  0  0
  139.7120  157.6250  132.6220 C   0  0  0  0  0  0  0  0  0  0  0  0
  139.3310  156.2500  132.6630 N   0  0  0  0  0  0  0  0  0  0  0  0
  139.2330  158.3800  131.7330 O   0  0  0  0  0  0  0  0  0  0  0  0
  143.3800  156.6930  133.8840 C   0  0  0  0  0  0  0  0  0  0  0  0
  144.6570  156.2570  134.2500 C   0  0  0  0  0  0  0  0  0  0  0  0
  145.2001  152.4181  133.1780 H   0  0  0  0  0  0  0  0  0  0  0  0
  143.6628  152.1372  132.2923 H   0  0  0  0  0  0  0  0  0  0  0  0
  144.4140  153.7688  132.2923 H   0  0  0  0  0  0  0  0  0  0  0  0
  141.8943  151.9015  133.6287 H   0  0  0  0  0  0  0  0  0  0  0  0
  141.8453  152.6216  135.2813 H   0  0  0  0  0  0  0  0  0  0  0  0
  145.8730  153.6200  137.2150 H   0  0  0  0  0  0  0  0  0  0  0  0
  147.8884  156.7226  134.6336 H   0  0  0  0  0  0  0  0  0  0  0  0
  146.5515  158.9905  133.4981 H   0  0  0  0  0  0  0  0  0  0  0  0
  144.2887  159.8285  132.7906 H   0  0  0  0  0  0  0  0  0  0  0  0
  141.9330  159.1430  132.0990 H   0  0  0  0  0  0  0  0  0  0  0  0
  140.9066  157.4042  134.3723 H   0  0  0  0  0  0  0  0  0  0  0  0
  140.2942  159.0739  134.0642 H   0  0  0  0  0  0  0  0  0  0  0  0
  139.7370  155.6090  133.3800 H   0  0  0  0  0  0  0  0  0  0  0  0
  138.6470  155.8710  131.9720 H   0  0  0  0  0  0  0  0  0  0  0  0
  142.5035  156.0409  134.0123 H   0  0  0  0  0  0  0  0  0  0  0  0
  1  2  1  0
  2  3  1  0
  3  4  1  0
  4  5  2  0
  4  6  1  0
  2  7  1  0
  7  8  2  0
  7  9  1  0
  9 10  1  0
 10 11  1  0
 11 12  1  0
 11 13  2  0
 10 14  2  0
 14 15  1  0
 15 16  2  0
 16 17  1  0
 17 18  2  0
 18 19  1  0
 19 20  1  0
 20 21  1  0
 21 22  1  0
 21 23  2  0
 18 24  1  0
 24 25  2  0
 25  9  1  0
 25 15  1  0
  1 26  1  0
  1 27  1  0
  1 28  1  0
  3 29  1  0
  3 30  1  0
 12 31  1  0
 14 32  1  0
 16 33  1  0
 17 34  1  0
 19 35  1  0
 20 36  1  0
 20 37  1  0
 22 38  1  0
 22 39  1  0
 24 40  1  0
M  CHG  2   6  -1  12  -1
M  END
>  <UniqueID>  (71) 
71

>  <SMILES>  (71) 
CN(CC(=O)[O-])C(=O)n1c(C([NH-])=O)cc2ccc(NCC(N)=O)cc21

>  <Energy>  (71) 
72.89553987797905

>  <Genealogy>  (71) 
CN(CC(=O)[O-])C(=O)n1c(C([NH-])=O)cc2ccc(NCC(N)=O)cc21 (protonated)
CN(CC(=O)[O-])C(=O)n1c(C([NH-])=O)cc2ccc(NCC(N)=O)cc21 (3D coordinates assigned)
CN(CC(=O)[O-])C(=O)n1c(C([NH-])=O)cc2ccc(NCC(N)=O)cc21 (optimized conformer: 72.89553987797905 kcal/mol)

>  <smiles>  (71) 
CN(CC(=O)O)C(=O)n1c(C(N)=O)cc2ccc(NCC(N)=O)cc21

>  <score_type>  (71) 
oracle

>  <origin>  (71) 
adg

>  <m_score__min__energy>  (71) 
-6.7300000000000004

>  <m_primary>  (71) 
energy

$$$$
71:0
     RDKit          3D

 47 48  0  0  0  0  0  0  0  0999 V2000
  148.5500  155.9220  132.8970 C   0  0  0  0  0  0  0  0  0  0  0  0
  148.9250  157.3690  132.5920 C   0  0  0  0  0  0  0  0  0  0  0  0
  147.8030  158.2990  132.9670 C   0  0  0  0  0  0  0  0  0  0  0  0
  148.0330  159.6940  133.0580 C   0  0  0  0  0  0  0  0  0  0  0  0
  146.9820  160.5760  133.3630 C   0  0  0  0  0  0  0  0  0  0  0  0
  145.7140  160.0360  133.5560 C   0  0  0  0  0  0  0  0  0  0  0  0
  144.5180  160.6570  133.8340 C   0  0  0  0  0  0  0  0  0  0  0  0
  143.5780  159.6310  133.9050 C   0  0  0  0  0  0  0  0  0  0  0  0
  142.1820  159.8400  134.3230 C   0  0  0  0  0  0  0  0  0  0  0  0
  141.2310  160.3850  133.4130 N   0  0  0  0  0  0  0  0  0  0  0  0
  141.8080  159.4710  135.4680 O   0  0  0  0  0  0  0  0  0  0  0  0
  144.1630  158.4250  133.6580 N   0  0  0  0  0  0  0  0  0  0  0  0
  143.5270  157.1470  133.4740 C   0  0  0  0  0  0  0  0  0  0  0  0
  143.4520  156.6570  132.3150 O   0  0  0  0  0  0  0  0  0  0  0  0
  142.9370  156.3740  134.6340 C   0  0  0  0  0  0  0  0  0  0  0  0
  141.4890  156.6600  134.8560 N   0  0  2  0  0  0  0  0  0  0  0  0
  141.0930  156.1940  136.1990 C   0  0  0  0  0  0  0  0  0  0  0  0
  140.6230  156.0040  133.8420 C   0  0  0  0  0  0  0  0  0  0  0  0
  139.8050  157.0120  133.0010 C   0  0  2  0  0  0  0  0  0  0  0  0
  140.6510  157.9580  132.3940 O   0  0  0  0  0  0  0  0  0  0  0  0
  138.7430  157.7310  133.8540 C   0  0  0  0  0  0  0  0  0  0  0  0
  139.3410  158.6600  134.7180 O   0  0  0  0  0  0  0  0  0  0  0  0
  145.4740  158.6880  133.4650 C   0  0  0  0  0  0  0  0  0  0  0  0
  146.5030  157.7880  133.1660 C   0  0  0  0  0  0  0  0  0  0  0  0
  148.5119  155.7749  133.9865 H   0  0  0  0  0  0  0  0  0  0  0  0
  147.5644  155.6992  132.4622 H   0  0  0  0  0  0  0  0  0  0  0  0
  149.3033  155.2485  132.4622 H   0  0  0  0  0  0  0  0  0  0  0  0
  149.8241  157.6378  133.1660 H   0  0  0  0  0  0  0  0  0  0  0  0
  149.1184  157.4646  131.5134 H   0  0  0  0  0  0  0  0  0  0  0  0
  149.0447  160.0910  132.8882 H   0  0  0  0  0  0  0  0  0  0  0  0
  147.1562  161.6589  133.4465 H   0  0  0  0  0  0  0  0  0  0  0  0
  144.3416  161.7341  133.9710 H   0  0  0  0  0  0  0  0  0  0  0  0
  140.3050  159.9250  133.2660 H   0  0  0  0  0  0  0  0  0  0  0  0
  143.0541  155.2988  134.4332 H   0  0  0  0  0  0  0  0  0  0  0  0
  143.4745  156.6860  135.5416 H   0  0  0  0  0  0  0  0  0  0  0  0
  141.3050  157.6900  134.8430 H   0  0  0  0  0  0  0  0  0  0  0  0
  141.6058  156.7974  136.9625 H   0  0  0  0  0  0  0  0  0  0  0  0
  140.0046  156.3002  136.3178 H   0  0  0  0  0  0  0  0  0  0  0  0
  141.3734  155.1370  136.3178 H   0  0  0  0  0  0  0  0  0  0  0  0
  141.2603  155.4177  133.1637 H   0  0  0  0  0  0  0  0  0  0  0  0
  139.9058  155.3696  134.3835 H   0  0  0  0  0  0  0  0  0  0  0  0
  139.2869  156.4388  132.2180 H   0  0  0  0  0  0  0  0  0  0  0  0
  140.7420  158.7260  133.0170 H   0  0  0  0  0  0  0  0  0  0  0  0
  138.0422  158.2568  133.1889 H   0  0  0  0  0  0  0  0  0  0  0  0
  138.2102  156.9815  134.4576 H   0  0  0  0  0  0  0  0  0  0  0  0
  140.0940  159.0700  134.2170 H   0  0  0  0  0  0  0  0  0  0  0  0
  146.3033  156.7091  133.0881 H   0  0  0  0  0  0  0  0  0  0  0  0
  1  2  1  0
  2  3  1  0
  3  4  2  0
  4  5  1  0
  5  6  2  0
  6  7  1  0
  7  8  2  0
  8  9  1  0
  9 10  1  0
  9 11  2  0
  8 12  1  0
 12 13  1  0
 13 14  2  0
 13 15  1  0
 15 16  1  0
 16 17  1  0
 16 18  1  0
 18 19  1  0
 19 20  1  0
 19 21  1  0
 21 22  1  0
 12 23  1  0
 23 24  2  0
 24  3  1  0
 23  6  1  0
  1 25  1  0
  1 26  1  0
  1 27  1  0
  2 28  1  0
  2 29  1  0
  4 30  1  0
  5 31  1  0
  7 32  1  0
 10 33  1  0
 15 34  1  0
 15 35  1  0
 16 36  1  1
 17 37  1  0
 17 38  1  0
 17 39  1  0
 18 40  1  0
 18 41  1  0
 19 42  1  6
 20 43  1  0
 21 44  1  0
 21 45  1  0
 22 46  1  0
 24 47  1  0
M  CHG  2  10  -1  16   1
M  END
>  <UniqueID>  (72) 
72

>  <SMILES>  (72) 
CCc1ccc2cc(C([NH-])=O)n(C(=O)C[N@H+](C)C[C@H](O)CO)c2c1

>  <Energy>  (72) 
84.54435881078564

>  <Genealogy>  (72) 
CCc1ccc2cc(C([NH-])=O)n(C(=O)C[NH+](C)C[C@H](O)CO)c2c1 (protonated)
CCc1ccc2cc(C([NH-])=O)n(C(=O)C[N@H+](C)C[C@H](O)CO)c2c1 (chirality)
CCc1ccc2cc(C([NH-])=O)n(C(=O)C[N@H+](C)C[C@H](O)CO)c2c1 (3D coordinates assigned)
CCc1ccc2cc(C([NH-])=O)n(C(=O)C[N@H+](C)C[C@H](O)CO)c2c1 (optimized conformer: 84.54435881078564 kcal/mol)

>  <smiles>  (72) 
CCc1ccc2cc(C(N)=O)n(C(=O)CN(C)C[C@H](O)CO)c2c1

>  <score_type>  (72) 
oracle

>  <origin>  (72) 
adg

>  <m_score__min__energy>  (72) 
-4.9500000000000002

>  <m_primary>  (72) 
energy

$$$$
72:0
     RDKit          3D

 50 53  0  0  0  0  0  0  0  0999 V2000
  147.5490  155.9920  135.3060 C   0  0  0  0  0  0  0  0  0  0  0  0
  146.1560  155.3570  135.2090 C   0  0  2  0  0  0  0  0  0  0  0  0
  145.9940  154.1650  136.1140 C   0  0  0  0  0  0  0  0  0  0  0  0
  147.0000  153.4680  136.4130 O   0  0  0  0  0  0  0  0  0  0  0  0
  144.7460  153.8050  136.6140 O   0  0  0  0  0  0  0  0  0  0  0  0
  145.7940  155.0360  133.8100 N   0  0  0  0  0  0  0  0  0  0  0  0
  144.8300  155.7980  133.0390 C   0  0  0  0  0  0  0  0  0  0  0  0
  144.1640  155.2300  132.1310 O   0  0  0  0  0  0  0  0  0  0  0  0
  144.5820  157.1880  133.2920 N   0  0  0  0  0  0  0  0  0  0  0  0
  143.4750  157.7520  133.8530 C   0  0  0  0  0  0  0  0  0  0  0  0
  142.2410  157.0390  134.2420 C   0  0  0  0  0  0  0  0  0  0  0  0
  141.6620  156.0530  133.3950 N   0  0  0  0  0  0  0  0  0  0  0  0
  141.6960  157.2950  135.3500 O   0  0  0  0  0  0  0  0  0  0  0  0
  143.6860  159.1120  134.0830 C   0  0  0  0  0  0  0  0  0  0  0  0
  144.9830  159.3530  133.6890 C   0  0  0  0  0  0  0  0  0  0  0  0
  145.7370  160.5220  133.7390 C   0  0  0  0  0  0  0  0  0  0  0  0
  147.0720  160.4630  133.3030 C   0  0  0  0  0  0  0  0  0  0  0  0
  147.6260  159.2460  132.8310 C   0  0  0  0  0  0  0  0  0  0  0  0
  149.0590  159.1870  132.3960 C   0  0  0  0  0  0  0  0  0  0  0  0
  149.2730  160.0970  130.4770 I   0  0  0  0  0  0  0  0  0  0  0  0
  146.8350  158.0760  132.8160 C   0  0  0  0  0  0  0  0  0  0  0  0
  145.5060  158.1700  133.2370 C   0  0  0  0  0  0  0  0  0  0  0  0
  146.3410  153.8360  133.2220 C   0  0  0  0  0  0  0  0  0  0  0  0
  145.4850  152.8310  132.7310 C   0  0  0  0  0  0  0  0  0  0  0  0
  146.0120  151.6540  132.1880 C   0  0  0  0  0  0  0  0  0  0  0  0
  147.3960  151.4710  132.1330 C   0  0  0  0  0  0  0  0  0  0  0  0
  148.2560  152.4780  132.5900 C   0  0  0  0  0  0  0  0  0  0  0  0
  147.7340  153.6500  133.1440 C   0  0  0  0  0  0  0  0  0  0  0  0
  149.6380  152.2900  132.4860 O   0  0  0  0  0  0  0  0  0  0  0  0
  150.1830  151.2350  131.6900 C   0  0  0  0  0  0  0  0  0  0  0  0
  149.3230  149.9710  131.8270 C   0  0  0  0  0  0  0  0  0  0  0  0
  147.9440  150.2880  131.6270 O   0  0  0  0  0  0  0  0  0  0  0  0
  147.8223  156.1166  136.3642 H   0  0  0  0  0  0  0  0  0  0  0  0
  148.2843  155.3402  134.8117 H   0  0  0  0  0  0  0  0  0  0  0  0
  147.5393  156.9746  134.8117 H   0  0  0  0  0  0  0  0  0  0  0  0
  145.4459  156.1167  135.5675 H   0  0  0  0  0  0  0  0  0  0  0  0
  142.1030  155.7950  132.4830 H   0  0  0  0  0  0  0  0  0  0  0  0
  142.9681  159.8379  134.4924 H   0  0  0  0  0  0  0  0  0  0  0  0
  145.3018  161.4624  134.1081 H   0  0  0  0  0  0  0  0  0  0  0  0
  147.6934  161.3703  133.3282 H   0  0  0  0  0  0  0  0  0  0  0  0
  149.6841  159.7227  133.1256 H   0  0  0  0  0  0  0  0  0  0  0  0
  149.3765  158.1355  132.3359 H   0  0  0  0  0  0  0  0  0  0  0  0
  147.2544  157.1156  132.4815 H   0  0  0  0  0  0  0  0  0  0  0  0
  144.3950  152.9723  132.7747 H   0  0  0  0  0  0  0  0  0  0  0  0
  145.3376  150.8739  131.8050 H   0  0  0  0  0  0  0  0  0  0  0  0
  148.4134  154.4291  133.5200 H   0  0  0  0  0  0  0  0  0  0  0  0
  150.2035  151.5483  130.6358 H   0  0  0  0  0  0  0  0  0  0  0  0
  151.2038  151.0145  132.0355 H   0  0  0  0  0  0  0  0  0  0  0  0
  149.6390  149.2333  131.0747 H   0  0  0  0  0  0  0  0  0  0  0  0
  149.4530  149.5563  132.8375 H   0  0  0  0  0  0  0  0  0  0  0  0
  1  2  1  0
  2  3  1  0
  3  4  2  0
  3  5  1  0
  2  6  1  0
  6  7  1  0
  7  8  2  0
  7  9  1  0
  9 10  1  0
 10 11  1  0
 11 12  1  0
 11 13  2  0
 10 14  2  0
 14 15  1  0
 15 16  2  0
 16 17  1  0
 17 18  2  0
 18 19  1  0
 19 20  1  0
 18 21  1  0
 21 22  2  0
  6 23  1  0
 23 24  2  0
 24 25  1  0
 25 26  2  0
 26 27  1  0
 27 28  2  0
 27 29  1  0
 29 30  1  0
 30 31  1  0
 31 32  1  0
 22  9  1  0
 28 23  1  0
 22 15  1  0
 32 26  1  0
  1 33  1  0
  1 34  1  0
  1 35  1  0
  2 36  1  1
 12 37  1  0
 14 38  1  0
 16 39  1  0
 17 40  1  0
 19 41  1  0
 19 42  1  0
 21 43  1  0
 24 44  1  0
 25 45  1  0
 28 46  1  0
 30 47  1  0
 30 48  1  0
 31 49  1  0
 31 50  1  0
M  CHG  2   5  -1  12  -1
M  END
>  <UniqueID>  (73) 
73

>  <SMILES>  (73) 
C[C@H](C(=O)[O-])N(C(=O)n1c(C([NH-])=O)cc2ccc(CI)cc21)c1ccc2c(c1)OCCO2

>  <Energy>  (73) 
100.20267144813788

>  <Genealogy>  (73) 
CC(C(=O)[O-])N(C(=O)n1c(C([NH-])=O)cc2ccc(CI)cc21)c1ccc2c(c1)OCCO2 (protonated)
C[C@H](C(=O)[O-])N(C(=O)n1c(C([NH-])=O)cc2ccc(CI)cc21)c1ccc2c(c1)OCCO2 (chirality)
C[C@H](C(=O)[O-])N(C(=O)n1c(C([NH-])=O)cc2ccc(CI)cc21)c1ccc2c(c1)OCCO2 (3D coordinates assigned)
C[C@H](C(=O)[O-])N(C(=O)n1c(C([NH-])=O)cc2ccc(CI)cc21)c1ccc2c(c1)OCCO2 (nonaromatic ring conformer: 100.20267144813788 kcal/mol)

>  <smiles>  (73) 
CC(C(=O)O)N(C(=O)n1c(C(N)=O)cc2ccc(CI)cc21)c1ccc2c(c1)OCCO2

>  <score_type>  (73) 
oracle

>  <origin>  (73) 
adg

>  <m_score__min__energy>  (73) 
-9.3300000000000001

>  <m_primary>  (73) 
energy

$$$$
73:0
     RDKit          3D

 47 49  0  0  0  0  0  0  0  0999 V2000
  142.8410  157.1300  132.4520 C   0  0  0  0  0  0  0  0  0  0  0  0
  142.3060  157.7020  133.6910 N   0  0  0  0  0  0  0  0  0  0  0  0
  141.0270  157.2180  134.2310 C   0  0  0  0  0  0  0  0  0  0  0  0
  139.9610  157.1800  133.1640 C   0  0  0  0  0  0  0  0  0  0  0  0
  139.4030  156.0770  132.8960 O   0  0  0  0  0  0  0  0  0  0  0  0
  139.5750  158.3720  132.4390 N   0  0  0  0  0  0  0  0  0  0  0  0
  138.7280  158.2300  131.2450 C   0  0  0  0  0  0  0  0  0  0  0  0
  138.0070  159.5430  130.9300 C   0  0  0  0  0  0  0  0  0  0  0  0
  138.9130  160.6270  130.9040 O   0  0  0  0  0  0  0  0  0  0  0  0
  139.4500  160.8220  132.1960 C   0  0  0  0  0  0  0  0  0  0  0  0
  140.3150  159.6300  132.6110 C   0  0  0  0  0  0  0  0  0  0  0  0
  143.1280  158.6050  134.4620 C   0  0  0  0  0  0  0  0  0  0  0  0
  142.7090  159.0600  135.5590 O   0  0  0  0  0  0  0  0  0  0  0  0
  144.4130  159.0200  133.9760 N   0  0  0  0  0  0  0  0  0  0  0  0
  144.8240  160.2850  133.6770 C   0  0  0  0  0  0  0  0  0  0  0  0
  143.9820  161.4980  133.7460 C   0  0  0  0  0  0  0  0  0  0  0  0
  142.5630  161.3790  133.7030 N   0  0  0  0  0  0  0  0  0  0  0  0
  144.5070  162.6400  133.8300 O   0  0  0  0  0  0  0  0  0  0  0  0
  146.1630  160.2800  133.2890 C   0  0  0  0  0  0  0  0  0  0  0  0
  146.5580  158.9610  133.3600 C   0  0  0  0  0  0  0  0  0  0  0  0
  147.7920  158.3780  133.0950 C   0  0  0  0  0  0  0  0  0  0  0  0
  147.9170  156.9900  133.2760 C   0  0  0  0  0  0  0  0  0  0  0  0
  146.8240  156.2180  133.7590 C   0  0  0  0  0  0  0  0  0  0  0  0
  146.9610  154.7330  133.9800 C   0  0  0  0  0  0  0  0  0  0  0  0
  145.9300  154.0360  133.3730 F   0  0  0  0  0  0  0  0  0  0  0  0
  146.9420  154.4670  135.3380 F   0  0  0  0  0  0  0  0  0  0  0  0
  148.1570  154.2810  133.4470 F   0  0  0  0  0  0  0  0  0  0  0  0
  145.5790  156.8450  133.9890 C   0  0  0  0  0  0  0  0  0  0  0  0
  145.4810  158.2240  133.7750 C   0  0  0  0  0  0  0  0  0  0  0  0
  143.5737  156.3467  132.6962 H   0  0  0  0  0  0  0  0  0  0  0  0
  142.0195  156.6935  131.8650 H   0  0  0  0  0  0  0  0  0  0  0  0
  143.3314  157.9206  131.8650 H   0  0  0  0  0  0  0  0  0  0  0  0
  141.1684  156.2037  134.6326 H   0  0  0  0  0  0  0  0  0  0  0  0
  140.7010  157.9081  135.0231 H   0  0  0  0  0  0  0  0  0  0  0  0
  139.3576  157.9497  130.3876 H   0  0  0  0  0  0  0  0  0  0  0  0
  137.9747  157.4519  131.4379 H   0  0  0  0  0  0  0  0  0  0  0  0
  137.5195  159.4585  129.9475 H   0  0  0  0  0  0  0  0  0  0  0  0
  137.2612  159.7296  131.7167 H   0  0  0  0  0  0  0  0  0  0  0  0
  140.0670  161.7327  132.1963 H   0  0  0  0  0  0  0  0  0  0  0  0
  138.6202  160.9212  132.9112 H   0  0  0  0  0  0  0  0  0  0  0  0
  141.2206  159.6054  131.9871 H   0  0  0  0  0  0  0  0  0  0  0  0
  140.5874  159.7403  133.6710 H   0  0  0  0  0  0  0  0  0  0  0  0
  142.0610  160.7210  134.3390 H   0  0  0  0  0  0  0  0  0  0  0  0
  146.7742  161.1443  132.9899 H   0  0  0  0  0  0  0  0  0  0  0  0
  148.6441  158.9844  132.7542 H   0  0  0  0  0  0  0  0  0  0  0  0
  148.8709  156.4948  133.0415 H   0  0  0  0  0  0  0  0  0  0  0  0
  144.7088  156.2636  134.3277 H   0  0  0  0  0  0  0  0  0  0  0  0
  1  2  1  0
  2  3  1  0
  3  4  1  0
  4  5  2  0
  4  6  1  0
  6  7  1  0
  7  8  1  0
  8  9  1  0
  9 10  1  0
 10 11  1  0
  2 12  1  0
 12 13  2  0
 12 14  1  0
 14 15  1  0
 15 16  1  0
 16 17  1  0
 16 18  2  0
 15 19  2  0
 19 20  1  0
 20 21  2  0
 21 22  1  0
 22 23  2  0
 23 24  1  0
 24 25  1  0
 24 26  1  0
 24 27  1  0
 23 28  1  0
 28 29  2  0
 11  6  1  0
 29 14  1  0
 29 20  1  0
  1 30  1  0
  1 31  1  0
  1 32  1  0
  3 33  1  0
  3 34  1  0
  7 35  1  0
  7 36  1  0
  8 37  1  0
  8 38  1  0
 10 39  1  0
 10 40  1  0
 11 41  1  0
 11 42  1  0
 17 43  1  0
 19 44  1  0
 21 45  1  0
 22 46  1  0
 28 47  1  0
M  CHG  1  17  -1
M  END
>  <UniqueID>  (74) 
74

>  <SMILES>  (74) 
CN(CC(=O)N1CCOCC1)C(=O)n1c(C([NH-])=O)cc2ccc(C(F)(F)F)cc21

>  <Energy>  (74) 
87.77107607507195

>  <Genealogy>  (74) 
CN(CC(=O)N1CCOCC1)C(=O)n1c(C([NH-])=O)cc2ccc(C(F)(F)F)cc21 (protonated)
CN(CC(=O)N1CCOCC1)C(=O)n1c(C([NH-])=O)cc2ccc(C(F)(F)F)cc21 (3D coordinates assigned)
CN(CC(=O)N1CCOCC1)C(=O)n1c(C([NH-])=O)cc2ccc(C(F)(F)F)cc21 (nonaromatic ring conformer: 87.77107607507195 kcal/mol)

>  <smiles>  (74) 
CN(CC(=O)N1CCOCC1)C(=O)n1c(C(N)=O)cc2ccc(C(F)(F)F)cc21

>  <score_type>  (74) 
oracle

>  <origin>  (74) 
adg

>  <m_score__min__energy>  (74) 
-7.71

>  <m_primary>  (74) 
energy

$$$$
75:0
     RDKit          3D

 37 38  0  0  0  0  0  0  0  0999 V2000
  146.5170  160.9670  133.7030 N   0  0  0  0  0  0  0  0  0  0  0  0
  145.6150  159.9120  133.3650 C   0  0  0  0  0  0  0  0  0  0  0  0
  144.4150  160.1960  133.1060 O   0  0  0  0  0  0  0  0  0  0  0  0
  146.0670  158.5020  133.3350 C   0  0  0  0  0  0  0  0  0  0  0  0
  145.2240  157.4010  133.4910 C   0  0  0  0  0  0  0  0  0  0  0  0
  146.0350  156.2970  133.3490 C   0  0  0  0  0  0  0  0  0  0  0  0
  145.7240  154.9420  133.4210 C   0  0  0  0  0  0  0  0  0  0  0  0
  146.7700  154.0180  133.2560 C   0  0  0  0  0  0  0  0  0  0  0  0
  148.0970  154.4600  133.0320 C   0  0  0  0  0  0  0  0  0  0  0  0
  149.2010  153.4560  132.8670 C   0  0  0  0  0  0  0  0  0  0  0  0
  148.7600  152.4020  132.0870 F   0  0  0  0  0  0  0  0  0  0  0  0
  150.2880  154.0550  132.2550 F   0  0  0  0  0  0  0  0  0  0  0  0
  148.3740  155.8440  132.9680 C   0  0  0  0  0  0  0  0  0  0  0  0
  147.3100  156.7410  133.1170 C   0  0  0  0  0  0  0  0  0  0  0  0
  147.3430  158.0910  133.0890 N   0  0  0  0  0  0  0  0  0  0  0  0
  148.5130  158.9150  132.9530 C   0  0  0  0  0  0  0  0  0  0  0  0
  148.9430  159.5440  133.9570 O   0  0  0  0  0  0  0  0  0  0  0  0
  149.2820  158.9820  131.6940 C   0  0  0  0  0  0  0  0  0  0  0  0
  149.2690  160.0130  130.8230 C   0  0  0  0  0  0  0  0  0  0  0  0
  150.0800  159.9000  129.5570 C   0  0  0  0  0  0  0  0  0  0  0  0
  149.5980  160.7930  128.5900 O   0  0  0  0  0  0  0  0  0  0  0  0
  148.5010  161.2890  131.0670 C   0  0  0  0  0  0  0  0  0  0  0  0
  149.1830  162.3670  130.4940 O   0  0  0  0  0  0  0  0  0  0  0  0
  146.1740  161.9520  133.7540 H   0  0  0  0  0  0  0  0  0  0  0  0
  147.5330  160.7880  133.8580 H   0  0  0  0  0  0  0  0  0  0  0  0
  144.1415  157.4124  133.6860 H   0  0  0  0  0  0  0  0  0  0  0  0
  144.6924  154.6053  133.6013 H   0  0  0  0  0  0  0  0  0  0  0  0
  146.5559  152.9400  133.3013 H   0  0  0  0  0  0  0  0  0  0  0  0
  149.4979  153.0806  133.8574 H   0  0  0  0  0  0  0  0  0  0  0  0
  149.3995  156.2072  132.8053 H   0  0  0  0  0  0  0  0  0  0  0  0
  149.9184  158.1199  131.4454 H   0  0  0  0  0  0  0  0  0  0  0  0
  151.1315  160.1362  129.7772 H   0  0  0  0  0  0  0  0  0  0  0  0
  149.9979  158.8738  129.1695 H   0  0  0  0  0  0  0  0  0  0  0  0
  148.6740  161.0390  128.8580 H   0  0  0  0  0  0  0  0  0  0  0  0
  147.5018  161.2065  130.6146 H   0  0  0  0  0  0  0  0  0  0  0  0
  148.4038  161.4540  132.1502 H   0  0  0  0  0  0  0  0  0  0  0  0
  148.7770  162.5090  129.6000 H   0  0  0  0  0  0  0  0  0  0  0  0
  1  2  1  0
  2  3  2  0
  2  4  1  0
  4  5  2  0
  5  6  1  0
  6  7  2  0
  7  8  1  0
  8  9  2  0
  9 10  1  0
 10 11  1  0
 10 12  1  0
  9 13  1  0
 13 14  2  0
 14 15  1  0
 15 16  1  0
 16 17  2  0
 16 18  1  0
 18 19  2  3
 19 20  1  0
 20 21  1  0
 19 22  1  0
 22 23  1  0
 15  4  1  0
 14  6  1  0
  1 24  1  0
  1 25  1  0
  5 26  1  0
  7 27  1  0
  8 28  1  0
 10 29  1  0
 13 30  1  0
 18 31  1  0
 20 32  1  0
 20 33  1  0
 21 34  1  0
 22 35  1  0
 22 36  1  0
 23 37  1  0
M  END
>  <UniqueID>  (75) 
75

>  <SMILES>  (75) 
NC(=O)c1cc2ccc(C(F)F)cc2n1C(=O)C=C(CO)CO

>  <Energy>  (75) 
76.50322829794774

>  <Genealogy>  (75) 
NC(=O)c1cc2ccc(C(F)F)cc2n1C(=O)C=C(CO)CO (3D coordinates assigned)
NC(=O)c1cc2ccc(C(F)F)cc2n1C(=O)C=C(CO)CO (optimized conformer: 76.50322829794774 kcal/mol)

>  <smiles>  (75) 
NC(=O)c1cc2ccc(C(F)F)cc2n1C(=O)C=C(CO)CO

>  <score_type>  (75) 
oracle

>  <origin>  (75) 
adg

>  <m_score__min__energy>  (75) 
-7.0099999999999998

>  <m_primary>  (75) 
energy

$$$$
76:0
     RDKit          3D

 44 46  0  0  0  0  0  0  0  0999 V2000
  138.7280  146.9940  129.0630 C   0  0  0  0  0  0  0  0  0  0  0  0
  138.3760  147.4370  130.3680 O   0  0  0  0  0  0  0  0  0  0  0  0
  139.1200  148.3890  131.0720 C   0  0  0  0  0  0  0  0  0  0  0  0
  140.3840  148.0500  131.5590 C   0  0  0  0  0  0  0  0  0  0  0  0
  141.1230  148.9990  132.2690 C   0  0  0  0  0  0  0  0  0  0  0  0
  140.5990  150.2820  132.5000 C   0  0  0  0  0  0  0  0  0  0  0  0
  141.3930  151.2920  133.2490 C   0  0  0  0  0  0  0  0  0  0  0  0
  141.3500  151.2970  134.5100 O   0  0  0  0  0  0  0  0  0  0  0  0
  142.2110  152.2600  132.5690 N   0  0  0  0  0  0  0  0  0  0  0  0
  143.2020  153.0800  133.2650 C   0  0  0  0  0  0  0  0  0  0  0  0
  144.0520  153.8640  132.3030 C   0  0  0  0  0  0  0  0  0  0  0  0
  143.6070  154.1170  131.1520 O   0  0  0  0  0  0  0  0  0  0  0  0
  145.3140  154.4150  132.7060 N   0  0  0  0  0  0  0  0  0  0  0  0
  145.5700  155.6850  133.1230 C   0  0  0  0  0  0  0  0  0  0  0  0
  144.5770  156.7710  133.2300 C   0  0  0  0  0  0  0  0  0  0  0  0
  143.1950  156.4970  133.0060 N   0  0  0  0  0  0  0  0  0  0  0  0
  144.9320  157.9400  133.5280 O   0  0  0  0  0  0  0  0  0  0  0  0
  146.9200  155.8240  133.4520 C   0  0  0  0  0  0  0  0  0  0  0  0
  147.4800  154.5860  133.2210 C   0  0  0  0  0  0  0  0  0  0  0  0
  148.7890  154.1490  133.3870 C   0  0  0  0  0  0  0  0  0  0  0  0
  149.0800  152.8090  133.0730 C   0  0  0  0  0  0  0  0  0  0  0  0
  148.0660  151.9350  132.6020 C   0  0  0  0  0  0  0  0  0  0  0  0
  148.4110  150.5130  132.2440 C   0  0  0  0  0  0  0  0  0  0  0  0
  147.2570  149.7570  132.1270 F   0  0  0  0  0  0  0  0  0  0  0  0
  149.2040  149.9720  133.2400 F   0  0  0  0  0  0  0  0  0  0  0  0
  149.0940  150.4500  131.0420 F   0  0  0  0  0  0  0  0  0  0  0  0
  146.7540  152.4300  132.4150 C   0  0  0  0  0  0  0  0  0  0  0  0
  146.4900  153.7590  132.7610 C   0  0  0  0  0  0  0  0  0  0  0  0
  139.3260  150.5800  131.9790 C   0  0  0  0  0  0  0  0  0  0  0  0
  138.6280  149.6390  131.2890 N   0  0  0  0  0  0  0  0  0  0  0  0
  139.4107  146.1348  129.1391 H   0  0  0  0  0  0  0  0  0  0  0  0
  137.8196  146.6936  128.5203 H   0  0  0  0  0  0  0  0  0  0  0  0
  139.2260  147.8110  128.5203 H   0  0  0  0  0  0  0  0  0  0  0  0
  140.7942  147.0443  131.3850 H   0  0  0  0  0  0  0  0  0  0  0  0
  142.1220  148.7402  132.6499 H   0  0  0  0  0  0  0  0  0  0  0  0
  142.0580  152.4500  131.5530 H   0  0  0  0  0  0  0  0  0  0  0  0
  142.6790  153.7815  133.9316 H   0  0  0  0  0  0  0  0  0  0  0  0
  143.8610  152.4094  133.8360 H   0  0  0  0  0  0  0  0  0  0  0  0
  142.8870  155.9000  132.2060 H   0  0  0  0  0  0  0  0  0  0  0  0
  147.4281  156.7286  133.8175 H   0  0  0  0  0  0  0  0  0  0  0  0
  149.5724  154.8293  133.7523 H   0  0  0  0  0  0  0  0  0  0  0  0
  150.1069  152.4338  133.1941 H   0  0  0  0  0  0  0  0  0  0  0  0
  145.9612  151.7855  132.0075 H   0  0  0  0  0  0  0  0  0  0  0  0
  138.8933  151.5798  132.1309 H   0  0  0  0  0  0  0  0  0  0  0  0
  1  2  1  0
  2  3  1  0
  3  4  2  0
  4  5  1  0
  5  6  2  0
  6  7  1  0
  7  8  2  0
  7  9  1  0
  9 10  1  0
 10 11  1  0
 11 12  2  0
 11 13  1  0
 13 14  1  0
 14 15  1  0
 15 16  1  0
 15 17  2  0
 14 18  2  0
 18 19  1  0
 19 20  2  0
 20 21  1  0
 21 22  2  0
 22 23  1  0
 23 24  1  0
 23 25  1  0
 23 26  1  0
 22 27  1  0
 27 28  2  0
  6 29  1  0
 29 30  2  0
 30  3  1  0
 28 13  1  0
 28 19  1  0
  1 31  1  0
  1 32  1  0
  1 33  1  0
  4 34  1  0
  5 35  1  0
  9 36  1  0
 10 37  1  0
 10 38  1  0
 16 39  1  0
 18 40  1  0
 20 41  1  0
 21 42  1  0
 27 43  1  0
 29 44  1  0
M  CHG  1  16  -1
M  END
>  <UniqueID>  (76) 
76

>  <SMILES>  (76) 
COc1ccc(C(=O)NCC(=O)n2c(C([NH-])=O)cc3ccc(C(F)(F)F)cc32)cn1

>  <Energy>  (76) 
82.95148733515612

>  <Genealogy>  (76) 
COc1ccc(C(=O)NCC(=O)n2c(C([NH-])=O)cc3ccc(C(F)(F)F)cc32)cn1 (protonated)
COc1ccc(C(=O)NCC(=O)n2c(C([NH-])=O)cc3ccc(C(F)(F)F)cc32)cn1 (3D coordinates assigned)
COc1ccc(C(=O)NCC(=O)n2c(C([NH-])=O)cc3ccc(C(F)(F)F)cc32)cn1 (optimized conformer: 82.95148733515612 kcal/mol)

>  <smiles>  (76) 
COc1ccc(C(=O)NCC(=O)n2c(C(N)=O)cc3ccc(C(F)(F)F)cc32)cn1

>  <score_type>  (76) 
oracle

>  <origin>  (76) 
adg

>  <m_score__min__energy>  (76) 
-8.4299999999999997

>  <m_primary>  (76) 
energy

$$$$
77:0
     RDKit          3D

 45 46  0  0  0  0  0  0  0  0999 V2000
  137.8810  158.9890  131.4480 C   0  0  0  0  0  0  0  0  0  0  0  0
  139.0560  158.6690  132.2660 N   0  0  0  0  0  0  0  0  0  0  0  0
  140.3260  159.3610  132.0050 C   0  0  0  0  0  0  0  0  0  0  0  0
  140.9600  159.8240  133.3170 C   0  0  0  0  0  0  0  0  0  0  0  0
  141.6110  158.7540  133.9470 O   0  0  0  0  0  0  0  0  0  0  0  0
  138.9800  157.6610  133.3010 C   0  0  0  0  0  0  0  0  0  0  0  0
  138.7530  158.0100  134.4930 O   0  0  0  0  0  0  0  0  0  0  0  0
  139.1920  156.2000  132.9800 C   0  0  0  0  0  0  0  0  0  0  0  0
  140.4940  155.6380  133.5670 C   0  0  0  0  0  0  0  0  0  0  0  0
  140.7240  156.1790  134.9020 N   0  0  0  0  0  0  0  0  0  0  0  0
  141.7210  155.6790  135.7990 C   0  0  0  0  0  0  0  0  0  0  0  0
  142.7980  155.2020  135.3490 O   0  0  0  0  0  0  0  0  0  0  0  0
  141.4820  155.6920  137.2140 N   0  0  0  0  0  0  0  0  0  0  0  0
  141.2750  156.7740  138.0180 C   0  0  0  0  0  0  0  0  0  0  0  0
  141.4300  158.1890  137.6240 C   0  0  0  0  0  0  0  0  0  0  0  0
  140.6670  158.7410  136.5550 N   0  0  0  0  0  0  0  0  0  0  0  0
  142.2820  158.9110  138.2100 O   0  0  0  0  0  0  0  0  0  0  0  0
  140.9690  156.3670  139.3150 C   0  0  0  0  0  0  0  0  0  0  0  0
  141.0040  154.9920  139.2840 C   0  0  0  0  0  0  0  0  0  0  0  0
  140.7640  154.0660  140.2950 C   0  0  0  0  0  0  0  0  0  0  0  0
  140.8380  152.7010  139.9710 C   0  0  0  0  0  0  0  0  0  0  0  0
  141.1440  152.2890  138.6490 C   0  0  0  0  0  0  0  0  0  0  0  0
  141.2060  150.8290  138.3010 C   0  0  0  0  0  0  0  0  0  0  0  0
  139.9270  150.3040  138.2560 F   0  0  0  0  0  0  0  0  0  0  0  0
  141.9430  150.1540  139.2570 F   0  0  0  0  0  0  0  0  0  0  0  0
  141.3800  153.2570  137.6490 C   0  0  0  0  0  0  0  0  0  0  0  0
  141.3160  154.6100  138.0050 C   0  0  0  0  0  0  0  0  0  0  0  0
  137.0294  159.2209  132.1045 H   0  0  0  0  0  0  0  0  0  0  0  0
  138.1023  159.8596  130.8131 H   0  0  0  0  0  0  0  0  0  0  0  0
  137.6303  158.1264  130.8131 H   0  0  0  0  0  0  0  0  0  0  0  0
  141.0148  158.6733  131.4924 H   0  0  0  0  0  0  0  0  0  0  0  0
  140.1302  160.2401  131.3735 H   0  0  0  0  0  0  0  0  0  0  0  0
  141.6899  160.6196  133.1064 H   0  0  0  0  0  0  0  0  0  0  0  0
  140.1701  160.2037  133.9817 H   0  0  0  0  0  0  0  0  0  0  0  0
  140.9230  158.2770  134.4810 H   0  0  0  0  0  0  0  0  0  0  0  0
  138.3473  155.6256  133.3881 H   0  0  0  0  0  0  0  0  0  0  0  0
  139.2599  156.1108  131.8857 H   0  0  0  0  0  0  0  0  0  0  0  0
  140.4212  154.5421  133.6275 H   0  0  0  0  0  0  0  0  0  0  0  0
  141.3327  155.9253  132.9158 H   0  0  0  0  0  0  0  0  0  0  0  0
  140.4680  158.1830  135.6940 H   0  0  0  0  0  0  0  0  0  0  0  0
  140.7466  157.0089  140.1802 H   0  0  0  0  0  0  0  0  0  0  0  0
  140.5236  154.3932  141.3173 H   0  0  0  0  0  0  0  0  0  0  0  0
  140.6570  151.9452  140.7495 H   0  0  0  0  0  0  0  0  0  0  0  0
  141.6844  150.7137  137.3172 H   0  0  0  0  0  0  0  0  0  0  0  0
  141.6085  152.9561  136.6159 H   0  0  0  0  0  0  0  0  0  0  0  0
  1  2  1  0
  2  3  1  0
  3  4  1  0
  4  5  1  0
  2  6  1  0
  6  7  2  0
  6  8  1  0
  8  9  1  0
  9 10  1  0
 10 11  1  0
 11 12  2  0
 11 13  1  0
 13 14  1  0
 14 15  1  0
 15 16  1  0
 15 17  2  0
 14 18  2  0
 18 19  1  0
 19 20  2  0
 20 21  1  0
 21 22  2  0
 22 23  1  0
 23 24  1  0
 23 25  1  0
 22 26  1  0
 26 27  2  0
 27 13  1  0
 27 19  1  0
  1 28  1  0
  1 29  1  0
  1 30  1  0
  3 31  1  0
  3 32  1  0
  4 33  1  0
  4 34  1  0
  5 35  1  0
  8 36  1  0
  8 37  1  0
  9 38  1  0
  9 39  1  0
 16 40  1  0
 18 41  1  0
 20 42  1  0
 21 43  1  0
 23 44  1  0
 26 45  1  0
M  CHG  2  10  -1  16  -1
M  END
>  <UniqueID>  (77) 
77

>  <SMILES>  (77) 
CN(CCO)C(=O)CC[N-]C(=O)n1c(C([NH-])=O)cc2ccc(C(F)F)cc21

>  <Energy>  (77) 
76.57529145716957

>  <Genealogy>  (77) 
CN(CCO)C(=O)CC[N-]C(=O)n1c(C([NH-])=O)cc2ccc(C(F)F)cc21 (protonated)
CN(CCO)C(=O)CC[N-]C(=O)n1c(C([NH-])=O)cc2ccc(C(F)F)cc21 (3D coordinates assigned)
CN(CCO)C(=O)CC[N-]C(=O)n1c(C([NH-])=O)cc2ccc(C(F)F)cc21 (optimized conformer: 76.57529145716957 kcal/mol)

>  <smiles>  (77) 
CN(CCO)C(=O)CCNC(=O)n1c(C(N)=O)cc2ccc(C(F)F)cc21

>  <score_type>  (77) 
oracle

>  <origin>  (77) 
adg

>  <m_score__min__energy>  (77) 
-6.5099999999999998

>  <m_primary>  (77) 
energy

$$$$
78:0
     RDKit          3D

 44 45  0  0  0  0  0  0  0  0999 V2000
  138.1460  159.7580  130.9940 C   0  0  0  0  0  0  0  0  0  0  0  0
  139.1960  158.9240  131.7200 C   0  0  0  0  0  0  0  0  0  0  0  0
  138.7240  158.5380  133.0080 O   0  0  0  0  0  0  0  0  0  0  0  0
  139.1990  157.4180  133.6990 C   0  0  0  0  0  0  0  0  0  0  0  0
  139.3140  156.3030  133.1200 O   0  0  0  0  0  0  0  0  0  0  0  0
  139.5870  157.5510  135.1400 C   0  0  0  0  0  0  0  0  0  0  0  0
  140.2360  158.9130  135.4330 C   0  0  0  0  0  0  0  0  0  0  0  0
  141.7690  158.8640  135.5220 C   0  0  0  0  0  0  0  0  0  0  0  0
  142.3810  159.0990  134.2170 N   0  0  0  0  0  0  0  0  0  0  0  0
  142.7550  158.0660  133.2990 C   0  0  0  0  0  0  0  0  0  0  0  0
  142.0930  157.8910  132.2420 O   0  0  0  0  0  0  0  0  0  0  0  0
  143.8670  157.2050  133.6020 N   0  0  0  0  0  0  0  0  0  0  0  0
  143.8270  155.8790  133.9180 C   0  0  0  0  0  0  0  0  0  0  0  0
  142.6100  155.0930  134.1930 C   0  0  0  0  0  0  0  0  0  0  0  0
  141.4560  155.2060  133.3610 N   0  0  0  0  0  0  0  0  0  0  0  0
  142.5670  154.3530  135.2130 O   0  0  0  0  0  0  0  0  0  0  0  0
  145.1130  155.3530  134.0030 C   0  0  0  0  0  0  0  0  0  0  0  0
  145.9550  156.4090  133.7410 C   0  0  0  0  0  0  0  0  0  0  0  0
  147.3430  156.4440  133.6660 C   0  0  0  0  0  0  0  0  0  0  0  0
  147.9550  157.6620  133.3280 C   0  0  0  0  0  0  0  0  0  0  0  0
  147.1740  158.8210  133.0780 C   0  0  0  0  0  0  0  0  0  0  0  0
  147.8380  160.1050  132.6500 C   0  0  0  0  0  0  0  0  0  0  0  0
  147.3390  161.1770  133.3710 F   0  0  0  0  0  0  0  0  0  0  0  0
  149.1990  160.0090  132.8720 F   0  0  0  0  0  0  0  0  0  0  0  0
  147.6140  160.3460  131.3060 F   0  0  0  0  0  0  0  0  0  0  0  0
  145.7630  158.7360  133.1390 C   0  0  0  0  0  0  0  0  0  0  0  0
  145.1810  157.5150  133.5000 C   0  0  0  0  0  0  0  0  0  0  0  0
  137.5069  160.2656  131.7314 H   0  0  0  0  0  0  0  0  0  0  0  0
  138.6454  160.5083  130.3634 H   0  0  0  0  0  0  0  0  0  0  0  0
  137.5282  159.1017  130.3634 H   0  0  0  0  0  0  0  0  0  0  0  0
  139.4138  158.0221  131.1291 H   0  0  0  0  0  0  0  0  0  0  0  0
  140.1077  159.5273  131.8414 H   0  0  0  0  0  0  0  0  0  0  0  0
  138.6864  157.4444  135.7625 H   0  0  0  0  0  0  0  0  0  0  0  0
  140.3219  156.7655  135.3701 H   0  0  0  0  0  0  0  0  0  0  0  0
  139.9575  159.6099  134.6287 H   0  0  0  0  0  0  0  0  0  0  0  0
  139.8685  159.2374  136.4177 H   0  0  0  0  0  0  0  0  0  0  0  0
  142.1127  159.6379  136.2242 H   0  0  0  0  0  0  0  0  0  0  0  0
  142.0661  157.8642  135.8714 H   0  0  0  0  0  0  0  0  0  0  0  0
  140.6170  154.6120  133.5420 H   0  0  0  0  0  0  0  0  0  0  0  0
  141.4040  155.9320  132.6140 H   0  0  0  0  0  0  0  0  0  0  0  0
  145.3957  154.3147  134.2310 H   0  0  0  0  0  0  0  0  0  0  0  0
  147.9438  155.5444  133.8655 H   0  0  0  0  0  0  0  0  0  0  0  0
  149.0512  157.7187  133.2562 H   0  0  0  0  0  0  0  0  0  0  0  0
  145.1369  159.6104  132.9078 H   0  0  0  0  0  0  0  0  0  0  0  0
  1  2  1  0
  2  3  1  0
  3  4  1  0
  4  5  2  0
  4  6  1  0
  6  7  1  0
  7  8  1  0
  8  9  1  0
  9 10  1  0
 10 11  2  0
 10 12  1  0
 12 13  1  0
 13 14  1  0
 14 15  1  0
 14 16  2  0
 13 17  2  0
 17 18  1  0
 18 19  2  0
 19 20  1  0
 20 21  2  0
 21 22  1  0
 22 23  1  0
 22 24  1  0
 22 25  1  0
 21 26  1  0
 26 27  2  0
 27 12  1  0
 27 18  1  0
  1 28  1  0
  1 29  1  0
  1 30  1  0
  2 31  1  0
  2 32  1  0
  6 33  1  0
  6 34  1  0
  7 35  1  0
  7 36  1  0
  8 37  1  0
  8 38  1  0
 15 39  1  0
 15 40  1  0
 17 41  1  0
 19 42  1  0
 20 43  1  0
 26 44  1  0
M  CHG  1   9  -1
M  END
>  <UniqueID>  (78) 
78

>  <SMILES>  (78) 
CCOC(=O)CCC[N-]C(=O)n1c(C(N)=O)cc2ccc(C(F)(F)F)cc21

>  <Energy>  (78) 
73.9040012726178

>  <Genealogy>  (78) 
CCOC(=O)CCC[N-]C(=O)n1c(C(N)=O)cc2ccc(C(F)(F)F)cc21 (protonated)
CCOC(=O)CCC[N-]C(=O)n1c(C(N)=O)cc2ccc(C(F)(F)F)cc21 (3D coordinates assigned)
CCOC(=O)CCC[N-]C(=O)n1c(C(N)=O)cc2ccc(C(F)(F)F)cc21 (optimized conformer: 73.9040012726178 kcal/mol)

>  <smiles>  (78) 
CCOC(=O)CCCNC(=O)n1c(C(N)=O)cc2ccc(C(F)(F)F)cc21

>  <score_type>  (78) 
oracle

>  <origin>  (78) 
adg

>  <m_score__min__energy>  (78) 
-6.6200000000000001

>  <m_primary>  (78) 
energy

$$$$
79:0
     RDKit          3D

 38 39  0  0  0  0  0  0  0  0999 V2000
  139.8380  158.5700  134.9900 C   0  0  0  0  0  0  0  0  0  0  0  0
  140.5120  158.8060  133.7110 N   0  0  0  0  0  0  0  0  0  0  0  0
  139.8360  158.4900  132.4400 C   0  0  0  0  0  0  0  0  0  0  0  0
  139.4520  159.7630  131.6570 C   0  0  2  0  0  0  0  0  0  0  0  0
  139.2650  160.8440  132.5320 O   0  0  0  0  0  0  0  0  0  0  0  0
  138.1800  159.5690  130.8230 C   0  0  0  0  0  0  0  0  0  0  0  0
  137.1830  160.4610  131.2450 O   0  0  0  0  0  0  0  0  0  0  0  0
  141.8660  159.3010  133.7170 C   0  0  0  0  0  0  0  0  0  0  0  0
  142.1120  160.6960  133.7360 C   0  0  0  0  0  0  0  0  0  0  0  0
  143.4250  161.1950  133.7360 C   0  0  0  0  0  0  0  0  0  0  0  0
  144.4710  160.2770  133.7180 C   0  0  0  0  0  0  0  0  0  0  0  0
  145.8290  160.4870  133.7330 C   0  0  0  0  0  0  0  0  0  0  0  0
  146.4000  159.2150  133.7090 C   0  0  0  0  0  0  0  0  0  0  0  0
  147.8560  158.9680  133.6200 C   0  0  0  0  0  0  0  0  0  0  0  0
  148.4390  157.8150  134.2290 N   0  0  0  0  0  0  0  0  0  0  0  0
  148.6030  159.7930  133.0270 O   0  0  0  0  0  0  0  0  0  0  0  0
  145.4300  158.2570  133.6820 N   0  0  0  0  0  0  0  0  0  0  0  0
  145.6100  156.8300  133.7180 C   0  0  0  0  0  0  0  0  0  0  0  0
  145.1070  156.1010  132.8240 O   0  0  0  0  0  0  0  0  0  0  0  0
  146.3210  156.2380  134.7550 O   0  0  0  0  0  0  0  0  0  0  0  0
  144.2540  158.9240  133.6870 C   0  0  0  0  0  0  0  0  0  0  0  0
  142.9560  158.4000  133.7010 C   0  0  0  0  0  0  0  0  0  0  0  0
  140.5239  158.8102  135.8157 H   0  0  0  0  0  0  0  0  0  0  0  0
  138.9452  159.2090  135.0574 H   0  0  0  0  0  0  0  0  0  0  0  0
  139.5388  157.5136  135.0574 H   0  0  0  0  0  0  0  0  0  0  0  0
  140.5115  157.8821  131.8202 H   0  0  0  0  0  0  0  0  0  0  0  0
  138.9107  157.9433  132.6743 H   0  0  0  0  0  0  0  0  0  0  0  0
  140.2858  159.9746  130.9714 H   0  0  0  0  0  0  0  0  0  0  0  0
  138.3610  161.2120  132.3440 H   0  0  0  0  0  0  0  0  0  0  0  0
  138.4086  159.7546  129.7632 H   0  0  0  0  0  0  0  0  0  0  0  0
  137.8185  158.5385  130.9544 H   0  0  0  0  0  0  0  0  0  0  0  0
  137.6010  161.3610  131.2350 H   0  0  0  0  0  0  0  0  0  0  0  0
  141.2644  161.3970  133.7509 H   0  0  0  0  0  0  0  0  0  0  0  0
  143.6204  162.2774  133.7498 H   0  0  0  0  0  0  0  0  0  0  0  0
  146.3541  161.4533  133.7585 H   0  0  0  0  0  0  0  0  0  0  0  0
  149.4720  157.6680  134.1910 H   0  0  0  0  0  0  0  0  0  0  0  0
  147.8480  157.0810  134.6770 H   0  0  0  0  0  0  0  0  0  0  0  0
  142.7878  157.3129  133.6996 H   0  0  0  0  0  0  0  0  0  0  0  0
  1  2  1  0
  2  3  1  0
  3  4  1  0
  4  5  1  0
  4  6  1  0
  6  7  1  0
  2  8  1  0
  8  9  2  0
  9 10  1  0
 10 11  2  0
 11 12  1  0
 12 13  2  0
 13 14  1  0
 14 15  1  0
 14 16  2  0
 13 17  1  0
 17 18  1  0
 18 19  2  0
 18 20  1  0
 17 21  1  0
 21 22  2  0
 22  8  1  0
 21 11  1  0
  1 23  1  0
  1 24  1  0
  1 25  1  0
  3 26  1  0
  3 27  1  0
  4 28  1  6
  5 29  1  0
  6 30  1  0
  6 31  1  0
  7 32  1  0
  9 33  1  0
 10 34  1  0
 12 35  1  0
 15 36  1  0
 15 37  1  0
 22 38  1  0
M  CHG  1  20  -1
M  END
>  <UniqueID>  (79) 
79

>  <SMILES>  (79) 
CN(C[C@H](O)CO)c1ccc2cc(C(N)=O)n(C(=O)[O-])c2c1

>  <Energy>  (79) 
75.90444246303926

>  <Genealogy>  (79) 
CN(CC(O)CO)c1ccc2cc(C(N)=O)n(C(=O)[O-])c2c1 (protonated)
CN(C[C@H](O)CO)c1ccc2cc(C(N)=O)n(C(=O)[O-])c2c1 (chirality)
CN(C[C@H](O)CO)c1ccc2cc(C(N)=O)n(C(=O)[O-])c2c1 (3D coordinates assigned)
CN(C[C@H](O)CO)c1ccc2cc(C(N)=O)n(C(=O)[O-])c2c1 (optimized conformer: 75.90444246303926 kcal/mol)

>  <smiles>  (79) 
CN(CC(O)CO)c1ccc2cc(C(N)=O)n(C(=O)O)c2c1

>  <score_type>  (79) 
oracle

>  <origin>  (79) 
adg

>  <m_score__min__energy>  (79) 
-6.3200000000000003

>  <m_primary>  (79) 
energy

$$$$
80:0
     RDKit          3D

 37 38  0  0  0  0  0  0  0  0999 V2000
  149.3720  150.2280  135.9240 N   0  0  0  0  0  0  0  0  0  0  0  0
  149.7240  150.9190  134.7240 C   0  0  0  0  0  0  0  0  0  0  0  0
  150.5120  150.3770  133.9070 O   0  0  0  0  0  0  0  0  0  0  0  0
  149.1240  152.2270  134.3910 C   0  0  0  0  0  0  0  0  0  0  0  0
  149.1330  152.7680  133.1080 C   0  0  0  0  0  0  0  0  0  0  0  0
  148.4290  153.9480  133.2070 C   0  0  0  0  0  0  0  0  0  0  0  0
  148.1500  154.9070  132.2360 C   0  0  0  0  0  0  0  0  0  0  0  0
  147.4370  156.0530  132.6280 C   0  0  0  0  0  0  0  0  0  0  0  0
  147.0360  156.2270  133.9760 C   0  0  0  0  0  0  0  0  0  0  0  0
  146.2530  157.4520  134.3750 C   0  0  0  0  0  0  0  0  0  0  0  0
  145.9140  158.3330  133.1620 C   0  0  0  0  0  0  0  0  0  0  0  0
  146.7490  159.5880  133.1260 C   0  0  0  0  0  0  0  0  0  0  0  0
  146.2060  160.6770  133.2320 O   0  0  0  0  0  0  0  0  0  0  0  0
  148.2480  159.5140  133.0020 C   0  0  0  0  0  0  0  0  0  0  0  0
  148.7590  160.4610  131.9180 C   0  0  0  0  0  0  0  0  0  0  0  0
  147.7980  160.6120  130.9080 O   0  0  0  0  0  0  0  0  0  0  0  0
  147.3350  155.2310  134.9330 C   0  0  0  0  0  0  0  0  0  0  0  0
  148.0290  154.0890  134.5120 C   0  0  0  0  0  0  0  0  0  0  0  0
  148.4520  153.0390  135.2550 N   0  0  0  0  0  0  0  0  0  0  0  0
  148.3410  152.8930  136.6790 C   0  0  0  0  0  0  0  0  0  0  0  0
  147.2550  153.1460  137.2650 O   0  0  0  0  0  0  0  0  0  0  0  0
  149.4380  152.4820  137.4300 O   0  0  0  0  0  0  0  0  0  0  0  0
  149.7870  149.2920  136.1300 H   0  0  0  0  0  0  0  0  0  0  0  0
  148.6160  150.5840  136.5480 H   0  0  0  0  0  0  0  0  0  0  0  0
  149.6020  152.3439  132.2079 H   0  0  0  0  0  0  0  0  0  0  0  0
  148.4776  154.7716  131.1947 H   0  0  0  0  0  0  0  0  0  0  0  0
  147.1880  156.8218  131.8817 H   0  0  0  0  0  0  0  0  0  0  0  0
  145.3167  157.1346  134.8573 H   0  0  0  0  0  0  0  0  0  0  0  0
  146.8724  158.0439  135.0650 H   0  0  0  0  0  0  0  0  0  0  0  0
  146.0974  157.7576  132.2426 H   0  0  0  0  0  0  0  0  0  0  0  0
  144.8576  158.6292  133.2412 H   0  0  0  0  0  0  0  0  0  0  0  0
  148.7020  159.7919  133.9646 H   0  0  0  0  0  0  0  0  0  0  0  0
  148.5247  158.4859  132.7257 H   0  0  0  0  0  0  0  0  0  0  0  0
  148.9718  161.4430  132.3656 H   0  0  0  0  0  0  0  0  0  0  0  0
  149.6751  160.0393  131.4787 H   0  0  0  0  0  0  0  0  0  0  0  0
  147.0600  161.1360  131.3140 H   0  0  0  0  0  0  0  0  0  0  0  0
  147.0302  155.3495  135.9833 H   0  0  0  0  0  0  0  0  0  0  0  0
  1  2  1  0
  2  3  2  0
  2  4  1  0
  4  5  2  0
  5  6  1  0
  6  7  2  0
  7  8  1  0
  8  9  2  0
  9 10  1  0
 10 11  1  0
 11 12  1  0
 12 13  2  0
 12 14  1  0
 14 15  1  0
 15 16  1  0
  9 17  1  0
 17 18  2  0
 18 19  1  0
 19 20  1  0
 20 21  2  0
 20 22  1  0
 19  4  1  0
 18  6  1  0
  1 23  1  0
  1 24  1  0
  5 25  1  0
  7 26  1  0
  8 27  1  0
 10 28  1  0
 10 29  1  0
 11 30  1  0
 11 31  1  0
 14 32  1  0
 14 33  1  0
 15 34  1  0
 15 35  1  0
 16 36  1  0
 17 37  1  0
M  CHG  1  22  -1
M  END
>  <UniqueID>  (80) 
80

>  <SMILES>  (80) 
NC(=O)c1cc2ccc(CCC(=O)CCO)cc2n1C(=O)[O-]

>  <Energy>  (80) 
69.55987804661498

>  <Genealogy>  (80) 
NC(=O)c1cc2ccc(CCC(=O)CCO)cc2n1C(=O)[O-] (protonated)
NC(=O)c1cc2ccc(CCC(=O)CCO)cc2n1C(=O)[O-] (3D coordinates assigned)
NC(=O)c1cc2ccc(CCC(=O)CCO)cc2n1C(=O)[O-] (optimized conformer: 69.55987804661498 kcal/mol)

>  <smiles>  (80) 
NC(=O)c1cc2ccc(CCC(=O)CCO)cc2n1C(=O)O

>  <score_type>  (80) 
oracle

>  <origin>  (80) 
adg

>  <m_score__min__energy>  (80) 
-6.8200000000000003

>  <m_primary>  (80) 
energy

$$$$
81:0
     RDKit          3D

 37 39  0  0  0  0  0  0  0  0999 V2000
  140.4770  159.0040  136.7680 N   0  0  0  0  0  0  0  0  0  0  0  0
  139.9150  158.0400  135.8810 C   0  0  0  0  0  0  0  0  0  0  0  0
  138.7120  158.1550  135.5260 O   0  0  0  0  0  0  0  0  0  0  0  0
  140.7380  156.9060  135.4090 C   0  0  0  0  0  0  0  0  0  0  0  0
  141.8530  156.4250  136.0940 C   0  0  0  0  0  0  0  0  0  0  0  0
  142.2870  155.3380  135.3690 C   0  0  0  0  0  0  0  0  0  0  0  0
  143.3650  154.4870  135.5900 C   0  0  0  0  0  0  0  0  0  0  0  0
  143.5930  153.4580  134.6610 C   0  0  0  0  0  0  0  0  0  0  0  0
  142.7530  153.3060  133.5270 C   0  0  0  0  0  0  0  0  0  0  0  0
  142.9760  152.2260  132.5960 N   0  0  0  0  0  0  0  0  0  0  0  0
  142.6290  150.9240  133.1900 C   0  0  0  0  0  0  0  0  0  0  0  0
  141.4750  150.2660  132.4690 C   0  0  0  0  0  0  0  0  0  0  0  0
  141.6600  149.0280  131.8290 C   0  0  0  0  0  0  0  0  0  0  0  0
  140.6100  148.4350  131.1220 C   0  0  0  0  0  0  0  0  0  0  0  0
  139.3690  149.0730  131.0460 C   0  0  0  0  0  0  0  0  0  0  0  0
  138.3520  148.4970  130.3580 F   0  0  0  0  0  0  0  0  0  0  0  0
  139.1760  150.3070  131.6740 C   0  0  0  0  0  0  0  0  0  0  0  0
  140.2240  150.9060  132.3810 C   0  0  0  0  0  0  0  0  0  0  0  0
  140.0220  152.1090  132.9750 F   0  0  0  0  0  0  0  0  0  0  0  0
  141.6680  154.1930  133.3380 C   0  0  0  0  0  0  0  0  0  0  0  0
  141.4520  155.1940  134.2910 C   0  0  0  0  0  0  0  0  0  0  0  0
  140.4940  156.1460  134.3040 N   0  0  0  0  0  0  0  0  0  0  0  0
  139.4630  156.3340  133.3230 C   0  0  0  0  0  0  0  0  0  0  0  0
  138.7280  155.3700  132.9840 O   0  0  0  0  0  0  0  0  0  0  0  0
  139.2210  157.9010  132.5720 Cl  0  0  0  0  0  0  0  0  0  0  0  0
  139.8690  159.5660  137.4050 H   0  0  0  0  0  0  0  0  0  0  0  0
  142.2928  156.8285  137.0180 H   0  0  0  0  0  0  0  0  0  0  0  0
  144.0188  154.6158  136.4652 H   0  0  0  0  0  0  0  0  0  0  0  0
  144.4315  152.7627  134.8141 H   0  0  0  0  0  0  0  0  0  0  0  0
  142.3790  152.3780  131.7490 H   0  0  0  0  0  0  0  0  0  0  0  0
  143.9720  152.2170  132.2720 H   0  0  0  0  0  0  0  0  0  0  0  0
  143.5063  150.2627  133.1351 H   0  0  0  0  0  0  0  0  0  0  0  0
  142.3264  151.0949  134.2337 H   0  0  0  0  0  0  0  0  0  0  0  0
  142.6359  148.5235  131.8849 H   0  0  0  0  0  0  0  0  0  0  0  0
  140.7607  147.4653  130.6250 H   0  0  0  0  0  0  0  0  0  0  0  0
  138.1985  150.8077  131.6121 H   0  0  0  0  0  0  0  0  0  0  0  0
  141.0093  154.0981  132.4621 H   0  0  0  0  0  0  0  0  0  0  0  0
  1  2  1  0
  2  3  2  0
  2  4  1  0
  4  5  2  0
  5  6  1  0
  6  7  2  0
  7  8  1  0
  8  9  2  0
  9 10  1  0
 10 11  1  0
 11 12  1  0
 12 13  2  0
 13 14  1  0
 14 15  2  0
 15 16  1  0
 15 17  1  0
 17 18  2  0
 18 19  1  0
  9 20  1  0
 20 21  2  0
 21 22  1  0
 22 23  1  0
 23 24  2  0
 23 25  1  0
 22  4  1  0
 21  6  1  0
 18 12  1  0
  1 26  1  0
  5 27  1  0
  7 28  1  0
  8 29  1  0
 10 30  1  0
 10 31  1  0
 11 32  1  0
 11 33  1  0
 13 34  1  0
 14 35  1  0
 17 36  1  0
 20 37  1  0
M  CHG  2   1  -1  10   1
M  END
>  <UniqueID>  (81) 
81

>  <SMILES>  (81) 
[NH-]C(=O)c1cc2ccc([NH2+]Cc3ccc(F)cc3F)cc2n1C(=O)Cl

>  <Energy>  (81) 
79.77313721461468

>  <Genealogy>  (81) 
[NH-]C(=O)c1cc2ccc([NH2+]Cc3ccc(F)cc3F)cc2n1C(=O)Cl (protonated)
[NH-]C(=O)c1cc2ccc([NH2+]Cc3ccc(F)cc3F)cc2n1C(=O)Cl (3D coordinates assigned)
[NH-]C(=O)c1cc2ccc([NH2+]Cc3ccc(F)cc3F)cc2n1C(=O)Cl (optimized conformer: 79.77313721461468 kcal/mol)

>  <smiles>  (81) 
NC(=O)c1cc2ccc(NCc3ccc(F)cc3F)cc2n1C(=O)Cl

>  <score_type>  (81) 
oracle

>  <origin>  (81) 
adg

>  <m_score__min__energy>  (81) 
-8.4100000000000001

>  <m_primary>  (81) 
energy

$$$$
82:0
     RDKit          3D

 31 32  0  0  0  0  0  0  0  0999 V2000
  137.7260  160.1190  130.6510 C   0  0  0  0  0  0  0  0  0  0  0  0
  138.5270  159.0710  131.3470 C   0  0  0  0  0  0  0  0  0  0  0  0
  138.3820  157.8630  131.0200 O   0  0  0  0  0  0  0  0  0  0  0  0
  139.3890  159.4470  132.3850 O   0  0  0  0  0  0  0  0  0  0  0  0
  139.7180  158.6470  133.4880 C   0  0  0  0  0  0  0  0  0  0  0  0
  138.9220  158.5290  134.4580 O   0  0  0  0  0  0  0  0  0  0  0  0
  140.9750  157.9500  133.5100 N   0  0  0  0  0  0  0  0  0  0  0  0
  141.1850  156.6120  133.3580 C   0  0  0  0  0  0  0  0  0  0  0  0
  140.1370  155.5730  133.2970 C   0  0  0  0  0  0  0  0  0  0  0  0
  138.7740  155.9110  133.0370 N   0  0  0  0  0  0  0  0  0  0  0  0
  140.4410  154.3740  133.5320 O   0  0  0  0  0  0  0  0  0  0  0  0
  142.5470  156.3280  133.3150 C   0  0  0  0  0  0  0  0  0  0  0  0
  143.1750  157.5430  133.4610 C   0  0  0  0  0  0  0  0  0  0  0  0
  144.5320  157.8520  133.4700 C   0  0  0  0  0  0  0  0  0  0  0  0
  144.9010  159.2010  133.5950 C   0  0  0  0  0  0  0  0  0  0  0  0
  143.9130  160.2100  133.7100 C   0  0  0  0  0  0  0  0  0  0  0  0
  144.3190  161.6530  133.7880 C   0  0  0  0  0  0  0  0  0  0  0  0
  145.1230  161.8460  134.8960 F   0  0  0  0  0  0  0  0  0  0  0  0
  142.5440  159.8630  133.6790 C   0  0  0  0  0  0  0  0  0  0  0  0
  142.2050  158.5080  133.5760 C   0  0  0  0  0  0  0  0  0  0  0  0
  137.2352  160.7612  131.3971 H   0  0  0  0  0  0  0  0  0  0  0  0
  138.3896  160.7298  130.0213 H   0  0  0  0  0  0  0  0  0  0  0  0
  136.9624  159.6390  130.0213 H   0  0  0  0  0  0  0  0  0  0  0  0
  138.0540  155.1590  132.9570 H   0  0  0  0  0  0  0  0  0  0  0  0
  138.4620  156.9070  133.0080 H   0  0  0  0  0  0  0  0  0  0  0  0
  143.0199  155.3427  133.1908 H   0  0  0  0  0  0  0  0  0  0  0  0
  145.2930  157.0627  133.3818 H   0  0  0  0  0  0  0  0  0  0  0  0
  145.9659  159.4767  133.6037 H   0  0  0  0  0  0  0  0  0  0  0  0
  144.8749  161.9272  132.8793 H   0  0  0  0  0  0  0  0  0  0  0  0
  143.4210  162.2827  133.8723 H   0  0  0  0  0  0  0  0  0  0  0  0
  141.7644  160.6370  133.7343 H   0  0  0  0  0  0  0  0  0  0  0  0
  1  2  1  0
  2  3  2  0
  2  4  1  0
  4  5  1  0
  5  6  2  0
  5  7  1  0
  7  8  1  0
  8  9  1  0
  9 10  1  0
  9 11  2  0
  8 12  2  0
 12 13  1  0
 13 14  2  0
 14 15  1  0
 15 16  2  0
 16 17  1  0
 17 18  1  0
 16 19  1  0
 19 20  2  0
 20  7  1  0
 20 13  1  0
  1 21  1  0
  1 22  1  0
  1 23  1  0
 10 24  1  0
 10 25  1  0
 12 26  1  0
 14 27  1  0
 15 28  1  0
 17 29  1  0
 17 30  1  0
 19 31  1  0
M  END
>  <UniqueID>  (82) 
82

>  <SMILES>  (82) 
CC(=O)OC(=O)n1c(C(N)=O)cc2ccc(CF)cc21

>  <Energy>  (82) 
69.29560890492631

>  <Genealogy>  (82) 
CC(=O)OC(=O)n1c(C(N)=O)cc2ccc(CF)cc21 (3D coordinates assigned)
CC(=O)OC(=O)n1c(C(N)=O)cc2ccc(CF)cc21 (optimized conformer: 69.29560890492631 kcal/mol)

>  <smiles>  (82) 
CC(=O)OC(=O)n1c(C(N)=O)cc2ccc(CF)cc21

>  <score_type>  (82) 
oracle

>  <origin>  (82) 
adg

>  <m_score__min__energy>  (82) 
-5.9699999999999998

>  <m_primary>  (82) 
energy

$$$$
83:0
     RDKit          3D

 40 41  0  0  0  0  0  0  0  0999 V2000
  142.6900  160.5910  133.7150 N   0  0  0  0  0  0  0  0  0  0  0  0
  144.0690  160.9700  133.7300 C   0  0  0  0  0  0  0  0  0  0  0  0
  144.3670  162.1800  133.9170 O   0  0  0  0  0  0  0  0  0  0  0  0
  145.1360  159.9670  133.5100 C   0  0  0  0  0  0  0  0  0  0  0  0
  146.4950  160.2690  133.4330 C   0  0  0  0  0  0  0  0  0  0  0  0
  147.1310  159.0570  133.2870 C   0  0  0  0  0  0  0  0  0  0  0  0
  148.4860  158.7660  133.1480 C   0  0  0  0  0  0  0  0  0  0  0  0
  148.8580  157.4210  132.9840 C   0  0  0  0  0  0  0  0  0  0  0  0
  147.8740  156.4060  132.9550 C   0  0  0  0  0  0  0  0  0  0  0  0
  148.2660  155.0330  132.7750 C   0  0  0  0  0  0  0  0  0  0  0  0
  148.5930  153.8820  132.6250 C   0  0  0  0  0  0  0  0  0  0  0  0
  148.9900  152.4820  132.4430 C   0  0  0  0  0  0  0  0  0  0  0  0
  150.3710  152.3480  132.6300 O   0  0  0  0  0  0  0  0  0  0  0  0
  146.5110  156.7330  133.0980 C   0  0  0  0  0  0  0  0  0  0  0  0
  146.1710  158.0780  133.2800 C   0  0  0  0  0  0  0  0  0  0  0  0
  144.9430  158.6210  133.4220 N   0  0  0  0  0  0  0  0  0  0  0  0
  143.6860  157.9240  133.4120 C   0  0  0  0  0  0  0  0  0  0  0  0
  143.0180  157.8630  132.3440 O   0  0  0  0  0  0  0  0  0  0  0  0
  143.1170  157.3470  134.6830 C   0  0  1  0  0  0  0  0  0  0  0  0
  142.8520  158.3930  135.5800 O   0  0  0  0  0  0  0  0  0  0  0  0
  141.8180  156.5700  134.3930 C   0  0  0  0  0  0  0  0  0  0  0  0
  140.5530  157.3650  134.7520 C   0  0  0  0  0  0  0  0  0  0  0  0
  140.5420  158.7230  134.1210 C   0  0  0  0  0  0  0  0  0  0  0  0
  140.4850  158.8410  132.8690 O   0  0  0  0  0  0  0  0  0  0  0  0
  140.6220  159.8600  134.9160 O   0  0  0  0  0  0  0  0  0  0  0  0
  142.4000  159.5930  133.6300 H   0  0  0  0  0  0  0  0  0  0  0  0
  141.9490  161.3160  133.8350 H   0  0  0  0  0  0  0  0  0  0  0  0
  146.9603  161.2647  133.4791 H   0  0  0  0  0  0  0  0  0  0  0  0
  149.2419  159.5649  133.1661 H   0  0  0  0  0  0  0  0  0  0  0  0
  149.9204  157.1563  132.8776 H   0  0  0  0  0  0  0  0  0  0  0  0
  148.4606  151.8550  133.1755 H   0  0  0  0  0  0  0  0  0  0  0  0
  148.7310  152.1628  131.4227 H   0  0  0  0  0  0  0  0  0  0  0  0
  150.8070  152.9810  132.0020 H   0  0  0  0  0  0  0  0  0  0  0  0
  145.7361  155.9529  133.0674 H   0  0  0  0  0  0  0  0  0  0  0  0
  143.8472  156.6504  135.1207 H   0  0  0  0  0  0  0  0  0  0  0  0
  142.3950  159.1070  135.0630 H   0  0  0  0  0  0  0  0  0  0  0  0
  141.7868  156.3261  133.3208 H   0  0  0  0  0  0  0  0  0  0  0  0
  141.8279  155.6652  135.0185 H   0  0  0  0  0  0  0  0  0  0  0  0
  139.6721  156.8054  134.4044 H   0  0  0  0  0  0  0  0  0  0  0  0
  140.5361  157.4990  135.8437 H   0  0  0  0  0  0  0  0  0  0  0  0
  1  2  1  0
  2  3  2  0
  2  4  1  0
  4  5  2  0
  5  6  1  0
  6  7  2  0
  7  8  1  0
  8  9  2  0
  9 10  1  0
 10 11  3  0
 11 12  1  0
 12 13  1  0
  9 14  1  0
 14 15  2  0
 15 16  1  0
 16 17  1  0
 17 18  2  0
 17 19  1  0
 19 20  1  0
 19 21  1  0
 21 22  1  0
 22 23  1  0
 23 24  2  0
 23 25  1  0
 16  4  1  0
 15  6  1  0
  1 26  1  0
  1 27  1  0
  5 28  1  0
  7 29  1  0
  8 30  1  0
 12 31  1  0
 12 32  1  0
 13 33  1  0
 14 34  1  0
 19 35  1  1
 20 36  1  0
 21 37  1  0
 21 38  1  0
 22 39  1  0
 22 40  1  0
M  CHG  1  25  -1
M  END
>  <UniqueID>  (83) 
83

>  <SMILES>  (83) 
NC(=O)c1cc2ccc(C#CCO)cc2n1C(=O)[C@@H](O)CCC(=O)[O-]

>  <Energy>  (83) 
70.65313350142442

>  <Genealogy>  (83) 
NC(=O)c1cc2ccc(C#CCO)cc2n1C(=O)[C@@H](O)CCC(=O)[O-] (protonated)
NC(=O)c1cc2ccc(C#CCO)cc2n1C(=O)[C@@H](O)CCC(=O)[O-] (3D coordinates assigned)
NC(=O)c1cc2ccc(C#CCO)cc2n1C(=O)[C@@H](O)CCC(=O)[O-] (optimized conformer: 70.65313350142442 kcal/mol)

>  <smiles>  (83) 
NC(=O)c1cc2ccc(C#CCO)cc2n1C(=O)[C@@H](O)CCC(=O)O

>  <score_type>  (83) 
oracle

>  <origin>  (83) 
adg

>  <m_score__min__energy>  (83) 
-6.8799999999999999

>  <m_primary>  (83) 
energy

$$$$
84:0
     RDKit          3D

 42 43  0  0  0  0  0  0  0  0999 V2000
  144.3620  154.5010  131.2930 C   0  0  0  0  0  0  0  0  0  0  0  0
  145.1460  153.8400  132.3520 N   0  0  2  0  0  0  0  0  0  0  0  0
  144.4210  152.7060  132.9730 C   0  0  0  0  0  0  0  0  0  0  0  0
  143.0290  153.0660  133.5510 C   0  0  0  0  0  0  0  0  0  0  0  0
  141.8620  151.7220  133.3820 S   0  0  0  0  0  0  0  0  0  0  0  0
  142.6680  150.3450  132.5960 C   0  0  0  0  0  0  0  0  0  0  0  0
  141.3620  151.2960  134.7330 O   0  0  0  0  0  0  0  0  0  0  0  0
  140.7000  152.1640  132.5370 O   0  0  0  0  0  0  0  0  0  0  0  0
  145.6270  154.7730  133.3500 C   0  0  0  0  0  0  0  0  0  0  0  0
  145.1490  154.7770  134.5180 O   0  0  0  0  0  0  0  0  0  0  0  0
  146.7360  155.6340  133.0500 N   0  0  0  0  0  0  0  0  0  0  0  0
  148.0210  155.2790  132.7720 C   0  0  0  0  0  0  0  0  0  0  0  0
  148.5070  153.8990  132.5730 C   0  0  0  0  0  0  0  0  0  0  0  0
  147.5870  152.8110  132.5950 N   0  0  0  0  0  0  0  0  0  0  0  0
  149.7350  153.6670  132.4100 O   0  0  0  0  0  0  0  0  0  0  0  0
  148.8170  156.4150  132.6270 C   0  0  0  0  0  0  0  0  0  0  0  0
  147.9690  157.4820  132.8210 C   0  0  0  0  0  0  0  0  0  0  0  0
  148.2250  158.8500  132.8010 C   0  0  0  0  0  0  0  0  0  0  0  0
  147.1540  159.7250  133.0550 C   0  0  0  0  0  0  0  0  0  0  0  0
  145.8560  159.2200  133.3220 C   0  0  0  0  0  0  0  0  0  0  0  0
  144.7260  160.1700  133.5990 C   0  0  0  0  0  0  0  0  0  0  0  0
  145.1500  161.1570  134.4710 F   0  0  0  0  0  0  0  0  0  0  0  0
  143.6680  159.4830  134.1650 F   0  0  0  0  0  0  0  0  0  0  0  0
  145.6340  157.8240  133.3310 C   0  0  0  0  0  0  0  0  0  0  0  0
  146.7180  156.9820  133.0700 C   0  0  0  0  0  0  0  0  0  0  0  0
  143.5974  155.1457  131.7510 H   0  0  0  0  0  0  0  0  0  0  0  0
  145.0307  155.1120  130.6689 H   0  0  0  0  0  0  0  0  0  0  0  0
  143.8729  153.7386  130.6689 H   0  0  0  0  0  0  0  0  0  0  0  0
  145.9850  153.4280  131.8800 H   0  0  0  0  0  0  0  0  0  0  0  0
  144.2835  151.9273  132.2084 H   0  0  0  0  0  0  0  0  0  0  0  0
  145.0342  152.3738  133.8237 H   0  0  0  0  0  0  0  0  0  0  0  0
  143.1399  153.3073  134.6185 H   0  0  0  0  0  0  0  0  0  0  0  0
  142.6397  153.9255  132.9857 H   0  0  0  0  0  0  0  0  0  0  0  0
  143.0657  149.6656  133.3643 H   0  0  0  0  0  0  0  0  0  0  0  0
  141.9433  149.8052  131.9688 H   0  0  0  0  0  0  0  0  0  0  0  0
  143.4935  150.7126  131.9688 H   0  0  0  0  0  0  0  0  0  0  0  0
  146.9670  152.6160  131.7780 H   0  0  0  0  0  0  0  0  0  0  0  0
  149.8937  156.4508  132.4048 H   0  0  0  0  0  0  0  0  0  0  0  0
  149.2343  159.2348  132.5929 H   0  0  0  0  0  0  0  0  0  0  0  0
  147.3246  160.8117  133.0465 H   0  0  0  0  0  0  0  0  0  0  0  0
  144.4016  160.6298  132.6538 H   0  0  0  0  0  0  0  0  0  0  0  0
  144.6353  157.4119  133.5378 H   0  0  0  0  0  0  0  0  0  0  0  0
  1  2  1  0
  2  3  1  0
  3  4  1  0
  4  5  1  0
  5  6  1  0
  5  7  2  0
  5  8  2  0
  2  9  1  0
  9 10  2  0
  9 11  1  0
 11 12  1  0
 12 13  1  0
 13 14  1  0
 13 15  2  0
 12 16  2  0
 16 17  1  0
 17 18  2  0
 18 19  1  0
 19 20  2  0
 20 21  1  0
 21 22  1  0
 21 23  1  0
 20 24  1  0
 24 25  2  0
 25 11  1  0
 25 17  1  0
  1 26  1  0
  1 27  1  0
  1 28  1  0
  2 29  1  6
  3 30  1  0
  3 31  1  0
  4 32  1  0
  4 33  1  0
  6 34  1  0
  6 35  1  0
  6 36  1  0
 14 37  1  0
 16 38  1  0
 18 39  1  0
 19 40  1  0
 21 41  1  0
 24 42  1  0
M  CHG  2   2   1  14  -1
M  END
>  <UniqueID>  (84) 
84

>  <SMILES>  (84) 
C[N@H+](CCS(C)(=O)=O)C(=O)n1c(C([NH-])=O)cc2ccc(C(F)F)cc21

>  <Energy>  (84) 
79.52227522045908

>  <Genealogy>  (84) 
C[NH+](CCS(C)(=O)=O)C(=O)n1c(C([NH-])=O)cc2ccc(C(F)F)cc21 (protonated)
C[N@H+](CCS(C)(=O)=O)C(=O)n1c(C([NH-])=O)cc2ccc(C(F)F)cc21 (chirality)
C[N@H+](CCS(C)(=O)=O)C(=O)n1c(C([NH-])=O)cc2ccc(C(F)F)cc21 (3D coordinates assigned)
C[N@H+](CCS(C)(=O)=O)C(=O)n1c(C([NH-])=O)cc2ccc(C(F)F)cc21 (optimized conformer: 79.52227522045908 kcal/mol)

>  <smiles>  (84) 
CN(CCS(C)(=O)=O)C(=O)n1c(C(N)=O)cc2ccc(C(F)F)cc21

>  <score_type>  (84) 
oracle

>  <origin>  (84) 
adg

>  <m_score__min__energy>  (84) 
-6.5700000000000003

>  <m_primary>  (84) 
energy

$$$$
85:0
     RDKit          3D

 39 40  0  0  0  0  0  0  0  0999 V2000
  141.3640  156.0080  135.2890 C   0  0  0  0  0  0  0  0  0  0  0  0
  142.1770  156.8180  134.9210 C   0  0  0  0  0  0  0  0  0  0  0  0
  143.1510  157.7830  134.4800 C   0  0  0  0  0  0  0  0  0  0  0  0
  142.8220  159.1580  134.4540 C   0  0  0  0  0  0  0  0  0  0  0  0
  143.7720  160.1070  134.0420 C   0  0  0  0  0  0  0  0  0  0  0  0
  145.0260  159.6470  133.6470 C   0  0  0  0  0  0  0  0  0  0  0  0
  146.1400  160.3490  133.2460 C   0  0  0  0  0  0  0  0  0  0  0  0
  147.1120  159.3830  132.9980 C   0  0  0  0  0  0  0  0  0  0  0  0
  148.4730  159.7010  132.5190 C   0  0  0  0  0  0  0  0  0  0  0  0
  149.6180  159.0060  133.0160 N   0  0  0  0  0  0  0  0  0  0  0  0
  148.6250  160.5720  131.6220 O   0  0  0  0  0  0  0  0  0  0  0  0
  146.6250  158.1350  133.2410 N   0  0  0  0  0  0  0  0  0  0  0  0
  147.3550  156.8970  133.1980 C   0  0  0  0  0  0  0  0  0  0  0  0
  148.3650  156.7450  133.9380 O   0  0  0  0  0  0  0  0  0  0  0  0
  146.9860  155.8160  132.2190 C   0  0  0  0  0  0  0  0  0  0  0  0
  146.4660  154.5840  132.9190 C   0  0  0  0  0  0  0  0  0  0  0  0
  145.2240  154.4880  133.1220 O   0  0  0  0  0  0  0  0  0  0  0  0
  147.3460  153.5370  133.3920 N   0  0  0  0  0  0  0  0  0  0  0  0
  147.5590  152.3140  132.6100 C   0  0  0  0  0  0  0  0  0  0  0  0
  148.1080  153.7320  134.6310 C   0  0  0  0  0  0  0  0  0  0  0  0
  147.1810  154.0060  135.7720 C   0  0  0  0  0  0  0  0  0  0  0  0
  146.5670  155.1030  135.8380 O   0  0  0  0  0  0  0  0  0  0  0  0
  146.9670  153.0370  136.7450 O   0  0  0  0  0  0  0  0  0  0  0  0
  145.3460  158.3130  133.6450 C   0  0  0  0  0  0  0  0  0  0  0  0
  144.4310  157.3510  134.0830 C   0  0  0  0  0  0  0  0  0  0  0  0
  140.6220  155.2687  135.6249 H   0  0  0  0  0  0  0  0  0  0  0  0
  141.8170  159.4861  134.7579 H   0  0  0  0  0  0  0  0  0  0  0  0
  143.5330  161.1807  134.0316 H   0  0  0  0  0  0  0  0  0  0  0  0
  146.2409  161.4395  133.1434 H   0  0  0  0  0  0  0  0  0  0  0  0
  150.5750  159.2860  132.7070 H   0  0  0  0  0  0  0  0  0  0  0  0
  149.5180  158.1520  133.6090 H   0  0  0  0  0  0  0  0  0  0  0  0
  146.2067  156.1978  131.5431 H   0  0  0  0  0  0  0  0  0  0  0  0
  147.8906  155.5366  131.6589 H   0  0  0  0  0  0  0  0  0  0  0  0
  147.7071  151.4638  133.2921 H   0  0  0  0  0  0  0  0  0  0  0  0
  146.6800  152.1265  131.9758 H   0  0  0  0  0  0  0  0  0  0  0  0
  148.4496  152.4347  131.9758 H   0  0  0  0  0  0  0  0  0  0  0  0
  148.6898  152.8236  134.8461 H   0  0  0  0  0  0  0  0  0  0  0  0
  148.7837  154.5907  134.5044 H   0  0  0  0  0  0  0  0  0  0  0  0
  144.7035  156.2858  134.1165 H   0  0  0  0  0  0  0  0  0  0  0  0
  1  2  3  0
  2  3  1  0
  3  4  2  0
  4  5  1  0
  5  6  2  0
  6  7  1  0
  7  8  2  0
  8  9  1  0
  9 10  1  0
  9 11  2  0
  8 12  1  0
 12 13  1  0
 13 14  2  0
 13 15  1  0
 15 16  1  0
 16 17  2  0
 16 18  1  0
 18 19  1  0
 18 20  1  0
 20 21  1  0
 21 22  2  0
 21 23  1  0
 12 24  1  0
 24 25  2  0
 25  3  1  0
 24  6  1  0
  1 26  1  0
  4 27  1  0
  5 28  1  0
  7 29  1  0
 10 30  1  0
 10 31  1  0
 15 32  1  0
 15 33  1  0
 19 34  1  0
 19 35  1  0
 19 36  1  0
 20 37  1  0
 20 38  1  0
 25 39  1  0
M  CHG  1  23  -1
M  END
>  <UniqueID>  (85) 
85

>  <SMILES>  (85) 
C#Cc1ccc2cc(C(N)=O)n(C(=O)CC(=O)N(C)CC(=O)[O-])c2c1

>  <Energy>  (85) 
74.45194377630119

>  <Genealogy>  (85) 
C#Cc1ccc2cc(C(N)=O)n(C(=O)CC(=O)N(C)CC(=O)[O-])c2c1 (protonated)
C#Cc1ccc2cc(C(N)=O)n(C(=O)CC(=O)N(C)CC(=O)[O-])c2c1 (3D coordinates assigned)
C#Cc1ccc2cc(C(N)=O)n(C(=O)CC(=O)N(C)CC(=O)[O-])c2c1 (optimized conformer: 74.45194377630119 kcal/mol)

>  <smiles>  (85) 
C#Cc1ccc2cc(C(N)=O)n(C(=O)CC(=O)N(C)CC(=O)O)c2c1

>  <score_type>  (85) 
oracle

>  <origin>  (85) 
adg

>  <m_score__min__energy>  (85) 
-7.3700000000000001

>  <m_primary>  (85) 
energy

$$$$
86:0
     RDKit          3D

 53 55  0  0  0  0  0  0  0  0999 V2000
  139.4840  157.5030  134.7730 C   0  0  0  0  0  0  0  0  0  0  0  0
  140.3660  156.7450  133.7640 C   0  0  0  0  0  0  0  0  0  0  0  0
  141.4700  155.9550  134.4900 C   0  0  0  0  0  0  0  0  0  0  0  0
  139.4860  155.7620  132.9760 C   0  0  0  0  0  0  0  0  0  0  0  0
  140.9390  157.6530  132.8130 O   0  0  0  0  0  0  0  0  0  0  0  0
  140.5290  158.9710  132.5560 C   0  0  0  0  0  0  0  0  0  0  0  0
  140.0620  159.2960  131.4330 O   0  0  0  0  0  0  0  0  0  0  0  0
  140.6370  159.9730  133.5770 N   0  0  0  0  0  0  0  0  0  0  0  0
  141.8450  160.3490  134.3250 C   0  0  0  0  0  0  0  0  0  0  0  0
  143.0570  160.5410  133.4680 C   0  0  0  0  0  0  0  0  0  0  0  0
  143.7800  159.3530  133.9650 N   0  0  0  0  0  0  0  0  0  0  0  0
  144.9690  158.6350  133.6400 C   0  0  0  0  0  0  0  0  0  0  0  0
  146.1750  159.3350  133.4010 C   0  0  0  0  0  0  0  0  0  0  0  0
  147.3670  158.6360  133.1430 C   0  0  0  0  0  0  0  0  0  0  0  0
  147.3140  157.2450  133.1190 C   0  0  0  0  0  0  0  0  0  0  0  0
  148.3240  156.3230  132.9620 C   0  0  0  0  0  0  0  0  0  0  0  0
  147.7070  155.0790  133.0760 C   0  0  0  0  0  0  0  0  0  0  0  0
  148.4300  153.7940  132.9780 C   0  0  0  0  0  0  0  0  0  0  0  0
  147.9720  152.6280  133.6640 N   0  0  0  0  0  0  0  0  0  0  0  0
  149.4510  153.7130  132.2420 O   0  0  0  0  0  0  0  0  0  0  0  0
  146.3710  155.2240  133.2920 N   0  0  0  0  0  0  0  0  0  0  0  0
  145.4280  154.1900  133.6060 C   0  0  0  0  0  0  0  0  0  0  0  0
  145.3570  153.1790  132.8570 O   0  0  0  0  0  0  0  0  0  0  0  0
  144.5920  154.3010  134.8220 C   0  0  0  0  0  0  0  0  0  0  0  0
  144.9990  154.1140  136.0890 C   0  0  0  0  0  0  0  0  0  0  0  0
  146.3010  153.5670  136.5170 C   0  0  0  0  0  0  0  0  0  0  0  0
  147.3630  153.8400  135.8990 O   0  0  0  0  0  0  0  0  0  0  0  0
  146.3390  152.6520  137.5590 O   0  0  0  0  0  0  0  0  0  0  0  0
  146.1460  156.5560  133.3240 C   0  0  0  0  0  0  0  0  0  0  0  0
  144.9520  157.2270  133.6080 C   0  0  0  0  0  0  0  0  0  0  0  0
  142.6170  159.1850  134.8590 C   0  0  0  0  0  0  0  0  0  0  0  0
  139.7894  157.2405  135.7966 H   0  0  0  0  0  0  0  0  0  0  0  0
  139.6016  158.5862  134.6216 H   0  0  0  0  0  0  0  0  0  0  0  0
  138.4308  157.2239  134.6216 H   0  0  0  0  0  0  0  0  0  0  0  0
  141.3352  156.0515  135.5774 H   0  0  0  0  0  0  0  0  0  0  0  0
  141.4092  154.8941  134.2057 H   0  0  0  0  0  0  0  0  0  0  0  0
  142.4545  156.3549  134.2057 H   0  0  0  0  0  0  0  0  0  0  0  0
  138.9213  155.1312  133.6784 H   0  0  0  0  0  0  0  0  0  0  0  0
  138.7842  156.3246  132.3428 H   0  0  0  0  0  0  0  0  0  0  0  0
  140.1225  155.1265  132.3428 H   0  0  0  0  0  0  0  0  0  0  0  0
  141.4066  161.1369  134.9550 H   0  0  0  0  0  0  0  0  0  0  0  0
  142.8318  160.4836  132.3928 H   0  0  0  0  0  0  0  0  0  0  0  0
  143.5734  161.5099  133.5352 H   0  0  0  0  0  0  0  0  0  0  0  0
  146.1800  160.4349  133.4172 H   0  0  0  0  0  0  0  0  0  0  0  0
  148.3116  159.1710  132.9657 H   0  0  0  0  0  0  0  0  0  0  0  0
  149.3906  156.5252  132.7844 H   0  0  0  0  0  0  0  0  0  0  0  0
  148.5340  151.7490  133.6330 H   0  0  0  0  0  0  0  0  0  0  0  0
  147.0300  152.5980  134.1110 H   0  0  0  0  0  0  0  0  0  0  0  0
  143.5337  154.5622  134.6743 H   0  0  0  0  0  0  0  0  0  0  0  0
  144.2932  154.3960  136.8842 H   0  0  0  0  0  0  0  0  0  0  0  0
  144.0237  156.6694  133.8014 H   0  0  0  0  0  0  0  0  0  0  0  0
  142.0996  158.2260  134.7085 H   0  0  0  0  0  0  0  0  0  0  0  0
  142.8129  159.1649  135.9412 H   0  0  0  0  0  0  0  0  0  0  0  0
  1  2  1  0
  2  3  1  0
  2  4  1  0
  2  5  1  0
  5  6  1  0
  6  7  2  0
  6  8  1  0
  8  9  1  0
  9 10  1  0
 10 11  1  0
 11 12  1  0
 12 13  2  0
 13 14  1  0
 14 15  2  0
 15 16  1  0
 16 17  2  0
 17 18  1  0
 18 19  1  0
 18 20  2  0
 17 21  1  0
 21 22  1  0
 22 23  2  0
 22 24  1  0
 24 25  2  3
 25 26  1  0
 26 27  2  0
 26 28  1  0
 21 29  1  0
 29 30  2  0
 11 31  1  0
 31  9  1  0
 30 12  1  0
 29 15  1  0
  1 32  1  0
  1 33  1  0
  1 34  1  0
  3 35  1  0
  3 36  1  0
  3 37  1  0
  4 38  1  0
  4 39  1  0
  4 40  1  0
  9 41  1  0
 10 42  1  0
 10 43  1  0
 13 44  1  0
 14 45  1  0
 16 46  1  0
 19 47  1  0
 19 48  1  0
 24 49  1  0
 25 50  1  0
 30 51  1  0
 31 52  1  0
 31 53  1  0
M  CHG  2   8  -1  28  -1
M  END
>  <UniqueID>  (86) 
86

>  <SMILES>  (86) 
CC(C)(C)OC(=O)[N-]C1CN(c2ccc3cc(C(N)=O)n(C(=O)C=CC(=O)[O-])c3c2)C1

>  <Energy>  (86) 
138.64031758983177

>  <Genealogy>  (86) 
CC(C)(C)OC(=O)[N-]C1CN(c2ccc3cc(C(N)=O)n(C(=O)C=CC(=O)[O-])c3c2)C1 (protonated)
CC(C)(C)OC(=O)[N-]C1CN(c2ccc3cc(C(N)=O)n(C(=O)C=CC(=O)[O-])c3c2)C1 (3D coordinates assigned)
CC(C)(C)OC(=O)[N-]C1CN(c2ccc3cc(C(N)=O)n(C(=O)C=CC(=O)[O-])c3c2)C1 (nonaromatic ring conformer: 138.64031758983177 kcal/mol)

>  <smiles>  (86) 
CC(C)(C)OC(=O)NC1CN(c2ccc3cc(C(N)=O)n(C(=O)C=CC(=O)O)c3c2)C1

>  <score_type>  (86) 
oracle

>  <origin>  (86) 
adg

>  <m_score__min__energy>  (86) 
-8.5999999999999996

>  <m_primary>  (86) 
energy

$$$$
87:0
     RDKit          3D

 44 46  0  0  0  0  0  0  0  0999 V2000
  143.4800  155.4910  132.8780 N   0  0  0  0  0  0  0  0  0  0  0  0
  143.4740  154.3150  133.6830 C   0  0  0  0  0  0  0  0  0  0  0  0
  144.0850  154.3210  134.7850 O   0  0  0  0  0  0  0  0  0  0  0  0
  142.7660  153.0930  133.2450 C   0  0  0  0  0  0  0  0  0  0  0  0
  143.3840  151.8560  133.0700 C   0  0  0  0  0  0  0  0  0  0  0  0
  142.3840  151.0020  132.6580 C   0  0  0  0  0  0  0  0  0  0  0  0
  142.4320  149.6480  132.3430 C   0  0  0  0  0  0  0  0  0  0  0  0
  141.2370  149.0190  131.9530 C   0  0  0  0  0  0  0  0  0  0  0  0
  140.0250  149.7510  131.8900 C   0  0  0  0  0  0  0  0  0  0  0  0
  138.7480  149.0760  131.4780 C   0  0  0  0  0  0  0  0  0  0  0  0
  138.3100  149.5990  130.2760 F   0  0  0  0  0  0  0  0  0  0  0  0
  138.9650  147.7170  131.3320 F   0  0  0  0  0  0  0  0  0  0  0  0
  140.0150  151.1240  132.2210 C   0  0  0  0  0  0  0  0  0  0  0  0
  141.2210  151.7220  132.5970 C   0  0  0  0  0  0  0  0  0  0  0  0
  141.4400  153.0050  132.9440 N   0  0  0  0  0  0  0  0  0  0  0  0
  140.4550  154.0500  133.0130 C   0  0  0  0  0  0  0  0  0  0  0  0
  139.2350  153.7330  132.9670 O   0  0  0  0  0  0  0  0  0  0  0  0
  140.8250  155.4430  133.1940 N   0  0  2  0  0  0  0  0  0  0  0  0
  141.0500  155.7200  134.6370 C   0  0  0  0  0  0  0  0  0  0  0  0
  141.0270  157.2250  134.9900 C   0  0  0  0  0  0  0  0  0  0  0  0
  141.3600  158.0950  133.7700 C   0  0  2  0  0  0  0  0  0  0  0  0
  141.4010  159.5850  134.1560 C   0  0  0  0  0  0  0  0  0  0  0  0
  141.6290  160.3850  133.0280 O   0  0  0  0  0  0  0  0  0  0  0  0
  140.3420  157.8340  132.6360 C   0  0  0  0  0  0  0  0  0  0  0  0
  139.8340  156.3770  132.6130 C   0  0  0  0  0  0  0  0  0  0  0  0
  142.8470  155.5790  132.0520 H   0  0  0  0  0  0  0  0  0  0  0  0
  144.4452  151.6129  133.2274 H   0  0  0  0  0  0  0  0  0  0  0  0
  143.3764  149.0866  132.3974 H   0  0  0  0  0  0  0  0  0  0  0  0
  141.2425  147.9498  131.6946 H   0  0  0  0  0  0  0  0  0  0  0  0
  137.9856  149.2463  132.2524 H   0  0  0  0  0  0  0  0  0  0  0  0
  139.0830  151.7071  132.1838 H   0  0  0  0  0  0  0  0  0  0  0  0
  141.7310  155.5760  132.6830 H   0  0  0  0  0  0  0  0  0  0  0  0
  140.2618  155.2153  135.2149 H   0  0  0  0  0  0  0  0  0  0  0  0
  142.0547  155.3464  134.8840 H   0  0  0  0  0  0  0  0  0  0  0  0
  140.0241  157.4910  135.3555 H   0  0  0  0  0  0  0  0  0  0  0  0
  141.7876  157.4095  135.7630 H   0  0  0  0  0  0  0  0  0  0  0  0
  142.3600  157.8215  133.4024 H   0  0  0  0  0  0  0  0  0  0  0  0
  140.4393  159.8667  134.6095 H   0  0  0  0  0  0  0  0  0  0  0  0
  142.2219  159.7416  134.8712 H   0  0  0  0  0  0  0  0  0  0  0  0
  142.0890  159.8120  132.3610 H   0  0  0  0  0  0  0  0  0  0  0  0
  139.4810  158.5044  132.7752 H   0  0  0  0  0  0  0  0  0  0  0  0
  140.8544  158.0215  131.6809 H   0  0  0  0  0  0  0  0  0  0  0  0
  138.9021  156.3150  133.1942 H   0  0  0  0  0  0  0  0  0  0  0  0
  139.6644  156.0892  131.5650 H   0  0  0  0  0  0  0  0  0  0  0  0
  1  2  1  0
  2  3  2  0
  2  4  1  0
  4  5  2  0
  5  6  1  0
  6  7  2  0
  7  8  1  0
  8  9  2  0
  9 10  1  0
 10 11  1  0
 10 12  1  0
  9 13  1  0
 13 14  2  0
 14 15  1  0
 15 16  1  0
 16 17  2  0
 16 18  1  0
 18 19  1  0
 19 20  1  0
 20 21  1  0
 21 22  1  0
 22 23  1  0
 21 24  1  0
 24 25  1  0
 15  4  1  0
 25 18  1  0
 14  6  1  0
  1 26  1  0
  5 27  1  0
  7 28  1  0
  8 29  1  0
 10 30  1  0
 13 31  1  0
 18 32  1  6
 19 33  1  0
 19 34  1  0
 20 35  1  0
 20 36  1  0
 21 37  1  6
 22 38  1  0
 22 39  1  0
 23 40  1  0
 24 41  1  0
 24 42  1  0
 25 43  1  0
 25 44  1  0
M  CHG  2   1  -1  18   1
M  END
>  <UniqueID>  (87) 
87

>  <SMILES>  (87) 
[NH-]C(=O)c1cc2ccc(C(F)F)cc2n1C(=O)[NH+]1CCC(CO)CC1

>  <Energy>  (87) 
92.5919523185584

>  <Genealogy>  (87) 
[NH-]C(=O)c1cc2ccc(C(F)F)cc2n1C(=O)[NH+]1CCC(CO)CC1 (protonated)
[NH-]C(=O)c1cc2ccc(C(F)F)cc2n1C(=O)[NH+]1CCC(CO)CC1 (3D coordinates assigned)
[NH-]C(=O)c1cc2ccc(C(F)F)cc2n1C(=O)[NH+]1CCC(CO)CC1 (nonaromatic ring conformer: 92.5919523185584 kcal/mol)

>  <smiles>  (87) 
NC(=O)c1cc2ccc(C(F)F)cc2n1C(=O)N1CCC(CO)CC1

>  <score_type>  (87) 
oracle

>  <origin>  (87) 
adg

>  <m_score__min__energy>  (87) 
-6.8600000000000003

>  <m_primary>  (87) 
energy

$$$$
88:0
     RDKit          3D

 33 34  0  0  0  0  0  0  0  0999 V2000
  148.4800  158.0010  134.1360 N   0  0  0  0  0  0  0  0  0  0  0  0
  147.7930  158.9880  133.3630 C   0  0  0  0  0  0  0  0  0  0  0  0
  148.4460  159.6910  132.5480 O   0  0  0  0  0  0  0  0  0  0  0  0
  146.3290  159.1600  133.4870 C   0  0  0  0  0  0  0  0  0  0  0  0
  145.6840  160.3940  133.4200 C   0  0  0  0  0  0  0  0  0  0  0  0
  144.3590  160.1280  133.6790 C   0  0  0  0  0  0  0  0  0  0  0  0
  143.2700  160.9890  133.7320 C   0  0  0  0  0  0  0  0  0  0  0  0
  142.0060  160.4390  133.9990 C   0  0  0  0  0  0  0  0  0  0  0  0
  141.8500  159.0410  134.2010 C   0  0  0  0  0  0  0  0  0  0  0  0
  140.4850  158.4450  134.4890 C   0  0  1  0  0  0  0  0  0  0  0  0
  140.3820  156.9660  134.0470 C   0  0  0  0  0  0  0  0  0  0  0  0
  139.1160  156.6790  133.2310 C   0  0  0  0  0  0  0  0  0  0  0  0
  139.0960  157.4430  132.0780 F   0  0  0  0  0  0  0  0  0  0  0  0
  139.0920  155.3420  132.8770 F   0  0  0  0  0  0  0  0  0  0  0  0
  140.1510  158.6070  135.9480 C   0  0  0  0  0  0  0  0  0  0  0  0
  140.7800  159.4280  136.6690 O   0  0  0  0  0  0  0  0  0  0  0  0
  139.1020  157.8820  136.4990 O   0  0  0  0  0  0  0  0  0  0  0  0
  142.9850  158.1990  134.1390 C   0  0  0  0  0  0  0  0  0  0  0  0
  144.2340  158.7790  133.8900 C   0  0  0  0  0  0  0  0  0  0  0  0
  145.4370  158.1700  133.7750 N   0  0  0  0  0  0  0  0  0  0  0  0
  145.6970  156.7590  133.8620 C   0  0  0  0  0  0  0  0  0  0  0  0
  146.4240  156.3010  134.7830 O   0  0  0  0  0  0  0  0  0  0  0  0
  145.1350  155.8820  132.9430 O   0  0  0  0  0  0  0  0  0  0  0  0
  147.9830  157.4370  134.8590 H   0  0  0  0  0  0  0  0  0  0  0  0
  149.5070  157.8600  134.0110 H   0  0  0  0  0  0  0  0  0  0  0  0
  146.1380  161.3727  133.2056 H   0  0  0  0  0  0  0  0  0  0  0  0
  143.3943  162.0698  133.5696 H   0  0  0  0  0  0  0  0  0  0  0  0
  141.1266  161.0976  134.0524 H   0  0  0  0  0  0  0  0  0  0  0  0
  139.7446  158.9967  133.8912 H   0  0  0  0  0  0  0  0  0  0  0  0
  141.2603  156.7206  133.4319 H   0  0  0  0  0  0  0  0  0  0  0  0
  140.3376  156.3496  134.9570 H   0  0  0  0  0  0  0  0  0  0  0  0
  138.2394  156.9297  133.8464 H   0  0  0  0  0  0  0  0  0  0  0  0
  142.8880  157.1128  134.2833 H   0  0  0  0  0  0  0  0  0  0  0  0
  1  2  1  0
  2  3  2  0
  2  4  1  0
  4  5  2  0
  5  6  1  0
  6  7  2  0
  7  8  1  0
  8  9  2  0
  9 10  1  0
 10 11  1  0
 11 12  1  0
 12 13  1  0
 12 14  1  0
 10 15  1  0
 15 16  2  0
 15 17  1  0
  9 18  1  0
 18 19  2  0
 19 20  1  0
 20 21  1  0
 21 22  2  0
 21 23  1  0
 20  4  1  0
 19  6  1  0
  1 24  1  0
  1 25  1  0
  5 26  1  0
  7 27  1  0
  8 28  1  0
 10 29  1  6
 11 30  1  0
 11 31  1  0
 12 32  1  0
 18 33  1  0
M  CHG  2  17  -1  23  -1
M  END
>  <UniqueID>  (88) 
88

>  <SMILES>  (88) 
NC(=O)c1cc2ccc([C@@H](CC(F)F)C(=O)[O-])cc2n1C(=O)[O-]

>  <Energy>  (88) 
70.06075248042887

>  <Genealogy>  (88) 
NC(=O)c1cc2ccc(C(CC(F)F)C(=O)[O-])cc2n1C(=O)[O-] (protonated)
NC(=O)c1cc2ccc([C@@H](CC(F)F)C(=O)[O-])cc2n1C(=O)[O-] (chirality)
NC(=O)c1cc2ccc([C@@H](CC(F)F)C(=O)[O-])cc2n1C(=O)[O-] (3D coordinates assigned)
NC(=O)c1cc2ccc([C@@H](CC(F)F)C(=O)[O-])cc2n1C(=O)[O-] (optimized conformer: 70.06075248042887 kcal/mol)

>  <smiles>  (88) 
NC(=O)c1cc2ccc(C(CC(F)F)C(=O)O)cc2n1C(=O)O

>  <score_type>  (88) 
oracle

>  <origin>  (88) 
adg

>  <m_score__min__energy>  (88) 
-6.4100000000000001

>  <m_primary>  (88) 
energy

$$$$
89:0
     RDKit          3D

 43 44  0  0  0  0  0  0  0  0999 V2000
  143.6750  155.5850  134.7920 C   0  0  0  0  0  0  0  0  0  0  0  0
  143.1940  156.9570  134.5900 N   0  0  0  0  0  0  0  0  0  0  0  0
  142.2760  157.5710  135.5610 C   0  0  0  0  0  0  0  0  0  0  0  0
  140.8940  157.6510  134.9910 C   0  0  0  0  0  0  0  0  0  0  0  0
  139.9260  157.1540  135.6310 O   0  0  0  0  0  0  0  0  0  0  0  0
  140.6700  158.3350  133.7520 N   0  0  0  0  0  0  0  0  0  0  0  0
  139.3560  158.4250  133.1200 C   0  0  0  0  0  0  0  0  0  0  0  0
  139.4730  158.9390  131.6800 C   0  0  0  0  0  0  0  0  0  0  0  0
  140.6300  159.7070  131.5090 O   0  0  0  0  0  0  0  0  0  0  0  0
  143.6000  157.6720  133.4050 C   0  0  0  0  0  0  0  0  0  0  0  0
  142.8790  157.6420  132.3700 O   0  0  0  0  0  0  0  0  0  0  0  0
  144.8300  158.4120  133.3800 N   0  0  0  0  0  0  0  0  0  0  0  0
  144.9910  159.7630  133.4220 C   0  0  0  0  0  0  0  0  0  0  0  0
  143.9160  160.7580  133.6250 C   0  0  0  0  0  0  0  0  0  0  0  0
  142.5580  160.4430  133.3240 N   0  0  0  0  0  0  0  0  0  0  0  0
  144.1970  161.8970  134.0900 O   0  0  0  0  0  0  0  0  0  0  0  0
  146.3410  160.0930  133.2930 C   0  0  0  0  0  0  0  0  0  0  0  0
  147.0010  158.8900  133.1620 C   0  0  0  0  0  0  0  0  0  0  0  0
  148.3550  158.6210  132.9890 C   0  0  0  0  0  0  0  0  0  0  0  0
  148.7500  157.2780  132.8580 C   0  0  0  0  0  0  0  0  0  0  0  0
  147.7870  156.2360  132.8890 C   0  0  0  0  0  0  0  0  0  0  0  0
  148.2110  154.8030  132.7560 C   0  0  0  0  0  0  0  0  0  0  0  0
  149.5390  154.7460  132.3720 F   0  0  0  0  0  0  0  0  0  0  0  0
  148.0580  154.1530  133.9690 F   0  0  0  0  0  0  0  0  0  0  0  0
  146.4220  156.5490  133.0680 C   0  0  0  0  0  0  0  0  0  0  0  0
  146.0630  157.8930  133.2110 C   0  0  0  0  0  0  0  0  0  0  0  0
  143.7479  155.3770  135.8697 H   0  0  0  0  0  0  0  0  0  0  0  0
  142.9712  154.8778  134.3289 H   0  0  0  0  0  0  0  0  0  0  0  0
  144.6663  155.4721  134.3289 H   0  0  0  0  0  0  0  0  0  0  0  0
  142.2561  156.9620  136.4768 H   0  0  0  0  0  0  0  0  0  0  0  0
  142.6271  158.5876  135.7920 H   0  0  0  0  0  0  0  0  0  0  0  0
  141.4600  158.8550  133.3170 H   0  0  0  0  0  0  0  0  0  0  0  0
  138.8928  157.4273  133.1093 H   0  0  0  0  0  0  0  0  0  0  0  0
  138.7381  159.1305  133.6949 H   0  0  0  0  0  0  0  0  0  0  0  0
  139.5082  158.0797  130.9941 H   0  0  0  0  0  0  0  0  0  0  0  0
  138.5998  159.5722  131.4643 H   0  0  0  0  0  0  0  0  0  0  0  0
  141.3840  159.1680  131.8630 H   0  0  0  0  0  0  0  0  0  0  0  0
  142.3180  159.7280  132.5990 H   0  0  0  0  0  0  0  0  0  0  0  0
  146.7843  161.0997  133.2954 H   0  0  0  0  0  0  0  0  0  0  0  0
  149.0944  159.4347  132.9557 H   0  0  0  0  0  0  0  0  0  0  0  0
  149.8147  157.0328  132.7304 H   0  0  0  0  0  0  0  0  0  0  0  0
  147.5848  154.3118  131.9967 H   0  0  0  0  0  0  0  0  0  0  0  0
  145.6602  155.7559  133.0943 H   0  0  0  0  0  0  0  0  0  0  0  0
  1  2  1  0
  2  3  1  0
  3  4  1  0
  4  5  2  0
  4  6  1  0
  6  7  1  0
  7  8  1  0
  8  9  1  0
  2 10  1  0
 10 11  2  0
 10 12  1  0
 12 13  1  0
 13 14  1  0
 14 15  1  0
 14 16  2  0
 13 17  2  0
 17 18  1  0
 18 19  2  0
 19 20  1  0
 20 21  2  0
 21 22  1  0
 22 23  1  0
 22 24  1  0
 21 25  1  0
 25 26  2  0
 26 12  1  0
 26 18  1  0
  1 27  1  0
  1 28  1  0
  1 29  1  0
  3 30  1  0
  3 31  1  0
  6 32  1  0
  7 33  1  0
  7 34  1  0
  8 35  1  0
  8 36  1  0
  9 37  1  0
 15 38  1  0
 17 39  1  0
 19 40  1  0
 20 41  1  0
 22 42  1  0
 25 43  1  0
M  CHG  1  15  -1
M  END
>  <UniqueID>  (89) 
89

>  <SMILES>  (89) 
CN(CC(=O)NCCO)C(=O)n1c(C([NH-])=O)cc2ccc(C(F)F)cc21

>  <Energy>  (89) 
73.42956472820003

>  <Genealogy>  (89) 
CN(CC(=O)NCCO)C(=O)n1c(C([NH-])=O)cc2ccc(C(F)F)cc21 (protonated)
CN(CC(=O)NCCO)C(=O)n1c(C([NH-])=O)cc2ccc(C(F)F)cc21 (3D coordinates assigned)
CN(CC(=O)NCCO)C(=O)n1c(C([NH-])=O)cc2ccc(C(F)F)cc21 (optimized conformer: 73.42956472820003 kcal/mol)

>  <smiles>  (89) 
CN(CC(=O)NCCO)C(=O)n1c(C(N)=O)cc2ccc(C(F)F)cc21

>  <score_type>  (89) 
oracle

>  <origin>  (89) 
adg

>  <m_score__min__energy>  (89) 
-5.6799999999999997

>  <m_primary>  (89) 
energy

$$$$
90:0
     RDKit          3D

 45 46  0  0  0  0  0  0  0  0999 V2000
  140.8340  155.7900  134.2280 C   0  0  0  0  0  0  0  0  0  0  0  0
  141.2460  155.8460  135.6330 N   0  0  0  0  0  0  0  0  0  0  0  0
  140.8140  156.9730  136.4730 C   0  0  0  0  0  0  0  0  0  0  0  0
  139.8750  157.9090  135.7030 C   0  0  0  0  0  0  0  0  0  0  0  0
  140.5610  159.1830  135.3180 C   0  0  0  0  0  0  0  0  0  0  0  0
  141.3410  159.7520  136.1260 O   0  0  0  0  0  0  0  0  0  0  0  0
  140.3730  159.7170  134.0500 O   0  0  0  0  0  0  0  0  0  0  0  0
  142.1420  154.8400  136.1400 C   0  0  0  0  0  0  0  0  0  0  0  0
  141.6960  153.8730  136.8170 O   0  0  0  0  0  0  0  0  0  0  0  0
  143.5150  154.9420  135.8840 O   0  0  0  0  0  0  0  0  0  0  0  0
  144.0400  155.5860  134.7280 C   0  0  0  0  0  0  0  0  0  0  0  0
  143.7200  156.9730  134.7690 O   0  0  0  0  0  0  0  0  0  0  0  0
  143.8190  157.8060  133.6510 C   0  0  0  0  0  0  0  0  0  0  0  0
  142.8660  157.8790  132.8280 O   0  0  0  0  0  0  0  0  0  0  0  0
  145.0140  158.5770  133.4410 N   0  0  0  0  0  0  0  0  0  0  0  0
  145.1630  159.9250  133.5890 C   0  0  0  0  0  0  0  0  0  0  0  0
  144.0770  160.8960  133.8320 C   0  0  0  0  0  0  0  0  0  0  0  0
  142.7780  160.4670  134.2420 N   0  0  0  0  0  0  0  0  0  0  0  0
  144.2840  162.1200  133.6190 O   0  0  0  0  0  0  0  0  0  0  0  0
  146.4960  160.2930  133.4350 C   0  0  0  0  0  0  0  0  0  0  0  0
  147.1690  159.1220  133.1730 C   0  0  0  0  0  0  0  0  0  0  0  0
  148.5260  158.9020  132.9610 C   0  0  0  0  0  0  0  0  0  0  0  0
  148.9550  157.5800  132.7580 C   0  0  0  0  0  0  0  0  0  0  0  0
  148.0260  156.5110  132.7720 C   0  0  0  0  0  0  0  0  0  0  0  0
  148.5050  155.0980  132.6050 C   0  0  0  0  0  0  0  0  0  0  0  0
  148.0760  154.1450  134.0460 Cl  0  0  0  0  0  0  0  0  0  0  0  0
  146.6580  156.7710  133.0060 C   0  0  0  0  0  0  0  0  0  0  0  0
  146.2540  158.1010  133.1830 C   0  0  0  0  0  0  0  0  0  0  0  0
  139.7455  155.6420  134.1707 H   0  0  0  0  0  0  0  0  0  0  0  0
  141.1026  156.7329  133.7293 H   0  0  0  0  0  0  0  0  0  0  0  0
  141.3446  154.9530  133.7293 H   0  0  0  0  0  0  0  0  0  0  0  0
  140.2865  156.5816  137.3553 H   0  0  0  0  0  0  0  0  0  0  0  0
  141.7043  157.5438  136.7756 H   0  0  0  0  0  0  0  0  0  0  0  0
  139.5314  157.3988  134.7910 H   0  0  0  0  0  0  0  0  0  0  0  0
  139.0263  158.1590  136.3566 H   0  0  0  0  0  0  0  0  0  0  0  0
  145.1328  155.4626  134.7044 H   0  0  0  0  0  0  0  0  0  0  0  0
  143.5998  155.1353  133.8263 H   0  0  0  0  0  0  0  0  0  0  0  0
  142.5250  159.4540  134.2610 H   0  0  0  0  0  0  0  0  0  0  0  0
  142.0370  161.1710  134.4550 H   0  0  0  0  0  0  0  0  0  0  0  0
  146.9213  161.3049  133.5073 H   0  0  0  0  0  0  0  0  0  0  0  0
  149.2412  159.7377  132.9526 H   0  0  0  0  0  0  0  0  0  0  0  0
  150.0217  157.3732  132.5867 H   0  0  0  0  0  0  0  0  0  0  0  0
  148.0303  154.6534  131.7179 H   0  0  0  0  0  0  0  0  0  0  0  0
  149.5978  155.0962  132.4790 H   0  0  0  0  0  0  0  0  0  0  0  0
  145.9275  155.9497  133.0483 H   0  0  0  0  0  0  0  0  0  0  0  0
  1  2  1  0
  2  3  1  0
  3  4  1  0
  4  5  1  0
  5  6  2  0
  5  7  1  0
  2  8  1  0
  8  9  2  0
  8 10  1  0
 10 11  1  0
 11 12  1  0
 12 13  1  0
 13 14  2  0
 13 15  1  0
 15 16  1  0
 16 17  1  0
 17 18  1  0
 17 19  2  0
 16 20  2  0
 20 21  1  0
 21 22  2  0
 22 23  1  0
 23 24  2  0
 24 25  1  0
 25 26  1  0
 24 27  1  0
 27 28  2  0
 28 15  1  0
 28 21  1  0
  1 29  1  0
  1 30  1  0
  1 31  1  0
  3 32  1  0
  3 33  1  0
  4 34  1  0
  4 35  1  0
 11 36  1  0
 11 37  1  0
 18 38  1  0
 18 39  1  0
 20 40  1  0
 22 41  1  0
 23 42  1  0
 25 43  1  0
 25 44  1  0
 27 45  1  0
M  CHG  1   7  -1
M  END
>  <UniqueID>  (90) 
90

>  <SMILES>  (90) 
CN(CCC(=O)[O-])C(=O)OCOC(=O)n1c(C(N)=O)cc2ccc(CCl)cc21

>  <Energy>  (90) 
73.25419677460486

>  <Genealogy>  (90) 
CN(CCC(=O)[O-])C(=O)OCOC(=O)n1c(C(N)=O)cc2ccc(CCl)cc21 (protonated)
CN(CCC(=O)[O-])C(=O)OCOC(=O)n1c(C(N)=O)cc2ccc(CCl)cc21 (3D coordinates assigned)
CN(CCC(=O)[O-])C(=O)OCOC(=O)n1c(C(N)=O)cc2ccc(CCl)cc21 (optimized conformer: 73.25419677460486 kcal/mol)

>  <smiles>  (90) 
CN(CCC(=O)O)C(=O)OCOC(=O)n1c(C(N)=O)cc2ccc(CCl)cc21

>  <score_type>  (90) 
oracle

>  <origin>  (90) 
adg

>  <m_score__min__energy>  (90) 
-7.25

>  <m_primary>  (90) 
energy

$$$$
91:0
     RDKit          3D

 42 43  0  0  0  0  0  0  0  0999 V2000
  140.6890  159.3800  135.3490 C   0  0  0  0  0  0  0  0  0  0  0  0
  140.9810  158.3550  134.3210 N   0  0  2  0  0  0  0  0  0  0  0  0
  139.7670  157.9930  133.5490 C   0  0  0  0  0  0  0  0  0  0  0  0
  139.7400  158.4870  132.0850 C   0  0  0  0  0  0  0  0  0  0  0  0
  140.6250  159.5560  131.8750 O   0  0  0  0  0  0  0  0  0  0  0  0
  141.6630  157.1850  134.8690 C   0  0  0  0  0  0  0  0  0  0  0  0
  141.0340  156.3230  135.4780 O   0  0  0  0  0  0  0  0  0  0  0  0
  143.1540  156.9740  134.6960 C   0  0  0  0  0  0  0  0  0  0  0  0
  143.6710  157.6330  133.4500 C   0  0  0  0  0  0  0  0  0  0  0  0
  142.9640  157.6260  132.4060 O   0  0  0  0  0  0  0  0  0  0  0  0
  144.9320  158.3300  133.4500 N   0  0  0  0  0  0  0  0  0  0  0  0
  145.1090  159.6770  133.4940 C   0  0  0  0  0  0  0  0  0  0  0  0
  144.0250  160.6570  133.6560 C   0  0  0  0  0  0  0  0  0  0  0  0
  142.6820  160.2870  133.3600 N   0  0  0  0  0  0  0  0  0  0  0  0
  144.2810  161.8170  134.0800 O   0  0  0  0  0  0  0  0  0  0  0  0
  146.4520  160.0090  133.3750 C   0  0  0  0  0  0  0  0  0  0  0  0
  147.1100  158.8040  133.2520 C   0  0  0  0  0  0  0  0  0  0  0  0
  148.4670  158.5390  133.0790 C   0  0  0  0  0  0  0  0  0  0  0  0
  148.8580  157.2020  132.9050 C   0  0  0  0  0  0  0  0  0  0  0  0
  147.8930  156.1630  132.8810 C   0  0  0  0  0  0  0  0  0  0  0  0
  148.3150  154.7380  132.6560 C   0  0  0  0  0  0  0  0  0  0  0  0
  149.6580  154.7010  132.3120 F   0  0  0  0  0  0  0  0  0  0  0  0
  148.1170  154.0050  133.8150 F   0  0  0  0  0  0  0  0  0  0  0  0
  146.5220  156.4680  133.0630 C   0  0  0  0  0  0  0  0  0  0  0  0
  146.1660  157.8050  133.2830 C   0  0  0  0  0  0  0  0  0  0  0  0
  140.8140  158.9414  136.3500 H   0  0  0  0  0  0  0  0  0  0  0  0
  141.3818  160.2261  135.2303 H   0  0  0  0  0  0  0  0  0  0  0  0
  139.6543  159.7340  135.2303 H   0  0  0  0  0  0  0  0  0  0  0  0
  141.6440  158.8180  133.6580 H   0  0  0  0  0  0  0  0  0  0  0  0
  139.6862  156.8960  133.5384 H   0  0  0  0  0  0  0  0  0  0  0  0
  138.9271  158.4936  134.0530 H   0  0  0  0  0  0  0  0  0  0  0  0
  140.0246  157.6551  131.4240 H   0  0  0  0  0  0  0  0  0  0  0  0
  138.7219  158.8400  131.8640 H   0  0  0  0  0  0  0  0  0  0  0  0
  141.5430  159.1710  131.8680 H   0  0  0  0  0  0  0  0  0  0  0  0
  143.6767  157.3983  135.5659 H   0  0  0  0  0  0  0  0  0  0  0  0
  143.3382  155.8928  134.6118 H   0  0  0  0  0  0  0  0  0  0  0  0
  142.4620  159.6240  132.5840 H   0  0  0  0  0  0  0  0  0  0  0  0
  146.8950  161.0158  133.3782 H   0  0  0  0  0  0  0  0  0  0  0  0
  149.2083  159.3517  133.0788 H   0  0  0  0  0  0  0  0  0  0  0  0
  149.9239  156.9577  132.7860 H   0  0  0  0  0  0  0  0  0  0  0  0
  147.7144  154.3055  131.8422 H   0  0  0  0  0  0  0  0  0  0  0  0
  145.7580  155.6772  133.0325 H   0  0  0  0  0  0  0  0  0  0  0  0
  1  2  1  0
  2  3  1  0
  3  4  1  0
  4  5  1  0
  2  6  1  0
  6  7  2  0
  6  8  1  0
  8  9  1  0
  9 10  2  0
  9 11  1  0
 11 12  1  0
 12 13  1  0
 13 14  1  0
 13 15  2  0
 12 16  2  0
 16 17  1  0
 17 18  2  0
 18 19  1  0
 19 20  2  0
 20 21  1  0
 21 22  1  0
 21 23  1  0
 20 24  1  0
 24 25  2  0
 25 11  1  0
 25 17  1  0
  1 26  1  0
  1 27  1  0
  1 28  1  0
  2 29  1  6
  3 30  1  0
  3 31  1  0
  4 32  1  0
  4 33  1  0
  5 34  1  0
  8 35  1  0
  8 36  1  0
 14 37  1  0
 16 38  1  0
 18 39  1  0
 19 40  1  0
 21 41  1  0
 24 42  1  0
M  CHG  2   2   1  14  -1
M  END
>  <UniqueID>  (91) 
91

>  <SMILES>  (91) 
C[N@H+](CCO)C(=O)CC(=O)n1c(C([NH-])=O)cc2ccc(C(F)F)cc21

>  <Energy>  (91) 
88.80260508129905

>  <Genealogy>  (91) 
C[NH+](CCO)C(=O)CC(=O)n1c(C([NH-])=O)cc2ccc(C(F)F)cc21 (protonated)
C[N@H+](CCO)C(=O)CC(=O)n1c(C([NH-])=O)cc2ccc(C(F)F)cc21 (chirality)
C[N@H+](CCO)C(=O)CC(=O)n1c(C([NH-])=O)cc2ccc(C(F)F)cc21 (3D coordinates assigned)
C[N@H+](CCO)C(=O)CC(=O)n1c(C([NH-])=O)cc2ccc(C(F)F)cc21 (optimized conformer: 88.80260508129905 kcal/mol)

>  <smiles>  (91) 
CN(CCO)C(=O)CC(=O)n1c(C(N)=O)cc2ccc(C(F)F)cc21

>  <score_type>  (91) 
oracle

>  <origin>  (91) 
adg

>  <m_score__min__energy>  (91) 
-5.0499999999999998

>  <m_primary>  (91) 
energy

$$$$
92:0
     RDKit          3D

 42 43  0  0  0  0  0  0  0  0999 V2000
  147.4580  156.2190  135.2160 C   0  0  0  0  0  0  0  0  0  0  0  0
  147.1570  156.3450  133.9180 C   0  0  0  0  0  0  0  0  0  0  0  0
  148.0920  155.8380  132.8850 C   0  0  0  0  0  0  0  0  0  0  0  0
  149.3240  156.5080  132.6060 N   0  0  0  0  0  0  0  0  0  0  0  0
  147.7950  154.8050  132.2270 O   0  0  0  0  0  0  0  0  0  0  0  0
  145.8650  156.9600  133.5110 C   0  0  0  0  0  0  0  0  0  0  0  0
  144.9130  156.2310  133.1200 O   0  0  0  0  0  0  0  0  0  0  0  0
  145.6760  158.3830  133.5740 N   0  0  0  0  0  0  0  0  0  0  0  0
  146.6140  159.3560  133.4050 C   0  0  0  0  0  0  0  0  0  0  0  0
  148.0690  159.1410  133.2520 C   0  0  0  0  0  0  0  0  0  0  0  0
  148.9120  158.9870  134.3900 N   0  0  0  0  0  0  0  0  0  0  0  0
  148.5790  159.1240  132.1000 O   0  0  0  0  0  0  0  0  0  0  0  0
  146.0220  160.6180  133.4530 C   0  0  0  0  0  0  0  0  0  0  0  0
  144.6800  160.3830  133.6580 C   0  0  0  0  0  0  0  0  0  0  0  0
  143.6200  161.2780  133.7670 C   0  0  0  0  0  0  0  0  0  0  0  0
  142.3300  160.7500  133.9470 C   0  0  0  0  0  0  0  0  0  0  0  0
  142.1250  159.3490  134.0150 C   0  0  0  0  0  0  0  0  0  0  0  0
  140.7340  158.7910  134.1670 C   0  0  0  0  0  0  0  0  0  0  0  0
  139.8730  159.0560  132.9540 C   0  0  0  0  0  0  0  0  0  0  0  0
  139.6390  160.2480  132.6080 O   0  0  0  0  0  0  0  0  0  0  0  0
  139.2710  157.9720  132.2130 N   0  0  0  0  0  0  0  0  0  0  0  0
  139.4460  156.5800  132.6420 C   0  0  0  0  0  0  0  0  0  0  0  0
  138.4630  158.2800  131.0280 C   0  0  0  0  0  0  0  0  0  0  0  0
  143.2240  158.4720  133.8840 C   0  0  0  0  0  0  0  0  0  0  0  0
  144.4990  159.0270  133.7230 C   0  0  0  0  0  0  0  0  0  0  0  0
  146.7630  156.5958  135.9809 H   0  0  0  0  0  0  0  0  0  0  0  0
  148.4004  155.7386  135.5180 H   0  0  0  0  0  0  0  0  0  0  0  0
  149.5500  157.4330  133.0320 H   0  0  0  0  0  0  0  0  0  0  0  0
  149.9870  156.1110  131.9030 H   0  0  0  0  0  0  0  0  0  0  0  0
  149.2710  158.0470  134.6700 H   0  0  0  0  0  0  0  0  0  0  0  0
  146.5204  161.5931  133.3493 H   0  0  0  0  0  0  0  0  0  0  0  0
  143.7864  162.3640  133.7140 H   0  0  0  0  0  0  0  0  0  0  0  0
  141.4706  161.4309  134.0360 H   0  0  0  0  0  0  0  0  0  0  0  0
  140.8039  157.7040  134.3203 H   0  0  0  0  0  0  0  0  0  0  0  0
  140.2643  159.2892  135.0279 H   0  0  0  0  0  0  0  0  0  0  0  0
  139.4519  156.5330  133.7410 H   0  0  0  0  0  0  0  0  0  0  0  0
  138.6175  155.9696  132.2533 H   0  0  0  0  0  0  0  0  0  0  0  0
  140.3998  156.1937  132.2533 H   0  0  0  0  0  0  0  0  0  0  0  0
  137.4782  158.6554  131.3431 H   0  0  0  0  0  0  0  0  0  0  0  0
  138.9724  159.0470  130.4261 H   0  0  0  0  0  0  0  0  0  0  0  0
  138.3325  157.3685  130.4261 H   0  0  0  0  0  0  0  0  0  0  0  0
  143.0819  157.3815  133.9078 H   0  0  0  0  0  0  0  0  0  0  0  0
  1  2  2  0
  2  3  1  0
  3  4  1  0
  3  5  2  0
  2  6  1  0
  6  7  2  0
  6  8  1  0
  8  9  1  0
  9 10  1  0
 10 11  1  0
 10 12  2  0
  9 13  2  0
 13 14  1  0
 14 15  2  0
 15 16  1  0
 16 17  2  0
 17 18  1  0
 18 19  1  0
 19 20  2  0
 19 21  1  0
 21 22  1  0
 21 23  1  0
 17 24  1  0
 24 25  2  0
 25  8  1  0
 25 14  1  0
  1 26  1  0
  1 27  1  0
  4 28  1  0
  4 29  1  0
 11 30  1  0
 13 31  1  0
 15 32  1  0
 16 33  1  0
 18 34  1  0
 18 35  1  0
 22 36  1  0
 22 37  1  0
 22 38  1  0
 23 39  1  0
 23 40  1  0
 23 41  1  0
 24 42  1  0
M  CHG  1  11  -1
M  END
>  <UniqueID>  (92) 
92

>  <SMILES>  (92) 
C=C(C(N)=O)C(=O)n1c(C([NH-])=O)cc2ccc(CC(=O)N(C)C)cc21

>  <Energy>  (92) 
80.30904160423525

>  <Genealogy>  (92) 
C=C(C(N)=O)C(=O)n1c(C([NH-])=O)cc2ccc(CC(=O)N(C)C)cc21 (protonated)
C=C(C(N)=O)C(=O)n1c(C([NH-])=O)cc2ccc(CC(=O)N(C)C)cc21 (3D coordinates assigned)
C=C(C(N)=O)C(=O)n1c(C([NH-])=O)cc2ccc(CC(=O)N(C)C)cc21 (optimized conformer: 80.30904160423525 kcal/mol)

>  <smiles>  (92) 
C=C(C(N)=O)C(=O)n1c(C(N)=O)cc2ccc(CC(=O)N(C)C)cc21

>  <score_type>  (92) 
oracle

>  <origin>  (92) 
adg

>  <m_score__min__energy>  (92) 
-7.5199999999999996

>  <m_primary>  (92) 
energy

$$$$
93:0
     RDKit          3D

 49 50  0  0  0  0  0  0  0  0999 V2000
  140.2820  151.1630  138.2460 C   0  0  0  0  0  0  0  0  0  0  0  0
  141.1540  152.3470  138.3120 N   0  0  0  0  0  0  0  0  0  0  0  0
  141.7290  152.6110  136.9810 C   0  0  0  0  0  0  0  0  0  0  0  0
  140.4090  153.5230  138.8130 C   0  0  0  0  0  0  0  0  0  0  0  0
  141.3300  154.4690  139.5970 C   0  0  0  0  0  0  0  0  0  0  0  0
  142.1680  155.2620  138.6930 N   0  0  0  0  0  0  0  0  0  0  0  0
  141.6900  156.3130  137.8320 C   0  0  0  0  0  0  0  0  0  0  0  0
  141.7320  157.6520  138.2950 C   0  0  0  0  0  0  0  0  0  0  0  0
  141.2980  158.7130  137.4800 C   0  0  0  0  0  0  0  0  0  0  0  0
  140.8220  158.4060  136.2100 C   0  0  0  0  0  0  0  0  0  0  0  0
  140.3770  159.2310  135.1990 C   0  0  0  0  0  0  0  0  0  0  0  0
  140.0600  158.3800  134.1410 C   0  0  0  0  0  0  0  0  0  0  0  0
  139.5370  158.8340  132.8360 C   0  0  0  0  0  0  0  0  0  0  0  0
  138.2370  158.4290  132.4110 N   0  0  0  0  0  0  0  0  0  0  0  0
  140.2290  159.5730  132.0890 O   0  0  0  0  0  0  0  0  0  0  0  0
  140.2940  157.0860  134.4910 N   0  0  0  0  0  0  0  0  0  0  0  0
  140.1700  155.9160  133.6710 C   0  0  0  0  0  0  0  0  0  0  0  0
  139.1210  155.7530  132.9960 O   0  0  0  0  0  0  0  0  0  0  0  0
  141.2670  154.9190  133.6460 C   0  0  0  0  0  0  0  0  0  0  0  0
  140.9520  153.7040  133.5250 O   0  0  0  0  0  0  0  0  0  0  0  0
  142.6670  155.2790  133.7440 N   0  0  0  0  0  0  0  0  0  0  0  0
  143.1780  156.5370  133.1890 C   0  0  0  0  0  0  0  0  0  0  0  0
  143.6310  154.2990  134.2610 C   0  0  0  0  0  0  0  0  0  0  0  0
  144.3510  154.8580  135.4470 C   0  0  0  0  0  0  0  0  0  0  0  0
  145.3130  155.6530  135.2870 O   0  0  0  0  0  0  0  0  0  0  0  0
  143.9940  154.4610  136.7300 O   0  0  0  0  0  0  0  0  0  0  0  0
  140.7570  157.1170  135.7550 C   0  0  0  0  0  0  0  0  0  0  0  0
  141.1710  156.0410  136.5420 C   0  0  0  0  0  0  0  0  0  0  0  0
  140.0372  150.8306  139.2656 H   0  0  0  0  0  0  0  0  0  0  0  0
  139.3554  151.4194  137.7115 H   0  0  0  0  0  0  0  0  0  0  0  0
  140.8017  150.3542  137.7115 H   0  0  0  0  0  0  0  0  0  0  0  0
  142.7233  153.0675  137.0951 H   0  0  0  0  0  0  0  0  0  0  0  0
  141.8212  151.6650  136.4272 H   0  0  0  0  0  0  0  0  0  0  0  0
  141.0717  153.2975  136.4272 H   0  0  0  0  0  0  0  0  0  0  0  0
  139.9793  154.0665  137.9587 H   0  0  0  0  0  0  0  0  0  0  0  0
  139.6143  153.1713  139.4874 H   0  0  0  0  0  0  0  0  0  0  0  0
  140.7137  155.1487  140.2038 H   0  0  0  0  0  0  0  0  0  0  0  0
  141.9863  153.8634  140.2393 H   0  0  0  0  0  0  0  0  0  0  0  0
  143.1790  155.0020  138.6380 H   0  0  0  0  0  0  0  0  0  0  0  0
  142.1094  157.8644  139.3062 H   0  0  0  0  0  0  0  0  0  0  0  0
  141.3340  159.7531  137.8361 H   0  0  0  0  0  0  0  0  0  0  0  0
  140.2905  160.3273  135.2221 H   0  0  0  0  0  0  0  0  0  0  0  0
  137.8690  157.4810  132.6460 H   0  0  0  0  0  0  0  0  0  0  0  0
  143.4534  157.2150  134.0103 H   0  0  0  0  0  0  0  0  0  0  0  0
  144.0640  156.3317  132.5703 H   0  0  0  0  0  0  0  0  0  0  0  0
  142.3998  157.0077  132.5703 H   0  0  0  0  0  0  0  0  0  0  0  0
  143.0959  153.3851  134.5585 H   0  0  0  0  0  0  0  0  0  0  0  0
  144.3632  154.0663  133.4737 H   0  0  0  0  0  0  0  0  0  0  0  0
  141.0962  155.0084  136.1702 H   0  0  0  0  0  0  0  0  0  0  0  0
  1  2  1  0
  2  3  1  0
  2  4  1  0
  4  5  1  0
  5  6  1  0
  6  7  1  0
  7  8  2  0
  8  9  1  0
  9 10  2  0
 10 11  1  0
 11 12  2  0
 12 13  1  0
 13 14  1  0
 13 15  2  0
 12 16  1  0
 16 17  1  0
 17 18  2  0
 17 19  1  0
 19 20  2  0
 19 21  1  0
 21 22  1  0
 21 23  1  0
 23 24  1  0
 24 25  2  0
 24 26  1  0
 16 27  1  0
 27 28  2  0
 28  7  1  0
 27 10  1  0
  1 29  1  0
  1 30  1  0
  1 31  1  0
  3 32  1  0
  3 33  1  0
  3 34  1  0
  4 35  1  0
  4 36  1  0
  5 37  1  0
  5 38  1  0
  6 39  1  0
  8 40  1  0
  9 41  1  0
 11 42  1  0
 14 43  1  0
 22 44  1  0
 22 45  1  0
 22 46  1  0
 23 47  1  0
 23 48  1  0
 28 49  1  0
M  CHG  2  14  -1  26  -1
M  END
>  <UniqueID>  (93) 
93

>  <SMILES>  (93) 
CN(C)CCNc1ccc2cc(C([NH-])=O)n(C(=O)C(=O)N(C)CC(=O)[O-])c2c1

>  <Energy>  (93) 
84.96602782230244

>  <Genealogy>  (93) 
CN(C)CCNc1ccc2cc(C([NH-])=O)n(C(=O)C(=O)N(C)CC(=O)[O-])c2c1 (protonated)
CN(C)CCNc1ccc2cc(C([NH-])=O)n(C(=O)C(=O)N(C)CC(=O)[O-])c2c1 (3D coordinates assigned)
CN(C)CCNc1ccc2cc(C([NH-])=O)n(C(=O)C(=O)N(C)CC(=O)[O-])c2c1 (optimized conformer: 84.96602782230244 kcal/mol)

>  <smiles>  (93) 
CN(C)CCNc1ccc2cc(C(N)=O)n(C(=O)C(=O)N(C)CC(=O)O)c2c1

>  <score_type>  (93) 
oracle

>  <origin>  (93) 
adg

>  <m_score__min__energy>  (93) 
-7.4800000000000004

>  <m_primary>  (93) 
energy

$$$$
94:0
     RDKit          3D

 46 47  0  0  0  0  0  0  0  0999 V2000
  149.9450  150.5730  134.7840 C   0  0  0  0  0  0  0  0  0  0  0  0
  149.7490  151.4140  133.5980 N   0  0  0  0  0  0  0  0  0  0  0  0
  150.4570  151.0990  132.3530 C   0  0  0  0  0  0  0  0  0  0  0  0
  148.8800  152.5650  133.6980 C   0  0  0  0  0  0  0  0  0  0  0  0
  148.4890  152.9540  134.8320 O   0  0  0  0  0  0  0  0  0  0  0  0
  148.3640  153.3000  132.4810 C   0  0  0  0  0  0  0  0  0  0  0  0
  146.9800  153.7610  132.6740 N   0  0  0  0  0  0  0  0  0  0  0  0
  146.9240  155.1930  132.8470 C   0  0  0  0  0  0  0  0  0  0  0  0
  148.1170  155.9600  132.8550 C   0  0  0  0  0  0  0  0  0  0  0  0
  148.0760  157.3480  133.0620 C   0  0  0  0  0  0  0  0  0  0  0  0
  146.8340  157.9410  133.2660 C   0  0  0  0  0  0  0  0  0  0  0  0
  146.5080  159.2610  133.4780 C   0  0  0  0  0  0  0  0  0  0  0  0
  145.1230  159.2810  133.6250 C   0  0  0  0  0  0  0  0  0  0  0  0
  144.3570  160.4970  133.9630 C   0  0  0  0  0  0  0  0  0  0  0  0
  143.0890  160.7290  133.3520 N   0  0  0  0  0  0  0  0  0  0  0  0
  144.8280  161.3550  134.7530 O   0  0  0  0  0  0  0  0  0  0  0  0
  144.6110  158.0240  133.5000 N   0  0  0  0  0  0  0  0  0  0  0  0
  143.2280  157.6360  133.5160 C   0  0  0  0  0  0  0  0  0  0  0  0
  142.3610  158.3670  132.9610 O   0  0  0  0  0  0  0  0  0  0  0  0
  142.8460  156.4570  134.1630 O   0  0  0  0  0  0  0  0  0  0  0  0
  143.6300  155.8510  135.1860 C   0  0  0  0  0  0  0  0  0  0  0  0
  143.4340  154.3380  135.1680 C   0  0  0  0  0  0  0  0  0  0  0  0
  144.6730  153.6400  134.6990 C   0  0  0  0  0  0  0  0  0  0  0  0
  145.6960  153.6030  135.4320 O   0  0  0  0  0  0  0  0  0  0  0  0
  144.7100  153.0630  133.4360 O   0  0  0  0  0  0  0  0  0  0  0  0
  145.6720  157.2150  133.2830 C   0  0  0  0  0  0  0  0  0  0  0  0
  145.6810  155.8330  133.0590 C   0  0  0  0  0  0  0  0  0  0  0  0
  149.8037  151.1793  135.6909 H   0  0  0  0  0  0  0  0  0  0  0  0
  149.2144  149.7507  134.7752 H   0  0  0  0  0  0  0  0  0  0  0  0
  150.9639  150.1584  134.7752 H   0  0  0  0  0  0  0  0  0  0  0  0
  151.4385  150.6623  132.5897 H   0  0  0  0  0  0  0  0  0  0  0  0
  149.8667  150.3786  131.7677 H   0  0  0  0  0  0  0  0  0  0  0  0
  150.5969  152.0198  131.7677 H   0  0  0  0  0  0  0  0  0  0  0  0
  149.0075  154.1716  132.2908 H   0  0  0  0  0  0  0  0  0  0  0  0
  148.3801  152.6065  131.6273 H   0  0  0  0  0  0  0  0  0  0  0  0
  146.3870  153.4660  131.8620 H   0  0  0  0  0  0  0  0  0  0  0  0
  146.5860  153.2970  133.5260 H   0  0  0  0  0  0  0  0  0  0  0  0
  149.0850  155.4619  132.6973 H   0  0  0  0  0  0  0  0  0  0  0  0
  148.9977  157.9484  133.0629 H   0  0  0  0  0  0  0  0  0  0  0  0
  147.1954  160.1186  133.5220 H   0  0  0  0  0  0  0  0  0  0  0  0
  142.7690  160.1510  132.5440 H   0  0  0  0  0  0  0  0  0  0  0  0
  144.6919  156.0826  135.0163 H   0  0  0  0  0  0  0  0  0  0  0  0
  143.3135  156.2440  136.1634 H   0  0  0  0  0  0  0  0  0  0  0  0
  143.1912  153.9950  136.1846 H   0  0  0  0  0  0  0  0  0  0  0  0
  142.6146  154.0998  134.4739 H   0  0  0  0  0  0  0  0  0  0  0  0
  144.7430  155.2584  133.0482 H   0  0  0  0  0  0  0  0  0  0  0  0
  1  2  1  0
  2  3  1  0
  2  4  1  0
  4  5  2  0
  4  6  1  0
  6  7  1  0
  7  8  1  0
  8  9  2  0
  9 10  1  0
 10 11  2  0
 11 12  1  0
 12 13  2  0
 13 14  1  0
 14 15  1  0
 14 16  2  0
 13 17  1  0
 17 18  1  0
 18 19  2  0
 18 20  1  0
 20 21  1  0
 21 22  1  0
 22 23  1  0
 23 24  2  0
 23 25  1  0
 17 26  1  0
 26 27  2  0
 27  8  1  0
 26 11  1  0
  1 28  1  0
  1 29  1  0
  1 30  1  0
  3 31  1  0
  3 32  1  0
  3 33  1  0
  6 34  1  0
  6 35  1  0
  7 36  1  0
  7 37  1  0
  9 38  1  0
 10 39  1  0
 12 40  1  0
 15 41  1  0
 21 42  1  0
 21 43  1  0
 22 44  1  0
 22 45  1  0
 27 46  1  0
M  CHG  3   7   1  15  -1  25  -1
M  END
>  <UniqueID>  (94) 
94

>  <SMILES>  (94) 
CN(C)C(=O)C[NH2+]c1ccc2cc(C([NH-])=O)n(C(=O)OCCC(=O)[O-])c2c1

>  <Energy>  (94) 
76.25106827272275

>  <Genealogy>  (94) 
CN(C)C(=O)C[NH2+]c1ccc2cc(C([NH-])=O)n(C(=O)OCCC(=O)[O-])c2c1 (protonated)
CN(C)C(=O)C[NH2+]c1ccc2cc(C([NH-])=O)n(C(=O)OCCC(=O)[O-])c2c1 (3D coordinates assigned)
CN(C)C(=O)C[NH2+]c1ccc2cc(C([NH-])=O)n(C(=O)OCCC(=O)[O-])c2c1 (optimized conformer: 76.25106827272275 kcal/mol)

>  <smiles>  (94) 
CN(C)C(=O)CNc1ccc2cc(C(N)=O)n(C(=O)OCCC(=O)O)c2c1

>  <score_type>  (94) 
oracle

>  <origin>  (94) 
adg

>  <m_score__min__energy>  (94) 
-6.8899999999999997

>  <m_primary>  (94) 
energy

$$$$
95:0
     RDKit          3D

 39 40  0  0  0  0  0  0  0  0999 V2000
  141.6550  155.5120  133.5710 N   0  0  0  0  0  0  0  0  0  0  0  0
  142.7210  155.7000  134.5030 C   0  0  0  0  0  0  0  0  0  0  0  0
  142.5130  155.4850  135.7270 O   0  0  0  0  0  0  0  0  0  0  0  0
  144.0460  156.1880  134.0690 C   0  0  0  0  0  0  0  0  0  0  0  0
  145.1500  155.3600  133.8800 C   0  0  0  0  0  0  0  0  0  0  0  0
  146.1700  156.1970  133.4880 C   0  0  0  0  0  0  0  0  0  0  0  0
  147.4880  155.9050  133.1500 C   0  0  0  0  0  0  0  0  0  0  0  0
  148.3110  156.9650  132.7360 C   0  0  0  0  0  0  0  0  0  0  0  0
  147.8000  158.2860  132.6380 C   0  0  0  0  0  0  0  0  0  0  0  0
  148.7030  159.4200  132.2240 C   0  0  0  0  0  0  0  0  0  0  0  0
  149.7900  158.9110  131.5380 F   0  0  0  0  0  0  0  0  0  0  0  0
  149.1570  160.1130  133.3350 F   0  0  0  0  0  0  0  0  0  0  0  0
  148.0290  160.3100  131.4060 F   0  0  0  0  0  0  0  0  0  0  0  0
  146.4610  158.5430  133.0100 C   0  0  0  0  0  0  0  0  0  0  0  0
  145.6730  157.4730  133.4440 C   0  0  0  0  0  0  0  0  0  0  0  0
  144.3710  157.4850  133.8060 N   0  0  0  0  0  0  0  0  0  0  0  0
  143.4790  158.6090  133.7550 C   0  0  0  0  0  0  0  0  0  0  0  0
  143.8810  159.7400  134.1390 O   0  0  0  0  0  0  0  0  0  0  0  0
  142.1150  158.4680  133.2240 C   0  0  0  0  0  0  0  0  0  0  0  0
  141.9230  157.8600  132.1350 O   0  0  0  0  0  0  0  0  0  0  0  0
  141.0130  159.0350  133.9390 N   0  0  0  0  0  0  0  0  0  0  0  0
  139.9310  158.2440  134.5170 C   0  0  0  0  0  0  0  0  0  0  0  0
  139.0200  157.6830  133.4170 C   0  0  2  0  0  0  0  0  0  0  0  0
  139.7090  156.6820  132.7130 O   0  0  0  0  0  0  0  0  0  0  0  0
  138.5950  158.8010  132.4530 C   0  0  0  0  0  0  0  0  0  0  0  0
  139.5860  159.0230  131.4860 O   0  0  0  0  0  0  0  0  0  0  0  0
  140.7470  155.1090  133.8920 H   0  0  0  0  0  0  0  0  0  0  0  0
  141.7230  155.8630  132.5910 H   0  0  0  0  0  0  0  0  0  0  0  0
  145.1968  154.2693  134.0152 H   0  0  0  0  0  0  0  0  0  0  0  0
  147.8731  154.8761  133.2054 H   0  0  0  0  0  0  0  0  0  0  0  0
  149.3639  156.7695  132.4847 H   0  0  0  0  0  0  0  0  0  0  0  0
  146.0484  159.5614  132.9592 H   0  0  0  0  0  0  0  0  0  0  0  0
  140.3607  157.4093  135.0902 H   0  0  0  0  0  0  0  0  0  0  0  0
  139.3327  158.8916  135.1748 H   0  0  0  0  0  0  0  0  0  0  0  0
  138.1165  157.2572  133.8779 H   0  0  0  0  0  0  0  0  0  0  0  0
  140.4490  157.1300  132.2240 H   0  0  0  0  0  0  0  0  0  0  0  0
  137.6599  158.5101  131.9520 H   0  0  0  0  0  0  0  0  0  0  0  0
  138.4470  159.7272  133.0277 H   0  0  0  0  0  0  0  0  0  0  0  0
  140.4210  158.6190  131.8390 H   0  0  0  0  0  0  0  0  0  0  0  0
  1  2  1  0
  2  3  2  0
  2  4  1  0
  4  5  2  0
  5  6  1  0
  6  7  2  0
  7  8  1  0
  8  9  2  0
  9 10  1  0
 10 11  1  0
 10 12  1  0
 10 13  1  0
  9 14  1  0
 14 15  2  0
 15 16  1  0
 16 17  1  0
 17 18  2  0
 17 19  1  0
 19 20  2  0
 19 21  1  0
 21 22  1  0
 22 23  1  0
 23 24  1  0
 23 25  1  0
 25 26  1  0
 16  4  1  0
 15  6  1  0
  1 27  1  0
  1 28  1  0
  5 29  1  0
  7 30  1  0
  8 31  1  0
 14 32  1  0
 22 33  1  0
 22 34  1  0
 23 35  1  1
 24 36  1  0
 25 37  1  0
 25 38  1  0
 26 39  1  0
M  CHG  1  21  -1
M  END
>  <UniqueID>  (95) 
95

>  <SMILES>  (95) 
NC(=O)c1cc2ccc(C(F)(F)F)cc2n1C(=O)C(=O)[N-]C[C@H](O)CO

>  <Energy>  (95) 
74.15472311144191

>  <Genealogy>  (95) 
NC(=O)c1cc2ccc(C(F)(F)F)cc2n1C(=O)C(=O)[N-]C[C@H](O)CO (protonated)
NC(=O)c1cc2ccc(C(F)(F)F)cc2n1C(=O)C(=O)[N-]C[C@H](O)CO (3D coordinates assigned)
NC(=O)c1cc2ccc(C(F)(F)F)cc2n1C(=O)C(=O)[N-]C[C@H](O)CO (optimized conformer: 74.15472311144191 kcal/mol)

>  <smiles>  (95) 
NC(=O)c1cc2ccc(C(F)(F)F)cc2n1C(=O)C(=O)NC[C@H](O)CO

>  <score_type>  (95) 
oracle

>  <origin>  (95) 
adg

>  <m_score__min__energy>  (95) 
-5.29

>  <m_primary>  (95) 
energy

$$$$
96:0
     RDKit          3D

 46 48  0  0  0  0  0  0  0  0999 V2000
  147.6750  156.0490  135.0640 C   0  0  0  0  0  0  0  0  0  0  0  0
  147.6360  155.7920  133.6110 N   0  0  1  0  0  0  0  0  0  0  0  0
  147.5760  154.3440  133.3160 C   0  0  0  0  0  0  0  0  0  0  0  0
  148.8810  153.8310  132.7790 C   0  0  0  0  0  0  0  0  0  0  0  0
  149.8110  154.6320  132.5010 O   0  0  0  0  0  0  0  0  0  0  0  0
  149.0550  152.4700  132.5620 O   0  0  0  0  0  0  0  0  0  0  0  0
  146.4930  156.4420  133.0070 C   0  0  0  0  0  0  0  0  0  0  0  0
  145.7340  155.8050  132.2240 O   0  0  0  0  0  0  0  0  0  0  0  0
  146.3120  157.8590  133.1570 N   0  0  0  0  0  0  0  0  0  0  0  0
  147.2340  158.8480  132.9990 C   0  0  0  0  0  0  0  0  0  0  0  0
  148.6780  158.6530  132.7650 C   0  0  0  0  0  0  0  0  0  0  0  0
  149.1600  157.3920  132.3040 N   0  0  0  0  0  0  0  0  0  0  0  0
  149.4920  159.5950  132.9460 O   0  0  0  0  0  0  0  0  0  0  0  0
  146.6340  160.0990  133.1510 C   0  0  0  0  0  0  0  0  0  0  0  0
  145.3070  159.8390  133.4090 C   0  0  0  0  0  0  0  0  0  0  0  0
  144.2440  160.7100  133.6260 C   0  0  0  0  0  0  0  0  0  0  0  0
  142.9700  160.1560  133.8380 C   0  0  0  0  0  0  0  0  0  0  0  0
  142.7800  158.7500  133.8260 C   0  0  0  0  0  0  0  0  0  0  0  0
  141.4670  158.1950  134.0270 N   0  0  0  0  0  0  0  0  0  0  0  0
  140.2890  158.9840  133.6260 C   0  0  0  0  0  0  0  0  0  0  0  0
  139.2720  158.1250  132.8620 C   0  0  0  0  0  0  0  0  0  0  0  0
  138.7090  157.1260  133.6800 O   0  0  0  0  0  0  0  0  0  0  0  0
  139.1970  155.5870  133.0630 S   0  0  0  0  0  0  0  0  0  0  0  0
  140.9980  155.7870  133.3880 C   0  0  0  0  0  0  0  0  0  0  0  0
  141.3640  156.7960  134.4910 C   0  0  0  0  0  0  0  0  0  0  0  0
  143.8850  157.8990  133.6050 C   0  0  0  0  0  0  0  0  0  0  0  0
  145.1410  158.4790  133.4080 C   0  0  0  0  0  0  0  0  0  0  0  0
  147.5315  155.1035  135.6076 H   0  0  0  0  0  0  0  0  0  0  0  0
  148.6493  156.4827  135.3336 H   0  0  0  0  0  0  0  0  0  0  0  0
  146.8733  156.7523  135.3336 H   0  0  0  0  0  0  0  0  0  0  0  0
  148.5060  156.1900  133.1850 H   0  0  0  0  0  0  0  0  0  0  0  0
  147.3338  153.8015  134.2418 H   0  0  0  0  0  0  0  0  0  0  0  0
  146.8033  154.1823  132.5500 H   0  0  0  0  0  0  0  0  0  0  0  0
  149.6680  156.7450  132.9460 H   0  0  0  0  0  0  0  0  0  0  0  0
  147.1187  161.0839  133.0798 H   0  0  0  0  0  0  0  0  0  0  0  0
  144.3962  161.7994  133.6315 H   0  0  0  0  0  0  0  0  0  0  0  0
  142.1108  160.8196  134.0151 H   0  0  0  0  0  0  0  0  0  0  0  0
  139.8077  159.3914  134.5273 H   0  0  0  0  0  0  0  0  0  0  0  0
  140.6251  159.7942  132.9623 H   0  0  0  0  0  0  0  0  0  0  0  0
  138.4667  158.7748  132.4888 H   0  0  0  0  0  0  0  0  0  0  0  0
  139.7984  157.6301  132.0326 H   0  0  0  0  0  0  0  0  0  0  0  0
  141.4009  154.8057  133.6791 H   0  0  0  0  0  0  0  0  0  0  0  0
  141.4303  156.1857  132.4584 H   0  0  0  0  0  0  0  0  0  0  0  0
  140.5905  156.7483  135.2717 H   0  0  0  0  0  0  0  0  0  0  0  0
  142.3613  156.5123  134.8584 H   0  0  0  0  0  0  0  0  0  0  0  0
  143.7601  156.8062  133.5883 H   0  0  0  0  0  0  0  0  0  0  0  0
  1  2  1  0
  2  3  1  0
  3  4  1  0
  4  5  2  0
  4  6  1  0
  2  7  1  0
  7  8  2  0
  7  9  1  0
  9 10  1  0
 10 11  1  0
 11 12  1  0
 11 13  2  0
 10 14  2  0
 14 15  1  0
 15 16  2  0
 16 17  1  0
 17 18  2  0
 18 19  1  0
 19 20  1  0
 20 21  1  0
 21 22  1  0
 22 23  1  0
 23 24  1  0
 24 25  1  0
 18 26  1  0
 26 27  2  0
 27  9  1  0
 27 15  1  0
 25 19  1  0
  1 28  1  0
  1 29  1  0
  1 30  1  0
  2 31  1  6
  3 32  1  0
  3 33  1  0
 12 34  1  0
 14 35  1  0
 16 36  1  0
 17 37  1  0
 20 38  1  0
 20 39  1  0
 21 40  1  0
 21 41  1  0
 24 42  1  0
 24 43  1  0
 25 44  1  0
 25 45  1  0
 26 46  1  0
M  CHG  3   2   1   6  -1  12  -1
M  END
>  <UniqueID>  (96) 
96

>  <SMILES>  (96) 
C[N@@H+](CC(=O)[O-])C(=O)n1c(C([NH-])=O)cc2ccc(N3CCOSCC3)cc21

>  <Energy>  (96) 
99.20292246018143

>  <Genealogy>  (96) 
C[NH+](CC(=O)[O-])C(=O)n1c(C([NH-])=O)cc2ccc(N3CCOSCC3)cc21 (protonated)
C[N@@H+](CC(=O)[O-])C(=O)n1c(C([NH-])=O)cc2ccc(N3CCOSCC3)cc21 (chirality)
C[N@@H+](CC(=O)[O-])C(=O)n1c(C([NH-])=O)cc2ccc(N3CCOSCC3)cc21 (3D coordinates assigned)
C[N@@H+](CC(=O)[O-])C(=O)n1c(C([NH-])=O)cc2ccc(N3CCOSCC3)cc21 (nonaromatic ring conformer: 99.20292246018143 kcal/mol)

>  <smiles>  (96) 
CN(CC(=O)O)C(=O)n1c(C(N)=O)cc2ccc(N3CCOSCC3)cc21

>  <score_type>  (96) 
oracle

>  <origin>  (96) 
adg

>  <m_score__min__energy>  (96) 
-4.9800000000000004

>  <m_primary>  (96) 
energy

$$$$
97:0
     RDKit          3D

 47 48  0  0  0  0  0  0  0  0999 V2000
  148.8050  154.4040  132.6140 C   0  0  0  0  0  0  0  0  0  0  0  0
  147.5030  154.7830  133.1750 N   0  0  0  0  0  0  0  0  0  0  0  0
  146.6900  155.7870  132.4760 C   0  0  0  0  0  0  0  0  0  0  0  0
  145.5930  156.2880  133.3620 C   0  0  0  0  0  0  0  0  0  0  0  0
  145.8580  157.0700  134.3150 O   0  0  0  0  0  0  0  0  0  0  0  0
  144.2840  155.8430  133.1490 O   0  0  0  0  0  0  0  0  0  0  0  0
  143.9840  154.6760  132.3920 C   0  0  0  0  0  0  0  0  0  0  0  0
  142.9740  153.9230  133.0560 O   0  0  0  0  0  0  0  0  0  0  0  0
  141.7160  154.4500  133.3630 C   0  0  0  0  0  0  0  0  0  0  0  0
  140.6710  153.9050  132.9120 O   0  0  0  0  0  0  0  0  0  0  0  0
  141.6110  155.6220  134.1860 N   0  0  0  0  0  0  0  0  0  0  0  0
  142.2230  155.8520  135.3820 C   0  0  0  0  0  0  0  0  0  0  0  0
  142.9970  154.8650  136.1610 C   0  0  0  0  0  0  0  0  0  0  0  0
  144.1560  154.2350  135.6150 N   0  0  0  0  0  0  0  0  0  0  0  0
  142.5980  154.5330  137.3090 O   0  0  0  0  0  0  0  0  0  0  0  0
  141.9780  157.1520  135.8170 C   0  0  0  0  0  0  0  0  0  0  0  0
  141.1790  157.7140  134.8480 C   0  0  0  0  0  0  0  0  0  0  0  0
  140.6350  158.9930  134.7690 C   0  0  0  0  0  0  0  0  0  0  0  0
  139.8680  159.3140  133.6380 C   0  0  0  0  0  0  0  0  0  0  0  0
  139.6800  158.3680  132.5960 C   0  0  0  0  0  0  0  0  0  0  0  0
  138.8250  158.7130  131.4030 C   0  0  0  0  0  0  0  0  0  0  0  0
  138.4380  157.5680  130.7280 F   0  0  0  0  0  0  0  0  0  0  0  0
  137.6950  159.3870  131.8300 F   0  0  0  0  0  0  0  0  0  0  0  0
  139.5220  159.5200  130.5190 F   0  0  0  0  0  0  0  0  0  0  0  0
  140.2300  157.0710  132.7250 C   0  0  0  0  0  0  0  0  0  0  0  0
  140.9730  156.7710  133.8730 C   0  0  0  0  0  0  0  0  0  0  0  0
  147.0800  154.2650  134.4570 C   0  0  0  0  0  0  0  0  0  0  0  0
  146.1920  153.3680  134.5040 O   0  0  0  0  0  0  0  0  0  0  0  0
  147.6380  154.8250  135.7440 C   0  0  0  0  0  0  0  0  0  0  0  0
  147.6960  153.7960  136.8320 C   0  0  0  0  0  0  0  0  0  0  0  0
  148.7660  153.6070  137.4710 O   0  0  0  0  0  0  0  0  0  0  0  0
  146.5870  153.0040  137.0970 O   0  0  0  0  0  0  0  0  0  0  0  0
  149.5110  154.1985  133.4321 H   0  0  0  0  0  0  0  0  0  0  0  0
  148.6890  153.5024  131.9947 H   0  0  0  0  0  0  0  0  0  0  0  0
  149.1910  155.2271  131.9947 H   0  0  0  0  0  0  0  0  0  0  0  0
  147.3316  156.6311  132.1829 H   0  0  0  0  0  0  0  0  0  0  0  0
  146.2416  155.3220  131.5857 H   0  0  0  0  0  0  0  0  0  0  0  0
  143.6258  154.9689  131.3940 H   0  0  0  0  0  0  0  0  0  0  0  0
  144.8912  154.0621  132.2918 H   0  0  0  0  0  0  0  0  0  0  0  0
  144.4210  154.3660  134.6150 H   0  0  0  0  0  0  0  0  0  0  0  0
  144.7150  153.5710  136.1960 H   0  0  0  0  0  0  0  0  0  0  0  0
  142.3448  157.6279  136.7384 H   0  0  0  0  0  0  0  0  0  0  0  0
  140.8012  159.7298  135.5687 H   0  0  0  0  0  0  0  0  0  0  0  0
  139.4074  160.3097  133.5581 H   0  0  0  0  0  0  0  0  0  0  0  0
  140.0772  156.3150  131.9407 H   0  0  0  0  0  0  0  0  0  0  0  0
  148.6552  155.1990  135.5558 H   0  0  0  0  0  0  0  0  0  0  0  0
  146.9697  155.6322  136.0784 H   0  0  0  0  0  0  0  0  0  0  0  0
  1  2  1  0
  2  3  1  0
  3  4  1  0
  4  5  2  0
  4  6  1  0
  6  7  1  0
  7  8  1  0
  8  9  1  0
  9 10  2  0
  9 11  1  0
 11 12  1  0
 12 13  1  0
 13 14  1  0
 13 15  2  0
 12 16  2  0
 16 17  1  0
 17 18  2  0
 18 19  1  0
 19 20  2  0
 20 21  1  0
 21 22  1  0
 21 23  1  0
 21 24  1  0
 20 25  1  0
 25 26  2  0
  2 27  1  0
 27 28  2  0
 27 29  1  0
 29 30  1  0
 30 31  2  0
 30 32  1  0
 26 11  1  0
 26 17  1  0
  1 33  1  0
  1 34  1  0
  1 35  1  0
  3 36  1  0
  3 37  1  0
  7 38  1  0
  7 39  1  0
 14 40  1  0
 14 41  1  0
 16 42  1  0
 18 43  1  0
 19 44  1  0
 25 45  1  0
 29 46  1  0
 29 47  1  0
M  CHG  1  32  -1
M  END
>  <UniqueID>  (97) 
97

>  <SMILES>  (97) 
CN(CC(=O)OCOC(=O)n1c(C(N)=O)cc2ccc(C(F)(F)F)cc21)C(=O)CC(=O)[O-]

>  <Energy>  (97) 
80.85085956268276

>  <Genealogy>  (97) 
CN(CC(=O)OCOC(=O)n1c(C(N)=O)cc2ccc(C(F)(F)F)cc21)C(=O)CC(=O)[O-] (protonated)
CN(CC(=O)OCOC(=O)n1c(C(N)=O)cc2ccc(C(F)(F)F)cc21)C(=O)CC(=O)[O-] (3D coordinates assigned)
CN(CC(=O)OCOC(=O)n1c(C(N)=O)cc2ccc(C(F)(F)F)cc21)C(=O)CC(=O)[O-] (optimized conformer: 80.85085956268276 kcal/mol)

>  <smiles>  (97) 
CN(CC(=O)OCOC(=O)n1c(C(N)=O)cc2ccc(C(F)(F)F)cc21)C(=O)CC(=O)O

>  <score_type>  (97) 
oracle

>  <origin>  (97) 
adg

>  <m_score__min__energy>  (97) 
-6.4000000000000004

>  <m_primary>  (97) 
energy

$$$$
98:0
     RDKit          3D

 39 40  0  0  0  0  0  0  0  0999 V2000
  141.5600  151.8130  132.6070 C   0  0  0  0  0  0  0  0  0  0  0  0
  141.2850  152.8440  133.7100 C   0  0  1  0  0  0  0  0  0  0  0  0
  141.6740  152.3450  135.0770 C   0  0  0  0  0  0  0  0  0  0  0  0
  142.5710  152.9210  135.7500 O   0  0  0  0  0  0  0  0  0  0  0  0
  140.9980  151.2640  135.6300 O   0  0  0  0  0  0  0  0  0  0  0  0
  141.9530  154.1250  133.4100 N   0  0  0  0  0  0  0  0  0  0  0  0
  143.3360  154.1430  132.9090 C   0  0  0  0  0  0  0  0  0  0  0  0
  141.1710  155.3400  133.4030 C   0  0  0  0  0  0  0  0  0  0  0  0
  139.9130  155.2640  133.3480 O   0  0  0  0  0  0  0  0  0  0  0  0
  141.7950  156.6810  133.4650 C   0  0  0  0  0  0  0  0  0  0  0  0
  142.4990  157.1080  132.5110 O   0  0  0  0  0  0  0  0  0  0  0  0
  141.5910  157.5210  134.6090 N   0  0  0  0  0  0  0  0  0  0  0  0
  141.4630  158.8780  134.6470 C   0  0  0  0  0  0  0  0  0  0  0  0
  141.4000  159.7750  133.4730 C   0  0  0  0  0  0  0  0  0  0  0  0
  140.8380  159.3320  132.2400 N   0  0  0  0  0  0  0  0  0  0  0  0
  141.8210  160.9590  133.5690 O   0  0  0  0  0  0  0  0  0  0  0  0
  141.3340  159.3150  135.9650 C   0  0  0  0  0  0  0  0  0  0  0  0
  141.3760  158.1740  136.7350 C   0  0  0  0  0  0  0  0  0  0  0  0
  141.2940  158.0180  138.1160 C   0  0  0  0  0  0  0  0  0  0  0  0
  141.3800  156.7150  138.6350 C   0  0  0  0  0  0  0  0  0  0  0  0
  141.5460  155.6010  137.7750 C   0  0  0  0  0  0  0  0  0  0  0  0
  141.6430  154.2180  138.3520 C   0  0  0  0  0  0  0  0  0  0  0  0
  142.3800  154.2530  139.5220 F   0  0  0  0  0  0  0  0  0  0  0  0
  140.3750  153.7380  138.6260 F   0  0  0  0  0  0  0  0  0  0  0  0
  141.6250  155.7990  136.3780 C   0  0  0  0  0  0  0  0  0  0  0  0
  141.5280  157.1070  135.8900 C   0  0  0  0  0  0  0  0  0  0  0  0
  141.8178  150.8465  133.0645 H   0  0  0  0  0  0  0  0  0  0  0  0
  140.6618  151.6953  131.9829 H   0  0  0  0  0  0  0  0  0  0  0  0
  142.3975  152.1582  131.9829 H   0  0  0  0  0  0  0  0  0  0  0  0
  140.1976  153.0088  133.7278 H   0  0  0  0  0  0  0  0  0  0  0  0
  144.0339  154.1521  133.7592 H   0  0  0  0  0  0  0  0  0  0  0  0
  143.5158  153.2471  132.2966 H   0  0  0  0  0  0  0  0  0  0  0  0
  143.4924  155.0433  132.2966 H   0  0  0  0  0  0  0  0  0  0  0  0
  141.3850  158.7300  131.5860 H   0  0  0  0  0  0  0  0  0  0  0  0
  141.2223  160.3517  136.3154 H   0  0  0  0  0  0  0  0  0  0  0  0
  141.1661  158.8863  138.7791 H   0  0  0  0  0  0  0  0  0  0  0  0
  141.3177  156.5578  139.7219 H   0  0  0  0  0  0  0  0  0  0  0  0
  142.1375  153.5573  137.6247 H   0  0  0  0  0  0  0  0  0  0  0  0
  141.7590  154.9486  135.6932 H   0  0  0  0  0  0  0  0  0  0  0  0
  1  2  1  0
  2  3  1  0
  3  4  2  0
  3  5  1  0
  2  6  1  0
  6  7  1  0
  6  8  1  0
  8  9  2  0
  8 10  1  0
 10 11  2  0
 10 12  1  0
 12 13  1  0
 13 14  1  0
 14 15  1  0
 14 16  2  0
 13 17  2  0
 17 18  1  0
 18 19  2  0
 19 20  1  0
 20 21  2  0
 21 22  1  0
 22 23  1  0
 22 24  1  0
 21 25  1  0
 25 26  2  0
 26 12  1  0
 26 18  1  0
  1 27  1  0
  1 28  1  0
  1 29  1  0
  2 30  1  1
  7 31  1  0
  7 32  1  0
  7 33  1  0
 15 34  1  0
 17 35  1  0
 19 36  1  0
 20 37  1  0
 22 38  1  0
 25 39  1  0
M  CHG  2   5  -1  15  -1
M  END
>  <UniqueID>  (98) 
98

>  <SMILES>  (98) 
C[C@@H](C(=O)[O-])N(C)C(=O)C(=O)n1c(C([NH-])=O)cc2ccc(C(F)F)cc21

>  <Energy>  (98) 
79.80707977224849

>  <Genealogy>  (98) 
CC(C(=O)[O-])N(C)C(=O)C(=O)n1c(C([NH-])=O)cc2ccc(C(F)F)cc21 (protonated)
C[C@@H](C(=O)[O-])N(C)C(=O)C(=O)n1c(C([NH-])=O)cc2ccc(C(F)F)cc21 (chirality)
C[C@@H](C(=O)[O-])N(C)C(=O)C(=O)n1c(C([NH-])=O)cc2ccc(C(F)F)cc21 (3D coordinates assigned)
C[C@@H](C(=O)[O-])N(C)C(=O)C(=O)n1c(C([NH-])=O)cc2ccc(C(F)F)cc21 (optimized conformer: 79.80707977224849 kcal/mol)

>  <smiles>  (98) 
CC(C(=O)O)N(C)C(=O)C(=O)n1c(C(N)=O)cc2ccc(C(F)F)cc21

>  <score_type>  (98) 
oracle

>  <origin>  (98) 
adg

>  <m_score__min__energy>  (98) 
-6.6299999999999999

>  <m_primary>  (98) 
energy

$$$$
