0:0
     RDKit          3D

 31 32  0  0  0  0  0  0  0  0999 V2000
  141.7960  161.7720  132.9880 H   0  0  0  0  0  0  0  0  0  0  0  0
  141.3330  160.9110  133.3540 N   0  0  0  0  0  0  0  0  0  0  0  0
  141.9610  160.1090  134.3520 C   0  0  0  0  0  0  0  0  0  0  0  0
  141.3530  159.8830  135.4310 O   0  0  0  0  0  0  0  0  0  0  0  0
  143.2830  159.4950  134.1140 C   0  0  0  0  0  0  0  0  0  0  0  0
  143.4840  158.1180  134.0370 C   0  0  0  0  0  0  0  0  0  0  0  0
  142.7379  157.3258  134.1975 H   0  0  0  0  0  0  0  0  0  0  0  0
  144.8120  157.9590  133.7180 C   0  0  0  0  0  0  0  0  0  0  0  0
  145.5520  156.7980  133.5210 C   0  0  0  0  0  0  0  0  0  0  0  0
  145.0819  155.8064  133.5961 H   0  0  0  0  0  0  0  0  0  0  0  0
  146.9190  156.9310  133.2230 C   0  0  0  0  0  0  0  0  0  0  0  0
  147.5284  156.0320  133.0486 H   0  0  0  0  0  0  0  0  0  0  0  0
  147.5200  158.2120  133.1450 C   0  0  0  0  0  0  0  0  0  0  0  0
  148.9800  158.3380  132.8010 C   0  0  0  0  0  0  0  0  0  0  0  0
  149.4710  158.9879  133.5402 H   0  0  0  0  0  0  0  0  0  0  0  0
  149.4354  157.3368  132.8133 H   0  0  0  0  0  0  0  0  0  0  0  0
  149.1500  158.9310  131.4320 C   0  0  0  0  0  0  0  0  0  0  0  0
  149.2313  158.2616  130.5630 H   0  0  0  0  0  0  0  0  0  0  0  0
  149.2050  160.2580  131.2440 C   0  0  0  0  0  0  0  0  0  0  0  0
  149.1244  160.9286  132.1122 H   0  0  0  0  0  0  0  0  0  0  0  0
  149.3740  160.8460  129.8760 C   0  0  0  0  0  0  0  0  0  0  0  0
  150.2521  160.3930  129.3925 H   0  0  0  0  0  0  0  0  0  0  0  0
  148.4696  160.6406  129.2845 H   0  0  0  0  0  0  0  0  0  0  0  0
  149.6070  162.6090  129.9840 Cl  0  0  0  0  0  0  0  0  0  0  0  0
  146.7340  159.3690  133.3440 C   0  0  0  0  0  0  0  0  0  0  0  0
  147.1821  160.3718  133.2841 H   0  0  0  0  0  0  0  0  0  0  0  0
  145.3720  159.2080  133.6190 C   0  0  0  0  0  0  0  0  0  0  0  0
  144.4460  160.1630  133.8620 N   0  0  0  0  0  0  0  0  0  0  0  0
  144.6820  161.5780  133.9240 C   0  0  0  0  0  0  0  0  0  0  0  0
  143.8220  162.3860  133.4820 O   0  0  0  0  0  0  0  0  0  0  0  0
  145.8490  162.0710  134.4940 O   0  0  0  0  0  0  0  0  0  0  0  0
  1  2  1  0
  2  3  1  0
  3  4  2  0
  3  5  1  0
  5  6  2  0
  6  7  1  0
  6  8  1  0
  8  9  2  0
  9 10  1  0
  9 11  1  0
 11 12  1  0
 11 13  2  0
 13 14  1  0
 14 15  1  0
 14 16  1  0
 14 17  1  0
 17 18  1  0
 17 19  2  0
 19 20  1  0
 19 21  1  0
 21 22  1  0
 21 23  1  0
 21 24  1  0
 13 25  1  0
 25 26  1  0
 25 27  2  0
 27 28  1  0
 28 29  1  0
 29 30  2  0
 29 31  1  0
 28  5  1  0
 27  8  1  0
M  CHG  2   2  -1  31  -1
M  END
>  <UniqueID>  (1) 
1

>  <SMILES>  (1) 
[NH-]C(=O)c1cc2ccc(C/C=C/CCl)cc2n1C(=O)[O-]

>  <Energy>  (1) 
65.29814279087971

>  <Genealogy>  (1) 
[NH-]C(=O)c1cc2ccc(C/C=C/CCl)cc2n1C(=O)[O-] (protonated)
[NH-]C(=O)c1cc2ccc(C/C=C/CCl)cc2n1C(=O)[O-] (cis-trans isomerization)
[NH-]C(=O)c1cc2ccc(C/C=C/CCl)cc2n1C(=O)[O-] (3D coordinates assigned)
[NH-]C(=O)c1cc2ccc(C/C=C/CCl)cc2n1C(=O)[O-] (optimized conformer: 65.29814279087971 kcal/mol)

>  <smiles>  (1) 
NC(=O)c1cc2ccc(C/C=C/CCl)cc2n1C(=O)O

>  <score_type>  (1) 
oracle

>  <origin>  (1) 
adg

>  <m_score__min__energy>  (1) 
-7.2300000000000004

>  <m_primary>  (1) 
energy

$$$$
1:0
     RDKit          3D

 30 32  0  0  0  0  0  0  0  0999 V2000
  145.4530  153.0030  134.3320 N   0  0  0  0  0  0  0  0  0  0  0  0
  146.3010  153.9290  135.0090 C   0  0  0  0  0  0  0  0  0  0  0  0
  146.7030  153.6590  136.1720 O   0  0  0  0  0  0  0  0  0  0  0  0
  146.7530  155.1700  134.3470 C   0  0  0  0  0  0  0  0  0  0  0  0
  146.1660  156.4150  134.5640 C   0  0  0  0  0  0  0  0  0  0  0  0
  146.9300  157.3080  133.8470 C   0  0  0  0  0  0  0  0  0  0  0  0
  146.7970  158.6840  133.7000 C   0  0  0  0  0  0  0  0  0  0  0  0
  147.7200  159.3530  132.8790 C   0  0  0  0  0  0  0  0  0  0  0  0
  148.7570  158.6370  132.2120 C   0  0  0  0  0  0  0  0  0  0  0  0
  149.7820  159.2950  131.3020 C   0  0  0  0  0  0  0  0  0  0  0  0
  149.3100  159.7320  129.9220 C   0  0  0  0  0  0  0  0  0  0  0  0
  149.5930  160.7740  130.9960 C   0  0  0  0  0  0  0  0  0  0  0  0
  148.8520  157.2390  132.3920 C   0  0  0  0  0  0  0  0  0  0  0  0
  147.9270  156.6040  133.2280 C   0  0  0  0  0  0  0  0  0  0  0  0
  147.8300  155.2890  133.5200 N   0  0  0  0  0  0  0  0  0  0  0  0
  148.6550  154.2400  132.9870 C   0  0  0  0  0  0  0  0  0  0  0  0
  148.3270  152.8710  133.2250 N   0  0  0  0  0  0  0  0  0  0  0  0
  149.6550  154.5260  132.2760 O   0  0  0  0  0  0  0  0  0  0  0  0
  145.8540  152.2450  133.7370 H   0  0  0  0  0  0  0  0  0  0  0  0
  145.2805  156.6370  135.1777 H   0  0  0  0  0  0  0  0  0  0  0  0
  145.9926  159.2329  134.2116 H   0  0  0  0  0  0  0  0  0  0  0  0
  147.6417  160.4425  132.7491 H   0  0  0  0  0  0  0  0  0  0  0  0
  150.6097  158.6782  131.6821 H   0  0  0  0  0  0  0  0  0  0  0  0
  149.9815  159.6384  129.0558 H   0  0  0  0  0  0  0  0  0  0  0  0
  148.4496  159.4892  129.2811 H   0  0  0  0  0  0  0  0  0  0  0  0
  150.4689  161.4332  130.9055 H   0  0  0  0  0  0  0  0  0  0  0  0
  149.0216  161.5958  131.4522 H   0  0  0  0  0  0  0  0  0  0  0  0
  149.6382  156.6607  131.8846 H   0  0  0  0  0  0  0  0  0  0  0  0
  148.9340  152.1110  132.8480 H   0  0  0  0  0  0  0  0  0  0  0  0
  147.4600  152.6160  133.7480 H   0  0  0  0  0  0  0  0  0  0  0  0
  1  2  1  0
  2  3  2  0
  2  4  1  0
  4  5  2  0
  5  6  1  0
  6  7  2  0
  7  8  1  0
  8  9  2  0
  9 10  1  0
 10 11  1  0
 11 12  1  0
  9 13  1  0
 13 14  2  0
 14 15  1  0
 15 16  1  0
 16 17  1  0
 16 18  2  0
 15  4  1  0
 14  6  1  0
 12 10  1  0
  1 19  1  0
  5 20  1  0
  7 21  1  0
  8 22  1  0
 10 23  1  0
 11 24  1  0
 11 25  1  0
 12 26  1  0
 12 27  1  0
 13 28  1  0
 17 29  1  0
 17 30  1  0
M  CHG  1   1  -1
M  END
>  <UniqueID>  (2) 
2

>  <SMILES>  (2) 
[NH-]C(=O)c1cc2ccc(C3CC3)cc2n1C(N)=O

>  <Energy>  (2) 
337.76791414542527

>  <Genealogy>  (2) 
[NH-]C(=O)c1cc2ccc(C3CC3)cc2n1C(N)=O (protonated)
[NH-]C(=O)c1cc2ccc(C3CC3)cc2n1C(N)=O (3D coordinates assigned)
[NH-]C(=O)c1cc2ccc(C3CC3)cc2n1C(N)=O (nonaromatic ring conformer: 337.76791414542527 kcal/mol)

>  <smiles>  (2) 
NC(=O)c1cc2ccc(C3CC3)cc2n1C(N)=O

>  <score_type>  (2) 
oracle

>  <origin>  (2) 
adg

>  <m_score__min__energy>  (2) 
-6.8200000000000003

>  <m_primary>  (2) 
energy

$$$$
2:0
     RDKit          3D

 34 35  0  0  0  0  0  0  0  0999 V2000
  145.8000  162.7720  134.5820 C   0  0  0  0  0  0  0  0  0  0  0  0
  144.7130  161.8220  134.0950 C   0  0  0  0  0  0  0  0  0  0  0  0
  145.0120  160.4800  134.4710 O   0  0  0  0  0  0  0  0  0  0  0  0
  144.8570  159.3840  133.6130 C   0  0  0  0  0  0  0  0  0  0  0  0
  143.7610  159.1920  133.0170 O   0  0  0  0  0  0  0  0  0  0  0  0
  145.9560  158.4870  133.3950 N   0  0  0  0  0  0  0  0  0  0  0  0
  146.0970  157.2130  133.8600 C   0  0  0  0  0  0  0  0  0  0  0  0
  145.0620  156.4280  134.5640 C   0  0  0  0  0  0  0  0  0  0  0  0
  143.6880  156.7900  134.4380 N   0  0  0  0  0  0  0  0  0  0  0  0
  145.3790  155.4620  135.3060 O   0  0  0  0  0  0  0  0  0  0  0  0
  147.3430  156.7000  133.5090 C   0  0  0  0  0  0  0  0  0  0  0  0
  147.9660  157.7040  132.8030 C   0  0  0  0  0  0  0  0  0  0  0  0
  149.2350  157.7420  132.2320 C   0  0  0  0  0  0  0  0  0  0  0  0
  149.6330  158.9270  131.5910 C   0  0  0  0  0  0  0  0  0  0  0  0
  148.7610  160.0420  131.5300 C   0  0  0  0  0  0  0  0  0  0  0  0
  149.2160  161.3220  130.8810 C   0  0  0  0  0  0  0  0  0  0  0  0
  149.6100  161.0790  129.4280 C   0  0  0  0  0  0  0  0  0  0  0  0
  147.4860  159.9700  132.1310 C   0  0  0  0  0  0  0  0  0  0  0  0
  147.1090  158.7710  132.7480 C   0  0  0  0  0  0  0  0  0  0  0  0
  145.8120  162.7825  135.6819 H   0  0  0  0  0  0  0  0  0  0  0  0
  146.7774  162.4334  134.2079 H   0  0  0  0  0  0  0  0  0  0  0  0
  145.5954  163.7860  134.2079 H   0  0  0  0  0  0  0  0  0  0  0  0
  143.7507  162.1158  134.5397 H   0  0  0  0  0  0  0  0  0  0  0  0
  144.6592  161.8785  132.9978 H   0  0  0  0  0  0  0  0  0  0  0  0
  143.3740  157.7720  134.5990 H   0  0  0  0  0  0  0  0  0  0  0  0
  147.7444  155.7036  133.7458 H   0  0  0  0  0  0  0  0  0  0  0  0
  149.9053  156.8712  132.2812 H   0  0  0  0  0  0  0  0  0  0  0  0
  150.6308  158.9898  131.1322 H   0  0  0  0  0  0  0  0  0  0  0  0
  148.3968  162.0553  130.9152 H   0  0  0  0  0  0  0  0  0  0  0  0
  150.0922  161.7030  131.4261 H   0  0  0  0  0  0  0  0  0  0  0  0
  150.5458  160.5018  129.3934 H   0  0  0  0  0  0  0  0  0  0  0  0
  148.8127  160.5155  128.9212 H   0  0  0  0  0  0  0  0  0  0  0  0
  149.7557  162.0444  128.9212 H   0  0  0  0  0  0  0  0  0  0  0  0
  146.8056  160.8341  132.1151 H   0  0  0  0  0  0  0  0  0  0  0  0
  1  2  1  0
  2  3  1  0
  3  4  1  0
  4  5  2  0
  4  6  1  0
  6  7  1  0
  7  8  1  0
  8  9  1  0
  8 10  2  0
  7 11  2  0
 11 12  1  0
 12 13  2  0
 13 14  1  0
 14 15  2  0
 15 16  1  0
 16 17  1  0
 15 18  1  0
 18 19  2  0
 19  6  1  0
 19 12  1  0
  1 20  1  0
  1 21  1  0
  1 22  1  0
  2 23  1  0
  2 24  1  0
  9 25  1  0
 11 26  1  0
 13 27  1  0
 14 28  1  0
 16 29  1  0
 16 30  1  0
 17 31  1  0
 17 32  1  0
 17 33  1  0
 18 34  1  0
M  CHG  1   9  -1
M  END
>  <UniqueID>  (3) 
3

>  <SMILES>  (3) 
CCOC(=O)n1c(C([NH-])=O)cc2ccc(CC)cc21

>  <Energy>  (3) 
65.47318987046935

>  <Genealogy>  (3) 
CCOC(=O)n1c(C([NH-])=O)cc2ccc(CC)cc21 (protonated)
CCOC(=O)n1c(C([NH-])=O)cc2ccc(CC)cc21 (3D coordinates assigned)
CCOC(=O)n1c(C([NH-])=O)cc2ccc(CC)cc21 (optimized conformer: 65.47318987046935 kcal/mol)

>  <smiles>  (3) 
CCOC(=O)n1c(C(N)=O)cc2ccc(CC)cc21

>  <score_type>  (3) 
oracle

>  <origin>  (3) 
adg

>  <m_score__min__energy>  (3) 
-6.1900000000000004

>  <m_primary>  (3) 
energy

$$$$
3:0
     RDKit          3D

 25 26  0  0  0  0  0  0  0  0999 V2000
  149.2330  162.0010  130.3540 C   0  0  0  0  0  0  0  0  0  0  0  0
  149.0230  160.6970  131.0640 C   0  0  0  0  0  0  0  0  0  0  0  0
  150.0680  159.7420  131.1130 C   0  0  0  0  0  0  0  0  0  0  0  0
  149.9030  158.5380  131.8190 C   0  0  0  0  0  0  0  0  0  0  0  0
  148.6890  158.3220  132.4640 C   0  0  0  0  0  0  0  0  0  0  0  0
  148.2820  157.2660  133.2470 C   0  0  0  0  0  0  0  0  0  0  0  0
  146.9900  157.5860  133.6520 C   0  0  0  0  0  0  0  0  0  0  0  0
  146.1510  156.6870  134.4700 C   0  0  0  0  0  0  0  0  0  0  0  0
  144.7250  156.7480  134.4090 N   0  0  0  0  0  0  0  0  0  0  0  0
  146.7000  155.8120  135.1910 O   0  0  0  0  0  0  0  0  0  0  0  0
  146.6130  158.7980  133.1540 N   0  0  0  0  0  0  0  0  0  0  0  0
  145.4050  159.5230  133.4380 C   0  0  0  0  0  0  0  0  0  0  0  0
  145.4460  160.5910  134.1050 O   0  0  0  0  0  0  0  0  0  0  0  0
  144.1790  159.0570  132.9820 O   0  0  0  0  0  0  0  0  0  0  0  0
  147.6660  159.2350  132.4240 C   0  0  0  0  0  0  0  0  0  0  0  0
  147.8120  160.4520  131.7470 C   0  0  0  0  0  0  0  0  0  0  0  0
  149.3624  162.8046  131.0939 H   0  0  0  0  0  0  0  0  0  0  0  0
  150.1320  161.9347  129.7237 H   0  0  0  0  0  0  0  0  0  0  0  0
  148.3586  162.2203  129.7237 H   0  0  0  0  0  0  0  0  0  0  0  0
  151.0166  159.9444  130.5942 H   0  0  0  0  0  0  0  0  0  0  0  0
  150.7083  157.7898  131.8604 H   0  0  0  0  0  0  0  0  0  0  0  0
  148.8557  156.3619  133.4989 H   0  0  0  0  0  0  0  0  0  0  0  0
  144.1480  156.1310  135.0220 H   0  0  0  0  0  0  0  0  0  0  0  0
  144.2410  157.3410  133.7000 H   0  0  0  0  0  0  0  0  0  0  0  0
  147.0037  161.1981  131.7473 H   0  0  0  0  0  0  0  0  0  0  0  0
  1  2  1  0
  2  3  2  0
  3  4  1  0
  4  5  2  0
  5  6  1  0
  6  7  2  0
  7  8  1  0
  8  9  1  0
  8 10  2  0
  7 11  1  0
 11 12  1  0
 12 13  2  0
 12 14  1  0
 11 15  1  0
 15 16  2  0
 16  2  1  0
 15  5  1  0
  1 17  1  0
  1 18  1  0
  1 19  1  0
  3 20  1  0
  4 21  1  0
  6 22  1  0
  9 23  1  0
  9 24  1  0
 16 25  1  0
M  CHG  1  14  -1
M  END
>  <UniqueID>  (4) 
4

>  <SMILES>  (4) 
Cc1ccc2cc(C(N)=O)n(C(=O)[O-])c2c1

>  <Energy>  (4) 
64.9143651577729

>  <Genealogy>  (4) 
Cc1ccc2cc(C(N)=O)n(C(=O)[O-])c2c1 (protonated)
Cc1ccc2cc(C(N)=O)n(C(=O)[O-])c2c1 (3D coordinates assigned)
Cc1ccc2cc(C(N)=O)n(C(=O)[O-])c2c1 (optimized conformer: 64.9143651577729 kcal/mol)

>  <smiles>  (4) 
Cc1ccc2cc(C(N)=O)n(C(=O)O)c2c1

>  <score_type>  (4) 
oracle

>  <origin>  (4) 
adg

>  <m_score__min__energy>  (4) 
-5.7000000000000002

>  <m_primary>  (4) 
energy

$$$$
4:0
     RDKit          3D

 41 43  0  0  0  0  0  0  0  0999 V2000
  140.4490  154.5470  133.3390 C   0  0  0  0  0  0  0  0  0  0  0  0
  140.9730  153.1370  133.0940 C   0  0  0  0  0  0  0  0  0  0  0  0
  141.3780  152.5310  134.3200 O   0  0  0  0  0  0  0  0  0  0  0  0
  142.2480  153.1410  135.2320 C   0  0  0  0  0  0  0  0  0  0  0  0
  143.4730  153.2640  134.9590 O   0  0  0  0  0  0  0  0  0  0  0  0
  141.7350  153.6550  136.4700 N   0  0  0  0  0  0  0  0  0  0  0  0
  141.3360  152.9520  137.5690 C   0  0  0  0  0  0  0  0  0  0  0  0
  141.2050  151.4830  137.6610 C   0  0  0  0  0  0  0  0  0  0  0  0
  140.6330  150.7290  136.5950 N   0  0  0  0  0  0  0  0  0  0  0  0
  141.5610  150.8910  138.7140 O   0  0  0  0  0  0  0  0  0  0  0  0
  140.9730  153.8190  138.5960 C   0  0  0  0  0  0  0  0  0  0  0  0
  141.1520  155.0860  138.0870 C   0  0  0  0  0  0  0  0  0  0  0  0
  140.9390  156.3270  138.6790 C   0  0  0  0  0  0  0  0  0  0  0  0
  141.2250  157.4750  137.9220 C   0  0  0  0  0  0  0  0  0  0  0  0
  141.7320  157.3620  136.6030 C   0  0  0  0  0  0  0  0  0  0  0  0
  142.0060  158.5960  135.7890 C   0  0  0  0  0  0  0  0  0  0  0  0
  140.9810  158.7330  134.6970 C   0  0  0  0  0  0  0  0  0  0  0  0
  139.7880  157.9930  134.7490 C   0  0  0  0  0  0  0  0  0  0  0  0
  138.8530  158.0900  133.7140 C   0  0  0  0  0  0  0  0  0  0  0  0
  139.1050  158.9170  132.6150 C   0  0  0  0  0  0  0  0  0  0  0  0
  137.9320  159.0350  131.3170 Cl  0  0  0  0  0  0  0  0  0  0  0  0
  140.2960  159.6470  132.5510 C   0  0  0  0  0  0  0  0  0  0  0  0
  141.2340  159.5530  133.5840 C   0  0  0  0  0  0  0  0  0  0  0  0
  141.9280  156.0840  136.0330 C   0  0  0  0  0  0  0  0  0  0  0  0
  141.6130  154.9590  136.8030 C   0  0  0  0  0  0  0  0  0  0  0  0
  140.3810  154.7299  134.4216 H   0  0  0  0  0  0  0  0  0  0  0  0
  141.1358  155.2772  132.8862 H   0  0  0  0  0  0  0  0  0  0  0  0
  139.4520  154.6515  132.8862 H   0  0  0  0  0  0  0  0  0  0  0  0
  140.1776  152.5303  132.6365 H   0  0  0  0  0  0  0  0  0  0  0  0
  141.8426  153.1939  132.4227 H   0  0  0  0  0  0  0  0  0  0  0  0
  140.9730  150.8410  135.6140 H   0  0  0  0  0  0  0  0  0  0  0  0
  140.6182  153.5490  139.6016 H   0  0  0  0  0  0  0  0  0  0  0  0
  140.5584  156.4066  139.7080 H   0  0  0  0  0  0  0  0  0  0  0  0
  141.0540  158.4709  138.3566 H   0  0  0  0  0  0  0  0  0  0  0  0
  141.9620  159.4799  136.4422 H   0  0  0  0  0  0  0  0  0  0  0  0
  143.0053  158.5143  135.3366 H   0  0  0  0  0  0  0  0  0  0  0  0
  139.5887  157.3346  135.6074 H   0  0  0  0  0  0  0  0  0  0  0  0
  137.9170  157.5144  133.7644 H   0  0  0  0  0  0  0  0  0  0  0  0
  140.4956  160.2967  131.6861 H   0  0  0  0  0  0  0  0  0  0  0  0
  142.1731  160.1228  133.5252 H   0  0  0  0  0  0  0  0  0  0  0  0
  142.3182  155.9763  135.0102 H   0  0  0  0  0  0  0  0  0  0  0  0
  1  2  1  0
  2  3  1  0
  3  4  1  0
  4  5  2  0
  4  6  1  0
  6  7  1  0
  7  8  1  0
  8  9  1  0
  8 10  2  0
  7 11  2  0
 11 12  1  0
 12 13  2  0
 13 14  1  0
 14 15  2  0
 15 16  1  0
 16 17  1  0
 17 18  2  0
 18 19  1  0
 19 20  2  0
 20 21  1  0
 20 22  1  0
 22 23  2  0
 15 24  1  0
 24 25  2  0
 25  6  1  0
 25 12  1  0
 23 17  1  0
  1 26  1  0
  1 27  1  0
  1 28  1  0
  2 29  1  0
  2 30  1  0
  9 31  1  0
 11 32  1  0
 13 33  1  0
 14 34  1  0
 16 35  1  0
 16 36  1  0
 18 37  1  0
 19 38  1  0
 22 39  1  0
 23 40  1  0
 24 41  1  0
M  CHG  1   9  -1
M  END
>  <UniqueID>  (5) 
5

>  <SMILES>  (5) 
CCOC(=O)n1c(C([NH-])=O)cc2ccc(Cc3ccc(Cl)cc3)cc21

>  <Energy>  (5) 
76.76867854833891

>  <Genealogy>  (5) 
CCOC(=O)n1c(C([NH-])=O)cc2ccc(Cc3ccc(Cl)cc3)cc21 (protonated)
CCOC(=O)n1c(C([NH-])=O)cc2ccc(Cc3ccc(Cl)cc3)cc21 (3D coordinates assigned)
CCOC(=O)n1c(C([NH-])=O)cc2ccc(Cc3ccc(Cl)cc3)cc21 (optimized conformer: 76.76867854833891 kcal/mol)

>  <smiles>  (5) 
CCOC(=O)n1c(C(N)=O)cc2ccc(Cc3ccc(Cl)cc3)cc21

>  <score_type>  (5) 
oracle

>  <origin>  (5) 
adg

>  <m_score__min__energy>  (5) 
-8.1699999999999999

>  <m_primary>  (5) 
energy

$$$$
5:0
     RDKit          3D

 41 43  0  0  0  0  0  0  0  0999 V2000
  149.1790  152.9960  132.5140 C   0  0  0  0  0  0  0  0  0  0  0  0
  148.4050  154.3050  132.6120 C   0  0  0  0  0  0  0  0  0  0  0  0
  148.4800  154.8370  133.9320 O   0  0  0  0  0  0  0  0  0  0  0  0
  147.3690  154.9760  134.7720 C   0  0  0  0  0  0  0  0  0  0  0  0
  147.2890  154.3080  135.8390 O   0  0  0  0  0  0  0  0  0  0  0  0
  146.3080  155.8710  134.4080 N   0  0  0  0  0  0  0  0  0  0  0  0
  144.9750  155.7320  134.6630 C   0  0  0  0  0  0  0  0  0  0  0  0
  144.3230  154.5390  135.2390 C   0  0  0  0  0  0  0  0  0  0  0  0
  144.6200  154.1450  136.5760 N   0  0  0  0  0  0  0  0  0  0  0  0
  143.4780  153.8820  134.5760 O   0  0  0  0  0  0  0  0  0  0  0  0
  144.2740  156.8540  134.2240 C   0  0  0  0  0  0  0  0  0  0  0  0
  145.2240  157.6900  133.6830 C   0  0  0  0  0  0  0  0  0  0  0  0
  145.0850  158.9510  133.1130 C   0  0  0  0  0  0  0  0  0  0  0  0
  146.2460  159.6010  132.6640 C   0  0  0  0  0  0  0  0  0  0  0  0
  147.5210  158.9880  132.7930 C   0  0  0  0  0  0  0  0  0  0  0  0
  148.7770  159.7020  132.3290 C   0  0  0  0  0  0  0  0  0  0  0  0
  148.4600  160.9910  131.5600 C   0  0  0  0  0  0  0  0  0  0  0  0
  149.4490  161.0400  130.4110 C   0  0  0  0  0  0  0  0  0  0  0  0
  149.7520  159.5900  130.0810 C   0  0  0  0  0  0  0  0  0  0  0  0
  149.6470  158.8370  131.4010 C   0  0  0  0  0  0  0  0  0  0  0  0
  147.6190  157.7070  133.3840 C   0  0  0  0  0  0  0  0  0  0  0  0
  146.4430  157.0750  133.8060 C   0  0  0  0  0  0  0  0  0  0  0  0
  149.3992  152.6236  133.5254 H   0  0  0  0  0  0  0  0  0  0  0  0
  148.5752  152.2526  131.9730 H   0  0  0  0  0  0  0  0  0  0  0  0
  150.1214  153.1669  131.9730 H   0  0  0  0  0  0  0  0  0  0  0  0
  148.8328  155.0312  131.9052 H   0  0  0  0  0  0  0  0  0  0  0  0
  147.3500  154.1111  132.3683 H   0  0  0  0  0  0  0  0  0  0  0  0
  145.4820  154.4850  137.0570 H   0  0  0  0  0  0  0  0  0  0  0  0
  143.1910  157.0332  134.2949 H   0  0  0  0  0  0  0  0  0  0  0  0
  144.0967  159.4243  133.0169 H   0  0  0  0  0  0  0  0  0  0  0  0
  146.1671  160.5981  132.2063 H   0  0  0  0  0  0  0  0  0  0  0  0
  149.3221  159.9259  133.2578 H   0  0  0  0  0  0  0  0  0  0  0  0
  147.4291  160.9651  131.1773 H   0  0  0  0  0  0  0  0  0  0  0  0
  148.5439  161.8783  132.2047 H   0  0  0  0  0  0  0  0  0  0  0  0
  149.0053  161.5482  129.5422 H   0  0  0  0  0  0  0  0  0  0  0  0
  150.3586  161.5988  130.6765 H   0  0  0  0  0  0  0  0  0  0  0  0
  149.0206  159.2002  129.3577 H   0  0  0  0  0  0  0  0  0  0  0  0
  150.7472  159.4762  129.6263 H   0  0  0  0  0  0  0  0  0  0  0  0
  149.1748  157.8562  131.2425 H   0  0  0  0  0  0  0  0  0  0  0  0
  150.6407  158.6599  131.8382 H   0  0  0  0  0  0  0  0  0  0  0  0
  148.5965  157.2184  133.5093 H   0  0  0  0  0  0  0  0  0  0  0  0
  1  2  1  0
  2  3  1  0
  3  4  1  0
  4  5  2  0
  4  6  1  0
  6  7  1  0
  7  8  1  0
  8  9  1  0
  8 10  2  0
  7 11  2  0
 11 12  1  0
 12 13  2  0
 13 14  1  0
 14 15  2  0
 15 16  1  0
 16 17  1  0
 17 18  1  0
 18 19  1  0
 19 20  1  0
 15 21  1  0
 21 22  2  0
 22  6  1  0
 22 12  1  0
 20 16  1  0
  1 23  1  0
  1 24  1  0
  1 25  1  0
  2 26  1  0
  2 27  1  0
  9 28  1  0
 11 29  1  0
 13 30  1  0
 14 31  1  0
 16 32  1  0
 17 33  1  0
 17 34  1  0
 18 35  1  0
 18 36  1  0
 19 37  1  0
 19 38  1  0
 20 39  1  0
 20 40  1  0
 21 41  1  0
M  CHG  1   9  -1
M  END
>  <UniqueID>  (6) 
6

>  <SMILES>  (6) 
CCOC(=O)n1c(C([NH-])=O)cc2ccc(C3CCCC3)cc21

>  <Energy>  (6) 
78.29580193249382

>  <Genealogy>  (6) 
CCOC(=O)n1c(C([NH-])=O)cc2ccc(C3CCCC3)cc21 (protonated)
CCOC(=O)n1c(C([NH-])=O)cc2ccc(C3CCCC3)cc21 (3D coordinates assigned)
CCOC(=O)n1c(C([NH-])=O)cc2ccc(C3CCCC3)cc21 (nonaromatic ring conformer: 78.29580193249382 kcal/mol)

>  <smiles>  (6) 
CCOC(=O)n1c(C(N)=O)cc2ccc(C3CCCC3)cc21

>  <score_type>  (6) 
oracle

>  <origin>  (6) 
adg

>  <m_score__min__energy>  (6) 
-7.54

>  <m_primary>  (6) 
energy

$$$$
6:0
     RDKit          3D

 36 38  0  0  0  0  0  0  0  0999 V2000
  139.6330  159.0250  131.6000 C   0  0  0  0  0  0  0  0  0  0  0  0
  140.6850  158.9570  132.5570 O   0  0  0  0  0  0  0  0  0  0  0  0
  140.5130  158.6310  133.9130 C   0  0  0  0  0  0  0  0  0  0  0  0
  139.2650  158.2130  134.4190 C   0  0  0  0  0  0  0  0  0  0  0  0
  139.1290  157.8630  135.7640 C   0  0  0  0  0  0  0  0  0  0  0  0
  140.2280  157.9240  136.6180 C   0  0  0  0  0  0  0  0  0  0  0  0
  141.4680  158.3400  136.1340 C   0  0  0  0  0  0  0  0  0  0  0  0
  141.6230  158.7060  134.7850 C   0  0  0  0  0  0  0  0  0  0  0  0
  142.9480  159.1570  134.3000 C   0  0  0  0  0  0  0  0  0  0  0  0
  143.1950  160.5350  134.0650 C   0  0  0  0  0  0  0  0  0  0  0  0
  144.4540  160.9730  133.6270 C   0  0  0  0  0  0  0  0  0  0  0  0
  145.4460  160.0180  133.4290 C   0  0  0  0  0  0  0  0  0  0  0  0
  146.7580  160.1750  133.0460 C   0  0  0  0  0  0  0  0  0  0  0  0
  147.2910  158.8890  133.0280 C   0  0  0  0  0  0  0  0  0  0  0  0
  148.6740  158.5910  132.6090 C   0  0  0  0  0  0  0  0  0  0  0  0
  148.9820  157.4210  131.8490 N   0  0  0  0  0  0  0  0  0  0  0  0
  149.5930  159.4110  132.8780 O   0  0  0  0  0  0  0  0  0  0  0  0
  146.3520  157.9720  133.3980 N   0  0  0  0  0  0  0  0  0  0  0  0
  146.5440  156.5630  133.6130 C   0  0  0  0  0  0  0  0  0  0  0  0
  146.4410  156.0760  134.7690 O   0  0  0  0  0  0  0  0  0  0  0  0
  146.8450  155.7220  132.5480 O   0  0  0  0  0  0  0  0  0  0  0  0
  145.2260  158.6800  133.6380 C   0  0  0  0  0  0  0  0  0  0  0  0
  143.9850  158.2180  134.0950 C   0  0  0  0  0  0  0  0  0  0  0  0
  138.6664  159.0875  132.1214 H   0  0  0  0  0  0  0  0  0  0  0  0
  139.7678  159.9163  130.9696 H   0  0  0  0  0  0  0  0  0  0  0  0
  139.6520  158.1237  130.9696 H   0  0  0  0  0  0  0  0  0  0  0  0
  138.3932  158.1623  133.7501 H   0  0  0  0  0  0  0  0  0  0  0  0
  138.1515  157.5383  136.1502 H   0  0  0  0  0  0  0  0  0  0  0  0
  140.1175  157.6435  137.6759 H   0  0  0  0  0  0  0  0  0  0  0  0
  142.3322  158.3822  136.8132 H   0  0  0  0  0  0  0  0  0  0  0  0
  142.3906  161.2674  134.2281 H   0  0  0  0  0  0  0  0  0  0  0  0
  144.6508  162.0399  133.4455 H   0  0  0  0  0  0  0  0  0  0  0  0
  147.2753  161.1155  132.8054 H   0  0  0  0  0  0  0  0  0  0  0  0
  148.2250  156.8130  131.4660 H   0  0  0  0  0  0  0  0  0  0  0  0
  149.9720  157.2070  131.5950 H   0  0  0  0  0  0  0  0  0  0  0  0
  143.8209  157.1480  134.2901 H   0  0  0  0  0  0  0  0  0  0  0  0
  1  2  1  0
  2  3  1  0
  3  4  2  0
  4  5  1  0
  5  6  2  0
  6  7  1  0
  7  8  2  0
  8  9  1  0
  9 10  2  0
 10 11  1  0
 11 12  2  0
 12 13  1  0
 13 14  2  0
 14 15  1  0
 15 16  1  0
 15 17  2  0
 14 18  1  0
 18 19  1  0
 19 20  2  0
 19 21  1  0
 18 22  1  0
 22 23  2  0
  8  3  1  0
 23  9  1  0
 22 12  1  0
  1 24  1  0
  1 25  1  0
  1 26  1  0
  4 27  1  0
  5 28  1  0
  6 29  1  0
  7 30  1  0
 10 31  1  0
 11 32  1  0
 13 33  1  0
 16 34  1  0
 16 35  1  0
 23 36  1  0
M  CHG  1  21  -1
M  END
>  <UniqueID>  (7) 
7

>  <SMILES>  (7) 
COc1ccccc1-c1ccc2cc(C(N)=O)n(C(=O)[O-])c2c1

>  <Energy>  (7) 
84.7292710999246

>  <Genealogy>  (7) 
COc1ccccc1-c1ccc2cc(C(N)=O)n(C(=O)[O-])c2c1 (protonated)
COc1ccccc1-c1ccc2cc(C(N)=O)n(C(=O)[O-])c2c1 (3D coordinates assigned)
COc1ccccc1-c1ccc2cc(C(N)=O)n(C(=O)[O-])c2c1 (optimized conformer: 84.7292710999246 kcal/mol)

>  <smiles>  (7) 
COc1ccccc1-c1ccc2cc(C(N)=O)n(C(=O)O)c2c1

>  <score_type>  (7) 
oracle

>  <origin>  (7) 
adg

>  <m_score__min__energy>  (7) 
-7.3399999999999999

>  <m_primary>  (7) 
energy

$$$$
7:0
     RDKit          3D

 60 64  0  0  0  0  0  0  0  0999 V2000
  138.3340  160.4800  129.5580 C   0  0  0  0  0  0  0  0  0  0  0  0
  138.2240  159.8690  130.8950 N   0  0  0  0  0  0  0  0  0  0  0  0
  136.8570  159.3510  131.0810 C   0  0  0  0  0  0  0  0  0  0  0  0
  139.2490  158.8060  131.0620 C   0  0  0  0  0  0  0  0  0  0  0  0
  139.7090  158.6060  132.5450 C   0  0  1  0  0  0  0  0  0  0  0  0
  140.3810  159.8760  133.1400 C   0  0  0  0  0  0  0  0  0  0  0  0
  140.8770  159.6190  134.5870 C   0  0  0  0  0  0  0  0  0  0  0  0
  140.5240  158.1770  135.0520 C   0  0  1  0  0  0  0  0  0  0  0  0
  140.9620  157.9340  136.4840 C   0  0  0  0  0  0  0  0  0  0  0  0
  141.0990  158.9780  137.3470 N   0  0  0  0  0  0  0  0  0  0  0  0
  141.4240  158.7760  138.6490 C   0  0  0  0  0  0  0  0  0  0  0  0
  141.6100  157.4810  139.1340 C   0  0  0  0  0  0  0  0  0  0  0  0
  141.9230  157.2570  140.8530 Cl  0  0  0  0  0  0  0  0  0  0  0  0
  141.4590  156.4060  138.2380 C   0  0  0  0  0  0  0  0  0  0  0  0
  141.6230  154.9970  138.6510 C   0  0  0  0  0  0  0  0  0  0  0  0
  140.5080  154.2270  139.0700 C   0  0  0  0  0  0  0  0  0  0  0  0
  140.6710  152.8930  139.4800 C   0  0  0  0  0  0  0  0  0  0  0  0
  141.9570  152.3650  139.4820 C   0  0  0  0  0  0  0  0  0  0  0  0
  142.3940  151.1040  139.8160 C   0  0  0  0  0  0  0  0  0  0  0  0
  143.7770  151.1320  139.6370 C   0  0  0  0  0  0  0  0  0  0  0  0
  144.6600  149.9940  139.9660 C   0  0  0  0  0  0  0  0  0  0  0  0
  145.2520  149.2300  138.9170 N   0  0  0  0  0  0  0  0  0  0  0  0
  144.8730  149.6650  141.1620 O   0  0  0  0  0  0  0  0  0  0  0  0
  144.1770  152.3620  139.2040 N   0  0  0  0  0  0  0  0  0  0  0  0
  145.5060  152.7870  138.8530 C   0  0  0  0  0  0  0  0  0  0  0  0
  146.2660  153.2890  139.7220 O   0  0  0  0  0  0  0  0  0  0  0  0
  145.9740  152.6200  137.5550 O   0  0  0  0  0  0  0  0  0  0  0  0
  143.0520  153.1050  139.1170 C   0  0  0  0  0  0  0  0  0  0  0  0
  142.9170  154.4300  138.6860 C   0  0  0  0  0  0  0  0  0  0  0  0
  141.1230  156.6650  136.9460 N   0  0  0  0  0  0  0  0  0  0  0  0
  138.9920  157.9890  134.9310 C   0  0  0  0  0  0  0  0  0  0  0  0
  138.5210  158.1970  133.4680 C   0  0  0  0  0  0  0  0  0  0  0  0
  141.2070  157.1850  134.0720 C   0  0  0  0  0  0  0  0  0  0  0  0
  140.7560  157.4530  132.6140 C   0  0  0  0  0  0  0  0  0  0  0  0
  138.5280  161.5577  129.6622 H   0  0  0  0  0  0  0  0  0  0  0  0
  139.1620  160.0100  129.0070 H   0  0  0  0  0  0  0  0  0  0  0  0
  137.3941  160.3282  129.0070 H   0  0  0  0  0  0  0  0  0  0  0  0
  136.6393  159.2685  132.1561 H   0  0  0  0  0  0  0  0  0  0  0  0
  136.1374  160.0388  130.6129 H   0  0  0  0  0  0  0  0  0  0  0  0
  136.7739  158.3591  130.6129 H   0  0  0  0  0  0  0  0  0  0  0  0
  138.8285  157.8572  130.6974 H   0  0  0  0  0  0  0  0  0  0  0  0
  140.1344  159.1189  130.4891 H   0  0  0  0  0  0  0  0  0  0  0  0
  141.2384  160.1571  132.5108 H   0  0  0  0  0  0  0  0  0  0  0  0
  139.6373  160.6862  133.1641 H   0  0  0  0  0  0  0  0  0  0  0  0
  141.9686  159.7505  134.6213 H   0  0  0  0  0  0  0  0  0  0  0  0
  140.3802  160.3343  135.2590 H   0  0  0  0  0  0  0  0  0  0  0  0
  141.5412  159.6363  139.3244 H   0  0  0  0  0  0  0  0  0  0  0  0
  139.5051  154.6789  139.0740 H   0  0  0  0  0  0  0  0  0  0  0  0
  139.8080  152.2854  139.7897 H   0  0  0  0  0  0  0  0  0  0  0  0
  141.7824  150.2540  140.1528 H   0  0  0  0  0  0  0  0  0  0  0  0
  144.7510  148.4160  138.4970 H   0  0  0  0  0  0  0  0  0  0  0  0
  143.7970  155.0158  138.3819 H   0  0  0  0  0  0  0  0  0  0  0  0
  138.7279  156.9708  135.2527 H   0  0  0  0  0  0  0  0  0  0  0  0
  138.4956  158.7353  135.5687 H   0  0  0  0  0  0  0  0  0  0  0  0
  138.0837  157.2590  133.0952 H   0  0  0  0  0  0  0  0  0  0  0  0
  137.7753  159.0056  133.4542 H   0  0  0  0  0  0  0  0  0  0  0  0
  142.2983  157.3051  134.1397 H   0  0  0  0  0  0  0  0  0  0  0  0
  140.9165  156.1606  134.3481 H   0  0  0  0  0  0  0  0  0  0  0  0
  141.6344  157.7309  132.0130 H   0  0  0  0  0  0  0  0  0  0  0  0
  140.2888  156.5374  132.2224 H   0  0  0  0  0  0  0  0  0  0  0  0
  1  2  1  0
  2  3  1  0
  2  4  1  0
  5  4  1  6
  5  6  1  0
  6  7  1  0
  7  8  1  0
  8  9  1  1
  9 10  2  0
 10 11  1  0
 11 12  2  0
 12 13  1  0
 12 14  1  0
 14 15  1  0
 15 16  2  0
 16 17  1  0
 17 18  2  0
 18 19  1  0
 19 20  2  0
 20 21  1  0
 21 22  1  0
 21 23  2  0
 20 24  1  0
 24 25  1  0
 25 26  2  0
 25 27  1  0
 24 28  1  0
 28 29  2  0
 14 30  2  0
  8 31  1  0
 31 32  1  0
  8 33  1  0
 33 34  1  0
 32  5  1  0
 34  5  1  0
 30  9  1  0
 29 15  1  0
 28 18  1  0
  1 35  1  0
  1 36  1  0
  1 37  1  0
  3 38  1  0
  3 39  1  0
  3 40  1  0
  4 41  1  0
  4 42  1  0
  6 43  1  0
  6 44  1  0
  7 45  1  0
  7 46  1  0
 11 47  1  0
 16 48  1  0
 17 49  1  0
 19 50  1  0
 22 51  1  0
 29 52  1  0
 31 53  1  0
 31 54  1  0
 32 55  1  0
 32 56  1  0
 33 57  1  0
 33 58  1  0
 34 59  1  0
 34 60  1  0
M  CHG  2  22  -1  27  -1
M  END
>  <UniqueID>  (8) 
8

>  <SMILES>  (8) 
CN(C)CC12CCC(c3ncc(Cl)c(-c4ccc5cc(C([NH-])=O)n(C(=O)[O-])c5c4)n3)(CC1)CC2

>  <Energy>  (8) 
128.4429772714933

>  <Genealogy>  (8) 
CN(C)CC12CCC(c3ncc(Cl)c(-c4ccc5cc(C([NH-])=O)n(C(=O)[O-])c5c4)n3)(CC1)CC2 (protonated)
CN(C)CC12CCC(c3ncc(Cl)c(-c4ccc5cc(C([NH-])=O)n(C(=O)[O-])c5c4)n3)(CC1)CC2 (3D coordinates assigned)
CN(C)CC12CCC(c3ncc(Cl)c(-c4ccc5cc(C([NH-])=O)n(C(=O)[O-])c5c4)n3)(CC1)CC2 (nonaromatic ring conformer: 128.4429772714933 kcal/mol)

>  <smiles>  (8) 
CN(C)CC12CCC(c3ncc(Cl)c(-c4ccc5cc(C(N)=O)n(C(=O)O)c5c4)n3)(CC1)CC2

>  <score_type>  (8) 
oracle

>  <origin>  (8) 
adg

>  <m_score__min__energy>  (8) 
-10.49

>  <m_primary>  (8) 
energy

$$$$
8:0
     RDKit          3D

 54 57  0  0  0  0  0  0  0  0999 V2000
  148.5700  160.8640  131.5400 C   0  0  0  0  0  0  0  0  0  0  0  0
  148.1590  159.4620  131.7220 N   0  0  0  0  0  0  0  0  0  0  0  0
  148.8540  158.6190  130.7280 C   0  0  0  0  0  0  0  0  0  0  0  0
  148.4770  159.0390  133.1050 C   0  0  0  0  0  0  0  0  0  0  0  0
  148.0480  157.5840  133.3810 C   0  0  0  0  0  0  0  0  0  0  0  0
  146.7190  157.4970  134.1500 C   0  0  0  0  0  0  0  0  0  0  0  0
  145.6190  156.8480  133.3430 C   0  0  0  0  0  0  0  0  0  0  0  0
  145.9080  155.9110  132.5510 O   0  0  0  0  0  0  0  0  0  0  0  0
  144.2560  157.2960  133.4400 N   0  0  0  0  0  0  0  0  0  0  0  0
  143.7930  158.5740  133.3920 C   0  0  0  0  0  0  0  0  0  0  0  0
  144.6380  159.7740  133.4010 C   0  0  0  0  0  0  0  0  0  0  0  0
  145.7240  159.8950  132.4900 N   0  0  0  0  0  0  0  0  0  0  0  0
  144.3830  160.7120  134.1920 O   0  0  0  0  0  0  0  0  0  0  0  0
  142.4030  158.5910  133.3610 C   0  0  0  0  0  0  0  0  0  0  0  0
  142.0230  157.2660  133.4040 C   0  0  0  0  0  0  0  0  0  0  0  0
  140.7580  156.6890  133.3710 C   0  0  0  0  0  0  0  0  0  0  0  0
  140.6710  155.2850  133.3660 C   0  0  0  0  0  0  0  0  0  0  0  0
  141.8420  154.4880  133.3700 C   0  0  0  0  0  0  0  0  0  0  0  0
  141.7500  153.0160  133.2840 C   0  0  0  0  0  0  0  0  0  0  0  0
  142.7120  152.1740  133.7040 N   0  0  0  0  0  0  0  0  0  0  0  0
  142.2390  150.9870  133.4790 O   0  0  0  0  0  0  0  0  0  0  0  0
  141.0470  151.0790  132.9460 C   0  0  0  0  0  0  0  0  0  0  0  0
  140.1930  149.8890  132.5970 C   0  0  0  0  0  0  0  0  0  0  0  0
  139.4540  150.0570  131.2710 C   0  0  0  0  0  0  0  0  0  0  0  0
  140.2020  148.8580  130.7020 C   0  0  0  0  0  0  0  0  0  0  0  0
  140.9480  148.6900  132.0190 C   0  0  0  0  0  0  0  0  0  0  0  0
  140.6690  152.3640  132.8010 N   0  0  0  0  0  0  0  0  0  0  0  0
  143.1080  155.1110  133.4220 C   0  0  0  0  0  0  0  0  0  0  0  0
  143.1610  156.5070  133.4500 C   0  0  0  0  0  0  0  0  0  0  0  0
  148.7084  161.3362  132.5238 H   0  0  0  0  0  0  0  0  0  0  0  0
  149.5162  160.8990  130.9801 H   0  0  0  0  0  0  0  0  0  0  0  0
  147.7925  161.4043  130.9801 H   0  0  0  0  0  0  0  0  0  0  0  0
  149.4705  157.8712  131.2484 H   0  0  0  0  0  0  0  0  0  0  0  0
  148.1116  158.1077  130.0977 H   0  0  0  0  0  0  0  0  0  0  0  0
  149.4975  159.2503  130.0977 H   0  0  0  0  0  0  0  0  0  0  0  0
  149.5626  159.1241  133.2609 H   0  0  0  0  0  0  0  0  0  0  0  0
  147.9217  159.6919  133.7945 H   0  0  0  0  0  0  0  0  0  0  0  0
  147.9341  157.0616  132.4197 H   0  0  0  0  0  0  0  0  0  0  0  0
  148.8258  157.1191  134.0046 H   0  0  0  0  0  0  0  0  0  0  0  0
  146.8796  156.9068  135.0643 H   0  0  0  0  0  0  0  0  0  0  0  0
  146.4003  158.5245  134.3794 H   0  0  0  0  0  0  0  0  0  0  0  0
  146.2550  160.7910  132.4120 H   0  0  0  0  0  0  0  0  0  0  0  0
  146.0340  159.0750  131.9290 H   0  0  0  0  0  0  0  0  0  0  0  0
  141.7469  159.4726  133.3125 H   0  0  0  0  0  0  0  0  0  0  0  0
  139.8519  157.3123  133.3494 H   0  0  0  0  0  0  0  0  0  0  0  0
  139.6833  154.8010  133.3589 H   0  0  0  0  0  0  0  0  0  0  0  0
  139.6519  149.7794  133.5485 H   0  0  0  0  0  0  0  0  0  0  0  0
  138.3656  149.9147  131.3423 H   0  0  0  0  0  0  0  0  0  0  0  0
  139.4677  151.0227  130.7445 H   0  0  0  0  0  0  0  0  0  0  0  0
  139.5542  148.0078  130.4423 H   0  0  0  0  0  0  0  0  0  0  0  0
  140.7582  148.9487  129.7573 H   0  0  0  0  0  0  0  0  0  0  0  0
  140.7432  147.7395  132.5334 H   0  0  0  0  0  0  0  0  0  0  0  0
  142.0475  148.6620  132.0373 H   0  0  0  0  0  0  0  0  0  0  0  0
  144.0303  154.5118  133.4400 H   0  0  0  0  0  0  0  0  0  0  0  0
  1  2  1  0
  2  3  1  0
  2  4  1  0
  4  5  1  0
  5  6  1  0
  6  7  1  0
  7  8  2  0
  7  9  1  0
  9 10  1  0
 10 11  1  0
 11 12  1  0
 11 13  2  0
 10 14  2  0
 14 15  1  0
 15 16  2  0
 16 17  1  0
 17 18  2  0
 18 19  1  0
 19 20  2  0
 20 21  1  0
 21 22  1  0
 22 23  1  0
 23 24  1  0
 24 25  1  0
 25 26  1  0
 22 27  2  0
 18 28  1  0
 28 29  2  0
 29  9  1  0
 29 15  1  0
 27 19  1  0
 26 23  1  0
  1 30  1  0
  1 31  1  0
  1 32  1  0
  3 33  1  0
  3 34  1  0
  3 35  1  0
  4 36  1  0
  4 37  1  0
  5 38  1  0
  5 39  1  0
  6 40  1  0
  6 41  1  0
 12 42  1  0
 12 43  1  0
 14 44  1  0
 16 45  1  0
 17 46  1  0
 23 47  1  0
 24 48  1  0
 24 49  1  0
 25 50  1  0
 25 51  1  0
 26 52  1  0
 26 53  1  0
 28 54  1  0
M  END
>  <UniqueID>  (9) 
9

>  <SMILES>  (9) 
CN(C)CCCC(=O)n1c(C(N)=O)cc2ccc(-c3noc(C4CCC4)n3)cc21

>  <Energy>  (9) 
186.8969507163798

>  <Genealogy>  (9) 
CN(C)CCCC(=O)n1c(C(N)=O)cc2ccc(-c3noc(C4CCC4)n3)cc21 (3D coordinates assigned)
CN(C)CCCC(=O)n1c(C(N)=O)cc2ccc(-c3noc(C4CCC4)n3)cc21 (nonaromatic ring conformer: 186.8969507163798 kcal/mol)

>  <smiles>  (9) 
CN(C)CCCC(=O)n1c(C(N)=O)cc2ccc(-c3noc(C4CCC4)n3)cc21

>  <score_type>  (9) 
oracle

>  <origin>  (9) 
adg

>  <m_score__min__energy>  (9) 
-9.9399999999999995

>  <m_primary>  (9) 
energy

$$$$
9:0
     RDKit          3D

 36 38  0  0  0  0  0  0  0  0999 V2000
  143.6550  155.5740  132.3630 N   0  0  0  0  0  0  0  0  0  0  0  0
  142.7460  156.2070  133.2610 C   0  0  0  0  0  0  0  0  0  0  0  0
  141.9790  155.5000  133.9680 O   0  0  0  0  0  0  0  0  0  0  0  0
  142.6860  157.6410  133.3420 N   0  0  0  0  0  0  0  0  0  0  0  0
  141.5720  158.4260  133.3970 C   0  0  0  0  0  0  0  0  0  0  0  0
  140.1800  157.9570  133.2140 C   0  0  0  0  0  0  0  0  0  0  0  0
  139.9120  156.6610  132.6790 N   0  0  0  0  0  0  0  0  0  0  0  0
  139.2150  158.6890  133.5610 O   0  0  0  0  0  0  0  0  0  0  0  0
  141.9250  159.7660  133.5490 C   0  0  0  0  0  0  0  0  0  0  0  0
  143.3000  159.7790  133.5840 C   0  0  0  0  0  0  0  0  0  0  0  0
  144.1810  160.8460  133.7360 C   0  0  0  0  0  0  0  0  0  0  0  0
  145.5570  160.5640  133.7670 C   0  0  0  0  0  0  0  0  0  0  0  0
  146.0250  159.2320  133.6440 C   0  0  0  0  0  0  0  0  0  0  0  0
  147.4970  158.9380  133.7330 C   0  0  0  0  0  0  0  0  0  0  0  0
  148.1900  159.3800  132.4720 C   0  0  0  0  0  0  0  0  0  0  0  0
  147.4920  160.1100  131.4960 C   0  0  0  0  0  0  0  0  0  0  0  0
  148.1270  160.4860  130.3090 C   0  0  0  0  0  0  0  0  0  0  0  0
  149.4600  160.1310  130.0840 C   0  0  0  0  0  0  0  0  0  0  0  0
  150.0740  160.4960  128.9310 F   0  0  0  0  0  0  0  0  0  0  0  0
  150.1580  159.3940  131.0450 C   0  0  0  0  0  0  0  0  0  0  0  0
  149.5260  159.0150  132.2330 C   0  0  0  0  0  0  0  0  0  0  0  0
  145.1000  158.1740  133.4990 C   0  0  0  0  0  0  0  0  0  0  0  0
  143.7360  158.4850  133.4560 C   0  0  0  0  0  0  0  0  0  0  0  0
  143.5710  155.7070  131.3320 H   0  0  0  0  0  0  0  0  0  0  0  0
  138.9270  156.3240  132.5890 H   0  0  0  0  0  0  0  0  0  0  0  0
  140.6810  156.0470  132.3300 H   0  0  0  0  0  0  0  0  0  0  0  0
  141.2478  160.6295  133.6248 H   0  0  0  0  0  0  0  0  0  0  0  0
  143.8113  161.8778  133.8289 H   0  0  0  0  0  0  0  0  0  0  0  0
  146.2785  161.3855  133.8880 H   0  0  0  0  0  0  0  0  0  0  0  0
  147.9244  159.4772  134.5912 H   0  0  0  0  0  0  0  0  0  0  0  0
  147.6407  157.8551  133.8621 H   0  0  0  0  0  0  0  0  0  0  0  0
  146.4412  160.3870  131.6665 H   0  0  0  0  0  0  0  0  0  0  0  0
  147.5767  161.0623  129.5506 H   0  0  0  0  0  0  0  0  0  0  0  0
  151.2061  159.1118  130.8662 H   0  0  0  0  0  0  0  0  0  0  0  0
  150.0765  158.4289  132.9836 H   0  0  0  0  0  0  0  0  0  0  0  0
  145.4432  157.1318  133.4218 H   0  0  0  0  0  0  0  0  0  0  0  0
  1  2  1  0
  2  3  2  0
  2  4  1  0
  4  5  1  0
  5  6  1  0
  6  7  1  0
  6  8  2  0
  5  9  2  0
  9 10  1  0
 10 11  2  0
 11 12  1  0
 12 13  2  0
 13 14  1  0
 14 15  1  0
 15 16  2  0
 16 17  1  0
 17 18  2  0
 18 19  1  0
 18 20  1  0
 20 21  2  0
 13 22  1  0
 22 23  2  0
 23  4  1  0
 23 10  1  0
 21 15  1  0
  1 24  1  0
  7 25  1  0
  7 26  1  0
  9 27  1  0
 11 28  1  0
 12 29  1  0
 14 30  1  0
 14 31  1  0
 16 32  1  0
 17 33  1  0
 20 34  1  0
 21 35  1  0
 22 36  1  0
M  CHG  1   1  -1
M  END
>  <UniqueID>  (10) 
10

>  <SMILES>  (10) 
[NH-]C(=O)n1c(C(N)=O)cc2ccc(Cc3ccc(F)cc3)cc21

>  <Energy>  (10) 
75.84078796408798

>  <Genealogy>  (10) 
[NH-]C(=O)n1c(C(N)=O)cc2ccc(Cc3ccc(F)cc3)cc21 (protonated)
[NH-]C(=O)n1c(C(N)=O)cc2ccc(Cc3ccc(F)cc3)cc21 (3D coordinates assigned)
[NH-]C(=O)n1c(C(N)=O)cc2ccc(Cc3ccc(F)cc3)cc21 (optimized conformer: 75.84078796408798 kcal/mol)

>  <smiles>  (10) 
NC(=O)c1cc2ccc(Cc3ccc(F)cc3)cc2n1C(N)=O

>  <score_type>  (10) 
oracle

>  <origin>  (10) 
adg

>  <m_score__min__energy>  (10) 
-8.1400000000000006

>  <m_primary>  (10) 
energy

$$$$
10:0
     RDKit          3D

 32 33  0  0  0  0  0  0  0  0999 V2000
  149.5860  159.8030  130.0600 C   0  0  0  0  0  0  0  0  0  0  0  0
  149.0900  160.3080  131.4110 C   0  0  0  0  0  0  0  0  0  0  0  0
  147.9570  159.5580  131.8430 O   0  0  0  0  0  0  0  0  0  0  0  0
  147.9690  158.7180  132.9630 C   0  0  0  0  0  0  0  0  0  0  0  0
  148.9020  158.7970  133.8080 O   0  0  0  0  0  0  0  0  0  0  0  0
  146.9170  157.7570  133.1430 N   0  0  0  0  0  0  0  0  0  0  0  0
  145.5890  158.0050  133.3210 C   0  0  0  0  0  0  0  0  0  0  0  0
  144.9860  159.3410  133.5240 C   0  0  0  0  0  0  0  0  0  0  0  0
  145.4950  160.4840  132.8340 N   0  0  0  0  0  0  0  0  0  0  0  0
  143.9930  159.4780  134.2870 O   0  0  0  0  0  0  0  0  0  0  0  0
  144.8710  156.8120  133.3790 C   0  0  0  0  0  0  0  0  0  0  0  0
  145.8090  155.8160  133.2320 C   0  0  0  0  0  0  0  0  0  0  0  0
  145.6460  154.4350  133.1910 C   0  0  0  0  0  0  0  0  0  0  0  0
  146.7890  153.6420  132.9910 C   0  0  0  0  0  0  0  0  0  0  0  0
  148.0690  154.2370  132.8480 C   0  0  0  0  0  0  0  0  0  0  0  0
  149.2770  153.3790  132.5710 C   0  0  0  0  0  0  0  0  0  0  0  0
  150.3550  154.1940  132.2740 F   0  0  0  0  0  0  0  0  0  0  0  0
  149.0420  152.5350  131.4990 F   0  0  0  0  0  0  0  0  0  0  0  0
  149.5890  152.6030  133.6740 F   0  0  0  0  0  0  0  0  0  0  0  0
  148.1880  155.6470  132.8730 C   0  0  0  0  0  0  0  0  0  0  0  0
  147.0360  156.4110  133.0910 C   0  0  0  0  0  0  0  0  0  0  0  0
  150.3489  159.0262  130.2165 H   0  0  0  0  0  0  0  0  0  0  0  0
  148.7426  159.3799  129.4946 H   0  0  0  0  0  0  0  0  0  0  0  0
  150.0242  160.6386  129.4946 H   0  0  0  0  0  0  0  0  0  0  0  0
  149.8955  160.2054  132.1530 H   0  0  0  0  0  0  0  0  0  0  0  0
  148.7980  161.3636  131.3091 H   0  0  0  0  0  0  0  0  0  0  0  0
  146.3480  160.4230  132.2370 H   0  0  0  0  0  0  0  0  0  0  0  0
  145.0370  161.4160  132.9560 H   0  0  0  0  0  0  0  0  0  0  0  0
  143.7859  156.6921  133.5136 H   0  0  0  0  0  0  0  0  0  0  0  0
  144.6528  153.9777  133.3114 H   0  0  0  0  0  0  0  0  0  0  0  0
  146.6900  152.5474  132.9448 H   0  0  0  0  0  0  0  0  0  0  0  0
  149.1643  156.1316  132.7244 H   0  0  0  0  0  0  0  0  0  0  0  0
  1  2  1  0
  2  3  1  0
  3  4  1  0
  4  5  2  0
  4  6  1  0
  6  7  1  0
  7  8  1  0
  8  9  1  0
  8 10  2  0
  7 11  2  0
 11 12  1  0
 12 13  2  0
 13 14  1  0
 14 15  2  0
 15 16  1  0
 16 17  1  0
 16 18  1  0
 16 19  1  0
 15 20  1  0
 20 21  2  0
 21  6  1  0
 21 12  1  0
  1 22  1  0
  1 23  1  0
  1 24  1  0
  2 25  1  0
  2 26  1  0
  9 27  1  0
  9 28  1  0
 11 29  1  0
 13 30  1  0
 14 31  1  0
 20 32  1  0
M  END
>  <UniqueID>  (11) 
11

>  <SMILES>  (11) 
CCOC(=O)n1c(C(N)=O)cc2ccc(C(F)(F)F)cc21

>  <Energy>  (11) 
67.44146792063329

>  <Genealogy>  (11) 
CCOC(=O)n1c(C(N)=O)cc2ccc(C(F)(F)F)cc21 (3D coordinates assigned)
CCOC(=O)n1c(C(N)=O)cc2ccc(C(F)(F)F)cc21 (optimized conformer: 67.44146792063329 kcal/mol)

>  <smiles>  (11) 
CCOC(=O)n1c(C(N)=O)cc2ccc(C(F)(F)F)cc21

>  <score_type>  (11) 
oracle

>  <origin>  (11) 
adg

>  <m_score__min__energy>  (11) 
-5.9900000000000002

>  <m_primary>  (11) 
energy

$$$$
11:0
     RDKit          3D

 37 38  0  0  0  0  0  0  0  0999 V2000
  141.0710  154.8130  132.9850 N   0  0  0  0  0  0  0  0  0  0  0  0
  140.0050  155.6990  133.3180 C   0  0  0  0  0  0  0  0  0  0  0  0
  138.8300  155.4170  132.9600 O   0  0  0  0  0  0  0  0  0  0  0  0
  140.2700  156.9110  134.0440 N   0  0  0  0  0  0  0  0  0  0  0  0
  140.0430  158.1910  133.6340 C   0  0  0  0  0  0  0  0  0  0  0  0
  139.6460  158.6060  132.2750 C   0  0  0  0  0  0  0  0  0  0  0  0
  138.7150  157.8390  131.5090 N   0  0  0  0  0  0  0  0  0  0  0  0
  140.1800  159.6230  131.7570 O   0  0  0  0  0  0  0  0  0  0  0  0
  140.2860  159.0900  134.6690 C   0  0  0  0  0  0  0  0  0  0  0  0
  140.6870  158.3180  135.7350 C   0  0  0  0  0  0  0  0  0  0  0  0
  141.0270  158.6920  137.0310 C   0  0  0  0  0  0  0  0  0  0  0  0
  141.3470  157.6770  137.9470 C   0  0  0  0  0  0  0  0  0  0  0  0
  141.3200  156.3160  137.5540 C   0  0  0  0  0  0  0  0  0  0  0  0
  141.5940  155.2360  138.5670 C   0  0  0  0  0  0  0  0  0  0  0  0
  141.4540  153.8240  137.9710 C   0  0  0  0  0  0  0  0  0  0  0  0
  140.5740  152.8820  138.8200 C   0  0  0  0  0  0  0  0  0  0  0  0
  141.0410  151.4220  138.7440 C   0  0  0  0  0  0  0  0  0  0  0  0
  140.2630  150.6780  137.7050 C   0  0  0  0  0  0  0  0  0  0  0  0
  139.2560  149.9970  138.0360 O   0  0  0  0  0  0  0  0  0  0  0  0
  140.6200  150.7760  136.3660 O   0  0  0  0  0  0  0  0  0  0  0  0
  140.9730  155.9740  136.2290 C   0  0  0  0  0  0  0  0  0  0  0  0
  140.6710  157.0070  135.3330 C   0  0  0  0  0  0  0  0  0  0  0  0
  141.9530  155.1720  132.5550 H   0  0  0  0  0  0  0  0  0  0  0  0
  138.4190  158.1670  130.5640 H   0  0  0  0  0  0  0  0  0  0  0  0
  138.3820  156.9080  131.8420 H   0  0  0  0  0  0  0  0  0  0  0  0
  140.1800  160.1845  134.6406 H   0  0  0  0  0  0  0  0  0  0  0  0
  141.0446  159.7507  137.3292 H   0  0  0  0  0  0  0  0  0  0  0  0
  141.6211  157.9409  138.9791 H   0  0  0  0  0  0  0  0  0  0  0  0
  142.6191  155.3593  138.9465 H   0  0  0  0  0  0  0  0  0  0  0  0
  140.8516  155.3353  139.3726 H   0  0  0  0  0  0  0  0  0  0  0  0
  141.0058  153.9113  136.9703 H   0  0  0  0  0  0  0  0  0  0  0  0
  142.4619  153.3845  137.9397 H   0  0  0  0  0  0  0  0  0  0  0  0
  140.6128  153.2116  139.8688 H   0  0  0  0  0  0  0  0  0  0  0  0
  139.5498  152.9286  138.4216 H   0  0  0  0  0  0  0  0  0  0  0  0
  142.1095  151.3965  138.4838 H   0  0  0  0  0  0  0  0  0  0  0  0
  140.8779  150.9443  139.7214 H   0  0  0  0  0  0  0  0  0  0  0  0
  140.9407  154.9223  135.9084 H   0  0  0  0  0  0  0  0  0  0  0  0
  1  2  1  0
  2  3  2  0
  2  4  1  0
  4  5  1  0
  5  6  1  0
  6  7  1  0
  6  8  2  0
  5  9  2  0
  9 10  1  0
 10 11  2  0
 11 12  1  0
 12 13  2  0
 13 14  1  0
 14 15  1  0
 15 16  1  0
 16 17  1  0
 17 18  1  0
 18 19  2  0
 18 20  1  0
 13 21  1  0
 21 22  2  0
 22  4  1  0
 22 10  1  0
  1 23  1  0
  7 24  1  0
  7 25  1  0
  9 26  1  0
 11 27  1  0
 12 28  1  0
 14 29  1  0
 14 30  1  0
 15 31  1  0
 15 32  1  0
 16 33  1  0
 16 34  1  0
 17 35  1  0
 17 36  1  0
 21 37  1  0
M  CHG  2   1  -1  20  -1
M  END
>  <UniqueID>  (12) 
12

>  <SMILES>  (12) 
[NH-]C(=O)n1c(C(N)=O)cc2ccc(CCCCC(=O)[O-])cc21

>  <Energy>  (12) 
70.38511840249076

>  <Genealogy>  (12) 
[NH-]C(=O)n1c(C(N)=O)cc2ccc(CCCCC(=O)[O-])cc21 (protonated)
[NH-]C(=O)n1c(C(N)=O)cc2ccc(CCCCC(=O)[O-])cc21 (3D coordinates assigned)
[NH-]C(=O)n1c(C(N)=O)cc2ccc(CCCCC(=O)[O-])cc21 (optimized conformer: 70.38511840249076 kcal/mol)

>  <smiles>  (12) 
NC(=O)c1cc2ccc(CCCCC(=O)O)cc2n1C(N)=O

>  <score_type>  (12) 
oracle

>  <origin>  (12) 
adg

>  <m_score__min__energy>  (12) 
-7.6600000000000001

>  <m_primary>  (12) 
energy

$$$$
12:0
     RDKit          3D

 59 62  0  0  0  0  0  0  0  0999 V2000
  138.4520  160.0950  129.6070 C   0  0  0  0  0  0  0  0  0  0  0  0
  138.0730  160.2760  131.0170 N   0  0  0  0  0  0  0  0  0  0  0  0
  139.1350  160.9520  131.8080 C   0  0  0  0  0  0  0  0  0  0  0  0
  139.8920  160.0240  132.7790 C   0  0  0  0  0  0  0  0  0  0  0  0
  140.0800  158.6250  132.1860 C   0  0  0  0  0  0  0  0  0  0  0  0
  140.7740  157.7630  133.1420 N   0  0  0  0  0  0  0  0  0  0  0  0
  140.2270  157.3600  134.4010 C   0  0  0  0  0  0  0  0  0  0  0  0
  139.0990  157.8000  134.7620 O   0  0  0  0  0  0  0  0  0  0  0  0
  140.9510  156.4530  135.2490 N   0  0  0  0  0  0  0  0  0  0  0  0
  141.4260  156.6950  136.5020 C   0  0  0  0  0  0  0  0  0  0  0  0
  141.1530  157.8980  137.3150 C   0  0  0  0  0  0  0  0  0  0  0  0
  139.9850  158.6800  137.0840 N   0  0  0  0  0  0  0  0  0  0  0  0
  141.9720  158.2570  138.2050 O   0  0  0  0  0  0  0  0  0  0  0  0
  142.1120  155.5840  136.9920 C   0  0  0  0  0  0  0  0  0  0  0  0
  142.0330  154.6380  135.9970 C   0  0  0  0  0  0  0  0  0  0  0  0
  142.5100  153.3320  135.9660 C   0  0  0  0  0  0  0  0  0  0  0  0
  142.2710  152.5690  134.8120 C   0  0  0  0  0  0  0  0  0  0  0  0
  141.5920  153.1320  133.7040 C   0  0  0  0  0  0  0  0  0  0  0  0
  141.3280  152.3020  132.4730 C   0  0  0  0  0  0  0  0  0  0  0  0
  141.6890  150.8210  132.7360 C   0  0  0  0  0  0  0  0  0  0  0  0
  140.5440  149.8820  132.6780 N   0  0  0  0  0  0  0  0  0  0  0  0
  140.8890  148.5440  132.1800 C   0  0  0  0  0  0  0  0  0  0  0  0
  140.1540  148.3330  130.8720 C   0  0  0  0  0  0  0  0  0  0  0  0
  138.9900  149.3020  130.9110 C   0  0  0  0  0  0  0  0  0  0  0  0
  139.3790  150.3740  131.9190 C   0  0  0  0  0  0  0  0  0  0  0  0
  141.1150  154.4620  133.7730 C   0  0  0  0  0  0  0  0  0  0  0  0
  141.3340  155.1890  134.9520 C   0  0  0  0  0  0  0  0  0  0  0  0
  138.7240  157.9840  131.8140 C   0  0  0  0  0  0  0  0  0  0  0  0
  137.5970  159.0170  131.6270 C   0  0  0  0  0  0  0  0  0  0  0  0
  139.4434  159.6216  129.5517 H   0  0  0  0  0  0  0  0  0  0  0  0
  137.7109  159.4536  129.1076 H   0  0  0  0  0  0  0  0  0  0  0  0
  138.4851  161.0745  129.1076 H   0  0  0  0  0  0  0  0  0  0  0  0
  139.8637  161.3849  131.1069 H   0  0  0  0  0  0  0  0  0  0  0  0
  138.6323  161.7109  132.4256 H   0  0  0  0  0  0  0  0  0  0  0  0
  140.8802  160.4581  132.9911 H   0  0  0  0  0  0  0  0  0  0  0  0
  139.2991  159.9314  133.7009 H   0  0  0  0  0  0  0  0  0  0  0  0
  140.6813  158.7285  131.2707 H   0  0  0  0  0  0  0  0  0  0  0  0
  139.2680  158.3840  136.3810 H   0  0  0  0  0  0  0  0  0  0  0  0
  139.8060  159.5420  137.6460 H   0  0  0  0  0  0  0  0  0  0  0  0
  142.6106  155.4853  137.9676 H   0  0  0  0  0  0  0  0  0  0  0  0
  143.0585  152.9092  136.8207 H   0  0  0  0  0  0  0  0  0  0  0  0
  142.6141  151.5248  134.7680 H   0  0  0  0  0  0  0  0  0  0  0  0
  140.2628  152.3743  132.2083 H   0  0  0  0  0  0  0  0  0  0  0  0
  141.9483  152.6801  131.6470 H   0  0  0  0  0  0  0  0  0  0  0  0
  142.4257  150.5092  131.9810 H   0  0  0  0  0  0  0  0  0  0  0  0
  142.0753  150.7747  133.7649 H   0  0  0  0  0  0  0  0  0  0  0  0
  141.9743  148.4746  132.0148 H   0  0  0  0  0  0  0  0  0  0  0  0
  140.5997  147.7753  132.9117 H   0  0  0  0  0  0  0  0  0  0  0  0
  140.8124  148.5548  130.0192 H   0  0  0  0  0  0  0  0  0  0  0  0
  139.8192  147.2922  130.7512 H   0  0  0  0  0  0  0  0  0  0  0  0
  138.8298  149.7489  129.9187 H   0  0  0  0  0  0  0  0  0  0  0  0
  138.0533  148.7996  131.1942 H   0  0  0  0  0  0  0  0  0  0  0  0
  139.6413  151.3038  131.3931 H   0  0  0  0  0  0  0  0  0  0  0  0
  138.5397  150.5831  132.5987 H   0  0  0  0  0  0  0  0  0  0  0  0
  140.5850  154.9151  132.9222 H   0  0  0  0  0  0  0  0  0  0  0  0
  138.8469  157.4263  130.8739 H   0  0  0  0  0  0  0  0  0  0  0  0
  138.4321  157.3283  132.6476 H   0  0  0  0  0  0  0  0  0  0  0  0
  136.8243  158.5810  130.9767 H   0  0  0  0  0  0  0  0  0  0  0  0
  137.2001  159.2599  132.6237 H   0  0  0  0  0  0  0  0  0  0  0  0
  1  2  1  0
  2  3  1  0
  3  4  1  0
  4  5  1  0
  5  6  1  0
  6  7  1  0
  7  8  2  0
  7  9  1  0
  9 10  1  0
 10 11  1  0
 11 12  1  0
 11 13  2  0
 10 14  2  0
 14 15  1  0
 15 16  2  0
 16 17  1  0
 17 18  2  0
 18 19  1  0
 19 20  1  0
 20 21  1  0
 21 22  1  0
 22 23  1  0
 23 24  1  0
 24 25  1  0
 18 26  1  0
 26 27  2  0
  5 28  1  0
 28 29  1  0
 29  2  1  0
 27  9  1  0
 27 15  1  0
 25 21  1  0
  1 30  1  0
  1 31  1  0
  1 32  1  0
  3 33  1  0
  3 34  1  0
  4 35  1  0
  4 36  1  0
  5 37  1  0
 12 38  1  0
 12 39  1  0
 14 40  1  0
 16 41  1  0
 17 42  1  0
 19 43  1  0
 19 44  1  0
 20 45  1  0
 20 46  1  0
 22 47  1  0
 22 48  1  0
 23 49  1  0
 23 50  1  0
 24 51  1  0
 24 52  1  0
 25 53  1  0
 25 54  1  0
 26 55  1  0
 28 56  1  0
 28 57  1  0
 29 58  1  0
 29 59  1  0
M  CHG  1   6  -1
M  END
>  <UniqueID>  (13) 
13

>  <SMILES>  (13) 
CN1CCC([N-]C(=O)n2c(C(N)=O)cc3ccc(CCN4CCCC4)cc32)CC1

>  <Energy>  (13) 
111.26910930132283

>  <Genealogy>  (13) 
CN1CCC([N-]C(=O)n2c(C(N)=O)cc3ccc(CCN4CCCC4)cc32)CC1 (protonated)
CN1CCC([N-]C(=O)n2c(C(N)=O)cc3ccc(CCN4CCCC4)cc32)CC1 (3D coordinates assigned)
CN1CCC([N-]C(=O)n2c(C(N)=O)cc3ccc(CCN4CCCC4)cc32)CC1 (nonaromatic ring conformer: 111.26910930132283 kcal/mol)

>  <smiles>  (13) 
CN1CCC(NC(=O)n2c(C(N)=O)cc3ccc(CCN4CCCC4)cc32)CC1

>  <score_type>  (13) 
oracle

>  <origin>  (13) 
adg

>  <m_score__min__energy>  (13) 
-9.9700000000000006

>  <m_primary>  (13) 
energy

$$$$
13:0
     RDKit          3D

 60 64  0  0  0  0  0  0  0  0999 V2000
  149.2970  151.7940  134.7080 N   0  0  0  0  0  0  0  0  0  0  0  0
  149.1730  152.4180  133.4320 C   0  0  0  0  0  0  0  0  0  0  0  0
  149.4050  151.7460  132.3920 O   0  0  0  0  0  0  0  0  0  0  0  0
  148.7640  153.8340  133.3420 C   0  0  0  0  0  0  0  0  0  0  0  0
  149.4380  154.7970  132.5930 C   0  0  0  0  0  0  0  0  0  0  0  0
  148.7510  155.9730  132.8050 C   0  0  0  0  0  0  0  0  0  0  0  0
  148.9730  157.2490  132.2990 C   0  0  0  0  0  0  0  0  0  0  0  0
  148.0870  158.2720  132.6770 C   0  0  0  0  0  0  0  0  0  0  0  0
  146.9980  158.0050  133.5530 C   0  0  0  0  0  0  0  0  0  0  0  0
  146.0770  159.0360  133.9480 N   0  0  0  0  0  0  0  0  0  0  0  0
  145.8030  160.2230  133.1360 C   0  0  0  0  0  0  0  0  0  0  0  0
  144.4380  160.8510  133.4860 C   0  0  1  0  0  0  0  0  0  0  0  0
  143.7790  160.0960  134.5580 N   0  0  0  0  0  0  0  0  0  0  0  0
  143.2350  158.5170  134.0620 S   0  0  0  0  0  0  0  0  0  0  0  0
  143.5890  158.3110  132.6160 O   0  0  0  0  0  0  0  0  0  0  0  0
  143.9620  157.4810  134.8700 O   0  0  0  0  0  0  0  0  0  0  0  0
  141.4900  158.3010  134.3140 C   0  0  0  0  0  0  0  0  0  0  0  0
  141.0500  157.8180  135.5560 C   0  0  0  0  0  0  0  0  0  0  0  0
  139.6940  157.6070  135.8000 C   0  0  0  0  0  0  0  0  0  0  0  0
  138.7520  157.8710  134.8100 C   0  0  0  0  0  0  0  0  0  0  0  0
  139.1590  158.3570  133.5600 C   0  0  0  0  0  0  0  0  0  0  0  0
  138.2020  158.6180  132.5650 C   0  0  0  0  0  0  0  0  0  0  0  0
  138.5970  159.1000  131.3190 C   0  0  0  0  0  0  0  0  0  0  0  0
  139.9460  159.3280  131.0510 C   0  0  0  0  0  0  0  0  0  0  0  0
  140.9110  159.0760  132.0300 C   0  0  0  0  0  0  0  0  0  0  0  0
  140.5380  158.5830  133.2990 C   0  0  0  0  0  0  0  0  0  0  0  0
  144.6300  162.2590  133.9640 C   0  0  0  0  0  0  0  0  0  0  0  0
  145.5030  162.5210  134.8340 O   0  0  0  0  0  0  0  0  0  0  0  0
  143.8430  163.2830  133.4540 O   0  0  0  0  0  0  0  0  0  0  0  0
  146.8100  156.6940  134.0450 C   0  0  0  0  0  0  0  0  0  0  0  0
  147.7110  155.7000  133.6530 C   0  0  0  0  0  0  0  0  0  0  0  0
  147.7030  154.3950  133.9850 N   0  0  0  0  0  0  0  0  0  0  0  0
  146.7470  153.7500  134.8380 C   0  0  0  0  0  0  0  0  0  0  0  0
  147.1140  153.3620  135.9800 O   0  0  0  0  0  0  0  0  0  0  0  0
  145.3410  153.5610  134.4040 C   0  0  0  0  0  0  0  0  0  0  0  0
  145.0440  152.7940  133.2650 C   0  0  0  0  0  0  0  0  0  0  0  0
  143.7140  152.6210  132.8740 C   0  0  0  0  0  0  0  0  0  0  0  0
  142.7110  153.1890  133.5920 N   0  0  0  0  0  0  0  0  0  0  0  0
  142.9650  153.9330  134.7000 C   0  0  0  0  0  0  0  0  0  0  0  0
  144.2800  154.1320  135.1270 C   0  0  0  0  0  0  0  0  0  0  0  0
  148.5090  151.8130  135.3930 H   0  0  0  0  0  0  0  0  0  0  0  0
  150.3294  154.6497  131.9656 H   0  0  0  0  0  0  0  0  0  0  0  0
  149.8169  157.4515  131.6231 H   0  0  0  0  0  0  0  0  0  0  0  0
  148.2370  159.2911  132.2912 H   0  0  0  0  0  0  0  0  0  0  0  0
  145.5670  158.9120  134.8530 H   0  0  0  0  0  0  0  0  0  0  0  0
  146.5937  160.9668  133.3137 H   0  0  0  0  0  0  0  0  0  0  0  0
  145.7793  159.9178  132.0795 H   0  0  0  0  0  0  0  0  0  0  0  0
  143.8162  160.8316  132.5788 H   0  0  0  0  0  0  0  0  0  0  0  0
  141.7842  157.6033  136.3465 H   0  0  0  0  0  0  0  0  0  0  0  0
  139.3666  157.2299  136.7801 H   0  0  0  0  0  0  0  0  0  0  0  0
  137.6842  157.6976  135.0093 H   0  0  0  0  0  0  0  0  0  0  0  0
  137.1360  158.4410  132.7707 H   0  0  0  0  0  0  0  0  0  0  0  0
  137.8423  159.3013  130.5444 H   0  0  0  0  0  0  0  0  0  0  0  0
  140.2521  159.7078  130.0650 H   0  0  0  0  0  0  0  0  0  0  0  0
  141.9722  159.2638  131.8094 H   0  0  0  0  0  0  0  0  0  0  0  0
  145.9740  156.4610  134.7208 H   0  0  0  0  0  0  0  0  0  0  0  0
  145.8553  152.3317  132.6835 H   0  0  0  0  0  0  0  0  0  0  0  0
  143.4784  152.0227  131.9815 H   0  0  0  0  0  0  0  0  0  0  0  0
  142.1323  154.3802  135.2627 H   0  0  0  0  0  0  0  0  0  0  0  0
  144.4841  154.7331  136.0253 H   0  0  0  0  0  0  0  0  0  0  0  0
  1  2  1  0
  2  3  2  0
  2  4  1  0
  4  5  2  0
  5  6  1  0
  6  7  2  0
  7  8  1  0
  8  9  2  0
  9 10  1  0
 10 11  1  0
 11 12  1  0
 12 13  1  0
 13 14  1  0
 14 15  2  0
 14 16  2  0
 14 17  1  0
 17 18  2  0
 18 19  1  0
 19 20  2  0
 20 21  1  0
 21 22  2  0
 22 23  1  0
 23 24  2  0
 24 25  1  0
 25 26  2  0
 12 27  1  0
 27 28  2  0
 27 29  1  0
  9 30  1  0
 30 31  2  0
 31 32  1  0
 32 33  1  0
 33 34  2  0
 33 35  1  0
 35 36  2  0
 36 37  1  0
 37 38  2  0
 38 39  1  0
 39 40  2  0
 32  4  1  0
 40 35  1  0
 31  6  1  0
 26 17  1  0
 26 21  1  0
  1 41  1  0
  5 42  1  0
  7 43  1  0
  8 44  1  0
 10 45  1  0
 11 46  1  0
 11 47  1  0
 12 48  1  6
 18 49  1  0
 19 50  1  0
 20 51  1  0
 22 52  1  0
 23 53  1  0
 24 54  1  0
 25 55  1  0
 30 56  1  0
 36 57  1  0
 37 58  1  0
 39 59  1  0
 40 60  1  0
M  CHG  3   1  -1  13  -1  29  -1
M  END
>  <UniqueID>  (14) 
14

>  <SMILES>  (14) 
[NH-]C(=O)c1cc2ccc(NC[C@@H]([N-]S(=O)(=O)c3cccc4ccccc34)C(=O)[O-])cc2n1C(=O)c1ccncc1

>  <Energy>  (14) 
113.11887255944256

>  <Genealogy>  (14) 
[NH-]C(=O)c1cc2ccc(NCC([N-]S(=O)(=O)c3cccc4ccccc34)C(=O)[O-])cc2n1C(=O)c1ccncc1 (protonated)
[NH-]C(=O)c1cc2ccc(NC[C@@H]([N-]S(=O)(=O)c3cccc4ccccc34)C(=O)[O-])cc2n1C(=O)c1ccncc1 (chirality)
[NH-]C(=O)c1cc2ccc(NC[C@@H]([N-]S(=O)(=O)c3cccc4ccccc34)C(=O)[O-])cc2n1C(=O)c1ccncc1 (3D coordinates assigned)
[NH-]C(=O)c1cc2ccc(NC[C@@H]([N-]S(=O)(=O)c3cccc4ccccc34)C(=O)[O-])cc2n1C(=O)c1ccncc1 (optimized conformer: 113.11887255944256 kcal/mol)

>  <smiles>  (14) 
NC(=O)c1cc2ccc(NCC(NS(=O)(=O)c3cccc4ccccc34)C(=O)O)cc2n1C(=O)c1ccncc1

>  <score_type>  (14) 
oracle

>  <origin>  (14) 
adg

>  <m_score__min__energy>  (14) 
-11.42

>  <m_primary>  (14) 
energy

$$$$
14:0
     RDKit          3D

 35 37  0  0  0  0  0  0  0  0999 V2000
  146.8490  156.0850  134.2070 C   0  0  0  0  0  0  0  0  0  0  0  0
  147.2470  157.4360  134.4080 O   0  0  0  0  0  0  0  0  0  0  0  0
  147.7990  158.2570  133.4110 C   0  0  0  0  0  0  0  0  0  0  0  0
  149.0720  158.0540  132.9490 N   0  0  0  0  0  0  0  0  0  0  0  0
  149.6050  158.8210  131.9610 C   0  0  0  0  0  0  0  0  0  0  0  0
  148.8570  159.8450  131.3850 C   0  0  0  0  0  0  0  0  0  0  0  0
  147.5590  160.0800  131.8360 C   0  0  0  0  0  0  0  0  0  0  0  0
  147.0160  159.2950  132.8620 C   0  0  0  0  0  0  0  0  0  0  0  0
  145.6390  159.5640  133.3450 C   0  0  0  0  0  0  0  0  0  0  0  0
  145.2450  160.8880  133.6620 C   0  0  0  0  0  0  0  0  0  0  0  0
  143.9430  161.1610  134.1140 C   0  0  0  0  0  0  0  0  0  0  0  0
  143.0630  160.0910  134.2510 C   0  0  0  0  0  0  0  0  0  0  0  0
  141.7440  160.0760  134.6430 C   0  0  0  0  0  0  0  0  0  0  0  0
  141.3580  158.7390  134.5920 C   0  0  0  0  0  0  0  0  0  0  0  0
  140.0270  158.2630  135.0190 C   0  0  0  0  0  0  0  0  0  0  0  0
  139.6900  158.1660  136.4000 N   0  0  0  0  0  0  0  0  0  0  0  0
  139.1560  157.9850  134.1520 O   0  0  0  0  0  0  0  0  0  0  0  0
  142.3960  157.9570  134.1750 N   0  0  0  0  0  0  0  0  0  0  0  0
  142.3850  156.5460  133.9070 C   0  0  0  0  0  0  0  0  0  0  0  0
  141.3870  156.0110  133.3590 O   0  0  0  0  0  0  0  0  0  0  0  0
  143.4860  155.7620  134.2280 O   0  0  0  0  0  0  0  0  0  0  0  0
  143.4330  158.8010  133.9740 C   0  0  0  0  0  0  0  0  0  0  0  0
  144.7170  158.5030  133.5050 C   0  0  0  0  0  0  0  0  0  0  0  0
  146.7050  155.5963  135.1819 H   0  0  0  0  0  0  0  0  0  0  0  0
  145.9056  156.0609  133.6419 H   0  0  0  0  0  0  0  0  0  0  0  0
  147.6287  155.5533  133.6419 H   0  0  0  0  0  0  0  0  0  0  0  0
  149.6690  157.2950  133.3450 H   0  0  0  0  0  0  0  0  0  0  0  0
  150.6319  158.6319  131.6149 H   0  0  0  0  0  0  0  0  0  0  0  0
  149.2862  160.4623  130.5821 H   0  0  0  0  0  0  0  0  0  0  0  0
  146.9591  160.8842  131.3850 H   0  0  0  0  0  0  0  0  0  0  0  0
  145.9666  161.7110  133.5529 H   0  0  0  0  0  0  0  0  0  0  0  0
  143.6288  162.1879  134.3521 H   0  0  0  0  0  0  0  0  0  0  0  0
  141.1256  160.9376  134.9348 H   0  0  0  0  0  0  0  0  0  0  0  0
  139.4660  159.0190  136.9600 H   0  0  0  0  0  0  0  0  0  0  0  0
  145.0029  157.4680  133.2663 H   0  0  0  0  0  0  0  0  0  0  0  0
  1  2  1  0
  2  3  1  0
  3  4  2  0
  4  5  1  0
  5  6  2  0
  6  7  1  0
  7  8  2  0
  8  9  1  0
  9 10  2  0
 10 11  1  0
 11 12  2  0
 12 13  1  0
 13 14  2  0
 14 15  1  0
 15 16  1  0
 15 17  2  0
 14 18  1  0
 18 19  1  0
 19 20  2  0
 19 21  1  0
 18 22  1  0
 22 23  2  0
  8  3  1  0
 23  9  1  0
 22 12  1  0
  1 24  1  0
  1 25  1  0
  1 26  1  0
  4 27  1  0
  5 28  1  0
  6 29  1  0
  7 30  1  0
 10 31  1  0
 11 32  1  0
 13 33  1  0
 16 34  1  0
 23 35  1  0
M  CHG  3   4   1  16  -1  21  -1
M  END
>  <UniqueID>  (15) 
15

>  <SMILES>  (15) 
COc1[nH+]cccc1-c1ccc2cc(C([NH-])=O)n(C(=O)[O-])c2c1

>  <Energy>  (15) 
83.01532096001365

>  <Genealogy>  (15) 
COc1[nH+]cccc1-c1ccc2cc(C([NH-])=O)n(C(=O)[O-])c2c1 (protonated)
COc1[nH+]cccc1-c1ccc2cc(C([NH-])=O)n(C(=O)[O-])c2c1 (3D coordinates assigned)
COc1[nH+]cccc1-c1ccc2cc(C([NH-])=O)n(C(=O)[O-])c2c1 (optimized conformer: 83.01532096001365 kcal/mol)

>  <smiles>  (15) 
COc1ncccc1-c1ccc2cc(C(N)=O)n(C(=O)O)c2c1

>  <score_type>  (15) 
oracle

>  <origin>  (15) 
adg

>  <m_score__min__energy>  (15) 
-6.8899999999999997

>  <m_primary>  (15) 
energy

$$$$
15:0
     RDKit          3D

 52 55  0  0  0  0  0  0  0  0999 V2000
  140.6000  154.4080  138.4660 C   0  0  0  0  0  0  0  0  0  0  0  0
  141.6410  155.4490  138.4480 N   0  0  0  0  0  0  0  0  0  0  0  0
  141.0700  156.7530  138.8570 C   0  0  0  0  0  0  0  0  0  0  0  0
  141.9400  157.9210  138.3680 C   0  0  0  0  0  0  0  0  0  0  0  0
  142.0510  157.9580  136.8860 N   0  0  0  0  0  0  0  0  0  0  0  0
  141.1630  158.9860  136.3020 C   0  0  0  0  0  0  0  0  0  0  0  0
  140.5630  158.5040  134.9960 C   0  0  0  0  0  0  0  0  0  0  0  0
  139.2380  158.0340  135.0130 C   0  0  0  0  0  0  0  0  0  0  0  0
  138.6040  157.6430  133.8320 C   0  0  0  0  0  0  0  0  0  0  0  0
  139.2800  157.7250  132.6160 C   0  0  0  0  0  0  0  0  0  0  0  0
  140.5940  158.1940  132.5760 C   0  0  0  0  0  0  0  0  0  0  0  0
  141.2510  158.5800  133.7560 C   0  0  0  0  0  0  0  0  0  0  0  0
  142.6440  159.0620  133.6510 C   0  0  0  0  0  0  0  0  0  0  0  0
  142.9190  160.4470  133.7650 C   0  0  0  0  0  0  0  0  0  0  0  0
  144.2390  160.9220  133.6800 C   0  0  0  0  0  0  0  0  0  0  0  0
  145.2530  159.9940  133.4620 C   0  0  0  0  0  0  0  0  0  0  0  0
  146.6140  160.1760  133.3650 C   0  0  0  0  0  0  0  0  0  0  0  0
  147.1430  158.9050  133.1560 C   0  0  0  0  0  0  0  0  0  0  0  0
  148.5770  158.6510  132.9060 C   0  0  0  0  0  0  0  0  0  0  0  0
  149.0430  157.3120  132.7480 N   0  0  0  0  0  0  0  0  0  0  0  0
  149.4040  159.6000  132.8650 O   0  0  0  0  0  0  0  0  0  0  0  0
  146.1480  157.9700  133.1320 N   0  0  0  0  0  0  0  0  0  0  0  0
  146.2800  156.5440  133.0180 C   0  0  0  0  0  0  0  0  0  0  0  0
  146.8920  155.9680  131.8670 N   0  0  0  0  0  0  0  0  0  0  0  0
  145.8850  155.7970  133.9520 O   0  0  0  0  0  0  0  0  0  0  0  0
  144.9990  158.6540  133.3160 C   0  0  0  0  0  0  0  0  0  0  0  0
  143.6950  158.1530  133.4100 C   0  0  0  0  0  0  0  0  0  0  0  0
  141.8320  156.6350  136.2500 C   0  0  0  0  0  0  0  0  0  0  0  0
  142.3390  155.4920  137.1400 C   0  0  0  0  0  0  0  0  0  0  0  0
  140.3497  154.1577  139.5075 H   0  0  0  0  0  0  0  0  0  0  0  0
  139.7012  154.7794  137.9520 H   0  0  0  0  0  0  0  0  0  0  0  0
  140.9714  153.5092  137.9520 H   0  0  0  0  0  0  0  0  0  0  0  0
  140.0619  156.8531  138.4284 H   0  0  0  0  0  0  0  0  0  0  0  0
  141.0305  156.7856  139.9558 H   0  0  0  0  0  0  0  0  0  0  0  0
  141.4923  158.8646  138.7131 H   0  0  0  0  0  0  0  0  0  0  0  0
  142.9512  157.7832  138.7785 H   0  0  0  0  0  0  0  0  0  0  0  0
  140.3517  159.2062  137.0114 H   0  0  0  0  0  0  0  0  0  0  0  0
  141.7560  159.8909  136.1035 H   0  0  0  0  0  0  0  0  0  0  0  0
  138.6947  157.9736  135.9675 H   0  0  0  0  0  0  0  0  0  0  0  0
  137.5697  157.2698  133.8614 H   0  0  0  0  0  0  0  0  0  0  0  0
  138.7773  157.4197  131.6865 H   0  0  0  0  0  0  0  0  0  0  0  0
  141.1196  158.2619  131.6121 H   0  0  0  0  0  0  0  0  0  0  0  0
  142.0929  161.1563  133.9213 H   0  0  0  0  0  0  0  0  0  0  0  0
  144.4637  161.9939  133.7826 H   0  0  0  0  0  0  0  0  0  0  0  0
  147.1665  161.1244  133.4373 H   0  0  0  0  0  0  0  0  0  0  0  0
  148.9010  156.7960  131.8520 H   0  0  0  0  0  0  0  0  0  0  0  0
  147.6620  156.4620  131.3640 H   0  0  0  0  0  0  0  0  0  0  0  0
  143.4952  157.0770  133.2987 H   0  0  0  0  0  0  0  0  0  0  0  0
  140.7553  156.4982  136.0713 H   0  0  0  0  0  0  0  0  0  0  0  0
  142.3923  156.6101  135.3037 H   0  0  0  0  0  0  0  0  0  0  0  0
  142.1742  154.5374  136.6189 H   0  0  0  0  0  0  0  0  0  0  0  0
  143.4083  155.6631  137.3332 H   0  0  0  0  0  0  0  0  0  0  0  0
  1  2  1  0
  2  3  1  0
  3  4  1  0
  4  5  1  0
  5  6  1  0
  6  7  1  0
  7  8  2  0
  8  9  1  0
  9 10  2  0
 10 11  1  0
 11 12  2  0
 12 13  1  0
 13 14  2  0
 14 15  1  0
 15 16  2  0
 16 17  1  0
 17 18  2  0
 18 19  1  0
 19 20  1  0
 19 21  2  0
 18 22  1  0
 22 23  1  0
 23 24  1  0
 23 25  2  0
 22 26  1  0
 26 27  2  0
  5 28  1  0
 28 29  1  0
 29  2  1  0
 12  7  1  0
 27 13  1  0
 26 16  1  0
  1 30  1  0
  1 31  1  0
  1 32  1  0
  3 33  1  0
  3 34  1  0
  4 35  1  0
  4 36  1  0
  6 37  1  0
  6 38  1  0
  8 39  1  0
  9 40  1  0
 10 41  1  0
 11 42  1  0
 14 43  1  0
 15 44  1  0
 17 45  1  0
 20 46  1  0
 24 47  1  0
 27 48  1  0
 28 49  1  0
 28 50  1  0
 29 51  1  0
 29 52  1  0
M  CHG  2  20  -1  24  -1
M  END
>  <UniqueID>  (16) 
16

>  <SMILES>  (16) 
CN1CCN(Cc2ccccc2-c2ccc3cc(C([NH-])=O)n(C([NH-])=O)c3c2)CC1

>  <Energy>  (16) 
113.649991260096

>  <Genealogy>  (16) 
CN1CCN(Cc2ccccc2-c2ccc3cc(C([NH-])=O)n(C([NH-])=O)c3c2)CC1 (protonated)
CN1CCN(Cc2ccccc2-c2ccc3cc(C([NH-])=O)n(C([NH-])=O)c3c2)CC1 (3D coordinates assigned)
CN1CCN(Cc2ccccc2-c2ccc3cc(C([NH-])=O)n(C([NH-])=O)c3c2)CC1 (nonaromatic ring conformer: 113.649991260096 kcal/mol)

>  <smiles>  (16) 
CN1CCN(Cc2ccccc2-c2ccc3cc(C(N)=O)n(C(N)=O)c3c2)CC1

>  <score_type>  (16) 
oracle

>  <origin>  (16) 
adg

>  <m_score__min__energy>  (16) 
-9.0500000000000007

>  <m_primary>  (16) 
energy

$$$$
16:0
     RDKit          3D

 45 47  0  0  0  0  0  0  0  0999 V2000
  143.1720  156.0700  133.1360 C   0  0  0  0  0  0  0  0  0  0  0  0
  143.1710  157.4720  132.8970 O   0  0  0  0  0  0  0  0  0  0  0  0
  143.6910  158.3950  133.8100 C   0  0  0  0  0  0  0  0  0  0  0  0
  143.0490  158.6820  134.8560 O   0  0  0  0  0  0  0  0  0  0  0  0
  144.9610  159.0150  133.5510 N   0  0  0  0  0  0  0  0  0  0  0  0
  145.2550  160.3440  133.6030 C   0  0  0  0  0  0  0  0  0  0  0  0
  144.2800  161.4400  133.7720 C   0  0  0  0  0  0  0  0  0  0  0  0
  142.8740  161.1930  133.7240 N   0  0  0  0  0  0  0  0  0  0  0  0
  144.6950  162.6220  133.9060 O   0  0  0  0  0  0  0  0  0  0  0  0
  146.6200  160.5550  133.4220 C   0  0  0  0  0  0  0  0  0  0  0  0
  147.1590  159.3020  133.2430 C   0  0  0  0  0  0  0  0  0  0  0  0
  148.4810  158.9210  133.0370 C   0  0  0  0  0  0  0  0  0  0  0  0
  148.7620  157.5510  132.9230 C   0  0  0  0  0  0  0  0  0  0  0  0
  147.7260  156.5850  133.0270 C   0  0  0  0  0  0  0  0  0  0  0  0
  148.0370  155.1370  132.9190 C   0  0  0  0  0  0  0  0  0  0  0  0
  149.3350  154.7000  132.6090 C   0  0  0  0  0  0  0  0  0  0  0  0
  149.6150  153.3380  132.5110 C   0  0  0  0  0  0  0  0  0  0  0  0
  148.5910  152.3980  132.7210 C   0  0  0  0  0  0  0  0  0  0  0  0
  148.8500  150.9020  132.6230 C   0  0  0  0  0  0  0  0  0  0  0  0
  149.5810  150.4150  133.8900 C   0  0  0  0  0  0  0  0  0  0  0  0
  149.6890  150.5980  131.3670 C   0  0  0  0  0  0  0  0  0  0  0  0
  147.6110  150.2350  132.5220 O   0  0  0  0  0  0  0  0  0  0  0  0
  147.3390  152.8460  133.0190 N   0  0  0  0  0  0  0  0  0  0  0  0
  147.0420  154.1670  133.1220 C   0  0  0  0  0  0  0  0  0  0  0  0
  146.3950  157.0150  133.2390 C   0  0  0  0  0  0  0  0  0  0  0  0
  146.1400  158.3890  133.3260 C   0  0  0  0  0  0  0  0  0  0  0  0
  143.1721  155.8828  134.2200 H   0  0  0  0  0  0  0  0  0  0  0  0
  142.2742  155.6208  132.6864 H   0  0  0  0  0  0  0  0  0  0  0  0
  144.0705  155.6220  132.6864 H   0  0  0  0  0  0  0  0  0  0  0  0
  142.5000  160.2580  133.4490 H   0  0  0  0  0  0  0  0  0  0  0  0
  142.1990  161.9730  133.8850 H   0  0  0  0  0  0  0  0  0  0  0  0
  147.1528  161.5174  133.4222 H   0  0  0  0  0  0  0  0  0  0  0  0
  149.2822  159.6714  132.9656 H   0  0  0  0  0  0  0  0  0  0  0  0
  149.7972  157.2211  132.7510 H   0  0  0  0  0  0  0  0  0  0  0  0
  150.1351  155.4364  132.4426 H   0  0  0  0  0  0  0  0  0  0  0  0
  150.6337  152.9999  132.2702 H   0  0  0  0  0  0  0  0  0  0  0  0
  149.0455  150.7717  134.7822 H   0  0  0  0  0  0  0  0  0  0  0  0
  149.6115  149.3154  133.8959 H   0  0  0  0  0  0  0  0  0  0  0  0
  150.6075  150.8103  133.8959 H   0  0  0  0  0  0  0  0  0  0  0  0
  150.6835  150.2377  131.6688 H   0  0  0  0  0  0  0  0  0  0  0  0
  149.1853  149.8252  130.7678 H   0  0  0  0  0  0  0  0  0  0  0  0
  149.7972  151.5141  130.7678 H   0  0  0  0  0  0  0  0  0  0  0  0
  146.9450  150.7270  133.0710 H   0  0  0  0  0  0  0  0  0  0  0  0
  146.0158  154.4792  133.3659 H   0  0  0  0  0  0  0  0  0  0  0  0
  145.5775  156.2851  133.3335 H   0  0  0  0  0  0  0  0  0  0  0  0
  1  2  1  0
  2  3  1  0
  3  4  2  0
  3  5  1  0
  5  6  1  0
  6  7  1  0
  7  8  1  0
  7  9  2  0
  6 10  2  0
 10 11  1  0
 11 12  2  0
 12 13  1  0
 13 14  2  0
 14 15  1  0
 15 16  2  0
 16 17  1  0
 17 18  2  0
 18 19  1  0
 19 20  1  0
 19 21  1  0
 19 22  1  0
 18 23  1  0
 23 24  2  0
 14 25  1  0
 25 26  2  0
 26  5  1  0
 26 11  1  0
 24 15  1  0
  1 27  1  0
  1 28  1  0
  1 29  1  0
  8 30  1  0
  8 31  1  0
 10 32  1  0
 12 33  1  0
 13 34  1  0
 16 35  1  0
 17 36  1  0
 20 37  1  0
 20 38  1  0
 20 39  1  0
 21 40  1  0
 21 41  1  0
 21 42  1  0
 22 43  1  0
 24 44  1  0
 25 45  1  0
M  END
>  <UniqueID>  (17) 
17

>  <SMILES>  (17) 
COC(=O)n1c(C(N)=O)cc2ccc(-c3ccc(C(C)(C)O)nc3)cc21

>  <Energy>  (17) 
89.40648166772293

>  <Genealogy>  (17) 
COC(=O)n1c(C(N)=O)cc2ccc(-c3ccc(C(C)(C)O)nc3)cc21 (3D coordinates assigned)
COC(=O)n1c(C(N)=O)cc2ccc(-c3ccc(C(C)(C)O)nc3)cc21 (optimized conformer: 89.40648166772293 kcal/mol)

>  <smiles>  (17) 
COC(=O)n1c(C(N)=O)cc2ccc(-c3ccc(C(C)(C)O)nc3)cc21

>  <score_type>  (17) 
oracle

>  <origin>  (17) 
adg

>  <m_score__min__energy>  (17) 
-8.1400000000000006

>  <m_primary>  (17) 
energy

$$$$
17:0
     RDKit          3D

 35 36  0  0  0  0  0  0  0  0999 V2000
  139.4580  158.8310  132.9700 C   0  0  0  0  0  0  0  0  0  0  0  0
  140.4010  158.0970  133.9490 C   0  0  0  0  0  0  0  0  0  0  0  0
  140.3880  156.5950  133.5760 C   0  0  0  0  0  0  0  0  0  0  0  0
  139.8520  158.2280  135.3850 C   0  0  0  0  0  0  0  0  0  0  0  0
  141.8080  158.7260  133.8770 C   0  0  0  0  0  0  0  0  0  0  0  0
  141.9350  160.1450  133.8100 C   0  0  0  0  0  0  0  0  0  0  0  0
  143.1930  160.7650  133.7320 C   0  0  0  0  0  0  0  0  0  0  0  0
  144.3190  159.9540  133.7290 C   0  0  0  0  0  0  0  0  0  0  0  0
  145.6500  160.2940  133.6400 C   0  0  0  0  0  0  0  0  0  0  0  0
  146.3420  159.0850  133.6750 C   0  0  0  0  0  0  0  0  0  0  0  0
  147.8170  158.9780  133.7020 C   0  0  0  0  0  0  0  0  0  0  0  0
  148.4610  157.9410  134.4440 N   0  0  0  0  0  0  0  0  0  0  0  0
  148.5220  159.7860  133.0410 O   0  0  0  0  0  0  0  0  0  0  0  0
  145.4710  158.0410  133.7770 N   0  0  0  0  0  0  0  0  0  0  0  0
  145.7820  156.6370  133.7770 C   0  0  0  0  0  0  0  0  0  0  0  0
  145.4470  155.8270  132.6540 N   0  0  0  0  0  0  0  0  0  0  0  0
  146.3370  156.1110  134.7790 O   0  0  0  0  0  0  0  0  0  0  0  0
  144.2360  158.5920  133.8100 C   0  0  0  0  0  0  0  0  0  0  0  0
  142.9970  157.9430  133.8700 C   0  0  0  0  0  0  0  0  0  0  0  0
  138.7155  159.4089  133.5399 H   0  0  0  0  0  0  0  0  0  0  0  0
  140.0452  159.5121  132.3365 H   0  0  0  0  0  0  0  0  0  0  0  0
  138.9418  158.0946  132.3365 H   0  0  0  0  0  0  0  0  0  0  0  0
  140.3828  155.9892  134.4942 H   0  0  0  0  0  0  0  0  0  0  0  0
  139.4879  156.3719  132.9844 H   0  0  0  0  0  0  0  0  0  0  0  0
  141.2841  156.3563  132.9844 H   0  0  0  0  0  0  0  0  0  0  0  0
  140.6604  158.0351  136.1056 H   0  0  0  0  0  0  0  0  0  0  0  0
  139.4606  159.2448  135.5366 H   0  0  0  0  0  0  0  0  0  0  0  0
  139.0437  157.4975  135.5366 H   0  0  0  0  0  0  0  0  0  0  0  0
  141.0281  160.7674  133.8196 H   0  0  0  0  0  0  0  0  0  0  0  0
  143.2828  161.8598  133.6750 H   0  0  0  0  0  0  0  0  0  0  0  0
  146.0764  161.3047  133.5586 H   0  0  0  0  0  0  0  0  0  0  0  0
  149.5010  157.8500  134.4240 H   0  0  0  0  0  0  0  0  0  0  0  0
  147.9150  157.2860  135.0460 H   0  0  0  0  0  0  0  0  0  0  0  0
  145.8290  156.0380  131.7050 H   0  0  0  0  0  0  0  0  0  0  0  0
  142.9430  156.8451  133.9111 H   0  0  0  0  0  0  0  0  0  0  0  0
  1  2  1  0
  2  3  1  0
  2  4  1  0
  2  5  1  0
  5  6  2  0
  6  7  1  0
  7  8  2  0
  8  9  1  0
  9 10  2  0
 10 11  1  0
 11 12  1  0
 11 13  2  0
 10 14  1  0
 14 15  1  0
 15 16  1  0
 15 17  2  0
 14 18  1  0
 18 19  2  0
 19  5  1  0
 18  8  1  0
  1 20  1  0
  1 21  1  0
  1 22  1  0
  3 23  1  0
  3 24  1  0
  3 25  1  0
  4 26  1  0
  4 27  1  0
  4 28  1  0
  6 29  1  0
  7 30  1  0
  9 31  1  0
 12 32  1  0
 12 33  1  0
 16 34  1  0
 19 35  1  0
M  CHG  1  16  -1
M  END
>  <UniqueID>  (18) 
18

>  <SMILES>  (18) 
CC(C)(C)c1ccc2cc(C(N)=O)n(C([NH-])=O)c2c1

>  <Energy>  (18) 
74.95959771565595

>  <Genealogy>  (18) 
CC(C)(C)c1ccc2cc(C(N)=O)n(C([NH-])=O)c2c1 (protonated)
CC(C)(C)c1ccc2cc(C(N)=O)n(C([NH-])=O)c2c1 (3D coordinates assigned)
CC(C)(C)c1ccc2cc(C(N)=O)n(C([NH-])=O)c2c1 (optimized conformer: 74.95959771565595 kcal/mol)

>  <smiles>  (18) 
CC(C)(C)c1ccc2cc(C(N)=O)n(C(N)=O)c2c1

>  <score_type>  (18) 
oracle

>  <origin>  (18) 
adg

>  <m_score__min__energy>  (18) 
-6.8799999999999999

>  <m_primary>  (18) 
energy

$$$$
18:0
     RDKit          3D

 34 36  0  0  0  0  0  0  0  0999 V2000
  146.8270  155.8700  134.2170 C   0  0  0  0  0  0  0  0  0  0  0  0
  146.8910  156.6820  132.9630 C   0  0  0  0  0  0  0  0  0  0  0  0
  146.9950  156.0950  131.8530 O   0  0  0  0  0  0  0  0  0  0  0  0
  146.7500  158.1100  133.0040 N   0  0  0  0  0  0  0  0  0  0  0  0
  147.7010  159.0580  132.7670 C   0  0  0  0  0  0  0  0  0  0  0  0
  149.0650  158.8080  132.2600 C   0  0  0  0  0  0  0  0  0  0  0  0
  149.6030  157.4880  132.2220 N   0  0  0  0  0  0  0  0  0  0  0  0
  149.7520  159.7670  131.8150 O   0  0  0  0  0  0  0  0  0  0  0  0
  147.1850  160.3330  132.9970 C   0  0  0  0  0  0  0  0  0  0  0  0
  145.8760  160.1340  133.3740 C   0  0  0  0  0  0  0  0  0  0  0  0
  144.8970  161.0550  133.7350 C   0  0  0  0  0  0  0  0  0  0  0  0
  143.6350  160.5610  134.1070 C   0  0  0  0  0  0  0  0  0  0  0  0
  143.3750  159.1680  134.1050 C   0  0  0  0  0  0  0  0  0  0  0  0
  142.0370  158.6490  134.5550 C   0  0  0  0  0  0  0  0  0  0  0  0
  141.0570  158.8010  133.4810 N   0  0  0  0  0  0  0  0  0  0  0  0
  140.5690  159.9440  132.9720 C   0  0  0  0  0  0  0  0  0  0  0  0
  140.9770  161.2170  133.3500 O   0  0  0  0  0  0  0  0  0  0  0  0
  139.6060  159.6510  132.0330 C   0  0  0  0  0  0  0  0  0  0  0  0
  139.4670  158.3100  131.9510 N   0  0  0  0  0  0  0  0  0  0  0  0
  140.3590  157.8350  132.8480 C   0  0  0  0  0  0  0  0  0  0  0  0
  140.5160  156.6050  133.0710 O   0  0  0  0  0  0  0  0  0  0  0  0
  144.3970  158.2640  133.7420 C   0  0  0  0  0  0  0  0  0  0  0  0
  145.6400  158.7850  133.3670 C   0  0  0  0  0  0  0  0  0  0  0  0
  146.8796  156.5379  135.0894 H   0  0  0  0  0  0  0  0  0  0  0  0
  145.8818  155.3079  134.2420 H   0  0  0  0  0  0  0  0  0  0  0  0
  147.6725  155.1668  134.2420 H   0  0  0  0  0  0  0  0  0  0  0  0
  149.0750  156.7060  131.7750 H   0  0  0  0  0  0  0  0  0  0  0  0
  147.7119  161.2935  132.8982 H   0  0  0  0  0  0  0  0  0  0  0  0
  145.1044  162.1352  133.7293 H   0  0  0  0  0  0  0  0  0  0  0  0
  142.8411  161.2627  134.4027 H   0  0  0  0  0  0  0  0  0  0  0  0
  142.1282  157.5847  134.8174 H   0  0  0  0  0  0  0  0  0  0  0  0
  141.7034  159.2215  135.4330 H   0  0  0  0  0  0  0  0  0  0  0  0
  139.0412  160.3893  131.4448 H   0  0  0  0  0  0  0  0  0  0  0  0
  144.2205  157.1783  133.7538 H   0  0  0  0  0  0  0  0  0  0  0  0
  1  2  1  0
  2  3  2  0
  2  4  1  0
  4  5  1  0
  5  6  1  0
  6  7  1  0
  6  8  2  0
  5  9  2  0
  9 10  1  0
 10 11  2  0
 11 12  1  0
 12 13  2  0
 13 14  1  0
 14 15  1  0
 15 16  1  0
 16 17  1  0
 16 18  2  0
 18 19  1  0
 19 20  1  0
 20 21  2  0
 13 22  1  0
 22 23  2  0
 23  4  1  0
 23 10  1  0
 20 15  1  0
  1 24  1  0
  1 25  1  0
  1 26  1  0
  7 27  1  0
  9 28  1  0
 11 29  1  0
 12 30  1  0
 14 31  1  0
 14 32  1  0
 18 33  1  0
 22 34  1  0
M  CHG  3   7  -1  17  -1  19  -1
M  END
>  <UniqueID>  (19) 
19

>  <SMILES>  (19) 
CC(=O)n1c(C([NH-])=O)cc2ccc(Cn3c([O-])c[n-]c3=O)cc21

>  <Energy>  (19) 
106.1204081940861

>  <Genealogy>  (19) 
CC(=O)n1c(C([NH-])=O)cc2ccc(Cn3c([O-])c[n-]c3=O)cc21 (protonated)
CC(=O)n1c(C([NH-])=O)cc2ccc(Cn3c([O-])c[n-]c3=O)cc21 (3D coordinates assigned)
CC(=O)n1c(C([NH-])=O)cc2ccc(Cn3c([O-])c[n-]c3=O)cc21 (optimized conformer: 106.1204081940861 kcal/mol)

>  <smiles>  (19) 
CC(=O)n1c(C(N)=O)cc2ccc(Cn3c(O)c[nH]c3=O)cc21

>  <score_type>  (19) 
oracle

>  <origin>  (19) 
adg

>  <m_score__min__energy>  (19) 
-6.8300000000000001

>  <m_primary>  (19) 
energy

$$$$
19:0
     RDKit          3D

 37 38  0  0  0  0  0  0  0  0999 V2000
  143.8730  153.7700  132.1050 C   0  0  0  0  0  0  0  0  0  0  0  0
  143.7060  155.1700  132.4670 N   0  0  0  0  0  0  0  0  0  0  0  0
  144.7020  155.8820  133.2110 C   0  0  0  0  0  0  0  0  0  0  0  0
  145.7280  155.2820  133.6320 O   0  0  0  0  0  0  0  0  0  0  0  0
  144.5410  157.2850  133.4710 N   0  0  0  0  0  0  0  0  0  0  0  0
  143.4490  157.9230  133.9780 C   0  0  0  0  0  0  0  0  0  0  0  0
  142.1340  157.3060  134.2570 C   0  0  0  0  0  0  0  0  0  0  0  0
  141.3180  156.8050  133.2020 N   0  0  0  0  0  0  0  0  0  0  0  0
  141.7100  157.2510  135.4430 O   0  0  0  0  0  0  0  0  0  0  0  0
  143.7110  159.2820  134.1410 C   0  0  0  0  0  0  0  0  0  0  0  0
  145.0070  159.4580  133.7120 C   0  0  0  0  0  0  0  0  0  0  0  0
  145.7840  160.6100  133.6540 C   0  0  0  0  0  0  0  0  0  0  0  0
  147.1020  160.4930  133.1820 C   0  0  0  0  0  0  0  0  0  0  0  0
  147.6310  159.2320  132.7990 C   0  0  0  0  0  0  0  0  0  0  0  0
  149.0540  159.1480  132.2740 C   0  0  1  0  0  0  0  0  0  0  0  0
  149.5890  157.7110  132.2340 C   0  0  0  0  0  0  0  0  0  0  0  0
  149.1890  159.8270  130.9260 C   0  0  0  0  0  0  0  0  0  0  0  0
  149.2840  161.3220  130.7920 C   0  0  0  0  0  0  0  0  0  0  0  0
  149.2340  159.1400  129.9170 O   0  0  0  0  0  0  0  0  0  0  0  0
  146.8020  158.0840  132.8700 C   0  0  0  0  0  0  0  0  0  0  0  0
  145.4870  158.2370  133.3180 C   0  0  0  0  0  0  0  0  0  0  0  0
  143.9456  153.1613  133.0183 H   0  0  0  0  0  0  0  0  0  0  0  0
  143.0080  153.4390  131.5116 H   0  0  0  0  0  0  0  0  0  0  0  0
  144.7916  153.6518  131.5116 H   0  0  0  0  0  0  0  0  0  0  0  0
  142.8290  155.6630  132.1860 H   0  0  0  0  0  0  0  0  0  0  0  0
  141.7040  156.6670  132.2430 H   0  0  0  0  0  0  0  0  0  0  0  0
  143.0272  160.0509  134.5300 H   0  0  0  0  0  0  0  0  0  0  0  0
  145.3789  161.5832  133.9682 H   0  0  0  0  0  0  0  0  0  0  0  0
  147.7332  161.3909  133.1081 H   0  0  0  0  0  0  0  0  0  0  0  0
  149.6828  159.6943  132.9925 H   0  0  0  0  0  0  0  0  0  0  0  0
  149.7263  157.3421  133.2612 H   0  0  0  0  0  0  0  0  0  0  0  0
  148.8705  157.0668  131.7061 H   0  0  0  0  0  0  0  0  0  0  0  0
  150.5539  157.6935  131.7061 H   0  0  0  0  0  0  0  0  0  0  0  0
  149.3130  161.7787  131.7923 H   0  0  0  0  0  0  0  0  0  0  0  0
  150.2006  161.5834  130.2429 H   0  0  0  0  0  0  0  0  0  0  0  0
  148.4079  161.6973  130.2429 H   0  0  0  0  0  0  0  0  0  0  0  0
  147.1853  157.0949  132.5789 H   0  0  0  0  0  0  0  0  0  0  0  0
  1  2  1  0
  2  3  1  0
  3  4  2  0
  3  5  1  0
  5  6  1  0
  6  7  1  0
  7  8  1  0
  7  9  2  0
  6 10  2  0
 10 11  1  0
 11 12  2  0
 12 13  1  0
 13 14  2  0
 14 15  1  0
 15 16  1  0
 15 17  1  0
 17 18  1  0
 17 19  2  0
 14 20  1  0
 20 21  2  0
 21  5  1  0
 21 11  1  0
  1 22  1  0
  1 23  1  0
  1 24  1  0
  2 25  1  0
  8 26  1  0
 10 27  1  0
 12 28  1  0
 13 29  1  0
 15 30  1  1
 16 31  1  0
 16 32  1  0
 16 33  1  0
 18 34  1  0
 18 35  1  0
 18 36  1  0
 20 37  1  0
M  CHG  1   8  -1
M  END
>  <UniqueID>  (20) 
20

>  <SMILES>  (20) 
CNC(=O)n1c(C([NH-])=O)cc2ccc([C@@H](C)C(C)=O)cc21

>  <Energy>  (20) 
71.30011587530724

>  <Genealogy>  (20) 
CNC(=O)n1c(C([NH-])=O)cc2ccc(C(C)C(C)=O)cc21 (protonated)
CNC(=O)n1c(C([NH-])=O)cc2ccc([C@@H](C)C(C)=O)cc21 (chirality)
CNC(=O)n1c(C([NH-])=O)cc2ccc([C@@H](C)C(C)=O)cc21 (3D coordinates assigned)
CNC(=O)n1c(C([NH-])=O)cc2ccc([C@@H](C)C(C)=O)cc21 (optimized conformer: 71.30011587530724 kcal/mol)

>  <smiles>  (20) 
CNC(=O)n1c(C(N)=O)cc2ccc(C(C)C(C)=O)cc21

>  <score_type>  (20) 
oracle

>  <origin>  (20) 
adg

>  <m_score__min__energy>  (20) 
-6.8399999999999999

>  <m_primary>  (20) 
energy

$$$$
20:0
     RDKit          3D

 39 41  0  0  0  0  0  0  0  0999 V2000
  140.7350  160.4850  133.0310 N   0  0  0  0  0  0  0  0  0  0  0  0
  142.0160  160.2880  133.6270 C   0  0  0  0  0  0  0  0  0  0  0  0
  142.8070  161.2620  133.7330 O   0  0  0  0  0  0  0  0  0  0  0  0
  142.4100  158.9830  134.0840 N   0  0  0  0  0  0  0  0  0  0  0  0
  141.6270  158.0420  134.6810 C   0  0  0  0  0  0  0  0  0  0  0  0
  140.2300  158.2410  135.1250 C   0  0  0  0  0  0  0  0  0  0  0  0
  139.9400  158.6400  136.4660 N   0  0  0  0  0  0  0  0  0  0  0  0
  139.2800  158.0940  134.3110 O   0  0  0  0  0  0  0  0  0  0  0  0
  142.3570  156.8780  134.9120 C   0  0  0  0  0  0  0  0  0  0  0  0
  143.6210  157.1400  134.4350 C   0  0  0  0  0  0  0  0  0  0  0  0
  144.7440  156.3280  134.3970 C   0  0  0  0  0  0  0  0  0  0  0  0
  145.9160  156.8450  133.8220 C   0  0  0  0  0  0  0  0  0  0  0  0
  145.9640  158.1700  133.2840 C   0  0  0  0  0  0  0  0  0  0  0  0
  147.1890  158.6970  132.6790 N   0  0  0  0  0  0  0  0  0  0  0  0
  148.3110  157.7610  132.4190 C   0  0  0  0  0  0  0  0  0  0  0  0
  149.5940  158.4020  131.8830 C   0  0  0  0  0  0  0  0  0  0  0  0
  149.2870  159.5290  130.9080 C   0  0  0  0  0  0  0  0  0  0  0  0
  150.4700  160.0430  130.3460 O   0  0  0  0  0  0  0  0  0  0  0  0
  148.5310  160.6130  131.6640 C   0  0  0  0  0  0  0  0  0  0  0  0
  147.1860  160.0960  132.1830 C   0  0  0  0  0  0  0  0  0  0  0  0
  144.7740  158.9530  133.3440 C   0  0  0  0  0  0  0  0  0  0  0  0
  143.6290  158.4150  133.9410 C   0  0  0  0  0  0  0  0  0  0  0  0
  139.9320  159.8630  133.2700 H   0  0  0  0  0  0  0  0  0  0  0  0
  138.9520  158.8170  136.7580 H   0  0  0  0  0  0  0  0  0  0  0  0
  140.6930  158.7210  137.1840 H   0  0  0  0  0  0  0  0  0  0  0  0
  141.9991  155.9475  135.3768 H   0  0  0  0  0  0  0  0  0  0  0  0
  144.7176  155.3072  134.8059 H   0  0  0  0  0  0  0  0  0  0  0  0
  146.8182  156.2168  133.7843 H   0  0  0  0  0  0  0  0  0  0  0  0
  148.5550  157.2537  133.3641 H   0  0  0  0  0  0  0  0  0  0  0  0
  147.9601  157.0814  131.6284 H   0  0  0  0  0  0  0  0  0  0  0  0
  150.1715  158.8067  132.7272 H   0  0  0  0  0  0  0  0  0  0  0  0
  150.1694  157.6307  131.3500 H   0  0  0  0  0  0  0  0  0  0  0  0
  148.6727  159.1503  130.0778 H   0  0  0  0  0  0  0  0  0  0  0  0
  150.7560  160.8200  130.8930 H   0  0  0  0  0  0  0  0  0  0  0  0
  149.1402  160.9458  132.5173 H   0  0  0  0  0  0  0  0  0  0  0  0
  148.3387  161.4475  130.9736 H   0  0  0  0  0  0  0  0  0  0  0  0
  146.8681  160.7483  133.0097 H   0  0  0  0  0  0  0  0  0  0  0  0
  146.5033  160.1098  131.3206 H   0  0  0  0  0  0  0  0  0  0  0  0
  144.7564  159.9699  132.9250 H   0  0  0  0  0  0  0  0  0  0  0  0
  1  2  1  0
  2  3  2  0
  2  4  1  0
  4  5  1  0
  5  6  1  0
  6  7  1  0
  6  8  2  0
  5  9  2  0
  9 10  1  0
 10 11  2  0
 11 12  1  0
 12 13  2  0
 13 14  1  0
 14 15  1  0
 15 16  1  0
 16 17  1  0
 17 18  1  0
 17 19  1  0
 19 20  1  0
 13 21  1  0
 21 22  2  0
 22  4  1  0
 22 10  1  0
 20 14  1  0
  1 23  1  0
  7 24  1  0
  7 25  1  0
  9 26  1  0
 11 27  1  0
 12 28  1  0
 15 29  1  0
 15 30  1  0
 16 31  1  0
 16 32  1  0
 17 33  1  0
 18 34  1  0
 19 35  1  0
 19 36  1  0
 20 37  1  0
 20 38  1  0
 21 39  1  0
M  CHG  1   1  -1
M  END
>  <UniqueID>  (21) 
21

>  <SMILES>  (21) 
[NH-]C(=O)n1c(C(N)=O)cc2ccc(N3CCC(O)CC3)cc21

>  <Energy>  (21) 
86.18018637529222

>  <Genealogy>  (21) 
[NH-]C(=O)n1c(C(N)=O)cc2ccc(N3CCC(O)CC3)cc21 (protonated)
[NH-]C(=O)n1c(C(N)=O)cc2ccc(N3CCC(O)CC3)cc21 (3D coordinates assigned)
[NH-]C(=O)n1c(C(N)=O)cc2ccc(N3CCC(O)CC3)cc21 (nonaromatic ring conformer: 86.18018637529222 kcal/mol)

>  <smiles>  (21) 
NC(=O)c1cc2ccc(N3CCC(O)CC3)cc2n1C(N)=O

>  <score_type>  (21) 
oracle

>  <origin>  (21) 
adg

>  <m_score__min__energy>  (21) 
-7.6299999999999999

>  <m_primary>  (21) 
energy

$$$$
21:0
     RDKit          3D

 41 43  0  0  0  0  0  0  0  0999 V2000
  145.1290  152.9070  132.6520 C   0  0  0  0  0  0  0  0  0  0  0  0
  144.0410  153.9620  132.7540 C   0  0  0  0  0  0  0  0  0  0  0  0
  143.6500  154.1120  134.1150 O   0  0  0  0  0  0  0  0  0  0  0  0
  144.4800  154.6870  135.0810 C   0  0  0  0  0  0  0  0  0  0  0  0
  144.3030  154.4320  136.3040 O   0  0  0  0  0  0  0  0  0  0  0  0
  145.5530  155.5530  134.6770 N   0  0  0  0  0  0  0  0  0  0  0  0
  146.8930  155.3110  134.7570 C   0  0  0  0  0  0  0  0  0  0  0  0
  147.5210  154.0270  135.1310 C   0  0  0  0  0  0  0  0  0  0  0  0
  147.1530  153.3850  136.3490 N   0  0  0  0  0  0  0  0  0  0  0  0
  148.4090  153.5070  134.4040 O   0  0  0  0  0  0  0  0  0  0  0  0
  147.6160  156.4330  134.3570 C   0  0  0  0  0  0  0  0  0  0  0  0
  146.6720  157.3750  134.0210 C   0  0  0  0  0  0  0  0  0  0  0  0
  146.8340  158.6840  133.5760 C   0  0  0  0  0  0  0  0  0  0  0  0
  145.6790  159.4480  133.3420 C   0  0  0  0  0  0  0  0  0  0  0  0
  144.3920  158.8940  133.5550 C   0  0  0  0  0  0  0  0  0  0  0  0
  143.1620  159.7380  133.3570 C   0  0  0  0  0  0  0  0  0  0  0  0
  142.0220  159.1990  134.1810 C   0  0  0  0  0  0  0  0  0  0  0  0
  142.0400  159.3390  135.5800 C   0  0  0  0  0  0  0  0  0  0  0  0
  140.9690  158.8780  136.3490 C   0  0  0  0  0  0  0  0  0  0  0  0
  139.8670  158.2800  135.7320 C   0  0  0  0  0  0  0  0  0  0  0  0
  138.8300  157.8370  136.4840 F   0  0  0  0  0  0  0  0  0  0  0  0
  139.8340  158.1440  134.3410 C   0  0  0  0  0  0  0  0  0  0  0  0
  138.7610  157.5700  133.7430 F   0  0  0  0  0  0  0  0  0  0  0  0
  140.9040  158.6050  133.5650 C   0  0  0  0  0  0  0  0  0  0  0  0
  140.8500  158.4720  132.2150 F   0  0  0  0  0  0  0  0  0  0  0  0
  144.2680  157.5640  134.0130 C   0  0  0  0  0  0  0  0  0  0  0  0
  145.4350  156.8200  134.2230 C   0  0  0  0  0  0  0  0  0  0  0  0
  145.4416  152.6038  133.6621 H   0  0  0  0  0  0  0  0  0  0  0  0
  144.7414  152.0318  132.1100 H   0  0  0  0  0  0  0  0  0  0  0  0
  145.9919  153.3213  132.1100 H   0  0  0  0  0  0  0  0  0  0  0  0
  144.4238  154.9210  132.3748 H   0  0  0  0  0  0  0  0  0  0  0  0
  143.1721  153.6510  132.1555 H   0  0  0  0  0  0  0  0  0  0  0  0
  146.2020  153.5170  136.7590 H   0  0  0  0  0  0  0  0  0  0  0  0
  148.7099  156.5421  134.3182 H   0  0  0  0  0  0  0  0  0  0  0  0
  147.8361  159.1071  133.4126 H   0  0  0  0  0  0  0  0  0  0  0  0
  145.7741  160.4859  132.9902 H   0  0  0  0  0  0  0  0  0  0  0  0
  143.3770  160.7714  133.6665 H   0  0  0  0  0  0  0  0  0  0  0  0
  142.8786  159.7150  132.2944 H   0  0  0  0  0  0  0  0  0  0  0  0
  142.9019  159.8140  136.0713 H   0  0  0  0  0  0  0  0  0  0  0  0
  140.9931  158.9860  137.4434 H   0  0  0  0  0  0  0  0  0  0  0  0
  143.2778  157.1230  134.2003 H   0  0  0  0  0  0  0  0  0  0  0  0
  1  2  1  0
  2  3  1  0
  3  4  1  0
  4  5  2  0
  4  6  1  0
  6  7  1  0
  7  8  1  0
  8  9  1  0
  8 10  2  0
  7 11  2  0
 11 12  1  0
 12 13  2  0
 13 14  1  0
 14 15  2  0
 15 16  1  0
 16 17  1  0
 17 18  2  0
 18 19  1  0
 19 20  2  0
 20 21  1  0
 20 22  1  0
 22 23  1  0
 22 24  2  0
 24 25  1  0
 15 26  1  0
 26 27  2  0
 27  6  1  0
 27 12  1  0
 24 17  1  0
  1 28  1  0
  1 29  1  0
  1 30  1  0
  2 31  1  0
  2 32  1  0
  9 33  1  0
 11 34  1  0
 13 35  1  0
 14 36  1  0
 16 37  1  0
 16 38  1  0
 18 39  1  0
 19 40  1  0
 26 41  1  0
M  CHG  1   9  -1
M  END
>  <UniqueID>  (22) 
22

>  <SMILES>  (22) 
CCOC(=O)n1c(C([NH-])=O)cc2ccc(Cc3ccc(F)c(F)c3F)cc21

>  <Energy>  (22) 
76.35339411749187

>  <Genealogy>  (22) 
CCOC(=O)n1c(C([NH-])=O)cc2ccc(Cc3ccc(F)c(F)c3F)cc21 (protonated)
CCOC(=O)n1c(C([NH-])=O)cc2ccc(Cc3ccc(F)c(F)c3F)cc21 (3D coordinates assigned)
CCOC(=O)n1c(C([NH-])=O)cc2ccc(Cc3ccc(F)c(F)c3F)cc21 (optimized conformer: 76.35339411749187 kcal/mol)

>  <smiles>  (22) 
CCOC(=O)n1c(C(N)=O)cc2ccc(Cc3ccc(F)c(F)c3F)cc21

>  <score_type>  (22) 
oracle

>  <origin>  (22) 
adg

>  <m_score__min__energy>  (22) 
-7.2800000000000002

>  <m_primary>  (22) 
energy

$$$$
22:0
     RDKit          3D

 66 69  0  0  0  0  0  0  0  0999 V2000
  147.5670  152.4120  137.8600 C   0  0  0  0  0  0  0  0  0  0  0  0
  146.8470  152.9950  136.7390 N   0  0  0  0  0  0  0  0  0  0  0  0
  147.2450  154.2230  136.1220 C   0  0  0  0  0  0  0  0  0  0  0  0
  148.2390  154.8620  136.5610 O   0  0  0  0  0  0  0  0  0  0  0  0
  146.4720  154.7570  134.9480 C   0  0  2  0  0  0  0  0  0  0  0  0
  144.9760  154.8640  135.2650 C   0  0  0  0  0  0  0  0  0  0  0  0
  144.2350  154.2430  134.0710 C   0  0  1  0  0  0  0  0  0  0  0  0
  143.7080  155.2540  133.2130 O   0  0  0  0  0  0  0  0  0  0  0  0
  142.4250  155.7970  133.3460 C   0  0  0  0  0  0  0  0  0  0  0  0
  141.4130  155.0470  133.3810 O   0  0  0  0  0  0  0  0  0  0  0  0
  142.2740  157.2220  133.4520 N   0  0  0  0  0  0  0  0  0  0  0  0
  141.1660  157.8880  133.8790 C   0  0  0  0  0  0  0  0  0  0  0  0
  139.8330  157.2880  134.0880 C   0  0  0  0  0  0  0  0  0  0  0  0
  139.3010  156.3440  133.1590 N   0  0  0  0  0  0  0  0  0  0  0  0
  139.1400  157.6450  135.0750 O   0  0  0  0  0  0  0  0  0  0  0  0
  141.4440  159.2360  134.0770 C   0  0  0  0  0  0  0  0  0  0  0  0
  142.7720  159.3850  133.7400 C   0  0  0  0  0  0  0  0  0  0  0  0
  143.5820  160.5170  133.7870 C   0  0  0  0  0  0  0  0  0  0  0  0
  144.9370  160.3720  133.4440 C   0  0  0  0  0  0  0  0  0  0  0  0
  145.4590  159.1100  133.0620 C   0  0  0  0  0  0  0  0  0  0  0  0
  146.8940  158.9800  132.7100 C   0  0  0  0  0  0  0  0  0  0  0  0
  147.6070  160.1000  132.2470 C   0  0  0  0  0  0  0  0  0  0  0  0
  148.9550  159.9870  131.8930 C   0  0  0  0  0  0  0  0  0  0  0  0
  149.6280  161.0750  131.4390 F   0  0  0  0  0  0  0  0  0  0  0  0
  149.6050  158.7550  131.9970 C   0  0  0  0  0  0  0  0  0  0  0  0
  148.9070  157.6360  132.4550 C   0  0  0  0  0  0  0  0  0  0  0  0
  147.5580  157.7410  132.8110 C   0  0  0  0  0  0  0  0  0  0  0  0
  146.8940  156.6270  133.2120 F   0  0  0  0  0  0  0  0  0  0  0  0
  144.6050  157.9810  133.0370 C   0  0  0  0  0  0  0  0  0  0  0  0
  143.2520  158.1550  133.3660 C   0  0  0  0  0  0  0  0  0  0  0  0
  145.2780  153.4290  133.3050 C   0  0  0  0  0  0  0  0  0  0  0  0
  146.5700  153.8610  133.8070 N   0  0  0  0  0  0  0  0  0  0  0  0
  147.8120  153.5220  133.1690 C   0  0  0  0  0  0  0  0  0  0  0  0
  148.7900  154.3130  133.2470 O   0  0  0  0  0  0  0  0  0  0  0  0
  147.9150  152.3120  132.4620 O   0  0  0  0  0  0  0  0  0  0  0  0
  148.9130  151.2970  132.6450 C   0  0  0  0  0  0  0  0  0  0  0  0
  149.5940  151.4540  134.0170 C   0  0  0  0  0  0  0  0  0  0  0  0
  148.1910  149.9410  132.5910 C   0  0  0  0  0  0  0  0  0  0  0  0
  149.9550  151.3440  131.5090 C   0  0  0  0  0  0  0  0  0  0  0  0
  147.1272  152.7681  138.8033 H   0  0  0  0  0  0  0  0  0  0  0  0
  147.4940  151.3155  137.8123 H   0  0  0  0  0  0  0  0  0  0  0  0
  148.6244  152.7115  137.8123 H   0  0  0  0  0  0  0  0  0  0  0  0
  146.9038  155.7440  134.7259 H   0  0  0  0  0  0  0  0  0  0  0  0
  144.7419  154.3119  136.1871 H   0  0  0  0  0  0  0  0  0  0  0  0
  144.6749  155.9104  135.4212 H   0  0  0  0  0  0  0  0  0  0  0  0
  143.3913  153.6273  134.4160 H   0  0  0  0  0  0  0  0  0  0  0  0
  139.8140  156.1050  132.2800 H   0  0  0  0  0  0  0  0  0  0  0  0
  138.3460  155.9500  133.2990 H   0  0  0  0  0  0  0  0  0  0  0  0
  140.7523  160.0162  134.4275 H   0  0  0  0  0  0  0  0  0  0  0  0
  143.1737  161.4944  134.0835 H   0  0  0  0  0  0  0  0  0  0  0  0
  145.6011  161.2484  133.4722 H   0  0  0  0  0  0  0  0  0  0  0  0
  147.1003  161.0727  132.1626 H   0  0  0  0  0  0  0  0  0  0  0  0
  150.6654  158.6666  131.7184 H   0  0  0  0  0  0  0  0  0  0  0  0
  149.4204  156.6666  132.5364 H   0  0  0  0  0  0  0  0  0  0  0  0
  144.9939  156.9885  132.7654 H   0  0  0  0  0  0  0  0  0  0  0  0
  145.1357  152.3541  133.4906 H   0  0  0  0  0  0  0  0  0  0  0  0
  145.1943  153.5863  132.2195 H   0  0  0  0  0  0  0  0  0  0  0  0
  148.8557  151.2838  134.8144 H   0  0  0  0  0  0  0  0  0  0  0  0
  150.4082  150.7200  134.1084 H   0  0  0  0  0  0  0  0  0  0  0  0
  150.0046  152.4704  134.1084 H   0  0  0  0  0  0  0  0  0  0  0  0
  148.0017  149.5854  133.6146 H   0  0  0  0  0  0  0  0  0  0  0  0
  147.2346  150.0557  132.0599 H   0  0  0  0  0  0  0  0  0  0  0  0
  148.8201  149.2115  132.0599 H   0  0  0  0  0  0  0  0  0  0  0  0
  150.9659  151.3896  131.9403 H   0  0  0  0  0  0  0  0  0  0  0  0
  149.8616  150.4407  130.8882 H   0  0  0  0  0  0  0  0  0  0  0  0
  149.7807  152.2352  130.8882 H   0  0  0  0  0  0  0  0  0  0  0  0
  1  2  1  0
  2  3  1  0
  3  4  2  0
  3  5  1  0
  5  6  1  0
  6  7  1  0
  7  8  1  0
  8  9  1  0
  9 10  2  0
  9 11  1  0
 11 12  1  0
 12 13  1  0
 13 14  1  0
 13 15  2  0
 12 16  2  0
 16 17  1  0
 17 18  2  0
 18 19  1  0
 19 20  2  0
 20 21  1  0
 21 22  2  0
 22 23  1  0
 23 24  1  0
 23 25  2  0
 25 26  1  0
 26 27  2  0
 27 28  1  0
 20 29  1  0
 29 30  2  0
  7 31  1  0
 31 32  1  0
 32 33  1  0
 33 34  2  0
 33 35  1  0
 35 36  1  0
 36 37  1  0
 36 38  1  0
 36 39  1  0
 32  5  1  0
 30 11  1  0
 30 17  1  0
 27 21  1  0
  1 40  1  0
  1 41  1  0
  1 42  1  0
  5 43  1  6
  6 44  1  0
  6 45  1  0
  7 46  1  1
 14 47  1  0
 14 48  1  0
 16 49  1  0
 18 50  1  0
 19 51  1  0
 22 52  1  0
 25 53  1  0
 26 54  1  0
 29 55  1  0
 31 56  1  0
 31 57  1  0
 37 58  1  0
 37 59  1  0
 37 60  1  0
 38 61  1  0
 38 62  1  0
 38 63  1  0
 39 64  1  0
 39 65  1  0
 39 66  1  0
M  CHG  1   2  -1
M  END
>  <UniqueID>  (23) 
23

>  <SMILES>  (23) 
C[N-]C(=O)[C@@H]1C[C@@H](OC(=O)n2c(C(N)=O)cc3ccc(-c4cc(F)ccc4F)cc32)CN1C(=O)OC(C)(C)C

>  <Energy>  (23) 
105.12130268763819

>  <Genealogy>  (23) 
C[N-]C(=O)C1CC(OC(=O)n2c(C(N)=O)cc3ccc(-c4cc(F)ccc4F)cc32)CN1C(=O)OC(C)(C)C (protonated)
C[N-]C(=O)[C@@H]1C[C@@H](OC(=O)n2c(C(N)=O)cc3ccc(-c4cc(F)ccc4F)cc32)CN1C(=O)OC(C)(C)C (chirality)
C[N-]C(=O)[C@@H]1C[C@@H](OC(=O)n2c(C(N)=O)cc3ccc(-c4cc(F)ccc4F)cc32)CN1C(=O)OC(C)(C)C (3D coordinates assigned)
C[N-]C(=O)[C@@H]1C[C@@H](OC(=O)n2c(C(N)=O)cc3ccc(-c4cc(F)ccc4F)cc32)CN1C(=O)OC(C)(C)C (nonaromatic ring conformer: 105.12130268763819 kcal/mol)

>  <smiles>  (23) 
CNC(=O)C1CC(OC(=O)n2c(C(N)=O)cc3ccc(-c4cc(F)ccc4F)cc32)CN1C(=O)OC(C)(C)C

>  <score_type>  (23) 
oracle

>  <origin>  (23) 
adg

>  <m_score__min__energy>  (23) 
-10.81

>  <m_primary>  (23) 
energy

$$$$
23:0
     RDKit          3D

 31 33  0  0  0  0  0  0  0  0999 V2000
  138.3150  157.7000  133.3660 N   0  0  0  0  0  0  0  0  0  0  0  0
  139.1770  158.1190  134.4200 C   0  0  0  0  0  0  0  0  0  0  0  0
  138.7620  158.0780  135.6090 O   0  0  0  0  0  0  0  0  0  0  0  0
  140.5660  158.5420  134.1450 C   0  0  0  0  0  0  0  0  0  0  0  0
  141.0110  159.8530  134.3010 C   0  0  0  0  0  0  0  0  0  0  0  0
  142.3610  159.8130  134.0410 C   0  0  0  0  0  0  0  0  0  0  0  0
  143.3030  160.8360  134.0430 C   0  0  0  0  0  0  0  0  0  0  0  0
  144.6290  160.5140  133.7080 C   0  0  0  0  0  0  0  0  0  0  0  0
  144.9870  159.1840  133.3670 C   0  0  0  0  0  0  0  0  0  0  0  0
  146.3870  158.8530  133.0100 C   0  0  0  0  0  0  0  0  0  0  0  0
  147.1450  159.7480  132.2320 C   0  0  0  0  0  0  0  0  0  0  0  0
  148.4640  159.4450  131.8850 C   0  0  0  0  0  0  0  0  0  0  0  0
  149.0430  158.2480  132.3120 C   0  0  0  0  0  0  0  0  0  0  0  0
  150.3240  157.9560  131.9750 F   0  0  0  0  0  0  0  0  0  0  0  0
  148.3040  157.3530  133.0910 C   0  0  0  0  0  0  0  0  0  0  0  0
  146.9830  157.6500  133.4420 C   0  0  0  0  0  0  0  0  0  0  0  0
  146.3030  156.7800  134.2320 F   0  0  0  0  0  0  0  0  0  0  0  0
  144.0010  158.1710  133.3810 C   0  0  0  0  0  0  0  0  0  0  0  0
  142.6920  158.5180  133.7370 C   0  0  0  0  0  0  0  0  0  0  0  0
  141.5990  157.7240  133.7930 N   0  0  0  0  0  0  0  0  0  0  0  0
  141.5370  156.3310  133.4500 C   0  0  0  0  0  0  0  0  0  0  0  0
  142.5600  155.6040  133.5520 O   0  0  0  0  0  0  0  0  0  0  0  0
  140.3540  155.7770  132.9760 O   0  0  0  0  0  0  0  0  0  0  0  0
  138.3640  156.7300  132.9850 H   0  0  0  0  0  0  0  0  0  0  0  0
  140.4103  160.7331  134.5741 H   0  0  0  0  0  0  0  0  0  0  0  0
  143.0183  161.8671  134.2994 H   0  0  0  0  0  0  0  0  0  0  0  0
  145.3975  161.3011  133.7101 H   0  0  0  0  0  0  0  0  0  0  0  0
  146.6954  160.6935  131.8945 H   0  0  0  0  0  0  0  0  0  0  0  0
  149.0472  160.1502  131.2746 H   0  0  0  0  0  0  0  0  0  0  0  0
  148.7628  156.4121  133.4291 H   0  0  0  0  0  0  0  0  0  0  0  0
  144.2563  157.1338  133.1182 H   0  0  0  0  0  0  0  0  0  0  0  0
  1  2  1  0
  2  3  2  0
  2  4  1  0
  4  5  2  0
  5  6  1  0
  6  7  2  0
  7  8  1  0
  8  9  2  0
  9 10  1  0
 10 11  2  0
 11 12  1  0
 12 13  2  0
 13 14  1  0
 13 15  1  0
 15 16  2  0
 16 17  1  0
  9 18  1  0
 18 19  2  0
 19 20  1  0
 20 21  1  0
 21 22  2  0
 21 23  1  0
 20  4  1  0
 19  6  1  0
 16 10  1  0
  1 24  1  0
  5 25  1  0
  7 26  1  0
  8 27  1  0
 11 28  1  0
 12 29  1  0
 15 30  1  0
 18 31  1  0
M  CHG  2   1  -1  23  -1
M  END
>  <UniqueID>  (24) 
24

>  <SMILES>  (24) 
[NH-]C(=O)c1cc2ccc(-c3ccc(F)cc3F)cc2n1C(=O)[O-]

>  <Energy>  (24) 
80.20197989892435

>  <Genealogy>  (24) 
[NH-]C(=O)c1cc2ccc(-c3ccc(F)cc3F)cc2n1C(=O)[O-] (protonated)
[NH-]C(=O)c1cc2ccc(-c3ccc(F)cc3F)cc2n1C(=O)[O-] (3D coordinates assigned)
[NH-]C(=O)c1cc2ccc(-c3ccc(F)cc3F)cc2n1C(=O)[O-] (optimized conformer: 80.20197989892435 kcal/mol)

>  <smiles>  (24) 
NC(=O)c1cc2ccc(-c3ccc(F)cc3F)cc2n1C(=O)O

>  <score_type>  (24) 
oracle

>  <origin>  (24) 
adg

>  <m_score__min__energy>  (24) 
-7.2400000000000002

>  <m_primary>  (24) 
energy

$$$$
24:0
     RDKit          3D

 42 44  0  0  0  0  0  0  0  0999 V2000
  149.5930  160.8780  129.9510 C   0  0  0  0  0  0  0  0  0  0  0  0
  149.7490  159.4660  130.5420 C   0  0  0  0  0  0  0  0  0  0  0  0
  148.6160  159.0220  131.3930 N   0  0  0  0  0  0  0  0  0  0  0  0
  147.6850  160.1380  131.7140 C   0  0  0  0  0  0  0  0  0  0  0  0
  146.8460  159.8840  132.9840 C   0  0  0  0  0  0  0  0  0  0  0  0
  146.6710  158.4450  133.2110 N   0  0  0  0  0  0  0  0  0  0  0  0
  145.3600  157.8750  133.3990 C   0  0  0  0  0  0  0  0  0  0  0  0
  145.1410  156.4930  133.1650 C   0  0  0  0  0  0  0  0  0  0  0  0
  143.8640  155.9320  133.3210 C   0  0  0  0  0  0  0  0  0  0  0  0
  142.8250  156.7720  133.7120 C   0  0  0  0  0  0  0  0  0  0  0  0
  141.4920  156.4970  133.9090 C   0  0  0  0  0  0  0  0  0  0  0  0
  140.9140  157.7110  134.2730 C   0  0  0  0  0  0  0  0  0  0  0  0
  139.4940  157.8510  134.6600 C   0  0  0  0  0  0  0  0  0  0  0  0
  139.1580  158.2400  135.9910 N   0  0  0  0  0  0  0  0  0  0  0  0
  138.5750  157.6660  133.8220 O   0  0  0  0  0  0  0  0  0  0  0  0
  141.8520  158.7000  134.2950 N   0  0  0  0  0  0  0  0  0  0  0  0
  141.6570  160.1000  134.5600 C   0  0  0  0  0  0  0  0  0  0  0  0
  141.0020  160.4710  135.5690 O   0  0  0  0  0  0  0  0  0  0  0  0
  142.1680  161.0560  133.6920 O   0  0  0  0  0  0  0  0  0  0  0  0
  143.0190  158.1070  133.9540 C   0  0  0  0  0  0  0  0  0  0  0  0
  144.2770  158.6960  133.7860 C   0  0  0  0  0  0  0  0  0  0  0  0
  147.8620  157.5880  133.2610 C   0  0  0  0  0  0  0  0  0  0  0  0
  149.0600  158.2840  132.5980 C   0  0  0  0  0  0  0  0  0  0  0  0
  149.5121  161.6104  130.7677 H   0  0  0  0  0  0  0  0  0  0  0  0
  150.4704  161.1151  129.3314 H   0  0  0  0  0  0  0  0  0  0  0  0
  148.6850  160.9179  129.3314 H   0  0  0  0  0  0  0  0  0  0  0  0
  149.8512  158.7550  129.7089 H   0  0  0  0  0  0  0  0  0  0  0  0
  150.6342  159.4977  131.1942 H   0  0  0  0  0  0  0  0  0  0  0  0
  148.0760  158.3400  130.8040 H   0  0  0  0  0  0  0  0  0  0  0  0
  148.2755  161.0541  131.8626 H   0  0  0  0  0  0  0  0  0  0  0  0
  146.9833  160.2306  130.8720 H   0  0  0  0  0  0  0  0  0  0  0  0
  147.3595  160.3264  133.8504 H   0  0  0  0  0  0  0  0  0  0  0  0
  145.8556  160.3440  132.8513 H   0  0  0  0  0  0  0  0  0  0  0  0
  145.9818  155.8537  132.8577 H   0  0  0  0  0  0  0  0  0  0  0  0
  143.6894  154.8612  133.1398 H   0  0  0  0  0  0  0  0  0  0  0  0
  140.9890  155.5246  133.8019 H   0  0  0  0  0  0  0  0  0  0  0  0
  139.4170  159.1820  136.3570 H   0  0  0  0  0  0  0  0  0  0  0  0
  144.4197  159.7741  133.9515 H   0  0  0  0  0  0  0  0  0  0  0  0
  148.1066  157.3706  134.3112 H   0  0  0  0  0  0  0  0  0  0  0  0
  147.6497  156.6555  132.7176 H   0  0  0  0  0  0  0  0  0  0  0  0
  149.5114  158.9895  133.3111 H   0  0  0  0  0  0  0  0  0  0  0  0
  149.7999  157.5252  132.3036 H   0  0  0  0  0  0  0  0  0  0  0  0
  1  2  1  0
  2  3  1  0
  3  4  1  0
  4  5  1  0
  5  6  1  0
  6  7  1  0
  7  8  2  0
  8  9  1  0
  9 10  2  0
 10 11  1  0
 11 12  2  0
 12 13  1  0
 13 14  1  0
 13 15  2  0
 12 16  1  0
 16 17  1  0
 17 18  2  0
 17 19  1  0
 16 20  1  0
 20 21  2  0
  6 22  1  0
 22 23  1  0
 23  3  1  0
 21  7  1  0
 20 10  1  0
  1 24  1  0
  1 25  1  0
  1 26  1  0
  2 27  1  0
  2 28  1  0
  3 29  1  0
  4 30  1  0
  4 31  1  0
  5 32  1  0
  5 33  1  0
  8 34  1  0
  9 35  1  0
 11 36  1  0
 14 37  1  0
 21 38  1  0
 22 39  1  0
 22 40  1  0
 23 41  1  0
 23 42  1  0
M  CHG  3   3   1  14  -1  19  -1
M  END
>  <UniqueID>  (25) 
25

>  <SMILES>  (25) 
CC[NH+]1CCN(c2ccc3cc(C([NH-])=O)n(C(=O)[O-])c3c2)CC1

>  <Energy>  (25) 
94.44666950375503

>  <Genealogy>  (25) 
CC[NH+]1CCN(c2ccc3cc(C([NH-])=O)n(C(=O)[O-])c3c2)CC1 (protonated)
CC[NH+]1CCN(c2ccc3cc(C([NH-])=O)n(C(=O)[O-])c3c2)CC1 (3D coordinates assigned)
CC[NH+]1CCN(c2ccc3cc(C([NH-])=O)n(C(=O)[O-])c3c2)CC1 (nonaromatic ring conformer: 94.44666950375503 kcal/mol)

>  <smiles>  (25) 
CCN1CCN(c2ccc3cc(C(N)=O)n(C(=O)O)c3c2)CC1

>  <score_type>  (25) 
oracle

>  <origin>  (25) 
adg

>  <m_score__min__energy>  (25) 
-6.5999999999999996

>  <m_primary>  (25) 
energy

$$$$
25:0
     RDKit          3D

 43 45  0  0  0  0  0  0  0  0999 V2000
  149.6340  151.2670  133.3590 C   0  0  0  0  0  0  0  0  0  0  0  0
  149.0210  152.1860  132.3100 C   0  0  0  0  0  0  0  0  0  0  0  0
  148.1550  153.1380  132.9220 O   0  0  0  0  0  0  0  0  0  0  0  0
  148.2500  154.5190  132.7050 C   0  0  0  0  0  0  0  0  0  0  0  0
  149.3210  155.0230  132.2670 O   0  0  0  0  0  0  0  0  0  0  0  0
  147.1130  155.3590  132.9570 N   0  0  0  0  0  0  0  0  0  0  0  0
  147.0980  156.7040  133.1840 C   0  0  0  0  0  0  0  0  0  0  0  0
  148.2830  157.5720  133.3460 C   0  0  0  0  0  0  0  0  0  0  0  0
  149.1810  157.7570  132.2550 N   0  0  0  0  0  0  0  0  0  0  0  0
  148.4930  158.1830  134.4270 O   0  0  0  0  0  0  0  0  0  0  0  0
  145.7890  157.1570  133.3400 C   0  0  0  0  0  0  0  0  0  0  0  0
  144.9970  156.0390  133.2090 C   0  0  0  0  0  0  0  0  0  0  0  0
  143.6140  155.9100  133.2740 C   0  0  0  0  0  0  0  0  0  0  0  0
  143.0630  154.6310  133.0900 C   0  0  0  0  0  0  0  0  0  0  0  0
  143.8930  153.5100  132.8370 C   0  0  0  0  0  0  0  0  0  0  0  0
  143.2860  152.2150  132.6630 N   0  0  0  0  0  0  0  0  0  0  0  0
  142.2170  151.6830  133.5100 C   0  0  0  0  0  0  0  0  0  0  0  0
  141.3600  150.7080  132.7450 C   0  0  0  0  0  0  0  0  0  0  0  0
  140.1140  151.1090  132.2360 C   0  0  0  0  0  0  0  0  0  0  0  0
  139.3150  150.2040  131.5290 C   0  0  0  0  0  0  0  0  0  0  0  0
  139.7580  148.8930  131.3200 C   0  0  0  0  0  0  0  0  0  0  0  0
  138.7530  147.7580  130.4390 Cl  0  0  0  0  0  0  0  0  0  0  0  0
  141.0040  148.4920  131.8100 C   0  0  0  0  0  0  0  0  0  0  0  0
  141.8050  149.3940  132.5150 C   0  0  0  0  0  0  0  0  0  0  0  0
  145.2960  153.6880  132.7620 C   0  0  0  0  0  0  0  0  0  0  0  0
  145.8190  154.9680  132.9780 C   0  0  0  0  0  0  0  0  0  0  0  0
  149.3853  151.6399  134.3635 H   0  0  0  0  0  0  0  0  0  0  0  0
  149.2325  150.2504  133.2355 H   0  0  0  0  0  0  0  0  0  0  0  0
  150.7269  151.2471  133.2355 H   0  0  0  0  0  0  0  0  0  0  0  0
  149.8255  152.7172  131.7802 H   0  0  0  0  0  0  0  0  0  0  0  0
  148.4370  151.5780  131.6034 H   0  0  0  0  0  0  0  0  0  0  0  0
  149.2440  157.0510  131.4870 H   0  0  0  0  0  0  0  0  0  0  0  0
  145.4589  158.1893  133.5280 H   0  0  0  0  0  0  0  0  0  0  0  0
  142.9714  156.7824  133.4636 H   0  0  0  0  0  0  0  0  0  0  0  0
  141.9724  154.4975  133.1430 H   0  0  0  0  0  0  0  0  0  0  0  0
  143.5900  151.6280  131.8540 H   0  0  0  0  0  0  0  0  0  0  0  0
  142.6639  151.1691  134.3738 H   0  0  0  0  0  0  0  0  0  0  0  0
  141.5851  152.5188  133.8450 H   0  0  0  0  0  0  0  0  0  0  0  0
  139.7645  152.1400  132.3940 H   0  0  0  0  0  0  0  0  0  0  0  0
  138.3379  150.5231  131.1371 H   0  0  0  0  0  0  0  0  0  0  0  0
  141.3550  147.4634  131.6401 H   0  0  0  0  0  0  0  0  0  0  0  0
  142.7880  149.0749  132.8918 H   0  0  0  0  0  0  0  0  0  0  0  0
  145.9596  152.8395  132.5390 H   0  0  0  0  0  0  0  0  0  0  0  0
  1  2  1  0
  2  3  1  0
  3  4  1  0
  4  5  2  0
  4  6  1  0
  6  7  1  0
  7  8  1  0
  8  9  1  0
  8 10  2  0
  7 11  2  0
 11 12  1  0
 12 13  2  0
 13 14  1  0
 14 15  2  0
 15 16  1  0
 16 17  1  0
 17 18  1  0
 18 19  2  0
 19 20  1  0
 20 21  2  0
 21 22  1  0
 21 23  1  0
 23 24  2  0
 15 25  1  0
 25 26  2  0
 26  6  1  0
 26 12  1  0
 24 18  1  0
  1 27  1  0
  1 28  1  0
  1 29  1  0
  2 30  1  0
  2 31  1  0
  9 32  1  0
 11 33  1  0
 13 34  1  0
 14 35  1  0
 16 36  1  0
 17 37  1  0
 17 38  1  0
 19 39  1  0
 20 40  1  0
 23 41  1  0
 24 42  1  0
 25 43  1  0
M  CHG  1   9  -1
M  END
>  <UniqueID>  (26) 
26

>  <SMILES>  (26) 
CCOC(=O)n1c(C([NH-])=O)cc2ccc(NCc3ccc(Cl)cc3)cc21

>  <Energy>  (26) 
77.61858301424778

>  <Genealogy>  (26) 
CCOC(=O)n1c(C([NH-])=O)cc2ccc(NCc3ccc(Cl)cc3)cc21 (protonated)
CCOC(=O)n1c(C([NH-])=O)cc2ccc(NCc3ccc(Cl)cc3)cc21 (3D coordinates assigned)
CCOC(=O)n1c(C([NH-])=O)cc2ccc(NCc3ccc(Cl)cc3)cc21 (optimized conformer: 77.61858301424778 kcal/mol)

>  <smiles>  (26) 
CCOC(=O)n1c(C(N)=O)cc2ccc(NCc3ccc(Cl)cc3)cc21

>  <score_type>  (26) 
oracle

>  <origin>  (26) 
adg

>  <m_score__min__energy>  (26) 
-8.9499999999999993

>  <m_primary>  (26) 
energy

$$$$
26:0
     RDKit          3D

 44 45  0  0  0  0  0  0  0  0999 V2000
  147.1800  150.7210  132.2050 C   0  0  0  0  0  0  0  0  0  0  0  0
  148.5100  150.0660  132.5770 C   0  0  0  0  0  0  0  0  0  0  0  0
  149.6480  151.0010  132.4240 N   0  0  0  0  0  0  0  0  0  0  0  0
  149.9560  151.2760  131.0030 C   0  0  0  0  0  0  0  0  0  0  0  0
  150.7340  150.1120  130.3980 C   0  0  0  0  0  0  0  0  0  0  0  0
  149.5760  152.2270  133.2620 C   0  0  0  0  0  0  0  0  0  0  0  0
  149.5880  153.5700  132.4940 C   0  0  0  0  0  0  0  0  0  0  0  0
  148.4460  154.4800  132.8620 C   0  0  0  0  0  0  0  0  0  0  0  0
  147.2540  153.9470  133.4180 C   0  0  0  0  0  0  0  0  0  0  0  0
  146.1810  154.7900  133.7520 C   0  0  0  0  0  0  0  0  0  0  0  0
  146.3270  156.1540  133.5240 C   0  0  0  0  0  0  0  0  0  0  0  0
  145.4550  157.1930  133.7640 C   0  0  0  0  0  0  0  0  0  0  0  0
  146.1260  158.3420  133.3450 C   0  0  0  0  0  0  0  0  0  0  0  0
  145.5160  159.6880  133.3430 C   0  0  0  0  0  0  0  0  0  0  0  0
  146.2900  160.8430  133.6550 N   0  0  0  0  0  0  0  0  0  0  0  0
  144.3060  159.8250  133.0210 O   0  0  0  0  0  0  0  0  0  0  0  0
  147.3670  158.0250  132.8770 N   0  0  0  0  0  0  0  0  0  0  0  0
  148.3980  158.9140  132.4200 C   0  0  0  0  0  0  0  0  0  0  0  0
  149.0160  158.7400  131.0700 C   0  0  0  0  0  0  0  0  0  0  0  0
  148.7370  159.8960  133.1330 O   0  0  0  0  0  0  0  0  0  0  0  0
  147.4710  156.6840  132.9880 C   0  0  0  0  0  0  0  0  0  0  0  0
  148.5620  155.8740  132.6590 C   0  0  0  0  0  0  0  0  0  0  0  0
  146.6345  150.9896  133.1217 H   0  0  0  0  0  0  0  0  0  0  0  0
  147.3710  151.6281  131.6128 H   0  0  0  0  0  0  0  0  0  0  0  0
  146.5773  150.0166  131.6128 H   0  0  0  0  0  0  0  0  0  0  0  0
  148.4617  149.7329  133.6243 H   0  0  0  0  0  0  0  0  0  0  0  0
  148.6733  149.2163  131.8977 H   0  0  0  0  0  0  0  0  0  0  0  0
  149.0165  151.4129  130.4475 H   0  0  0  0  0  0  0  0  0  0  0  0
  150.5670  152.1884  130.9382 H   0  0  0  0  0  0  0  0  0  0  0  0
  151.1496  149.4901  131.2046 H   0  0  0  0  0  0  0  0  0  0  0  0
  150.0600  149.5041  129.7765 H   0  0  0  0  0  0  0  0  0  0  0  0
  151.5534  150.5023  129.7765 H   0  0  0  0  0  0  0  0  0  0  0  0
  148.6458  152.1814  133.8473 H   0  0  0  0  0  0  0  0  0  0  0  0
  150.4904  152.2247  133.8734 H   0  0  0  0  0  0  0  0  0  0  0  0
  150.5324  154.0892  132.7144 H   0  0  0  0  0  0  0  0  0  0  0  0
  149.4830  153.3335  131.4249 H   0  0  0  0  0  0  0  0  0  0  0  0
  147.1695  152.8637  133.5890 H   0  0  0  0  0  0  0  0  0  0  0  0
  145.2533  154.3834  134.1810 H   0  0  0  0  0  0  0  0  0  0  0  0
  144.4447  157.1301  134.1944 H   0  0  0  0  0  0  0  0  0  0  0  0
  146.9840  161.2250  132.9750 H   0  0  0  0  0  0  0  0  0  0  0  0
  150.0691  158.4435  131.1843 H   0  0  0  0  0  0  0  0  0  0  0  0
  148.4734  157.9597  130.5162 H   0  0  0  0  0  0  0  0  0  0  0  0
  148.9602  159.6888  130.5162 H   0  0  0  0  0  0  0  0  0  0  0  0
  149.4865  156.3101  132.2528 H   0  0  0  0  0  0  0  0  0  0  0  0
  1  2  1  0
  2  3  1  0
  3  4  1  0
  4  5  1  0
  3  6  1  0
  6  7  1  0
  7  8  1  0
  8  9  2  0
  9 10  1  0
 10 11  2  0
 11 12  1  0
 12 13  2  0
 13 14  1  0
 14 15  1  0
 14 16  2  0
 13 17  1  0
 17 18  1  0
 18 19  1  0
 18 20  2  0
 17 21  1  0
 21 22  2  0
 22  8  1  0
 21 11  1  0
  1 23  1  0
  1 24  1  0
  1 25  1  0
  2 26  1  0
  2 27  1  0
  4 28  1  0
  4 29  1  0
  5 30  1  0
  5 31  1  0
  5 32  1  0
  6 33  1  0
  6 34  1  0
  7 35  1  0
  7 36  1  0
  9 37  1  0
 10 38  1  0
 12 39  1  0
 15 40  1  0
 19 41  1  0
 19 42  1  0
 19 43  1  0
 22 44  1  0
M  CHG  1  15  -1
M  END
>  <UniqueID>  (27) 
27

>  <SMILES>  (27) 
CCN(CC)CCc1ccc2cc(C([NH-])=O)n(C(C)=O)c2c1

>  <Energy>  (27) 
83.21741888999212

>  <Genealogy>  (27) 
CCN(CC)CCc1ccc2cc(C([NH-])=O)n(C(C)=O)c2c1 (protonated)
CCN(CC)CCc1ccc2cc(C([NH-])=O)n(C(C)=O)c2c1 (3D coordinates assigned)
CCN(CC)CCc1ccc2cc(C([NH-])=O)n(C(C)=O)c2c1 (optimized conformer: 83.21741888999212 kcal/mol)

>  <smiles>  (27) 
CCN(CC)CCc1ccc2cc(C(N)=O)n(C(C)=O)c2c1

>  <score_type>  (27) 
oracle

>  <origin>  (27) 
adg

>  <m_score__min__energy>  (27) 
-6.9400000000000004

>  <m_primary>  (27) 
energy

$$$$
27:0
     RDKit          3D

 34 36  0  0  0  0  0  0  0  0999 V2000
  141.0540  161.0090  133.3610 N   0  0  0  0  0  0  0  0  0  0  0  0
  141.6860  160.1430  134.3010 C   0  0  0  0  0  0  0  0  0  0  0  0
  141.0810  159.8370  135.3620 O   0  0  0  0  0  0  0  0  0  0  0  0
  143.0200  159.5820  134.0010 C   0  0  0  0  0  0  0  0  0  0  0  0
  143.2590  158.2200  133.8300 C   0  0  0  0  0  0  0  0  0  0  0  0
  144.6200  158.1050  133.6640 C   0  0  0  0  0  0  0  0  0  0  0  0
  145.4040  156.9730  133.4640 C   0  0  0  0  0  0  0  0  0  0  0  0
  146.7900  157.1500  133.3170 C   0  0  0  0  0  0  0  0  0  0  0  0
  147.3590  158.4460  133.3520 C   0  0  0  0  0  0  0  0  0  0  0  0
  148.8520  158.6200  133.2400 C   0  0  0  0  0  0  0  0  0  0  0  0
  149.3490  158.3350  131.8170 C   0  0  0  0  0  0  0  0  0  0  0  0
  149.4090  159.5890  130.9970 C   0  0  0  0  0  0  0  0  0  0  0  0
  149.0840  160.8570  131.4350 C   0  0  0  0  0  0  0  0  0  0  0  0
  149.2390  161.6780  130.3400 C   0  0  0  0  0  0  0  0  0  0  0  0
  149.6480  160.8610  129.3040 C   0  0  0  0  0  0  0  0  0  0  0  0
  149.7390  159.6210  129.7270 O   0  0  0  0  0  0  0  0  0  0  0  0
  146.5310  159.5720  133.5580 C   0  0  0  0  0  0  0  0  0  0  0  0
  145.1580  159.3640  133.7290 C   0  0  0  0  0  0  0  0  0  0  0  0
  144.1900  160.2840  133.9350 N   0  0  0  0  0  0  0  0  0  0  0  0
  144.3730  161.7070  134.0170 C   0  0  0  0  0  0  0  0  0  0  0  0
  143.5820  162.4870  133.4250 O   0  0  0  0  0  0  0  0  0  0  0  0
  145.4410  162.2350  134.7320 O   0  0  0  0  0  0  0  0  0  0  0  0
  141.5230  161.8840  133.0390 H   0  0  0  0  0  0  0  0  0  0  0  0
  142.5166  157.4083  133.8281 H   0  0  0  0  0  0  0  0  0  0  0  0
  144.9527  155.9707  133.4223 H   0  0  0  0  0  0  0  0  0  0  0  0
  147.4391  156.2736  133.1734 H   0  0  0  0  0  0  0  0  0  0  0  0
  149.1119  159.6546  133.5083 H   0  0  0  0  0  0  0  0  0  0  0  0
  149.3338  157.9042  133.9223 H   0  0  0  0  0  0  0  0  0  0  0  0
  150.3554  157.8942  131.8710 H   0  0  0  0  0  0  0  0  0  0  0  0
  148.6439  157.6407  131.3366 H   0  0  0  0  0  0  0  0  0  0  0  0
  148.7675  161.1504  132.4468 H   0  0  0  0  0  0  0  0  0  0  0  0
  149.0711  162.7643  130.2988 H   0  0  0  0  0  0  0  0  0  0  0  0
  149.8647  161.1980  128.2796 H   0  0  0  0  0  0  0  0  0  0  0  0
  146.9551  160.5867  133.5833 H   0  0  0  0  0  0  0  0  0  0  0  0
  1  2  1  0
  2  3  2  0
  2  4  1  0
  4  5  2  0
  5  6  1  0
  6  7  2  0
  7  8  1  0
  8  9  2  0
  9 10  1  0
 10 11  1  0
 11 12  1  0
 12 13  2  0
 13 14  1  0
 14 15  2  0
 15 16  1  0
  9 17  1  0
 17 18  2  0
 18 19  1  0
 19 20  1  0
 20 21  2  0
 20 22  1  0
 19  4  1  0
 18  6  1  0
 16 12  1  0
  1 23  1  0
  5 24  1  0
  7 25  1  0
  8 26  1  0
 10 27  1  0
 10 28  1  0
 11 29  1  0
 11 30  1  0
 13 31  1  0
 14 32  1  0
 15 33  1  0
 17 34  1  0
M  CHG  2   1  -1  22  -1
M  END
>  <UniqueID>  (28) 
28

>  <SMILES>  (28) 
[NH-]C(=O)c1cc2ccc(CCc3ccco3)cc2n1C(=O)[O-]

>  <Energy>  (28) 
96.87950667859744

>  <Genealogy>  (28) 
[NH-]C(=O)c1cc2ccc(CCc3ccco3)cc2n1C(=O)[O-] (protonated)
[NH-]C(=O)c1cc2ccc(CCc3ccco3)cc2n1C(=O)[O-] (3D coordinates assigned)
[NH-]C(=O)c1cc2ccc(CCc3ccco3)cc2n1C(=O)[O-] (optimized conformer: 96.87950667859744 kcal/mol)

>  <smiles>  (28) 
NC(=O)c1cc2ccc(CCc3ccco3)cc2n1C(=O)O

>  <score_type>  (28) 
oracle

>  <origin>  (28) 
adg

>  <m_score__min__energy>  (28) 
-7.3300000000000001

>  <m_primary>  (28) 
energy

$$$$
28:0
     RDKit          3D

 30 32  0  0  0  0  0  0  0  0999 V2000
  139.1140  156.2680  133.1840 C   0  0  0  0  0  0  0  0  0  0  0  0
  139.6420  157.5700  133.5970 N   0  0  0  0  0  0  0  0  0  0  0  0
  139.7410  158.7060  132.8510 C   0  0  0  0  0  0  0  0  0  0  0  0
  139.2660  158.8750  131.4630 C   0  0  0  0  0  0  0  0  0  0  0  0
  137.9440  158.4960  131.0780 N   0  0  0  0  0  0  0  0  0  0  0  0
  140.0260  159.4110  130.6120 O   0  0  0  0  0  0  0  0  0  0  0  0
  140.3620  159.7180  133.5780 C   0  0  0  0  0  0  0  0  0  0  0  0
  140.6100  159.1730  134.8180 C   0  0  0  0  0  0  0  0  0  0  0  0
  141.1930  159.7420  135.9460 C   0  0  0  0  0  0  0  0  0  0  0  0
  141.3140  158.9450  137.0970 C   0  0  0  0  0  0  0  0  0  0  0  0
  140.8510  157.6030  137.1060 C   0  0  0  0  0  0  0  0  0  0  0  0
  140.9910  156.7950  138.3400 C   0  0  0  0  0  0  0  0  0  0  0  0
  141.7520  157.1000  139.4570 C   0  0  0  0  0  0  0  0  0  0  0  0
  141.5640  156.0560  140.3360 C   0  0  0  0  0  0  0  0  0  0  0  0
  140.7030  155.1790  139.7110 C   0  0  0  0  0  0  0  0  0  0  0  0
  140.3810  155.6460  138.5270 O   0  0  0  0  0  0  0  0  0  0  0  0
  140.2630  157.0640  135.9360 C   0  0  0  0  0  0  0  0  0  0  0  0
  140.1600  157.8800  134.8050 C   0  0  0  0  0  0  0  0  0  0  0  0
  138.8719  155.6710  134.0756 H   0  0  0  0  0  0  0  0  0  0  0  0
  138.2044  156.4151  132.5831 H   0  0  0  0  0  0  0  0  0  0  0  0
  139.8691  155.7400  132.5831 H   0  0  0  0  0  0  0  0  0  0  0  0
  137.2300  158.2340  131.7920 H   0  0  0  0  0  0  0  0  0  0  0  0
  137.6460  158.5760  130.0810 H   0  0  0  0  0  0  0  0  0  0  0  0
  140.6029  160.7351  133.2353 H   0  0  0  0  0  0  0  0  0  0  0  0
  141.5480  160.7831  135.9370 H   0  0  0  0  0  0  0  0  0  0  0  0
  141.7736  159.3666  138.0031 H   0  0  0  0  0  0  0  0  0  0  0  0
  142.3773  157.9919  139.6103 H   0  0  0  0  0  0  0  0  0  0  0  0
  142.0107  155.9445  141.3350 H   0  0  0  0  0  0  0  0  0  0  0  0
  140.3411  154.2325  140.1391 H   0  0  0  0  0  0  0  0  0  0  0  0
  139.8957  156.0273  135.9172 H   0  0  0  0  0  0  0  0  0  0  0  0
  1  2  1  0
  2  3  1  0
  3  4  1  0
  4  5  1  0
  4  6  2  0
  3  7  2  0
  7  8  1  0
  8  9  2  0
  9 10  1  0
 10 11  2  0
 11 12  1  0
 12 13  2  0
 13 14  1  0
 14 15  2  0
 15 16  1  0
 11 17  1  0
 17 18  2  0
 18  2  1  0
 18  8  1  0
 16 12  1  0
  1 19  1  0
  1 20  1  0
  1 21  1  0
  5 22  1  0
  5 23  1  0
  7 24  1  0
  9 25  1  0
 10 26  1  0
 13 27  1  0
 14 28  1  0
 15 29  1  0
 17 30  1  0
M  END
>  <UniqueID>  (29) 
29

>  <SMILES>  (29) 
Cn1c(C(N)=O)cc2ccc(-c3ccco3)cc21

>  <Energy>  (29) 
95.25950104154347

>  <Genealogy>  (29) 
Cn1c(C(N)=O)cc2ccc(-c3ccco3)cc21 (3D coordinates assigned)
Cn1c(C(N)=O)cc2ccc(-c3ccco3)cc21 (optimized conformer: 95.25950104154347 kcal/mol)

>  <smiles>  (29) 
Cn1c(C(N)=O)cc2ccc(-c3ccco3)cc21

>  <score_type>  (29) 
oracle

>  <origin>  (29) 
adg

>  <m_score__min__energy>  (29) 
-6.7000000000000002

>  <m_primary>  (29) 
energy

$$$$
29:0
     RDKit          3D

 35 37  0  0  0  0  0  0  0  0999 V2000
  149.5750  159.4340  132.3560 N   0  0  0  0  0  0  0  0  0  0  0  0
  148.6660  158.3860  132.6830 C   0  0  0  0  0  0  0  0  0  0  0  0
  149.0580  157.1910  132.6350 O   0  0  0  0  0  0  0  0  0  0  0  0
  147.2680  158.7090  133.0380 C   0  0  0  0  0  0  0  0  0  0  0  0
  146.8120  160.0050  133.2730 C   0  0  0  0  0  0  0  0  0  0  0  0
  145.4550  159.8840  133.4680 C   0  0  0  0  0  0  0  0  0  0  0  0
  144.5000  160.8570  133.7480 C   0  0  0  0  0  0  0  0  0  0  0  0
  143.1680  160.4400  133.9200 C   0  0  0  0  0  0  0  0  0  0  0  0
  142.8150  159.0730  133.8080 C   0  0  0  0  0  0  0  0  0  0  0  0
  141.4440  158.6840  134.0070 N   0  0  0  0  0  0  0  0  0  0  0  0
  140.3880  158.9770  133.0820 C   0  0  0  0  0  0  0  0  0  0  0  0
  140.2290  160.2920  132.6210 C   0  0  0  0  0  0  0  0  0  0  0  0
  139.2080  160.6080  131.7220 C   0  0  0  0  0  0  0  0  0  0  0  0
  138.3460  159.6090  131.2630 C   0  0  0  0  0  0  0  0  0  0  0  0
  138.5110  158.2910  131.6930 C   0  0  0  0  0  0  0  0  0  0  0  0
  139.5330  157.9650  132.5950 C   0  0  0  0  0  0  0  0  0  0  0  0
  139.7540  156.2770  133.0400 Cl  0  0  0  0  0  0  0  0  0  0  0  0
  143.8190  158.1130  133.5380 C   0  0  0  0  0  0  0  0  0  0  0  0
  145.1330  158.5580  133.3550 C   0  0  0  0  0  0  0  0  0  0  0  0
  146.2350  157.8220  133.0970 N   0  0  0  0  0  0  0  0  0  0  0  0
  146.2890  156.3920  132.9670 C   0  0  0  0  0  0  0  0  0  0  0  0
  147.0320  155.7890  131.9080 N   0  0  0  0  0  0  0  0  0  0  0  0
  145.7050  155.6620  133.8120 O   0  0  0  0  0  0  0  0  0  0  0  0
  150.5890  159.3590  132.5950 H   0  0  0  0  0  0  0  0  0  0  0  0
  147.4096  160.9282  133.2974 H   0  0  0  0  0  0  0  0  0  0  0  0
  144.7781  161.9179  133.8320 H   0  0  0  0  0  0  0  0  0  0  0  0
  142.3904  161.1850  134.1444 H   0  0  0  0  0  0  0  0  0  0  0  0
  141.2210  158.0520  134.8110 H   0  0  0  0  0  0  0  0  0  0  0  0
  140.9130  161.0797  132.9698 H   0  0  0  0  0  0  0  0  0  0  0  0
  139.0824  161.6443  131.3751 H   0  0  0  0  0  0  0  0  0  0  0  0
  137.5365  159.8611  130.5622 H   0  0  0  0  0  0  0  0  0  0  0  0
  137.8362  157.5053  131.3224 H   0  0  0  0  0  0  0  0  0  0  0  0
  143.5725  157.0429  133.4735 H   0  0  0  0  0  0  0  0  0  0  0  0
  147.5900  156.3770  131.2490 H   0  0  0  0  0  0  0  0  0  0  0  0
  147.0580  154.7510  131.8070 H   0  0  0  0  0  0  0  0  0  0  0  0
  1  2  1  0
  2  3  2  0
  2  4  1  0
  4  5  2  0
  5  6  1  0
  6  7  2  0
  7  8  1  0
  8  9  2  0
  9 10  1  0
 10 11  1  0
 11 12  2  0
 12 13  1  0
 13 14  2  0
 14 15  1  0
 15 16  2  0
 16 17  1  0
  9 18  1  0
 18 19  2  0
 19 20  1  0
 20 21  1  0
 21 22  1  0
 21 23  2  0
 20  4  1  0
 19  6  1  0
 16 11  1  0
  1 24  1  0
  5 25  1  0
  7 26  1  0
  8 27  1  0
 10 28  1  0
 12 29  1  0
 13 30  1  0
 14 31  1  0
 15 32  1  0
 18 33  1  0
 22 34  1  0
 22 35  1  0
M  CHG  1   1  -1
M  END
>  <UniqueID>  (30) 
30

>  <SMILES>  (30) 
[NH-]C(=O)c1cc2ccc(Nc3ccccc3Cl)cc2n1C(N)=O

>  <Energy>  (30) 
83.05299472288957

>  <Genealogy>  (30) 
[NH-]C(=O)c1cc2ccc(Nc3ccccc3Cl)cc2n1C(N)=O (protonated)
[NH-]C(=O)c1cc2ccc(Nc3ccccc3Cl)cc2n1C(N)=O (3D coordinates assigned)
[NH-]C(=O)c1cc2ccc(Nc3ccccc3Cl)cc2n1C(N)=O (optimized conformer: 83.05299472288957 kcal/mol)

>  <smiles>  (30) 
NC(=O)c1cc2ccc(Nc3ccccc3Cl)cc2n1C(N)=O

>  <score_type>  (30) 
oracle

>  <origin>  (30) 
adg

>  <m_score__min__energy>  (30) 
-8.4100000000000001

>  <m_primary>  (30) 
energy

$$$$
30:0
     RDKit          3D

 33 34  0  0  0  0  0  0  0  0999 V2000
  143.3800  158.6970  133.8790 C   0  0  0  0  0  0  0  0  0  0  0  0
  144.1580  160.0020  133.7390 C   0  0  0  0  0  0  0  0  0  0  0  0
  145.1970  159.8660  132.7730 O   0  0  0  0  0  0  0  0  0  0  0  0
  146.5560  159.9990  133.0780 C   0  0  0  0  0  0  0  0  0  0  0  0
  146.9670  160.9930  133.7380 O   0  0  0  0  0  0  0  0  0  0  0  0
  147.4820  158.9820  132.6640 N   0  0  0  0  0  0  0  0  0  0  0  0
  148.5160  159.1000  131.7820 C   0  0  0  0  0  0  0  0  0  0  0  0
  148.8210  160.2850  130.9540 C   0  0  0  0  0  0  0  0  0  0  0  0
  148.6360  161.5930  131.4910 N   0  0  0  0  0  0  0  0  0  0  0  0
  149.2790  160.1570  129.7880 O   0  0  0  0  0  0  0  0  0  0  0  0
  149.2230  157.9010  131.6960 C   0  0  0  0  0  0  0  0  0  0  0  0
  148.5790  157.0370  132.5520 C   0  0  0  0  0  0  0  0  0  0  0  0
  148.8680  155.7120  132.8690 C   0  0  0  0  0  0  0  0  0  0  0  0
  148.0510  155.0690  133.8150 C   0  0  0  0  0  0  0  0  0  0  0  0
  146.9670  155.7540  134.4190 C   0  0  0  0  0  0  0  0  0  0  0  0
  146.1300  155.0700  135.4620 C   0  0  0  0  0  0  0  0  0  0  0  0
  146.9980  154.2490  136.3600 C   0  0  0  0  0  0  0  0  0  0  0  0
  148.0850  154.7170  136.7910 O   0  0  0  0  0  0  0  0  0  0  0  0
  146.5850  152.9860  136.7630 O   0  0  0  0  0  0  0  0  0  0  0  0
  146.7130  157.1030  134.0800 C   0  0  0  0  0  0  0  0  0  0  0  0
  147.5320  157.7130  133.1230 C   0  0  0  0  0  0  0  0  0  0  0  0
  143.2418  158.4651  134.9454 H   0  0  0  0  0  0  0  0  0  0  0  0
  142.3972  158.8024  133.3963 H   0  0  0  0  0  0  0  0  0  0  0  0
  143.9401  157.8826  133.3963 H   0  0  0  0  0  0  0  0  0  0  0  0
  143.4710  160.8000  133.4209 H   0  0  0  0  0  0  0  0  0  0  0  0
  144.6083  160.2522  134.7109 H   0  0  0  0  0  0  0  0  0  0  0  0
  147.7710  161.8380  132.0220 H   0  0  0  0  0  0  0  0  0  0  0  0
  150.1070  157.6907  131.0761 H   0  0  0  0  0  0  0  0  0  0  0  0
  149.7089  155.1854  132.3941 H   0  0  0  0  0  0  0  0  0  0  0  0
  148.2550  154.0235  134.0894 H   0  0  0  0  0  0  0  0  0  0  0  0
  145.6023  155.8280  136.0595 H   0  0  0  0  0  0  0  0  0  0  0  0
  145.4021  154.4120  134.9648 H   0  0  0  0  0  0  0  0  0  0  0  0
  145.8922  157.6591  134.5565 H   0  0  0  0  0  0  0  0  0  0  0  0
  1  2  1  0
  2  3  1  0
  3  4  1  0
  4  5  2  0
  4  6  1  0
  6  7  1  0
  7  8  1  0
  8  9  1  0
  8 10  2  0
  7 11  2  0
 11 12  1  0
 12 13  2  0
 13 14  1  0
 14 15  2  0
 15 16  1  0
 16 17  1  0
 17 18  2  0
 17 19  1  0
 15 20  1  0
 20 21  2  0
 21  6  1  0
 21 12  1  0
  1 22  1  0
  1 23  1  0
  1 24  1  0
  2 25  1  0
  2 26  1  0
  9 27  1  0
 11 28  1  0
 13 29  1  0
 14 30  1  0
 16 31  1  0
 16 32  1  0
 20 33  1  0
M  CHG  2   9  -1  19  -1
M  END
>  <UniqueID>  (31) 
31

>  <SMILES>  (31) 
CCOC(=O)n1c(C([NH-])=O)cc2ccc(CC(=O)[O-])cc21

>  <Energy>  (31) 
66.30422090415307

>  <Genealogy>  (31) 
CCOC(=O)n1c(C([NH-])=O)cc2ccc(CC(=O)[O-])cc21 (protonated)
CCOC(=O)n1c(C([NH-])=O)cc2ccc(CC(=O)[O-])cc21 (3D coordinates assigned)
CCOC(=O)n1c(C([NH-])=O)cc2ccc(CC(=O)[O-])cc21 (optimized conformer: 66.30422090415307 kcal/mol)

>  <smiles>  (31) 
CCOC(=O)n1c(C(N)=O)cc2ccc(CC(=O)O)cc21

>  <score_type>  (31) 
oracle

>  <origin>  (31) 
adg

>  <m_score__min__energy>  (31) 
-6.3099999999999996

>  <m_primary>  (31) 
energy

$$$$
31:0
     RDKit          3D

 48 49  0  0  0  0  0  0  0  0999 V2000
  147.7270  155.7670  135.1500 C   0  0  0  0  0  0  0  0  0  0  0  0
  146.4120  155.0040  135.1810 C   0  0  0  0  0  0  0  0  0  0  0  0
  145.5040  155.5880  134.2540 O   0  0  0  0  0  0  0  0  0  0  0  0
  145.9170  156.4220  133.2110 C   0  0  0  0  0  0  0  0  0  0  0  0
  146.5380  155.9440  132.2220 O   0  0  0  0  0  0  0  0  0  0  0  0
  145.6590  157.8330  133.2850 N   0  0  0  0  0  0  0  0  0  0  0  0
  146.5590  158.8560  133.2400 C   0  0  0  0  0  0  0  0  0  0  0  0
  148.0080  158.7270  132.9770 C   0  0  0  0  0  0  0  0  0  0  0  0
  148.4570  158.1400  131.7580 N   0  0  0  0  0  0  0  0  0  0  0  0
  148.8540  159.0970  133.8330 O   0  0  0  0  0  0  0  0  0  0  0  0
  145.9120  160.0800  133.3940 C   0  0  0  0  0  0  0  0  0  0  0  0
  144.5780  159.7740  133.5270 C   0  0  0  0  0  0  0  0  0  0  0  0
  143.4850  160.6080  133.7210 C   0  0  0  0  0  0  0  0  0  0  0  0
  142.2180  160.0180  133.8490 C   0  0  0  0  0  0  0  0  0  0  0  0
  142.0470  158.6040  133.7780 C   0  0  0  0  0  0  0  0  0  0  0  0
  140.6350  158.0100  133.9380 C   0  0  2  0  0  0  0  0  0  0  0  0
  140.4840  156.5990  133.3160 C   0  0  0  0  0  0  0  0  0  0  0  0
  139.5480  158.9660  133.3260 C   0  0  0  0  0  0  0  0  0  0  0  0
  139.6120  159.2570  131.7980 C   0  0  0  0  0  0  0  0  0  0  0  0
  138.7310  158.2470  131.0480 C   0  0  0  0  0  0  0  0  0  0  0  0
  139.1740  160.6830  131.4330 C   0  0  0  0  0  0  0  0  0  0  0  0
  140.3910  157.8390  135.4320 C   0  0  0  0  0  0  0  0  0  0  0  0
  141.3060  157.4480  136.2060 O   0  0  0  0  0  0  0  0  0  0  0  0
  139.1580  158.1870  135.9760 O   0  0  0  0  0  0  0  0  0  0  0  0
  143.2050  157.7930  133.6100 C   0  0  0  0  0  0  0  0  0  0  0  0
  144.4500  158.4130  133.4600 C   0  0  0  0  0  0  0  0  0  0  0  0
  148.0624  155.9616  136.1794 H   0  0  0  0  0  0  0  0  0  0  0  0
  148.4857  155.1688  134.6241 H   0  0  0  0  0  0  0  0  0  0  0  0
  147.5842  156.7225  134.6241 H   0  0  0  0  0  0  0  0  0  0  0  0
  146.5907  153.9537  134.9074 H   0  0  0  0  0  0  0  0  0  0  0  0
  145.9841  155.0509  136.1933 H   0  0  0  0  0  0  0  0  0  0  0  0
  148.0710  157.2290  131.4260 H   0  0  0  0  0  0  0  0  0  0  0  0
  146.3710  161.0796  133.4065 H   0  0  0  0  0  0  0  0  0  0  0  0
  143.6086  161.6998  133.7729 H   0  0  0  0  0  0  0  0  0  0  0  0
  141.3386  160.6596  134.0074 H   0  0  0  0  0  0  0  0  0  0  0  0
  140.4040  155.8511  134.1186 H   0  0  0  0  0  0  0  0  0  0  0  0
  139.5774  156.5676  132.6939 H   0  0  0  0  0  0  0  0  0  0  0  0
  141.3635  156.3765  132.6939 H   0  0  0  0  0  0  0  0  0  0  0  0
  138.5644  158.5193  133.5336 H   0  0  0  0  0  0  0  0  0  0  0  0
  139.7380  159.9399  133.8008 H   0  0  0  0  0  0  0  0  0  0  0  0
  140.6659  159.1587  131.4988 H   0  0  0  0  0  0  0  0  0  0  0  0
  138.1878  157.6242  131.7740 H   0  0  0  0  0  0  0  0  0  0  0  0
  138.0103  158.7871  130.4164 H   0  0  0  0  0  0  0  0  0  0  0  0
  139.3640  157.6063  130.4164 H   0  0  0  0  0  0  0  0  0  0  0  0
  138.9970  161.2591  132.3532 H   0  0  0  0  0  0  0  0  0  0  0  0
  139.9642  161.1694  130.8422 H   0  0  0  0  0  0  0  0  0  0  0  0
  138.2470  160.6419  130.8422 H   0  0  0  0  0  0  0  0  0  0  0  0
  143.1220  156.6962  133.5983 H   0  0  0  0  0  0  0  0  0  0  0  0
  1  2  1  0
  2  3  1  0
  3  4  1  0
  4  5  2  0
  4  6  1  0
  6  7  1  0
  7  8  1  0
  8  9  1  0
  8 10  2  0
  7 11  2  0
 11 12  1  0
 12 13  2  0
 13 14  1  0
 14 15  2  0
 15 16  1  0
 16 17  1  6
 16 18  1  0
 18 19  1  0
 19 20  1  0
 19 21  1  0
 16 22  1  0
 22 23  2  0
 22 24  1  0
 15 25  1  0
 25 26  2  0
 26  6  1  0
 26 12  1  0
  1 27  1  0
  1 28  1  0
  1 29  1  0
  2 30  1  0
  2 31  1  0
  9 32  1  0
 11 33  1  0
 13 34  1  0
 14 35  1  0
 17 36  1  0
 17 37  1  0
 17 38  1  0
 18 39  1  0
 18 40  1  0
 19 41  1  0
 20 42  1  0
 20 43  1  0
 20 44  1  0
 21 45  1  0
 21 46  1  0
 21 47  1  0
 25 48  1  0
M  CHG  2   9  -1  24  -1
M  END
>  <UniqueID>  (32) 
32

>  <SMILES>  (32) 
CCOC(=O)n1c(C([NH-])=O)cc2ccc([C@](C)(CC(C)C)C(=O)[O-])cc21

>  <Energy>  (32) 
84.7818343974481

>  <Genealogy>  (32) 
CCOC(=O)n1c(C([NH-])=O)cc2ccc(C(C)(CC(C)C)C(=O)[O-])cc21 (protonated)
CCOC(=O)n1c(C([NH-])=O)cc2ccc([C@](C)(CC(C)C)C(=O)[O-])cc21 (chirality)
CCOC(=O)n1c(C([NH-])=O)cc2ccc([C@](C)(CC(C)C)C(=O)[O-])cc21 (3D coordinates assigned)
CCOC(=O)n1c(C([NH-])=O)cc2ccc([C@](C)(CC(C)C)C(=O)[O-])cc21 (optimized conformer: 84.7818343974481 kcal/mol)

>  <smiles>  (32) 
CCOC(=O)n1c(C(N)=O)cc2ccc(C(C)(CC(C)C)C(=O)O)cc21

>  <score_type>  (32) 
oracle

>  <origin>  (32) 
adg

>  <m_score__min__energy>  (32) 
-7.7400000000000002

>  <m_primary>  (32) 
energy

$$$$
32:0
     RDKit          3D

 38 40  0  0  0  0  0  0  0  0999 V2000
  147.9370  154.7620  132.8580 C   0  0  0  0  0  0  0  0  0  0  0  0
  147.6570  156.2320  132.9790 C   0  0  0  0  0  0  0  0  0  0  0  0
  148.6950  157.1810  132.8120 C   0  0  0  0  0  0  0  0  0  0  0  0
  148.4310  158.5570  132.9110 C   0  0  0  0  0  0  0  0  0  0  0  0
  147.1220  158.9530  133.1600 C   0  0  0  0  0  0  0  0  0  0  0  0
  146.5940  160.2150  133.3290 C   0  0  0  0  0  0  0  0  0  0  0  0
  145.2320  160.0200  133.5660 C   0  0  0  0  0  0  0  0  0  0  0  0
  144.2730  161.1290  133.7340 C   0  0  0  0  0  0  0  0  0  0  0  0
  142.9030  160.9780  133.3800 N   0  0  0  0  0  0  0  0  0  0  0  0
  144.6790  162.2480  134.1510 O   0  0  0  0  0  0  0  0  0  0  0  0
  144.9330  158.6890  133.5460 N   0  0  0  0  0  0  0  0  0  0  0  0
  143.6720  158.0640  133.8270 C   0  0  0  0  0  0  0  0  0  0  0  0
  143.5790  157.2470  134.7830 O   0  0  0  0  0  0  0  0  0  0  0  0
  142.5300  158.3340  132.9980 N   0  0  0  0  0  0  0  0  0  0  0  0
  141.2370  157.6770  133.1810 C   0  0  0  0  0  0  0  0  0  0  0  0
  140.1590  158.4880  132.5200 C   0  0  0  0  0  0  0  0  0  0  0  0
  140.2320  159.8860  132.5110 C   0  0  0  0  0  0  0  0  0  0  0  0
  139.2380  160.6200  131.8620 C   0  0  0  0  0  0  0  0  0  0  0  0
  138.2140  159.9810  131.2370 N   0  0  0  0  0  0  0  0  0  0  0  0
  138.1210  158.6260  131.2210 C   0  0  0  0  0  0  0  0  0  0  0  0
  139.0960  157.8520  131.8590 C   0  0  0  0  0  0  0  0  0  0  0  0
  146.0980  158.0510  133.2990 C   0  0  0  0  0  0  0  0  0  0  0  0
  146.3380  156.6720  133.2280 C   0  0  0  0  0  0  0  0  0  0  0  0
  148.0210  154.3209  133.8622 H   0  0  0  0  0  0  0  0  0  0  0  0
  147.1153  154.2760  132.3116 H   0  0  0  0  0  0  0  0  0  0  0  0
  148.8798  154.6121  132.3116 H   0  0  0  0  0  0  0  0  0  0  0  0
  149.7186  156.8369  132.6026 H   0  0  0  0  0  0  0  0  0  0  0  0
  149.2353  159.2984  132.7951 H   0  0  0  0  0  0  0  0  0  0  0  0
  147.1321  161.1734  133.2862 H   0  0  0  0  0  0  0  0  0  0  0  0
  142.6260  160.4750  132.5070 H   0  0  0  0  0  0  0  0  0  0  0  0
  142.5900  159.1190  132.3120 H   0  0  0  0  0  0  0  0  0  0  0  0
  141.2691  156.6744  132.7295 H   0  0  0  0  0  0  0  0  0  0  0  0
  141.0209  157.5912  134.2561 H   0  0  0  0  0  0  0  0  0  0  0  0
  141.0653  160.4014  133.0110 H   0  0  0  0  0  0  0  0  0  0  0  0
  139.2835  161.7190  131.8563 H   0  0  0  0  0  0  0  0  0  0  0  0
  137.2799  158.1379  130.7069 H   0  0  0  0  0  0  0  0  0  0  0  0
  139.0304  156.7541  131.8430 H   0  0  0  0  0  0  0  0  0  0  0  0
  145.5192  155.9499  133.3629 H   0  0  0  0  0  0  0  0  0  0  0  0
  1  2  1  0
  2  3  2  0
  3  4  1  0
  4  5  2  0
  5  6  1  0
  6  7  2  0
  7  8  1  0
  8  9  1  0
  8 10  2  0
  7 11  1  0
 11 12  1  0
 12 13  2  0
 12 14  1  0
 14 15  1  0
 15 16  1  0
 16 17  2  0
 17 18  1  0
 18 19  2  0
 19 20  1  0
 20 21  2  0
 11 22  1  0
 22 23  2  0
 23  2  1  0
 22  5  1  0
 21 16  1  0
  1 24  1  0
  1 25  1  0
  1 26  1  0
  3 27  1  0
  4 28  1  0
  6 29  1  0
  9 30  1  0
 14 31  1  0
 15 32  1  0
 15 33  1  0
 17 34  1  0
 18 35  1  0
 20 36  1  0
 21 37  1  0
 23 38  1  0
M  CHG  1   9  -1
M  END
>  <UniqueID>  (33) 
33

>  <SMILES>  (33) 
Cc1ccc2cc(C([NH-])=O)n(C(=O)NCc3ccncc3)c2c1

>  <Energy>  (33) 
78.30972030739419

>  <Genealogy>  (33) 
Cc1ccc2cc(C([NH-])=O)n(C(=O)NCc3ccncc3)c2c1 (protonated)
Cc1ccc2cc(C([NH-])=O)n(C(=O)NCc3ccncc3)c2c1 (3D coordinates assigned)
Cc1ccc2cc(C([NH-])=O)n(C(=O)NCc3ccncc3)c2c1 (optimized conformer: 78.30972030739419 kcal/mol)

>  <smiles>  (33) 
Cc1ccc2cc(C(N)=O)n(C(=O)NCc3ccncc3)c2c1

>  <score_type>  (33) 
oracle

>  <origin>  (33) 
adg

>  <m_score__min__energy>  (33) 
-7.9500000000000002

>  <m_primary>  (33) 
energy

$$$$
33:0
     RDKit          3D

 44 46  0  0  0  0  0  0  0  0999 V2000
  141.1550  159.0540  136.2770 C   0  0  0  0  0  0  0  0  0  0  0  0
  142.2810  159.3220  135.3960 N   0  0  0  0  0  0  0  0  0  0  0  0
  142.3400  158.8360  134.0520 C   0  0  0  0  0  0  0  0  0  0  0  0
  143.3890  158.9910  133.3700 O   0  0  0  0  0  0  0  0  0  0  0  0
  141.2180  158.1380  133.4880 N   0  0  0  0  0  0  0  0  0  0  0  0
  140.1110  158.6700  132.8960 C   0  0  0  0  0  0  0  0  0  0  0  0
  139.9020  160.0990  132.5760 C   0  0  0  0  0  0  0  0  0  0  0  0
  138.8250  160.4850  131.7250 N   0  0  0  0  0  0  0  0  0  0  0  0
  140.6880  160.9800  133.0150 O   0  0  0  0  0  0  0  0  0  0  0  0
  139.2130  157.6640  132.5450 C   0  0  0  0  0  0  0  0  0  0  0  0
  139.8110  156.4880  132.9340 C   0  0  0  0  0  0  0  0  0  0  0  0
  139.3610  155.1760  132.8260 C   0  0  0  0  0  0  0  0  0  0  0  0
  140.1840  154.1550  133.3290 C   0  0  0  0  0  0  0  0  0  0  0  0
  141.4250  154.4620  133.9410 C   0  0  0  0  0  0  0  0  0  0  0  0
  142.3090  153.3530  134.4390 C   0  0  0  0  0  0  0  0  0  0  0  0
  142.2500  152.1880  133.4900 C   0  0  0  0  0  0  0  0  0  0  0  0
  143.1360  152.0760  132.6010 O   0  0  0  0  0  0  0  0  0  0  0  0
  141.2990  151.1300  133.6550 N   0  0  0  0  0  0  0  0  0  0  0  0
  140.7010  150.3760  132.5930 C   0  0  0  0  0  0  0  0  0  0  0  0
  139.3590  150.5940  132.2380 C   0  0  0  0  0  0  0  0  0  0  0  0
  138.7850  149.8800  131.1830 C   0  0  0  0  0  0  0  0  0  0  0  0
  139.5480  148.9580  130.4650 C   0  0  0  0  0  0  0  0  0  0  0  0
  140.8890  148.7470  130.7980 C   0  0  0  0  0  0  0  0  0  0  0  0
  141.4750  149.4520  131.8620 C   0  0  0  0  0  0  0  0  0  0  0  0
  142.9110  149.2010  132.2320 C   0  0  0  0  0  0  0  0  0  0  0  0
  141.8490  155.8060  134.0300 C   0  0  0  0  0  0  0  0  0  0  0  0
  141.0200  156.8010  133.5020 C   0  0  0  0  0  0  0  0  0  0  0  0
  141.4822  159.1319  137.3243 H   0  0  0  0  0  0  0  0  0  0  0  0
  140.3577  159.7875  136.0865 H   0  0  0  0  0  0  0  0  0  0  0  0
  140.7736  158.0400  136.0865 H   0  0  0  0  0  0  0  0  0  0  0  0
  138.2960  161.3680  131.8950 H   0  0  0  0  0  0  0  0  0  0  0  0
  138.2333  157.7848  132.0596 H   0  0  0  0  0  0  0  0  0  0  0  0
  138.3910  154.9455  132.3612 H   0  0  0  0  0  0  0  0  0  0  0  0
  139.8621  153.1063  133.2471 H   0  0  0  0  0  0  0  0  0  0  0  0
  143.3453  153.7154  134.5081 H   0  0  0  0  0  0  0  0  0  0  0  0
  141.9617  153.0303  135.4316 H   0  0  0  0  0  0  0  0  0  0  0  0
  138.7580  151.3295  132.7928 H   0  0  0  0  0  0  0  0  0  0  0  0
  137.7302  150.0448  130.9180 H   0  0  0  0  0  0  0  0  0  0  0  0
  139.0933  148.3964  129.6356 H   0  0  0  0  0  0  0  0  0  0  0  0
  141.4884  148.0251  130.2238 H   0  0  0  0  0  0  0  0  0  0  0  0
  143.0098  149.1837  133.3274 H   0  0  0  0  0  0  0  0  0  0  0  0
  143.2321  148.2331  131.8196 H   0  0  0  0  0  0  0  0  0  0  0  0
  143.5414  150.0026  131.8196 H   0  0  0  0  0  0  0  0  0  0  0  0
  142.8079  156.0641  134.5031 H   0  0  0  0  0  0  0  0  0  0  0  0
  1  2  1  0
  2  3  1  0
  3  4  2  0
  3  5  1  0
  5  6  1  0
  6  7  1  0
  7  8  1  0
  7  9  2  0
  6 10  2  0
 10 11  1  0
 11 12  2  0
 12 13  1  0
 13 14  2  0
 14 15  1  0
 15 16  1  0
 16 17  2  0
 16 18  1  0
 18 19  1  0
 19 20  2  0
 20 21  1  0
 21 22  2  0
 22 23  1  0
 23 24  2  0
 24 25  1  0
 14 26  1  0
 26 27  2  0
 27  5  1  0
 27 11  1  0
 24 19  1  0
  1 28  1  0
  1 29  1  0
  1 30  1  0
  8 31  1  0
 10 32  1  0
 12 33  1  0
 13 34  1  0
 15 35  1  0
 15 36  1  0
 20 37  1  0
 21 38  1  0
 22 39  1  0
 23 40  1  0
 25 41  1  0
 25 42  1  0
 25 43  1  0
 26 44  1  0
M  CHG  3   2  -1   8  -1  18  -1
M  END
>  <UniqueID>  (34) 
34

>  <SMILES>  (34) 
C[N-]C(=O)n1c(C([NH-])=O)cc2ccc(CC(=O)[N-]c3ccccc3C)cc21

>  <Energy>  (34) 
84.3449508465435

>  <Genealogy>  (34) 
C[N-]C(=O)n1c(C([NH-])=O)cc2ccc(CC(=O)[N-]c3ccccc3C)cc21 (protonated)
C[N-]C(=O)n1c(C([NH-])=O)cc2ccc(CC(=O)[N-]c3ccccc3C)cc21 (3D coordinates assigned)
C[N-]C(=O)n1c(C([NH-])=O)cc2ccc(CC(=O)[N-]c3ccccc3C)cc21 (optimized conformer: 84.3449508465435 kcal/mol)

>  <smiles>  (34) 
CNC(=O)n1c(C(N)=O)cc2ccc(CC(=O)Nc3ccccc3C)cc21

>  <score_type>  (34) 
oracle

>  <origin>  (34) 
adg

>  <m_score__min__energy>  (34) 
-8.4900000000000002

>  <m_primary>  (34) 
energy

$$$$
34:0
     RDKit          3D

 41 43  0  0  0  0  0  0  0  0999 V2000
  146.1430  162.8100  134.4940 C   0  0  0  0  0  0  0  0  0  0  0  0
  144.7410  162.4930  133.9880 C   0  0  0  0  0  0  0  0  0  0  0  0
  144.3240  161.2050  134.4340 O   0  0  0  0  0  0  0  0  0  0  0  0
  143.3970  160.4120  133.7460 C   0  0  0  0  0  0  0  0  0  0  0  0
  142.3110  160.9090  133.3410 O   0  0  0  0  0  0  0  0  0  0  0  0
  143.6750  159.0210  133.5290 N   0  0  0  0  0  0  0  0  0  0  0  0
  142.7830  157.9910  133.4440 C   0  0  0  0  0  0  0  0  0  0  0  0
  141.3110  158.1180  133.4200 C   0  0  0  0  0  0  0  0  0  0  0  0
  140.6910  159.0030  132.4880 N   0  0  0  0  0  0  0  0  0  0  0  0
  140.5940  157.4820  134.2350 O   0  0  0  0  0  0  0  0  0  0  0  0
  143.4520  156.7770  133.2980 C   0  0  0  0  0  0  0  0  0  0  0  0
  144.7900  157.0960  133.2870 C   0  0  0  0  0  0  0  0  0  0  0  0
  145.9070  156.2710  133.1840 C   0  0  0  0  0  0  0  0  0  0  0  0
  147.1750  156.8710  133.2340 C   0  0  0  0  0  0  0  0  0  0  0  0
  147.3060  158.2740  133.3840 C   0  0  0  0  0  0  0  0  0  0  0  0
  148.6690  158.8990  133.4920 C   0  0  0  0  0  0  0  0  0  0  0  0
  149.0040  159.6360  132.2230 C   0  0  0  0  0  0  0  0  0  0  0  0
  148.3770  160.8590  131.9280 C   0  0  0  0  0  0  0  0  0  0  0  0
  148.7160  161.5620  130.7670 C   0  0  0  0  0  0  0  0  0  0  0  0
  149.6880  161.0540  129.9010 C   0  0  0  0  0  0  0  0  0  0  0  0
  150.3250  159.8450  130.1950 C   0  0  0  0  0  0  0  0  0  0  0  0
  149.9890  159.1390  131.3540 C   0  0  0  0  0  0  0  0  0  0  0  0
  146.1500  159.0790  133.4960 C   0  0  0  0  0  0  0  0  0  0  0  0
  144.8980  158.4560  133.4260 C   0  0  0  0  0  0  0  0  0  0  0  0
  146.1445  162.8103  135.5940 H   0  0  0  0  0  0  0  0  0  0  0  0
  146.8464  162.0482  134.1266 H   0  0  0  0  0  0  0  0  0  0  0  0
  146.4502  163.8003  134.1266 H   0  0  0  0  0  0  0  0  0  0  0  0
  144.0401  163.2510  134.3676 H   0  0  0  0  0  0  0  0  0  0  0  0
  144.7518  162.5002  132.8881 H   0  0  0  0  0  0  0  0  0  0  0  0
  141.2630  159.6420  131.8930 H   0  0  0  0  0  0  0  0  0  0  0  0
  143.0047  155.7759  133.2102 H   0  0  0  0  0  0  0  0  0  0  0  0
  145.7991  155.1826  133.0671 H   0  0  0  0  0  0  0  0  0  0  0  0
  148.0765  156.2455  133.1559 H   0  0  0  0  0  0  0  0  0  0  0  0
  148.6795  159.6046  134.3358 H   0  0  0  0  0  0  0  0  0  0  0  0
  149.4153  158.1076  133.6555 H   0  0  0  0  0  0  0  0  0  0  0  0
  147.6173  161.2646  132.6123 H   0  0  0  0  0  0  0  0  0  0  0  0
  148.2174  162.5148  130.5357 H   0  0  0  0  0  0  0  0  0  0  0  0
  149.9521  161.6061  128.9870 H   0  0  0  0  0  0  0  0  0  0  0  0
  151.0919  159.4484  129.5134 H   0  0  0  0  0  0  0  0  0  0  0  0
  150.4976  158.1916  131.5859 H   0  0  0  0  0  0  0  0  0  0  0  0
  146.2316  160.1672  133.6346 H   0  0  0  0  0  0  0  0  0  0  0  0
  1  2  1  0
  2  3  1  0
  3  4  1  0
  4  5  2  0
  4  6  1  0
  6  7  1  0
  7  8  1  0
  8  9  1  0
  8 10  2  0
  7 11  2  0
 11 12  1  0
 12 13  2  0
 13 14  1  0
 14 15  2  0
 15 16  1  0
 16 17  1  0
 17 18  2  0
 18 19  1  0
 19 20  2  0
 20 21  1  0
 21 22  2  0
 15 23  1  0
 23 24  2  0
 24  6  1  0
 24 12  1  0
 22 17  1  0
  1 25  1  0
  1 26  1  0
  1 27  1  0
  2 28  1  0
  2 29  1  0
  9 30  1  0
 11 31  1  0
 13 32  1  0
 14 33  1  0
 16 34  1  0
 16 35  1  0
 18 36  1  0
 19 37  1  0
 20 38  1  0
 21 39  1  0
 22 40  1  0
 23 41  1  0
M  CHG  1   9  -1
M  END
>  <UniqueID>  (35) 
35

>  <SMILES>  (35) 
CCOC(=O)n1c(C([NH-])=O)cc2ccc(Cc3ccccc3)cc21

>  <Energy>  (35) 
76.48403911890355

>  <Genealogy>  (35) 
CCOC(=O)n1c(C([NH-])=O)cc2ccc(Cc3ccccc3)cc21 (protonated)
CCOC(=O)n1c(C([NH-])=O)cc2ccc(Cc3ccccc3)cc21 (3D coordinates assigned)
CCOC(=O)n1c(C([NH-])=O)cc2ccc(Cc3ccccc3)cc21 (optimized conformer: 76.48403911890355 kcal/mol)

>  <smiles>  (35) 
CCOC(=O)n1c(C(N)=O)cc2ccc(Cc3ccccc3)cc21

>  <score_type>  (35) 
oracle

>  <origin>  (35) 
adg

>  <m_score__min__energy>  (35) 
-7.9500000000000002

>  <m_primary>  (35) 
energy

$$$$
35:0
     RDKit          3D

 26 27  0  0  0  0  0  0  0  0999 V2000
  145.0780  160.5210  133.5030 N   0  0  0  0  0  0  0  0  0  0  0  0
  145.2210  159.1800  133.0430 C   0  0  0  0  0  0  0  0  0  0  0  0
  144.2040  158.5460  132.6560 O   0  0  0  0  0  0  0  0  0  0  0  0
  146.5140  158.5500  133.0350 N   0  0  0  0  0  0  0  0  0  0  0  0
  146.8570  157.3530  133.5920 C   0  0  0  0  0  0  0  0  0  0  0  0
  146.0050  156.5360  134.4780 C   0  0  0  0  0  0  0  0  0  0  0  0
  144.5810  156.5650  134.3690 N   0  0  0  0  0  0  0  0  0  0  0  0
  146.5410  155.8430  135.3840 O   0  0  0  0  0  0  0  0  0  0  0  0
  148.1650  157.0130  133.2610 C   0  0  0  0  0  0  0  0  0  0  0  0
  148.6260  158.0530  132.4880 C   0  0  0  0  0  0  0  0  0  0  0  0
  149.8640  158.2310  131.8750 C   0  0  0  0  0  0  0  0  0  0  0  0
  150.0550  159.3880  131.1020 C   0  0  0  0  0  0  0  0  0  0  0  0
  149.0130  160.3350  130.9500 C   0  0  0  0  0  0  0  0  0  0  0  0
  149.2340  161.5560  130.1020 C   0  0  0  0  0  0  0  0  0  0  0  0
  150.1380  162.3980  130.7250 F   0  0  0  0  0  0  0  0  0  0  0  0
  149.7340  161.1820  128.8680 F   0  0  0  0  0  0  0  0  0  0  0  0
  147.7690  160.1190  131.5830 C   0  0  0  0  0  0  0  0  0  0  0  0
  147.6120  158.9680  132.3640 C   0  0  0  0  0  0  0  0  0  0  0  0
  145.4960  161.3170  132.9730 H   0  0  0  0  0  0  0  0  0  0  0  0
  144.1030  157.2480  133.7420 H   0  0  0  0  0  0  0  0  0  0  0  0
  143.9970  155.9520  134.9790 H   0  0  0  0  0  0  0  0  0  0  0  0
  148.7134  156.1059  133.5549 H   0  0  0  0  0  0  0  0  0  0  0  0
  150.6671  157.4886  131.9926 H   0  0  0  0  0  0  0  0  0  0  0  0
  151.0235  159.5603  130.6098 H   0  0  0  0  0  0  0  0  0  0  0  0
  148.2760  162.0795  129.9671 H   0  0  0  0  0  0  0  0  0  0  0  0
  146.9442  160.8372  131.4652 H   0  0  0  0  0  0  0  0  0  0  0  0
  1  2  1  0
  2  3  2  0
  2  4  1  0
  4  5  1  0
  5  6  1  0
  6  7  1  0
  6  8  2  0
  5  9  2  0
  9 10  1  0
 10 11  2  0
 11 12  1  0
 12 13  2  0
 13 14  1  0
 14 15  1  0
 14 16  1  0
 13 17  1  0
 17 18  2  0
 18  4  1  0
 18 10  1  0
  1 19  1  0
  7 20  1  0
  7 21  1  0
  9 22  1  0
 11 23  1  0
 12 24  1  0
 14 25  1  0
 17 26  1  0
M  CHG  1   1  -1
M  END
>  <UniqueID>  (36) 
36

>  <SMILES>  (36) 
[NH-]C(=O)n1c(C(N)=O)cc2ccc(C(F)F)cc21

>  <Energy>  (36) 
65.72165116562721

>  <Genealogy>  (36) 
[NH-]C(=O)n1c(C(N)=O)cc2ccc(C(F)F)cc21 (protonated)
[NH-]C(=O)n1c(C(N)=O)cc2ccc(C(F)F)cc21 (3D coordinates assigned)
[NH-]C(=O)n1c(C(N)=O)cc2ccc(C(F)F)cc21 (optimized conformer: 65.72165116562721 kcal/mol)

>  <smiles>  (36) 
NC(=O)c1cc2ccc(C(F)F)cc2n1C(N)=O

>  <score_type>  (36) 
oracle

>  <origin>  (36) 
adg

>  <m_score__min__energy>  (36) 
-5.7999999999999998

>  <m_primary>  (36) 
energy

$$$$
36:0
     RDKit          3D

 65 69  0  0  0  0  0  0  0  0999 V2000
  148.5230  160.6320  131.1580 C   0  0  0  0  0  0  0  0  0  0  0  0
  148.2490  159.3500  131.8880 C   0  0  0  0  0  0  0  0  0  0  0  0
  149.1750  158.2990  131.8430 C   0  0  0  0  0  0  0  0  0  0  0  0
  148.9410  157.1200  132.5560 C   0  0  0  0  0  0  0  0  0  0  0  0
  147.7820  156.9780  133.3390 C   0  0  0  0  0  0  0  0  0  0  0  0
  147.5340  155.7230  134.0890 C   0  0  0  0  0  0  0  0  0  0  0  0
  148.0420  155.5620  135.2320 O   0  0  0  0  0  0  0  0  0  0  0  0
  146.7490  154.6620  133.5200 N   0  0  0  0  0  0  0  0  0  0  0  0
  147.1770  153.4460  133.0800 C   0  0  0  0  0  0  0  0  0  0  0  0
  148.5920  153.0100  133.0210 C   0  0  0  0  0  0  0  0  0  0  0  0
  149.3970  153.2770  131.8710 N   0  0  0  0  0  0  0  0  0  0  0  0
  149.1060  152.4050  133.9990 O   0  0  0  0  0  0  0  0  0  0  0  0
  146.0940  152.6870  132.6330 C   0  0  0  0  0  0  0  0  0  0  0  0
  144.9870  153.4890  132.8100 C   0  0  0  0  0  0  0  0  0  0  0  0
  143.6440  153.2390  132.5470 C   0  0  0  0  0  0  0  0  0  0  0  0
  142.7160  154.2500  132.8480 C   0  0  0  0  0  0  0  0  0  0  0  0
  143.1410  155.4850  133.3990 C   0  0  0  0  0  0  0  0  0  0  0  0
  142.1790  156.5090  133.7210 N   0  0  0  0  0  0  0  0  0  0  0  0
  142.5500  157.9250  133.7080 C   0  0  0  0  0  0  0  0  0  0  0  0
  142.2460  158.5950  135.0630 C   0  0  0  0  0  0  0  0  0  0  0  0
  141.2650  157.7840  135.9790 C   0  0  0  0  0  0  0  0  0  0  0  0
  140.5410  158.7650  136.9580 C   0  0  0  0  0  0  0  0  0  0  0  0
  141.3470  158.9600  138.2460 C   0  0  0  0  0  0  0  0  0  0  0  0
  141.4350  157.7020  139.0260 N   0  0  0  0  0  0  0  0  0  0  0  0
  142.5860  157.7460  139.9430 C   0  0  0  0  0  0  0  0  0  0  0  0
  141.4520  156.4720  138.1940 C   0  0  0  0  0  0  0  0  0  0  0  0
  142.0620  156.7080  136.8030 C   0  0  0  0  0  0  0  0  0  0  0  0
  140.1890  157.1040  135.0830 C   0  0  0  0  0  0  0  0  0  0  0  0
  140.7860  156.1550  134.0230 C   0  0  0  0  0  0  0  0  0  0  0  0
  144.5140  155.6960  133.6610 C   0  0  0  0  0  0  0  0  0  0  0  0
  145.4140  154.6760  133.3420 C   0  0  0  0  0  0  0  0  0  0  0  0
  146.8610  158.0390  133.3880 C   0  0  0  0  0  0  0  0  0  0  0  0
  147.0970  159.2180  132.6750 C   0  0  0  0  0  0  0  0  0  0  0  0
  148.6954  161.4387  131.8857 H   0  0  0  0  0  0  0  0  0  0  0  0
  149.4155  160.5109  130.5266 H   0  0  0  0  0  0  0  0  0  0  0  0
  147.6589  160.8863  130.5266 H   0  0  0  0  0  0  0  0  0  0  0  0
  150.0912  158.4026  131.2431 H   0  0  0  0  0  0  0  0  0  0  0  0
  149.6690  156.2970  132.5042 H   0  0  0  0  0  0  0  0  0  0  0  0
  148.9930  153.7040  131.0100 H   0  0  0  0  0  0  0  0  0  0  0  0
  150.4000  152.9870  131.8580 H   0  0  0  0  0  0  0  0  0  0  0  0
  146.1188  151.6654  132.2258 H   0  0  0  0  0  0  0  0  0  0  0  0
  143.3189  152.2801  132.1170 H   0  0  0  0  0  0  0  0  0  0  0  0
  141.6465  154.0811  132.6537 H   0  0  0  0  0  0  0  0  0  0  0  0
  143.6264  158.0117  133.4986 H   0  0  0  0  0  0  0  0  0  0  0  0
  141.9607  158.4317  132.9296 H   0  0  0  0  0  0  0  0  0  0  0  0
  143.1950  158.7240  135.6040 H   0  0  0  0  0  0  0  0  0  0  0  0
  141.7489  159.5500  134.8374 H   0  0  0  0  0  0  0  0  0  0  0  0
  140.4162  159.7390  136.4623 H   0  0  0  0  0  0  0  0  0  0  0  0
  139.5635  158.3348  137.2214 H   0  0  0  0  0  0  0  0  0  0  0  0
  142.3631  159.2912  137.9855 H   0  0  0  0  0  0  0  0  0  0  0  0
  140.8362  159.7142  138.8627 H   0  0  0  0  0  0  0  0  0  0  0  0
  142.2272  157.7323  140.9827 H   0  0  0  0  0  0  0  0  0  0  0  0
  143.2297  156.8718  139.7657 H   0  0  0  0  0  0  0  0  0  0  0  0
  143.1611  158.6668  139.7657 H   0  0  0  0  0  0  0  0  0  0  0  0
  142.0443  155.7039  138.7128 H   0  0  0  0  0  0  0  0  0  0  0  0
  140.4093  156.1521  138.0508 H   0  0  0  0  0  0  0  0  0  0  0  0
  143.0995  157.0525  136.9251 H   0  0  0  0  0  0  0  0  0  0  0  0
  142.0177  155.7584  136.2496 H   0  0  0  0  0  0  0  0  0  0  0  0
  139.5129  156.5245  135.7288 H   0  0  0  0  0  0  0  0  0  0  0  0
  139.6626  157.9047  134.5428 H   0  0  0  0  0  0  0  0  0  0  0  0
  140.7519  155.1237  134.4042 H   0  0  0  0  0  0  0  0  0  0  0  0
  140.1945  156.2458  133.1000 H   0  0  0  0  0  0  0  0  0  0  0  0
  144.8650  156.6393  134.1048 H   0  0  0  0  0  0  0  0  0  0  0  0
  145.9472  157.9406  133.9923 H   0  0  0  0  0  0  0  0  0  0  0  0
  146.3751  160.0460  132.7320 H   0  0  0  0  0  0  0  0  0  0  0  0
  1  2  1  0
  2  3  2  0
  3  4  1  0
  4  5  2  0
  5  6  1  0
  6  7  2  0
  6  8  1  0
  8  9  1  0
  9 10  1  0
 10 11  1  0
 10 12  2  0
  9 13  2  0
 13 14  1  0
 14 15  2  0
 15 16  1  0
 16 17  2  0
 17 18  1  0
 18 19  1  0
 19 20  1  0
 20 21  1  0
 21 22  1  0
 22 23  1  0
 23 24  1  0
 24 25  1  0
 24 26  1  0
 26 27  1  0
 21 28  1  0
 28 29  1  0
 17 30  1  0
 30 31  2  0
  5 32  1  0
 32 33  2  0
 33  2  1  0
 31  8  1  0
 31 14  1  0
 29 18  1  0
 27 21  1  0
  1 34  1  0
  1 35  1  0
  1 36  1  0
  3 37  1  0
  4 38  1  0
 11 39  1  0
 11 40  1  0
 13 41  1  0
 15 42  1  0
 16 43  1  0
 19 44  1  0
 19 45  1  0
 20 46  1  0
 20 47  1  0
 22 48  1  0
 22 49  1  0
 23 50  1  0
 23 51  1  0
 25 52  1  0
 25 53  1  0
 25 54  1  0
 26 55  1  0
 26 56  1  0
 27 57  1  0
 27 58  1  0
 28 59  1  0
 28 60  1  0
 29 61  1  0
 29 62  1  0
 30 63  1  0
 32 64  1  0
 33 65  1  0
M  END
>  <UniqueID>  (37) 
37

>  <SMILES>  (37) 
Cc1ccc(C(=O)n2c(C(N)=O)cc3ccc(N4CCC5(CCN(C)CC5)CC4)cc32)cc1

>  <Energy>  (37) 
128.32509748477213

>  <Genealogy>  (37) 
Cc1ccc(C(=O)n2c(C(N)=O)cc3ccc(N4CCC5(CCN(C)CC5)CC4)cc32)cc1 (3D coordinates assigned)
Cc1ccc(C(=O)n2c(C(N)=O)cc3ccc(N4CCC5(CCN(C)CC5)CC4)cc32)cc1 (nonaromatic ring conformer: 128.32509748477213 kcal/mol)

>  <smiles>  (37) 
Cc1ccc(C(=O)n2c(C(N)=O)cc3ccc(N4CCC5(CCN(C)CC5)CC4)cc32)cc1

>  <score_type>  (37) 
oracle

>  <origin>  (37) 
adg

>  <m_score__min__energy>  (37) 
-10.949999999999999

>  <m_primary>  (37) 
energy

$$$$
37:0
     RDKit          3D

 31 33  0  0  0  0  0  0  0  0999 V2000
  143.2390  161.3710  133.7330 N   0  0  0  0  0  0  0  0  0  0  0  0
  144.6570  161.4950  133.8410 C   0  0  0  0  0  0  0  0  0  0  0  0
  145.1540  162.5950  134.2030 O   0  0  0  0  0  0  0  0  0  0  0  0
  145.5460  160.3430  133.5980 C   0  0  0  0  0  0  0  0  0  0  0  0
  146.9120  160.4670  133.3580 C   0  0  0  0  0  0  0  0  0  0  0  0
  147.3790  159.1790  133.2470 C   0  0  0  0  0  0  0  0  0  0  0  0
  148.6650  158.7160  132.9890 C   0  0  0  0  0  0  0  0  0  0  0  0
  148.8580  157.3300  132.8830 C   0  0  0  0  0  0  0  0  0  0  0  0
  147.7700  156.4280  133.0270 C   0  0  0  0  0  0  0  0  0  0  0  0
  147.9940  154.9650  132.8970 C   0  0  0  0  0  0  0  0  0  0  0  0
  147.0280  153.9590  132.9970 C   0  0  0  0  0  0  0  0  0  0  0  0
  147.5420  152.6680  132.8310 C   0  0  0  0  0  0  0  0  0  0  0  0
  148.9090  152.6510  132.6020 C   0  0  0  0  0  0  0  0  0  0  0  0
  149.9060  151.2060  132.3540 S   0  0  0  0  0  0  0  0  0  0  0  0
  148.9050  150.1470  131.9120 O   0  0  0  0  0  0  0  0  0  0  0  0
  150.3360  150.7350  133.9320 O   0  0  0  0  0  0  0  0  0  0  0  0
  149.4850  154.2250  132.6060 S   0  0  0  0  0  0  0  0  0  0  0  0
  146.4760  156.9430  133.2830 C   0  0  0  0  0  0  0  0  0  0  0  0
  146.3150  158.3290  133.4060 C   0  0  0  0  0  0  0  0  0  0  0  0
  145.1790  159.0300  133.6200 N   0  0  0  0  0  0  0  0  0  0  0  0
  143.8480  158.4970  133.7260 C   0  0  0  0  0  0  0  0  0  0  0  0
  143.3530  157.8290  132.7800 O   0  0  0  0  0  0  0  0  0  0  0  0
  143.0920  158.7130  134.8720 O   0  0  0  0  0  0  0  0  0  0  0  0
  142.7870  160.4380  133.6040 H   0  0  0  0  0  0  0  0  0  0  0  0
  142.6270  162.2070  133.8710 H   0  0  0  0  0  0  0  0  0  0  0  0
  147.4933  161.3972  133.2750 H   0  0  0  0  0  0  0  0  0  0  0  0
  149.5058  159.4155  132.8715 H   0  0  0  0  0  0  0  0  0  0  0  0
  149.8661  156.9365  132.6856 H   0  0  0  0  0  0  0  0  0  0  0  0
  145.9641  154.1632  133.1881 H   0  0  0  0  0  0  0  0  0  0  0  0
  146.9241  151.7592  132.8775 H   0  0  0  0  0  0  0  0  0  0  0  0
  145.6137  156.2675  133.3834 H   0  0  0  0  0  0  0  0  0  0  0  0
  1  2  1  0
  2  3  2  0
  2  4  1  0
  4  5  2  0
  5  6  1  0
  6  7  2  0
  7  8  1  0
  8  9  2  0
  9 10  1  0
 10 11  2  0
 11 12  1  0
 12 13  2  0
 13 14  1  0
 14 15  2  0
 14 16  1  1
 13 17  1  0
  9 18  1  0
 18 19  2  0
 19 20  1  0
 20 21  1  0
 21 22  2  0
 21 23  1  0
 20  4  1  0
 19  6  1  0
 17 10  1  0
  1 24  1  0
  1 25  1  0
  5 26  1  0
  7 27  1  0
  8 28  1  0
 11 29  1  0
 12 30  1  0
 18 31  1  0
M  CHG  2  16  -1  23  -1
M  END
>  <UniqueID>  (38) 
38

>  <SMILES>  (38) 
NC(=O)c1cc2ccc(-c3ccc([S@](=O)[O-])s3)cc2n1C(=O)[O-]

>  <Energy>  (38) 
103.19210474521205

>  <Genealogy>  (38) 
NC(=O)c1cc2ccc(-c3ccc(S(=O)[O-])s3)cc2n1C(=O)[O-] (protonated)
NC(=O)c1cc2ccc(-c3ccc([S@](=O)[O-])s3)cc2n1C(=O)[O-] (chirality)
NC(=O)c1cc2ccc(-c3ccc([S@](=O)[O-])s3)cc2n1C(=O)[O-] (3D coordinates assigned)
NC(=O)c1cc2ccc(-c3ccc([S@](=O)[O-])s3)cc2n1C(=O)[O-] (optimized conformer: 103.19210474521205 kcal/mol)

>  <smiles>  (38) 
NC(=O)c1cc2ccc(-c3ccc(S(=O)O)s3)cc2n1C(=O)O

>  <score_type>  (38) 
oracle

>  <origin>  (38) 
adg

>  <m_score__min__energy>  (38) 
-7.5700000000000003

>  <m_primary>  (38) 
energy

$$$$
38:0
     RDKit          3D

 56 58  0  0  0  0  0  0  0  0999 V2000
  141.3980  152.3350  133.6940 C   0  0  0  0  0  0  0  0  0  0  0  0
  141.5460  153.7290  133.0710 C   0  0  0  0  0  0  0  0  0  0  0  0
  140.2870  154.5690  133.3170 C   0  0  0  0  0  0  0  0  0  0  0  0
  142.8010  154.4430  133.5970 C   0  0  0  0  0  0  0  0  0  0  0  0
  143.2410  153.8530  134.8170 O   0  0  0  0  0  0  0  0  0  0  0  0
  143.5120  154.6030  135.9650 C   0  0  0  0  0  0  0  0  0  0  0  0
  144.7030  154.7850  136.3410 O   0  0  0  0  0  0  0  0  0  0  0  0
  142.4310  155.1920  136.7010 N   0  0  0  0  0  0  0  0  0  0  0  0
  141.7970  154.6830  137.7940 C   0  0  0  0  0  0  0  0  0  0  0  0
  142.2170  153.4920  138.5610 C   0  0  0  0  0  0  0  0  0  0  0  0
  143.5960  153.1780  138.7280 N   0  0  0  0  0  0  0  0  0  0  0  0
  141.3470  152.7690  139.1170 O   0  0  0  0  0  0  0  0  0  0  0  0
  140.7230  155.4920  138.1560 C   0  0  0  0  0  0  0  0  0  0  0  0
  140.7220  156.5250  137.2460 C   0  0  0  0  0  0  0  0  0  0  0  0
  139.8560  157.6040  137.1190 C   0  0  0  0  0  0  0  0  0  0  0  0
  140.0660  158.4970  136.0550 C   0  0  0  0  0  0  0  0  0  0  0  0
  141.1320  158.3050  135.1330 C   0  0  0  0  0  0  0  0  0  0  0  0
  141.3850  159.2560  133.9600 C   0  0  1  0  0  0  0  0  0  0  0  0
  142.8540  159.6000  133.7280 C   0  0  0  0  0  0  0  0  0  0  0  0
  143.4110  160.8570  134.0490 C   0  0  0  0  0  0  0  0  0  0  0  0
  144.7710  161.1080  133.8390 C   0  0  0  0  0  0  0  0  0  0  0  0
  145.5960  160.1120  133.3160 C   0  0  0  0  0  0  0  0  0  0  0  0
  145.0650  158.8610  133.0030 C   0  0  0  0  0  0  0  0  0  0  0  0
  143.7070  158.6040  133.2100 C   0  0  0  0  0  0  0  0  0  0  0  0
  140.6300  158.9130  132.6360 C   0  0  0  0  0  0  0  0  0  0  0  0
  139.7340  157.6630  132.6900 C   0  0  0  0  0  0  0  0  0  0  0  0
  139.8390  160.1170  132.1040 C   0  0  0  0  0  0  0  0  0  0  0  0
  141.9820  157.1820  135.2990 C   0  0  0  0  0  0  0  0  0  0  0  0
  141.7590  156.3200  136.3780 C   0  0  0  0  0  0  0  0  0  0  0  0
  141.4071  152.4206  134.7906 H   0  0  0  0  0  0  0  0  0  0  0  0
  140.4473  151.8872  133.3691 H   0  0  0  0  0  0  0  0  0  0  0  0
  142.2335  151.6976  133.3691 H   0  0  0  0  0  0  0  0  0  0  0  0
  141.6666  153.6050  131.9847 H   0  0  0  0  0  0  0  0  0  0  0  0
  140.1244  154.6775  134.3995 H   0  0  0  0  0  0  0  0  0  0  0  0
  140.4152  155.5632  132.8640 H   0  0  0  0  0  0  0  0  0  0  0  0
  139.4183  154.0689  132.8640 H   0  0  0  0  0  0  0  0  0  0  0  0
  143.6024  154.3638  132.8477 H   0  0  0  0  0  0  0  0  0  0  0  0
  142.5558  155.4991  133.7827 H   0  0  0  0  0  0  0  0  0  0  0  0
  144.3380  153.7530  138.2710 H   0  0  0  0  0  0  0  0  0  0  0  0
  140.0241  155.3384  138.9914 H   0  0  0  0  0  0  0  0  0  0  0  0
  139.0306  157.7546  137.8303 H   0  0  0  0  0  0  0  0  0  0  0  0
  139.3944  159.3596  135.9328 H   0  0  0  0  0  0  0  0  0  0  0  0
  140.9115  160.1843  134.3121 H   0  0  0  0  0  0  0  0  0  0  0  0
  142.7696  161.6462  134.4681 H   0  0  0  0  0  0  0  0  0  0  0  0
  145.1913  162.0938  134.0870 H   0  0  0  0  0  0  0  0  0  0  0  0
  146.6647  160.3133  133.1506 H   0  0  0  0  0  0  0  0  0  0  0  0
  145.7162  158.0752  132.5925 H   0  0  0  0  0  0  0  0  0  0  0  0
  143.2985  157.6123  132.9658 H   0  0  0  0  0  0  0  0  0  0  0  0
  141.4367  158.6617  131.9316 H   0  0  0  0  0  0  0  0  0  0  0  0
  139.5417  157.3947  133.7393 H   0  0  0  0  0  0  0  0  0  0  0  0
  138.7799  157.8736  132.1846 H   0  0  0  0  0  0  0  0  0  0  0  0
  140.2399  156.8271  132.1846 H   0  0  0  0  0  0  0  0  0  0  0  0
  139.4529  160.7047  132.9499 H   0  0  0  0  0  0  0  0  0  0  0  0
  140.4994  160.7475  131.4905 H   0  0  0  0  0  0  0  0  0  0  0  0
  138.9981  159.7612  131.4905 H   0  0  0  0  0  0  0  0  0  0  0  0
  142.8025  156.9920  134.5915 H   0  0  0  0  0  0  0  0  0  0  0  0
  1  2  1  0
  2  3  1  0
  2  4  1  0
  4  5  1  0
  5  6  1  0
  6  7  2  0
  6  8  1  0
  8  9  1  0
  9 10  1  0
 10 11  1  0
 10 12  2  0
  9 13  2  0
 13 14  1  0
 14 15  2  0
 15 16  1  0
 16 17  2  0
 17 18  1  0
 18 19  1  0
 19 20  2  0
 20 21  1  0
 21 22  2  0
 22 23  1  0
 23 24  2  0
 18 25  1  0
 25 26  1  0
 25 27  1  0
 17 28  1  0
 28 29  2  0
 29  8  1  0
 29 14  1  0
 24 19  1  0
  1 30  1  0
  1 31  1  0
  1 32  1  0
  2 33  1  0
  3 34  1  0
  3 35  1  0
  3 36  1  0
  4 37  1  0
  4 38  1  0
 11 39  1  0
 13 40  1  0
 15 41  1  0
 16 42  1  0
 18 43  1  1
 20 44  1  0
 21 45  1  0
 22 46  1  0
 23 47  1  0
 24 48  1  0
 25 49  1  0
 26 50  1  0
 26 51  1  0
 26 52  1  0
 27 53  1  0
 27 54  1  0
 27 55  1  0
 28 56  1  0
M  CHG  1  11  -1
M  END
>  <UniqueID>  (39) 
39

>  <SMILES>  (39) 
CC(C)COC(=O)n1c(C([NH-])=O)cc2ccc([C@@H](c3ccccc3)C(C)C)cc21

>  <Energy>  (39) 
93.93385636566437

>  <Genealogy>  (39) 
CC(C)COC(=O)n1c(C([NH-])=O)cc2ccc(C(c3ccccc3)C(C)C)cc21 (protonated)
CC(C)COC(=O)n1c(C([NH-])=O)cc2ccc([C@@H](c3ccccc3)C(C)C)cc21 (chirality)
CC(C)COC(=O)n1c(C([NH-])=O)cc2ccc([C@@H](c3ccccc3)C(C)C)cc21 (3D coordinates assigned)
CC(C)COC(=O)n1c(C([NH-])=O)cc2ccc([C@@H](c3ccccc3)C(C)C)cc21 (optimized conformer: 93.93385636566437 kcal/mol)

>  <smiles>  (39) 
CC(C)COC(=O)n1c(C(N)=O)cc2ccc(C(c3ccccc3)C(C)C)cc21

>  <score_type>  (39) 
oracle

>  <origin>  (39) 
adg

>  <m_score__min__energy>  (39) 
-9.1500000000000004

>  <m_primary>  (39) 
energy

$$$$
39:0
     RDKit          3D

 46 49  0  0  0  0  0  0  0  0999 V2000
  147.7390  156.9820  131.9340 N   0  0  0  0  0  0  0  0  0  0  0  0
  147.4720  157.9230  132.9740 C   0  0  0  0  0  0  0  0  0  0  0  0
  148.4310  158.3930  133.6420 O   0  0  0  0  0  0  0  0  0  0  0  0
  146.1010  158.4050  133.2370 C   0  0  0  0  0  0  0  0  0  0  0  0
  145.7800  159.7480  133.4120 C   0  0  0  0  0  0  0  0  0  0  0  0
  144.4140  159.7780  133.5660 C   0  0  0  0  0  0  0  0  0  0  0  0
  143.5630  160.8590  133.7790 C   0  0  0  0  0  0  0  0  0  0  0  0
  142.1920  160.5960  133.9330 C   0  0  0  0  0  0  0  0  0  0  0  0
  141.7030  159.2670  133.8920 C   0  0  0  0  0  0  0  0  0  0  0  0
  140.2280  159.0010  134.0320 C   0  0  0  0  0  0  0  0  0  0  0  0
  139.5240  159.3010  132.7370 C   0  0  0  0  0  0  0  0  0  0  0  0
  138.9780  158.2590  131.9690 C   0  0  0  0  0  0  0  0  0  0  0  0
  138.3560  158.5340  130.7470 C   0  0  0  0  0  0  0  0  0  0  0  0
  138.2830  159.8490  130.2800 C   0  0  0  0  0  0  0  0  0  0  0  0
  137.6800  160.1140  129.0940 F   0  0  0  0  0  0  0  0  0  0  0  0
  138.8340  160.8900  131.0320 C   0  0  0  0  0  0  0  0  0  0  0  0
  139.4560  160.6190  132.2540 C   0  0  0  0  0  0  0  0  0  0  0  0
  142.5950  158.1960  133.6670 C   0  0  0  0  0  0  0  0  0  0  0  0
  143.9530  158.4870  133.4930 C   0  0  0  0  0  0  0  0  0  0  0  0
  144.9810  157.6300  133.2930 N   0  0  0  0  0  0  0  0  0  0  0  0
  144.9190  156.1940  133.2710 C   0  0  0  0  0  0  0  0  0  0  0  0
  145.5850  155.5470  132.4190 O   0  0  0  0  0  0  0  0  0  0  0  0
  144.0720  155.5280  134.1660 O   0  0  0  0  0  0  0  0  0  0  0  0
  143.0150  154.6810  133.8040 C   0  0  0  0  0  0  0  0  0  0  0  0
  143.3100  153.3570  133.4510 C   0  0  0  0  0  0  0  0  0  0  0  0
  142.2900  152.4810  133.0710 C   0  0  0  0  0  0  0  0  0  0  0  0
  140.9660  152.9240  133.0280 C   0  0  0  0  0  0  0  0  0  0  0  0
  140.6620  154.2470  133.3590 C   0  0  0  0  0  0  0  0  0  0  0  0
  141.6800  155.1260  133.7410 C   0  0  0  0  0  0  0  0  0  0  0  0
  146.9970  156.7030  131.2540 H   0  0  0  0  0  0  0  0  0  0  0  0
  148.7070  156.6170  131.7930 H   0  0  0  0  0  0  0  0  0  0  0  0
  146.4717  160.6032  133.4245 H   0  0  0  0  0  0  0  0  0  0  0  0
  143.9522  161.8868  133.8253 H   0  0  0  0  0  0  0  0  0  0  0  0
  141.4913  161.4298  134.0869 H   0  0  0  0  0  0  0  0  0  0  0  0
  140.0721  157.9443  134.2947 H   0  0  0  0  0  0  0  0  0  0  0  0
  139.8188  159.6472  134.8226 H   0  0  0  0  0  0  0  0  0  0  0  0
  139.0400  157.2220  132.3305 H   0  0  0  0  0  0  0  0  0  0  0  0
  137.9241  157.7149  130.1533 H   0  0  0  0  0  0  0  0  0  0  0  0
  138.7781  161.9243  130.6617 H   0  0  0  0  0  0  0  0  0  0  0  0
  139.8940  161.4405  132.8399 H   0  0  0  0  0  0  0  0  0  0  0  0
  142.2317  157.1584  133.6294 H   0  0  0  0  0  0  0  0  0  0  0  0
  144.3519  153.0051  133.4733 H   0  0  0  0  0  0  0  0  0  0  0  0
  142.5300  151.4409  132.8053 H   0  0  0  0  0  0  0  0  0  0  0  0
  140.1633  152.2318  132.7338 H   0  0  0  0  0  0  0  0  0  0  0  0
  139.6201  154.5975  133.3190 H   0  0  0  0  0  0  0  0  0  0  0  0
  141.4375  156.1689  133.9933 H   0  0  0  0  0  0  0  0  0  0  0  0
  1  2  1  0
  2  3  2  0
  2  4  1  0
  4  5  2  0
  5  6  1  0
  6  7  2  0
  7  8  1  0
  8  9  2  0
  9 10  1  0
 10 11  1  0
 11 12  2  0
 12 13  1  0
 13 14  2  0
 14 15  1  0
 14 16  1  0
 16 17  2  0
  9 18  1  0
 18 19  2  0
 19 20  1  0
 20 21  1  0
 21 22  2  0
 21 23  1  0
 23 24  1  0
 24 25  2  0
 25 26  1  0
 26 27  2  0
 27 28  1  0
 28 29  2  0
 20  4  1  0
 29 24  1  0
 19  6  1  0
 17 11  1  0
  1 30  1  0
  1 31  1  0
  5 32  1  0
  7 33  1  0
  8 34  1  0
 10 35  1  0
 10 36  1  0
 12 37  1  0
 13 38  1  0
 16 39  1  0
 17 40  1  0
 18 41  1  0
 25 42  1  0
 26 43  1  0
 27 44  1  0
 28 45  1  0
 29 46  1  0
M  END
>  <UniqueID>  (40) 
40

>  <SMILES>  (40) 
NC(=O)c1cc2ccc(Cc3ccc(F)cc3)cc2n1C(=O)Oc1ccccc1

>  <Energy>  (40) 
92.82371023980409

>  <Genealogy>  (40) 
NC(=O)c1cc2ccc(Cc3ccc(F)cc3)cc2n1C(=O)Oc1ccccc1 (3D coordinates assigned)
NC(=O)c1cc2ccc(Cc3ccc(F)cc3)cc2n1C(=O)Oc1ccccc1 (optimized conformer: 92.82371023980409 kcal/mol)

>  <smiles>  (40) 
NC(=O)c1cc2ccc(Cc3ccc(F)cc3)cc2n1C(=O)Oc1ccccc1

>  <score_type>  (40) 
oracle

>  <origin>  (40) 
adg

>  <m_score__min__energy>  (40) 
-10.050000000000001

>  <m_primary>  (40) 
energy

$$$$
40:0
     RDKit          3D

 30 31  0  0  0  0  0  0  0  0999 V2000
  145.7970  162.7460  134.7620 C   0  0  0  0  0  0  0  0  0  0  0  0
  144.7390  162.0610  133.9580 C   0  0  0  0  0  0  0  0  0  0  0  0
  143.8630  162.7540  133.3750 O   0  0  0  0  0  0  0  0  0  0  0  0
  144.7500  160.6360  133.7880 N   0  0  0  0  0  0  0  0  0  0  0  0
  143.7490  159.7480  134.0460 C   0  0  0  0  0  0  0  0  0  0  0  0
  142.3670  160.0940  134.4380 C   0  0  0  0  0  0  0  0  0  0  0  0
  141.5780  160.9310  133.5940 N   0  0  0  0  0  0  0  0  0  0  0  0
  141.8840  159.6840  135.5240 O   0  0  0  0  0  0  0  0  0  0  0  0
  144.1790  158.4440  133.8050 C   0  0  0  0  0  0  0  0  0  0  0  0
  145.4830  158.5630  133.3790 C   0  0  0  0  0  0  0  0  0  0  0  0
  146.3950  157.5840  132.9980 C   0  0  0  0  0  0  0  0  0  0  0  0
  147.6820  157.9970  132.6100 C   0  0  0  0  0  0  0  0  0  0  0  0
  148.0330  159.3710  132.6240 C   0  0  0  0  0  0  0  0  0  0  0  0
  149.4040  159.8020  132.1840 C   0  0  0  0  0  0  0  0  0  0  0  0
  149.3640  160.2610  130.7610 C   0  0  0  0  0  0  0  0  0  0  0  0
  149.3150  161.6540  130.4620 N   0  0  0  0  0  0  0  0  0  0  0  0
  149.3330  159.4170  129.8260 O   0  0  0  0  0  0  0  0  0  0  0  0
  147.0770  160.3370  133.0070 C   0  0  0  0  0  0  0  0  0  0  0  0
  145.8010  159.8960  133.3760 C   0  0  0  0  0  0  0  0  0  0  0  0
  145.5883  162.6109  135.8335 H   0  0  0  0  0  0  0  0  0  0  0  0
  146.7787  162.3116  134.5220 H   0  0  0  0  0  0  0  0  0  0  0  0
  145.8025  163.8195  134.5220 H   0  0  0  0  0  0  0  0  0  0  0  0
  142.0220  161.6720  133.0080 H   0  0  0  0  0  0  0  0  0  0  0  0
  143.5998  157.5171  133.9288 H   0  0  0  0  0  0  0  0  0  0  0  0
  146.1179  156.5195  133.0002 H   0  0  0  0  0  0  0  0  0  0  0  0
  148.4227  157.2481  132.2930 H   0  0  0  0  0  0  0  0  0  0  0  0
  149.7490  160.6278  132.8235 H   0  0  0  0  0  0  0  0  0  0  0  0
  150.0949  158.9503  132.2693 H   0  0  0  0  0  0  0  0  0  0  0  0
  148.4860  162.0700  129.9830 H   0  0  0  0  0  0  0  0  0  0  0  0
  147.3285  161.4078  133.0151 H   0  0  0  0  0  0  0  0  0  0  0  0
  1  2  1  0
  2  3  2  0
  2  4  1  0
  4  5  1  0
  5  6  1  0
  6  7  1  0
  6  8  2  0
  5  9  2  0
  9 10  1  0
 10 11  2  0
 11 12  1  0
 12 13  2  0
 13 14  1  0
 14 15  1  0
 15 16  1  0
 15 17  2  0
 13 18  1  0
 18 19  2  0
 19  4  1  0
 19 10  1  0
  1 20  1  0
  1 21  1  0
  1 22  1  0
  7 23  1  0
  9 24  1  0
 11 25  1  0
 12 26  1  0
 14 27  1  0
 14 28  1  0
 16 29  1  0
 18 30  1  0
M  CHG  2   7  -1  16  -1
M  END
>  <UniqueID>  (41) 
41

>  <SMILES>  (41) 
CC(=O)n1c(C([NH-])=O)cc2ccc(CC([NH-])=O)cc21

>  <Energy>  (41) 
66.49096899183303

>  <Genealogy>  (41) 
CC(=O)n1c(C([NH-])=O)cc2ccc(CC([NH-])=O)cc21 (protonated)
CC(=O)n1c(C([NH-])=O)cc2ccc(CC([NH-])=O)cc21 (3D coordinates assigned)
CC(=O)n1c(C([NH-])=O)cc2ccc(CC([NH-])=O)cc21 (optimized conformer: 66.49096899183303 kcal/mol)

>  <smiles>  (41) 
CC(=O)n1c(C(N)=O)cc2ccc(CC(N)=O)cc21

>  <score_type>  (41) 
oracle

>  <origin>  (41) 
adg

>  <m_score__min__energy>  (41) 
-6.8600000000000003

>  <m_primary>  (41) 
energy

$$$$
41:0
     RDKit          3D

 40 42  0  0  0  0  0  0  0  0999 V2000
  139.2510  157.9480  136.0100 N   0  0  0  0  0  0  0  0  0  0  0  0
  139.7290  157.5270  134.7350 C   0  0  0  0  0  0  0  0  0  0  0  0
  138.9420  156.9450  133.9420 O   0  0  0  0  0  0  0  0  0  0  0  0
  141.1460  157.7090  134.3570 C   0  0  0  0  0  0  0  0  0  0  0  0
  141.9650  156.6630  133.9330 C   0  0  0  0  0  0  0  0  0  0  0  0
  143.2120  157.2200  133.7710 C   0  0  0  0  0  0  0  0  0  0  0  0
  144.4040  156.6380  133.3450 C   0  0  0  0  0  0  0  0  0  0  0  0
  145.5360  157.4610  133.2350 C   0  0  0  0  0  0  0  0  0  0  0  0
  145.4590  158.8400  133.5510 C   0  0  0  0  0  0  0  0  0  0  0  0
  146.6680  159.7210  133.3800 C   0  0  0  0  0  0  0  0  0  0  0  0
  147.9270  158.8720  133.1470 C   0  0  0  0  0  0  0  0  0  0  0  0
  148.9900  159.6550  132.4770 N   0  0  0  0  0  0  0  0  0  0  0  0
  149.7400  158.8330  131.4960 C   0  0  0  0  0  0  0  0  0  0  0  0
  150.3560  159.7060  130.3900 C   0  0  0  0  0  0  0  0  0  0  0  0
  149.3930  160.4240  129.6310 O   0  0  0  0  0  0  0  0  0  0  0  0
  148.2170  160.7470  130.3610 C   0  0  0  0  0  0  0  0  0  0  0  0
  148.4500  160.8980  131.8750 C   0  0  0  0  0  0  0  0  0  0  0  0
  144.2300  159.3990  133.9670 C   0  0  0  0  0  0  0  0  0  0  0  0
  143.1220  158.5520  134.0850 C   0  0  0  0  0  0  0  0  0  0  0  0
  141.8570  158.8680  134.4440 N   0  0  0  0  0  0  0  0  0  0  0  0
  141.3610  160.1820  134.7490 C   0  0  0  0  0  0  0  0  0  0  0  0
  141.4190  161.1000  133.8890 O   0  0  0  0  0  0  0  0  0  0  0  0
  140.7870  160.4440  135.9870 O   0  0  0  0  0  0  0  0  0  0  0  0
  139.2170  158.9600  136.2630 H   0  0  0  0  0  0  0  0  0  0  0  0
  141.6753  155.6154  133.7641 H   0  0  0  0  0  0  0  0  0  0  0  0
  144.4566  155.5664  133.1023 H   0  0  0  0  0  0  0  0  0  0  0  0
  146.4917  157.0312  132.9004 H   0  0  0  0  0  0  0  0  0  0  0  0
  146.5134  160.3832  132.5154 H   0  0  0  0  0  0  0  0  0  0  0  0
  146.8057  160.3158  134.2950 H   0  0  0  0  0  0  0  0  0  0  0  0
  148.3028  158.5153  134.1173 H   0  0  0  0  0  0  0  0  0  0  0  0
  147.6587  158.0258  132.4975 H   0  0  0  0  0  0  0  0  0  0  0  0
  150.5453  158.2967  132.0193 H   0  0  0  0  0  0  0  0  0  0  0  0
  149.0397  158.1246  131.0294 H   0  0  0  0  0  0  0  0  0  0  0  0
  151.0399  160.4294  130.8580 H   0  0  0  0  0  0  0  0  0  0  0  0
  150.8753  159.0291  129.6957 H   0  0  0  0  0  0  0  0  0  0  0  0
  147.8183  161.6966  129.9746 H   0  0  0  0  0  0  0  0  0  0  0  0
  147.5151  159.9109  130.2257 H   0  0  0  0  0  0  0  0  0  0  0  0
  149.1657  161.7158  132.0450 H   0  0  0  0  0  0  0  0  0  0  0  0
  147.4815  161.1143  132.3495 H   0  0  0  0  0  0  0  0  0  0  0  0
  144.1460  160.4724  134.1924 H   0  0  0  0  0  0  0  0  0  0  0  0
  1  2  1  0
  2  3  2  0
  2  4  1  0
  4  5  2  0
  5  6  1  0
  6  7  2  0
  7  8  1  0
  8  9  2  0
  9 10  1  0
 10 11  1  0
 11 12  1  0
 12 13  1  0
 13 14  1  0
 14 15  1  0
 15 16  1  0
 16 17  1  0
  9 18  1  0
 18 19  2  0
 19 20  1  0
 20 21  1  0
 21 22  2  0
 21 23  1  0
 20  4  1  0
 19  6  1  0
 17 12  1  0
  1 24  1  0
  5 25  1  0
  7 26  1  0
  8 27  1  0
 10 28  1  0
 10 29  1  0
 11 30  1  0
 11 31  1  0
 13 32  1  0
 13 33  1  0
 14 34  1  0
 14 35  1  0
 16 36  1  0
 16 37  1  0
 17 38  1  0
 17 39  1  0
 18 40  1  0
M  CHG  2   1  -1  23  -1
M  END
>  <UniqueID>  (42) 
42

>  <SMILES>  (42) 
[NH-]C(=O)c1cc2ccc(CCN3CCOCC3)cc2n1C(=O)[O-]

>  <Energy>  (42) 
93.77803292385761

>  <Genealogy>  (42) 
[NH-]C(=O)c1cc2ccc(CCN3CCOCC3)cc2n1C(=O)[O-] (protonated)
[NH-]C(=O)c1cc2ccc(CCN3CCOCC3)cc2n1C(=O)[O-] (3D coordinates assigned)
[NH-]C(=O)c1cc2ccc(CCN3CCOCC3)cc2n1C(=O)[O-] (nonaromatic ring conformer: 93.77803292385761 kcal/mol)

>  <smiles>  (42) 
NC(=O)c1cc2ccc(CCN3CCOCC3)cc2n1C(=O)O

>  <score_type>  (42) 
oracle

>  <origin>  (42) 
adg

>  <m_score__min__energy>  (42) 
-7.0899999999999999

>  <m_primary>  (42) 
energy

$$$$
42:0
     RDKit          3D

 41 42  0  0  0  0  0  0  0  0999 V2000
  142.9900  157.4480  132.6990 C   0  0  0  0  0  0  0  0  0  0  0  0
  143.7200  158.1810  133.7790 C   0  0  0  0  0  0  0  0  0  0  0  0
  143.1190  158.4540  134.8520 O   0  0  0  0  0  0  0  0  0  0  0  0
  145.0870  158.5850  133.6020 N   0  0  0  0  0  0  0  0  0  0  0  0
  145.5910  159.8510  133.6430 C   0  0  0  0  0  0  0  0  0  0  0  0
  144.8400  161.0730  134.0010 C   0  0  0  0  0  0  0  0  0  0  0  0
  143.4440  161.1830  133.7420 N   0  0  0  0  0  0  0  0  0  0  0  0
  145.4360  162.0250  134.5760 O   0  0  0  0  0  0  0  0  0  0  0  0
  146.9560  159.8400  133.3590 C   0  0  0  0  0  0  0  0  0  0  0  0
  147.2740  158.5190  133.1430 C   0  0  0  0  0  0  0  0  0  0  0  0
  148.4930  157.9330  132.8140 C   0  0  0  0  0  0  0  0  0  0  0  0
  148.5250  156.5420  132.6260 C   0  0  0  0  0  0  0  0  0  0  0  0
  147.3450  155.7630  132.7600 C   0  0  0  0  0  0  0  0  0  0  0  0
  147.3940  154.3330  132.5660 N   0  0  0  0  0  0  0  0  0  0  0  0
  147.7430  153.6280  133.8150 C   0  0  0  0  0  0  0  0  0  0  0  0
  148.7600  152.4840  133.5950 C   0  0  0  0  0  0  0  0  0  0  0  0
  148.7630  152.0160  132.1920 N   0  0  0  0  0  0  0  0  0  0  0  0
  147.6220  151.1210  131.9300 C   0  0  0  0  0  0  0  0  0  0  0  0
  150.0180  151.3020  131.9060 C   0  0  0  0  0  0  0  0  0  0  0  0
  146.1260  156.4000  133.0850 C   0  0  0  0  0  0  0  0  0  0  0  0
  146.1280  157.7830  133.2920 C   0  0  0  0  0  0  0  0  0  0  0  0
  142.2825  156.7376  133.1516 H   0  0  0  0  0  0  0  0  0  0  0  0
  142.4389  158.1674  132.0755 H   0  0  0  0  0  0  0  0  0  0  0  0
  143.7117  156.8998  132.0755 H   0  0  0  0  0  0  0  0  0  0  0  0
  142.7840  160.4230  134.0190 H   0  0  0  0  0  0  0  0  0  0  0  0
  147.6349  160.7045  133.3166 H   0  0  0  0  0  0  0  0  0  0  0  0
  149.4032  158.5410  132.7047 H   0  0  0  0  0  0  0  0  0  0  0  0
  149.4753  156.0497  132.3719 H   0  0  0  0  0  0  0  0  0  0  0  0
  148.1240  154.1180  131.8470 H   0  0  0  0  0  0  0  0  0  0  0  0
  146.4840  153.9810  132.1910 H   0  0  0  0  0  0  0  0  0  0  0  0
  148.1775  154.3537  134.5183 H   0  0  0  0  0  0  0  0  0  0  0  0
  146.8200  153.1784  134.2098 H   0  0  0  0  0  0  0  0  0  0  0  0
  149.7660  152.8473  133.8516 H   0  0  0  0  0  0  0  0  0  0  0  0
  148.4698  151.6394  134.2372 H   0  0  0  0  0  0  0  0  0  0  0  0
  147.1930  150.7845  132.8854 H   0  0  0  0  0  0  0  0  0  0  0  0
  146.8563  151.6619  131.3545 H   0  0  0  0  0  0  0  0  0  0  0  0
  147.9649  150.2485  131.3545 H   0  0  0  0  0  0  0  0  0  0  0  0
  150.5058  151.0245  132.8521 H   0  0  0  0  0  0  0  0  0  0  0  0
  149.7989  150.3933  131.3261 H   0  0  0  0  0  0  0  0  0  0  0  0
  150.6872  151.9546  131.3261 H   0  0  0  0  0  0  0  0  0  0  0  0
  145.1954  155.8202  133.1733 H   0  0  0  0  0  0  0  0  0  0  0  0
  1  2  1  0
  2  3  2  0
  2  4  1  0
  4  5  1  0
  5  6  1  0
  6  7  1  0
  6  8  2  0
  5  9  2  0
  9 10  1  0
 10 11  2  0
 11 12  1  0
 12 13  2  0
 13 14  1  0
 14 15  1  0
 15 16  1  0
 16 17  1  0
 17 18  1  0
 17 19  1  0
 13 20  1  0
 20 21  2  0
 21  4  1  0
 21 10  1  0
  1 22  1  0
  1 23  1  0
  1 24  1  0
  7 25  1  0
  9 26  1  0
 11 27  1  0
 12 28  1  0
 14 29  1  0
 14 30  1  0
 15 31  1  0
 15 32  1  0
 16 33  1  0
 16 34  1  0
 18 35  1  0
 18 36  1  0
 18 37  1  0
 19 38  1  0
 19 39  1  0
 19 40  1  0
 20 41  1  0
M  CHG  2   7  -1  14   1
M  END
>  <UniqueID>  (43) 
43

>  <SMILES>  (43) 
CC(=O)n1c(C([NH-])=O)cc2ccc([NH2+]CCN(C)C)cc21

>  <Energy>  (43) 
82.41205672073283

>  <Genealogy>  (43) 
CC(=O)n1c(C([NH-])=O)cc2ccc([NH2+]CCN(C)C)cc21 (protonated)
CC(=O)n1c(C([NH-])=O)cc2ccc([NH2+]CCN(C)C)cc21 (3D coordinates assigned)
CC(=O)n1c(C([NH-])=O)cc2ccc([NH2+]CCN(C)C)cc21 (optimized conformer: 82.41205672073283 kcal/mol)

>  <smiles>  (43) 
CC(=O)n1c(C(N)=O)cc2ccc(NCCN(C)C)cc21

>  <score_type>  (43) 
oracle

>  <origin>  (43) 
adg

>  <m_score__min__energy>  (43) 
-6.3499999999999996

>  <m_primary>  (43) 
energy

$$$$
43:0
     RDKit          3D

 46 48  0  0  0  0  0  0  0  0999 V2000
  139.1070  155.2640  132.9710 C   0  0  0  0  0  0  0  0  0  0  0  0
  140.4900  154.9370  132.8880 O   0  0  0  0  0  0  0  0  0  0  0  0
  141.0270  153.6610  133.1320 C   0  0  0  0  0  0  0  0  0  0  0  0
  140.3680  152.4920  132.6990 C   0  0  0  0  0  0  0  0  0  0  0  0
  140.9080  151.2330  132.9680 C   0  0  0  0  0  0  0  0  0  0  0  0
  142.1080  151.1220  133.6670 C   0  0  0  0  0  0  0  0  0  0  0  0
  142.7750  152.2690  134.0980 C   0  0  0  0  0  0  0  0  0  0  0  0
  142.2460  153.5470  133.8380 C   0  0  0  0  0  0  0  0  0  0  0  0
  142.9840  154.7470  134.3080 C   0  0  0  0  0  0  0  0  0  0  0  0
  144.1630  154.9570  133.9160 O   0  0  0  0  0  0  0  0  0  0  0  0
  142.3820  155.6670  135.2340 N   0  0  0  0  0  0  0  0  0  0  0  0
  142.1010  156.9830  135.0270 C   0  0  0  0  0  0  0  0  0  0  0  0
  142.5060  157.7760  133.8490 C   0  0  0  0  0  0  0  0  0  0  0  0
  142.3380  157.2760  132.5220 N   0  0  0  0  0  0  0  0  0  0  0  0
  143.0500  158.9010  134.0190 O   0  0  0  0  0  0  0  0  0  0  0  0
  141.3800  157.5060  136.0980 C   0  0  0  0  0  0  0  0  0  0  0  0
  141.2290  156.4590  136.9810 C   0  0  0  0  0  0  0  0  0  0  0  0
  140.5630  156.4060  138.2010 C   0  0  0  0  0  0  0  0  0  0  0  0
  140.5220  155.1730  138.8760 C   0  0  0  0  0  0  0  0  0  0  0  0
  141.1400  154.0260  138.3200 C   0  0  0  0  0  0  0  0  0  0  0  0
  141.0500  152.7010  139.0280 C   0  0  0  0  0  0  0  0  0  0  0  0
  141.3580  151.5530  138.0600 C   0  0  0  0  0  0  0  0  0  0  0  0
  140.1230  150.6750  137.8370 C   0  0  0  0  0  0  0  0  0  0  0  0
  140.2370  149.9760  136.6270 O   0  0  0  0  0  0  0  0  0  0  0  0
  141.7910  154.1150  137.0700 C   0  0  0  0  0  0  0  0  0  0  0  0
  141.8380  155.3590  136.4330 C   0  0  0  0  0  0  0  0  0  0  0  0
  138.8096  155.3343  134.0277 H   0  0  0  0  0  0  0  0  0  0  0  0
  138.9280  156.2292  132.4747 H   0  0  0  0  0  0  0  0  0  0  0  0
  138.5147  154.4811  132.4747 H   0  0  0  0  0  0  0  0  0  0  0  0
  139.4211  152.5727  132.1450 H   0  0  0  0  0  0  0  0  0  0  0  0
  140.3851  150.3271  132.6275 H   0  0  0  0  0  0  0  0  0  0  0  0
  142.5301  150.1287  133.8794 H   0  0  0  0  0  0  0  0  0  0  0  0
  143.7237  152.1736  134.6465 H   0  0  0  0  0  0  0  0  0  0  0  0
  142.0710  156.2830  132.3480 H   0  0  0  0  0  0  0  0  0  0  0  0
  142.5790  157.8770  131.7020 H   0  0  0  0  0  0  0  0  0  0  0  0
  141.0101  158.5354  136.2141 H   0  0  0  0  0  0  0  0  0  0  0  0
  140.0833  157.3007  138.6246 H   0  0  0  0  0  0  0  0  0  0  0  0
  140.0055  155.0986  139.8443 H   0  0  0  0  0  0  0  0  0  0  0  0
  141.7757  152.6822  139.8545 H   0  0  0  0  0  0  0  0  0  0  0  0
  140.0289  152.5741  139.4169 H   0  0  0  0  0  0  0  0  0  0  0  0
  141.6796  151.9726  137.0954 H   0  0  0  0  0  0  0  0  0  0  0  0
  142.1546  150.9321  138.4957 H   0  0  0  0  0  0  0  0  0  0  0  0
  140.0342  149.9561  138.6648 H   0  0  0  0  0  0  0  0  0  0  0  0
  139.2298  151.3158  137.7981 H   0  0  0  0  0  0  0  0  0  0  0  0
  139.6600  149.1710  136.7070 H   0  0  0  0  0  0  0  0  0  0  0  0
  142.2497  153.2279  136.6089 H   0  0  0  0  0  0  0  0  0  0  0  0
  1  2  1  0
  2  3  1  0
  3  4  2  0
  4  5  1  0
  5  6  2  0
  6  7  1  0
  7  8  2  0
  8  9  1  0
  9 10  2  0
  9 11  1  0
 11 12  1  0
 12 13  1  0
 13 14  1  0
 13 15  2  0
 12 16  2  0
 16 17  1  0
 17 18  2  0
 18 19  1  0
 19 20  2  0
 20 21  1  0
 21 22  1  0
 22 23  1  0
 23 24  1  0
 20 25  1  0
 25 26  2  0
  8  3  1  0
 26 11  1  0
 26 17  1  0
  1 27  1  0
  1 28  1  0
  1 29  1  0
  4 30  1  0
  5 31  1  0
  6 32  1  0
  7 33  1  0
 14 34  1  0
 14 35  1  0
 16 36  1  0
 18 37  1  0
 19 38  1  0
 21 39  1  0
 21 40  1  0
 22 41  1  0
 22 42  1  0
 23 43  1  0
 23 44  1  0
 24 45  1  0
 25 46  1  0
M  END
>  <UniqueID>  (44) 
44

>  <SMILES>  (44) 
COc1ccccc1C(=O)n1c(C(N)=O)cc2ccc(CCCO)cc21

>  <Energy>  (44) 
85.02404650728793

>  <Genealogy>  (44) 
COc1ccccc1C(=O)n1c(C(N)=O)cc2ccc(CCCO)cc21 (3D coordinates assigned)
COc1ccccc1C(=O)n1c(C(N)=O)cc2ccc(CCCO)cc21 (optimized conformer: 85.02404650728793 kcal/mol)

>  <smiles>  (44) 
COc1ccccc1C(=O)n1c(C(N)=O)cc2ccc(CCCO)cc21

>  <score_type>  (44) 
oracle

>  <origin>  (44) 
adg

>  <m_score__min__energy>  (44) 
-7.8799999999999999

>  <m_primary>  (44) 
energy

$$$$
44:0
     RDKit          3D

 44 46  0  0  0  0  0  0  0  0999 V2000
  139.0970  160.0620  131.3500 C   0  0  0  0  0  0  0  0  0  0  0  0
  138.3890  158.7140  131.3460 C   0  0  0  0  0  0  0  0  0  0  0  0
  138.8990  157.8720  132.4230 N   0  0  0  0  0  0  0  0  0  0  0  0
  138.9220  158.1890  133.7320 C   0  0  0  0  0  0  0  0  0  0  0  0
  139.5380  157.1650  134.4170 C   0  0  0  0  0  0  0  0  0  0  0  0
  139.8700  156.2450  133.4370 C   0  0  0  0  0  0  0  0  0  0  0  0
  140.6080  154.9590  133.6550 C   0  0  0  0  0  0  0  0  0  0  0  0
  142.1050  155.1040  133.3570 C   0  0  0  0  0  0  0  0  0  0  0  0
  142.4750  156.4690  133.1570 O   0  0  0  0  0  0  0  0  0  0  0  0
  142.8690  157.3240  134.1940 C   0  0  0  0  0  0  0  0  0  0  0  0
  142.5120  157.0890  135.3800 O   0  0  0  0  0  0  0  0  0  0  0  0
  143.6460  158.4980  133.8990 N   0  0  0  0  0  0  0  0  0  0  0  0
  143.2520  159.8010  133.9670 C   0  0  0  0  0  0  0  0  0  0  0  0
  141.8790  160.2820  134.2160 C   0  0  0  0  0  0  0  0  0  0  0  0
  141.1540  159.8090  135.3490 N   0  0  0  0  0  0  0  0  0  0  0  0
  141.3510  161.1410  133.4620 O   0  0  0  0  0  0  0  0  0  0  0  0
  144.3190  160.6520  133.6910 C   0  0  0  0  0  0  0  0  0  0  0  0
  145.3900  159.8250  133.4470 C   0  0  0  0  0  0  0  0  0  0  0  0
  146.7120  160.1410  133.1490 C   0  0  0  0  0  0  0  0  0  0  0  0
  147.6230  159.0840  132.9890 C   0  0  0  0  0  0  0  0  0  0  0  0
  147.2000  157.7360  133.1200 C   0  0  0  0  0  0  0  0  0  0  0  0
  148.2010  156.6150  133.0110 C   0  0  0  0  0  0  0  0  0  0  0  0
  147.7060  155.5910  132.2210 F   0  0  0  0  0  0  0  0  0  0  0  0
  149.3800  157.0650  132.4450 F   0  0  0  0  0  0  0  0  0  0  0  0
  148.4680  156.1200  134.2750 F   0  0  0  0  0  0  0  0  0  0  0  0
  145.8520  157.4580  133.4460 C   0  0  0  0  0  0  0  0  0  0  0  0
  144.9610  158.5300  133.5800 C   0  0  0  0  0  0  0  0  0  0  0  0
  139.4880  156.7030  132.2280 N   0  0  0  0  0  0  0  0  0  0  0  0
  139.2662  160.3842  132.3881 H   0  0  0  0  0  0  0  0  0  0  0  0
  140.0633  159.9702  130.8324 H   0  0  0  0  0  0  0  0  0  0  0  0
  138.4730  160.8054  130.8324 H   0  0  0  0  0  0  0  0  0  0  0  0
  137.3095  158.8705  131.4877 H   0  0  0  0  0  0  0  0  0  0  0  0
  138.5738  158.2152  130.3832 H   0  0  0  0  0  0  0  0  0  0  0  0
  138.5175  159.1095  134.1782 H   0  0  0  0  0  0  0  0  0  0  0  0
  139.7242  157.0941  135.4988 H   0  0  0  0  0  0  0  0  0  0  0  0
  140.4819  154.6494  134.7030 H   0  0  0  0  0  0  0  0  0  0  0  0
  140.1939  154.2064  132.9678 H   0  0  0  0  0  0  0  0  0  0  0  0
  142.6778  154.7001  134.2048 H   0  0  0  0  0  0  0  0  0  0  0  0
  142.3253  154.5504  132.4323 H   0  0  0  0  0  0  0  0  0  0  0  0
  141.3160  158.8490  135.7280 H   0  0  0  0  0  0  0  0  0  0  0  0
  144.3075  161.7518  133.6722 H   0  0  0  0  0  0  0  0  0  0  0  0
  147.0340  161.1874  133.0419 H   0  0  0  0  0  0  0  0  0  0  0  0
  148.6761  159.3037  132.7596 H   0  0  0  0  0  0  0  0  0  0  0  0
  145.5110  156.4223  133.5911 H   0  0  0  0  0  0  0  0  0  0  0  0
  1  2  1  0
  2  3  1  0
  3  4  1  0
  4  5  2  0
  5  6  1  0
  6  7  1  0
  7  8  1  0
  8  9  1  0
  9 10  1  0
 10 11  2  0
 10 12  1  0
 12 13  1  0
 13 14  1  0
 14 15  1  0
 14 16  2  0
 13 17  2  0
 17 18  1  0
 18 19  2  0
 19 20  1  0
 20 21  2  0
 21 22  1  0
 22 23  1  0
 22 24  1  0
 22 25  1  0
 21 26  1  0
 26 27  2  0
  6 28  2  0
 28  3  1  0
 27 12  1  0
 27 18  1  0
  1 29  1  0
  1 30  1  0
  1 31  1  0
  2 32  1  0
  2 33  1  0
  4 34  1  0
  5 35  1  0
  7 36  1  0
  7 37  1  0
  8 38  1  0
  8 39  1  0
 15 40  1  0
 17 41  1  0
 19 42  1  0
 20 43  1  0
 26 44  1  0
M  CHG  1  15  -1
M  END
>  <UniqueID>  (45) 
45

>  <SMILES>  (45) 
CCn1ccc(CCOC(=O)n2c(C([NH-])=O)cc3ccc(C(F)(F)F)cc32)n1

>  <Energy>  (45) 
106.4296348873834

>  <Genealogy>  (45) 
CCn1ccc(CCOC(=O)n2c(C([NH-])=O)cc3ccc(C(F)(F)F)cc32)n1 (protonated)
CCn1ccc(CCOC(=O)n2c(C([NH-])=O)cc3ccc(C(F)(F)F)cc32)n1 (3D coordinates assigned)
CCn1ccc(CCOC(=O)n2c(C([NH-])=O)cc3ccc(C(F)(F)F)cc32)n1 (optimized conformer: 106.4296348873834 kcal/mol)

>  <smiles>  (45) 
CCn1ccc(CCOC(=O)n2c(C(N)=O)cc3ccc(C(F)(F)F)cc32)n1

>  <score_type>  (45) 
oracle

>  <origin>  (45) 
adg

>  <m_score__min__energy>  (45) 
-7.3399999999999999

>  <m_primary>  (45) 
energy

$$$$
45:0
     RDKit          3D

 44 46  0  0  0  0  0  0  0  0999 V2000
  149.2900  162.0400  130.3480 C   0  0  0  0  0  0  0  0  0  0  0  0
  149.9050  160.7700  130.1780 O   0  0  0  0  0  0  0  0  0  0  0  0
  149.3470  159.5880  130.6770 C   0  0  0  0  0  0  0  0  0  0  0  0
  148.8330  158.7450  129.8920 O   0  0  0  0  0  0  0  0  0  0  0  0
  149.3910  159.2960  132.1560 C   0  0  2  0  0  0  0  0  0  0  0  0
  149.2640  157.7740  132.4500 C   0  0  0  0  0  0  0  0  0  0  0  0
  147.9850  157.3950  133.2170 C   0  0  0  0  0  0  0  0  0  0  0  0
  146.7550  158.1100  132.6270 C   0  0  1  0  0  0  0  0  0  0  0  0
  145.4800  157.6510  133.3090 C   0  0  0  0  0  0  0  0  0  0  0  0
  145.4100  156.3570  133.8850 C   0  0  0  0  0  0  0  0  0  0  0  0
  144.2350  155.9090  134.5090 C   0  0  0  0  0  0  0  0  0  0  0  0
  143.1470  156.7760  134.5520 C   0  0  0  0  0  0  0  0  0  0  0  0
  141.8850  156.5870  135.0660 C   0  0  0  0  0  0  0  0  0  0  0  0
  141.2040  157.7770  134.8180 C   0  0  0  0  0  0  0  0  0  0  0  0
  139.8220  158.0350  135.2800 C   0  0  0  0  0  0  0  0  0  0  0  0
  139.5430  158.1060  136.6760 N   0  0  0  0  0  0  0  0  0  0  0  0
  138.8910  158.2250  134.4550 O   0  0  0  0  0  0  0  0  0  0  0  0
  142.0110  158.6650  134.1700 N   0  0  0  0  0  0  0  0  0  0  0  0
  141.6700  159.9740  133.6870 C   0  0  0  0  0  0  0  0  0  0  0  0
  140.4730  160.1730  132.9370 N   0  0  0  0  0  0  0  0  0  0  0  0
  142.4200  160.9560  133.9320 O   0  0  0  0  0  0  0  0  0  0  0  0
  143.1980  158.0360  134.0150 C   0  0  0  0  0  0  0  0  0  0  0  0
  144.3490  158.5020  133.3700 C   0  0  0  0  0  0  0  0  0  0  0  0
  146.8970  159.6570  132.6650 C   0  0  0  0  0  0  0  0  0  0  0  0
  148.3400  160.1390  132.9050 C   0  0  0  0  0  0  0  0  0  0  0  0
  149.1854  162.2560  131.4215 H   0  0  0  0  0  0  0  0  0  0  0  0
  149.9126  162.8149  129.8770 H   0  0  0  0  0  0  0  0  0  0  0  0
  148.2959  162.0320  129.8770 H   0  0  0  0  0  0  0  0  0  0  0  0
  150.3792  159.5929  132.5372 H   0  0  0  0  0  0  0  0  0  0  0  0
  149.2667  157.2341  131.4916 H   0  0  0  0  0  0  0  0  0  0  0  0
  150.1152  157.4989  133.0901 H   0  0  0  0  0  0  0  0  0  0  0  0
  147.8349  156.3073  133.1508 H   0  0  0  0  0  0  0  0  0  0  0  0
  148.1007  157.7050  134.2660 H   0  0  0  0  0  0  0  0  0  0  0  0
  146.6937  157.8268  131.5658 H   0  0  0  0  0  0  0  0  0  0  0  0
  146.2879  155.6956  133.8423 H   0  0  0  0  0  0  0  0  0  0  0  0
  144.1759  154.9033  134.9506 H   0  0  0  0  0  0  0  0  0  0  0  0
  141.4963  155.6878  135.5663 H   0  0  0  0  0  0  0  0  0  0  0  0
  139.4800  159.0260  137.1650 H   0  0  0  0  0  0  0  0  0  0  0  0
  139.5970  159.6590  133.1800 H   0  0  0  0  0  0  0  0  0  0  0  0
  144.3751  159.5057  132.9207 H   0  0  0  0  0  0  0  0  0  0  0  0
  146.5510  160.0615  131.7024 H   0  0  0  0  0  0  0  0  0  0  0  0
  146.2927  160.0153  133.5114 H   0  0  0  0  0  0  0  0  0  0  0  0
  148.4216  161.1823  132.5661 H   0  0  0  0  0  0  0  0  0  0  0  0
  148.5449  160.0386  133.9811 H   0  0  0  0  0  0  0  0  0  0  0  0
  1  2  1  0
  2  3  1  0
  3  4  2  0
  3  5  1  0
  5  6  1  0
  6  7  1  0
  7  8  1  0
  8  9  1  0
  9 10  2  0
 10 11  1  0
 11 12  2  0
 12 13  1  0
 13 14  2  0
 14 15  1  0
 15 16  1  0
 15 17  2  0
 14 18  1  0
 18 19  1  0
 19 20  1  0
 19 21  2  0
 18 22  1  0
 22 23  2  0
  8 24  1  0
 24 25  1  0
 25  5  1  0
 23  9  1  0
 22 12  1  0
  1 26  1  0
  1 27  1  0
  1 28  1  0
  5 29  1  1
  6 30  1  0
  6 31  1  0
  7 32  1  0
  7 33  1  0
  8 34  1  6
 10 35  1  0
 11 36  1  0
 13 37  1  0
 16 38  1  0
 20 39  1  0
 23 40  1  0
 24 41  1  0
 24 42  1  0
 25 43  1  0
 25 44  1  0
M  CHG  2  16  -1  20  -1
M  END
>  <UniqueID>  (46) 
46

>  <SMILES>  (46) 
COC(=O)C1CCC(c2ccc3cc(C([NH-])=O)n(C([NH-])=O)c3c2)CC1

>  <Energy>  (46) 
86.36356265371303

>  <Genealogy>  (46) 
COC(=O)C1CCC(c2ccc3cc(C([NH-])=O)n(C([NH-])=O)c3c2)CC1 (protonated)
COC(=O)C1CCC(c2ccc3cc(C([NH-])=O)n(C([NH-])=O)c3c2)CC1 (3D coordinates assigned)
COC(=O)C1CCC(c2ccc3cc(C([NH-])=O)n(C([NH-])=O)c3c2)CC1 (nonaromatic ring conformer: 86.36356265371303 kcal/mol)

>  <smiles>  (46) 
COC(=O)C1CCC(c2ccc3cc(C(N)=O)n(C(N)=O)c3c2)CC1

>  <score_type>  (46) 
oracle

>  <origin>  (46) 
adg

>  <m_score__min__energy>  (46) 
-7.96

>  <m_primary>  (46) 
energy

$$$$
46:0
     RDKit          3D

 37 38  0  0  0  0  0  0  0  0999 V2000
  141.4070  157.3200  137.1920 C   0  0  0  0  0  0  0  0  0  0  0  0
  140.9140  158.4290  136.4520 O   0  0  0  0  0  0  0  0  0  0  0  0
  139.9770  158.2930  135.4210 C   0  0  0  0  0  0  0  0  0  0  0  0
  138.7460  158.2270  135.6920 O   0  0  0  0  0  0  0  0  0  0  0  0
  140.4270  158.2430  133.9710 C   0  0  0  0  0  0  0  0  0  0  0  0
  139.4240  158.9880  133.0650 C   0  0  0  0  0  0  0  0  0  0  0  0
  140.4440  156.7550  133.5530 C   0  0  0  0  0  0  0  0  0  0  0  0
  141.7970  158.9280  133.8350 C   0  0  0  0  0  0  0  0  0  0  0  0
  141.9440  160.3470  133.8060 C   0  0  0  0  0  0  0  0  0  0  0  0
  143.2130  160.9430  133.7330 C   0  0  0  0  0  0  0  0  0  0  0  0
  144.3260  160.1140  133.6990 C   0  0  0  0  0  0  0  0  0  0  0  0
  145.6640  160.4320  133.6590 C   0  0  0  0  0  0  0  0  0  0  0  0
  146.3350  159.2090  133.6620 C   0  0  0  0  0  0  0  0  0  0  0  0
  147.8030  159.0750  133.5370 C   0  0  0  0  0  0  0  0  0  0  0  0
  148.4960  158.0010  134.1770 N   0  0  0  0  0  0  0  0  0  0  0  0
  148.4640  159.9290  132.8880 O   0  0  0  0  0  0  0  0  0  0  0  0
  145.4440  158.1780  133.7050 N   0  0  0  0  0  0  0  0  0  0  0  0
  145.7330  156.7710  133.7790 C   0  0  0  0  0  0  0  0  0  0  0  0
  145.2760  155.9810  132.9110 O   0  0  0  0  0  0  0  0  0  0  0  0
  146.5290  156.2700  134.8010 O   0  0  0  0  0  0  0  0  0  0  0  0
  144.2190  158.7500  133.7270 C   0  0  0  0  0  0  0  0  0  0  0  0
  142.9700  158.1270  133.8200 C   0  0  0  0  0  0  0  0  0  0  0  0
  141.3148  157.5273  138.2684 H   0  0  0  0  0  0  0  0  0  0  0  0
  140.8231  156.4224  136.9402 H   0  0  0  0  0  0  0  0  0  0  0  0
  142.4645  157.1521  136.9402 H   0  0  0  0  0  0  0  0  0  0  0  0
  138.6970  159.5280  133.6893 H   0  0  0  0  0  0  0  0  0  0  0  0
  139.9656  159.7045  132.4300 H   0  0  0  0  0  0  0  0  0  0  0  0
  138.8945  158.2625  132.4300 H   0  0  0  0  0  0  0  0  0  0  0  0
  140.4512  156.1216  134.4523 H   0  0  0  0  0  0  0  0  0  0  0  0
  139.5483  156.5320  132.9546 H   0  0  0  0  0  0  0  0  0  0  0  0
  141.3445  156.5525  132.9546 H   0  0  0  0  0  0  0  0  0  0  0  0
  141.0482  160.9845  133.8414 H   0  0  0  0  0  0  0  0  0  0  0  0
  143.3224  162.0371  133.7035 H   0  0  0  0  0  0  0  0  0  0  0  0
  146.1099  161.4372  133.6307 H   0  0  0  0  0  0  0  0  0  0  0  0
  149.5350  157.9380  134.1150 H   0  0  0  0  0  0  0  0  0  0  0  0
  147.9790  157.2430  134.6760 H   0  0  0  0  0  0  0  0  0  0  0  0
  142.8971  157.0311  133.8807 H   0  0  0  0  0  0  0  0  0  0  0  0
  1  2  1  0
  2  3  1  0
  3  4  2  0
  3  5  1  0
  5  6  1  0
  5  7  1  0
  5  8  1  0
  8  9  2  0
  9 10  1  0
 10 11  2  0
 11 12  1  0
 12 13  2  0
 13 14  1  0
 14 15  1  0
 14 16  2  0
 13 17  1  0
 17 18  1  0
 18 19  2  0
 18 20  1  0
 17 21  1  0
 21 22  2  0
 22  8  1  0
 21 11  1  0
  1 23  1  0
  1 24  1  0
  1 25  1  0
  6 26  1  0
  6 27  1  0
  6 28  1  0
  7 29  1  0
  7 30  1  0
  7 31  1  0
  9 32  1  0
 10 33  1  0
 12 34  1  0
 15 35  1  0
 15 36  1  0
 22 37  1  0
M  CHG  1  20  -1
M  END
>  <UniqueID>  (47) 
47

>  <SMILES>  (47) 
COC(=O)C(C)(C)c1ccc2cc(C(N)=O)n(C(=O)[O-])c2c1

>  <Energy>  (47) 
76.78188376557749

>  <Genealogy>  (47) 
COC(=O)C(C)(C)c1ccc2cc(C(N)=O)n(C(=O)[O-])c2c1 (protonated)
COC(=O)C(C)(C)c1ccc2cc(C(N)=O)n(C(=O)[O-])c2c1 (3D coordinates assigned)
COC(=O)C(C)(C)c1ccc2cc(C(N)=O)n(C(=O)[O-])c2c1 (optimized conformer: 76.78188376557749 kcal/mol)

>  <smiles>  (47) 
COC(=O)C(C)(C)c1ccc2cc(C(N)=O)n(C(=O)O)c2c1

>  <score_type>  (47) 
oracle

>  <origin>  (47) 
adg

>  <m_score__min__energy>  (47) 
-6.5199999999999996

>  <m_primary>  (47) 
energy

$$$$
47:0
     RDKit          3D

 40 41  0  0  0  0  0  0  0  0999 V2000
  148.2910  149.9040  135.0300 H   0  0  0  0  0  0  0  0  0  0  0  0
  149.2260  149.8330  134.7060 O   0  0  0  0  0  0  0  0  0  0  0  0
  149.2360  150.3370  133.3980 C   0  0  0  0  0  0  0  0  0  0  0  0
  148.2582  150.1496  132.9301 H   0  0  0  0  0  0  0  0  0  0  0  0
  150.0310  149.8336  132.8283 H   0  0  0  0  0  0  0  0  0  0  0  0
  149.5050  151.8150  133.4070 C   0  0  0  0  0  0  0  0  0  0  0  0
  149.8368  152.2979  134.3380 H   0  0  0  0  0  0  0  0  0  0  0  0
  149.3480  152.5560  132.3010 C   0  0  0  0  0  0  0  0  0  0  0  0
  149.0186  152.0700  131.3708 H   0  0  0  0  0  0  0  0  0  0  0  0
  149.6120  154.0370  132.3030 C   0  0  0  0  0  0  0  0  0  0  0  0
  149.9646  154.3426  131.3068 H   0  0  0  0  0  0  0  0  0  0  0  0
  150.3761  154.2597  133.0623 H   0  0  0  0  0  0  0  0  0  0  0  0
  148.3580  154.7990  132.6390 C   0  0  0  0  0  0  0  0  0  0  0  0
  147.1870  154.0990  133.0210 C   0  0  0  0  0  0  0  0  0  0  0  0
  147.1897  152.9991  133.0341 H   0  0  0  0  0  0  0  0  0  0  0  0
  146.0230  154.7960  133.3830 C   0  0  0  0  0  0  0  0  0  0  0  0
  145.1098  154.2595  133.6801 H   0  0  0  0  0  0  0  0  0  0  0  0
  146.0610  156.1880  133.3540 C   0  0  0  0  0  0  0  0  0  0  0  0
  145.0900  157.1050  133.6850 C   0  0  0  0  0  0  0  0  0  0  0  0
  144.0665  156.8971  134.0303 H   0  0  0  0  0  0  0  0  0  0  0  0
  145.6780  158.3520  133.4900 C   0  0  0  0  0  0  0  0  0  0  0  0
  144.9580  159.6370  133.6420 C   0  0  0  0  0  0  0  0  0  0  0  0
  143.8140  159.6620  134.1660 O   0  0  0  0  0  0  0  0  0  0  0  0
  145.5630  160.8650  133.2320 N   0  0  0  0  0  0  0  0  0  0  0  0
  146.4870  160.8780  132.7460 H   0  0  0  0  0  0  0  0  0  0  0  0
  145.0620  161.7690  133.3790 H   0  0  0  0  0  0  0  0  0  0  0  0
  146.9630  158.2130  133.0570 N   0  0  0  0  0  0  0  0  0  0  0  0
  147.9210  159.2570  132.8170 C   0  0  0  0  0  0  0  0  0  0  0  0
  148.6940  159.6310  133.7410 O   0  0  0  0  0  0  0  0  0  0  0  0
  147.9850  159.8650  131.5590 O   0  0  0  0  0  0  0  0  0  0  0  0
  149.1530  159.8350  130.7480 C   0  0  0  0  0  0  0  0  0  0  0  0
  148.9594  159.2313  129.8490 H   0  0  0  0  0  0  0  0  0  0  0  0
  149.9826  159.3906  131.3174 H   0  0  0  0  0  0  0  0  0  0  0  0
  149.5230  161.2510  130.3370 C   0  0  0  0  0  0  0  0  0  0  0  0
  149.6831  161.8638  131.2363 H   0  0  0  0  0  0  0  0  0  0  0  0
  150.4458  161.2299  129.7386 H   0  0  0  0  0  0  0  0  0  0  0  0
  148.7078  161.6840  129.7386 H   0  0  0  0  0  0  0  0  0  0  0  0
  147.1830  156.8810  132.9780 C   0  0  0  0  0  0  0  0  0  0  0  0
  148.3610  156.2110  132.6300 C   0  0  0  0  0  0  0  0  0  0  0  0
  149.2675  156.7707  132.3560 H   0  0  0  0  0  0  0  0  0  0  0  0
  1  2  1  0
  2  3  1  0
  3  4  1  0
  3  5  1  0
  3  6  1  0
  6  7  1  0
  6  8  2  0
  8  9  1  0
  8 10  1  0
 10 11  1  0
 10 12  1  0
 10 13  1  0
 13 14  2  0
 14 15  1  0
 14 16  1  0
 16 17  1  0
 16 18  2  0
 18 19  1  0
 19 20  1  0
 19 21  2  0
 21 22  1  0
 22 23  2  0
 22 24  1  0
 24 25  1  0
 24 26  1  0
 21 27  1  0
 27 28  1  0
 28 29  2  0
 28 30  1  0
 30 31  1  0
 31 32  1  0
 31 33  1  0
 31 34  1  0
 34 35  1  0
 34 36  1  0
 34 37  1  0
 27 38  1  0
 38 39  2  0
 39 40  1  0
 39 13  1  0
 38 18  1  0
M  END
>  <UniqueID>  (48) 
48

>  <SMILES>  (48) 
CCOC(=O)n1c(C(N)=O)cc2ccc(C/C=C/CO)cc21

>  <Energy>  (48) 
67.65268736785286

>  <Genealogy>  (48) 
CCOC(=O)n1c(C(N)=O)cc2ccc(C/C=C/CO)cc21 (cis-trans isomerization)
CCOC(=O)n1c(C(N)=O)cc2ccc(C/C=C/CO)cc21 (3D coordinates assigned)
CCOC(=O)n1c(C(N)=O)cc2ccc(C/C=C/CO)cc21 (optimized conformer: 67.65268736785286 kcal/mol)

>  <smiles>  (48) 
CCOC(=O)n1c(C(N)=O)cc2ccc(C/C=C/CO)cc21

>  <score_type>  (48) 
oracle

>  <origin>  (48) 
adg

>  <m_score__min__energy>  (48) 
-7.4299999999999997

>  <m_primary>  (48) 
energy

$$$$
48:0
     RDKit          3D

 40 42  0  0  0  0  0  0  0  0999 V2000
  149.9470  160.1770  129.6100 C   0  0  0  0  0  0  0  0  0  0  0  0
  149.1120  160.4840  130.8430 C   0  0  0  0  0  0  0  0  0  0  0  0
  148.2900  159.3650  131.1490 O   0  0  0  0  0  0  0  0  0  0  0  0
  148.6900  158.3450  132.0190 C   0  0  0  0  0  0  0  0  0  0  0  0
  149.9150  158.1200  132.2120 O   0  0  0  0  0  0  0  0  0  0  0  0
  147.6970  157.5770  132.7170 N   0  0  0  0  0  0  0  0  0  0  0  0
  146.4940  158.0000  133.2000 C   0  0  0  0  0  0  0  0  0  0  0  0
  146.0190  159.3980  133.2530 C   0  0  0  0  0  0  0  0  0  0  0  0
  146.9400  160.4870  133.2320 N   0  0  0  0  0  0  0  0  0  0  0  0
  144.7870  159.6360  133.3670 O   0  0  0  0  0  0  0  0  0  0  0  0
  145.7770  156.9290  133.7300 C   0  0  0  0  0  0  0  0  0  0  0  0
  146.5890  155.8310  133.5660 C   0  0  0  0  0  0  0  0  0  0  0  0
  146.3730  154.5000  133.9050 C   0  0  0  0  0  0  0  0  0  0  0  0
  147.3780  153.5690  133.5910 C   0  0  0  0  0  0  0  0  0  0  0  0
  148.5740  153.9740  132.9460 C   0  0  0  0  0  0  0  0  0  0  0  0
  149.6080  152.9120  132.6080 C   0  0  0  0  0  0  0  0  0  0  0  0
  149.6180  151.6870  133.5130 C   0  0  0  0  0  0  0  0  0  0  0  0
  149.4110  150.7630  132.3860 N   0  0  0  0  0  0  0  0  0  0  0  0
  148.1700  149.9810  132.5090 C   0  0  0  0  0  0  0  0  0  0  0  0
  149.2700  151.9250  131.4950 C   0  0  0  0  0  0  0  0  0  0  0  0
  148.7470  155.3390  132.6100 C   0  0  0  0  0  0  0  0  0  0  0  0
  147.7400  156.2480  132.9520 C   0  0  0  0  0  0  0  0  0  0  0  0
  150.9377  159.8128  129.9195 H   0  0  0  0  0  0  0  0  0  0  0  0
  149.4438  159.4051  129.0092 H   0  0  0  0  0  0  0  0  0  0  0  0
  150.0636  161.0911  129.0092 H   0  0  0  0  0  0  0  0  0  0  0  0
  149.7773  160.6938  131.6935 H   0  0  0  0  0  0  0  0  0  0  0  0
  148.4786  161.3619  130.6478 H   0  0  0  0  0  0  0  0  0  0  0  0
  147.2670  160.8970  132.3290 H   0  0  0  0  0  0  0  0  0  0  0  0
  144.7750  156.9560  134.1830 H   0  0  0  0  0  0  0  0  0  0  0  0
  145.4443  154.1854  134.4035 H   0  0  0  0  0  0  0  0  0  0  0  0
  147.2345  152.5095  133.8497 H   0  0  0  0  0  0  0  0  0  0  0  0
  150.4476  153.6180  132.5265 H   0  0  0  0  0  0  0  0  0  0  0  0
  150.5749  151.5351  134.0338 H   0  0  0  0  0  0  0  0  0  0  0  0
  148.9233  151.6500  134.3650 H   0  0  0  0  0  0  0  0  0  0  0  0
  147.9342  149.8324  133.5731 H   0  0  0  0  0  0  0  0  0  0  0  0
  147.3454  150.5230  132.0229 H   0  0  0  0  0  0  0  0  0  0  0  0
  148.3030  149.0032  132.0229 H   0  0  0  0  0  0  0  0  0  0  0  0
  149.9945  151.9330  130.6673 H   0  0  0  0  0  0  0  0  0  0  0  0
  148.3322  152.0553  130.9350 H   0  0  0  0  0  0  0  0  0  0  0  0
  149.6554  155.6778  132.0903 H   0  0  0  0  0  0  0  0  0  0  0  0
  1  2  1  0
  2  3  1  0
  3  4  1  0
  4  5  2  0
  4  6  1  0
  6  7  1  0
  7  8  1  0
  8  9  1  0
  8 10  2  0
  7 11  2  0
 11 12  1  0
 12 13  2  0
 13 14  1  0
 14 15  2  0
 15 16  1  0
 16 17  1  0
 17 18  1  0
 18 19  1  0
 18 20  1  0
 15 21  1  0
 21 22  2  0
 22  6  1  0
 22 12  1  0
 20 16  1  0
  1 23  1  0
  1 24  1  0
  1 25  1  0
  2 26  1  0
  2 27  1  0
  9 28  1  0
 11 29  1  0
 13 30  1  0
 14 31  1  0
 16 32  1  0
 17 33  1  0
 17 34  1  0
 19 35  1  0
 19 36  1  0
 19 37  1  0
 20 38  1  0
 20 39  1  0
 21 40  1  0
M  CHG  1   9  -1
M  END
>  <UniqueID>  (49) 
49

>  <SMILES>  (49) 
CCOC(=O)n1c(C([NH-])=O)cc2ccc(C3CN(C)C3)cc21

>  <Energy>  (49) 
147.70359560717435

>  <Genealogy>  (49) 
CCOC(=O)n1c(C([NH-])=O)cc2ccc(C3CN(C)C3)cc21 (protonated)
CCOC(=O)n1c(C([NH-])=O)cc2ccc(C3CN(C)C3)cc21 (3D coordinates assigned)
CCOC(=O)n1c(C([NH-])=O)cc2ccc(C3CN(C)C3)cc21 (nonaromatic ring conformer: 147.70359560717435 kcal/mol)

>  <smiles>  (49) 
CCOC(=O)n1c(C(N)=O)cc2ccc(C3CN(C)C3)cc21

>  <score_type>  (49) 
oracle

>  <origin>  (49) 
adg

>  <m_score__min__energy>  (49) 
-7.0099999999999998

>  <m_primary>  (49) 
energy

$$$$
49:0
     RDKit          3D

 30 31  0  0  0  0  0  0  0  0999 V2000
  145.9680  162.7380  134.8450 N   0  0  0  0  0  0  0  0  0  0  0  0
  144.9780  162.0220  134.1100 C   0  0  0  0  0  0  0  0  0  0  0  0
  143.9840  162.6410  133.6460 O   0  0  0  0  0  0  0  0  0  0  0  0
  145.1050  160.6040  133.9080 N   0  0  0  0  0  0  0  0  0  0  0  0
  144.1460  159.6540  134.0930 C   0  0  0  0  0  0  0  0  0  0  0  0
  142.8150  159.8740  134.6960 C   0  0  0  0  0  0  0  0  0  0  0  0
  141.9010  160.8250  134.1470 N   0  0  0  0  0  0  0  0  0  0  0  0
  142.5020  159.2520  135.7460 O   0  0  0  0  0  0  0  0  0  0  0  0
  144.5980  158.4080  133.6700 C   0  0  0  0  0  0  0  0  0  0  0  0
  145.8810  158.6190  133.2260 C   0  0  0  0  0  0  0  0  0  0  0  0
  146.7940  157.7250  132.6720 C   0  0  0  0  0  0  0  0  0  0  0  0
  148.0360  158.2270  132.2510 C   0  0  0  0  0  0  0  0  0  0  0  0
  148.3410  159.6040  132.3870 C   0  0  0  0  0  0  0  0  0  0  0  0
  149.6580  160.1360  131.8850 C   0  0  0  0  0  0  0  0  0  0  0  0
  149.5780  160.5280  130.4070 C   0  0  0  0  0  0  0  0  0  0  0  0
  148.2460  160.5390  129.9690 O   0  0  0  0  0  0  0  0  0  0  0  0
  147.3870  160.4840  132.9440 C   0  0  0  0  0  0  0  0  0  0  0  0
  146.1650  159.9540  133.3760 C   0  0  0  0  0  0  0  0  0  0  0  0
  146.9760  162.6840  134.5790 H   0  0  0  0  0  0  0  0  0  0  0  0
  142.1940  161.4780  133.3890 H   0  0  0  0  0  0  0  0  0  0  0  0
  140.9490  160.9350  134.5630 H   0  0  0  0  0  0  0  0  0  0  0  0
  144.0459  157.4568  133.6873 H   0  0  0  0  0  0  0  0  0  0  0  0
  146.5495  156.6576  132.5674 H   0  0  0  0  0  0  0  0  0  0  0  0
  148.7789  157.5450  131.8117 H   0  0  0  0  0  0  0  0  0  0  0  0
  149.9340  161.0221  132.4754 H   0  0  0  0  0  0  0  0  0  0  0  0
  150.4136  159.3437  131.9916 H   0  0  0  0  0  0  0  0  0  0  0  0
  150.0097  161.5312  130.2755 H   0  0  0  0  0  0  0  0  0  0  0  0
  150.1393  159.7905  129.8144 H   0  0  0  0  0  0  0  0  0  0  0  0
  148.0320  161.4770  129.7220 H   0  0  0  0  0  0  0  0  0  0  0  0
  147.5988  161.5595  133.0362 H   0  0  0  0  0  0  0  0  0  0  0  0
  1  2  1  0
  2  3  2  0
  2  4  1  0
  4  5  1  0
  5  6  1  0
  6  7  1  0
  6  8  2  0
  5  9  2  0
  9 10  1  0
 10 11  2  0
 11 12  1  0
 12 13  2  0
 13 14  1  0
 14 15  1  0
 15 16  1  0
 13 17  1  0
 17 18  2  0
 18  4  1  0
 18 10  1  0
  1 19  1  0
  7 20  1  0
  7 21  1  0
  9 22  1  0
 11 23  1  0
 12 24  1  0
 14 25  1  0
 14 26  1  0
 15 27  1  0
 15 28  1  0
 16 29  1  0
 17 30  1  0
M  CHG  1   1  -1
M  END
>  <UniqueID>  (50) 
50

>  <SMILES>  (50) 
[NH-]C(=O)n1c(C(N)=O)cc2ccc(CCO)cc21

>  <Energy>  (50) 
67.21737984809806

>  <Genealogy>  (50) 
[NH-]C(=O)n1c(C(N)=O)cc2ccc(CCO)cc21 (protonated)
[NH-]C(=O)n1c(C(N)=O)cc2ccc(CCO)cc21 (3D coordinates assigned)
[NH-]C(=O)n1c(C(N)=O)cc2ccc(CCO)cc21 (optimized conformer: 67.21737984809806 kcal/mol)

>  <smiles>  (50) 
NC(=O)c1cc2ccc(CCO)cc2n1C(N)=O

>  <score_type>  (50) 
oracle

>  <origin>  (50) 
adg

>  <m_score__min__energy>  (50) 
-6.3300000000000001

>  <m_primary>  (50) 
energy

$$$$
50:0
     RDKit          3D

 34 35  0  0  0  0  0  0  0  0999 V2000
  149.5460  160.8800  130.3990 C   0  0  0  0  0  0  0  0  0  0  0  0
  149.4430  159.3990  130.6160 C   0  0  0  0  0  0  0  0  0  0  0  0
  148.9170  158.7060  129.7600 O   0  0  0  0  0  0  0  0  0  0  0  0
  149.9710  158.7550  131.8730 C   0  0  0  0  0  0  0  0  0  0  0  0
  148.8930  157.9140  132.5720 C   0  0  0  0  0  0  0  0  0  0  0  0
  147.7220  158.7620  132.9960 C   0  0  0  0  0  0  0  0  0  0  0  0
  147.9200  160.1220  133.3460 C   0  0  0  0  0  0  0  0  0  0  0  0
  146.8300  160.9390  133.6860 C   0  0  0  0  0  0  0  0  0  0  0  0
  145.5580  160.3740  133.6620 C   0  0  0  0  0  0  0  0  0  0  0  0
  144.3300  160.9420  133.9160 C   0  0  0  0  0  0  0  0  0  0  0  0
  143.4030  159.9190  133.7230 C   0  0  0  0  0  0  0  0  0  0  0  0
  141.9550  160.0690  133.9770 C   0  0  0  0  0  0  0  0  0  0  0  0
  141.0390  160.0680  132.8840 N   0  0  0  0  0  0  0  0  0  0  0  0
  141.5200  160.2300  135.1480 O   0  0  0  0  0  0  0  0  0  0  0  0
  144.0330  158.7670  133.3560 N   0  0  0  0  0  0  0  0  0  0  0  0
  143.4380  157.5100  132.9990 C   0  0  0  0  0  0  0  0  0  0  0  0
  142.2430  157.4700  132.2200 N   0  0  0  0  0  0  0  0  0  0  0  0
  143.9910  156.4320  133.3450 O   0  0  0  0  0  0  0  0  0  0  0  0
  145.3510  159.0610  133.3310 C   0  0  0  0  0  0  0  0  0  0  0  0
  146.4160  158.2250  132.9790 C   0  0  0  0  0  0  0  0  0  0  0  0
  149.5816  161.3916  131.3722 H   0  0  0  0  0  0  0  0  0  0  0  0
  150.4620  161.1048  129.8329 H   0  0  0  0  0  0  0  0  0  0  0  0
  148.6700  161.2294  129.8329 H   0  0  0  0  0  0  0  0  0  0  0  0
  150.8183  158.1040  131.6119 H   0  0  0  0  0  0  0  0  0  0  0  0
  150.2864  159.5523  132.5621 H   0  0  0  0  0  0  0  0  0  0  0  0
  148.5395  157.1372  131.8780 H   0  0  0  0  0  0  0  0  0  0  0  0
  149.3363  157.4620  133.4715 H   0  0  0  0  0  0  0  0  0  0  0  0
  148.9372  160.5407  133.3511 H   0  0  0  0  0  0  0  0  0  0  0  0
  146.9767  161.9934  133.9629 H   0  0  0  0  0  0  0  0  0  0  0  0
  144.1241  161.9821  134.2090 H   0  0  0  0  0  0  0  0  0  0  0  0
  141.3490  159.8030  131.9240 H   0  0  0  0  0  0  0  0  0  0  0  0
  141.8040  156.5550  131.9730 H   0  0  0  0  0  0  0  0  0  0  0  0
  141.8190  158.3500  131.8530 H   0  0  0  0  0  0  0  0  0  0  0  0
  146.2407  157.1765  132.6963 H   0  0  0  0  0  0  0  0  0  0  0  0
  1  2  1  0
  2  3  2  0
  2  4  1  0
  4  5  1  0
  5  6  1  0
  6  7  2  0
  7  8  1  0
  8  9  2  0
  9 10  1  0
 10 11  2  0
 11 12  1  0
 12 13  1  0
 12 14  2  0
 11 15  1  0
 15 16  1  0
 16 17  1  0
 16 18  2  0
 15 19  1  0
 19 20  2  0
 20  6  1  0
 19  9  1  0
  1 21  1  0
  1 22  1  0
  1 23  1  0
  4 24  1  0
  4 25  1  0
  5 26  1  0
  5 27  1  0
  7 28  1  0
  8 29  1  0
 10 30  1  0
 13 31  1  0
 17 32  1  0
 17 33  1  0
 20 34  1  0
M  CHG  1  13  -1
M  END
>  <UniqueID>  (51) 
51

>  <SMILES>  (51) 
CC(=O)CCc1ccc2cc(C([NH-])=O)n(C(N)=O)c2c1

>  <Energy>  (51) 
65.21485968268766

>  <Genealogy>  (51) 
CC(=O)CCc1ccc2cc(C([NH-])=O)n(C(N)=O)c2c1 (protonated)
CC(=O)CCc1ccc2cc(C([NH-])=O)n(C(N)=O)c2c1 (3D coordinates assigned)
CC(=O)CCc1ccc2cc(C([NH-])=O)n(C(N)=O)c2c1 (optimized conformer: 65.21485968268766 kcal/mol)

>  <smiles>  (51) 
CC(=O)CCc1ccc2cc(C(N)=O)n(C(N)=O)c2c1

>  <score_type>  (51) 
oracle

>  <origin>  (51) 
adg

>  <m_score__min__energy>  (51) 
-7.3200000000000003

>  <m_primary>  (51) 
energy

$$$$
51:0
     RDKit          3D

 44 46  0  0  0  0  0  0  0  0999 V2000
  145.7210  163.0510  134.4830 C   0  0  0  0  0  0  0  0  0  0  0  0
  145.8650  161.6870  134.1100 O   0  0  0  0  0  0  0  0  0  0  0  0
  144.7740  160.8730  133.7900 C   0  0  0  0  0  0  0  0  0  0  0  0
  143.6130  161.3630  133.7260 O   0  0  0  0  0  0  0  0  0  0  0  0
  144.9750  159.4720  133.5530 N   0  0  0  0  0  0  0  0  0  0  0  0
  146.1610  158.8120  133.4250 C   0  0  0  0  0  0  0  0  0  0  0  0
  147.4960  159.4380  133.3340 C   0  0  0  0  0  0  0  0  0  0  0  0
  147.7530  160.4880  132.4050 N   0  0  0  0  0  0  0  0  0  0  0  0
  148.4380  159.0070  134.0530 O   0  0  0  0  0  0  0  0  0  0  0  0
  145.9480  157.4420  133.3090 C   0  0  0  0  0  0  0  0  0  0  0  0
  144.5820  157.2810  133.3610 C   0  0  0  0  0  0  0  0  0  0  0  0
  143.8200  156.1220  133.3130 C   0  0  0  0  0  0  0  0  0  0  0  0
  142.4270  156.2440  133.4270 C   0  0  0  0  0  0  0  0  0  0  0  0
  141.7960  157.5180  133.5760 C   0  0  0  0  0  0  0  0  0  0  0  0
  140.3300  157.5850  133.7390 N   0  0  0  0  0  0  0  0  0  0  0  0
  139.8300  156.1880  133.6540 C   0  0  0  0  0  0  0  0  0  0  0  0
  139.9070  158.1340  135.0540 C   0  0  0  0  0  0  0  0  0  0  0  0
  139.7580  158.4730  132.7080 C   0  0  0  0  0  0  0  0  0  0  0  0
  139.9540  159.8750  132.8050 C   0  0  0  0  0  0  0  0  0  0  0  0
  139.3990  160.7510  131.8680 C   0  0  0  0  0  0  0  0  0  0  0  0
  138.6210  160.2570  130.8230 C   0  0  0  0  0  0  0  0  0  0  0  0
  138.3880  158.8870  130.7180 C   0  0  0  0  0  0  0  0  0  0  0  0
  138.9370  158.0020  131.6490 C   0  0  0  0  0  0  0  0  0  0  0  0
  142.6330  158.6730  133.6470 C   0  0  0  0  0  0  0  0  0  0  0  0
  144.0170  158.5170  133.5100 C   0  0  0  0  0  0  0  0  0  0  0  0
  145.7124  163.1322  135.5800 H   0  0  0  0  0  0  0  0  0  0  0  0
  146.5627  163.6325  134.0788 H   0  0  0  0  0  0  0  0  0  0  0  0
  144.7764  163.4439  134.0788 H   0  0  0  0  0  0  0  0  0  0  0  0
  147.3310  161.4340  132.5330 H   0  0  0  0  0  0  0  0  0  0  0  0
  146.7089  156.6553  133.1992 H   0  0  0  0  0  0  0  0  0  0  0  0
  144.2941  155.1371  133.1893 H   0  0  0  0  0  0  0  0  0  0  0  0
  141.8051  155.3370  133.4011 H   0  0  0  0  0  0  0  0  0  0  0  0
  139.6867  155.7875  134.6684 H   0  0  0  0  0  0  0  0  0  0  0  0
  138.8710  156.1739  133.1153 H   0  0  0  0  0  0  0  0  0  0  0  0
  140.5623  155.5686  133.1153 H   0  0  0  0  0  0  0  0  0  0  0  0
  140.3626  157.5427  135.8619 H   0  0  0  0  0  0  0  0  0  0  0  0
  140.2341  159.1810  135.1366 H   0  0  0  0  0  0  0  0  0  0  0  0
  138.8112  158.0846  135.1366 H   0  0  0  0  0  0  0  0  0  0  0  0
  140.5540  160.2800  133.6332 H   0  0  0  0  0  0  0  0  0  0  0  0
  139.5768  161.8330  131.9557 H   0  0  0  0  0  0  0  0  0  0  0  0
  138.1914  160.9472  130.0821 H   0  0  0  0  0  0  0  0  0  0  0  0
  137.7675  158.4999  129.8963 H   0  0  0  0  0  0  0  0  0  0  0  0
  138.7306  156.9252  131.5607 H   0  0  0  0  0  0  0  0  0  0  0  0
  142.1965  159.6700  133.8069 H   0  0  0  0  0  0  0  0  0  0  0  0
  1  2  1  0
  2  3  1  0
  3  4  2  0
  3  5  1  0
  5  6  1  0
  6  7  1  0
  7  8  1  0
  7  9  2  0
  6 10  2  0
 10 11  1  0
 11 12  2  0
 12 13  1  0
 13 14  2  0
 14 15  1  0
 15 16  1  0
 15 17  1  0
 15 18  1  0
 18 19  2  0
 19 20  1  0
 20 21  2  0
 21 22  1  0
 22 23  2  0
 14 24  1  0
 24 25  2  0
 25  5  1  0
 25 11  1  0
 23 18  1  0
  1 26  1  0
  1 27  1  0
  1 28  1  0
  8 29  1  0
 10 30  1  0
 12 31  1  0
 13 32  1  0
 16 33  1  0
 16 34  1  0
 16 35  1  0
 17 36  1  0
 17 37  1  0
 17 38  1  0
 19 39  1  0
 20 40  1  0
 21 41  1  0
 22 42  1  0
 23 43  1  0
 24 44  1  0
M  CHG  2   8  -1  15   1
M  END
>  <UniqueID>  (52) 
52

>  <SMILES>  (52) 
COC(=O)n1c(C([NH-])=O)cc2ccc([N+](C)(C)c3ccccc3)cc21

>  <Energy>  (52) 
103.92511794224897

>  <Genealogy>  (52) 
COC(=O)n1c(C([NH-])=O)cc2ccc([N+](C)(C)c3ccccc3)cc21 (protonated)
COC(=O)n1c(C([NH-])=O)cc2ccc([N+](C)(C)c3ccccc3)cc21 (3D coordinates assigned)
COC(=O)n1c(C([NH-])=O)cc2ccc([N+](C)(C)c3ccccc3)cc21 (optimized conformer: 103.92511794224897 kcal/mol)

>  <smiles>  (52) 
COC(=O)n1c(C(N)=O)cc2ccc([N+](C)(C)c3ccccc3)cc21

>  <score_type>  (52) 
oracle

>  <origin>  (52) 
adg

>  <m_score__min__energy>  (52) 
-6.9800000000000004

>  <m_primary>  (52) 
energy

$$$$
52:0
     RDKit          3D

 36 37  0  0  0  0  0  0  0  0999 V2000
  149.5980  161.2170  130.3900 C   0  0  0  0  0  0  0  0  0  0  0  0
  148.4230  160.4530  130.9990 C   0  0  0  0  0  0  0  0  0  0  0  0
  148.8620  159.3480  131.9840 C   0  0  0  0  0  0  0  0  0  0  0  0
  148.1440  159.4010  133.3480 C   0  0  0  0  0  0  0  0  0  0  0  0
  146.7740  160.0960  133.3190 C   0  0  0  0  0  0  0  0  0  0  0  0
  145.6340  159.1130  133.4190 C   0  0  0  0  0  0  0  0  0  0  0  0
  145.9040  157.7330  133.5940 C   0  0  0  0  0  0  0  0  0  0  0  0
  144.8550  156.8060  133.7040 C   0  0  0  0  0  0  0  0  0  0  0  0
  143.5510  157.2870  133.6470 C   0  0  0  0  0  0  0  0  0  0  0  0
  142.3540  156.6100  133.7100 C   0  0  0  0  0  0  0  0  0  0  0  0
  141.3690  157.5890  133.5970 C   0  0  0  0  0  0  0  0  0  0  0  0
  139.9240  157.3030  133.7060 C   0  0  0  0  0  0  0  0  0  0  0  0
  139.3870  156.1230  133.1110 N   0  0  0  0  0  0  0  0  0  0  0  0
  139.1610  158.0700  134.3520 O   0  0  0  0  0  0  0  0  0  0  0  0
  141.9340  158.8230  133.4610 N   0  0  0  0  0  0  0  0  0  0  0  0
  141.2650  160.0780  133.2530 C   0  0  0  0  0  0  0  0  0  0  0  0
  140.2240  160.1340  132.5480 O   0  0  0  0  0  0  0  0  0  0  0  0
  141.7460  161.2370  133.8500 O   0  0  0  0  0  0  0  0  0  0  0  0
  143.2700  158.6200  133.4970 C   0  0  0  0  0  0  0  0  0  0  0  0
  144.2960  159.5630  133.3610 C   0  0  0  0  0  0  0  0  0  0  0  0
  150.2264  161.6256  131.1951 H   0  0  0  0  0  0  0  0  0  0  0  0
  150.1963  160.5347  129.7683 H   0  0  0  0  0  0  0  0  0  0  0  0
  149.2171  162.0406  129.7683 H   0  0  0  0  0  0  0  0  0  0  0  0
  147.7828  161.1673  131.5374 H   0  0  0  0  0  0  0  0  0  0  0  0
  147.8888  159.9614  130.1726 H   0  0  0  0  0  0  0  0  0  0  0  0
  148.6554  158.3712  131.5222 H   0  0  0  0  0  0  0  0  0  0  0  0
  149.9325  159.5055  132.1819 H   0  0  0  0  0  0  0  0  0  0  0  0
  147.9986  158.3691  133.7003 H   0  0  0  0  0  0  0  0  0  0  0  0
  148.7835  159.9968  134.0158 H   0  0  0  0  0  0  0  0  0  0  0  0
  146.7137  160.7957  134.1657 H   0  0  0  0  0  0  0  0  0  0  0  0
  146.6827  160.6223  132.3574 H   0  0  0  0  0  0  0  0  0  0  0  0
  146.9461  157.3843  133.6442 H   0  0  0  0  0  0  0  0  0  0  0  0
  145.0582  155.7325  133.8313 H   0  0  0  0  0  0  0  0  0  0  0  0
  142.2065  155.5260  133.8251 H   0  0  0  0  0  0  0  0  0  0  0  0
  138.3580  156.0190  132.9600 H   0  0  0  0  0  0  0  0  0  0  0  0
  144.0659  160.6284  133.2126 H   0  0  0  0  0  0  0  0  0  0  0  0
  1  2  1  0
  2  3  1  0
  3  4  1  0
  4  5  1  0
  5  6  1  0
  6  7  2  0
  7  8  1  0
  8  9  2  0
  9 10  1  0
 10 11  2  0
 11 12  1  0
 12 13  1  0
 12 14  2  0
 11 15  1  0
 15 16  1  0
 16 17  2  0
 16 18  1  0
 15 19  1  0
 19 20  2  0
 20  6  1  0
 19  9  1  0
  1 21  1  0
  1 22  1  0
  1 23  1  0
  2 24  1  0
  2 25  1  0
  3 26  1  0
  3 27  1  0
  4 28  1  0
  4 29  1  0
  5 30  1  0
  5 31  1  0
  7 32  1  0
  8 33  1  0
 10 34  1  0
 13 35  1  0
 20 36  1  0
M  CHG  2  13  -1  18  -1
M  END
>  <UniqueID>  (53) 
53

>  <SMILES>  (53) 
CCCCCc1ccc2cc(C([NH-])=O)n(C(=O)[O-])c2c1

>  <Energy>  (53) 
70.28681943194869

>  <Genealogy>  (53) 
CCCCCc1ccc2cc(C([NH-])=O)n(C(=O)[O-])c2c1 (protonated)
CCCCCc1ccc2cc(C([NH-])=O)n(C(=O)[O-])c2c1 (3D coordinates assigned)
CCCCCc1ccc2cc(C([NH-])=O)n(C(=O)[O-])c2c1 (optimized conformer: 70.28681943194869 kcal/mol)

>  <smiles>  (53) 
CCCCCc1ccc2cc(C(N)=O)n(C(=O)O)c2c1

>  <score_type>  (53) 
oracle

>  <origin>  (53) 
adg

>  <m_score__min__energy>  (53) 
-7.1699999999999999

>  <m_primary>  (53) 
energy

$$$$
53:0
     RDKit          3D

 33 35  0  0  0  0  0  0  0  0999 V2000
  146.5750  155.7620  132.3490 N   0  0  0  0  0  0  0  0  0  0  0  0
  146.6210  156.6380  133.4730 C   0  0  0  0  0  0  0  0  0  0  0  0
  146.8460  156.1640  134.6190 O   0  0  0  0  0  0  0  0  0  0  0  0
  146.4230  158.0510  133.3000 N   0  0  0  0  0  0  0  0  0  0  0  0
  147.3530  158.9790  132.9310 C   0  0  0  0  0  0  0  0  0  0  0  0
  148.7210  158.6920  132.4570 C   0  0  0  0  0  0  0  0  0  0  0  0
  149.0490  157.4350  131.8630 N   0  0  0  0  0  0  0  0  0  0  0  0
  149.6000  159.5920  132.5240 O   0  0  0  0  0  0  0  0  0  0  0  0
  146.8220  160.2630  133.0040 C   0  0  0  0  0  0  0  0  0  0  0  0
  145.5210  160.0960  133.4180 C   0  0  0  0  0  0  0  0  0  0  0  0
  144.5350  161.0430  133.6680 C   0  0  0  0  0  0  0  0  0  0  0  0
  143.2850  160.5910  134.1220 C   0  0  0  0  0  0  0  0  0  0  0  0
  143.0440  159.2080  134.3290 C   0  0  0  0  0  0  0  0  0  0  0  0
  141.7230  158.7420  134.8230 C   0  0  0  0  0  0  0  0  0  0  0  0
  141.4430  158.7200  136.2020 C   0  0  0  0  0  0  0  0  0  0  0  0
  140.1980  158.2820  136.6650 C   0  0  0  0  0  0  0  0  0  0  0  0
  139.2220  157.8610  135.7600 C   0  0  0  0  0  0  0  0  0  0  0  0
  139.4880  157.8760  134.3880 C   0  0  0  0  0  0  0  0  0  0  0  0
  138.5410  157.4640  133.5110 F   0  0  0  0  0  0  0  0  0  0  0  0
  140.7310  158.3150  133.9200 C   0  0  0  0  0  0  0  0  0  0  0  0
  144.0760  158.2750  134.0650 C   0  0  0  0  0  0  0  0  0  0  0  0
  145.3050  158.7530  133.5930 C   0  0  0  0  0  0  0  0  0  0  0  0
  146.2090  156.0900  131.4280 H   0  0  0  0  0  0  0  0  0  0  0  0
  150.0310  157.2370  131.5670 H   0  0  0  0  0  0  0  0  0  0  0  0
  148.3100  156.7330  131.6430 H   0  0  0  0  0  0  0  0  0  0  0  0
  147.3338  161.2102  132.7786 H   0  0  0  0  0  0  0  0  0  0  0  0
  144.7279  162.1151  133.5148 H   0  0  0  0  0  0  0  0  0  0  0  0
  142.4833  161.3178  134.3194 H   0  0  0  0  0  0  0  0  0  0  0  0
  142.2082  159.0494  136.9203 H   0  0  0  0  0  0  0  0  0  0  0  0
  139.9874  158.2692  137.7446 H   0  0  0  0  0  0  0  0  0  0  0  0
  138.2435  157.5174  136.1267 H   0  0  0  0  0  0  0  0  0  0  0  0
  140.9347  158.3266  132.8391 H   0  0  0  0  0  0  0  0  0  0  0  0
  143.9160  157.1988  134.2270 H   0  0  0  0  0  0  0  0  0  0  0  0
  1  2  1  0
  2  3  2  0
  2  4  1  0
  4  5  1  0
  5  6  1  0
  6  7  1  0
  6  8  2  0
  5  9  2  0
  9 10  1  0
 10 11  2  0
 11 12  1  0
 12 13  2  0
 13 14  1  0
 14 15  2  0
 15 16  1  0
 16 17  2  0
 17 18  1  0
 18 19  1  0
 18 20  2  0
 13 21  1  0
 21 22  2  0
 22  4  1  0
 22 10  1  0
 20 14  1  0
  1 23  1  0
  7 24  1  0
  7 25  1  0
  9 26  1  0
 11 27  1  0
 12 28  1  0
 15 29  1  0
 16 30  1  0
 17 31  1  0
 20 32  1  0
 21 33  1  0
M  CHG  1   1  -1
M  END
>  <UniqueID>  (54) 
54

>  <SMILES>  (54) 
[NH-]C(=O)n1c(C(N)=O)cc2ccc(-c3cccc(F)c3)cc21

>  <Energy>  (54) 
80.76950895565214

>  <Genealogy>  (54) 
[NH-]C(=O)n1c(C(N)=O)cc2ccc(-c3cccc(F)c3)cc21 (protonated)
[NH-]C(=O)n1c(C(N)=O)cc2ccc(-c3cccc(F)c3)cc21 (3D coordinates assigned)
[NH-]C(=O)n1c(C(N)=O)cc2ccc(-c3cccc(F)c3)cc21 (optimized conformer: 80.76950895565214 kcal/mol)

>  <smiles>  (54) 
NC(=O)c1cc2ccc(-c3cccc(F)c3)cc2n1C(N)=O

>  <score_type>  (54) 
oracle

>  <origin>  (54) 
adg

>  <m_score__min__energy>  (54) 
-7.7699999999999996

>  <m_primary>  (54) 
energy

$$$$
54:0
     RDKit          3D

 44 46  0  0  0  0  0  0  0  0999 V2000
  149.8160  159.1400  131.5000 N   0  0  0  0  0  0  0  0  0  0  0  0
  148.9750  158.2590  132.2410 C   0  0  0  0  0  0  0  0  0  0  0  0
  149.3330  157.0640  132.4130 O   0  0  0  0  0  0  0  0  0  0  0  0
  147.6820  158.7430  132.7660 C   0  0  0  0  0  0  0  0  0  0  0  0
  147.4020  160.0880  133.0050 C   0  0  0  0  0  0  0  0  0  0  0  0
  146.0800  160.1230  133.3860 C   0  0  0  0  0  0  0  0  0  0  0  0
  145.2780  161.2040  133.7390 C   0  0  0  0  0  0  0  0  0  0  0  0
  143.9440  160.9440  134.1020 C   0  0  0  0  0  0  0  0  0  0  0  0
  143.4480  159.6170  134.1180 C   0  0  0  0  0  0  0  0  0  0  0  0
  142.0100  159.3520  134.4790 C   0  0  0  0  0  0  0  0  0  0  0  0
  141.0760  159.8440  133.3700 C   0  0  0  0  0  0  0  0  0  0  0  0
  140.8840  158.7770  132.3590 N   0  0  0  0  0  0  0  0  0  0  0  0
  140.8830  157.3980  132.9180 C   0  0  0  0  0  0  0  0  0  0  0  0
  139.4740  156.7930  133.1010 C   0  0  0  0  0  0  0  0  0  0  0  0
  138.4280  157.8750  133.3470 C   0  0  0  0  0  0  0  0  0  0  0  0
  138.3730  158.8640  132.1740 C   0  0  0  0  0  0  0  0  0  0  0  0
  139.7350  159.0300  131.4640 C   0  0  0  0  0  0  0  0  0  0  0  0
  144.2880  158.5460  133.7420 C   0  0  0  0  0  0  0  0  0  0  0  0
  145.6060  158.8370  133.3720 C   0  0  0  0  0  0  0  0  0  0  0  0
  146.5780  157.9780  132.9990 N   0  0  0  0  0  0  0  0  0  0  0  0
  146.4640  156.5480  132.9250 C   0  0  0  0  0  0  0  0  0  0  0  0
  147.1080  155.8230  131.8790 N   0  0  0  0  0  0  0  0  0  0  0  0
  145.8180  155.9230  133.8090 O   0  0  0  0  0  0  0  0  0  0  0  0
  150.7660  159.3970  131.8500 H   0  0  0  0  0  0  0  0  0  0  0  0
  148.0912  160.9399  132.9093 H   0  0  0  0  0  0  0  0  0  0  0  0
  145.6748  162.2299  133.7343 H   0  0  0  0  0  0  0  0  0  0  0  0
  143.2806  161.7777  134.3756 H   0  0  0  0  0  0  0  0  0  0  0  0
  141.8660  158.2706  134.6195 H   0  0  0  0  0  0  0  0  0  0  0  0
  141.7725  159.8915  135.4077 H   0  0  0  0  0  0  0  0  0  0  0  0
  140.1024  160.1123  133.8060 H   0  0  0  0  0  0  0  0  0  0  0  0
  141.5230  160.7246  132.8855 H   0  0  0  0  0  0  0  0  0  0  0  0
  141.4520  156.7485  132.2365 H   0  0  0  0  0  0  0  0  0  0  0  0
  141.3336  157.4613  133.9195 H   0  0  0  0  0  0  0  0  0  0  0  0
  139.2040  156.2350  132.1923 H   0  0  0  0  0  0  0  0  0  0  0  0
  139.4953  156.1284  133.9773 H   0  0  0  0  0  0  0  0  0  0  0  0
  137.4420  157.4019  133.4651 H   0  0  0  0  0  0  0  0  0  0  0  0
  138.7023  158.4269  134.2581 H   0  0  0  0  0  0  0  0  0  0  0  0
  137.6375  158.4996  131.4417 H   0  0  0  0  0  0  0  0  0  0  0  0
  138.0916  159.8458  132.5826 H   0  0  0  0  0  0  0  0  0  0  0  0
  139.7817  158.3215  130.6238 H   0  0  0  0  0  0  0  0  0  0  0  0
  139.8050  160.0736  131.1233 H   0  0  0  0  0  0  0  0  0  0  0  0
  143.9164  157.5107  133.7400 H   0  0  0  0  0  0  0  0  0  0  0  0
  147.7160  156.3160  131.1880 H   0  0  0  0  0  0  0  0  0  0  0  0
  147.0120  154.7860  131.8190 H   0  0  0  0  0  0  0  0  0  0  0  0
  1  2  1  0
  2  3  2  0
  2  4  1  0
  4  5  2  0
  5  6  1  0
  6  7  2  0
  7  8  1  0
  8  9  2  0
  9 10  1  0
 10 11  1  0
 11 12  1  0
 12 13  1  0
 13 14  1  0
 14 15  1  0
 15 16  1  0
 16 17  1  0
  9 18  1  0
 18 19  2  0
 19 20  1  0
 20 21  1  0
 21 22  1  0
 21 23  2  0
 20  4  1  0
 19  6  1  0
 17 12  1  0
  1 24  1  0
  5 25  1  0
  7 26  1  0
  8 27  1  0
 10 28  1  0
 10 29  1  0
 11 30  1  0
 11 31  1  0
 13 32  1  0
 13 33  1  0
 14 34  1  0
 14 35  1  0
 15 36  1  0
 15 37  1  0
 16 38  1  0
 16 39  1  0
 17 40  1  0
 17 41  1  0
 18 42  1  0
 22 43  1  0
 22 44  1  0
M  CHG  1   1  -1
M  END
>  <UniqueID>  (55) 
55

>  <SMILES>  (55) 
[NH-]C(=O)c1cc2ccc(CCN3CCCCC3)cc2n1C(N)=O

>  <Energy>  (55) 
90.40907320928035

>  <Genealogy>  (55) 
[NH-]C(=O)c1cc2ccc(CCN3CCCCC3)cc2n1C(N)=O (protonated)
[NH-]C(=O)c1cc2ccc(CCN3CCCCC3)cc2n1C(N)=O (3D coordinates assigned)
[NH-]C(=O)c1cc2ccc(CCN3CCCCC3)cc2n1C(N)=O (nonaromatic ring conformer: 90.40907320928035 kcal/mol)

>  <smiles>  (55) 
NC(=O)c1cc2ccc(CCN3CCCCC3)cc2n1C(N)=O

>  <score_type>  (55) 
oracle

>  <origin>  (55) 
adg

>  <m_score__min__energy>  (55) 
-8.4399999999999995

>  <m_primary>  (55) 
energy

$$$$
55:0
     RDKit          3D

 28 29  0  0  0  0  0  0  0  0999 V2000
  145.8720  153.3160  134.1830 N   0  0  0  0  0  0  0  0  0  0  0  0
  146.7270  154.1270  134.9860 C   0  0  0  0  0  0  0  0  0  0  0  0
  147.0250  153.7470  136.1490 O   0  0  0  0  0  0  0  0  0  0  0  0
  147.2860  155.3790  134.4340 C   0  0  0  0  0  0  0  0  0  0  0  0
  146.8990  156.6480  134.8600 C   0  0  0  0  0  0  0  0  0  0  0  0
  147.5690  157.5270  134.0400 C   0  0  0  0  0  0  0  0  0  0  0  0
  147.5550  158.9200  134.0170 C   0  0  0  0  0  0  0  0  0  0  0  0
  148.3590  159.5700  133.0660 C   0  0  0  0  0  0  0  0  0  0  0  0
  149.1670  158.8230  132.1710 C   0  0  0  0  0  0  0  0  0  0  0  0
  150.0040  159.5290  131.1420 C   0  0  0  0  0  0  0  0  0  0  0  0
  149.1650  160.5000  130.3760 C   0  0  0  0  0  0  0  0  0  0  0  0
  148.1300  160.1080  129.7750 O   0  0  0  0  0  0  0  0  0  0  0  0
  149.4950  161.8500  130.3660 O   0  0  0  0  0  0  0  0  0  0  0  0
  149.1460  157.4120  132.2170 C   0  0  0  0  0  0  0  0  0  0  0  0
  148.3250  156.7920  133.1660 C   0  0  0  0  0  0  0  0  0  0  0  0
  148.1670  155.4710  133.3980 N   0  0  0  0  0  0  0  0  0  0  0  0
  148.8430  154.4030  132.7170 C   0  0  0  0  0  0  0  0  0  0  0  0
  148.1140  153.2730  132.2380 N   0  0  0  0  0  0  0  0  0  0  0  0
  150.0930  154.4430  132.5690 O   0  0  0  0  0  0  0  0  0  0  0  0
  146.1690  152.3640  133.8750 H   0  0  0  0  0  0  0  0  0  0  0  0
  146.2057  156.8947  135.6776 H   0  0  0  0  0  0  0  0  0  0  0  0
  146.9339  159.4928  134.7214 H   0  0  0  0  0  0  0  0  0  0  0  0
  148.3620  160.6688  133.0149 H   0  0  0  0  0  0  0  0  0  0  0  0
  150.8191  160.0700  131.6449 H   0  0  0  0  0  0  0  0  0  0  0  0
  150.4213  158.7863  130.4461 H   0  0  0  0  0  0  0  0  0  0  0  0
  149.7588  156.8156  131.5251 H   0  0  0  0  0  0  0  0  0  0  0  0
  148.6050  152.5040  131.7310 H   0  0  0  0  0  0  0  0  0  0  0  0
  147.0910  153.1840  132.4270 H   0  0  0  0  0  0  0  0  0  0  0  0
  1  2  1  0
  2  3  2  0
  2  4  1  0
  4  5  2  0
  5  6  1  0
  6  7  2  0
  7  8  1  0
  8  9  2  0
  9 10  1  0
 10 11  1  0
 11 12  2  0
 11 13  1  0
  9 14  1  0
 14 15  2  0
 15 16  1  0
 16 17  1  0
 17 18  1  0
 17 19  2  0
 16  4  1  0
 15  6  1  0
  1 20  1  0
  5 21  1  0
  7 22  1  0
  8 23  1  0
 10 24  1  0
 10 25  1  0
 14 26  1  0
 18 27  1  0
 18 28  1  0
M  CHG  2   1  -1  13  -1
M  END
>  <UniqueID>  (56) 
56

>  <SMILES>  (56) 
[NH-]C(=O)c1cc2ccc(CC(=O)[O-])cc2n1C(N)=O

>  <Energy>  (56) 
64.95752339732073

>  <Genealogy>  (56) 
[NH-]C(=O)c1cc2ccc(CC(=O)[O-])cc2n1C(N)=O (protonated)
[NH-]C(=O)c1cc2ccc(CC(=O)[O-])cc2n1C(N)=O (3D coordinates assigned)
[NH-]C(=O)c1cc2ccc(CC(=O)[O-])cc2n1C(N)=O (optimized conformer: 64.95752339732073 kcal/mol)

>  <smiles>  (56) 
NC(=O)c1cc2ccc(CC(=O)O)cc2n1C(N)=O

>  <score_type>  (56) 
oracle

>  <origin>  (56) 
adg

>  <m_score__min__energy>  (56) 
-6.3899999999999997

>  <m_primary>  (56) 
energy

$$$$
56:0
     RDKit          3D

 27 28  0  0  0  0  0  0  0  0999 V2000
  147.0840  153.3330  136.7160 N   0  0  0  0  0  0  0  0  0  0  0  0
  146.5290  154.0990  136.0500 C   0  0  0  0  0  0  0  0  0  0  0  0
  145.8260  155.0690  135.2050 C   0  0  0  0  0  0  0  0  0  0  0  0
  146.7970  155.7370  134.2730 C   0  0  0  0  0  0  0  0  0  0  0  0
  147.8980  155.0090  133.7550 C   0  0  0  0  0  0  0  0  0  0  0  0
  148.8360  155.6310  132.9160 C   0  0  0  0  0  0  0  0  0  0  0  0
  148.6490  156.9780  132.6140 C   0  0  0  0  0  0  0  0  0  0  0  0
  149.4240  157.8300  131.8600 C   0  0  0  0  0  0  0  0  0  0  0  0
  148.7760  159.0600  131.9160 C   0  0  0  0  0  0  0  0  0  0  0  0
  149.2380  160.2530  131.1790 C   0  0  0  0  0  0  0  0  0  0  0  0
  148.4930  161.4720  131.2040 N   0  0  0  0  0  0  0  0  0  0  0  0
  150.2760  160.1790  130.4700 O   0  0  0  0  0  0  0  0  0  0  0  0
  147.6520  158.9810  132.6830 N   0  0  0  0  0  0  0  0  0  0  0  0
  146.7850  160.0570  133.0800 C   0  0  0  0  0  0  0  0  0  0  0  0
  145.4030  160.0330  132.7280 N   0  0  0  0  0  0  0  0  0  0  0  0
  147.2420  161.0330  133.7320 O   0  0  0  0  0  0  0  0  0  0  0  0
  147.5860  157.6960  133.1010 C   0  0  0  0  0  0  0  0  0  0  0  0
  146.6470  157.1050  133.9560 C   0  0  0  0  0  0  0  0  0  0  0  0
  145.0555  154.5489  134.6169 H   0  0  0  0  0  0  0  0  0  0  0  0
  145.3562  155.8311  135.8441 H   0  0  0  0  0  0  0  0  0  0  0  0
  148.0183  153.9465  134.0131 H   0  0  0  0  0  0  0  0  0  0  0  0
  149.6920  155.0722  132.5097 H   0  0  0  0  0  0  0  0  0  0  0  0
  150.3560  157.5898  131.3273 H   0  0  0  0  0  0  0  0  0  0  0  0
  148.8540  162.3160  130.7070 H   0  0  0  0  0  0  0  0  0  0  0  0
  147.5480  161.5180  131.6440 H   0  0  0  0  0  0  0  0  0  0  0  0
  144.9610  160.8400  132.2350 H   0  0  0  0  0  0  0  0  0  0  0  0
  145.8137  157.6917  134.3701 H   0  0  0  0  0  0  0  0  0  0  0  0
  1  2  3  0
  2  3  1  0
  3  4  1  0
  4  5  2  0
  5  6  1  0
  6  7  2  0
  7  8  1  0
  8  9  2  0
  9 10  1  0
 10 11  1  0
 10 12  2  0
  9 13  1  0
 13 14  1  0
 14 15  1  0
 14 16  2  0
 13 17  1  0
 17 18  2  0
 18  4  1  0
 17  7  1  0
  3 19  1  0
  3 20  1  0
  5 21  1  0
  6 22  1  0
  8 23  1  0
 11 24  1  0
 11 25  1  0
 15 26  1  0
 18 27  1  0
M  CHG  1  15  -1
M  END
>  <UniqueID>  (57) 
57

>  <SMILES>  (57) 
N#CCc1ccc2cc(C(N)=O)n(C([NH-])=O)c2c1

>  <Energy>  (57) 
65.13008941902663

>  <Genealogy>  (57) 
N#CCc1ccc2cc(C(N)=O)n(C([NH-])=O)c2c1 (protonated)
N#CCc1ccc2cc(C(N)=O)n(C([NH-])=O)c2c1 (3D coordinates assigned)
N#CCc1ccc2cc(C(N)=O)n(C([NH-])=O)c2c1 (optimized conformer: 65.13008941902663 kcal/mol)

>  <smiles>  (57) 
N#CCc1ccc2cc(C(N)=O)n(C(N)=O)c2c1

>  <score_type>  (57) 
oracle

>  <origin>  (57) 
adg

>  <m_score__min__energy>  (57) 
-6.8200000000000003

>  <m_primary>  (57) 
energy

$$$$
57:0
     RDKit          3D

 45 47  0  0  0  0  0  0  0  0999 V2000
  140.5460  158.4800  132.8340 C   0  0  0  0  0  0  0  0  0  0  0  0
  140.0960  157.0990  133.1910 C   0  0  0  0  0  0  0  0  0  0  0  0
  139.1140  156.5950  132.5830 O   0  0  0  0  0  0  0  0  0  0  0  0
  140.7640  156.3460  134.2170 N   0  0  0  0  0  0  0  0  0  0  0  0
  141.1390  156.7810  135.4530 C   0  0  0  0  0  0  0  0  0  0  0  0
  140.8420  158.1100  136.0310 C   0  0  0  0  0  0  0  0  0  0  0  0
  139.4910  158.5510  136.1390 N   0  0  0  0  0  0  0  0  0  0  0  0
  141.7720  158.8700  136.4080 O   0  0  0  0  0  0  0  0  0  0  0  0
  141.8000  155.7690  136.1470 C   0  0  0  0  0  0  0  0  0  0  0  0
  141.8190  154.6920  135.2900 C   0  0  0  0  0  0  0  0  0  0  0  0
  142.3530  153.4190  135.4650 C   0  0  0  0  0  0  0  0  0  0  0  0
  142.2450  152.5080  134.4010 C   0  0  0  0  0  0  0  0  0  0  0  0
  141.6270  152.8890  133.1820 C   0  0  0  0  0  0  0  0  0  0  0  0
  141.4930  151.9350  132.1070 N   0  0  0  0  0  0  0  0  0  0  0  0
  141.9940  150.6230  132.5370 C   0  0  0  0  0  0  0  0  0  0  0  0
  141.2750  149.4890  131.7710 C   0  0  0  0  0  0  0  0  0  0  0  0
  140.1650  149.9420  130.8990 N   0  0  0  0  0  0  0  0  0  0  0  0
  138.8630  149.9950  131.5780 C   0  0  0  0  0  0  0  0  0  0  0  0
  137.9980  148.8590  131.0420 C   0  0  0  0  0  0  0  0  0  0  0  0
  138.7770  148.2360  129.8990 C   0  0  0  0  0  0  0  0  0  0  0  0
  139.9890  149.1290  129.6890 C   0  0  0  0  0  0  0  0  0  0  0  0
  141.0900  154.1890  133.0470 C   0  0  0  0  0  0  0  0  0  0  0  0
  141.1920  155.0670  134.1320 C   0  0  0  0  0  0  0  0  0  0  0  0
  140.7330  159.0539  133.7536 H   0  0  0  0  0  0  0  0  0  0  0  0
  141.4719  158.4226  132.2429 H   0  0  0  0  0  0  0  0  0  0  0  0
  139.7640  158.9791  132.2429 H   0  0  0  0  0  0  0  0  0  0  0  0
  139.1160  158.9110  137.0450 H   0  0  0  0  0  0  0  0  0  0  0  0
  142.2176  155.8201  137.1634 H   0  0  0  0  0  0  0  0  0  0  0  0
  142.8444  153.1348  136.4072 H   0  0  0  0  0  0  0  0  0  0  0  0
  142.6436  151.4890  134.5141 H   0  0  0  0  0  0  0  0  0  0  0  0
  142.0330  152.2650  131.2720 H   0  0  0  0  0  0  0  0  0  0  0  0
  140.4850  151.8570  131.8320 H   0  0  0  0  0  0  0  0  0  0  0  0
  143.0743  150.5655  132.3379 H   0  0  0  0  0  0  0  0  0  0  0  0
  141.7988  150.5038  133.6130 H   0  0  0  0  0  0  0  0  0  0  0  0
  142.0172  148.9748  131.1427 H   0  0  0  0  0  0  0  0  0  0  0  0
  140.8266  148.8335  132.5321 H   0  0  0  0  0  0  0  0  0  0  0  0
  139.0037  149.8758  132.6624 H   0  0  0  0  0  0  0  0  0  0  0  0
  138.3764  150.9635  131.3904 H   0  0  0  0  0  0  0  0  0  0  0  0
  137.8162  148.1137  131.8303 H   0  0  0  0  0  0  0  0  0  0  0  0
  137.0176  149.2268  130.7050 H   0  0  0  0  0  0  0  0  0  0  0  0
  139.0937  147.2160  130.1623 H   0  0  0  0  0  0  0  0  0  0  0  0
  138.1668  148.1603  128.9869 H   0  0  0  0  0  0  0  0  0  0  0  0
  140.8835  148.5115  129.5201 H   0  0  0  0  0  0  0  0  0  0  0  0
  139.8416  149.7751  128.8110 H   0  0  0  0  0  0  0  0  0  0  0  0
  140.6036  154.5033  132.1118 H   0  0  0  0  0  0  0  0  0  0  0  0
  1  2  1  0
  2  3  2  0
  2  4  1  0
  4  5  1  0
  5  6  1  0
  6  7  1  0
  6  8  2  0
  5  9  2  0
  9 10  1  0
 10 11  2  0
 11 12  1  0
 12 13  2  0
 13 14  1  0
 14 15  1  0
 15 16  1  0
 16 17  1  0
 17 18  1  0
 18 19  1  0
 19 20  1  0
 20 21  1  0
 13 22  1  0
 22 23  2  0
 23  4  1  0
 23 10  1  0
 21 17  1  0
  1 24  1  0
  1 25  1  0
  1 26  1  0
  7 27  1  0
  9 28  1  0
 11 29  1  0
 12 30  1  0
 14 31  1  0
 14 32  1  0
 15 33  1  0
 15 34  1  0
 16 35  1  0
 16 36  1  0
 18 37  1  0
 18 38  1  0
 19 39  1  0
 19 40  1  0
 20 41  1  0
 20 42  1  0
 21 43  1  0
 21 44  1  0
 22 45  1  0
M  CHG  2   7  -1  14   1
M  END
>  <UniqueID>  (58) 
58

>  <SMILES>  (58) 
CC(=O)n1c(C([NH-])=O)cc2ccc([NH2+]CCN3CCCC3)cc21

>  <Energy>  (58) 
88.4747846035108

>  <Genealogy>  (58) 
CC(=O)n1c(C([NH-])=O)cc2ccc([NH2+]CCN3CCCC3)cc21 (protonated)
CC(=O)n1c(C([NH-])=O)cc2ccc([NH2+]CCN3CCCC3)cc21 (3D coordinates assigned)
CC(=O)n1c(C([NH-])=O)cc2ccc([NH2+]CCN3CCCC3)cc21 (nonaromatic ring conformer: 88.4747846035108 kcal/mol)

>  <smiles>  (58) 
CC(=O)n1c(C(N)=O)cc2ccc(NCCN3CCCC3)cc21

>  <score_type>  (58) 
oracle

>  <origin>  (58) 
adg

>  <m_score__min__energy>  (58) 
-7.4900000000000002

>  <m_primary>  (58) 
energy

$$$$
58:0
     RDKit          3D

 34 35  0  0  0  0  0  0  0  0999 V2000
  148.9970  161.7390  130.3880 C   0  0  0  0  0  0  0  0  0  0  0  0
  148.9240  160.4640  131.1720 C   0  0  0  0  0  0  0  0  0  0  0  0
  150.0180  159.5630  131.1650 C   0  0  0  0  0  0  0  0  0  0  0  0
  149.9440  158.3420  131.8550 C   0  0  0  0  0  0  0  0  0  0  0  0
  148.7660  158.0490  132.5370 C   0  0  0  0  0  0  0  0  0  0  0  0
  148.4150  156.9270  133.2540 C   0  0  0  0  0  0  0  0  0  0  0  0
  147.1160  157.1640  133.6970 C   0  0  0  0  0  0  0  0  0  0  0  0
  146.3800  156.2390  134.5820 C   0  0  0  0  0  0  0  0  0  0  0  0
  144.9580  156.2780  134.6610 N   0  0  0  0  0  0  0  0  0  0  0  0
  147.0170  155.4390  135.3170 O   0  0  0  0  0  0  0  0  0  0  0  0
  146.6750  158.3790  133.2630 N   0  0  0  0  0  0  0  0  0  0  0  0
  145.3630  158.9420  133.4180 C   0  0  0  0  0  0  0  0  0  0  0  0
  144.3680  158.3730  132.8920 O   0  0  0  0  0  0  0  0  0  0  0  0
  145.1920  160.1020  134.1840 O   0  0  0  0  0  0  0  0  0  0  0  0
  144.6270  161.3100  133.6750 C   0  0  0  0  0  0  0  0  0  0  0  0
  143.1050  161.2060  133.7350 C   0  0  0  0  0  0  0  0  0  0  0  0
  145.1130  162.5100  134.4910 C   0  0  0  0  0  0  0  0  0  0  0  0
  147.6990  158.9090  132.5560 C   0  0  0  0  0  0  0  0  0  0  0  0
  147.7390  160.1240  131.8610 C   0  0  0  0  0  0  0  0  0  0  0  0
  149.0459  162.5927  131.0800 H   0  0  0  0  0  0  0  0  0  0  0  0
  149.8960  161.7288  129.7543 H   0  0  0  0  0  0  0  0  0  0  0  0
  148.1027  161.8315  129.7543 H   0  0  0  0  0  0  0  0  0  0  0  0
  150.9339  159.8225  130.6138 H   0  0  0  0  0  0  0  0  0  0  0  0
  150.7902  157.6392  131.8566 H   0  0  0  0  0  0  0  0  0  0  0  0
  149.0298  156.0335  133.4378 H   0  0  0  0  0  0  0  0  0  0  0  0
  144.4450  157.1860  134.6870 H   0  0  0  0  0  0  0  0  0  0  0  0
  144.9452  161.4562  132.6322 H   0  0  0  0  0  0  0  0  0  0  0  0
  142.7801  161.1838  134.7857 H   0  0  0  0  0  0  0  0  0  0  0  0
  142.6579  162.0757  133.2313 H   0  0  0  0  0  0  0  0  0  0  0  0
  142.7804  160.2836  133.2313 H   0  0  0  0  0  0  0  0  0  0  0  0
  145.0219  162.2850  135.5639 H   0  0  0  0  0  0  0  0  0  0  0  0
  146.1657  162.7166  134.2478 H   0  0  0  0  0  0  0  0  0  0  0  0
  144.5008  163.3909  134.2478 H   0  0  0  0  0  0  0  0  0  0  0  0
  146.8689  160.7970  131.8519 H   0  0  0  0  0  0  0  0  0  0  0  0
  1  2  1  0
  2  3  2  0
  3  4  1  0
  4  5  2  0
  5  6  1  0
  6  7  2  0
  7  8  1  0
  8  9  1  0
  8 10  2  0
  7 11  1  0
 11 12  1  0
 12 13  2  0
 12 14  1  0
 14 15  1  0
 15 16  1  0
 15 17  1  0
 11 18  1  0
 18 19  2  0
 19  2  1  0
 18  5  1  0
  1 20  1  0
  1 21  1  0
  1 22  1  0
  3 23  1  0
  4 24  1  0
  6 25  1  0
  9 26  1  0
 15 27  1  0
 16 28  1  0
 16 29  1  0
 16 30  1  0
 17 31  1  0
 17 32  1  0
 17 33  1  0
 19 34  1  0
M  CHG  1   9  -1
M  END
>  <UniqueID>  (59) 
59

>  <SMILES>  (59) 
Cc1ccc2cc(C([NH-])=O)n(C(=O)OC(C)C)c2c1

>  <Energy>  (59) 
66.26585569216684

>  <Genealogy>  (59) 
Cc1ccc2cc(C([NH-])=O)n(C(=O)OC(C)C)c2c1 (protonated)
Cc1ccc2cc(C([NH-])=O)n(C(=O)OC(C)C)c2c1 (3D coordinates assigned)
Cc1ccc2cc(C([NH-])=O)n(C(=O)OC(C)C)c2c1 (optimized conformer: 66.26585569216684 kcal/mol)

>  <smiles>  (59) 
Cc1ccc2cc(C(N)=O)n(C(=O)OC(C)C)c2c1

>  <score_type>  (59) 
oracle

>  <origin>  (59) 
adg

>  <m_score__min__energy>  (59) 
-6.2800000000000002

>  <m_primary>  (59) 
energy

$$$$
59:0
     RDKit          3D

 30 32  0  0  0  0  0  0  0  0999 V2000
  149.2460  161.9810  130.3940 C   0  0  0  0  0  0  0  0  0  0  0  0
  148.9150  160.6800  131.0420 C   0  0  0  0  0  0  0  0  0  0  0  0
  147.7210  160.4140  131.6140 N   0  0  0  0  0  0  0  0  0  0  0  0
  147.6890  159.1830  132.1990 C   0  0  0  0  0  0  0  0  0  0  0  0
  146.4680  158.6870  132.8860 C   0  0  0  0  0  0  0  0  0  0  0  0
  146.4140  157.3400  133.3340 C   0  0  0  0  0  0  0  0  0  0  0  0
  145.2720  156.8370  133.9790 C   0  0  0  0  0  0  0  0  0  0  0  0
  144.2010  157.7010  134.1770 C   0  0  0  0  0  0  0  0  0  0  0  0
  142.9730  157.4680  134.7520 C   0  0  0  0  0  0  0  0  0  0  0  0
  142.2960  158.6830  134.6790 C   0  0  0  0  0  0  0  0  0  0  0  0
  140.9590  158.9030  135.2660 C   0  0  0  0  0  0  0  0  0  0  0  0
  140.8090  159.2650  136.6360 N   0  0  0  0  0  0  0  0  0  0  0  0
  139.9310  158.7180  134.5620 O   0  0  0  0  0  0  0  0  0  0  0  0
  143.0720  159.6280  134.0750 N   0  0  0  0  0  0  0  0  0  0  0  0
  142.7050  160.9730  133.7290 C   0  0  0  0  0  0  0  0  0  0  0  0
  141.5080  161.2590  133.4660 O   0  0  0  0  0  0  0  0  0  0  0  0
  143.6660  161.9780  133.7070 O   0  0  0  0  0  0  0  0  0  0  0  0
  144.2370  159.0100  133.7760 C   0  0  0  0  0  0  0  0  0  0  0  0
  145.3540  159.5340  133.1140 C   0  0  0  0  0  0  0  0  0  0  0  0
  148.8900  158.4710  132.1060 C   0  0  0  0  0  0  0  0  0  0  0  0
  149.9980  159.4190  131.2690 S   0  0  0  0  0  0  0  0  0  0  0  0
  149.4386  162.7379  131.1686 H   0  0  0  0  0  0  0  0  0  0  0  0
  150.1423  161.8611  129.7676 H   0  0  0  0  0  0  0  0  0  0  0  0
  148.4014  162.3040  129.7676 H   0  0  0  0  0  0  0  0  0  0  0  0
  147.2798  156.6807  133.1733 H   0  0  0  0  0  0  0  0  0  0  0  0
  145.2265  155.7913  134.3172 H   0  0  0  0  0  0  0  0  0  0  0  0
  142.6044  156.5234  135.1785 H   0  0  0  0  0  0  0  0  0  0  0  0
  139.8620  159.3680  137.0640 H   0  0  0  0  0  0  0  0  0  0  0  0
  145.3670  160.5813  132.7777 H   0  0  0  0  0  0  0  0  0  0  0  0
  149.0769  157.4653  132.5104 H   0  0  0  0  0  0  0  0  0  0  0  0
  1  2  1  0
  2  3  2  0
  3  4  1  0
  4  5  1  0
  5  6  2  0
  6  7  1  0
  7  8  2  0
  8  9  1  0
  9 10  2  0
 10 11  1  0
 11 12  1  0
 11 13  2  0
 10 14  1  0
 14 15  1  0
 15 16  2  0
 15 17  1  0
 14 18  1  0
 18 19  2  0
  4 20  2  0
 20 21  1  0
 21  2  1  0
 19  5  1  0
 18  8  1  0
  1 22  1  0
  1 23  1  0
  1 24  1  0
  6 25  1  0
  7 26  1  0
  9 27  1  0
 12 28  1  0
 19 29  1  0
 20 30  1  0
M  CHG  2  12  -1  17  -1
M  END
>  <UniqueID>  (60) 
60

>  <SMILES>  (60) 
Cc1nc(-c2ccc3cc(C([NH-])=O)n(C(=O)[O-])c3c2)cs1

>  <Energy>  (60) 
102.83578936091861

>  <Genealogy>  (60) 
Cc1nc(-c2ccc3cc(C([NH-])=O)n(C(=O)[O-])c3c2)cs1 (protonated)
Cc1nc(-c2ccc3cc(C([NH-])=O)n(C(=O)[O-])c3c2)cs1 (3D coordinates assigned)
Cc1nc(-c2ccc3cc(C([NH-])=O)n(C(=O)[O-])c3c2)cs1 (optimized conformer: 102.83578936091861 kcal/mol)

>  <smiles>  (60) 
Cc1nc(-c2ccc3cc(C(N)=O)n(C(=O)O)c3c2)cs1

>  <score_type>  (60) 
oracle

>  <origin>  (60) 
adg

>  <m_score__min__energy>  (60) 
-7.4800000000000004

>  <m_primary>  (60) 
energy

$$$$
60:0
     RDKit          3D

 37 38  0  0  0  0  0  0  0  0999 V2000
  140.4230  158.8580  132.2450 C   0  0  0  0  0  0  0  0  0  0  0  0
  141.2040  158.1050  133.3320 C   0  0  0  0  0  0  0  0  0  0  0  0
  140.7380  156.6360  133.3520 C   0  0  0  0  0  0  0  0  0  0  0  0
  140.9410  158.7790  134.6920 C   0  0  0  0  0  0  0  0  0  0  0  0
  142.5940  158.1880  132.9870 O   0  0  0  0  0  0  0  0  0  0  0  0
  143.6800  158.0350  133.8640 C   0  0  0  0  0  0  0  0  0  0  0  0
  143.6030  157.2730  134.8660 O   0  0  0  0  0  0  0  0  0  0  0  0
  144.9020  158.7370  133.5970 N   0  0  0  0  0  0  0  0  0  0  0  0
  145.1140  160.0840  133.6020 C   0  0  0  0  0  0  0  0  0  0  0  0
  144.0750  161.1270  133.7310 C   0  0  0  0  0  0  0  0  0  0  0  0
  142.7200  160.8600  133.3790 N   0  0  0  0  0  0  0  0  0  0  0  0
  144.3960  162.2840  134.1110 O   0  0  0  0  0  0  0  0  0  0  0  0
  146.4600  160.3660  133.3790 C   0  0  0  0  0  0  0  0  0  0  0  0
  147.0690  159.1410  133.2270 C   0  0  0  0  0  0  0  0  0  0  0  0
  148.4030  158.8300  132.9800 C   0  0  0  0  0  0  0  0  0  0  0  0
  148.7570  157.4720  132.8900 C   0  0  0  0  0  0  0  0  0  0  0  0
  147.7830  156.4560  133.0720 C   0  0  0  0  0  0  0  0  0  0  0  0
  148.1680  155.0040  132.9350 C   0  0  0  0  0  0  0  0  0  0  0  0
  147.1710  154.3320  132.2520 F   0  0  0  0  0  0  0  0  0  0  0  0
  148.3320  154.4220  134.1800 F   0  0  0  0  0  0  0  0  0  0  0  0
  149.3560  154.8770  132.2370 F   0  0  0  0  0  0  0  0  0  0  0  0
  146.4340  156.8150  133.2970 C   0  0  0  0  0  0  0  0  0  0  0  0
  146.1080  158.1750  133.3640 C   0  0  0  0  0  0  0  0  0  0  0  0
  139.7081  159.5473  132.7181 H   0  0  0  0  0  0  0  0  0  0  0  0
  141.1242  159.4296  131.6192 H   0  0  0  0  0  0  0  0  0  0  0  0
  139.8774  158.1365  131.6192 H   0  0  0  0  0  0  0  0  0  0  0  0
  140.6312  156.2994  134.3938 H   0  0  0  0  0  0  0  0  0  0  0  0
  139.7690  156.5517  132.8383 H   0  0  0  0  0  0  0  0  0  0  0  0
  141.4812  156.0085  132.8383 H   0  0  0  0  0  0  0  0  0  0  0  0
  141.2112  158.0865  135.5028 H   0  0  0  0  0  0  0  0  0  0  0  0
  141.5487  159.6924  134.7722 H   0  0  0  0  0  0  0  0  0  0  0  0
  139.8753  159.0394  134.7722 H   0  0  0  0  0  0  0  0  0  0  0  0
  142.4850  160.2950  132.5330 H   0  0  0  0  0  0  0  0  0  0  0  0
  146.9351  161.3571  133.3340 H   0  0  0  0  0  0  0  0  0  0  0  0
  149.1569  159.6218  132.8589 H   0  0  0  0  0  0  0  0  0  0  0  0
  149.7997  157.1944  132.6763 H   0  0  0  0  0  0  0  0  0  0  0  0
  145.6588  156.0438  133.4166 H   0  0  0  0  0  0  0  0  0  0  0  0
  1  2  1  0
  2  3  1  0
  2  4  1  0
  2  5  1  0
  5  6  1  0
  6  7  2  0
  6  8  1  0
  8  9  1  0
  9 10  1  0
 10 11  1  0
 10 12  2  0
  9 13  2  0
 13 14  1  0
 14 15  2  0
 15 16  1  0
 16 17  2  0
 17 18  1  0
 18 19  1  0
 18 20  1  0
 18 21  1  0
 17 22  1  0
 22 23  2  0
 23  8  1  0
 23 14  1  0
  1 24  1  0
  1 25  1  0
  1 26  1  0
  3 27  1  0
  3 28  1  0
  3 29  1  0
  4 30  1  0
  4 31  1  0
  4 32  1  0
 11 33  1  0
 13 34  1  0
 15 35  1  0
 16 36  1  0
 22 37  1  0
M  CHG  1  11  -1
M  END
>  <UniqueID>  (61) 
61

>  <SMILES>  (61) 
CC(C)(C)OC(=O)n1c(C([NH-])=O)cc2ccc(C(F)(F)F)cc21

>  <Energy>  (61) 
71.88827239685511

>  <Genealogy>  (61) 
CC(C)(C)OC(=O)n1c(C([NH-])=O)cc2ccc(C(F)(F)F)cc21 (protonated)
CC(C)(C)OC(=O)n1c(C([NH-])=O)cc2ccc(C(F)(F)F)cc21 (3D coordinates assigned)
CC(C)(C)OC(=O)n1c(C([NH-])=O)cc2ccc(C(F)(F)F)cc21 (optimized conformer: 71.88827239685511 kcal/mol)

>  <smiles>  (61) 
CC(C)(C)OC(=O)n1c(C(N)=O)cc2ccc(C(F)(F)F)cc21

>  <score_type>  (61) 
oracle

>  <origin>  (61) 
adg

>  <m_score__min__energy>  (61) 
-6.25

>  <m_primary>  (61) 
energy

$$$$
61:0
     RDKit          3D

 43 45  0  0  0  0  0  0  0  0999 V2000
  138.6740  149.2200  129.5780 C   0  0  0  0  0  0  0  0  0  0  0  0
  139.5950  148.1740  130.2100 C   0  0  0  0  0  0  0  0  0  0  0  0
  139.0650  146.7650  129.9450 C   0  0  0  0  0  0  0  0  0  0  0  0
  139.6780  148.3770  131.6210 O   0  0  0  0  0  0  0  0  0  0  0  0
  140.8710  148.6770  132.2940 C   0  0  0  0  0  0  0  0  0  0  0  0
  141.6290  147.7460  132.6840 O   0  0  0  0  0  0  0  0  0  0  0  0
  141.2340  150.0870  132.5510 C   0  0  0  0  0  0  0  0  0  0  0  0
  140.2390  151.0770  132.6040 C   0  0  0  0  0  0  0  0  0  0  0  0
  140.5770  152.4110  132.8460 C   0  0  0  0  0  0  0  0  0  0  0  0
  141.9180  152.7840  133.0420 C   0  0  0  0  0  0  0  0  0  0  0  0
  142.2780  154.2020  133.3000 C   0  0  0  0  0  0  0  0  0  0  0  0
  143.6110  154.6510  133.1030 C   0  0  0  0  0  0  0  0  0  0  0  0
  143.9600  155.9920  133.3310 C   0  0  0  0  0  0  0  0  0  0  0  0
  142.9640  156.8610  133.7640 C   0  0  0  0  0  0  0  0  0  0  0  0
  143.0230  158.2090  134.0350 C   0  0  0  0  0  0  0  0  0  0  0  0
  141.7320  158.5650  134.4160 C   0  0  0  0  0  0  0  0  0  0  0  0
  141.3660  159.9220  134.8780 C   0  0  0  0  0  0  0  0  0  0  0  0
  140.8360  160.1050  136.1880 N   0  0  0  0  0  0  0  0  0  0  0  0
  141.4830  160.9170  134.1150 O   0  0  0  0  0  0  0  0  0  0  0  0
  140.9040  157.4820  134.3760 N   0  0  0  0  0  0  0  0  0  0  0  0
  139.4920  157.4390  134.6370 C   0  0  0  0  0  0  0  0  0  0  0  0
  139.0250  157.9130  135.7060 O   0  0  0  0  0  0  0  0  0  0  0  0
  138.6220  156.8950  133.6990 O   0  0  0  0  0  0  0  0  0  0  0  0
  141.6750  156.4460  133.9780 C   0  0  0  0  0  0  0  0  0  0  0  0
  141.2950  155.1200  133.7400 C   0  0  0  0  0  0  0  0  0  0  0  0
  142.9130  151.7940  132.9900 C   0  0  0  0  0  0  0  0  0  0  0  0
  142.5750  150.4590  132.7470 C   0  0  0  0  0  0  0  0  0  0  0  0
  138.1703  149.7921  130.3711 H   0  0  0  0  0  0  0  0  0  0  0  0
  139.2689  149.9034  128.9543 H   0  0  0  0  0  0  0  0  0  0  0  0
  137.9208  148.7164  128.9543 H   0  0  0  0  0  0  0  0  0  0  0  0
  140.5928  148.2817  129.7598 H   0  0  0  0  0  0  0  0  0  0  0  0
  138.8746  146.2587  130.9028 H   0  0  0  0  0  0  0  0  0  0  0  0
  138.1289  146.8274  129.3707 H   0  0  0  0  0  0  0  0  0  0  0  0
  139.8102  146.1949  129.3707 H   0  0  0  0  0  0  0  0  0  0  0  0
  139.1851  150.7999  132.4538 H   0  0  0  0  0  0  0  0  0  0  0  0
  139.7871  153.1756  132.8834 H   0  0  0  0  0  0  0  0  0  0  0  0
  144.3797  153.9393  132.7676 H   0  0  0  0  0  0  0  0  0  0  0  0
  144.9898  156.3445  133.1720 H   0  0  0  0  0  0  0  0  0  0  0  0
  143.9029  158.8655  133.9654 H   0  0  0  0  0  0  0  0  0  0  0  0
  139.8690  159.7890  136.4250 H   0  0  0  0  0  0  0  0  0  0  0  0
  140.2541  154.7983  133.8918 H   0  0  0  0  0  0  0  0  0  0  0  0
  143.9667  152.0711  133.1417 H   0  0  0  0  0  0  0  0  0  0  0  0
  143.3647  149.6942  132.7090 H   0  0  0  0  0  0  0  0  0  0  0  0
  1  2  1  0
  2  3  1  0
  2  4  1  0
  4  5  1  0
  5  6  2  0
  5  7  1  0
  7  8  2  0
  8  9  1  0
  9 10  2  0
 10 11  1  0
 11 12  2  0
 12 13  1  0
 13 14  2  0
 14 15  1  0
 15 16  2  0
 16 17  1  0
 17 18  1  0
 17 19  2  0
 16 20  1  0
 20 21  1  0
 21 22  2  0
 21 23  1  0
 20 24  1  0
 24 25  2  0
 10 26  1  0
 26 27  2  0
 27  7  1  0
 25 11  1  0
 24 14  1  0
  1 28  1  0
  1 29  1  0
  1 30  1  0
  2 31  1  0
  3 32  1  0
  3 33  1  0
  3 34  1  0
  8 35  1  0
  9 36  1  0
 12 37  1  0
 13 38  1  0
 15 39  1  0
 18 40  1  0
 25 41  1  0
 26 42  1  0
 27 43  1  0
M  CHG  2  18  -1  23  -1
M  END
>  <UniqueID>  (62) 
62

>  <SMILES>  (62) 
CC(C)OC(=O)c1ccc(-c2ccc3cc(C([NH-])=O)n(C(=O)[O-])c3c2)cc1

>  <Energy>  (62) 
84.57666836919867

>  <Genealogy>  (62) 
CC(C)OC(=O)c1ccc(-c2ccc3cc(C([NH-])=O)n(C(=O)[O-])c3c2)cc1 (protonated)
CC(C)OC(=O)c1ccc(-c2ccc3cc(C([NH-])=O)n(C(=O)[O-])c3c2)cc1 (3D coordinates assigned)
CC(C)OC(=O)c1ccc(-c2ccc3cc(C([NH-])=O)n(C(=O)[O-])c3c2)cc1 (optimized conformer: 84.57666836919867 kcal/mol)

>  <smiles>  (62) 
CC(C)OC(=O)c1ccc(-c2ccc3cc(C(N)=O)n(C(=O)O)c3c2)cc1

>  <score_type>  (62) 
oracle

>  <origin>  (62) 
adg

>  <m_score__min__energy>  (62) 
-8.3699999999999992

>  <m_primary>  (62) 
energy

$$$$
62:0
     RDKit          3D

 55 58  0  0  0  0  0  0  0  0999 V2000
  149.4760  159.5670  131.2270 C   0  0  0  0  0  0  0  0  0  0  0  0
  148.2400  160.4460  131.1130 C   0  0  0  0  0  0  0  0  0  0  0  0
  147.1280  159.7800  131.7030 O   0  0  0  0  0  0  0  0  0  0  0  0
  146.8480  159.8460  133.0710 C   0  0  0  0  0  0  0  0  0  0  0  0
  147.7670  160.0970  133.8980 O   0  0  0  0  0  0  0  0  0  0  0  0
  145.5020  159.6480  133.5310 N   0  0  0  0  0  0  0  0  0  0  0  0
  144.6470  160.5850  134.0310 C   0  0  0  0  0  0  0  0  0  0  0  0
  144.8700  162.0450  134.0420 C   0  0  0  0  0  0  0  0  0  0  0  0
  146.0980  162.5960  134.5090 N   0  0  0  0  0  0  0  0  0  0  0  0
  143.9820  162.8150  133.5860 O   0  0  0  0  0  0  0  0  0  0  0  0
  143.4680  159.9860  134.4710 C   0  0  0  0  0  0  0  0  0  0  0  0
  143.6240  158.6430  134.2150 C   0  0  0  0  0  0  0  0  0  0  0  0
  142.7630  157.5800  134.4650 C   0  0  0  0  0  0  0  0  0  0  0  0
  143.1960  156.2880  134.1280 C   0  0  0  0  0  0  0  0  0  0  0  0
  144.4780  156.0760  133.5570 C   0  0  0  0  0  0  0  0  0  0  0  0
  144.9320  154.7030  133.2160 C   0  0  0  0  0  0  0  0  0  0  0  0
  146.2950  154.4340  133.0120 C   0  0  0  0  0  0  0  0  0  0  0  0
  146.7200  153.1430  132.6940 C   0  0  0  0  0  0  0  0  0  0  0  0
  145.7930  152.1070  132.5720 C   0  0  0  0  0  0  0  0  0  0  0  0
  144.4210  152.3510  132.7620 C   0  0  0  0  0  0  0  0  0  0  0  0
  143.4150  151.2610  132.6490 C   0  0  0  0  0  0  0  0  0  0  0  0
  143.7010  150.2450  131.9540 O   0  0  0  0  0  0  0  0  0  0  0  0
  142.1130  151.3500  133.2880 N   0  0  2  0  0  0  0  0  0  0  0  0
  141.4750  150.0200  133.3880 C   0  0  0  0  0  0  0  0  0  0  0  0
  140.3450  149.9760  132.3770 C   0  0  0  0  0  0  0  0  0  0  0  0
  139.9120  151.4160  132.2550 C   0  0  0  0  0  0  0  0  0  0  0  0
  141.1930  152.2120  132.5030 C   0  0  1  0  0  0  0  0  0  0  0  0
  140.8970  153.5140  133.2050 C   0  0  0  0  0  0  0  0  0  0  0  0
  140.1930  154.3910  132.6400 O   0  0  0  0  0  0  0  0  0  0  0  0
  141.3990  153.7550  134.4790 O   0  0  0  0  0  0  0  0  0  0  0  0
  144.0030  153.6540  133.0940 C   0  0  0  0  0  0  0  0  0  0  0  0
  145.3240  157.1850  133.3200 C   0  0  0  0  0  0  0  0  0  0  0  0
  144.8590  158.4640  133.6480 C   0  0  0  0  0  0  0  0  0  0  0  0
  149.7106  159.4001  132.2887 H   0  0  0  0  0  0  0  0  0  0  0  0
  149.2851  158.6006  130.7374 H   0  0  0  0  0  0  0  0  0  0  0  0
  150.3262  160.0645  130.7374 H   0  0  0  0  0  0  0  0  0  0  0  0
  148.4172  161.3975  131.6358 H   0  0  0  0  0  0  0  0  0  0  0  0
  148.0278  160.6447  130.0521 H   0  0  0  0  0  0  0  0  0  0  0  0
  146.9800  162.0380  134.4860 H   0  0  0  0  0  0  0  0  0  0  0  0
  142.5978  160.4815  134.9261 H   0  0  0  0  0  0  0  0  0  0  0  0
  141.7724  157.7466  134.9133 H   0  0  0  0  0  0  0  0  0  0  0  0
  142.5333  155.4288  134.3088 H   0  0  0  0  0  0  0  0  0  0  0  0
  147.0321  155.2454  133.1033 H   0  0  0  0  0  0  0  0  0  0  0  0
  147.7902  152.9414  132.5389 H   0  0  0  0  0  0  0  0  0  0  0  0
  146.1380  151.0920  132.3254 H   0  0  0  0  0  0  0  0  0  0  0  0
  142.2300  151.7010  134.2670 H   0  0  0  0  0  0  0  0  0  0  0  0
  142.2103  149.2334  133.1631 H   0  0  0  0  0  0  0  0  0  0  0  0
  141.0904  149.8516  134.4047 H   0  0  0  0  0  0  0  0  0  0  0  0
  140.6999  149.5906  131.4098 H   0  0  0  0  0  0  0  0  0  0  0  0
  139.5250  149.3108  132.6855 H   0  0  0  0  0  0  0  0  0  0  0  0
  139.5135  151.6203  131.2503 H   0  0  0  0  0  0  0  0  0  0  0  0
  139.1092  151.6770  132.9603 H   0  0  0  0  0  0  0  0  0  0  0  0
  141.6686  152.4850  131.5495 H   0  0  0  0  0  0  0  0  0  0  0  0
  142.9343  153.8544  133.2604 H   0  0  0  0  0  0  0  0  0  0  0  0
  146.3256  157.0452  132.8873 H   0  0  0  0  0  0  0  0  0  0  0  0
  1  2  1  0
  2  3  1  0
  3  4  1  0
  4  5  2  0
  4  6  1  0
  6  7  1  0
  7  8  1  0
  8  9  1  0
  8 10  2  0
  7 11  2  0
 11 12  1  0
 12 13  2  0
 13 14  1  0
 14 15  2  0
 15 16  1  0
 16 17  2  0
 17 18  1  0
 18 19  2  0
 19 20  1  0
 20 21  1  0
 21 22  2  0
 21 23  1  0
 23 24  1  0
 24 25  1  0
 25 26  1  0
 26 27  1  0
 27 28  1  0
 28 29  2  0
 28 30  1  0
 20 31  2  0
 15 32  1  0
 32 33  2  0
 33  6  1  0
 33 12  1  0
 31 16  1  0
 27 23  1  0
  1 34  1  0
  1 35  1  0
  1 36  1  0
  2 37  1  0
  2 38  1  0
  9 39  1  0
 11 40  1  0
 13 41  1  0
 14 42  1  0
 17 43  1  0
 18 44  1  0
 19 45  1  0
 23 46  1  1
 24 47  1  0
 24 48  1  0
 25 49  1  0
 25 50  1  0
 26 51  1  0
 26 52  1  0
 27 53  1  6
 31 54  1  0
 32 55  1  0
M  CHG  3   9  -1  23   1  30  -1
M  END
>  <UniqueID>  (63) 
63

>  <SMILES>  (63) 
CCOC(=O)n1c(C([NH-])=O)cc2ccc(-c3cccc(C(=O)[N@@H+]4CCC[C@H]4C(=O)[O-])c3)cc21

>  <Energy>  (63) 
107.45428523257567

>  <Genealogy>  (63) 
CCOC(=O)n1c(C([NH-])=O)cc2ccc(-c3cccc(C(=O)[NH+]4CCC[C@H]4C(=O)[O-])c3)cc21 (protonated)
CCOC(=O)n1c(C([NH-])=O)cc2ccc(-c3cccc(C(=O)[N@@H+]4CCC[C@H]4C(=O)[O-])c3)cc21 (chirality)
CCOC(=O)n1c(C([NH-])=O)cc2ccc(-c3cccc(C(=O)[N@@H+]4CCC[C@H]4C(=O)[O-])c3)cc21 (3D coordinates assigned)
CCOC(=O)n1c(C([NH-])=O)cc2ccc(-c3cccc(C(=O)[N@@H+]4CCC[C@H]4C(=O)[O-])c3)cc21 (nonaromatic ring conformer: 107.45428523257567 kcal/mol)

>  <smiles>  (63) 
CCOC(=O)n1c(C(N)=O)cc2ccc(-c3cccc(C(=O)N4CCC[C@H]4C(=O)O)c3)cc21

>  <score_type>  (63) 
oracle

>  <origin>  (63) 
adg

>  <m_score__min__energy>  (63) 
-8.8599999999999994

>  <m_primary>  (63) 
energy

$$$$
63:0
     RDKit          3D

 36 38  0  0  0  0  0  0  0  0999 V2000
  143.2190  157.7900  132.6100 N   0  0  0  0  0  0  0  0  0  0  0  0
  143.8180  158.4600  133.7170 C   0  0  0  0  0  0  0  0  0  0  0  0
  143.1490  158.6100  134.7720 O   0  0  0  0  0  0  0  0  0  0  0  0
  145.1530  158.9970  133.6110 N   0  0  0  0  0  0  0  0  0  0  0  0
  145.5160  160.3130  133.6220 C   0  0  0  0  0  0  0  0  0  0  0  0
  144.6190  161.4520  133.8720 C   0  0  0  0  0  0  0  0  0  0  0  0
  143.2050  161.3120  133.7380 N   0  0  0  0  0  0  0  0  0  0  0  0
  145.1010  162.5420  134.2790 O   0  0  0  0  0  0  0  0  0  0  0  0
  146.8620  160.4620  133.3140 C   0  0  0  0  0  0  0  0  0  0  0  0
  147.3370  159.1840  133.1390 C   0  0  0  0  0  0  0  0  0  0  0  0
  148.6220  158.7460  132.8370 C   0  0  0  0  0  0  0  0  0  0  0  0
  148.8390  157.3620  132.7340 C   0  0  0  0  0  0  0  0  0  0  0  0
  147.7780  156.4450  132.9390 C   0  0  0  0  0  0  0  0  0  0  0  0
  148.0240  154.9850  132.8520 C   0  0  0  0  0  0  0  0  0  0  0  0
  149.3200  154.5050  132.5970 C   0  0  0  0  0  0  0  0  0  0  0  0
  149.5640  153.1320  132.5080 C   0  0  0  0  0  0  0  0  0  0  0  0
  148.5150  152.2110  132.6580 C   0  0  0  0  0  0  0  0  0  0  0  0
  148.7880  150.7280  132.6120 C   0  0  0  0  0  0  0  0  0  0  0  0
  147.6360  150.0280  132.2980 F   0  0  0  0  0  0  0  0  0  0  0  0
  149.7470  150.4720  131.6520 F   0  0  0  0  0  0  0  0  0  0  0  0
  149.2450  150.2770  133.8380 F   0  0  0  0  0  0  0  0  0  0  0  0
  147.2250  152.6880  132.9460 C   0  0  0  0  0  0  0  0  0  0  0  0
  146.9780  154.0610  133.0340 C   0  0  0  0  0  0  0  0  0  0  0  0
  145.7240  154.4830  133.3390 F   0  0  0  0  0  0  0  0  0  0  0  0
  146.4850  156.9310  133.2470 C   0  0  0  0  0  0  0  0  0  0  0  0
  146.2900  158.3170  133.3250 C   0  0  0  0  0  0  0  0  0  0  0  0
  142.5240  158.2750  132.0000 H   0  0  0  0  0  0  0  0  0  0  0  0
  142.5770  162.1290  133.9050 H   0  0  0  0  0  0  0  0  0  0  0  0
  142.7800  160.3810  133.5310 H   0  0  0  0  0  0  0  0  0  0  0  0
  147.4272  161.4018  133.2284 H   0  0  0  0  0  0  0  0  0  0  0  0
  149.4433  159.4615  132.6835 H   0  0  0  0  0  0  0  0  0  0  0  0
  149.8438  156.9857  132.4915 H   0  0  0  0  0  0  0  0  0  0  0  0
  150.1491  155.2160  132.4664 H   0  0  0  0  0  0  0  0  0  0  0  0
  150.5854  152.7701  132.3190 H   0  0  0  0  0  0  0  0  0  0  0  0
  146.4025  151.9748  133.1036 H   0  0  0  0  0  0  0  0  0  0  0  0
  145.6506  156.2358  133.4215 H   0  0  0  0  0  0  0  0  0  0  0  0
  1  2  1  0
  2  3  2  0
  2  4  1  0
  4  5  1  0
  5  6  1  0
  6  7  1  0
  6  8  2  0
  5  9  2  0
  9 10  1  0
 10 11  2  0
 11 12  1  0
 12 13  2  0
 13 14  1  0
 14 15  2  0
 15 16  1  0
 16 17  2  0
 17 18  1  0
 18 19  1  0
 18 20  1  0
 18 21  1  0
 17 22  1  0
 22 23  2  0
 23 24  1  0
 13 25  1  0
 25 26  2  0
 26  4  1  0
 26 10  1  0
 23 14  1  0
  1 27  1  0
  7 28  1  0
  7 29  1  0
  9 30  1  0
 11 31  1  0
 12 32  1  0
 15 33  1  0
 16 34  1  0
 22 35  1  0
 25 36  1  0
M  CHG  1   1  -1
M  END
>  <UniqueID>  (64) 
64

>  <SMILES>  (64) 
[NH-]C(=O)n1c(C(N)=O)cc2ccc(-c3ccc(C(F)(F)F)cc3F)cc21

>  <Energy>  (64) 
88.07731549049997

>  <Genealogy>  (64) 
[NH-]C(=O)n1c(C(N)=O)cc2ccc(-c3ccc(C(F)(F)F)cc3F)cc21 (protonated)
[NH-]C(=O)n1c(C(N)=O)cc2ccc(-c3ccc(C(F)(F)F)cc3F)cc21 (3D coordinates assigned)
[NH-]C(=O)n1c(C(N)=O)cc2ccc(-c3ccc(C(F)(F)F)cc3F)cc21 (optimized conformer: 88.07731549049997 kcal/mol)

>  <smiles>  (64) 
NC(=O)c1cc2ccc(-c3ccc(C(F)(F)F)cc3F)cc2n1C(N)=O

>  <score_type>  (64) 
oracle

>  <origin>  (64) 
adg

>  <m_score__min__energy>  (64) 
-7.7400000000000002

>  <m_primary>  (64) 
energy

$$$$
64:0
     RDKit          3D

 36 38  0  0  0  0  0  0  0  0999 V2000
  141.2110  158.6440  132.5550 C   0  0  0  0  0  0  0  0  0  0  0  0
  141.1150  158.6290  134.0590 C   0  0  0  0  0  0  0  0  0  0  0  0
  139.9050  158.2400  134.6570 C   0  0  0  0  0  0  0  0  0  0  0  0
  139.7680  158.2340  136.0470 C   0  0  0  0  0  0  0  0  0  0  0  0
  138.5900  157.8660  136.6100 F   0  0  0  0  0  0  0  0  0  0  0  0
  140.8390  158.6120  136.8560 C   0  0  0  0  0  0  0  0  0  0  0  0
  142.0550  158.9840  136.2790 C   0  0  0  0  0  0  0  0  0  0  0  0
  142.2140  158.9810  134.8830 C   0  0  0  0  0  0  0  0  0  0  0  0
  143.5320  159.3530  134.3200 C   0  0  0  0  0  0  0  0  0  0  0  0
  143.9110  160.7180  134.2450 C   0  0  0  0  0  0  0  0  0  0  0  0
  145.1650  161.0850  133.7310 C   0  0  0  0  0  0  0  0  0  0  0  0
  146.0170  160.0720  133.3010 C   0  0  0  0  0  0  0  0  0  0  0  0
  147.2890  160.1430  132.7820 C   0  0  0  0  0  0  0  0  0  0  0  0
  147.6640  158.8230  132.5400 C   0  0  0  0  0  0  0  0  0  0  0  0
  148.9360  158.4440  131.8890 C   0  0  0  0  0  0  0  0  0  0  0  0
  149.5940  157.2240  132.2220 N   0  0  0  0  0  0  0  0  0  0  0  0
  149.4250  159.1840  130.9940 O   0  0  0  0  0  0  0  0  0  0  0  0
  146.6670  157.9700  132.9050 N   0  0  0  0  0  0  0  0  0  0  0  0
  146.6830  156.5330  132.8910 C   0  0  0  0  0  0  0  0  0  0  0  0
  147.3770  155.8270  131.8620 N   0  0  0  0  0  0  0  0  0  0  0  0
  146.1120  155.8890  133.8110 O   0  0  0  0  0  0  0  0  0  0  0  0
  145.6640  158.7490  133.3630 C   0  0  0  0  0  0  0  0  0  0  0  0
  144.4300  158.3520  133.8870 C   0  0  0  0  0  0  0  0  0  0  0  0
  142.2569  158.8074  132.2559 H   0  0  0  0  0  0  0  0  0  0  0  0
  140.8617  157.6804  132.1557 H   0  0  0  0  0  0  0  0  0  0  0  0
  140.5844  159.4551  132.1557 H   0  0  0  0  0  0  0  0  0  0  0  0
  139.0573  157.9373  134.0247 H   0  0  0  0  0  0  0  0  0  0  0  0
  140.7258  158.6172  137.9502 H   0  0  0  0  0  0  0  0  0  0  0  0
  142.8956  159.2819  136.9229 H   0  0  0  0  0  0  0  0  0  0  0  0
  143.2158  161.4963  134.5928 H   0  0  0  0  0  0  0  0  0  0  0  0
  145.4650  162.1415  133.6700 H   0  0  0  0  0  0  0  0  0  0  0  0
  147.8839  161.0496  132.5972 H   0  0  0  0  0  0  0  0  0  0  0  0
  149.9810  156.6020  131.4780 H   0  0  0  0  0  0  0  0  0  0  0  0
  147.9190  156.3460  131.1370 H   0  0  0  0  0  0  0  0  0  0  0  0
  147.3780  154.7840  131.8470 H   0  0  0  0  0  0  0  0  0  0  0  0
  144.1650  157.2869  133.9602 H   0  0  0  0  0  0  0  0  0  0  0  0
  1  2  1  0
  2  3  2  0
  3  4  1  0
  4  5  1  0
  4  6  2  0
  6  7  1  0
  7  8  2  0
  8  9  1  0
  9 10  2  0
 10 11  1  0
 11 12  2  0
 12 13  1  0
 13 14  2  0
 14 15  1  0
 15 16  1  0
 15 17  2  0
 14 18  1  0
 18 19  1  0
 19 20  1  0
 19 21  2  0
 18 22  1  0
 22 23  2  0
  8  2  1  0
 23  9  1  0
 22 12  1  0
  1 24  1  0
  1 25  1  0
  1 26  1  0
  3 27  1  0
  6 28  1  0
  7 29  1  0
 10 30  1  0
 11 31  1  0
 13 32  1  0
 16 33  1  0
 20 34  1  0
 20 35  1  0
 23 36  1  0
M  CHG  1  16  -1
M  END
>  <UniqueID>  (65) 
65

>  <SMILES>  (65) 
Cc1cc(F)ccc1-c1ccc2cc(C([NH-])=O)n(C(N)=O)c2c1

>  <Energy>  (65) 
84.35589297255939

>  <Genealogy>  (65) 
Cc1cc(F)ccc1-c1ccc2cc(C([NH-])=O)n(C(N)=O)c2c1 (protonated)
Cc1cc(F)ccc1-c1ccc2cc(C([NH-])=O)n(C(N)=O)c2c1 (3D coordinates assigned)
Cc1cc(F)ccc1-c1ccc2cc(C([NH-])=O)n(C(N)=O)c2c1 (optimized conformer: 84.35589297255939 kcal/mol)

>  <smiles>  (65) 
Cc1cc(F)ccc1-c1ccc2cc(C(N)=O)n(C(N)=O)c2c1

>  <score_type>  (65) 
oracle

>  <origin>  (65) 
adg

>  <m_score__min__energy>  (65) 
-7.8600000000000003

>  <m_primary>  (65) 
energy

$$$$
65:0
     RDKit          3D

 29 31  0  0  0  0  0  0  0  0999 V2000
  143.0390  160.8020  133.3690 N   0  0  0  0  0  0  0  0  0  0  0  0
  144.4040  160.9980  133.7340 C   0  0  0  0  0  0  0  0  0  0  0  0
  144.7490  162.0830  134.2710 O   0  0  0  0  0  0  0  0  0  0  0  0
  145.4000  159.9450  133.4410 C   0  0  0  0  0  0  0  0  0  0  0  0
  146.7460  160.2120  133.1940 C   0  0  0  0  0  0  0  0  0  0  0  0
  147.3420  158.9800  133.0590 C   0  0  0  0  0  0  0  0  0  0  0  0
  148.6690  158.6540  132.7980 C   0  0  0  0  0  0  0  0  0  0  0  0
  149.0050  157.2950  132.6840 C   0  0  0  0  0  0  0  0  0  0  0  0
  148.0120  156.2870  132.8170 C   0  0  0  0  0  0  0  0  0  0  0  0
  148.3570  154.8470  132.6930 C   0  0  0  0  0  0  0  0  0  0  0  0
  147.4180  153.8330  132.9440 C   0  0  0  0  0  0  0  0  0  0  0  0
  147.8010  152.4990  132.8150 C   0  0  0  0  0  0  0  0  0  0  0  0
  149.1090  152.2000  132.4470 C   0  0  0  0  0  0  0  0  0  0  0  0
  149.6300  150.5360  132.2780 Cl  0  0  0  0  0  0  0  0  0  0  0  0
  149.9890  153.2100  132.2250 N   0  0  0  0  0  0  0  0  0  0  0  0
  149.6250  154.4880  132.3460 N   0  0  0  0  0  0  0  0  0  0  0  0
  146.6750  156.6630  133.0930 C   0  0  0  0  0  0  0  0  0  0  0  0
  146.3750  158.0240  133.2190 C   0  0  0  0  0  0  0  0  0  0  0  0
  145.1740  158.6000  133.4520 N   0  0  0  0  0  0  0  0  0  0  0  0
  143.9190  157.9170  133.6110 C   0  0  0  0  0  0  0  0  0  0  0  0
  143.0590  157.9440  132.6930 O   0  0  0  0  0  0  0  0  0  0  0  0
  143.6530  157.2020  134.7710 O   0  0  0  0  0  0  0  0  0  0  0  0
  142.7730  160.1070  132.6380 H   0  0  0  0  0  0  0  0  0  0  0  0
  147.2284  161.1980  133.1224 H   0  0  0  0  0  0  0  0  0  0  0  0
  149.4327  159.4375  132.6843 H   0  0  0  0  0  0  0  0  0  0  0  0
  150.0488  157.0075  132.4895 H   0  0  0  0  0  0  0  0  0  0  0  0
  146.3899  154.0893  133.2396 H   0  0  0  0  0  0  0  0  0  0  0  0
  147.0774  151.6919  133.0020 H   0  0  0  0  0  0  0  0  0  0  0  0
  145.8891  155.9016  133.2059 H   0  0  0  0  0  0  0  0  0  0  0  0
  1  2  1  0
  2  3  2  0
  2  4  1  0
  4  5  2  0
  5  6  1  0
  6  7  2  0
  7  8  1  0
  8  9  2  0
  9 10  1  0
 10 11  2  0
 11 12  1  0
 12 13  2  0
 13 14  1  0
 13 15  1  0
 15 16  2  0
  9 17  1  0
 17 18  2  0
 18 19  1  0
 19 20  1  0
 20 21  2  0
 20 22  1  0
 19  4  1  0
 18  6  1  0
 16 10  1  0
  1 23  1  0
  5 24  1  0
  7 25  1  0
  8 26  1  0
 11 27  1  0
 12 28  1  0
 17 29  1  0
M  CHG  2   1  -1  22  -1
M  END
>  <UniqueID>  (66) 
66

>  <SMILES>  (66) 
[NH-]C(=O)c1cc2ccc(-c3ccc(Cl)nn3)cc2n1C(=O)[O-]

>  <Energy>  (66) 
76.55933707619006

>  <Genealogy>  (66) 
[NH-]C(=O)c1cc2ccc(-c3ccc(Cl)nn3)cc2n1C(=O)[O-] (protonated)
[NH-]C(=O)c1cc2ccc(-c3ccc(Cl)nn3)cc2n1C(=O)[O-] (3D coordinates assigned)
[NH-]C(=O)c1cc2ccc(-c3ccc(Cl)nn3)cc2n1C(=O)[O-] (optimized conformer: 76.55933707619006 kcal/mol)

>  <smiles>  (66) 
NC(=O)c1cc2ccc(-c3ccc(Cl)nn3)cc2n1C(=O)O

>  <score_type>  (66) 
oracle

>  <origin>  (66) 
adg

>  <m_score__min__energy>  (66) 
-7.7199999999999998

>  <m_primary>  (66) 
energy

$$$$
66:0
     RDKit          3D

 36 37  0  0  0  0  0  0  0  0999 V2000
  149.5990  161.4260  130.2860 C   0  0  0  0  0  0  0  0  0  0  0  0
  148.6010  160.2920  130.0870 C   0  0  0  0  0  0  0  0  0  0  0  0
  149.2020  159.0360  130.3920 O   0  0  0  0  0  0  0  0  0  0  0  0
  149.5920  158.6630  131.6830 C   0  0  0  0  0  0  0  0  0  0  0  0
  150.3660  157.6830  131.8670 O   0  0  0  0  0  0  0  0  0  0  0  0
  149.1240  159.4680  132.8500 C   0  0  0  0  0  0  0  0  0  0  0  0
  147.7030  159.1060  133.1790 C   0  0  0  0  0  0  0  0  0  0  0  0
  147.3060  157.7460  133.2180 C   0  0  0  0  0  0  0  0  0  0  0  0
  145.9740  157.3950  133.4900 C   0  0  0  0  0  0  0  0  0  0  0  0
  145.0600  158.4230  133.7050 C   0  0  0  0  0  0  0  0  0  0  0  0
  143.7150  158.3710  133.9940 C   0  0  0  0  0  0  0  0  0  0  0  0
  143.3070  159.6990  134.0970 C   0  0  0  0  0  0  0  0  0  0  0  0
  141.9050  160.1110  134.3120 C   0  0  0  0  0  0  0  0  0  0  0  0
  141.2150  160.8390  133.2980 N   0  0  0  0  0  0  0  0  0  0  0  0
  141.3170  159.8550  135.3950 O   0  0  0  0  0  0  0  0  0  0  0  0
  144.3610  160.5390  133.8910 N   0  0  0  0  0  0  0  0  0  0  0  0
  144.3810  161.9740  133.9620 C   0  0  0  0  0  0  0  0  0  0  0  0
  145.4840  162.6920  134.6710 C   0  0  0  0  0  0  0  0  0  0  0  0
  143.4920  162.6410  133.3690 O   0  0  0  0  0  0  0  0  0  0  0  0
  145.4240  159.7440  133.6460 C   0  0  0  0  0  0  0  0  0  0  0  0
  146.7450  160.1220  133.3900 C   0  0  0  0  0  0  0  0  0  0  0  0
  149.7497  161.5972  131.3621 H   0  0  0  0  0  0  0  0  0  0  0  0
  150.5581  161.1564  129.8198 H   0  0  0  0  0  0  0  0  0  0  0  0
  149.2097  162.3431  129.8198 H   0  0  0  0  0  0  0  0  0  0  0  0
  147.7373  160.4500  130.7497 H   0  0  0  0  0  0  0  0  0  0  0  0
  148.2774  160.2845  129.0357 H   0  0  0  0  0  0  0  0  0  0  0  0
  149.7651  159.2587  133.7190 H   0  0  0  0  0  0  0  0  0  0  0  0
  149.1783  160.5377  132.5995 H   0  0  0  0  0  0  0  0  0  0  0  0
  148.0496  156.9568  133.0331 H   0  0  0  0  0  0  0  0  0  0  0  0
  145.6624  156.3409  133.5319 H   0  0  0  0  0  0  0  0  0  0  0  0
  143.0940  157.4715  134.1174 H   0  0  0  0  0  0  0  0  0  0  0  0
  141.6870  161.6130  132.7790 H   0  0  0  0  0  0  0  0  0  0  0  0
  145.3423  162.5998  135.7579 H   0  0  0  0  0  0  0  0  0  0  0  0
  146.4506  162.2496  134.3884 H   0  0  0  0  0  0  0  0  0  0  0  0
  145.4707  163.7550  134.3884 H   0  0  0  0  0  0  0  0  0  0  0  0
  147.0311  161.1835  133.3538 H   0  0  0  0  0  0  0  0  0  0  0  0
  1  2  1  0
  2  3  1  0
  3  4  1  0
  4  5  2  0
  4  6  1  0
  6  7  1  0
  7  8  2  0
  8  9  1  0
  9 10  2  0
 10 11  1  0
 11 12  2  0
 12 13  1  0
 13 14  1  0
 13 15  2  0
 12 16  1  0
 16 17  1  0
 17 18  1  0
 17 19  2  0
 16 20  1  0
 20 21  2  0
 21  7  1  0
 20 10  1  0
  1 22  1  0
  1 23  1  0
  1 24  1  0
  2 25  1  0
  2 26  1  0
  6 27  1  0
  6 28  1  0
  8 29  1  0
  9 30  1  0
 11 31  1  0
 14 32  1  0
 18 33  1  0
 18 34  1  0
 18 35  1  0
 21 36  1  0
M  CHG  1  14  -1
M  END
>  <UniqueID>  (67) 
67

>  <SMILES>  (67) 
CCOC(=O)Cc1ccc2cc(C([NH-])=O)n(C(C)=O)c2c1

>  <Energy>  (67) 
68.33305871301044

>  <Genealogy>  (67) 
CCOC(=O)Cc1ccc2cc(C([NH-])=O)n(C(C)=O)c2c1 (protonated)
CCOC(=O)Cc1ccc2cc(C([NH-])=O)n(C(C)=O)c2c1 (3D coordinates assigned)
CCOC(=O)Cc1ccc2cc(C([NH-])=O)n(C(C)=O)c2c1 (optimized conformer: 68.33305871301044 kcal/mol)

>  <smiles>  (67) 
CCOC(=O)Cc1ccc2cc(C(N)=O)n(C(C)=O)c2c1

>  <score_type>  (67) 
oracle

>  <origin>  (67) 
adg

>  <m_score__min__energy>  (67) 
-6.7199999999999998

>  <m_primary>  (67) 
energy

$$$$
67:0
     RDKit          3D

 46 49  0  0  0  0  0  0  0  0999 V2000
  144.9780  154.7090  134.5520 C   0  0  0  0  0  0  0  0  0  0  0  0
  146.2570  154.3840  133.8250 C   0  0  0  0  0  0  0  0  0  0  0  0
  146.6270  153.0680  133.6970 N   0  0  0  0  0  0  0  0  0  0  0  0
  147.7620  152.7580  133.0230 C   0  0  0  0  0  0  0  0  0  0  0  0
  148.2450  151.5230  132.8080 N   0  0  0  0  0  0  0  0  0  0  0  0
  149.3810  151.7080  132.0970 C   0  0  0  0  0  0  0  0  0  0  0  0
  150.4110  150.4000  131.5510 Cl  0  0  0  0  0  0  0  0  0  0  0  0
  149.6160  153.0600  131.8620 C   0  0  0  0  0  0  0  0  0  0  0  0
  148.5630  153.7090  132.4660 C   0  0  0  0  0  0  0  0  0  0  0  0
  148.2550  155.0570  132.5710 C   0  0  0  0  0  0  0  0  0  0  0  0
  147.0870  155.4150  133.2780 C   0  0  0  0  0  0  0  0  0  0  0  0
  146.7580  156.8500  133.4200 C   0  0  0  0  0  0  0  0  0  0  0  0
  147.7910  157.8150  133.5360 C   0  0  0  0  0  0  0  0  0  0  0  0
  147.4850  159.1790  133.6700 C   0  0  0  0  0  0  0  0  0  0  0  0
  146.1430  159.5490  133.6670 C   0  0  0  0  0  0  0  0  0  0  0  0
  145.5670  160.7920  133.7980 C   0  0  0  0  0  0  0  0  0  0  0  0
  144.1930  160.5730  133.7230 C   0  0  0  0  0  0  0  0  0  0  0  0
  143.1940  161.6620  133.7290 C   0  0  0  0  0  0  0  0  0  0  0  0
  141.8020  161.3800  133.8340 N   0  0  0  0  0  0  0  0  0  0  0  0
  143.5740  162.8560  133.5920 O   0  0  0  0  0  0  0  0  0  0  0  0
  143.9300  159.2440  133.5630 N   0  0  0  0  0  0  0  0  0  0  0  0
  142.6480  158.5980  133.5170 C   0  0  0  0  0  0  0  0  0  0  0  0
  141.7860  158.9690  132.6740 O   0  0  0  0  0  0  0  0  0  0  0  0
  142.3530  157.5800  134.4310 O   0  0  0  0  0  0  0  0  0  0  0  0
  141.0260  157.2390  134.8270 C   0  0  0  0  0  0  0  0  0  0  0  0
  140.5390  158.1560  135.9470 C   0  0  0  0  0  0  0  0  0  0  0  0
  140.8940  159.4810  135.6620 O   0  0  0  0  0  0  0  0  0  0  0  0
  145.1330  158.6320  133.5250 C   0  0  0  0  0  0  0  0  0  0  0  0
  145.4090  157.2650  133.4110 C   0  0  0  0  0  0  0  0  0  0  0  0
  145.1517  154.6648  135.6373 H   0  0  0  0  0  0  0  0  0  0  0  0
  144.6454  155.7202  134.2747 H   0  0  0  0  0  0  0  0  0  0  0  0
  144.2030  153.9792  134.2747 H   0  0  0  0  0  0  0  0  0  0  0  0
  146.0430  152.3040  134.1030 H   0  0  0  0  0  0  0  0  0  0  0  0
  147.8330  150.6160  133.1210 H   0  0  0  0  0  0  0  0  0  0  0  0
  150.4573  153.5101  131.3146 H   0  0  0  0  0  0  0  0  0  0  0  0
  148.9008  155.8234  132.1175 H   0  0  0  0  0  0  0  0  0  0  0  0
  148.8423  157.4917  133.5208 H   0  0  0  0  0  0  0  0  0  0  0  0
  148.2807  159.9314  133.7740 H   0  0  0  0  0  0  0  0  0  0  0  0
  146.0822  161.7545  133.9333 H   0  0  0  0  0  0  0  0  0  0  0  0
  141.4490  160.3980  133.8180 H   0  0  0  0  0  0  0  0  0  0  0  0
  140.3547  157.3398  133.9614 H   0  0  0  0  0  0  0  0  0  0  0  0
  141.0245  156.2026  135.1956 H   0  0  0  0  0  0  0  0  0  0  0  0
  139.4448  158.0809  136.0310 H   0  0  0  0  0  0  0  0  0  0  0  0
  141.0048  157.8506  136.8956 H   0  0  0  0  0  0  0  0  0  0  0  0
  141.2420  159.4770  134.7330 H   0  0  0  0  0  0  0  0  0  0  0  0
  144.5945  156.5317  133.3167 H   0  0  0  0  0  0  0  0  0  0  0  0
  1  2  1  0
  2  3  2  0
  3  4  1  0
  4  5  1  0
  5  6  1  0
  6  7  1  0
  6  8  2  0
  8  9  1  0
  9 10  1  0
 10 11  2  0
 11 12  1  0
 12 13  2  0
 13 14  1  0
 14 15  2  0
 15 16  1  0
 16 17  2  0
 17 18  1  0
 18 19  1  0
 18 20  2  0
 17 21  1  0
 21 22  1  0
 22 23  2  0
 22 24  1  0
 24 25  1  0
 25 26  1  0
 26 27  1  0
 21 28  1  0
 28 29  2  0
 11  2  1  0
 29 12  1  0
  9  4  2  0
 28 15  1  0
  1 30  1  0
  1 31  1  0
  1 32  1  0
  3 33  1  0
  5 34  1  0
  8 35  1  0
 10 36  1  0
 13 37  1  0
 14 38  1  0
 16 39  1  0
 19 40  1  0
 25 41  1  0
 25 42  1  0
 26 43  1  0
 26 44  1  0
 27 45  1  0
 29 46  1  0
M  CHG  2   3   1  19  -1
M  END
>  <UniqueID>  (68) 
68

>  <SMILES>  (68) 
Cc1[nH+]c2[nH]c(Cl)cc2cc1-c1ccc2cc(C([NH-])=O)n(C(=O)OCCO)c2c1

>  <Energy>  (68) 
125.95454430757346

>  <Genealogy>  (68) 
Cc1[nH+]c2[nH]c(Cl)cc2cc1-c1ccc2cc(C([NH-])=O)n(C(=O)OCCO)c2c1 (protonated)
Cc1[nH+]c2[nH]c(Cl)cc2cc1-c1ccc2cc(C([NH-])=O)n(C(=O)OCCO)c2c1 (3D coordinates assigned)
Cc1[nH+]c2[nH]c(Cl)cc2cc1-c1ccc2cc(C([NH-])=O)n(C(=O)OCCO)c2c1 (optimized conformer: 125.95454430757346 kcal/mol)

>  <smiles>  (68) 
Cc1nc2[nH]c(Cl)cc2cc1-c1ccc2cc(C(N)=O)n(C(=O)OCCO)c2c1

>  <score_type>  (68) 
oracle

>  <origin>  (68) 
adg

>  <m_score__min__energy>  (68) 
-7.7999999999999998

>  <m_primary>  (68) 
energy

$$$$
68:0
     RDKit          3D

 36 38  0  0  0  0  0  0  0  0999 V2000
  148.9970  158.4220  131.3460 N   0  0  0  0  0  0  0  0  0  0  0  0
  148.6730  158.9390  132.6330 C   0  0  0  0  0  0  0  0  0  0  0  0
  149.6020  159.2170  133.4380 O   0  0  0  0  0  0  0  0  0  0  0  0
  147.2700  159.2050  133.0170 C   0  0  0  0  0  0  0  0  0  0  0  0
  146.7580  160.4870  133.2080 C   0  0  0  0  0  0  0  0  0  0  0  0
  145.4190  160.3090  133.4690 C   0  0  0  0  0  0  0  0  0  0  0  0
  144.4300  161.2460  133.7490 C   0  0  0  0  0  0  0  0  0  0  0  0
  143.1340  160.7780  134.0130 C   0  0  0  0  0  0  0  0  0  0  0  0
  142.8440  159.3870  134.0070 C   0  0  0  0  0  0  0  0  0  0  0  0
  141.5090  158.9150  134.2920 N   0  0  0  0  0  0  0  0  0  0  0  0
  140.8750  159.1910  135.5870 C   0  0  0  0  0  0  0  0  0  0  0  0
  139.8740  158.0790  135.9310 C   0  0  0  0  0  0  0  0  0  0  0  0
  138.8600  157.8560  134.8800 N   0  0  0  0  0  0  0  0  0  0  0  0
  139.2420  158.3240  133.5360 C   0  0  0  0  0  0  0  0  0  0  0  0
  140.7440  158.1840  133.2720 C   0  0  0  0  0  0  0  0  0  0  0  0
  143.8810  158.4680  133.7180 C   0  0  0  0  0  0  0  0  0  0  0  0
  145.1590  158.9640  133.4370 C   0  0  0  0  0  0  0  0  0  0  0  0
  146.2870  158.2710  133.1630 N   0  0  0  0  0  0  0  0  0  0  0  0
  146.4190  156.8410  133.1230 C   0  0  0  0  0  0  0  0  0  0  0  0
  147.3640  156.2310  132.2480 N   0  0  0  0  0  0  0  0  0  0  0  0
  145.6900  156.1180  133.8530 O   0  0  0  0  0  0  0  0  0  0  0  0
  148.8180  157.4210  131.1070 H   0  0  0  0  0  0  0  0  0  0  0  0
  147.3075  161.4387  133.1602 H   0  0  0  0  0  0  0  0  0  0  0  0
  144.6572  162.3222  133.7630 H   0  0  0  0  0  0  0  0  0  0  0  0
  142.3308  161.4983  134.2277 H   0  0  0  0  0  0  0  0  0  0  0  0
  141.6482  159.2390  136.3679 H   0  0  0  0  0  0  0  0  0  0  0  0
  140.3414  160.1512  135.5297 H   0  0  0  0  0  0  0  0  0  0  0  0
  140.4313  157.1427  136.0819 H   0  0  0  0  0  0  0  0  0  0  0  0
  139.3374  158.3946  136.8379 H   0  0  0  0  0  0  0  0  0  0  0  0
  137.9780  158.3510  135.1550 H   0  0  0  0  0  0  0  0  0  0  0  0
  138.6954  157.7316  132.7875 H   0  0  0  0  0  0  0  0  0  0  0  0
  138.9887  159.3924  133.4692 H   0  0  0  0  0  0  0  0  0  0  0  0
  141.0208  157.1199  133.3035 H   0  0  0  0  0  0  0  0  0  0  0  0
  140.9749  158.6030  132.2815 H   0  0  0  0  0  0  0  0  0  0  0  0
  143.6862  157.3854  133.7144 H   0  0  0  0  0  0  0  0  0  0  0  0
  147.7090  156.7290  131.3970 H   0  0  0  0  0  0  0  0  0  0  0  0
  1  2  1  0
  2  3  2  0
  2  4  1  0
  4  5  2  0
  5  6  1  0
  6  7  2  0
  7  8  1  0
  8  9  2  0
  9 10  1  0
 10 11  1  0
 11 12  1  0
 12 13  1  0
 13 14  1  0
 14 15  1  0
  9 16  1  0
 16 17  2  0
 17 18  1  0
 18 19  1  0
 19 20  1  0
 19 21  2  0
 18  4  1  0
 17  6  1  0
 15 10  1  0
  1 22  1  0
  5 23  1  0
  7 24  1  0
  8 25  1  0
 11 26  1  0
 11 27  1  0
 12 28  1  0
 12 29  1  0
 13 30  1  0
 14 31  1  0
 14 32  1  0
 15 33  1  0
 15 34  1  0
 16 35  1  0
 20 36  1  0
M  CHG  2   1  -1  20  -1
M  END
>  <UniqueID>  (69) 
69

>  <SMILES>  (69) 
[NH-]C(=O)c1cc2ccc(N3CCNCC3)cc2n1C([NH-])=O

>  <Energy>  (69) 
84.42901344200003

>  <Genealogy>  (69) 
[NH-]C(=O)c1cc2ccc(N3CCNCC3)cc2n1C([NH-])=O (protonated)
[NH-]C(=O)c1cc2ccc(N3CCNCC3)cc2n1C([NH-])=O (3D coordinates assigned)
[NH-]C(=O)c1cc2ccc(N3CCNCC3)cc2n1C([NH-])=O (nonaromatic ring conformer: 84.42901344200003 kcal/mol)

>  <smiles>  (69) 
NC(=O)c1cc2ccc(N3CCNCC3)cc2n1C(N)=O

>  <score_type>  (69) 
oracle

>  <origin>  (69) 
adg

>  <m_score__min__energy>  (69) 
-7.0599999999999996

>  <m_primary>  (69) 
energy

$$$$
69:0
     RDKit          3D

 33 35  0  0  0  0  0  0  0  0999 V2000
  141.3400  158.5280  137.1870 C   0  0  0  0  0  0  0  0  0  0  0  0
  140.6290  158.3670  135.8830 C   0  0  0  0  0  0  0  0  0  0  0  0
  139.3620  157.9180  135.7790 N   0  0  0  0  0  0  0  0  0  0  0  0
  139.0650  157.9020  134.5110 O   0  0  0  0  0  0  0  0  0  0  0  0
  140.0750  158.3090  133.7780 C   0  0  0  0  0  0  0  0  0  0  0  0
  140.0380  158.3970  132.2860 C   0  0  0  0  0  0  0  0  0  0  0  0
  141.1290  158.6300  134.6170 C   0  0  0  0  0  0  0  0  0  0  0  0
  142.4700  159.1290  134.2480 C   0  0  0  0  0  0  0  0  0  0  0  0
  142.6900  160.5190  134.0800 C   0  0  0  0  0  0  0  0  0  0  0  0
  143.9630  161.0080  133.7430 C   0  0  0  0  0  0  0  0  0  0  0  0
  144.9920  160.0870  133.5740 C   0  0  0  0  0  0  0  0  0  0  0  0
  146.3200  160.2880  133.2750 C   0  0  0  0  0  0  0  0  0  0  0  0
  146.8870  159.0170  133.2400 C   0  0  0  0  0  0  0  0  0  0  0  0
  148.2960  158.7670  132.8670 C   0  0  0  0  0  0  0  0  0  0  0  0
  148.6260  158.0310  131.6930 N   0  0  0  0  0  0  0  0  0  0  0  0
  149.2220  159.2540  133.5700 O   0  0  0  0  0  0  0  0  0  0  0  0
  145.9500  158.0660  133.5150 N   0  0  0  0  0  0  0  0  0  0  0  0
  146.1450  156.6490  133.6630 C   0  0  0  0  0  0  0  0  0  0  0  0
  146.7980  156.0040  132.8010 O   0  0  0  0  0  0  0  0  0  0  0  0
  145.6370  155.9840  134.7710 O   0  0  0  0  0  0  0  0  0  0  0  0
  144.7940  158.7380  133.7150 C   0  0  0  0  0  0  0  0  0  0  0  0
  143.5400  158.2250  134.0680 C   0  0  0  0  0  0  0  0  0  0  0  0
  140.6316  158.3676  138.0131 H   0  0  0  0  0  0  0  0  0  0  0  0
  142.1543  157.7915  137.2540 H   0  0  0  0  0  0  0  0  0  0  0  0
  141.7576  159.5434  137.2540 H   0  0  0  0  0  0  0  0  0  0  0  0
  139.6277  159.3726  131.9863 H   0  0  0  0  0  0  0  0  0  0  0  0
  141.0574  158.2897  131.8870 H   0  0  0  0  0  0  0  0  0  0  0  0
  139.4016  157.5934  131.8870 H   0  0  0  0  0  0  0  0  0  0  0  0
  141.8551  161.2223  134.2149 H   0  0  0  0  0  0  0  0  0  0  0  0
  144.1408  162.0861  133.6166 H   0  0  0  0  0  0  0  0  0  0  0  0
  146.8262  161.2489  133.1006 H   0  0  0  0  0  0  0  0  0  0  0  0
  148.1660  157.1170  131.4860 H   0  0  0  0  0  0  0  0  0  0  0  0
  143.3917  157.1433  134.2020 H   0  0  0  0  0  0  0  0  0  0  0  0
  1  2  1  0
  2  3  2  0
  3  4  1  0
  4  5  1  0
  5  6  1  0
  5  7  2  0
  7  8  1  0
  8  9  2  0
  9 10  1  0
 10 11  2  0
 11 12  1  0
 12 13  2  0
 13 14  1  0
 14 15  1  0
 14 16  2  0
 13 17  1  0
 17 18  1  0
 18 19  2  0
 18 20  1  0
 17 21  1  0
 21 22  2  0
  7  2  1  0
 22  8  1  0
 21 11  1  0
  1 23  1  0
  1 24  1  0
  1 25  1  0
  6 26  1  0
  6 27  1  0
  6 28  1  0
  9 29  1  0
 10 30  1  0
 12 31  1  0
 15 32  1  0
 22 33  1  0
M  CHG  2  15  -1  20  -1
M  END
>  <UniqueID>  (70) 
70

>  <SMILES>  (70) 
Cc1noc(C)c1-c1ccc2cc(C([NH-])=O)n(C(=O)[O-])c2c1

>  <Energy>  (70) 
108.86644992459739

>  <Genealogy>  (70) 
Cc1noc(C)c1-c1ccc2cc(C([NH-])=O)n(C(=O)[O-])c2c1 (protonated)
Cc1noc(C)c1-c1ccc2cc(C([NH-])=O)n(C(=O)[O-])c2c1 (3D coordinates assigned)
Cc1noc(C)c1-c1ccc2cc(C([NH-])=O)n(C(=O)[O-])c2c1 (optimized conformer: 108.86644992459739 kcal/mol)

>  <smiles>  (70) 
Cc1noc(C)c1-c1ccc2cc(C(N)=O)n(C(=O)O)c2c1

>  <score_type>  (70) 
oracle

>  <origin>  (70) 
adg

>  <m_score__min__energy>  (70) 
-7.1799999999999997

>  <m_primary>  (70) 
energy

$$$$
70:0
     RDKit          3D

 33 34  0  0  0  0  0  0  0  0999 V2000
  149.3770  160.6370  130.3120 C   0  0  0  0  0  0  0  0  0  0  0  0
  149.2680  159.3360  130.5960 C   0  0  0  0  0  0  0  0  0  0  0  0
  149.9050  158.7380  131.8200 C   0  0  0  0  0  0  0  0  0  0  0  0
  148.8970  157.9100  132.6230 C   0  0  0  0  0  0  0  0  0  0  0  0
  147.7210  158.7570  133.0270 C   0  0  0  0  0  0  0  0  0  0  0  0
  147.9110  160.1180  133.3760 C   0  0  0  0  0  0  0  0  0  0  0  0
  146.8160  160.9320  133.7090 C   0  0  0  0  0  0  0  0  0  0  0  0
  145.5480  160.3600  133.6850 C   0  0  0  0  0  0  0  0  0  0  0  0
  144.3170  160.9260  133.9250 C   0  0  0  0  0  0  0  0  0  0  0  0
  143.3930  159.9000  133.7320 C   0  0  0  0  0  0  0  0  0  0  0  0
  141.9400  160.0580  133.9480 C   0  0  0  0  0  0  0  0  0  0  0  0
  141.0280  160.0540  132.8530 N   0  0  0  0  0  0  0  0  0  0  0  0
  141.4920  160.1600  135.1220 O   0  0  0  0  0  0  0  0  0  0  0  0
  144.0300  158.7470  133.3820 N   0  0  0  0  0  0  0  0  0  0  0  0
  143.4370  157.4880  133.0240 C   0  0  0  0  0  0  0  0  0  0  0  0
  142.2480  157.4490  132.2340 N   0  0  0  0  0  0  0  0  0  0  0  0
  143.9610  156.4110  133.4140 O   0  0  0  0  0  0  0  0  0  0  0  0
  145.3470  159.0440  133.3570 C   0  0  0  0  0  0  0  0  0  0  0  0
  146.4170  158.2160  133.0010 C   0  0  0  0  0  0  0  0  0  0  0  0
  148.8995  161.0447  129.4088 H   0  0  0  0  0  0  0  0  0  0  0  0
  149.9442  161.3004  130.9814 H   0  0  0  0  0  0  0  0  0  0  0  0
  148.6975  158.6854  129.9168 H   0  0  0  0  0  0  0  0  0  0  0  0
  150.7367  158.0882  131.5101 H   0  0  0  0  0  0  0  0  0  0  0  0
  150.2685  159.5571  132.4580 H   0  0  0  0  0  0  0  0  0  0  0  0
  148.5436  157.0714  132.0050 H   0  0  0  0  0  0  0  0  0  0  0  0
  149.3906  157.5314  133.5302 H   0  0  0  0  0  0  0  0  0  0  0  0
  148.9265  160.5407  133.3861 H   0  0  0  0  0  0  0  0  0  0  0  0
  146.9565  161.9887  133.9803 H   0  0  0  0  0  0  0  0  0  0  0  0
  144.1065  161.9676  134.2091 H   0  0  0  0  0  0  0  0  0  0  0  0
  141.3380  159.7700  131.8970 H   0  0  0  0  0  0  0  0  0  0  0  0
  141.8370  158.3280  131.8510 H   0  0  0  0  0  0  0  0  0  0  0  0
  141.8010  156.5350  131.9990 H   0  0  0  0  0  0  0  0  0  0  0  0
  146.2467  157.1695  132.7081 H   0  0  0  0  0  0  0  0  0  0  0  0
  1  2  2  0
  2  3  1  0
  3  4  1  0
  4  5  1  0
  5  6  2  0
  6  7  1  0
  7  8  2  0
  8  9  1  0
  9 10  2  0
 10 11  1  0
 11 12  1  0
 11 13  2  0
 10 14  1  0
 14 15  1  0
 15 16  1  0
 15 17  2  0
 14 18  1  0
 18 19  2  0
 19  5  1  0
 18  8  1  0
  1 20  1  0
  1 21  1  0
  2 22  1  0
  3 23  1  0
  3 24  1  0
  4 25  1  0
  4 26  1  0
  6 27  1  0
  7 28  1  0
  9 29  1  0
 12 30  1  0
 16 31  1  0
 16 32  1  0
 19 33  1  0
M  CHG  1  12  -1
M  END
>  <UniqueID>  (71) 
71

>  <SMILES>  (71) 
C=CCCc1ccc2cc(C([NH-])=O)n(C(N)=O)c2c1

>  <Energy>  (71) 
65.93301049423012

>  <Genealogy>  (71) 
C=CCCc1ccc2cc(C([NH-])=O)n(C(N)=O)c2c1 (protonated)
C=CCCc1ccc2cc(C([NH-])=O)n(C(N)=O)c2c1 (3D coordinates assigned)
C=CCCc1ccc2cc(C([NH-])=O)n(C(N)=O)c2c1 (optimized conformer: 65.93301049423012 kcal/mol)

>  <smiles>  (71) 
C=CCCc1ccc2cc(C(N)=O)n(C(N)=O)c2c1

>  <score_type>  (71) 
oracle

>  <origin>  (71) 
adg

>  <m_score__min__energy>  (71) 
-7.2300000000000004

>  <m_primary>  (71) 
energy

$$$$
71:0
     RDKit          3D

 39 40  0  0  0  0  0  0  0  0999 V2000
  149.5690  158.9860  131.1580 C   0  0  0  0  0  0  0  0  0  0  0  0
  148.5780  160.1430  131.0570 C   0  0  0  0  0  0  0  0  0  0  0  0
  149.2700  161.3940  130.5100 C   0  0  0  0  0  0  0  0  0  0  0  0
  148.0470  160.4060  132.3560 O   0  0  0  0  0  0  0  0  0  0  0  0
  147.9620  159.4470  133.3710 C   0  0  0  0  0  0  0  0  0  0  0  0
  148.8710  159.3560  134.2420 O   0  0  0  0  0  0  0  0  0  0  0  0
  146.8420  158.5490  133.4020 N   0  0  0  0  0  0  0  0  0  0  0  0
  145.5280  158.8460  133.6060 C   0  0  0  0  0  0  0  0  0  0  0  0
  144.9510  160.2010  133.7370 C   0  0  0  0  0  0  0  0  0  0  0  0
  145.8010  161.3070  134.0300 N   0  0  0  0  0  0  0  0  0  0  0  0
  143.7120  160.3880  133.6260 O   0  0  0  0  0  0  0  0  0  0  0  0
  144.7580  157.6830  133.5880 C   0  0  0  0  0  0  0  0  0  0  0  0
  145.6480  156.6590  133.3570 C   0  0  0  0  0  0  0  0  0  0  0  0
  145.4260  155.2900  133.2300 C   0  0  0  0  0  0  0  0  0  0  0  0
  146.5380  154.4620  132.9990 C   0  0  0  0  0  0  0  0  0  0  0  0
  147.8430  155.0110  132.9210 C   0  0  0  0  0  0  0  0  0  0  0  0
  149.0260  154.1180  132.6510 C   0  0  0  0  0  0  0  0  0  0  0  0
  148.8820  152.7590  133.3480 C   0  0  0  0  0  0  0  0  0  0  0  0
  149.6280  151.6810  132.6220 C   0  0  0  0  0  0  0  0  0  0  0  0
  150.2940  150.8270  133.2650 O   0  0  0  0  0  0  0  0  0  0  0  0
  149.6240  151.6450  131.2330 O   0  0  0  0  0  0  0  0  0  0  0  0
  148.0270  156.4050  133.0520 C   0  0  0  0  0  0  0  0  0  0  0  0
  146.8980  157.2070  133.2530 C   0  0  0  0  0  0  0  0  0  0  0  0
  149.7624  158.7602  132.2171 H   0  0  0  0  0  0  0  0  0  0  0  0
  149.1472  158.0978  130.6649 H   0  0  0  0  0  0  0  0  0  0  0  0
  150.5115  159.2663  130.6649 H   0  0  0  0  0  0  0  0  0  0  0  0
  147.7651  159.8714  130.3675 H   0  0  0  0  0  0  0  0  0  0  0  0
  149.6152  162.0180  131.3476 H   0  0  0  0  0  0  0  0  0  0  0  0
  150.1320  161.0968  129.8947 H   0  0  0  0  0  0  0  0  0  0  0  0
  148.5602  161.9662  129.8947 H   0  0  0  0  0  0  0  0  0  0  0  0
  146.5430  161.6070  133.3590 H   0  0  0  0  0  0  0  0  0  0  0  0
  143.6701  157.6016  133.7286 H   0  0  0  0  0  0  0  0  0  0  0  0
  144.4123  154.8700  133.3080 H   0  0  0  0  0  0  0  0  0  0  0  0
  146.3946  153.3782  132.8776 H   0  0  0  0  0  0  0  0  0  0  0  0
  149.1095  153.9552  131.5663 H   0  0  0  0  0  0  0  0  0  0  0  0
  149.9259  154.6122  133.0460 H   0  0  0  0  0  0  0  0  0  0  0  0
  149.2781  152.8395  134.3710 H   0  0  0  0  0  0  0  0  0  0  0  0
  147.8153  152.4904  133.3579 H   0  0  0  0  0  0  0  0  0  0  0  0
  149.0319  156.8490  132.9974 H   0  0  0  0  0  0  0  0  0  0  0  0
  1  2  1  0
  2  3  1  0
  2  4  1  0
  4  5  1  0
  5  6  2  0
  5  7  1  0
  7  8  1  0
  8  9  1  0
  9 10  1  0
  9 11  2  0
  8 12  2  0
 12 13  1  0
 13 14  2  0
 14 15  1  0
 15 16  2  0
 16 17  1  0
 17 18  1  0
 18 19  1  0
 19 20  2  0
 19 21  1  0
 16 22  1  0
 22 23  2  0
 23  7  1  0
 23 13  1  0
  1 24  1  0
  1 25  1  0
  1 26  1  0
  2 27  1  0
  3 28  1  0
  3 29  1  0
  3 30  1  0
 10 31  1  0
 12 32  1  0
 14 33  1  0
 15 34  1  0
 17 35  1  0
 17 36  1  0
 18 37  1  0
 18 38  1  0
 22 39  1  0
M  CHG  2  10  -1  21  -1
M  END
>  <UniqueID>  (72) 
72

>  <SMILES>  (72) 
CC(C)OC(=O)n1c(C([NH-])=O)cc2ccc(CCC(=O)[O-])cc21

>  <Energy>  (72) 
67.32974481143039

>  <Genealogy>  (72) 
CC(C)OC(=O)n1c(C([NH-])=O)cc2ccc(CCC(=O)[O-])cc21 (protonated)
CC(C)OC(=O)n1c(C([NH-])=O)cc2ccc(CCC(=O)[O-])cc21 (3D coordinates assigned)
CC(C)OC(=O)n1c(C([NH-])=O)cc2ccc(CCC(=O)[O-])cc21 (optimized conformer: 67.32974481143039 kcal/mol)

>  <smiles>  (72) 
CC(C)OC(=O)n1c(C(N)=O)cc2ccc(CCC(=O)O)cc21

>  <score_type>  (72) 
oracle

>  <origin>  (72) 
adg

>  <m_score__min__energy>  (72) 
-6.8899999999999997

>  <m_primary>  (72) 
energy

$$$$
72:0
     RDKit          3D

 41 43  0  0  0  0  0  0  0  0999 V2000
  146.5060  155.8690  132.2290 N   0  0  0  0  0  0  0  0  0  0  0  0
  146.0220  156.6300  133.3330 C   0  0  0  0  0  0  0  0  0  0  0  0
  145.6430  156.0360  134.3790 O   0  0  0  0  0  0  0  0  0  0  0  0
  146.0050  158.0660  133.2660 N   0  0  0  0  0  0  0  0  0  0  0  0
  147.0750  158.9020  133.1420 C   0  0  0  0  0  0  0  0  0  0  0  0
  148.4600  158.4910  132.8380 C   0  0  0  0  0  0  0  0  0  0  0  0
  148.7350  157.4820  131.8650 N   0  0  0  0  0  0  0  0  0  0  0  0
  149.4190  159.0840  133.3980 O   0  0  0  0  0  0  0  0  0  0  0  0
  146.6840  160.2290  133.2820 C   0  0  0  0  0  0  0  0  0  0  0  0
  145.3230  160.1860  133.4870 C   0  0  0  0  0  0  0  0  0  0  0  0
  144.4210  161.2200  133.7150 C   0  0  0  0  0  0  0  0  0  0  0  0
  143.0760  160.8830  133.9420 C   0  0  0  0  0  0  0  0  0  0  0  0
  142.6560  159.5270  133.9480 C   0  0  0  0  0  0  0  0  0  0  0  0
  141.1990  159.1810  134.2080 C   0  0  1  0  0  0  0  0  0  0  0  0
  140.4390  159.0550  132.8700 C   0  0  0  0  0  0  0  0  0  0  0  0
  139.0290  158.5060  133.1020 C   0  0  0  0  0  0  0  0  0  0  0  0
  139.0440  157.0950  133.7220 C   0  0  0  0  0  0  0  0  0  0  0  0
  140.3740  156.7270  134.4090 C   0  0  0  0  0  0  0  0  0  0  0  0
  141.0590  157.9140  135.1230 C   0  0  2  0  0  0  0  0  0  0  0  0
  140.3560  158.2470  136.4170 C   0  0  0  0  0  0  0  0  0  0  0  0
  139.4890  157.4610  136.8820 O   0  0  0  0  0  0  0  0  0  0  0  0
  140.6860  159.3910  137.1310 O   0  0  0  0  0  0  0  0  0  0  0  0
  143.6070  158.5060  133.7100 C   0  0  0  0  0  0  0  0  0  0  0  0
  144.9370  158.8700  133.4720 C   0  0  0  0  0  0  0  0  0  0  0  0
  146.2550  156.1290  131.2490 H   0  0  0  0  0  0  0  0  0  0  0  0
  147.9820  157.1100  131.2440 H   0  0  0  0  0  0  0  0  0  0  0  0
  149.7180  157.1720  131.6940 H   0  0  0  0  0  0  0  0  0  0  0  0
  147.3248  161.1220  133.2383 H   0  0  0  0  0  0  0  0  0  0  0  0
  144.7506  162.2695  133.7175 H   0  0  0  0  0  0  0  0  0  0  0  0
  142.3388  161.6803  134.1174 H   0  0  0  0  0  0  0  0  0  0  0  0
  140.7312  160.0015  134.7718 H   0  0  0  0  0  0  0  0  0  0  0  0
  140.3681  160.0468  132.3995 H   0  0  0  0  0  0  0  0  0  0  0  0
  140.9865  158.3617  132.2146 H   0  0  0  0  0  0  0  0  0  0  0  0
  138.4926  159.1849  133.7813 H   0  0  0  0  0  0  0  0  0  0  0  0
  138.5298  158.4380  132.1242 H   0  0  0  0  0  0  0  0  0  0  0  0
  138.2402  157.0375  134.4708 H   0  0  0  0  0  0  0  0  0  0  0  0
  138.9044  156.3824  132.8957 H   0  0  0  0  0  0  0  0  0  0  0  0
  140.1736  155.9433  135.1544 H   0  0  0  0  0  0  0  0  0  0  0  0
  141.0602  156.3913  133.6175 H   0  0  0  0  0  0  0  0  0  0  0  0
  142.0833  157.5892  135.3581 H   0  0  0  0  0  0  0  0  0  0  0  0
  143.3066  157.4478  133.7121 H   0  0  0  0  0  0  0  0  0  0  0  0
  1  2  1  0
  2  3  2  0
  2  4  1  0
  4  5  1  0
  5  6  1  0
  6  7  1  0
  6  8  2  0
  5  9  2  0
  9 10  1  0
 10 11  2  0
 11 12  1  0
 12 13  2  0
 13 14  1  0
 14 15  1  0
 15 16  1  0
 16 17  1  0
 17 18  1  0
 18 19  1  0
 19 20  1  0
 20 21  2  0
 20 22  1  0
 13 23  1  0
 23 24  2  0
 24  4  1  0
 24 10  1  0
 19 14  1  0
  1 25  1  0
  7 26  1  0
  7 27  1  0
  9 28  1  0
 11 29  1  0
 12 30  1  0
 14 31  1  1
 15 32  1  0
 15 33  1  0
 16 34  1  0
 16 35  1  0
 17 36  1  0
 17 37  1  0
 18 38  1  0
 18 39  1  0
 19 40  1  1
 23 41  1  0
M  CHG  2   1  -1  22  -1
M  END
>  <UniqueID>  (73) 
73

>  <SMILES>  (73) 
[NH-]C(=O)n1c(C(N)=O)cc2ccc([C@H]3CCCC[C@@H]3C(=O)[O-])cc21

>  <Energy>  (73) 
87.66821997542193

>  <Genealogy>  (73) 
[NH-]C(=O)n1c(C(N)=O)cc2ccc(C3CCCCC3C(=O)[O-])cc21 (protonated)
[NH-]C(=O)n1c(C(N)=O)cc2ccc([C@H]3CCCC[C@@H]3C(=O)[O-])cc21 (chirality)
[NH-]C(=O)n1c(C(N)=O)cc2ccc([C@H]3CCCC[C@@H]3C(=O)[O-])cc21 (3D coordinates assigned)
[NH-]C(=O)n1c(C(N)=O)cc2ccc([C@H]3CCCC[C@@H]3C(=O)[O-])cc21 (nonaromatic ring conformer: 87.66821997542193 kcal/mol)

>  <smiles>  (73) 
NC(=O)c1cc2ccc(C3CCCCC3C(=O)O)cc2n1C(N)=O

>  <score_type>  (73) 
oracle

>  <origin>  (73) 
adg

>  <m_score__min__energy>  (73) 
-8.9399999999999995

>  <m_primary>  (73) 
energy

$$$$
73:0
     RDKit          3D

 49 51  0  0  0  0  0  0  0  0999 V2000
  142.9090  155.0730  133.4560 C   0  0  0  0  0  0  0  0  0  0  0  0
  144.3890  154.7430  133.2870 C   0  0  0  0  0  0  0  0  0  0  0  0
  145.2010  155.7460  133.8920 O   0  0  0  0  0  0  0  0  0  0  0  0
  146.0040  156.6330  133.1640 C   0  0  0  0  0  0  0  0  0  0  0  0
  146.7950  156.1980  132.2830 O   0  0  0  0  0  0  0  0  0  0  0  0
  145.9290  158.0430  133.4290 N   0  0  0  0  0  0  0  0  0  0  0  0
  146.9690  158.9120  133.5780 C   0  0  0  0  0  0  0  0  0  0  0  0
  148.3970  158.5360  133.6580 C   0  0  0  0  0  0  0  0  0  0  0  0
  148.9830  157.6800  132.6750 N   0  0  0  0  0  0  0  0  0  0  0  0
  149.1220  158.9950  134.5800 O   0  0  0  0  0  0  0  0  0  0  0  0
  146.4950  160.2120  133.7440 C   0  0  0  0  0  0  0  0  0  0  0  0
  145.1250  160.1110  133.6900 C   0  0  0  0  0  0  0  0  0  0  0  0
  144.1510  161.0990  133.7880 C   0  0  0  0  0  0  0  0  0  0  0  0
  142.8060  160.7150  133.6700 C   0  0  0  0  0  0  0  0  0  0  0  0
  142.4490  159.3550  133.4500 C   0  0  0  0  0  0  0  0  0  0  0  0
  141.0600  158.9720  133.3180 N   0  0  0  0  0  0  0  0  0  0  0  0
  140.4370  157.9010  134.0860 C   0  0  0  0  0  0  0  0  0  0  0  0
  139.0370  157.7310  133.5110 C   0  0  0  0  0  0  0  0  0  0  0  0
  138.7510  159.0330  132.7570 C   0  0  2  0  0  0  0  0  0  0  0  0
  137.7960  158.8670  131.5570 C   0  0  0  0  0  0  0  0  0  0  0  0
  137.4600  160.1570  130.9340 N   0  0  0  0  0  0  0  0  0  0  0  0
  136.1200  160.1070  130.3480 C   0  0  0  0  0  0  0  0  0  0  0  0
  140.1230  159.6130  132.4060 C   0  0  0  0  0  0  0  0  0  0  0  0
  143.4760  158.3830  133.3580 C   0  0  0  0  0  0  0  0  0  0  0  0
  144.8070  158.7930  133.4990 C   0  0  0  0  0  0  0  0  0  0  0  0
  142.6654  155.1273  134.5273 H   0  0  0  0  0  0  0  0  0  0  0  0
  142.6927  156.0414  132.9813 H   0  0  0  0  0  0  0  0  0  0  0  0
  142.3018  154.2882  132.9813 H   0  0  0  0  0  0  0  0  0  0  0  0
  144.5993  153.7733  133.7618 H   0  0  0  0  0  0  0  0  0  0  0  0
  144.6214  154.7003  132.2127 H   0  0  0  0  0  0  0  0  0  0  0  0
  148.4050  157.2370  131.9280 H   0  0  0  0  0  0  0  0  0  0  0  0
  150.0010  157.4540  132.7180 H   0  0  0  0  0  0  0  0  0  0  0  0
  147.0908  161.1254  133.8878 H   0  0  0  0  0  0  0  0  0  0  0  0
  144.4267  162.1510  133.9532 H   0  0  0  0  0  0  0  0  0  0  0  0
  142.0162  161.4766  133.7487 H   0  0  0  0  0  0  0  0  0  0  0  0
  141.0107  156.9688  133.9768 H   0  0  0  0  0  0  0  0  0  0  0  0
  140.4052  158.1408  135.1591 H   0  0  0  0  0  0  0  0  0  0  0  0
  139.0038  156.8724  132.8242 H   0  0  0  0  0  0  0  0  0  0  0  0
  138.2910  157.5385  134.2961 H   0  0  0  0  0  0  0  0  0  0  0  0
  138.1856  159.7379  133.3842 H   0  0  0  0  0  0  0  0  0  0  0  0
  138.2791  158.2254  130.8054 H   0  0  0  0  0  0  0  0  0  0  0  0
  136.8631  158.4163  131.9265 H   0  0  0  0  0  0  0  0  0  0  0  0
  137.4360  160.8910  131.6790 H   0  0  0  0  0  0  0  0  0  0  0  0
  135.3692  160.0790  131.1515 H   0  0  0  0  0  0  0  0  0  0  0  0
  135.9583  160.9997  129.7260 H   0  0  0  0  0  0  0  0  0  0  0  0
  136.0252  159.2047  129.7260 H   0  0  0  0  0  0  0  0  0  0  0  0
  140.3828  159.3818  131.3624 H   0  0  0  0  0  0  0  0  0  0  0  0
  140.1410  160.7084  132.5051 H   0  0  0  0  0  0  0  0  0  0  0  0
  143.2318  157.3255  133.1790 H   0  0  0  0  0  0  0  0  0  0  0  0
  1  2  1  0
  2  3  1  0
  3  4  1  0
  4  5  2  0
  4  6  1  0
  6  7  1  0
  7  8  1  0
  8  9  1  0
  8 10  2  0
  7 11  2  0
 11 12  1  0
 12 13  2  0
 13 14  1  0
 14 15  2  0
 15 16  1  0
 16 17  1  0
 17 18  1  0
 18 19  1  0
 19 20  1  0
 20 21  1  0
 21 22  1  0
 19 23  1  0
 15 24  1  0
 24 25  2  0
 25  6  1  0
 25 12  1  0
 23 16  1  0
  1 26  1  0
  1 27  1  0
  1 28  1  0
  2 29  1  0
  2 30  1  0
  9 31  1  0
  9 32  1  0
 11 33  1  0
 13 34  1  0
 14 35  1  0
 17 36  1  0
 17 37  1  0
 18 38  1  0
 18 39  1  0
 19 40  1  1
 20 41  1  0
 20 42  1  0
 21 43  1  0
 22 44  1  0
 22 45  1  0
 22 46  1  0
 23 47  1  0
 23 48  1  0
 24 49  1  0
M  END
>  <UniqueID>  (74) 
74

>  <SMILES>  (74) 
CCOC(=O)n1c(C(N)=O)cc2ccc(N3CC[C@H](CNC)C3)cc21

>  <Energy>  (74) 
85.17903868493777

>  <Genealogy>  (74) 
CCOC(=O)n1c(C(N)=O)cc2ccc(N3CC[C@H](CNC)C3)cc21 (3D coordinates assigned)
CCOC(=O)n1c(C(N)=O)cc2ccc(N3CC[C@H](CNC)C3)cc21 (nonaromatic ring conformer: 85.17903868493777 kcal/mol)

>  <smiles>  (74) 
CCOC(=O)n1c(C(N)=O)cc2ccc(N3CC[C@H](CNC)C3)cc21

>  <score_type>  (74) 
oracle

>  <origin>  (74) 
adg

>  <m_score__min__energy>  (74) 
-7.9900000000000002

>  <m_primary>  (74) 
energy

$$$$
74:0
     RDKit          3D

 39 41  0  0  0  0  0  0  0  0999 V2000
  139.0210  157.9500  131.9070 C   0  0  0  0  0  0  0  0  0  0  0  0
  138.7910  157.2870  133.2060 N   0  0  0  0  0  0  0  0  0  0  0  0
  139.5960  156.0500  133.3350 C   0  0  0  0  0  0  0  0  0  0  0  0
  141.1050  156.3480  133.3780 C   0  0  0  0  0  0  0  0  0  0  0  0
  141.3690  157.5850  134.1210 N   0  0  0  0  0  0  0  0  0  0  0  0
  142.6060  158.2970  133.9290 C   0  0  0  0  0  0  0  0  0  0  0  0
  142.6240  159.7150  133.9460 C   0  0  0  0  0  0  0  0  0  0  0  0
  143.8210  160.4210  133.7370 C   0  0  0  0  0  0  0  0  0  0  0  0
  144.9800  159.6870  133.5140 C   0  0  0  0  0  0  0  0  0  0  0  0
  146.2650  160.1140  133.2680 C   0  0  0  0  0  0  0  0  0  0  0  0
  147.0180  158.9520  133.1170 C   0  0  0  0  0  0  0  0  0  0  0  0
  148.4840  158.9590  132.9420 C   0  0  0  0  0  0  0  0  0  0  0  0
  149.0820  158.4500  131.7520 N   0  0  0  0  0  0  0  0  0  0  0  0
  149.2220  159.3620  133.8800 O   0  0  0  0  0  0  0  0  0  0  0  0
  146.2260  157.8480  133.2450 N   0  0  0  0  0  0  0  0  0  0  0  0
  146.5750  156.4660  133.0560 C   0  0  0  0  0  0  0  0  0  0  0  0
  147.3580  156.1160  132.1340 O   0  0  0  0  0  0  0  0  0  0  0  0
  144.9850  158.3170  133.4970 C   0  0  0  0  0  0  0  0  0  0  0  0
  143.8060  157.5880  133.6900 C   0  0  0  0  0  0  0  0  0  0  0  0
  140.3500  158.0670  135.0570 C   0  0  0  0  0  0  0  0  0  0  0  0
  138.9940  158.2310  134.3420 C   0  0  0  0  0  0  0  0  0  0  0  0
  139.3772  158.9767  132.0773 H   0  0  0  0  0  0  0  0  0  0  0  0
  139.7771  157.3893  131.3379 H   0  0  0  0  0  0  0  0  0  0  0  0
  138.0801  157.9780  131.3379 H   0  0  0  0  0  0  0  0  0  0  0  0
  137.7840  156.9950  133.2140 H   0  0  0  0  0  0  0  0  0  0  0  0
  139.3089  155.5343  134.2633 H   0  0  0  0  0  0  0  0  0  0  0  0
  139.3980  155.4216  132.4541 H   0  0  0  0  0  0  0  0  0  0  0  0
  141.6239  155.5129  133.8713 H   0  0  0  0  0  0  0  0  0  0  0  0
  141.4706  156.4698  132.3477 H   0  0  0  0  0  0  0  0  0  0  0  0
  141.6904  160.2685  134.1248 H   0  0  0  0  0  0  0  0  0  0  0  0
  143.8401  161.5208  133.7495 H   0  0  0  0  0  0  0  0  0  0  0  0
  146.6217  161.1526  133.2042 H   0  0  0  0  0  0  0  0  0  0  0  0
  148.8620  157.4890  131.4100 H   0  0  0  0  0  0  0  0  0  0  0  0
  146.1519  155.7035  133.7265 H   0  0  0  0  0  0  0  0  0  0  0  0
  143.8126  156.4885  133.6566 H   0  0  0  0  0  0  0  0  0  0  0  0
  140.2411  157.3429  135.8779 H   0  0  0  0  0  0  0  0  0  0  0  0
  140.6641  159.0443  135.4524 H   0  0  0  0  0  0  0  0  0  0  0  0
  138.1927  158.0653  135.0772 H   0  0  0  0  0  0  0  0  0  0  0  0
  138.9770  159.2466  133.9197 H   0  0  0  0  0  0  0  0  0  0  0  0
  1  2  1  0
  2  3  1  0
  3  4  1  0
  4  5  1  0
  5  6  1  0
  6  7  2  0
  7  8  1  0
  8  9  2  0
  9 10  1  0
 10 11  2  0
 11 12  1  0
 12 13  1  0
 12 14  2  0
 11 15  1  0
 15 16  1  0
 16 17  2  0
 15 18  1  0
 18 19  2  0
  5 20  1  0
 20 21  1  0
 21  2  1  0
 19  6  1  0
 18  9  1  0
  1 22  1  0
  1 23  1  0
  1 24  1  0
  2 25  1  0
  3 26  1  0
  3 27  1  0
  4 28  1  0
  4 29  1  0
  7 30  1  0
  8 31  1  0
 10 32  1  0
 13 33  1  0
 16 34  1  0
 19 35  1  0
 20 36  1  0
 20 37  1  0
 21 38  1  0
 21 39  1  0
M  CHG  2   2   1  13  -1
M  END
>  <UniqueID>  (75) 
75

>  <SMILES>  (75) 
C[NH+]1CCN(c2ccc3cc(C([NH-])=O)n(C=O)c3c2)CC1

>  <Energy>  (75) 
90.48698582969105

>  <Genealogy>  (75) 
C[NH+]1CCN(c2ccc3cc(C([NH-])=O)n(C=O)c3c2)CC1 (protonated)
C[NH+]1CCN(c2ccc3cc(C([NH-])=O)n(C=O)c3c2)CC1 (3D coordinates assigned)
C[NH+]1CCN(c2ccc3cc(C([NH-])=O)n(C=O)c3c2)CC1 (nonaromatic ring conformer: 90.48698582969105 kcal/mol)

>  <smiles>  (75) 
CN1CCN(c2ccc3cc(C(N)=O)n(C=O)c3c2)CC1

>  <score_type>  (75) 
oracle

>  <origin>  (75) 
adg

>  <m_score__min__energy>  (75) 
-6.1299999999999999

>  <m_primary>  (75) 
energy

$$$$
75:0
     RDKit          3D

 33 34  0  0  0  0  0  0  0  0999 V2000
  145.6050  162.7200  134.5290 C   0  0  0  0  0  0  0  0  0  0  0  0
  144.4980  161.9960  133.8320 C   0  0  0  0  0  0  0  0  0  0  0  0
  143.5320  162.6530  133.3600 O   0  0  0  0  0  0  0  0  0  0  0  0
  144.4890  160.5620  133.7550 N   0  0  0  0  0  0  0  0  0  0  0  0
  143.4460  159.7130  133.9800 C   0  0  0  0  0  0  0  0  0  0  0  0
  142.1140  160.0970  134.4890 C   0  0  0  0  0  0  0  0  0  0  0  0
  141.2400  160.8770  133.6760 N   0  0  0  0  0  0  0  0  0  0  0  0
  141.7260  159.7170  135.6250 O   0  0  0  0  0  0  0  0  0  0  0  0
  143.8310  158.3950  133.7410 C   0  0  0  0  0  0  0  0  0  0  0  0
  145.1570  158.4630  133.3700 C   0  0  0  0  0  0  0  0  0  0  0  0
  146.0420  157.4510  133.0160 C   0  0  0  0  0  0  0  0  0  0  0  0
  147.3510  157.8150  132.6610 C   0  0  0  0  0  0  0  0  0  0  0  0
  147.7530  159.1790  132.6630 C   0  0  0  0  0  0  0  0  0  0  0  0
  149.1650  159.5760  132.2730 C   0  0  0  0  0  0  0  0  0  0  0  0
  149.1540  160.6380  131.1670 C   0  0  0  0  0  0  0  0  0  0  0  0
  149.9860  158.3510  131.8540 C   0  0  0  0  0  0  0  0  0  0  0  0
  146.8200  160.1770  133.0310 C   0  0  0  0  0  0  0  0  0  0  0  0
  145.5280  159.7820  133.3900 C   0  0  0  0  0  0  0  0  0  0  0  0
  145.4719  162.6329  135.6174 H   0  0  0  0  0  0  0  0  0  0  0  0
  146.5704  162.2782  134.2412 H   0  0  0  0  0  0  0  0  0  0  0  0
  145.5872  163.7815  134.2412 H   0  0  0  0  0  0  0  0  0  0  0  0
  141.5460  161.7970  133.2900 H   0  0  0  0  0  0  0  0  0  0  0  0
  143.2089  157.4922  133.8296 H   0  0  0  0  0  0  0  0  0  0  0  0
  145.7265  156.3972  133.0141 H   0  0  0  0  0  0  0  0  0  0  0  0
  148.0740  157.0358  132.3780 H   0  0  0  0  0  0  0  0  0  0  0  0
  149.6471  160.0174  133.1577 H   0  0  0  0  0  0  0  0  0  0  0  0
  149.1436  161.6400  131.6209 H   0  0  0  0  0  0  0  0  0  0  0  0
  150.0533  160.5272  130.5434 H   0  0  0  0  0  0  0  0  0  0  0  0
  148.2572  160.5087  130.5434 H   0  0  0  0  0  0  0  0  0  0  0  0
  150.3402  157.8226  132.7514 H   0  0  0  0  0  0  0  0  0  0  0  0
  149.3574  157.6757  131.2550 H   0  0  0  0  0  0  0  0  0  0  0  0
  150.8495  158.6758  131.2550 H   0  0  0  0  0  0  0  0  0  0  0  0
  147.1048  161.2395  133.0345 H   0  0  0  0  0  0  0  0  0  0  0  0
  1  2  1  0
  2  3  2  0
  2  4  1  0
  4  5  1  0
  5  6  1  0
  6  7  1  0
  6  8  2  0
  5  9  2  0
  9 10  1  0
 10 11  2  0
 11 12  1  0
 12 13  2  0
 13 14  1  0
 14 15  1  0
 14 16  1  0
 13 17  1  0
 17 18  2  0
 18  4  1  0
 18 10  1  0
  1 19  1  0
  1 20  1  0
  1 21  1  0
  7 22  1  0
  9 23  1  0
 11 24  1  0
 12 25  1  0
 14 26  1  0
 15 27  1  0
 15 28  1  0
 15 29  1  0
 16 30  1  0
 16 31  1  0
 16 32  1  0
 17 33  1  0
M  CHG  1   7  -1
M  END
>  <UniqueID>  (76) 
76

>  <SMILES>  (76) 
CC(=O)n1c(C([NH-])=O)cc2ccc(C(C)C)cc21

>  <Energy>  (76) 
68.14474445559503

>  <Genealogy>  (76) 
CC(=O)n1c(C([NH-])=O)cc2ccc(C(C)C)cc21 (protonated)
CC(=O)n1c(C([NH-])=O)cc2ccc(C(C)C)cc21 (3D coordinates assigned)
CC(=O)n1c(C([NH-])=O)cc2ccc(C(C)C)cc21 (optimized conformer: 68.14474445559503 kcal/mol)

>  <smiles>  (76) 
CC(=O)n1c(C(N)=O)cc2ccc(C(C)C)cc21

>  <score_type>  (76) 
oracle

>  <origin>  (76) 
adg

>  <m_score__min__energy>  (76) 
-6.7599999999999998

>  <m_primary>  (76) 
energy

$$$$
76:0
     RDKit          3D

 27 28  0  0  0  0  0  0  0  0999 V2000
  145.6100  162.6440  134.4790 C   0  0  0  0  0  0  0  0  0  0  0  0
  144.4680  161.9410  133.8180 C   0  0  0  0  0  0  0  0  0  0  0  0
  143.5110  162.6180  133.3560 O   0  0  0  0  0  0  0  0  0  0  0  0
  144.4460  160.5080  133.7120 N   0  0  0  0  0  0  0  0  0  0  0  0
  143.4380  159.6650  134.0730 C   0  0  0  0  0  0  0  0  0  0  0  0
  142.0940  160.0670  134.5370 C   0  0  0  0  0  0  0  0  0  0  0  0
  141.2240  160.8270  133.7020 N   0  0  0  0  0  0  0  0  0  0  0  0
  141.6940  159.7070  135.6770 O   0  0  0  0  0  0  0  0  0  0  0  0
  143.8240  158.3380  133.8880 C   0  0  0  0  0  0  0  0  0  0  0  0
  145.1090  158.3970  133.4000 C   0  0  0  0  0  0  0  0  0  0  0  0
  145.9790  157.3700  133.0430 C   0  0  0  0  0  0  0  0  0  0  0  0
  147.2620  157.7210  132.5900 C   0  0  0  0  0  0  0  0  0  0  0  0
  147.6620  159.0810  132.5260 C   0  0  0  0  0  0  0  0  0  0  0  0
  149.0270  159.4470  132.0030 C   0  0  0  0  0  0  0  0  0  0  0  0
  149.9860  159.0390  132.9110 F   0  0  0  0  0  0  0  0  0  0  0  0
  149.2670  158.8300  130.7870 F   0  0  0  0  0  0  0  0  0  0  0  0
  149.1320  160.8160  131.8210 F   0  0  0  0  0  0  0  0  0  0  0  0
  146.7400  160.0950  132.8760 C   0  0  0  0  0  0  0  0  0  0  0  0
  145.4620  159.7170  133.3050 C   0  0  0  0  0  0  0  0  0  0  0  0
  145.4996  162.5760  135.5713 H   0  0  0  0  0  0  0  0  0  0  0  0
  146.5561  162.1717  134.1760 H   0  0  0  0  0  0  0  0  0  0  0  0
  145.6145  163.7014  134.1760 H   0  0  0  0  0  0  0  0  0  0  0  0
  141.5450  161.7170  133.2600 H   0  0  0  0  0  0  0  0  0  0  0  0
  143.2279  157.4357  134.0894 H   0  0  0  0  0  0  0  0  0  0  0  0
  145.6713  156.3163  133.1135 H   0  0  0  0  0  0  0  0  0  0  0  0
  147.9643  156.9326  132.2815 H   0  0  0  0  0  0  0  0  0  0  0  0
  147.0208  161.1567  132.8126 H   0  0  0  0  0  0  0  0  0  0  0  0
  1  2  1  0
  2  3  2  0
  2  4  1  0
  4  5  1  0
  5  6  1  0
  6  7  1  0
  6  8  2  0
  5  9  2  0
  9 10  1  0
 10 11  2  0
 11 12  1  0
 12 13  2  0
 13 14  1  0
 14 15  1  0
 14 16  1  0
 14 17  1  0
 13 18  1  0
 18 19  2  0
 19  4  1  0
 19 10  1  0
  1 20  1  0
  1 21  1  0
  1 22  1  0
  7 23  1  0
  9 24  1  0
 11 25  1  0
 12 26  1  0
 18 27  1  0
M  CHG  1   7  -1
M  END
>  <UniqueID>  (77) 
77

>  <SMILES>  (77) 
CC(=O)n1c(C([NH-])=O)cc2ccc(C(F)(F)F)cc21

>  <Energy>  (77) 
66.79461406113583

>  <Genealogy>  (77) 
CC(=O)n1c(C([NH-])=O)cc2ccc(C(F)(F)F)cc21 (protonated)
CC(=O)n1c(C([NH-])=O)cc2ccc(C(F)(F)F)cc21 (3D coordinates assigned)
CC(=O)n1c(C([NH-])=O)cc2ccc(C(F)(F)F)cc21 (optimized conformer: 66.79461406113583 kcal/mol)

>  <smiles>  (77) 
CC(=O)n1c(C(N)=O)cc2ccc(C(F)(F)F)cc21

>  <score_type>  (77) 
oracle

>  <origin>  (77) 
adg

>  <m_score__min__energy>  (77) 
-5.46

>  <m_primary>  (77) 
energy

$$$$
77:0
     RDKit          3D

 34 36  0  0  0  0  0  0  0  0999 V2000
  148.8420  150.8090  132.4360 C   0  0  0  0  0  0  0  0  0  0  0  0
  148.5760  152.2750  132.6140 C   0  0  0  0  0  0  0  0  0  0  0  0
  149.6170  153.2030  132.4710 C   0  0  0  0  0  0  0  0  0  0  0  0
  149.3650  154.5720  132.5990 C   0  0  0  0  0  0  0  0  0  0  0  0
  148.0630  155.0370  132.8610 C   0  0  0  0  0  0  0  0  0  0  0  0
  147.7930  156.4910  132.9970 C   0  0  0  0  0  0  0  0  0  0  0  0
  148.8510  157.4310  132.8800 C   0  0  0  0  0  0  0  0  0  0  0  0
  148.6060  158.8090  132.9940 C   0  0  0  0  0  0  0  0  0  0  0  0
  147.2990  159.2220  133.2350 C   0  0  0  0  0  0  0  0  0  0  0  0
  146.7810  160.4900  133.3600 C   0  0  0  0  0  0  0  0  0  0  0  0
  145.4170  160.3120  133.5780 C   0  0  0  0  0  0  0  0  0  0  0  0
  144.4880  161.4280  133.8510 C   0  0  0  0  0  0  0  0  0  0  0  0
  143.0780  161.2550  133.7300 N   0  0  0  0  0  0  0  0  0  0  0  0
  144.9410  162.5350  134.2460 O   0  0  0  0  0  0  0  0  0  0  0  0
  145.1020  158.9860  133.5770 N   0  0  0  0  0  0  0  0  0  0  0  0
  143.7990  158.3880  133.6840 C   0  0  0  0  0  0  0  0  0  0  0  0
  143.2880  157.7980  132.6960 O   0  0  0  0  0  0  0  0  0  0  0  0
  143.1030  158.4320  134.8850 O   0  0  0  0  0  0  0  0  0  0  0  0
  146.2660  158.3300  133.3700 C   0  0  0  0  0  0  0  0  0  0  0  0
  146.4780  156.9530  133.2400 C   0  0  0  0  0  0  0  0  0  0  0  0
  147.0200  154.1020  132.9860 C   0  0  0  0  0  0  0  0  0  0  0  0
  147.2740  152.7340  132.8570 C   0  0  0  0  0  0  0  0  0  0  0  0
  148.9290  150.3297  133.4223 H   0  0  0  0  0  0  0  0  0  0  0  0
  148.0123  150.3510  131.8776 H   0  0  0  0  0  0  0  0  0  0  0  0
  149.7797  150.6716  131.8776 H   0  0  0  0  0  0  0  0  0  0  0  0
  150.6373  152.8521  132.2570 H   0  0  0  0  0  0  0  0  0  0  0  0
  150.1907  155.2912  132.4941 H   0  0  0  0  0  0  0  0  0  0  0  0
  149.8757  157.0751  132.6977 H   0  0  0  0  0  0  0  0  0  0  0  0
  149.4223  159.5398  132.8958 H   0  0  0  0  0  0  0  0  0  0  0  0
  147.3280  161.4425  133.3004 H   0  0  0  0  0  0  0  0  0  0  0  0
  142.6230  160.3520  133.9890 H   0  0  0  0  0  0  0  0  0  0  0  0
  145.6404  156.2450  133.3249 H   0  0  0  0  0  0  0  0  0  0  0  0
  145.9961  154.4503  133.1869 H   0  0  0  0  0  0  0  0  0  0  0  0
  146.4478  152.0134  132.9466 H   0  0  0  0  0  0  0  0  0  0  0  0
  1  2  1  0
  2  3  2  0
  3  4  1  0
  4  5  2  0
  5  6  1  0
  6  7  2  0
  7  8  1  0
  8  9  2  0
  9 10  1  0
 10 11  2  0
 11 12  1  0
 12 13  1  0
 12 14  2  0
 11 15  1  0
 15 16  1  0
 16 17  2  0
 16 18  1  0
 15 19  1  0
 19 20  2  0
  5 21  1  0
 21 22  2  0
 22  2  1  0
 20  6  1  0
 19  9  1  0
  1 23  1  0
  1 24  1  0
  1 25  1  0
  3 26  1  0
  4 27  1  0
  7 28  1  0
  8 29  1  0
 10 30  1  0
 13 31  1  0
 20 32  1  0
 21 33  1  0
 22 34  1  0
M  CHG  2  13  -1  18  -1
M  END
>  <UniqueID>  (78) 
78

>  <SMILES>  (78) 
Cc1ccc(-c2ccc3cc(C([NH-])=O)n(C(=O)[O-])c3c2)cc1

>  <Energy>  (78) 
81.14580258321453

>  <Genealogy>  (78) 
Cc1ccc(-c2ccc3cc(C([NH-])=O)n(C(=O)[O-])c3c2)cc1 (protonated)
Cc1ccc(-c2ccc3cc(C([NH-])=O)n(C(=O)[O-])c3c2)cc1 (3D coordinates assigned)
Cc1ccc(-c2ccc3cc(C([NH-])=O)n(C(=O)[O-])c3c2)cc1 (optimized conformer: 81.14580258321453 kcal/mol)

>  <smiles>  (78) 
Cc1ccc(-c2ccc3cc(C(N)=O)n(C(=O)O)c3c2)cc1

>  <score_type>  (78) 
oracle

>  <origin>  (78) 
adg

>  <m_score__min__energy>  (78) 
-7.5

>  <m_primary>  (78) 
energy

$$$$
78:0
     RDKit          3D

 54 57  0  0  0  0  0  0  0  0999 V2000
  140.0160  157.0220  137.2360 N   0  0  0  0  0  0  0  0  0  0  0  0
  140.0480  157.8160  136.0470 C   0  0  0  0  0  0  0  0  0  0  0  0
  138.9690  158.2650  135.5800 O   0  0  0  0  0  0  0  0  0  0  0  0
  141.3260  158.1430  135.3820 C   0  0  0  0  0  0  0  0  0  0  0  0
  141.6430  159.3880  134.8360 C   0  0  0  0  0  0  0  0  0  0  0  0
  142.9000  159.2360  134.2910 C   0  0  0  0  0  0  0  0  0  0  0  0
  143.7090  160.1510  133.6200 C   0  0  0  0  0  0  0  0  0  0  0  0
  144.9650  159.7090  133.1680 C   0  0  0  0  0  0  0  0  0  0  0  0
  145.3850  158.3740  133.3900 C   0  0  0  0  0  0  0  0  0  0  0  0
  146.7380  157.9130  132.9110 C   0  0  0  0  0  0  0  0  0  0  0  0
  147.6850  159.1030  132.6730 C   0  0  1  0  0  0  0  0  0  0  0  0
  149.1650  158.6170  132.6510 C   0  0  0  0  0  0  0  0  0  0  0  0
  149.6730  158.5510  131.2770 N   0  0  0  0  0  0  0  0  0  0  0  0
  149.5820  159.8680  130.6230 C   0  0  0  0  0  0  0  0  0  0  0  0
  148.3140  160.6380  131.0400 C   0  0  0  0  0  0  0  0  0  0  0  0
  147.3110  159.7410  131.4580 O   0  0  0  0  0  0  0  0  0  0  0  0
  144.5430  157.4800  134.0870 C   0  0  0  0  0  0  0  0  0  0  0  0
  143.2980  157.9460  134.5130 C   0  0  0  0  0  0  0  0  0  0  0  0
  142.3470  157.2670  135.1810 N   0  0  0  0  0  0  0  0  0  0  0  0
  142.4410  155.9110  135.6390 C   0  0  0  0  0  0  0  0  0  0  0  0
  142.6910  155.6930  136.8560 O   0  0  0  0  0  0  0  0  0  0  0  0
  142.1340  154.7470  134.7220 C   0  0  0  0  0  0  0  0  0  0  0  0
  140.9240  155.0050  133.8060 C   0  0  0  0  0  0  0  0  0  0  0  0
  140.5570  153.7550  132.9790 C   0  0  0  0  0  0  0  0  0  0  0  0
  141.7550  152.8300  132.6950 C   0  0  0  0  0  0  0  0  0  0  0  0
  143.0560  153.6240  132.5810 C   0  0  0  0  0  0  0  0  0  0  0  0
  143.3850  154.3700  133.8870 C   0  0  0  0  0  0  0  0  0  0  0  0
  139.1080  156.8410  137.7180 H   0  0  0  0  0  0  0  0  0  0  0  0
  140.8850  156.6030  137.6330 H   0  0  0  0  0  0  0  0  0  0  0  0
  141.0224  160.2962  134.8398 H   0  0  0  0  0  0  0  0  0  0  0  0
  143.3759  161.1854  133.4495 H   0  0  0  0  0  0  0  0  0  0  0  0
  145.6285  160.4070  132.6364 H   0  0  0  0  0  0  0  0  0  0  0  0
  147.1796  157.2504  133.6699 H   0  0  0  0  0  0  0  0  0  0  0  0
  146.6048  157.3805  131.9577 H   0  0  0  0  0  0  0  0  0  0  0  0
  147.6026  159.8331  133.4917 H   0  0  0  0  0  0  0  0  0  0  0  0
  149.7832  159.3185  133.2304 H   0  0  0  0  0  0  0  0  0  0  0  0
  149.2112  157.6103  133.0919 H   0  0  0  0  0  0  0  0  0  0  0  0
  149.0880  157.8650  130.7420 H   0  0  0  0  0  0  0  0  0  0  0  0
  150.4649  160.4629  130.8998 H   0  0  0  0  0  0  0  0  0  0  0  0
  149.5353  159.7032  129.5364 H   0  0  0  0  0  0  0  0  0  0  0  0
  148.5593  161.3192  131.8681 H   0  0  0  0  0  0  0  0  0  0  0  0
  147.9439  161.2109  130.1770 H   0  0  0  0  0  0  0  0  0  0  0  0
  144.8591  156.4459  134.2885 H   0  0  0  0  0  0  0  0  0  0  0  0
  141.8606  153.8989  135.3670 H   0  0  0  0  0  0  0  0  0  0  0  0
  140.0610  155.2877  134.4267 H   0  0  0  0  0  0  0  0  0  0  0  0
  141.1888  155.8125  133.1075 H   0  0  0  0  0  0  0  0  0  0  0  0
  139.7988  153.1819  133.5328 H   0  0  0  0  0  0  0  0  0  0  0  0
  140.1855  154.1095  132.0062 H   0  0  0  0  0  0  0  0  0  0  0  0
  141.8493  152.1039  133.5159 H   0  0  0  0  0  0  0  0  0  0  0  0
  141.5774  152.3161  131.7388 H   0  0  0  0  0  0  0  0  0  0  0  0
  143.8778  152.9302  132.3502 H   0  0  0  0  0  0  0  0  0  0  0  0
  142.9332  154.3700  131.7820 H   0  0  0  0  0  0  0  0  0  0  0  0
  144.0314  153.7260  134.5014 H   0  0  0  0  0  0  0  0  0  0  0  0
  143.8780  155.3117  133.6037 H   0  0  0  0  0  0  0  0  0  0  0  0
  1  2  1  0
  2  3  2  0
  2  4  1  0
  4  5  2  0
  5  6  1  0
  6  7  2  0
  7  8  1  0
  8  9  2  0
  9 10  1  0
 10 11  1  0
 11 12  1  0
 12 13  1  0
 13 14  1  0
 14 15  1  0
 15 16  1  0
  9 17  1  0
 17 18  2  0
 18 19  1  0
 19 20  1  0
 20 21  2  0
 20 22  1  0
 22 23  1  0
 23 24  1  0
 24 25  1  0
 25 26  1  0
 26 27  1  0
 19  4  1  0
 27 22  1  0
 18  6  1  0
 16 11  1  0
  1 28  1  0
  1 29  1  0
  5 30  1  0
  7 31  1  0
  8 32  1  0
 10 33  1  0
 10 34  1  0
 11 35  1  1
 12 36  1  0
 12 37  1  0
 13 38  1  0
 14 39  1  0
 14 40  1  0
 15 41  1  0
 15 42  1  0
 17 43  1  0
 22 44  1  0
 23 45  1  0
 23 46  1  0
 24 47  1  0
 24 48  1  0
 25 49  1  0
 25 50  1  0
 26 51  1  0
 26 52  1  0
 27 53  1  0
 27 54  1  0
M  END
>  <UniqueID>  (79) 
79

>  <SMILES>  (79) 
NC(=O)c1cc2ccc(C[C@H]3CNCCO3)cc2n1C(=O)C1CCCCC1

>  <Energy>  (79) 
105.00207936402153

>  <Genealogy>  (79) 
NC(=O)c1cc2ccc(C[C@H]3CNCCO3)cc2n1C(=O)C1CCCCC1 (3D coordinates assigned)
NC(=O)c1cc2ccc(C[C@H]3CNCCO3)cc2n1C(=O)C1CCCCC1 (nonaromatic ring conformer: 105.00207936402153 kcal/mol)

>  <smiles>  (79) 
NC(=O)c1cc2ccc(C[C@H]3CNCCO3)cc2n1C(=O)C1CCCCC1

>  <score_type>  (79) 
oracle

>  <origin>  (79) 
adg

>  <m_score__min__energy>  (79) 
-9.8100000000000005

>  <m_primary>  (79) 
energy

$$$$
79:0
     RDKit          3D

 39 41  0  0  0  0  0  0  0  0999 V2000
  139.3340  155.9690  133.0390 C   0  0  0  0  0  0  0  0  0  0  0  0
  138.6530  157.2400  133.3480 N   0  0  0  0  0  0  0  0  0  0  0  0
  138.8710  158.2680  132.3210 C   0  0  0  0  0  0  0  0  0  0  0  0
  140.3340  158.7250  132.2250 C   0  0  0  0  0  0  0  0  0  0  0  0
  141.0590  158.7720  133.5140 N   0  0  0  0  0  0  0  0  0  0  0  0
  142.4390  159.2610  133.5270 C   0  0  0  0  0  0  0  0  0  0  0  0
  142.7290  160.6480  133.7140 C   0  0  0  0  0  0  0  0  0  0  0  0
  144.0490  161.1240  133.7390 C   0  0  0  0  0  0  0  0  0  0  0  0
  145.0780  160.2090  133.5640 C   0  0  0  0  0  0  0  0  0  0  0  0
  146.4400  160.4020  133.5660 C   0  0  0  0  0  0  0  0  0  0  0  0
  146.9900  159.1410  133.3490 C   0  0  0  0  0  0  0  0  0  0  0  0
  148.4410  158.9020  133.1950 C   0  0  0  0  0  0  0  0  0  0  0  0
  148.9630  158.4910  131.9330 N   0  0  0  0  0  0  0  0  0  0  0  0
  149.2230  159.0230  134.1740 O   0  0  0  0  0  0  0  0  0  0  0  0
  146.0060  158.2060  133.2250 N   0  0  0  0  0  0  0  0  0  0  0  0
  146.1540  156.7880  133.0500 C   0  0  0  0  0  0  0  0  0  0  0  0
  145.4420  155.9870  133.7120 O   0  0  0  0  0  0  0  0  0  0  0  0
  147.0710  156.2850  132.1360 O   0  0  0  0  0  0  0  0  0  0  0  0
  144.8400  158.8800  133.3570 C   0  0  0  0  0  0  0  0  0  0  0  0
  143.5370  158.3700  133.3470 C   0  0  0  0  0  0  0  0  0  0  0  0
  140.4950  158.1980  134.7550 C   0  0  0  0  0  0  0  0  0  0  0  0
  139.0210  157.7790  134.6650 C   0  0  0  0  0  0  0  0  0  0  0  0
  139.6060  155.4614  133.9762 H   0  0  0  0  0  0  0  0  0  0  0  0
  138.6603  155.3246  132.4551 H   0  0  0  0  0  0  0  0  0  0  0  0
  140.2437  156.1729  132.4551 H   0  0  0  0  0  0  0  0  0  0  0  0
  137.6250  157.0390  133.3710 H   0  0  0  0  0  0  0  0  0  0  0  0
  138.5678  157.8584  131.3462 H   0  0  0  0  0  0  0  0  0  0  0  0
  138.2717  159.1459  132.6042 H   0  0  0  0  0  0  0  0  0  0  0  0
  140.8660  158.0296  131.5592 H   0  0  0  0  0  0  0  0  0  0  0  0
  140.3099  159.7579  131.8474 H   0  0  0  0  0  0  0  0  0  0  0  0
  141.8989  161.3584  133.8412 H   0  0  0  0  0  0  0  0  0  0  0  0
  144.2621  162.1921  133.8929 H   0  0  0  0  0  0  0  0  0  0  0  0
  146.9795  161.3499  133.7085 H   0  0  0  0  0  0  0  0  0  0  0  0
  148.7220  157.5580  131.5310 H   0  0  0  0  0  0  0  0  0  0  0  0
  143.3620  157.2937  133.2019 H   0  0  0  0  0  0  0  0  0  0  0  0
  141.0868  157.3092  135.0195 H   0  0  0  0  0  0  0  0  0  0  0  0
  140.5421  158.9953  135.5114 H   0  0  0  0  0  0  0  0  0  0  0  0
  138.8297  157.0070  135.4249 H   0  0  0  0  0  0  0  0  0  0  0  0
  138.4135  158.6808  134.8311 H   0  0  0  0  0  0  0  0  0  0  0  0
  1  2  1  0
  2  3  1  0
  3  4  1  0
  4  5  1  0
  5  6  1  0
  6  7  2  0
  7  8  1  0
  8  9  2  0
  9 10  1  0
 10 11  2  0
 11 12  1  0
 12 13  1  0
 12 14  2  0
 11 15  1  0
 15 16  1  0
 16 17  2  0
 16 18  1  0
 15 19  1  0
 19 20  2  0
  5 21  1  0
 21 22  1  0
 22  2  1  0
 20  6  1  0
 19  9  1  0
  1 23  1  0
  1 24  1  0
  1 25  1  0
  2 26  1  0
  3 27  1  0
  3 28  1  0
  4 29  1  0
  4 30  1  0
  7 31  1  0
  8 32  1  0
 10 33  1  0
 13 34  1  0
 20 35  1  0
 21 36  1  0
 21 37  1  0
 22 38  1  0
 22 39  1  0
M  CHG  3   2   1  13  -1  18  -1
M  END
>  <UniqueID>  (80) 
80

>  <SMILES>  (80) 
C[NH+]1CCN(c2ccc3cc(C([NH-])=O)n(C(=O)[O-])c3c2)CC1

>  <Energy>  (80) 
90.44845767323328

>  <Genealogy>  (80) 
C[NH+]1CCN(c2ccc3cc(C([NH-])=O)n(C(=O)[O-])c3c2)CC1 (protonated)
C[NH+]1CCN(c2ccc3cc(C([NH-])=O)n(C(=O)[O-])c3c2)CC1 (3D coordinates assigned)
C[NH+]1CCN(c2ccc3cc(C([NH-])=O)n(C(=O)[O-])c3c2)CC1 (nonaromatic ring conformer: 90.44845767323328 kcal/mol)

>  <smiles>  (80) 
CN1CCN(c2ccc3cc(C(N)=O)n(C(=O)O)c3c2)CC1

>  <score_type>  (80) 
oracle

>  <origin>  (80) 
adg

>  <m_score__min__energy>  (80) 
-6.0099999999999998

>  <m_primary>  (80) 
energy

$$$$
80:0
     RDKit          3D

 62 64  0  0  0  0  0  0  0  0999 V2000
  140.6640  157.8540  135.1530 C   0  0  0  0  0  0  0  0  0  0  0  0
  142.0400  157.5010  134.5690 C   0  0  0  0  0  0  0  0  0  0  0  0
  141.9020  157.3270  133.0430 C   0  0  0  0  0  0  0  0  0  0  0  0
  142.5380  156.1970  135.2200 C   0  0  0  0  0  0  0  0  0  0  0  0
  142.9220  158.5910  134.8780 O   0  0  0  0  0  0  0  0  0  0  0  0
  143.4180  159.5430  133.9750 C   0  0  0  0  0  0  0  0  0  0  0  0
  142.6390  160.3220  133.3610 O   0  0  0  0  0  0  0  0  0  0  0  0
  144.8340  159.6520  133.7730 N   0  0  0  0  0  0  0  0  0  0  0  0
  145.5890  160.7860  133.7390 C   0  0  0  0  0  0  0  0  0  0  0  0
  145.1300  162.1440  134.0980 C   0  0  0  0  0  0  0  0  0  0  0  0
  145.9370  163.0050  134.8980 N   0  0  0  0  0  0  0  0  0  0  0  0
  144.0320  162.5700  133.6490 O   0  0  0  0  0  0  0  0  0  0  0  0
  146.9100  160.4840  133.4120 C   0  0  0  0  0  0  0  0  0  0  0  0
  146.9420  159.1180  133.2500 C   0  0  0  0  0  0  0  0  0  0  0  0
  148.0030  158.2810  132.9180 C   0  0  0  0  0  0  0  0  0  0  0  0
  147.7420  156.9040  132.7980 C   0  0  0  0  0  0  0  0  0  0  0  0
  146.4320  156.3990  132.9930 C   0  0  0  0  0  0  0  0  0  0  0  0
  146.1630  154.9240  132.8640 C   0  0  0  0  0  0  0  0  0  0  0  0
  144.7320  154.6730  132.3580 C   0  0  0  0  0  0  0  0  0  0  0  0
  144.6060  153.3650  131.6860 N   0  0  0  0  0  0  0  0  0  0  0  0
  144.2980  152.3100  132.6160 C   0  0  0  0  0  0  0  0  0  0  0  0
  144.8410  151.1810  132.4800 O   0  0  0  0  0  0  0  0  0  0  0  0
  143.4200  152.5550  133.7190 N   0  0  0  0  0  0  0  0  0  0  0  0
  141.7360  152.1410  133.7190 S   0  0  0  0  0  0  0  0  0  0  0  0
  140.9360  153.4050  133.5610 O   0  0  0  0  0  0  0  0  0  0  0  0
  141.3650  151.5000  135.0280 O   0  0  0  0  0  0  0  0  0  0  0  0
  141.3520  151.0330  132.3650 C   0  0  0  0  0  0  0  0  0  0  0  0
  139.8600  150.8400  132.1610 C   0  0  0  0  0  0  0  0  0  0  0  0
  139.7440  149.5220  131.4110 C   0  0  0  0  0  0  0  0  0  0  0  0
  140.9780  148.7020  131.7930 C   0  0  0  0  0  0  0  0  0  0  0  0
  141.8950  149.6280  132.5890 C   0  0  0  0  0  0  0  0  0  0  0  0
  145.3850  157.2790  133.3450 C   0  0  0  0  0  0  0  0  0  0  0  0
  145.6760  158.6400  133.4740 C   0  0  0  0  0  0  0  0  0  0  0  0
  140.7175  157.8403  136.2516 H   0  0  0  0  0  0  0  0  0  0  0  0
  140.3677  158.8572  134.8128 H   0  0  0  0  0  0  0  0  0  0  0  0
  139.9213  157.1173  134.8128 H   0  0  0  0  0  0  0  0  0  0  0  0
  141.2315  156.4815  132.8295 H   0  0  0  0  0  0  0  0  0  0  0  0
  141.4843  158.2458  132.6055 H   0  0  0  0  0  0  0  0  0  0  0  0
  142.8917  157.1296  132.6055 H   0  0  0  0  0  0  0  0  0  0  0  0
  142.5002  156.2961  136.3149 H   0  0  0  0  0  0  0  0  0  0  0  0
  141.8957  155.3614  134.9050 H   0  0  0  0  0  0  0  0  0  0  0  0
  143.5738  156.0022  134.9050 H   0  0  0  0  0  0  0  0  0  0  0  0
  146.9770  162.9860  134.8280 H   0  0  0  0  0  0  0  0  0  0  0  0
  147.7485  161.1880  133.3060 H   0  0  0  0  0  0  0  0  0  0  0  0
  149.0136  158.6834  132.7546 H   0  0  0  0  0  0  0  0  0  0  0  0
  148.5615  156.2132  132.5507 H   0  0  0  0  0  0  0  0  0  0  0  0
  146.8792  154.4875  132.1523 H   0  0  0  0  0  0  0  0  0  0  0  0
  146.2746  154.4569  133.8536 H   0  0  0  0  0  0  0  0  0  0  0  0
  144.0423  154.7004  133.2145 H   0  0  0  0  0  0  0  0  0  0  0  0
  144.4875  155.4567  131.6259 H   0  0  0  0  0  0  0  0  0  0  0  0
  143.8320  153.4280  130.9830 H   0  0  0  0  0  0  0  0  0  0  0  0
  145.4800  153.1150  131.1700 H   0  0  0  0  0  0  0  0  0  0  0  0
  141.8177  151.5206  131.4958 H   0  0  0  0  0  0  0  0  0  0  0  0
  139.3396  150.7836  133.1285 H   0  0  0  0  0  0  0  0  0  0  0  0
  139.4022  151.6753  131.6109 H   0  0  0  0  0  0  0  0  0  0  0  0
  138.8272  148.9928  131.7100 H   0  0  0  0  0  0  0  0  0  0  0  0
  139.6912  149.6832  130.3241 H   0  0  0  0  0  0  0  0  0  0  0  0
  140.6836  147.8396  132.4092 H   0  0  0  0  0  0  0  0  0  0  0  0
  141.4878  148.3163  130.8978 H   0  0  0  0  0  0  0  0  0  0  0  0
  141.8660  149.3710  133.6582 H   0  0  0  0  0  0  0  0  0  0  0  0
  142.9427  149.5400  132.2656 H   0  0  0  0  0  0  0  0  0  0  0  0
  144.3653  156.9025  133.5136 H   0  0  0  0  0  0  0  0  0  0  0  0
  1  2  1  0
  2  3  1  0
  2  4  1  0
  2  5  1  0
  5  6  1  0
  6  7  2  0
  6  8  1  0
  8  9  1  0
  9 10  1  0
 10 11  1  0
 10 12  2  0
  9 13  2  0
 13 14  1  0
 14 15  2  0
 15 16  1  0
 16 17  2  0
 17 18  1  0
 18 19  1  0
 19 20  1  0
 20 21  1  0
 21 22  2  0
 21 23  1  0
 23 24  1  0
 24 25  2  0
 24 26  2  0
 24 27  1  0
 27 28  1  0
 28 29  1  0
 29 30  1  0
 30 31  1  0
 17 32  1  0
 32 33  2  0
 33  8  1  0
 33 14  1  0
 31 27  1  0
  1 34  1  0
  1 35  1  0
  1 36  1  0
  3 37  1  0
  3 38  1  0
  3 39  1  0
  4 40  1  0
  4 41  1  0
  4 42  1  0
 11 43  1  0
 13 44  1  0
 15 45  1  0
 16 46  1  0
 18 47  1  0
 18 48  1  0
 19 49  1  0
 19 50  1  0
 20 51  1  0
 20 52  1  0
 27 53  1  0
 28 54  1  0
 28 55  1  0
 29 56  1  0
 29 57  1  0
 30 58  1  0
 30 59  1  0
 31 60  1  0
 31 61  1  0
 32 62  1  0
M  CHG  3  11  -1  20   1  23  -1
M  END
>  <UniqueID>  (81) 
81

>  <SMILES>  (81) 
CC(C)(C)OC(=O)n1c(C([NH-])=O)cc2ccc(CC[NH2+]C(=O)[N-]S(=O)(=O)C3CCCC3)cc21

>  <Energy>  (81) 
93.39522432371736

>  <Genealogy>  (81) 
CC(C)(C)OC(=O)n1c(C([NH-])=O)cc2ccc(CC[NH2+]C(=O)[N-]S(=O)(=O)C3CCCC3)cc21 (protonated)
CC(C)(C)OC(=O)n1c(C([NH-])=O)cc2ccc(CC[NH2+]C(=O)[N-]S(=O)(=O)C3CCCC3)cc21 (3D coordinates assigned)
CC(C)(C)OC(=O)n1c(C([NH-])=O)cc2ccc(CC[NH2+]C(=O)[N-]S(=O)(=O)C3CCCC3)cc21 (nonaromatic ring conformer: 93.39522432371736 kcal/mol)

>  <smiles>  (81) 
CC(C)(C)OC(=O)n1c(C(N)=O)cc2ccc(CCNC(=O)NS(=O)(=O)C3CCCC3)cc21

>  <score_type>  (81) 
oracle

>  <origin>  (81) 
adg

>  <m_score__min__energy>  (81) 
-10.74

>  <m_primary>  (81) 
energy

$$$$
81:0
     RDKit          3D

 42 44  0  0  0  0  0  0  0  0999 V2000
  140.4080  158.6140  135.9490 C   0  0  0  0  0  0  0  0  0  0  0  0
  140.9010  158.1890  134.5610 C   0  0  0  0  0  0  0  0  0  0  0  0
  139.8790  158.5530  133.4780 C   0  0  0  0  0  0  0  0  0  0  0  0
  142.2600  158.7890  134.2570 C   0  0  0  0  0  0  0  0  0  0  0  0
  142.3800  160.1850  134.0290 C   0  0  0  0  0  0  0  0  0  0  0  0
  143.6250  160.7610  133.7300 C   0  0  0  0  0  0  0  0  0  0  0  0
  144.7360  159.9240  133.6770 C   0  0  0  0  0  0  0  0  0  0  0  0
  146.0460  160.2140  133.3740 C   0  0  0  0  0  0  0  0  0  0  0  0
  146.7180  158.9980  133.4530 C   0  0  0  0  0  0  0  0  0  0  0  0
  148.1750  158.8600  133.2480 C   0  0  0  0  0  0  0  0  0  0  0  0
  148.8140  157.5840  133.3110 N   0  0  0  0  0  0  0  0  0  0  0  0
  148.8730  159.8920  133.0650 O   0  0  0  0  0  0  0  0  0  0  0  0
  145.8590  157.9920  133.7800 N   0  0  0  0  0  0  0  0  0  0  0  0
  146.1480  156.5860  133.8470 C   0  0  0  0  0  0  0  0  0  0  0  0
  146.0080  155.9710  134.9380 O   0  0  0  0  0  0  0  0  0  0  0  0
  146.5840  155.8910  132.6710 N   0  0  0  0  0  0  0  0  0  0  0  0
  147.4200  154.7290  132.6440 C   0  0  0  0  0  0  0  0  0  0  0  0
  146.8870  153.4790  132.6440 N   0  0  0  0  0  0  0  0  0  0  0  0
  147.6790  152.3760  132.6200 C   0  0  0  0  0  0  0  0  0  0  0  0
  149.0740  152.5130  132.5940 C   0  0  0  0  0  0  0  0  0  0  0  0
  149.9610  151.3310  132.5670 C   0  0  0  0  0  0  0  0  0  0  0  0
  150.3530  150.7990  133.6400 O   0  0  0  0  0  0  0  0  0  0  0  0
  150.3760  150.7900  131.3550 O   0  0  0  0  0  0  0  0  0  0  0  0
  149.6010  153.8110  132.5940 C   0  0  0  0  0  0  0  0  0  0  0  0
  148.7680  154.8840  132.6190 N   0  0  0  0  0  0  0  0  0  0  0  0
  144.6470  158.5770  133.9150 C   0  0  0  0  0  0  0  0  0  0  0  0
  143.4140  157.9720  134.1900 C   0  0  0  0  0  0  0  0  0  0  0  0
  141.0013  158.1026  136.7213 H   0  0  0  0  0  0  0  0  0  0  0  0
  140.5209  159.7025  136.0608 H   0  0  0  0  0  0  0  0  0  0  0  0
  139.3481  158.3419  136.0608 H   0  0  0  0  0  0  0  0  0  0  0  0
  141.0117  157.0946  134.5629 H   0  0  0  0  0  0  0  0  0  0  0  0
  138.9443  158.8859  133.9529 H   0  0  0  0  0  0  0  0  0  0  0  0
  140.2810  159.3632  132.8520 H   0  0  0  0  0  0  0  0  0  0  0  0
  139.6783  157.6711  132.8520 H   0  0  0  0  0  0  0  0  0  0  0  0
  141.4862  160.8235  134.0873 H   0  0  0  0  0  0  0  0  0  0  0  0
  143.7196  161.8409  133.5433 H   0  0  0  0  0  0  0  0  0  0  0  0
  146.4714  161.1969  133.1229 H   0  0  0  0  0  0  0  0  0  0  0  0
  149.8370  157.5020  133.1200 H   0  0  0  0  0  0  0  0  0  0  0  0
  148.2980  156.7380  133.6340 H   0  0  0  0  0  0  0  0  0  0  0  0
  147.2254  151.3739  132.6210 H   0  0  0  0  0  0  0  0  0  0  0  0
  150.6904  153.9616  132.5737 H   0  0  0  0  0  0  0  0  0  0  0  0
  143.3440  156.8860  134.3504 H   0  0  0  0  0  0  0  0  0  0  0  0
  1  2  1  0
  2  3  1  0
  2  4  1  0
  4  5  2  0
  5  6  1  0
  6  7  2  0
  7  8  1  0
  8  9  2  0
  9 10  1  0
 10 11  1  0
 10 12  2  0
  9 13  1  0
 13 14  1  0
 14 15  2  0
 14 16  1  0
 16 17  1  0
 17 18  2  0
 18 19  1  0
 19 20  2  0
 20 21  1  0
 21 22  2  0
 21 23  1  0
 20 24  1  0
 24 25  2  0
 13 26  1  0
 26 27  2  0
 27  4  1  0
 26  7  1  0
 25 17  1  0
  1 28  1  0
  1 29  1  0
  1 30  1  0
  2 31  1  0
  3 32  1  0
  3 33  1  0
  3 34  1  0
  5 35  1  0
  6 36  1  0
  8 37  1  0
 11 38  1  0
 11 39  1  0
 19 40  1  0
 24 41  1  0
 27 42  1  0
M  CHG  2  16  -1  23  -1
M  END
>  <UniqueID>  (82) 
82

>  <SMILES>  (82) 
CC(C)c1ccc2cc(C(N)=O)n(C(=O)[N-]c3ncc(C(=O)[O-])cn3)c2c1

>  <Energy>  (82) 
82.67947458233802

>  <Genealogy>  (82) 
CC(C)c1ccc2cc(C(N)=O)n(C(=O)[N-]c3ncc(C(=O)[O-])cn3)c2c1 (protonated)
CC(C)c1ccc2cc(C(N)=O)n(C(=O)[N-]c3ncc(C(=O)[O-])cn3)c2c1 (3D coordinates assigned)
CC(C)c1ccc2cc(C(N)=O)n(C(=O)[N-]c3ncc(C(=O)[O-])cn3)c2c1 (optimized conformer: 82.67947458233802 kcal/mol)

>  <smiles>  (82) 
CC(C)c1ccc2cc(C(N)=O)n(C(=O)Nc3ncc(C(=O)O)cn3)c2c1

>  <score_type>  (82) 
oracle

>  <origin>  (82) 
adg

>  <m_score__min__energy>  (82) 
-8.8900000000000006

>  <m_primary>  (82) 
energy

$$$$
82:0
     RDKit          3D

 28 29  0  0  0  0  0  0  0  0999 V2000
  141.7920  160.7360  134.1070 N   0  0  0  0  0  0  0  0  0  0  0  0
  142.7610  159.8920  134.7240 C   0  0  0  0  0  0  0  0  0  0  0  0
  142.4980  159.3650  135.8380 O   0  0  0  0  0  0  0  0  0  0  0  0
  144.0830  159.6680  134.1020 C   0  0  0  0  0  0  0  0  0  0  0  0
  144.5370  158.4140  133.7010 C   0  0  0  0  0  0  0  0  0  0  0  0
  145.8230  158.6160  133.2560 C   0  0  0  0  0  0  0  0  0  0  0  0
  146.7380  157.7120  132.7250 C   0  0  0  0  0  0  0  0  0  0  0  0
  147.9870  158.2060  132.3110 C   0  0  0  0  0  0  0  0  0  0  0  0
  148.2950  159.5840  132.4320 C   0  0  0  0  0  0  0  0  0  0  0  0
  149.6210  160.1080  131.9450 C   0  0  0  0  0  0  0  0  0  0  0  0
  149.5130  160.6780  130.5290 C   0  0  0  0  0  0  0  0  0  0  0  0
  150.4730  160.1100  129.7100 F   0  0  0  0  0  0  0  0  0  0  0  0
  149.6840  162.0500  130.5500 F   0  0  0  0  0  0  0  0  0  0  0  0
  148.2620  160.3910  130.0150 F   0  0  0  0  0  0  0  0  0  0  0  0
  147.3360  160.4730  132.9680 C   0  0  0  0  0  0  0  0  0  0  0  0
  146.1080  159.9500  133.3900 C   0  0  0  0  0  0  0  0  0  0  0  0
  145.0480  160.6110  133.9070 N   0  0  0  0  0  0  0  0  0  0  0  0
  144.9480  162.0290  134.1140 C   0  0  0  0  0  0  0  0  0  0  0  0
  145.9640  162.7240  134.8330 N   0  0  0  0  0  0  0  0  0  0  0  0
  143.9650  162.6680  133.6490 O   0  0  0  0  0  0  0  0  0  0  0  0
  142.0420  161.6960  133.7850 H   0  0  0  0  0  0  0  0  0  0  0  0
  143.9844  157.4634  133.7333 H   0  0  0  0  0  0  0  0  0  0  0  0
  146.4915  156.6440  132.6322 H   0  0  0  0  0  0  0  0  0  0  0  0
  148.7327  157.5163  131.8889 H   0  0  0  0  0  0  0  0  0  0  0  0
  149.9630  160.9022  132.6249 H   0  0  0  0  0  0  0  0  0  0  0  0
  150.3366  159.2728  131.9272 H   0  0  0  0  0  0  0  0  0  0  0  0
  147.5492  161.5489  133.0515 H   0  0  0  0  0  0  0  0  0  0  0  0
  146.9700  162.6240  134.5710 H   0  0  0  0  0  0  0  0  0  0  0  0
  1  2  1  0
  2  3  2  0
  2  4  1  0
  4  5  2  0
  5  6  1  0
  6  7  2  0
  7  8  1  0
  8  9  2  0
  9 10  1  0
 10 11  1  0
 11 12  1  0
 11 13  1  0
 11 14  1  0
  9 15  1  0
 15 16  2  0
 16 17  1  0
 17 18  1  0
 18 19  1  0
 18 20  2  0
 17  4  1  0
 16  6  1  0
  1 21  1  0
  5 22  1  0
  7 23  1  0
  8 24  1  0
 10 25  1  0
 10 26  1  0
 15 27  1  0
 19 28  1  0
M  CHG  2   1  -1  19  -1
M  END
>  <UniqueID>  (83) 
83

>  <SMILES>  (83) 
[NH-]C(=O)c1cc2ccc(CC(F)(F)F)cc2n1C([NH-])=O

>  <Energy>  (83) 
65.14208303574793

>  <Genealogy>  (83) 
[NH-]C(=O)c1cc2ccc(CC(F)(F)F)cc2n1C([NH-])=O (protonated)
[NH-]C(=O)c1cc2ccc(CC(F)(F)F)cc2n1C([NH-])=O (3D coordinates assigned)
[NH-]C(=O)c1cc2ccc(CC(F)(F)F)cc2n1C([NH-])=O (optimized conformer: 65.14208303574793 kcal/mol)

>  <smiles>  (83) 
NC(=O)c1cc2ccc(CC(F)(F)F)cc2n1C(N)=O

>  <score_type>  (83) 
oracle

>  <origin>  (83) 
adg

>  <m_score__min__energy>  (83) 
-6.2699999999999996

>  <m_primary>  (83) 
energy

$$$$
83:0
     RDKit          3D

 43 45  0  0  0  0  0  0  0  0999 V2000
  140.2570  157.9600  135.9780 C   0  0  0  0  0  0  0  0  0  0  0  0
  140.7080  157.4500  134.7270 O   0  0  0  0  0  0  0  0  0  0  0  0
  141.0810  158.2610  133.6450 C   0  0  0  0  0  0  0  0  0  0  0  0
  140.1860  158.5250  132.6680 C   0  0  0  0  0  0  0  0  0  0  0  0
  138.7950  157.9310  132.7010 C   0  0  0  0  0  0  0  0  0  0  0  0
  137.7210  158.9340  132.2210 C   0  0  0  0  0  0  0  0  0  0  0  0
  138.1920  159.9290  131.2340 N   0  0  0  0  0  0  0  0  0  0  0  0
  139.3840  159.4950  130.4970 C   0  0  0  0  0  0  0  0  0  0  0  0
  140.5740  159.3330  131.4490 C   0  0  0  0  0  0  0  0  0  0  0  0
  142.4510  158.8170  133.5860 C   0  0  0  0  0  0  0  0  0  0  0  0
  142.6590  160.2050  133.7710 C   0  0  0  0  0  0  0  0  0  0  0  0
  143.9560  160.7430  133.7310 C   0  0  0  0  0  0  0  0  0  0  0  0
  145.0160  159.8690  133.5010 C   0  0  0  0  0  0  0  0  0  0  0  0
  146.3690  160.1160  133.4300 C   0  0  0  0  0  0  0  0  0  0  0  0
  146.9580  158.8760  133.1850 C   0  0  0  0  0  0  0  0  0  0  0  0
  148.4030  158.6960  132.9410 C   0  0  0  0  0  0  0  0  0  0  0  0
  148.8810  158.2250  131.6830 N   0  0  0  0  0  0  0  0  0  0  0  0
  149.2330  159.0030  133.8390 O   0  0  0  0  0  0  0  0  0  0  0  0
  146.0080  157.9020  133.1190 N   0  0  0  0  0  0  0  0  0  0  0  0
  146.2030  156.4870  132.9640 C   0  0  0  0  0  0  0  0  0  0  0  0
  147.0030  155.9790  131.8960 N   0  0  0  0  0  0  0  0  0  0  0  0
  145.6960  155.6880  133.7950 O   0  0  0  0  0  0  0  0  0  0  0  0
  144.8260  158.5260  133.3090 C   0  0  0  0  0  0  0  0  0  0  0  0
  143.5470  157.9600  133.3600 C   0  0  0  0  0  0  0  0  0  0  0  0
  140.7443  157.4089  136.7958 H   0  0  0  0  0  0  0  0  0  0  0  0
  140.5120  159.0275  136.0522 H   0  0  0  0  0  0  0  0  0  0  0  0
  139.1664  157.8375  136.0522 H   0  0  0  0  0  0  0  0  0  0  0  0
  138.7716  157.0468  132.0471 H   0  0  0  0  0  0  0  0  0  0  0  0
  138.5662  157.6638  133.7432 H   0  0  0  0  0  0  0  0  0  0  0  0
  136.9000  158.3621  131.7639 H   0  0  0  0  0  0  0  0  0  0  0  0
  137.4138  159.5044  133.1100 H   0  0  0  0  0  0  0  0  0  0  0  0
  138.4160  160.8220  131.7320 H   0  0  0  0  0  0  0  0  0  0  0  0
  139.1769  158.5311  130.0090 H   0  0  0  0  0  0  0  0  0  0  0  0
  139.6327  160.2561  129.7428 H   0  0  0  0  0  0  0  0  0  0  0  0
  141.3900  158.8181  130.9207 H   0  0  0  0  0  0  0  0  0  0  0  0
  140.8982  160.3312  131.7784 H   0  0  0  0  0  0  0  0  0  0  0  0
  141.7985  160.8672  133.9474 H   0  0  0  0  0  0  0  0  0  0  0  0
  144.1290  161.8195  133.8766 H   0  0  0  0  0  0  0  0  0  0  0  0
  146.8770  161.0852  133.5426 H   0  0  0  0  0  0  0  0  0  0  0  0
  148.8760  157.2060  131.4540 H   0  0  0  0  0  0  0  0  0  0  0  0
  147.4930  156.6300  131.2450 H   0  0  0  0  0  0  0  0  0  0  0  0
  147.1320  154.9500  131.7790 H   0  0  0  0  0  0  0  0  0  0  0  0
  143.4013  156.8778  133.2276 H   0  0  0  0  0  0  0  0  0  0  0  0
  1  2  1  0
  2  3  1  0
  3  4  2  3
  4  5  1  0
  5  6  1  0
  6  7  1  0
  7  8  1  0
  8  9  1  0
  3 10  1  0
 10 11  2  0
 11 12  1  0
 12 13  2  0
 13 14  1  0
 14 15  2  0
 15 16  1  0
 16 17  1  0
 16 18  2  0
 15 19  1  0
 19 20  1  0
 20 21  1  0
 20 22  2  0
 19 23  1  0
 23 24  2  0
  9  4  1  0
 24 10  1  0
 23 13  1  0
  1 25  1  0
  1 26  1  0
  1 27  1  0
  5 28  1  0
  5 29  1  0
  6 30  1  0
  6 31  1  0
  7 32  1  0
  8 33  1  0
  8 34  1  0
  9 35  1  0
  9 36  1  0
 11 37  1  0
 12 38  1  0
 14 39  1  0
 17 40  1  0
 21 41  1  0
 21 42  1  0
 24 43  1  0
M  CHG  1  17  -1
M  END
>  <UniqueID>  (84) 
84

>  <SMILES>  (84) 
COC(=C1CCNCC1)c1ccc2cc(C([NH-])=O)n(C(N)=O)c2c1

>  <Energy>  (84) 
93.24950797779057

>  <Genealogy>  (84) 
COC(=C1CCNCC1)c1ccc2cc(C([NH-])=O)n(C(N)=O)c2c1 (protonated)
COC(=C1CCNCC1)c1ccc2cc(C([NH-])=O)n(C(N)=O)c2c1 (3D coordinates assigned)
COC(=C1CCNCC1)c1ccc2cc(C([NH-])=O)n(C(N)=O)c2c1 (nonaromatic ring conformer: 93.24950797779057 kcal/mol)

>  <smiles>  (84) 
COC(=C1CCNCC1)c1ccc2cc(C(N)=O)n(C(N)=O)c2c1

>  <score_type>  (84) 
oracle

>  <origin>  (84) 
adg

>  <m_score__min__energy>  (84) 
-8.2400000000000002

>  <m_primary>  (84) 
energy

$$$$
84:0
     RDKit          3D

 32 33  0  0  0  0  0  0  0  0999 V2000
  145.6070  162.7770  134.4830 C   0  0  0  0  0  0  0  0  0  0  0  0
  144.7200  161.6480  133.9730 C   0  0  0  0  0  0  0  0  0  0  0  0
  145.3220  160.3810  134.2280 O   0  0  0  0  0  0  0  0  0  0  0  0
  145.3910  159.3540  133.2790 C   0  0  0  0  0  0  0  0  0  0  0  0
  144.3610  159.0110  132.6370 O   0  0  0  0  0  0  0  0  0  0  0  0
  146.6370  158.6770  133.0490 N   0  0  0  0  0  0  0  0  0  0  0  0
  147.0260  157.4620  133.5280 C   0  0  0  0  0  0  0  0  0  0  0  0
  146.1670  156.5190  134.2790 C   0  0  0  0  0  0  0  0  0  0  0  0
  144.7730  156.4080  133.9820 N   0  0  0  0  0  0  0  0  0  0  0  0
  146.6520  155.8270  135.2130 O   0  0  0  0  0  0  0  0  0  0  0  0
  148.3320  157.1760  133.1320 C   0  0  0  0  0  0  0  0  0  0  0  0
  148.7330  158.2610  132.3860 C   0  0  0  0  0  0  0  0  0  0  0  0
  149.9500  158.5150  131.7590 C   0  0  0  0  0  0  0  0  0  0  0  0
  150.0980  159.7360  131.0810 C   0  0  0  0  0  0  0  0  0  0  0  0
  149.0350  160.6710  131.0380 C   0  0  0  0  0  0  0  0  0  0  0  0
  149.2260  161.9930  130.3560 C   0  0  0  0  0  0  0  0  0  0  0  0
  147.8200  160.3870  131.6980 C   0  0  0  0  0  0  0  0  0  0  0  0
  147.6920  159.1540  132.3510 C   0  0  0  0  0  0  0  0  0  0  0  0
  145.6060  162.7757  135.5830 H   0  0  0  0  0  0  0  0  0  0  0  0
  146.6339  162.6303  134.1171 H   0  0  0  0  0  0  0  0  0  0  0  0
  145.2214  163.7400  134.1171 H   0  0  0  0  0  0  0  0  0  0  0  0
  143.7466  161.6947  134.4832 H   0  0  0  0  0  0  0  0  0  0  0  0
  144.5873  161.7649  132.8873 H   0  0  0  0  0  0  0  0  0  0  0  0
  144.3450  156.9230  133.1820 H   0  0  0  0  0  0  0  0  0  0  0  0
  144.1690  155.7700  134.5450 H   0  0  0  0  0  0  0  0  0  0  0  0
  148.9175  156.2747  133.3661 H   0  0  0  0  0  0  0  0  0  0  0  0
  150.7698  157.7823  131.7936 H   0  0  0  0  0  0  0  0  0  0  0  0
  151.0486  159.9684  130.5786 H   0  0  0  0  0  0  0  0  0  0  0  0
  149.3401  162.7830  131.1129 H   0  0  0  0  0  0  0  0  0  0  0  0
  150.1279  161.9544  129.7274 H   0  0  0  0  0  0  0  0  0  0  0  0
  148.3501  162.2113  129.7274 H   0  0  0  0  0  0  0  0  0  0  0  0
  146.9952  161.1147  131.6996 H   0  0  0  0  0  0  0  0  0  0  0  0
  1  2  1  0
  2  3  1  0
  3  4  1  0
  4  5  2  0
  4  6  1  0
  6  7  1  0
  7  8  1  0
  8  9  1  0
  8 10  2  0
  7 11  2  0
 11 12  1  0
 12 13  2  0
 13 14  1  0
 14 15  2  0
 15 16  1  0
 15 17  1  0
 17 18  2  0
 18  6  1  0
 18 12  1  0
  1 19  1  0
  1 20  1  0
  1 21  1  0
  2 22  1  0
  2 23  1  0
  9 24  1  0
  9 25  1  0
 11 26  1  0
 13 27  1  0
 14 28  1  0
 16 29  1  0
 16 30  1  0
 16 31  1  0
 17 32  1  0
M  END
>  <UniqueID>  (85) 
85

>  <SMILES>  (85) 
CCOC(=O)n1c(C(N)=O)cc2ccc(C)cc21

>  <Energy>  (85) 
66.01523650444015

>  <Genealogy>  (85) 
CCOC(=O)n1c(C(N)=O)cc2ccc(C)cc21 (3D coordinates assigned)
CCOC(=O)n1c(C(N)=O)cc2ccc(C)cc21 (optimized conformer: 66.01523650444015 kcal/mol)

>  <smiles>  (85) 
CCOC(=O)n1c(C(N)=O)cc2ccc(C)cc21

>  <score_type>  (85) 
oracle

>  <origin>  (85) 
adg

>  <m_score__min__energy>  (85) 
-6.1500000000000004

>  <m_primary>  (85) 
energy

$$$$
85:0
     RDKit          3D

 35 36  0  0  0  0  0  0  0  0999 V2000
  149.5270  152.5160  132.2850 C   0  0  0  0  0  0  0  0  0  0  0  0
  148.5300  153.5180  132.4360 O   0  0  0  0  0  0  0  0  0  0  0  0
  148.8370  154.8780  132.5430 C   0  0  0  0  0  0  0  0  0  0  0  0
  149.9900  155.2930  132.2450 O   0  0  0  0  0  0  0  0  0  0  0  0
  147.8370  155.8010  133.0050 N   0  0  0  0  0  0  0  0  0  0  0  0
  146.7890  155.5390  133.8350 C   0  0  0  0  0  0  0  0  0  0  0  0
  146.3770  154.1960  134.3020 C   0  0  0  0  0  0  0  0  0  0  0  0
  146.2550  153.1100  133.3820 N   0  0  0  0  0  0  0  0  0  0  0  0
  146.1600  153.9900  135.5250 O   0  0  0  0  0  0  0  0  0  0  0  0
  146.0840  156.7080  134.1170 C   0  0  0  0  0  0  0  0  0  0  0  0
  146.7370  157.7020  133.4260 C   0  0  0  0  0  0  0  0  0  0  0  0
  146.4680  159.0660  133.3560 C   0  0  0  0  0  0  0  0  0  0  0  0
  147.3260  159.8670  132.5860 C   0  0  0  0  0  0  0  0  0  0  0  0
  148.4360  159.3000  131.9050 C   0  0  0  0  0  0  0  0  0  0  0  0
  149.3710  160.1670  131.0830 C   0  0  0  0  0  0  0  0  0  0  0  0
  148.8470  161.6050  130.9840 C   0  0  0  0  0  0  0  0  0  0  0  0
  149.6030  159.5660  129.6920 C   0  0  0  0  0  0  0  0  0  0  0  0
  148.6730  157.9080  132.0030 C   0  0  0  0  0  0  0  0  0  0  0  0
  147.7910  157.1310  132.7640 C   0  0  0  0  0  0  0  0  0  0  0  0
  149.8619  152.1795  133.2773 H   0  0  0  0  0  0  0  0  0  0  0  0
  149.1086  151.6631  131.7304 H   0  0  0  0  0  0  0  0  0  0  0  0
  150.3820  152.9301  131.7304 H   0  0  0  0  0  0  0  0  0  0  0  0
  146.3740  153.2520  132.3540 H   0  0  0  0  0  0  0  0  0  0  0  0
  146.0020  152.1570  133.7270 H   0  0  0  0  0  0  0  0  0  0  0  0
  145.1948  156.8131  134.7560 H   0  0  0  0  0  0  0  0  0  0  0  0
  145.6097  159.5027  133.8876 H   0  0  0  0  0  0  0  0  0  0  0  0
  147.1362  160.9478  132.5091 H   0  0  0  0  0  0  0  0  0  0  0  0
  150.3412  160.1982  131.6004 H   0  0  0  0  0  0  0  0  0  0  0  0
  148.6988  162.0117  131.9953 H   0  0  0  0  0  0  0  0  0  0  0  0
  149.5770  162.2248  130.4429 H   0  0  0  0  0  0  0  0  0  0  0  0
  147.8893  161.6098  130.4429 H   0  0  0  0  0  0  0  0  0  0  0  0
  149.9974  158.5443  129.7951 H   0  0  0  0  0  0  0  0  0  0  0  0
  148.6512  159.5378  129.1414 H   0  0  0  0  0  0  0  0  0  0  0  0
  150.3269  160.1846  129.1414 H   0  0  0  0  0  0  0  0  0  0  0  0
  149.5313  157.4467  131.4925 H   0  0  0  0  0  0  0  0  0  0  0  0
  1  2  1  0
  2  3  1  0
  3  4  2  0
  3  5  1  0
  5  6  1  0
  6  7  1  0
  7  8  1  0
  7  9  2  0
  6 10  2  0
 10 11  1  0
 11 12  2  0
 12 13  1  0
 13 14  2  0
 14 15  1  0
 15 16  1  0
 15 17  1  0
 14 18  1  0
 18 19  2  0
 19  5  1  0
 19 11  1  0
  1 20  1  0
  1 21  1  0
  1 22  1  0
  8 23  1  0
  8 24  1  0
 10 25  1  0
 12 26  1  0
 13 27  1  0
 15 28  1  0
 16 29  1  0
 16 30  1  0
 16 31  1  0
 17 32  1  0
 17 33  1  0
 17 34  1  0
 18 35  1  0
M  END
>  <UniqueID>  (86) 
86

>  <SMILES>  (86) 
COC(=O)n1c(C(N)=O)cc2ccc(C(C)C)cc21

>  <Energy>  (86) 
67.99488032616809

>  <Genealogy>  (86) 
COC(=O)n1c(C(N)=O)cc2ccc(C(C)C)cc21 (3D coordinates assigned)
COC(=O)n1c(C(N)=O)cc2ccc(C(C)C)cc21 (optimized conformer: 67.99488032616809 kcal/mol)

>  <smiles>  (86) 
COC(=O)n1c(C(N)=O)cc2ccc(C(C)C)cc21

>  <score_type>  (86) 
oracle

>  <origin>  (86) 
adg

>  <m_score__min__energy>  (86) 
-6.75

>  <m_primary>  (86) 
energy

$$$$
86:0
     RDKit          3D

 33 35  0  0  0  0  0  0  0  0999 V2000
  141.7920  155.4770  135.0600 N   0  0  0  0  0  0  0  0  0  0  0  0
  142.4350  156.3530  134.1380 C   0  0  0  0  0  0  0  0  0  0  0  0
  142.9880  155.8760  133.1110 O   0  0  0  0  0  0  0  0  0  0  0  0
  142.4470  157.7720  134.3680 N   0  0  0  0  0  0  0  0  0  0  0  0
  141.4130  158.5490  134.7960 C   0  0  0  0  0  0  0  0  0  0  0  0
  140.1000  158.0580  135.2640 C   0  0  0  0  0  0  0  0  0  0  0  0
  139.4730  158.6080  136.4240 N   0  0  0  0  0  0  0  0  0  0  0  0
  139.4960  157.1770  134.5970 O   0  0  0  0  0  0  0  0  0  0  0  0
  141.7640  159.8950  134.7770 C   0  0  0  0  0  0  0  0  0  0  0  0
  143.0650  159.9220  134.3310 C   0  0  0  0  0  0  0  0  0  0  0  0
  143.9070  161.0070  134.1050 C   0  0  0  0  0  0  0  0  0  0  0  0
  145.1920  160.7490  133.6000 C   0  0  0  0  0  0  0  0  0  0  0  0
  145.6110  159.4220  133.3190 C   0  0  0  0  0  0  0  0  0  0  0  0
  146.9650  159.1650  132.7690 C   0  0  0  0  0  0  0  0  0  0  0  0
  147.6600  157.9850  133.0980 C   0  0  0  0  0  0  0  0  0  0  0  0
  148.9350  157.7460  132.5790 C   0  0  0  0  0  0  0  0  0  0  0  0
  149.5320  158.6790  131.7270 C   0  0  0  0  0  0  0  0  0  0  0  0
  148.8540  159.8540  131.3920 C   0  0  0  0  0  0  0  0  0  0  0  0
  149.6070  161.0270  130.3270 Cl  0  0  0  0  0  0  0  0  0  0  0  0
  147.5770  160.0980  131.9090 C   0  0  0  0  0  0  0  0  0  0  0  0
  144.7210  158.3470  133.5600 C   0  0  0  0  0  0  0  0  0  0  0  0
  143.4550  158.6310  134.0870 C   0  0  0  0  0  0  0  0  0  0  0  0
  140.7890  155.6130  135.3190 H   0  0  0  0  0  0  0  0  0  0  0  0
  139.8610  159.4550  136.8960 H   0  0  0  0  0  0  0  0  0  0  0  0
  138.5660  158.2190  136.7630 H   0  0  0  0  0  0  0  0  0  0  0  0
  141.1361  160.7533  135.0582 H   0  0  0  0  0  0  0  0  0  0  0  0
  143.5763  162.0348  134.3154 H   0  0  0  0  0  0  0  0  0  0  0  0
  145.8827  161.5860  133.4199 H   0  0  0  0  0  0  0  0  0  0  0  0
  147.1958  157.2465  133.7682 H   0  0  0  0  0  0  0  0  0  0  0  0
  149.4700  156.8214  132.8416 H   0  0  0  0  0  0  0  0  0  0  0  0
  150.5360  158.4884  131.3199 H   0  0  0  0  0  0  0  0  0  0  0  0
  147.0474  161.0245  131.6422 H   0  0  0  0  0  0  0  0  0  0  0  0
  145.0178  157.3113  133.3380 H   0  0  0  0  0  0  0  0  0  0  0  0
  1  2  1  0
  2  3  2  0
  2  4  1  0
  4  5  1  0
  5  6  1  0
  6  7  1  0
  6  8  2  0
  5  9  2  0
  9 10  1  0
 10 11  2  0
 11 12  1  0
 12 13  2  0
 13 14  1  0
 14 15  2  0
 15 16  1  0
 16 17  2  0
 17 18  1  0
 18 19  1  0
 18 20  2  0
 13 21  1  0
 21 22  2  0
 22  4  1  0
 22 10  1  0
 20 14  1  0
  1 23  1  0
  7 24  1  0
  7 25  1  0
  9 26  1  0
 11 27  1  0
 12 28  1  0
 15 29  1  0
 16 30  1  0
 17 31  1  0
 20 32  1  0
 21 33  1  0
M  CHG  1   1  -1
M  END
>  <UniqueID>  (87) 
87

>  <SMILES>  (87) 
[NH-]C(=O)n1c(C(N)=O)cc2ccc(-c3cccc(Cl)c3)cc21

>  <Energy>  (87) 
80.68316198851782

>  <Genealogy>  (87) 
[NH-]C(=O)n1c(C(N)=O)cc2ccc(-c3cccc(Cl)c3)cc21 (protonated)
[NH-]C(=O)n1c(C(N)=O)cc2ccc(-c3cccc(Cl)c3)cc21 (3D coordinates assigned)
[NH-]C(=O)n1c(C(N)=O)cc2ccc(-c3cccc(Cl)c3)cc21 (optimized conformer: 80.68316198851782 kcal/mol)

>  <smiles>  (87) 
NC(=O)c1cc2ccc(-c3cccc(Cl)c3)cc2n1C(N)=O

>  <score_type>  (87) 
oracle

>  <origin>  (87) 
adg

>  <m_score__min__energy>  (87) 
-8.6300000000000008

>  <m_primary>  (87) 
energy

$$$$
87:0
     RDKit          3D

 51 54  0  0  0  0  0  0  0  0999 V2000
  138.7360  146.7790  128.7210 C   0  0  0  0  0  0  0  0  0  0  0  0
  139.0110  148.2020  129.2030 C   0  0  0  0  0  0  0  0  0  0  0  0
  138.9140  148.2790  130.6780 N   0  0  0  0  0  0  0  0  0  0  0  0
  138.6960  149.6620  131.1290 C   0  0  0  0  0  0  0  0  0  0  0  0
  140.0710  150.2960  131.3430 C   0  0  1  0  0  0  0  0  0  0  0  0
  140.1870  151.1860  132.5880 C   0  0  0  0  0  0  0  0  0  0  0  0
  141.4850  150.7630  133.2830 C   0  0  2  0  0  0  0  0  0  0  0  0
  142.7120  151.5630  132.7880 C   0  0  0  0  0  0  0  0  0  0  0  0
  142.7700  152.9410  133.3970 C   0  0  0  0  0  0  0  0  0  0  0  0
  143.9320  153.3610  134.0910 C   0  0  0  0  0  0  0  0  0  0  0  0
  143.9980  154.6390  134.6700 C   0  0  0  0  0  0  0  0  0  0  0  0
  142.8840  155.4660  134.5530 C   0  0  0  0  0  0  0  0  0  0  0  0
  142.6840  156.7530  135.0000 C   0  0  0  0  0  0  0  0  0  0  0  0
  141.3930  157.0880  134.5950 C   0  0  0  0  0  0  0  0  0  0  0  0
  140.7410  158.3730  134.9240 C   0  0  0  0  0  0  0  0  0  0  0  0
  139.7260  158.4180  135.9250 N   0  0  0  0  0  0  0  0  0  0  0  0
  141.0490  159.4300  134.3120 O   0  0  0  0  0  0  0  0  0  0  0  0
  140.8190  156.0500  133.9240 N   0  0  0  0  0  0  0  0  0  0  0  0
  139.5200  156.0080  133.3130 C   0  0  0  0  0  0  0  0  0  0  0  0
  138.6170  157.1050  133.4600 N   0  0  0  0  0  0  0  0  0  0  0  0
  139.1690  154.9980  132.6480 O   0  0  0  0  0  0  0  0  0  0  0  0
  141.7440  155.0670  133.9050 C   0  0  0  0  0  0  0  0  0  0  0  0
  141.6610  153.8100  133.2960 C   0  0  0  0  0  0  0  0  0  0  0  0
  141.6200  149.2800  132.9400 C   0  0  0  0  0  0  0  0  0  0  0  0
  141.0180  149.1300  131.5380 C   0  0  1  0  0  0  0  0  0  0  0  0
  140.1710  147.8700  131.3280 C   0  0  0  0  0  0  0  0  0  0  0  0
  138.6079  146.1161  129.5894 H   0  0  0  0  0  0  0  0  0  0  0  0
  137.8192  146.7685  128.1132 H   0  0  0  0  0  0  0  0  0  0  0  0
  139.5829  146.4276  128.1132 H   0  0  0  0  0  0  0  0  0  0  0  0
  140.0227  148.5004  128.8909 H   0  0  0  0  0  0  0  0  0  0  0  0
  138.2628  148.8771  128.7621 H   0  0  0  0  0  0  0  0  0  0  0  0
  138.1382  150.2231  130.3647 H   0  0  0  0  0  0  0  0  0  0  0  0
  138.1116  149.6788  132.0608 H   0  0  0  0  0  0  0  0  0  0  0  0
  140.2845  150.9466  130.4821 H   0  0  0  0  0  0  0  0  0  0  0  0
  140.2354  152.2460  132.2981 H   0  0  0  0  0  0  0  0  0  0  0  0
  139.3166  151.0712  133.2507 H   0  0  0  0  0  0  0  0  0  0  0  0
  141.4475  150.9548  134.3655 H   0  0  0  0  0  0  0  0  0  0  0  0
  143.6264  151.0155  133.0601 H   0  0  0  0  0  0  0  0  0  0  0  0
  142.6265  151.6766  131.6972 H   0  0  0  0  0  0  0  0  0  0  0  0
  144.7910  152.6792  134.1771 H   0  0  0  0  0  0  0  0  0  0  0  0
  144.9015  154.9760  135.1993 H   0  0  0  0  0  0  0  0  0  0  0  0
  143.3924  157.3828  135.5581 H   0  0  0  0  0  0  0  0  0  0  0  0
  139.4620  159.3200  136.3820 H   0  0  0  0  0  0  0  0  0  0  0  0
  137.6620  157.0600  133.0420 H   0  0  0  0  0  0  0  0  0  0  0  0
  138.9160  157.9770  133.9500 H   0  0  0  0  0  0  0  0  0  0  0  0
  140.7545  153.5060  132.7520 H   0  0  0  0  0  0  0  0  0  0  0  0
  142.6783  148.9801  132.9385 H   0  0  0  0  0  0  0  0  0  0  0  0
  141.1082  148.6418  133.6754 H   0  0  0  0  0  0  0  0  0  0  0  0
  141.8652  149.0809  130.8381 H   0  0  0  0  0  0  0  0  0  0  0  0
  140.7107  147.1584  130.6858 H   0  0  0  0  0  0  0  0  0  0  0  0
  139.9652  147.3791  132.2906 H   0  0  0  0  0  0  0  0  0  0  0  0
  1  2  1  0
  2  3  1  0
  3  4  1  0
  4  5  1  0
  5  6  1  0
  6  7  1  0
  7  8  1  0
  8  9  1  0
  9 10  2  0
 10 11  1  0
 11 12  2  0
 12 13  1  0
 13 14  2  0
 14 15  1  0
 15 16  1  0
 15 17  2  0
 14 18  1  0
 18 19  1  0
 19 20  1  0
 19 21  2  0
 18 22  1  0
 22 23  2  0
  7 24  1  0
 24 25  1  0
 25 26  1  0
 26  3  1  0
 25  5  1  0
 23  9  1  0
 22 12  1  0
  1 27  1  0
  1 28  1  0
  1 29  1  0
  2 30  1  0
  2 31  1  0
  4 32  1  0
  4 33  1  0
  5 34  1  6
  6 35  1  0
  6 36  1  0
  7 37  1  1
  8 38  1  0
  8 39  1  0
 10 40  1  0
 11 41  1  0
 13 42  1  0
 16 43  1  0
 20 44  1  0
 20 45  1  0
 23 46  1  0
 24 47  1  0
 24 48  1  0
 25 49  1  6
 26 50  1  0
 26 51  1  0
M  CHG  1  16  -1
M  END
>  <UniqueID>  (88) 
88

>  <SMILES>  (88) 
CCN1C[C@H]2C[C@H](Cc3ccc4cc(C([NH-])=O)n(C(N)=O)c4c3)C[C@H]2C1

>  <Energy>  (88) 
95.50351897875572

>  <Genealogy>  (88) 
CCN1C[C@H]2CC(Cc3ccc4cc(C([NH-])=O)n(C(N)=O)c4c3)C[C@H]2C1 (protonated)
CCN1C[C@H]2C[C@H](Cc3ccc4cc(C([NH-])=O)n(C(N)=O)c4c3)C[C@H]2C1 (chirality)
CCN1C[C@H]2C[C@H](Cc3ccc4cc(C([NH-])=O)n(C(N)=O)c4c3)C[C@H]2C1 (3D coordinates assigned)
CCN1C[C@H]2C[C@H](Cc3ccc4cc(C([NH-])=O)n(C(N)=O)c4c3)C[C@H]2C1 (nonaromatic ring conformer: 95.50351897875572 kcal/mol)

>  <smiles>  (88) 
CCN1C[C@H]2CC(Cc3ccc4cc(C(N)=O)n(C(N)=O)c4c3)C[C@H]2C1

>  <score_type>  (88) 
oracle

>  <origin>  (88) 
adg

>  <m_score__min__energy>  (88) 
-9.5500000000000007

>  <m_primary>  (88) 
energy

$$$$
88:0
     RDKit          3D

 56 58  0  0  0  0  0  0  0  0999 V2000
  148.4430  154.0080  133.3580 C   0  0  0  0  0  0  0  0  0  0  0  0
  147.2540  154.4750  134.2170 C   0  0  0  0  0  0  0  0  0  0  0  0
  145.9640  153.7390  133.8080 C   0  0  0  0  0  0  0  0  0  0  0  0
  147.5520  154.1700  135.6920 C   0  0  0  0  0  0  0  0  0  0  0  0
  147.0790  155.8940  134.1080 O   0  0  0  0  0  0  0  0  0  0  0  0
  146.9530  156.6330  132.9220 C   0  0  0  0  0  0  0  0  0  0  0  0
  146.9800  156.0650  131.7970 O   0  0  0  0  0  0  0  0  0  0  0  0
  146.7620  158.0530  133.0000 N   0  0  0  0  0  0  0  0  0  0  0  0
  147.6520  159.0430  132.7020 C   0  0  0  0  0  0  0  0  0  0  0  0
  149.0650  158.8540  132.3130 C   0  0  0  0  0  0  0  0  0  0  0  0
  149.6030  157.5380  132.2070 N   0  0  0  0  0  0  0  0  0  0  0  0
  149.7960  159.8410  132.0390 O   0  0  0  0  0  0  0  0  0  0  0  0
  147.0730  160.2940  132.9060 C   0  0  0  0  0  0  0  0  0  0  0  0
  145.7950  160.0390  133.3510 C   0  0  0  0  0  0  0  0  0  0  0  0
  144.7790  160.9170  133.7160 C   0  0  0  0  0  0  0  0  0  0  0  0
  143.5550  160.3700  134.1360 C   0  0  0  0  0  0  0  0  0  0  0  0
  143.3660  158.9650  134.1770 C   0  0  0  0  0  0  0  0  0  0  0  0
  142.0480  158.3880  134.6270 C   0  0  0  0  0  0  0  0  0  0  0  0
  141.2670  157.6880  133.4980 C   0  0  0  0  0  0  0  0  0  0  0  0
  140.0420  158.4880  132.9860 C   0  0  0  0  0  0  0  0  0  0  0  0
  139.1270  157.6330  132.0630 C   0  0  0  0  0  0  0  0  0  0  0  0
  138.3740  158.4540  130.9980 C   0  0  0  0  0  0  0  0  0  0  0  0
  138.0440  159.8590  131.5050 C   0  0  0  0  0  0  0  0  0  0  0  0
  139.3210  160.6550  131.8370 C   0  0  0  0  0  0  0  0  0  0  0  0
  140.5090  159.7650  132.2560 C   0  0  0  0  0  0  0  0  0  0  0  0
  144.4140  158.1080  133.7770 C   0  0  0  0  0  0  0  0  0  0  0  0
  145.6330  158.6790  133.3950 C   0  0  0  0  0  0  0  0  0  0  0  0
  149.2649  153.6852  134.0140 H   0  0  0  0  0  0  0  0  0  0  0  0
  148.1285  153.1666  132.7231 H   0  0  0  0  0  0  0  0  0  0  0  0
  148.7852  154.8385  132.7231 H   0  0  0  0  0  0  0  0  0  0  0  0
  145.4178  153.4274  134.7105 H   0  0  0  0  0  0  0  0  0  0  0  0
  145.3314  154.4121  133.2107 H   0  0  0  0  0  0  0  0  0  0  0  0
  146.2216  152.8519  133.2107 H   0  0  0  0  0  0  0  0  0  0  0  0
  146.9269  154.8098  136.3323 H   0  0  0  0  0  0  0  0  0  0  0  0
  147.3289  153.1132  135.9002 H   0  0  0  0  0  0  0  0  0  0  0  0
  148.6137  154.3685  135.9002 H   0  0  0  0  0  0  0  0  0  0  0  0
  149.0300  156.7520  131.8290 H   0  0  0  0  0  0  0  0  0  0  0  0
  147.5386  161.2776  132.7455 H   0  0  0  0  0  0  0  0  0  0  0  0
  144.9296  162.0059  133.6769 H   0  0  0  0  0  0  0  0  0  0  0  0
  142.7346  161.0385  134.4362 H   0  0  0  0  0  0  0  0  0  0  0  0
  142.2426  157.6541  135.4229 H   0  0  0  0  0  0  0  0  0  0  0  0
  141.4293  159.2276  134.9766 H   0  0  0  0  0  0  0  0  0  0  0  0
  141.9521  157.5265  132.6527 H   0  0  0  0  0  0  0  0  0  0  0  0
  140.8794  156.7473  133.9162 H   0  0  0  0  0  0  0  0  0  0  0  0
  139.4410  158.7717  133.8625 H   0  0  0  0  0  0  0  0  0  0  0  0
  139.7524  156.8886  131.5484 H   0  0  0  0  0  0  0  0  0  0  0  0
  138.3652  157.1705  132.7078 H   0  0  0  0  0  0  0  0  0  0  0  0
  139.0030  158.5366  130.0994 H   0  0  0  0  0  0  0  0  0  0  0  0
  137.4297  157.9388  130.7682 H   0  0  0  0  0  0  0  0  0  0  0  0
  137.4802  160.3960  130.7280 H   0  0  0  0  0  0  0  0  0  0  0  0
  137.4489  159.7625  132.4251 H   0  0  0  0  0  0  0  0  0  0  0  0
  139.6140  161.2304  130.9465 H   0  0  0  0  0  0  0  0  0  0  0  0
  139.0846  161.3035  132.6935 H   0  0  0  0  0  0  0  0  0  0  0  0
  141.0708  159.4748  131.3559 H   0  0  0  0  0  0  0  0  0  0  0  0
  141.1398  160.3420  132.9482 H   0  0  0  0  0  0  0  0  0  0  0  0
  144.2756  157.0168  133.7658 H   0  0  0  0  0  0  0  0  0  0  0  0
  1  2  1  0
  2  3  1  0
  2  4  1  0
  2  5  1  0
  5  6  1  0
  6  7  2  0
  6  8  1  0
  8  9  1  0
  9 10  1  0
 10 11  1  0
 10 12  2  0
  9 13  2  0
 13 14  1  0
 14 15  2  0
 15 16  1  0
 16 17  2  0
 17 18  1  0
 18 19  1  0
 19 20  1  0
 20 21  1  0
 21 22  1  0
 22 23  1  0
 23 24  1  0
 24 25  1  0
 17 26  1  0
 26 27  2  0
 27  8  1  0
 27 14  1  0
 25 20  1  0
  1 28  1  0
  1 29  1  0
  1 30  1  0
  3 31  1  0
  3 32  1  0
  3 33  1  0
  4 34  1  0
  4 35  1  0
  4 36  1  0
 11 37  1  0
 13 38  1  0
 15 39  1  0
 16 40  1  0
 18 41  1  0
 18 42  1  0
 19 43  1  0
 19 44  1  0
 20 45  1  0
 21 46  1  0
 21 47  1  0
 22 48  1  0
 22 49  1  0
 23 50  1  0
 23 51  1  0
 24 52  1  0
 24 53  1  0
 25 54  1  0
 25 55  1  0
 26 56  1  0
M  CHG  1  11  -1
M  END
>  <UniqueID>  (89) 
89

>  <SMILES>  (89) 
CC(C)(C)OC(=O)n1c(C([NH-])=O)cc2ccc(CCC3CCCCC3)cc21

>  <Energy>  (89) 
88.8218939578659

>  <Genealogy>  (89) 
CC(C)(C)OC(=O)n1c(C([NH-])=O)cc2ccc(CCC3CCCCC3)cc21 (protonated)
CC(C)(C)OC(=O)n1c(C([NH-])=O)cc2ccc(CCC3CCCCC3)cc21 (3D coordinates assigned)
CC(C)(C)OC(=O)n1c(C([NH-])=O)cc2ccc(CCC3CCCCC3)cc21 (nonaromatic ring conformer: 88.8218939578659 kcal/mol)

>  <smiles>  (89) 
CC(C)(C)OC(=O)n1c(C(N)=O)cc2ccc(CCC3CCCCC3)cc21

>  <score_type>  (89) 
oracle

>  <origin>  (89) 
adg

>  <m_score__min__energy>  (89) 
-9.1199999999999992

>  <m_primary>  (89) 
energy

$$$$
89:0
     RDKit          3D

 29 30  0  0  0  0  0  0  0  0999 V2000
  149.2040  159.0170  131.0540 C   0  0  0  0  0  0  0  0  0  0  0  0
  148.6220  158.0760  131.9470 O   0  0  0  0  0  0  0  0  0  0  0  0
  148.0370  158.4480  133.1610 C   0  0  0  0  0  0  0  0  0  0  0  0
  148.7440  158.9430  134.0810 O   0  0  0  0  0  0  0  0  0  0  0  0
  146.6240  158.2670  133.3560 N   0  0  0  0  0  0  0  0  0  0  0  0
  145.9170  157.1080  133.2360 C   0  0  0  0  0  0  0  0  0  0  0  0
  146.4910  155.7610  133.0470 C   0  0  0  0  0  0  0  0  0  0  0  0
  147.3520  155.4710  131.9440 N   0  0  0  0  0  0  0  0  0  0  0  0
  146.2660  154.8660  133.9050 O   0  0  0  0  0  0  0  0  0  0  0  0
  144.5530  157.3460  133.3670 C   0  0  0  0  0  0  0  0  0  0  0  0
  144.4400  158.7000  133.5870 C   0  0  0  0  0  0  0  0  0  0  0  0
  143.3050  159.4820  133.7800 C   0  0  0  0  0  0  0  0  0  0  0  0
  143.4800  160.8650  133.9520 C   0  0  0  0  0  0  0  0  0  0  0  0
  144.7740  161.4380  133.9060 C   0  0  0  0  0  0  0  0  0  0  0  0
  144.9480  162.9130  134.1160 C   0  0  0  0  0  0  0  0  0  0  0  0
  145.9040  160.6130  133.7230 C   0  0  0  0  0  0  0  0  0  0  0  0
  145.7030  159.2340  133.5740 C   0  0  0  0  0  0  0  0  0  0  0  0
  149.6967  159.8136  131.6307 H   0  0  0  0  0  0  0  0  0  0  0  0
  149.9466  158.5102  130.4202 H   0  0  0  0  0  0  0  0  0  0  0  0
  148.4189  159.4551  130.4202 H   0  0  0  0  0  0  0  0  0  0  0  0
  147.6910  156.2280  131.3120 H   0  0  0  0  0  0  0  0  0  0  0  0
  147.7170  154.5020  131.8050 H   0  0  0  0  0  0  0  0  0  0  0  0
  143.7383  156.6093  133.3075 H   0  0  0  0  0  0  0  0  0  0  0  0
  142.3019  159.0309  133.7973 H   0  0  0  0  0  0  0  0  0  0  0  0
  142.6044  161.5083  134.1239 H   0  0  0  0  0  0  0  0  0  0  0  0
  144.9735  163.1294  135.1942 H   0  0  0  0  0  0  0  0  0  0  0  0
  145.8910  163.2404  133.6539 H   0  0  0  0  0  0  0  0  0  0  0  0
  144.1071  163.4509  133.6539 H   0  0  0  0  0  0  0  0  0  0  0  0
  146.9169  161.0413  133.6979 H   0  0  0  0  0  0  0  0  0  0  0  0
  1  2  1  0
  2  3  1  0
  3  4  2  0
  3  5  1  0
  5  6  1  0
  6  7  1  0
  7  8  1  0
  7  9  2  0
  6 10  2  0
 10 11  1  0
 11 12  2  0
 12 13  1  0
 13 14  2  0
 14 15  1  0
 14 16  1  0
 16 17  2  0
 17  5  1  0
 17 11  1  0
  1 18  1  0
  1 19  1  0
  1 20  1  0
  8 21  1  0
  8 22  1  0
 10 23  1  0
 12 24  1  0
 13 25  1  0
 15 26  1  0
 15 27  1  0
 15 28  1  0
 16 29  1  0
M  END
>  <UniqueID>  (90) 
90

>  <SMILES>  (90) 
COC(=O)n1c(C(N)=O)cc2ccc(C)cc21

>  <Energy>  (90) 
65.85753564441036

>  <Genealogy>  (90) 
COC(=O)n1c(C(N)=O)cc2ccc(C)cc21 (3D coordinates assigned)
COC(=O)n1c(C(N)=O)cc2ccc(C)cc21 (optimized conformer: 65.85753564441036 kcal/mol)

>  <smiles>  (90) 
COC(=O)n1c(C(N)=O)cc2ccc(C)cc21

>  <score_type>  (90) 
oracle

>  <origin>  (90) 
adg

>  <m_score__min__energy>  (90) 
-5.7400000000000002

>  <m_primary>  (90) 
energy

$$$$
90:0
     RDKit          3D

 34 36  0  0  0  0  0  0  0  0999 V2000
  138.5740  160.4520  130.4410 C   0  0  0  0  0  0  0  0  0  0  0  0
  139.0440  159.5040  131.4910 C   0  0  0  0  0  0  0  0  0  0  0  0
  139.8940  159.8530  132.4800 N   0  0  0  0  0  0  0  0  0  0  0  0
  140.0080  158.7160  133.1920 C   0  0  0  0  0  0  0  0  0  0  0  0
  140.9090  158.5550  134.3750 C   0  0  0  0  0  0  0  0  0  0  0  0
  142.2750  159.0940  134.0570 C   0  0  0  0  0  0  0  0  0  0  0  0
  142.5080  160.4920  134.0650 C   0  0  0  0  0  0  0  0  0  0  0  0
  143.7930  161.0050  133.8170 C   0  0  0  0  0  0  0  0  0  0  0  0
  144.8200  160.1000  133.5720 C   0  0  0  0  0  0  0  0  0  0  0  0
  146.1570  160.3210  133.3370 C   0  0  0  0  0  0  0  0  0  0  0  0
  146.7200  159.0560  133.1790 C   0  0  0  0  0  0  0  0  0  0  0  0
  148.1350  158.8360  132.8180 C   0  0  0  0  0  0  0  0  0  0  0  0
  148.4890  158.1780  131.6050 N   0  0  0  0  0  0  0  0  0  0  0  0
  149.0470  159.2800  133.5670 O   0  0  0  0  0  0  0  0  0  0  0  0
  145.7700  158.0890  133.3230 N   0  0  0  0  0  0  0  0  0  0  0  0
  145.9560  156.6650  133.3300 C   0  0  0  0  0  0  0  0  0  0  0  0
  146.6420  156.0250  132.2560 N   0  0  0  0  0  0  0  0  0  0  0  0
  145.5420  155.9770  134.3010 O   0  0  0  0  0  0  0  0  0  0  0  0
  144.6110  158.7450  133.5590 C   0  0  0  0  0  0  0  0  0  0  0  0
  143.3470  158.2050  133.8170 C   0  0  0  0  0  0  0  0  0  0  0  0
  139.2450  157.7270  132.6130 C   0  0  0  0  0  0  0  0  0  0  0  0
  138.6550  158.2500  131.5680 O   0  0  0  0  0  0  0  0  0  0  0  0
  138.1339  161.3397  130.9189 H   0  0  0  0  0  0  0  0  0  0  0  0
  139.4253  160.7569  129.8146 H   0  0  0  0  0  0  0  0  0  0  0  0
  137.8160  159.9590  129.8146 H   0  0  0  0  0  0  0  0  0  0  0  0
  140.4899  159.1059  135.2299 H   0  0  0  0  0  0  0  0  0  0  0  0
  140.9911  157.4867  134.6239 H   0  0  0  0  0  0  0  0  0  0  0  0
  141.6755  161.1820  134.2672 H   0  0  0  0  0  0  0  0  0  0  0  0
  143.9804  162.0889  133.8167 H   0  0  0  0  0  0  0  0  0  0  0  0
  146.6729  161.2911  133.2848 H   0  0  0  0  0  0  0  0  0  0  0  0
  148.3290  157.1530  131.4820 H   0  0  0  0  0  0  0  0  0  0  0  0
  146.9970  156.5750  131.4430 H   0  0  0  0  0  0  0  0  0  0  0  0
  143.1912  157.1162  133.8327 H   0  0  0  0  0  0  0  0  0  0  0  0
  139.1489  156.6889  132.9638 H   0  0  0  0  0  0  0  0  0  0  0  0
  1  2  1  0
  2  3  2  0
  3  4  1  0
  4  5  1  0
  5  6  1  0
  6  7  2  0
  7  8  1  0
  8  9  2  0
  9 10  1  0
 10 11  2  0
 11 12  1  0
 12 13  1  0
 12 14  2  0
 11 15  1  0
 15 16  1  0
 16 17  1  0
 16 18  2  0
 15 19  1  0
 19 20  2  0
  4 21  2  0
 21 22  1  0
 22  2  1  0
 20  6  1  0
 19  9  1  0
  1 23  1  0
  1 24  1  0
  1 25  1  0
  5 26  1  0
  5 27  1  0
  7 28  1  0
  8 29  1  0
 10 30  1  0
 13 31  1  0
 17 32  1  0
 20 33  1  0
 21 34  1  0
M  CHG  2  13  -1  17  -1
M  END
>  <UniqueID>  (91) 
91

>  <SMILES>  (91) 
Cc1nc(Cc2ccc3cc(C([NH-])=O)n(C([NH-])=O)c3c2)co1

>  <Energy>  (91) 
101.66357473779736

>  <Genealogy>  (91) 
Cc1nc(Cc2ccc3cc(C([NH-])=O)n(C([NH-])=O)c3c2)co1 (protonated)
Cc1nc(Cc2ccc3cc(C([NH-])=O)n(C([NH-])=O)c3c2)co1 (3D coordinates assigned)
Cc1nc(Cc2ccc3cc(C([NH-])=O)n(C([NH-])=O)c3c2)co1 (optimized conformer: 101.66357473779736 kcal/mol)

>  <smiles>  (91) 
Cc1nc(Cc2ccc3cc(C(N)=O)n(C(N)=O)c3c2)co1

>  <score_type>  (91) 
oracle

>  <origin>  (91) 
adg

>  <m_score__min__energy>  (91) 
-7.1100000000000003

>  <m_primary>  (91) 
energy

$$$$
91:0
     RDKit          3D

 41 43  0  0  0  0  0  0  0  0999 V2000
  137.9660  160.1160  130.1380 C   0  0  0  0  0  0  0  0  0  0  0  0
  137.9580  159.0180  131.2230 C   0  0  0  0  0  0  0  0  0  0  0  0
  138.6580  159.3240  132.4980 N   0  0  0  0  0  0  0  0  0  0  0  0
  140.1180  159.4200  132.3640 C   0  0  0  0  0  0  0  0  0  0  0  0
  140.3550  158.2180  133.2720 C   0  0  0  0  0  0  0  0  0  0  0  0
  141.1180  158.5540  134.5630 C   0  0  0  0  0  0  0  0  0  0  0  0
  142.5140  159.0170  134.2480 C   0  0  0  0  0  0  0  0  0  0  0  0
  142.7800  160.3990  134.0770 C   0  0  0  0  0  0  0  0  0  0  0  0
  144.0660  160.8430  133.7340 C   0  0  0  0  0  0  0  0  0  0  0  0
  145.0660  159.8880  133.5720 C   0  0  0  0  0  0  0  0  0  0  0  0
  146.3810  160.0420  133.1990 C   0  0  0  0  0  0  0  0  0  0  0  0
  146.9070  158.7540  133.1710 C   0  0  0  0  0  0  0  0  0  0  0  0
  148.3210  158.4610  132.8630 C   0  0  0  0  0  0  0  0  0  0  0  0
  148.6800  157.5090  131.8610 N   0  0  0  0  0  0  0  0  0  0  0  0
  149.2280  159.0210  133.5350 O   0  0  0  0  0  0  0  0  0  0  0  0
  145.9550  157.8360  133.5020 N   0  0  0  0  0  0  0  0  0  0  0  0
  146.0770  156.4040  133.4690 C   0  0  0  0  0  0  0  0  0  0  0  0
  146.5460  155.7460  132.2940 N   0  0  0  0  0  0  0  0  0  0  0  0
  145.7620  155.7180  134.4790 O   0  0  0  0  0  0  0  0  0  0  0  0
  144.8310  158.5470  133.7460 C   0  0  0  0  0  0  0  0  0  0  0  0
  143.5520  158.0750  134.0660 C   0  0  0  0  0  0  0  0  0  0  0  0
  138.8360  158.1890  133.4150 C   0  0  0  0  0  0  0  0  0  0  0  0
  137.9732  161.1057  130.6180 H   0  0  0  0  0  0  0  0  0  0  0  0
  138.8634  160.0058  129.5114 H   0  0  0  0  0  0  0  0  0  0  0  0
  137.0671  160.0189  129.5114 H   0  0  0  0  0  0  0  0  0  0  0  0
  136.9077  158.7988  131.4655 H   0  0  0  0  0  0  0  0  0  0  0  0
  138.5176  158.1788  130.7842 H   0  0  0  0  0  0  0  0  0  0  0  0
  140.4743  159.2682  131.3344 H   0  0  0  0  0  0  0  0  0  0  0  0
  140.6124  160.3730  132.6036 H   0  0  0  0  0  0  0  0  0  0  0  0
  140.9391  157.3362  132.9700 H   0  0  0  0  0  0  0  0  0  0  0  0
  140.5851  159.3522  135.1005 H   0  0  0  0  0  0  0  0  0  0  0  0
  141.1767  157.6492  135.1858 H   0  0  0  0  0  0  0  0  0  0  0  0
  141.9701  161.1305  134.2146 H   0  0  0  0  0  0  0  0  0  0  0  0
  144.2778  161.9137  133.5971 H   0  0  0  0  0  0  0  0  0  0  0  0
  146.9048  160.9822  132.9715 H   0  0  0  0  0  0  0  0  0  0  0  0
  149.6850  157.3470  131.6280 H   0  0  0  0  0  0  0  0  0  0  0  0
  147.9600  156.9030  131.4100 H   0  0  0  0  0  0  0  0  0  0  0  0
  146.2440  156.0610  131.3460 H   0  0  0  0  0  0  0  0  0  0  0  0
  143.3598  156.9972  134.1731 H   0  0  0  0  0  0  0  0  0  0  0  0
  138.3793  157.2564  133.0520 H   0  0  0  0  0  0  0  0  0  0  0  0
  138.3949  158.2434  134.4212 H   0  0  0  0  0  0  0  0  0  0  0  0
  1  2  1  0
  2  3  1  0
  3  4  1  0
  4  5  1  0
  5  6  1  0
  6  7  1  0
  7  8  2  0
  8  9  1  0
  9 10  2  0
 10 11  1  0
 11 12  2  0
 12 13  1  0
 13 14  1  0
 13 15  2  0
 12 16  1  0
 16 17  1  0
 17 18  1  0
 17 19  2  0
 16 20  1  0
 20 21  2  0
  5 22  1  0
 22  3  1  0
 21  7  1  0
 20 10  1  0
  1 23  1  0
  1 24  1  0
  1 25  1  0
  2 26  1  0
  2 27  1  0
  4 28  1  0
  4 29  1  0
  5 30  1  0
  6 31  1  0
  6 32  1  0
  8 33  1  0
  9 34  1  0
 11 35  1  0
 14 36  1  0
 14 37  1  0
 18 38  1  0
 21 39  1  0
 22 40  1  0
 22 41  1  0
M  CHG  1  18  -1
M  END
>  <UniqueID>  (92) 
92

>  <SMILES>  (92) 
CCN1CC(Cc2ccc3cc(C(N)=O)n(C([NH-])=O)c3c2)C1

>  <Energy>  (92) 
154.4722654040849

>  <Genealogy>  (92) 
CCN1CC(Cc2ccc3cc(C(N)=O)n(C([NH-])=O)c3c2)C1 (protonated)
CCN1CC(Cc2ccc3cc(C(N)=O)n(C([NH-])=O)c3c2)C1 (3D coordinates assigned)
CCN1CC(Cc2ccc3cc(C(N)=O)n(C([NH-])=O)c3c2)C1 (nonaromatic ring conformer: 154.4722654040849 kcal/mol)

>  <smiles>  (92) 
CCN1CC(Cc2ccc3cc(C(N)=O)n(C(N)=O)c3c2)C1

>  <score_type>  (92) 
oracle

>  <origin>  (92) 
adg

>  <m_score__min__energy>  (92) 
-7.9299999999999997

>  <m_primary>  (92) 
energy

$$$$
92:0
     RDKit          3D

 44 46  0  0  0  0  0  0  0  0999 V2000
  148.3010  157.7280  132.2460 C   0  0  0  0  0  0  0  0  0  0  0  0
  148.1300  159.3310  132.9970 S   0  0  0  0  0  0  0  0  0  0  0  0
  148.8800  159.3600  134.2990 O   0  0  0  0  0  0  0  0  0  0  0  0
  148.7070  160.3770  132.0850 O   0  0  0  0  0  0  0  0  0  0  0  0
  146.4250  159.6630  133.2830 C   0  0  0  0  0  0  0  0  0  0  0  0
  146.0210  160.9250  133.7370 C   0  0  0  0  0  0  0  0  0  0  0  0
  144.6680  161.1860  133.9750 C   0  0  0  0  0  0  0  0  0  0  0  0
  143.7050  160.1850  133.7690 C   0  0  0  0  0  0  0  0  0  0  0  0
  142.2420  160.4830  133.9660 C   0  0  0  0  0  0  0  0  0  0  0  0
  141.3530  159.3710  133.3920 C   0  0  0  0  0  0  0  0  0  0  0  0
  141.3830  158.1330  134.2530 C   0  0  0  0  0  0  0  0  0  0  0  0
  141.1780  156.8580  133.6720 C   0  0  0  0  0  0  0  0  0  0  0  0
  141.1610  155.7020  134.4710 C   0  0  0  0  0  0  0  0  0  0  0  0
  141.3350  155.8560  135.8440 C   0  0  0  0  0  0  0  0  0  0  0  0
  141.3800  154.9080  136.8400 C   0  0  0  0  0  0  0  0  0  0  0  0
  141.5790  155.6230  138.0200 C   0  0  0  0  0  0  0  0  0  0  0  0
  141.6090  154.9920  139.3560 C   0  0  0  0  0  0  0  0  0  0  0  0
  142.8000  154.9850  140.1380 N   0  0  0  0  0  0  0  0  0  0  0  0
  140.5560  154.4890  139.8320 O   0  0  0  0  0  0  0  0  0  0  0  0
  141.6610  156.9600  137.7610 N   0  0  0  0  0  0  0  0  0  0  0  0
  141.9360  158.0210  138.6900 C   0  0  0  0  0  0  0  0  0  0  0  0
  142.8510  157.8160  139.7630 N   0  0  0  0  0  0  0  0  0  0  0  0
  141.3590  159.1340  138.5680 O   0  0  0  0  0  0  0  0  0  0  0  0
  141.5080  157.0850  136.4250 C   0  0  0  0  0  0  0  0  0  0  0  0
  141.5510  158.2500  135.6500 C   0  0  0  0  0  0  0  0  0  0  0  0
  144.1140  158.9210  133.3140 C   0  0  0  0  0  0  0  0  0  0  0  0
  145.4680  158.6610  133.0800 C   0  0  0  0  0  0  0  0  0  0  0  0
  148.3827  156.9620  133.0313 H   0  0  0  0  0  0  0  0  0  0  0  0
  147.4199  157.5200  131.6211 H   0  0  0  0  0  0  0  0  0  0  0  0
  149.2061  157.7105  131.6211 H   0  0  0  0  0  0  0  0  0  0  0  0
  146.7699  161.7127  133.9067 H   0  0  0  0  0  0  0  0  0  0  0  0
  144.3563  162.1810  134.3256 H   0  0  0  0  0  0  0  0  0  0  0  0
  142.0401  160.5805  135.0429 H   0  0  0  0  0  0  0  0  0  0  0  0
  142.0081  161.4173  133.4345 H   0  0  0  0  0  0  0  0  0  0  0  0
  140.3178  159.7379  133.3310 H   0  0  0  0  0  0  0  0  0  0  0  0
  141.7362  159.1053  132.3957 H   0  0  0  0  0  0  0  0  0  0  0  0
  141.0307  156.7716  132.5853 H   0  0  0  0  0  0  0  0  0  0  0  0
  141.0148  154.7068  134.0258 H   0  0  0  0  0  0  0  0  0  0  0  0
  141.2802  153.8182  136.7289 H   0  0  0  0  0  0  0  0  0  0  0  0
  143.5070  155.7480  140.0470 H   0  0  0  0  0  0  0  0  0  0  0  0
  143.5350  157.0270  139.7420 H   0  0  0  0  0  0  0  0  0  0  0  0
  141.7117  159.2325  136.1179 H   0  0  0  0  0  0  0  0  0  0  0  0
  143.3667  158.1326  133.1410 H   0  0  0  0  0  0  0  0  0  0  0  0
  145.7827  157.6650  132.7350 H   0  0  0  0  0  0  0  0  0  0  0  0
  1  2  1  0
  2  3  2  0
  2  4  2  0
  2  5  1  0
  5  6  2  0
  6  7  1  0
  7  8  2  0
  8  9  1  0
  9 10  1  0
 10 11  1  0
 11 12  2  0
 12 13  1  0
 13 14  2  0
 14 15  1  0
 15 16  2  0
 16 17  1  0
 17 18  1  0
 17 19  2  0
 16 20  1  0
 20 21  1  0
 21 22  1  0
 21 23  2  0
 20 24  1  0
 24 25  2  0
  8 26  1  0
 26 27  2  0
 27  5  1  0
 25 11  1  0
 24 14  1  0
  1 28  1  0
  1 29  1  0
  1 30  1  0
  6 31  1  0
  7 32  1  0
  9 33  1  0
  9 34  1  0
 10 35  1  0
 10 36  1  0
 12 37  1  0
 13 38  1  0
 15 39  1  0
 18 40  1  0
 22 41  1  0
 25 42  1  0
 26 43  1  0
 27 44  1  0
M  CHG  2  18  -1  22  -1
M  END
>  <UniqueID>  (93) 
93

>  <SMILES>  (93) 
CS(=O)(=O)c1ccc(CCc2ccc3cc(C([NH-])=O)n(C([NH-])=O)c3c2)cc1

>  <Energy>  (93) 
78.7907649159094

>  <Genealogy>  (93) 
CS(=O)(=O)c1ccc(CCc2ccc3cc(C([NH-])=O)n(C([NH-])=O)c3c2)cc1 (protonated)
CS(=O)(=O)c1ccc(CCc2ccc3cc(C([NH-])=O)n(C([NH-])=O)c3c2)cc1 (3D coordinates assigned)
CS(=O)(=O)c1ccc(CCc2ccc3cc(C([NH-])=O)n(C([NH-])=O)c3c2)cc1 (optimized conformer: 78.7907649159094 kcal/mol)

>  <smiles>  (93) 
CS(=O)(=O)c1ccc(CCc2ccc3cc(C(N)=O)n(C(N)=O)c3c2)cc1

>  <score_type>  (93) 
oracle

>  <origin>  (93) 
adg

>  <m_score__min__energy>  (93) 
-9.1699999999999999

>  <m_primary>  (93) 
energy

$$$$
93:0
     RDKit          3D

 37 38  0  0  0  0  0  0  0  0999 V2000
  149.6030  151.4730  133.5860 C   0  0  0  0  0  0  0  0  0  0  0  0
  149.1070  152.5260  132.6020 C   0  0  0  0  0  0  0  0  0  0  0  0
  148.3490  153.5270  133.2780 O   0  0  0  0  0  0  0  0  0  0  0  0
  148.5490  154.9000  133.0970 C   0  0  0  0  0  0  0  0  0  0  0  0
  149.6080  155.3240  132.5580 O   0  0  0  0  0  0  0  0  0  0  0  0
  147.5550  155.8300  133.5540 N   0  0  0  0  0  0  0  0  0  0  0  0
  146.4370  155.5690  134.2910 C   0  0  0  0  0  0  0  0  0  0  0  0
  146.0800  154.2680  134.8950 C   0  0  0  0  0  0  0  0  0  0  0  0
  147.0260  153.5840  135.7140 N   0  0  0  0  0  0  0  0  0  0  0  0
  144.9620  153.7360  134.6680 O   0  0  0  0  0  0  0  0  0  0  0  0
  145.6950  156.7330  134.4790 C   0  0  0  0  0  0  0  0  0  0  0  0
  146.4010  157.7240  133.8360 C   0  0  0  0  0  0  0  0  0  0  0  0
  146.1160  159.0790  133.6980 C   0  0  0  0  0  0  0  0  0  0  0  0
  147.0120  159.8690  132.9590 C   0  0  0  0  0  0  0  0  0  0  0  0
  148.1670  159.2960  132.3660 C   0  0  0  0  0  0  0  0  0  0  0  0
  149.1110  160.1680  131.5600 C   0  0  0  0  0  0  0  0  0  0  0  0
  150.3200  159.3640  131.0650 C   0  0  0  0  0  0  0  0  0  0  0  0
  148.3800  160.8390  130.3910 C   0  0  0  0  0  0  0  0  0  0  0  0
  148.4190  157.9120  132.5290 C   0  0  0  0  0  0  0  0  0  0  0  0
  147.5190  157.1540  133.2870 C   0  0  0  0  0  0  0  0  0  0  0  0
  149.4370  151.8254  134.6147 H   0  0  0  0  0  0  0  0  0  0  0  0
  149.0525  150.5341  133.4267 H   0  0  0  0  0  0  0  0  0  0  0  0
  150.6775  151.2996  133.4267 H   0  0  0  0  0  0  0  0  0  0  0  0
  149.9711  152.9971  132.1106 H   0  0  0  0  0  0  0  0  0  0  0  0
  148.4637  152.0382  131.8549 H   0  0  0  0  0  0  0  0  0  0  0  0
  147.7380  152.9460  135.2930 H   0  0  0  0  0  0  0  0  0  0  0  0
  144.7461  156.8378  135.0255 H   0  0  0  0  0  0  0  0  0  0  0  0
  145.2163  159.5181  134.1538 H   0  0  0  0  0  0  0  0  0  0  0  0
  146.8161  160.9447  132.8385 H   0  0  0  0  0  0  0  0  0  0  0  0
  149.4840  160.9614  132.2243 H   0  0  0  0  0  0  0  0  0  0  0  0
  150.8877  158.9865  131.9283 H   0  0  0  0  0  0  0  0  0  0  0  0
  149.9723  158.5166  130.4559 H   0  0  0  0  0  0  0  0  0  0  0  0
  150.9670  160.0123  130.4559 H   0  0  0  0  0  0  0  0  0  0  0  0
  147.6227  161.5341  130.7826 H   0  0  0  0  0  0  0  0  0  0  0  0
  149.1038  161.3938  129.7759 H   0  0  0  0  0  0  0  0  0  0  0  0
  147.8891  160.0705  129.7759 H   0  0  0  0  0  0  0  0  0  0  0  0
  149.3021  157.4433  132.0703 H   0  0  0  0  0  0  0  0  0  0  0  0
  1  2  1  0
  2  3  1  0
  3  4  1  0
  4  5  2  0
  4  6  1  0
  6  7  1  0
  7  8  1  0
  8  9  1  0
  8 10  2  0
  7 11  2  0
 11 12  1  0
 12 13  2  0
 13 14  1  0
 14 15  2  0
 15 16  1  0
 16 17  1  0
 16 18  1  0
 15 19  1  0
 19 20  2  0
 20  6  1  0
 20 12  1  0
  1 21  1  0
  1 22  1  0
  1 23  1  0
  2 24  1  0
  2 25  1  0
  9 26  1  0
 11 27  1  0
 13 28  1  0
 14 29  1  0
 16 30  1  0
 17 31  1  0
 17 32  1  0
 17 33  1  0
 18 34  1  0
 18 35  1  0
 18 36  1  0
 19 37  1  0
M  CHG  1   9  -1
M  END
>  <UniqueID>  (94) 
94

>  <SMILES>  (94) 
CCOC(=O)n1c(C([NH-])=O)cc2ccc(C(C)C)cc21

>  <Energy>  (94) 
67.95370675433948

>  <Genealogy>  (94) 
CCOC(=O)n1c(C([NH-])=O)cc2ccc(C(C)C)cc21 (protonated)
CCOC(=O)n1c(C([NH-])=O)cc2ccc(C(C)C)cc21 (3D coordinates assigned)
CCOC(=O)n1c(C([NH-])=O)cc2ccc(C(C)C)cc21 (optimized conformer: 67.95370675433948 kcal/mol)

>  <smiles>  (94) 
CCOC(=O)n1c(C(N)=O)cc2ccc(C(C)C)cc21

>  <score_type>  (94) 
oracle

>  <origin>  (94) 
adg

>  <m_score__min__energy>  (94) 
-6.5999999999999996

>  <m_primary>  (94) 
energy

$$$$
94:0
     RDKit          3D

 35 37  0  0  0  0  0  0  0  0999 V2000
  139.8870  147.8740  130.3660 C   0  0  0  0  0  0  0  0  0  0  0  0
  140.2950  149.0770  131.1620 C   0  0  0  0  0  0  0  0  0  0  0  0
  141.5910  149.1840  131.6800 C   0  0  0  0  0  0  0  0  0  0  0  0
  141.9500  150.2930  132.4510 C   0  0  0  0  0  0  0  0  0  0  0  0
  140.9960  151.2900  132.7180 C   0  0  0  0  0  0  0  0  0  0  0  0
  141.3270  152.4910  133.5260 C   0  0  0  0  0  0  0  0  0  0  0  0
  142.3340  152.4490  134.5300 C   0  0  0  0  0  0  0  0  0  0  0  0
  142.6290  153.5860  135.3010 C   0  0  0  0  0  0  0  0  0  0  0  0
  141.9080  154.7490  135.0550 C   0  0  0  0  0  0  0  0  0  0  0  0
  141.9740  155.9790  135.6670 C   0  0  0  0  0  0  0  0  0  0  0  0
  141.0160  156.7630  135.0260 C   0  0  0  0  0  0  0  0  0  0  0  0
  140.8130  158.1990  135.3110 C   0  0  0  0  0  0  0  0  0  0  0  0
  139.5730  158.6750  135.8250 N   0  0  0  0  0  0  0  0  0  0  0  0
  141.7330  159.0220  135.0570 O   0  0  0  0  0  0  0  0  0  0  0  0
  140.3770  156.0400  134.0630 N   0  0  0  0  0  0  0  0  0  0  0  0
  139.2750  156.4500  133.2370 C   0  0  0  0  0  0  0  0  0  0  0  0
  138.3160  157.3890  133.7240 N   0  0  0  0  0  0  0  0  0  0  0  0
  139.1310  155.9530  132.0880 O   0  0  0  0  0  0  0  0  0  0  0  0
  140.9380  154.8120  134.0910 C   0  0  0  0  0  0  0  0  0  0  0  0
  140.6090  153.6940  133.3170 C   0  0  0  0  0  0  0  0  0  0  0  0
  139.7390  151.1560  132.2060 N   0  0  0  0  0  0  0  0  0  0  0  0
  139.3690  150.0870  131.4530 C   0  0  0  0  0  0  0  0  0  0  0  0
  139.6103  147.0582  131.0501 H   0  0  0  0  0  0  0  0  0  0  0  0
  139.0251  148.1290  129.7319 H   0  0  0  0  0  0  0  0  0  0  0  0
  140.7262  147.5520  129.7319 H   0  0  0  0  0  0  0  0  0  0  0  0
  142.3288  148.3931  131.4797 H   0  0  0  0  0  0  0  0  0  0  0  0
  142.9724  150.3850  132.8463 H   0  0  0  0  0  0  0  0  0  0  0  0
  142.8884  151.5151  134.7048 H   0  0  0  0  0  0  0  0  0  0  0  0
  143.4081  153.5568  136.0770 H   0  0  0  0  0  0  0  0  0  0  0  0
  142.6412  156.2802  136.4881 H   0  0  0  0  0  0  0  0  0  0  0  0
  139.4870  158.9870  136.8180 H   0  0  0  0  0  0  0  0  0  0  0  0
  138.3790  157.7520  134.7010 H   0  0  0  0  0  0  0  0  0  0  0  0
  137.5230  157.6950  133.1180 H   0  0  0  0  0  0  0  0  0  0  0  0
  139.8102  153.7480  132.5626 H   0  0  0  0  0  0  0  0  0  0  0  0
  138.3400  150.0146  131.0711 H   0  0  0  0  0  0  0  0  0  0  0  0
  1  2  1  0
  2  3  2  0
  3  4  1  0
  4  5  2  0
  5  6  1  0
  6  7  2  0
  7  8  1  0
  8  9  2  0
  9 10  1  0
 10 11  2  0
 11 12  1  0
 12 13  1  0
 12 14  2  0
 11 15  1  0
 15 16  1  0
 16 17  1  0
 16 18  2  0
 15 19  1  0
 19 20  2  0
  5 21  1  0
 21 22  2  0
 22  2  1  0
 20  6  1  0
 19  9  1  0
  1 23  1  0
  1 24  1  0
  1 25  1  0
  3 26  1  0
  4 27  1  0
  7 28  1  0
  8 29  1  0
 10 30  1  0
 13 31  1  0
 17 32  1  0
 17 33  1  0
 20 34  1  0
 22 35  1  0
M  CHG  1  13  -1
M  END
>  <UniqueID>  (95) 
95

>  <SMILES>  (95) 
Cc1ccc(-c2ccc3cc(C([NH-])=O)n(C(N)=O)c3c2)nc1

>  <Energy>  (95) 
80.18541858184145

>  <Genealogy>  (95) 
Cc1ccc(-c2ccc3cc(C([NH-])=O)n(C(N)=O)c3c2)nc1 (protonated)
Cc1ccc(-c2ccc3cc(C([NH-])=O)n(C(N)=O)c3c2)nc1 (3D coordinates assigned)
Cc1ccc(-c2ccc3cc(C([NH-])=O)n(C(N)=O)c3c2)nc1 (optimized conformer: 80.18541858184145 kcal/mol)

>  <smiles>  (95) 
Cc1ccc(-c2ccc3cc(C(N)=O)n(C(N)=O)c3c2)nc1

>  <score_type>  (95) 
oracle

>  <origin>  (95) 
adg

>  <m_score__min__energy>  (95) 
-7.6900000000000004

>  <m_primary>  (95) 
energy

$$$$
95:0
     RDKit          3D

 31 32  0  0  0  0  0  0  0  0999 V2000
  138.3880  159.5580  131.1090 C   0  0  0  0  0  0  0  0  0  0  0  0
  138.8630  158.2870  131.5340 O   0  0  0  0  0  0  0  0  0  0  0  0
  139.1190  157.9890  132.8750 C   0  0  0  0  0  0  0  0  0  0  0  0
  138.7060  156.9130  133.3870 O   0  0  0  0  0  0  0  0  0  0  0  0
  139.9350  158.9350  133.6960 C   0  0  0  0  0  0  0  0  0  0  0  0
  141.3890  158.5670  133.6060 C   0  0  0  0  0  0  0  0  0  0  0  0
  141.7700  157.2150  133.4170 C   0  0  0  0  0  0  0  0  0  0  0  0
  143.1260  156.8620  133.3110 C   0  0  0  0  0  0  0  0  0  0  0  0
  144.0730  157.8800  133.3800 C   0  0  0  0  0  0  0  0  0  0  0  0
  145.4460  157.8160  133.3280 C   0  0  0  0  0  0  0  0  0  0  0  0
  145.8830  159.1340  133.4490 C   0  0  0  0  0  0  0  0  0  0  0  0
  147.3040  159.5300  133.3640 C   0  0  0  0  0  0  0  0  0  0  0  0
  147.7410  160.5010  132.4170 N   0  0  0  0  0  0  0  0  0  0  0  0
  148.1530  158.9690  134.1070 O   0  0  0  0  0  0  0  0  0  0  0  0
  144.8200  159.9800  133.5770 N   0  0  0  0  0  0  0  0  0  0  0  0
  144.8470  161.3990  133.8030 C   0  0  0  0  0  0  0  0  0  0  0  0
  146.0760  162.0530  134.1110 N   0  0  0  0  0  0  0  0  0  0  0  0
  143.7860  162.0730  133.7190 O   0  0  0  0  0  0  0  0  0  0  0  0
  143.7200  159.1970  133.5320 C   0  0  0  0  0  0  0  0  0  0  0  0
  142.3780  159.5740  133.6620 C   0  0  0  0  0  0  0  0  0  0  0  0
  138.1570  160.1761  131.9891 H   0  0  0  0  0  0  0  0  0  0  0  0
  139.1611  160.0550  130.5046 H   0  0  0  0  0  0  0  0  0  0  0  0
  137.4785  159.4262  130.5046 H   0  0  0  0  0  0  0  0  0  0  0  0
  139.7940  159.9591  133.3202 H   0  0  0  0  0  0  0  0  0  0  0  0
  139.6108  158.8761  134.7455 H   0  0  0  0  0  0  0  0  0  0  0  0
  140.9972  156.4349  133.3527 H   0  0  0  0  0  0  0  0  0  0  0  0
  143.4299  155.8133  133.1776 H   0  0  0  0  0  0  0  0  0  0  0  0
  146.0675  156.9154  133.2149 H   0  0  0  0  0  0  0  0  0  0  0  0
  147.3650  161.4740  132.4340 H   0  0  0  0  0  0  0  0  0  0  0  0
  146.8010  162.2030  133.3760 H   0  0  0  0  0  0  0  0  0  0  0  0
  142.1005  160.6289  133.8043 H   0  0  0  0  0  0  0  0  0  0  0  0
  1  2  1  0
  2  3  1  0
  3  4  2  0
  3  5  1  0
  5  6  1  0
  6  7  2  0
  7  8  1  0
  8  9  2  0
  9 10  1  0
 10 11  2  0
 11 12  1  0
 12 13  1  0
 12 14  2  0
 11 15  1  0
 15 16  1  0
 16 17  1  0
 16 18  2  0
 15 19  1  0
 19 20  2  0
 20  6  1  0
 19  9  1  0
  1 21  1  0
  1 22  1  0
  1 23  1  0
  5 24  1  0
  5 25  1  0
  7 26  1  0
  8 27  1  0
 10 28  1  0
 13 29  1  0
 17 30  1  0
 20 31  1  0
M  CHG  2  13  -1  17  -1
M  END
>  <UniqueID>  (96) 
96

>  <SMILES>  (96) 
COC(=O)Cc1ccc2cc(C([NH-])=O)n(C([NH-])=O)c2c1

>  <Energy>  (96) 
66.46872152764949

>  <Genealogy>  (96) 
COC(=O)Cc1ccc2cc(C([NH-])=O)n(C([NH-])=O)c2c1 (protonated)
COC(=O)Cc1ccc2cc(C([NH-])=O)n(C([NH-])=O)c2c1 (3D coordinates assigned)
COC(=O)Cc1ccc2cc(C([NH-])=O)n(C([NH-])=O)c2c1 (optimized conformer: 66.46872152764949 kcal/mol)

>  <smiles>  (96) 
COC(=O)Cc1ccc2cc(C(N)=O)n(C(N)=O)c2c1

>  <score_type>  (96) 
oracle

>  <origin>  (96) 
adg

>  <m_score__min__energy>  (96) 
-6.0499999999999998

>  <m_primary>  (96) 
energy

$$$$
