0:0
     RDKit          3D

 53 56  0  0  0  0  0  0  0  0999 V2000
  146.2510  159.7390  132.3790 C   0  0  0  0  0  0  0  0  0  0  0  0
  145.3770  159.0750  133.3930 C   0  0  0  0  0  0  0  0  0  0  0  0
  145.8490  158.1470  134.1030 O   0  0  0  0  0  0  0  0  0  0  0  0
  144.0120  159.4880  133.5730 N   0  0  0  0  0  0  0  0  0  0  0  0
  143.5390  160.7610  133.6880 C   0  0  0  0  0  0  0  0  0  0  0  0
  144.3590  161.9890  133.7760 C   0  0  0  0  0  0  0  0  0  0  0  0
  145.6780  161.9550  134.3130 N   0  0  0  0  0  0  0  0  0  0  0  0
  143.8750  163.0900  133.4030 O   0  0  0  0  0  0  0  0  0  0  0  0
  142.1480  160.7570  133.7740 C   0  0  0  0  0  0  0  0  0  0  0  0
  141.7820  159.4330  133.7090 C   0  0  0  0  0  0  0  0  0  0  0  0
  140.5180  158.8510  133.7310 C   0  0  0  0  0  0  0  0  0  0  0  0
  140.4340  157.4540  133.6130 C   0  0  0  0  0  0  0  0  0  0  0  0
  141.6040  156.6640  133.4660 C   0  0  0  0  0  0  0  0  0  0  0  0
  141.5020  155.1890  133.3310 C   0  0  0  0  0  0  0  0  0  0  0  0
  140.2550  154.5750  133.1220 C   0  0  0  0  0  0  0  0  0  0  0  0
  140.1600  153.1870  132.9910 C   0  0  0  0  0  0  0  0  0  0  0  0
  141.3110  152.3840  133.0460 C   0  0  0  0  0  0  0  0  0  0  0  0
  141.2130  150.8750  132.9050 C   0  0  0  0  0  0  0  0  0  0  0  0
  140.5010  150.4130  131.6850 N   0  0  0  0  0  0  0  0  0  0  0  0
  139.0350  150.2880  131.8990 C   0  0  0  0  0  0  0  0  0  0  0  0
  138.3670  149.5100  130.7590 C   0  0  0  0  0  0  0  0  0  0  0  0
  138.9030  148.0670  130.6910 C   0  0  0  0  0  0  0  0  0  0  0  0
  140.3230  147.9310  131.2700 C   0  0  0  0  0  0  0  0  0  0  0  0
  141.1310  149.2180  131.0510 C   0  0  0  0  0  0  0  0  0  0  0  0
  142.5530  152.9950  133.2900 C   0  0  0  0  0  0  0  0  0  0  0  0
  142.6500  154.3820  133.4210 C   0  0  0  0  0  0  0  0  0  0  0  0
  142.8700  157.2970  133.4440 C   0  0  0  0  0  0  0  0  0  0  0  0
  142.9240  158.6880  133.5850 C   0  0  0  0  0  0  0  0  0  0  0  0
  147.0258  160.3276  132.8920 H   0  0  0  0  0  0  0  0  0  0  0  0
  146.7286  158.9739  131.7493 H   0  0  0  0  0  0  0  0  0  0  0  0
  145.6420  160.4042  131.7493 H   0  0  0  0  0  0  0  0  0  0  0  0
  146.5090  162.1400  133.7090 H   0  0  0  0  0  0  0  0  0  0  0  0
  141.4837  161.6282  133.8729 H   0  0  0  0  0  0  0  0  0  0  0  0
  139.6124  159.4663  133.8376 H   0  0  0  0  0  0  0  0  0  0  0  0
  139.4486  156.9657  133.6348 H   0  0  0  0  0  0  0  0  0  0  0  0
  139.3465  155.1921  133.0611 H   0  0  0  0  0  0  0  0  0  0  0  0
  139.1754  152.7193  132.8435 H   0  0  0  0  0  0  0  0  0  0  0  0
  142.2337  150.4654  132.8825 H   0  0  0  0  0  0  0  0  0  0  0  0
  140.6243  150.5191  133.7633 H   0  0  0  0  0  0  0  0  0  0  0  0
  140.6190  151.1950  130.9950 H   0  0  0  0  0  0  0  0  0  0  0  0
  138.8556  149.7588  132.8465 H   0  0  0  0  0  0  0  0  0  0  0  0
  138.6022  151.2988  131.9281 H   0  0  0  0  0  0  0  0  0  0  0  0
  137.2806  149.4831  130.9294 H   0  0  0  0  0  0  0  0  0  0  0  0
  138.5941  150.0147  129.8084 H   0  0  0  0  0  0  0  0  0  0  0  0
  138.2266  147.4134  131.2614 H   0  0  0  0  0  0  0  0  0  0  0  0
  138.9486  147.7799  129.6301 H   0  0  0  0  0  0  0  0  0  0  0  0
  140.2538  147.7287  132.3490 H   0  0  0  0  0  0  0  0  0  0  0  0
  140.8341  147.1040  130.7553 H   0  0  0  0  0  0  0  0  0  0  0  0
  142.1341  149.0803  131.4808 H   0  0  0  0  0  0  0  0  0  0  0  0
  141.1723  149.4020  129.9673 H   0  0  0  0  0  0  0  0  0  0  0  0
  143.4572  152.3748  133.3786 H   0  0  0  0  0  0  0  0  0  0  0  0
  143.6316  154.8466  133.5959 H   0  0  0  0  0  0  0  0  0  0  0  0
  143.7908  156.7084  133.3188 H   0  0  0  0  0  0  0  0  0  0  0  0
  1  2  1  0
  2  3  2  0
  2  4  1  0
  4  5  1  0
  5  6  1  0
  6  7  1  0
  6  8  2  0
  5  9  2  0
  9 10  1  0
 10 11  2  0
 11 12  1  0
 12 13  2  0
 13 14  1  0
 14 15  2  0
 15 16  1  0
 16 17  2  0
 17 18  1  0
 18 19  1  0
 19 20  1  0
 20 21  1  0
 21 22  1  0
 22 23  1  0
 23 24  1  0
 17 25  1  0
 25 26  2  0
 13 27  1  0
 27 28  2  0
 28  4  1  0
 28 10  1  0
 26 14  1  0
 24 19  1  0
  1 29  1  0
  1 30  1  0
  1 31  1  0
  7 32  1  0
  9 33  1  0
 11 34  1  0
 12 35  1  0
 15 36  1  0
 16 37  1  0
 18 38  1  0
 18 39  1  0
 19 40  1  0
 20 41  1  0
 20 42  1  0
 21 43  1  0
 21 44  1  0
 22 45  1  0
 22 46  1  0
 23 47  1  0
 23 48  1  0
 24 49  1  0
 24 50  1  0
 25 51  1  0
 26 52  1  0
 27 53  1  0
M  CHG  2   7  -1  19   1
M  END
>  <UniqueID>  (1) 
1

>  <SMILES>  (1) 
CC(=O)n1c(C([NH-])=O)cc2ccc(-c3ccc(C[NH+]4CCCCC4)cc3)cc21

>  <Energy>  (1) 
110.27012766350431

>  <Genealogy>  (1) 
CC(=O)n1c(C([NH-])=O)cc2ccc(-c3ccc(C[NH+]4CCCCC4)cc3)cc21 (protonated)
CC(=O)n1c(C([NH-])=O)cc2ccc(-c3ccc(C[NH+]4CCCCC4)cc3)cc21 (3D coordinates assigned)
CC(=O)n1c(C([NH-])=O)cc2ccc(-c3ccc(C[NH+]4CCCCC4)cc3)cc21 (nonaromatic ring conformer: 110.27012766350431 kcal/mol)

>  <smiles>  (1) 
CC(=O)n1c(C(N)=O)cc2ccc(-c3ccc(CN4CCCCC4)cc3)cc21

>  <score_type>  (1) 
oracle

>  <origin>  (1) 
adg

>  <m_score__min__energy>  (1) 
-9.3499999999999996

>  <m_primary>  (1) 
energy

$$$$
1:0
     RDKit          3D

 47 49  0  0  0  0  0  0  0  0999 V2000
  150.0850  151.4450  132.1440 C   0  0  0  0  0  0  0  0  0  0  0  0
  149.0730  152.5210  132.4040 C   0  0  0  0  0  0  0  0  0  0  0  0
  147.7280  152.1880  132.6220 C   0  0  0  0  0  0  0  0  0  0  0  0
  146.7900  153.1860  132.9010 C   0  0  0  0  0  0  0  0  0  0  0  0
  147.1830  154.5340  132.9820 C   0  0  0  0  0  0  0  0  0  0  0  0
  146.1880  155.5950  133.2810 C   0  0  0  0  0  0  0  0  0  0  0  0
  144.8970  155.2520  133.7610 C   0  0  0  0  0  0  0  0  0  0  0  0
  143.9510  156.2480  134.0590 C   0  0  0  0  0  0  0  0  0  0  0  0
  144.3180  157.5750  133.8620 C   0  0  0  0  0  0  0  0  0  0  0  0
  143.6110  158.7320  134.0950 C   0  0  0  0  0  0  0  0  0  0  0  0
  144.4690  159.7680  133.7340 C   0  0  0  0  0  0  0  0  0  0  0  0
  144.0770  161.1930  133.7510 C   0  0  0  0  0  0  0  0  0  0  0  0
  145.0240  162.1860  134.1360 N   0  0  0  0  0  0  0  0  0  0  0  0
  142.9020  161.5420  133.4640 O   0  0  0  0  0  0  0  0  0  0  0  0
  145.6610  159.2720  133.3000 N   0  0  0  0  0  0  0  0  0  0  0  0
  146.8310  160.0110  132.9140 C   0  0  0  0  0  0  0  0  0  0  0  0
  147.3510  160.8220  133.7260 O   0  0  0  0  0  0  0  0  0  0  0  0
  147.3650  159.8330  131.6290 O   0  0  0  0  0  0  0  0  0  0  0  0
  148.7570  159.8150  131.2810 C   0  0  0  0  0  0  0  0  0  0  0  0
  148.8880  159.0160  129.9760 C   0  0  0  0  0  0  0  0  0  0  0  0
  149.2740  161.2460  131.0420 C   0  0  0  0  0  0  0  0  0  0  0  0
  149.5820  159.1150  132.3780 C   0  0  0  0  0  0  0  0  0  0  0  0
  145.5520  157.9270  133.3820 C   0  0  0  0  0  0  0  0  0  0  0  0
  146.5200  156.9580  133.0950 C   0  0  0  0  0  0  0  0  0  0  0  0
  148.5370  154.8600  132.7820 C   0  0  0  0  0  0  0  0  0  0  0  0
  149.4740  153.8600  132.5010 C   0  0  0  0  0  0  0  0  0  0  0  0
  150.4556  151.0510  133.1018 H   0  0  0  0  0  0  0  0  0  0  0  0
  149.6166  150.6321  131.5697 H   0  0  0  0  0  0  0  0  0  0  0  0
  150.9251  151.8628  131.5697 H   0  0  0  0  0  0  0  0  0  0  0  0
  147.4098  151.1362  132.5731 H   0  0  0  0  0  0  0  0  0  0  0  0
  145.7356  152.9149  133.0585 H   0  0  0  0  0  0  0  0  0  0  0  0
  144.6335  154.1933  133.9016 H   0  0  0  0  0  0  0  0  0  0  0  0
  142.9515  155.9861  134.4363 H   0  0  0  0  0  0  0  0  0  0  0  0
  142.5858  158.8201  134.4838 H   0  0  0  0  0  0  0  0  0  0  0  0
  145.9170  162.3100  133.6080 H   0  0  0  0  0  0  0  0  0  0  0  0
  149.0619  157.9556  130.2112 H   0  0  0  0  0  0  0  0  0  0  0  0
  147.9617  159.1148  129.3910 H   0  0  0  0  0  0  0  0  0  0  0  0
  149.7343  159.4054  129.3910 H   0  0  0  0  0  0  0  0  0  0  0  0
  149.4518  161.7380  132.0096 H   0  0  0  0  0  0  0  0  0  0  0  0
  150.2144  161.2058  130.4728 H   0  0  0  0  0  0  0  0  0  0  0  0
  148.5250  161.8162  130.4728 H   0  0  0  0  0  0  0  0  0  0  0  0
  149.2153  159.4261  133.3673 H   0  0  0  0  0  0  0  0  0  0  0  0
  149.4788  158.0247  132.2749 H   0  0  0  0  0  0  0  0  0  0  0  0
  150.6409  159.3944  132.2749 H   0  0  0  0  0  0  0  0  0  0  0  0
  147.5170  157.2494  132.7328 H   0  0  0  0  0  0  0  0  0  0  0  0
  148.8612  155.9091  132.8471 H   0  0  0  0  0  0  0  0  0  0  0  0
  150.5313  154.1263  132.3554 H   0  0  0  0  0  0  0  0  0  0  0  0
  1  2  1  0
  2  3  2  0
  3  4  1  0
  4  5  2  0
  5  6  1  0
  6  7  2  0
  7  8  1  0
  8  9  2  0
  9 10  1  0
 10 11  2  0
 11 12  1  0
 12 13  1  0
 12 14  2  0
 11 15  1  0
 15 16  1  0
 16 17  2  0
 16 18  1  0
 18 19  1  0
 19 20  1  0
 19 21  1  0
 19 22  1  0
 15 23  1  0
 23 24  2  0
  5 25  1  0
 25 26  2  0
 26  2  1  0
 24  6  1  0
 23  9  1  0
  1 27  1  0
  1 28  1  0
  1 29  1  0
  3 30  1  0
  4 31  1  0
  7 32  1  0
  8 33  1  0
 10 34  1  0
 13 35  1  0
 20 36  1  0
 20 37  1  0
 20 38  1  0
 21 39  1  0
 21 40  1  0
 21 41  1  0
 22 42  1  0
 22 43  1  0
 22 44  1  0
 24 45  1  0
 25 46  1  0
 26 47  1  0
M  CHG  1  13  -1
M  END
>  <UniqueID>  (2) 
2

>  <SMILES>  (2) 
Cc1ccc(-c2ccc3cc(C([NH-])=O)n(C(=O)OC(C)(C)C)c3c2)cc1

>  <Energy>  (2) 
87.37388702088234

>  <Genealogy>  (2) 
Cc1ccc(-c2ccc3cc(C([NH-])=O)n(C(=O)OC(C)(C)C)c3c2)cc1 (protonated)
Cc1ccc(-c2ccc3cc(C([NH-])=O)n(C(=O)OC(C)(C)C)c3c2)cc1 (3D coordinates assigned)
Cc1ccc(-c2ccc3cc(C([NH-])=O)n(C(=O)OC(C)(C)C)c3c2)cc1 (optimized conformer: 87.37388702088234 kcal/mol)

>  <smiles>  (2) 
Cc1ccc(-c2ccc3cc(C(N)=O)n(C(=O)OC(C)(C)C)c3c2)cc1

>  <score_type>  (2) 
oracle

>  <origin>  (2) 
adg

>  <m_score__min__energy>  (2) 
-8.5800000000000001

>  <m_primary>  (2) 
energy

$$$$
2:0
     RDKit          3D

 38 40  0  0  0  0  0  0  0  0999 V2000
  148.9330  158.4680  131.4150 N   0  0  0  0  0  0  0  0  0  0  0  0
  148.4350  158.8250  132.7020 C   0  0  0  0  0  0  0  0  0  0  0  0
  149.2490  159.0360  133.6420 O   0  0  0  0  0  0  0  0  0  0  0  0
  146.9820  158.9010  132.9610 C   0  0  0  0  0  0  0  0  0  0  0  0
  146.3000  160.0990  133.1650 C   0  0  0  0  0  0  0  0  0  0  0  0
  145.0080  159.7360  133.4680 C   0  0  0  0  0  0  0  0  0  0  0  0
  143.9000  160.5260  133.7640 C   0  0  0  0  0  0  0  0  0  0  0  0
  142.6810  159.8790  134.0230 C   0  0  0  0  0  0  0  0  0  0  0  0
  142.5870  158.4650  133.9670 C   0  0  0  0  0  0  0  0  0  0  0  0
  141.2820  157.7830  134.2730 C   0  0  0  0  0  0  0  0  0  0  0  0
  140.1460  158.8070  134.3540 C   0  0  0  0  0  0  0  0  0  0  0  0
  139.6060  159.1060  132.9860 C   0  0  0  0  0  0  0  0  0  0  0  0
  139.0720  158.0860  132.1870 C   0  0  0  0  0  0  0  0  0  0  0  0
  138.5470  158.4030  130.9330 C   0  0  0  0  0  0  0  0  0  0  0  0
  138.5510  159.7280  130.4920 C   0  0  0  0  0  0  0  0  0  0  0  0
  139.0800  160.7210  131.3200 C   0  0  0  0  0  0  0  0  0  0  0  0
  139.5880  160.3930  132.5390 N   0  0  0  0  0  0  0  0  0  0  0  0
  143.7350  157.6960  133.6760 C   0  0  0  0  0  0  0  0  0  0  0  0
  144.9390  158.3670  133.4370 C   0  0  0  0  0  0  0  0  0  0  0  0
  146.1420  157.8400  133.1220 N   0  0  0  0  0  0  0  0  0  0  0  0
  146.4290  156.4470  132.9230 C   0  0  0  0  0  0  0  0  0  0  0  0
  147.2820  156.0310  131.8560 N   0  0  0  0  0  0  0  0  0  0  0  0
  145.8990  155.5820  133.6690 O   0  0  0  0  0  0  0  0  0  0  0  0
  148.9650  157.4710  131.1090 H   0  0  0  0  0  0  0  0  0  0  0  0
  146.7080  161.1183  133.0980 H   0  0  0  0  0  0  0  0  0  0  0  0
  143.9774  161.6229  133.7940 H   0  0  0  0  0  0  0  0  0  0  0  0
  141.7903  160.4746  134.2717 H   0  0  0  0  0  0  0  0  0  0  0  0
  141.0582  157.0567  133.4778 H   0  0  0  0  0  0  0  0  0  0  0  0
  141.3679  157.2705  135.2425 H   0  0  0  0  0  0  0  0  0  0  0  0
  139.3381  158.4019  134.9810 H   0  0  0  0  0  0  0  0  0  0  0  0
  140.5374  159.7371  134.7919 H   0  0  0  0  0  0  0  0  0  0  0  0
  139.0666  157.0457  132.5445 H   0  0  0  0  0  0  0  0  0  0  0  0
  138.1309  157.6106  130.2934 H   0  0  0  0  0  0  0  0  0  0  0  0
  138.1423  159.9868  129.5041 H   0  0  0  0  0  0  0  0  0  0  0  0
  139.0859  161.7691  130.9862 H   0  0  0  0  0  0  0  0  0  0  0  0
  143.6839  156.5978  133.6382 H   0  0  0  0  0  0  0  0  0  0  0  0
  147.4990  155.0190  131.7200 H   0  0  0  0  0  0  0  0  0  0  0  0
  147.6670  156.7270  131.1820 H   0  0  0  0  0  0  0  0  0  0  0  0
  1  2  1  0
  2  3  2  0
  2  4  1  0
  4  5  2  0
  5  6  1  0
  6  7  2  0
  7  8  1  0
  8  9  2  0
  9 10  1  0
 10 11  1  0
 11 12  1  0
 12 13  2  0
 13 14  1  0
 14 15  2  0
 15 16  1  0
 16 17  2  0
  9 18  1  0
 18 19  2  0
 19 20  1  0
 20 21  1  0
 21 22  1  0
 21 23  2  0
 20  4  1  0
 19  6  1  0
 17 12  1  0
  1 24  1  0
  5 25  1  0
  7 26  1  0
  8 27  1  0
 10 28  1  0
 10 29  1  0
 11 30  1  0
 11 31  1  0
 13 32  1  0
 14 33  1  0
 15 34  1  0
 16 35  1  0
 18 36  1  0
 22 37  1  0
 22 38  1  0
M  CHG  1   1  -1
M  END
>  <UniqueID>  (3) 
3

>  <SMILES>  (3) 
[NH-]C(=O)c1cc2ccc(CCc3ccccn3)cc2n1C(N)=O

>  <Energy>  (3) 
76.21900458240616

>  <Genealogy>  (3) 
[NH-]C(=O)c1cc2ccc(CCc3ccccn3)cc2n1C(N)=O (protonated)
[NH-]C(=O)c1cc2ccc(CCc3ccccn3)cc2n1C(N)=O (3D coordinates assigned)
[NH-]C(=O)c1cc2ccc(CCc3ccccn3)cc2n1C(N)=O (optimized conformer: 76.21900458240616 kcal/mol)

>  <smiles>  (3) 
NC(=O)c1cc2ccc(CCc3ccccn3)cc2n1C(N)=O

>  <score_type>  (3) 
oracle

>  <origin>  (3) 
adg

>  <m_score__min__energy>  (3) 
-8.2300000000000004

>  <m_primary>  (3) 
energy

$$$$
3:0
     RDKit          3D

 42 44  0  0  0  0  0  0  0  0999 V2000
  147.5650  154.1260  134.3470 C   0  0  0  0  0  0  0  0  0  0  0  0
  147.1300  155.2960  133.4640 C   0  0  0  0  0  0  0  0  0  0  0  0
  145.9470  154.8920  132.5860 C   0  0  0  0  0  0  0  0  0  0  0  0
  146.6400  156.7350  134.4880 S   0  0  0  0  0  0  0  0  0  0  0  0
  147.3590  157.9900  133.4100 C   0  0  0  0  0  0  0  0  0  0  0  0
  148.6880  157.8240  132.9960 C   0  0  0  0  0  0  0  0  0  0  0  0
  149.3040  158.7850  132.1930 C   0  0  0  0  0  0  0  0  0  0  0  0
  148.5960  159.9170  131.7900 C   0  0  0  0  0  0  0  0  0  0  0  0
  147.2660  160.0870  132.1800 C   0  0  0  0  0  0  0  0  0  0  0  0
  146.6270  159.1250  132.9820 C   0  0  0  0  0  0  0  0  0  0  0  0
  145.2070  159.3290  133.3510 C   0  0  0  0  0  0  0  0  0  0  0  0
  144.7430  160.6280  133.6850 C   0  0  0  0  0  0  0  0  0  0  0  0
  143.3970  160.8430  134.0200 C   0  0  0  0  0  0  0  0  0  0  0  0
  142.5400  159.7480  134.0170 C   0  0  0  0  0  0  0  0  0  0  0  0
  141.1890  159.6830  134.2670 C   0  0  0  0  0  0  0  0  0  0  0  0
  140.8470  158.3450  134.0970 C   0  0  0  0  0  0  0  0  0  0  0  0
  139.4890  157.8180  134.3340 C   0  0  0  0  0  0  0  0  0  0  0  0
  138.7680  157.1420  133.3020 N   0  0  0  0  0  0  0  0  0  0  0  0
  138.9800  157.9140  135.4830 O   0  0  0  0  0  0  0  0  0  0  0  0
  141.9400  157.6090  133.7440 N   0  0  0  0  0  0  0  0  0  0  0  0
  141.9750  156.2190  133.3770 C   0  0  0  0  0  0  0  0  0  0  0  0
  143.0610  155.5800  133.4060 O   0  0  0  0  0  0  0  0  0  0  0  0
  140.8150  155.5620  132.9870 O   0  0  0  0  0  0  0  0  0  0  0  0
  142.9700  158.4830  133.7000 C   0  0  0  0  0  0  0  0  0  0  0  0
  144.3010  158.2450  133.3360 C   0  0  0  0  0  0  0  0  0  0  0  0
  147.4606  154.4068  135.4054 H   0  0  0  0  0  0  0  0  0  0  0  0
  146.9318  153.2517  134.1354 H   0  0  0  0  0  0  0  0  0  0  0  0
  148.6155  153.8777  134.1354 H   0  0  0  0  0  0  0  0  0  0  0  0
  147.9853  155.5722  132.8299 H   0  0  0  0  0  0  0  0  0  0  0  0
  145.0990  154.6024  133.2239 H   0  0  0  0  0  0  0  0  0  0  0  0
  145.6548  155.7413  131.9509 H   0  0  0  0  0  0  0  0  0  0  0  0
  146.2354  154.0414  131.9509 H   0  0  0  0  0  0  0  0  0  0  0  0
  149.2492  156.9302  133.3062 H   0  0  0  0  0  0  0  0  0  0  0  0
  150.3491  158.6495  131.8776 H   0  0  0  0  0  0  0  0  0  0  0  0
  149.0861  160.6772  131.1639 H   0  0  0  0  0  0  0  0  0  0  0  0
  146.7133  160.9815  131.8569 H   0  0  0  0  0  0  0  0  0  0  0  0
  145.4452  161.4747  133.6813 H   0  0  0  0  0  0  0  0  0  0  0  0
  143.0310  161.8479  134.2773 H   0  0  0  0  0  0  0  0  0  0  0  0
  140.5210  160.5123  134.5427 H   0  0  0  0  0  0  0  0  0  0  0  0
  139.2280  156.8960  132.3990 H   0  0  0  0  0  0  0  0  0  0  0  0
  137.7940  156.8120  133.4760 H   0  0  0  0  0  0  0  0  0  0  0  0
  144.6334  157.2376  133.0452 H   0  0  0  0  0  0  0  0  0  0  0  0
  1  2  1  0
  2  3  1  0
  2  4  1  0
  4  5  1  0
  5  6  2  0
  6  7  1  0
  7  8  2  0
  8  9  1  0
  9 10  2  0
 10 11  1  0
 11 12  2  0
 12 13  1  0
 13 14  2  0
 14 15  1  0
 15 16  2  0
 16 17  1  0
 17 18  1  0
 17 19  2  0
 16 20  1  0
 20 21  1  0
 21 22  2  0
 21 23  1  0
 20 24  1  0
 24 25  2  0
 10  5  1  0
 25 11  1  0
 24 14  1  0
  1 26  1  0
  1 27  1  0
  1 28  1  0
  2 29  1  0
  3 30  1  0
  3 31  1  0
  3 32  1  0
  6 33  1  0
  7 34  1  0
  8 35  1  0
  9 36  1  0
 12 37  1  0
 13 38  1  0
 15 39  1  0
 18 40  1  0
 18 41  1  0
 25 42  1  0
M  CHG  1  23  -1
M  END
>  <UniqueID>  (4) 
4

>  <SMILES>  (4) 
CC(C)Sc1ccccc1-c1ccc2cc(C(N)=O)n(C(=O)[O-])c2c1

>  <Energy>  (4) 
82.74486083510581

>  <Genealogy>  (4) 
CC(C)Sc1ccccc1-c1ccc2cc(C(N)=O)n(C(=O)[O-])c2c1 (protonated)
CC(C)Sc1ccccc1-c1ccc2cc(C(N)=O)n(C(=O)[O-])c2c1 (3D coordinates assigned)
CC(C)Sc1ccccc1-c1ccc2cc(C(N)=O)n(C(=O)[O-])c2c1 (optimized conformer: 82.74486083510581 kcal/mol)

>  <smiles>  (4) 
CC(C)Sc1ccccc1-c1ccc2cc(C(N)=O)n(C(=O)O)c2c1

>  <score_type>  (4) 
oracle

>  <origin>  (4) 
adg

>  <m_score__min__energy>  (4) 
-9.0099999999999998

>  <m_primary>  (4) 
energy

$$$$
4:0
     RDKit          3D

 70 72  0  0  0  0  0  0  0  0999 V2000
  139.8430  159.2020  130.3500 C   0  0  0  0  0  0  0  0  0  0  0  0
  139.5030  159.4590  131.8300 C   0  0  0  0  0  0  0  0  0  0  0  0
  138.3400  160.4740  131.8640 C   0  0  0  0  0  0  0  0  0  0  0  0
  139.0730  158.1050  132.4410 C   0  0  0  0  0  0  0  0  0  0  0  0
  140.6890  160.0070  132.4010 O   0  0  0  0  0  0  0  0  0  0  0  0
  141.5590  158.9870  133.4780 P   0  0  0  0  0  0  0  0  0  0  0  0
  141.9800  157.6800  132.8480 O   0  0  0  0  0  0  0  0  0  0  0  0
  140.5710  158.7420  134.8630 O   0  0  0  0  0  0  0  0  0  0  0  0
  140.6750  157.4620  135.4830 C   0  0  0  0  0  0  0  0  0  0  0  0
  139.6510  157.4780  136.6330 C   0  0  0  0  0  0  0  0  0  0  0  0
  140.3020  156.2750  134.5570 C   0  0  0  0  0  0  0  0  0  0  0  0
  142.0740  157.2680  136.1110 C   0  0  0  0  0  0  0  0  0  0  0  0
  143.0660  159.8300  134.0930 C   0  0  0  0  0  0  0  0  0  0  0  0
  142.9360  160.0210  135.4590 F   0  0  0  0  0  0  0  0  0  0  0  0
  143.1440  161.0760  133.4980 F   0  0  0  0  0  0  0  0  0  0  0  0
  144.3340  159.0630  133.7700 C   0  0  0  0  0  0  0  0  0  0  0  0
  145.4270  159.7150  133.1360 C   0  0  0  0  0  0  0  0  0  0  0  0
  146.5680  158.9960  132.7450 C   0  0  0  0  0  0  0  0  0  0  0  0
  146.5860  157.6250  132.9770 C   0  0  0  0  0  0  0  0  0  0  0  0
  147.5760  156.7000  132.7360 C   0  0  0  0  0  0  0  0  0  0  0  0
  147.0720  155.4920  133.2130 C   0  0  0  0  0  0  0  0  0  0  0  0
  147.8420  154.2300  133.2190 C   0  0  0  0  0  0  0  0  0  0  0  0
  147.2770  153.0170  133.7160 N   0  0  0  0  0  0  0  0  0  0  0  0
  149.0070  154.2150  132.7370 O   0  0  0  0  0  0  0  0  0  0  0  0
  145.8140  155.6580  133.7140 N   0  0  0  0  0  0  0  0  0  0  0  0
  145.1060  154.7390  134.5610 C   0  0  0  0  0  0  0  0  0  0  0  0
  145.7030  154.2590  135.5650 O   0  0  0  0  0  0  0  0  0  0  0  0
  143.7060  154.2490  134.2460 C   0  0  0  0  0  0  0  0  0  0  0  0
  143.0320  153.4670  135.4040 C   0  0  0  0  0  0  0  0  0  0  0  0
  141.8480  152.5900  134.9370 C   0  0  0  0  0  0  0  0  0  0  0  0
  141.2120  153.1120  133.6450 C   0  0  0  0  0  0  0  0  0  0  0  0
  142.2300  153.1450  132.4850 C   0  0  0  0  0  0  0  0  0  0  0  0
  143.6760  153.4240  132.9430 C   0  0  0  0  0  0  0  0  0  0  0  0
  145.5410  156.9740  133.5750 C   0  0  0  0  0  0  0  0  0  0  0  0
  144.3980  157.6660  133.9860 C   0  0  0  0  0  0  0  0  0  0  0  0
  140.7190  158.5399  130.2847 H   0  0  0  0  0  0  0  0  0  0  0  0
  138.9849  158.7248  129.8542 H   0  0  0  0  0  0  0  0  0  0  0  0
  140.0680  160.1578  129.8542 H   0  0  0  0  0  0  0  0  0  0  0  0
  138.0810  160.7000  132.9089 H   0  0  0  0  0  0  0  0  0  0  0  0
  138.6458  161.3992  131.3537 H   0  0  0  0  0  0  0  0  0  0  0  0
  137.4646  160.0459  131.3537 H   0  0  0  0  0  0  0  0  0  0  0  0
  139.0951  158.1745  133.5386 H   0  0  0  0  0  0  0  0  0  0  0  0
  138.0530  157.8606  132.1095 H   0  0  0  0  0  0  0  0  0  0  0  0
  139.7650  157.3168  132.1095 H   0  0  0  0  0  0  0  0  0  0  0  0
  140.1816  157.4697  137.5965 H   0  0  0  0  0  0  0  0  0  0  0  0
  139.0340  158.3859  136.5620 H   0  0  0  0  0  0  0  0  0  0  0  0
  139.0060  156.5898  136.5620 H   0  0  0  0  0  0  0  0  0  0  0  0
  140.0282  155.4037  135.1701 H   0  0  0  0  0  0  0  0  0  0  0  0
  139.4498  156.5590  133.9221 H   0  0  0  0  0  0  0  0  0  0  0  0
  141.1635  156.0205  133.9221 H   0  0  0  0  0  0  0  0  0  0  0  0
  141.9885  157.2799  137.2076 H   0  0  0  0  0  0  0  0  0  0  0  0
  142.4912  156.3034  135.7861 H   0  0  0  0  0  0  0  0  0  0  0  0
  142.7379  158.0827  135.7861 H   0  0  0  0  0  0  0  0  0  0  0  0
  145.3781  160.7979  132.9492 H   0  0  0  0  0  0  0  0  0  0  0  0
  147.4214  159.5017  132.2697 H   0  0  0  0  0  0  0  0  0  0  0  0
  148.5553  156.8766  132.2672 H   0  0  0  0  0  0  0  0  0  0  0  0
  147.8630  152.1530  133.7700 H   0  0  0  0  0  0  0  0  0  0  0  0
  146.2650  152.9450  133.9380 H   0  0  0  0  0  0  0  0  0  0  0  0
  143.1077  155.1614  134.1065 H   0  0  0  0  0  0  0  0  0  0  0  0
  143.7856  152.8167  135.8722 H   0  0  0  0  0  0  0  0  0  0  0  0
  142.6312  154.2090  136.1103 H   0  0  0  0  0  0  0  0  0  0  0  0
  142.2126  151.5668  134.7635 H   0  0  0  0  0  0  0  0  0  0  0  0
  141.0799  152.6148  135.7240 H   0  0  0  0  0  0  0  0  0  0  0  0
  140.3754  152.4539  133.3675 H   0  0  0  0  0  0  0  0  0  0  0  0
  140.8605  154.1388  133.8243 H   0  0  0  0  0  0  0  0  0  0  0  0
  142.2082  152.1707  131.9749 H   0  0  0  0  0  0  0  0  0  0  0  0
  141.9362  153.9707  131.8202 H   0  0  0  0  0  0  0  0  0  0  0  0
  144.1880  152.4656  133.1146 H   0  0  0  0  0  0  0  0  0  0  0  0
  144.1822  154.0024  132.1561 H   0  0  0  0  0  0  0  0  0  0  0  0
  143.5642  157.1346  134.4681 H   0  0  0  0  0  0  0  0  0  0  0  0
  1  2  1  0
  2  3  1  0
  2  4  1  0
  2  5  1  0
  5  6  1  0
  6  7  2  0
  6  8  1  0
  8  9  1  0
  9 10  1  0
  9 11  1  0
  9 12  1  0
  6 13  1  0
 13 14  1  0
 13 15  1  0
 13 16  1  0
 16 17  2  0
 17 18  1  0
 18 19  2  0
 19 20  1  0
 20 21  2  0
 21 22  1  0
 22 23  1  0
 22 24  2  0
 21 25  1  0
 25 26  1  0
 26 27  2  0
 26 28  1  0
 28 29  1  0
 29 30  1  0
 30 31  1  0
 31 32  1  0
 32 33  1  0
 25 34  1  0
 34 35  2  0
 35 16  1  0
 34 19  1  0
 33 28  1  0
  1 36  1  0
  1 37  1  0
  1 38  1  0
  3 39  1  0
  3 40  1  0
  3 41  1  0
  4 42  1  0
  4 43  1  0
  4 44  1  0
 10 45  1  0
 10 46  1  0
 10 47  1  0
 11 48  1  0
 11 49  1  0
 11 50  1  0
 12 51  1  0
 12 52  1  0
 12 53  1  0
 17 54  1  0
 18 55  1  0
 20 56  1  0
 23 57  1  0
 23 58  1  0
 28 59  1  0
 29 60  1  0
 29 61  1  0
 30 62  1  0
 30 63  1  0
 31 64  1  0
 31 65  1  0
 32 66  1  0
 32 67  1  0
 33 68  1  0
 33 69  1  0
 35 70  1  0
M  END
>  <UniqueID>  (5) 
5

>  <SMILES>  (5) 
CC(C)(C)OP(=O)(OC(C)(C)C)C(F)(F)c1ccc2cc(C(N)=O)n(C(=O)C3CCCCC3)c2c1

>  <Energy>  (5) 
122.65381032239965

>  <Genealogy>  (5) 
CC(C)(C)OP(=O)(OC(C)(C)C)C(F)(F)c1ccc2cc(C(N)=O)n(C(=O)C3CCCCC3)c2c1 (3D coordinates assigned)
CC(C)(C)OP(=O)(OC(C)(C)C)C(F)(F)c1ccc2cc(C(N)=O)n(C(=O)C3CCCCC3)c2c1 (nonaromatic ring conformer: 122.65381032239965 kcal/mol)

>  <smiles>  (5) 
CC(C)(C)OP(=O)(OC(C)(C)C)C(F)(F)c1ccc2cc(C(N)=O)n(C(=O)C3CCCCC3)c2c1

>  <score_type>  (5) 
oracle

>  <origin>  (5) 
adg

>  <m_score__min__energy>  (5) 
-10.32

>  <m_primary>  (5) 
energy

$$$$
5:0
     RDKit          3D

 55 58  0  0  0  0  0  0  0  0999 V2000
  140.6740  159.0650  136.6540 C   0  0  0  0  0  0  0  0  0  0  0  0
  140.4530  157.5650  136.4880 C   0  0  0  0  0  0  0  0  0  0  0  0
  139.4850  157.3080  135.4730 O   0  0  0  0  0  0  0  0  0  0  0  0
  139.7470  157.4470  134.1040 C   0  0  0  0  0  0  0  0  0  0  0  0
  138.8160  157.7300  133.3020 O   0  0  0  0  0  0  0  0  0  0  0  0
  141.0890  157.2950  133.6190 N   0  0  0  0  0  0  0  0  0  0  0  0
  142.0150  158.2710  133.3930 C   0  0  0  0  0  0  0  0  0  0  0  0
  141.7760  159.7280  133.4580 C   0  0  0  0  0  0  0  0  0  0  0  0
  140.5210  160.2830  133.0760 N   0  0  0  0  0  0  0  0  0  0  0  0
  142.7100  160.4980  133.8070 O   0  0  0  0  0  0  0  0  0  0  0  0
  143.2290  157.7090  133.0010 C   0  0  0  0  0  0  0  0  0  0  0  0
  143.0140  156.3500  132.9840 C   0  0  0  0  0  0  0  0  0  0  0  0
  143.8820  155.3100  132.6730 C   0  0  0  0  0  0  0  0  0  0  0  0
  143.3970  153.9960  132.7630 C   0  0  0  0  0  0  0  0  0  0  0  0
  142.0590  153.7350  133.1690 C   0  0  0  0  0  0  0  0  0  0  0  0
  141.5700  152.3770  133.2660 N   0  0  0  0  0  0  0  0  0  0  0  0
  141.8470  151.4910  134.3930 C   0  0  0  0  0  0  0  0  0  0  0  0
  140.9940  150.2470  134.1720 C   0  0  0  0  0  0  0  0  0  0  0  0
  140.6590  150.2680  132.6760 C   0  0  2  0  0  0  0  0  0  0  0  0
  139.3690  149.5340  132.2820 C   0  0  0  0  0  0  0  0  0  0  0  0
  140.1930  148.5600  131.4330 C   0  0  1  0  0  0  0  0  0  0  0  0
  139.8320  148.5490  129.9880 N   0  0  0  0  0  0  0  0  0  0  0  0
  139.1770  149.8140  129.6220 C   0  0  0  0  0  0  0  0  0  0  0  0
  139.0170  147.4080  129.5200 C   0  0  0  0  0  0  0  0  0  0  0  0
  141.4870  149.2880  131.8220 C   0  0  0  0  0  0  0  0  0  0  0  0
  140.7540  151.7340  132.2440 C   0  0  0  0  0  0  0  0  0  0  0  0
  141.2110  154.8270  133.4790 C   0  0  0  0  0  0  0  0  0  0  0  0
  141.7160  156.1260  133.3600 C   0  0  0  0  0  0  0  0  0  0  0  0
  140.7107  159.3139  137.7248 H   0  0  0  0  0  0  0  0  0  0  0  0
  141.6239  159.3505  136.1784 H   0  0  0  0  0  0  0  0  0  0  0  0
  139.8468  159.6123  136.1784 H   0  0  0  0  0  0  0  0  0  0  0  0
  141.4043  157.0885  136.2088 H   0  0  0  0  0  0  0  0  0  0  0  0
  140.0854  157.1540  137.4398 H   0  0  0  0  0  0  0  0  0  0  0  0
  139.6430  159.7230  133.1430 H   0  0  0  0  0  0  0  0  0  0  0  0
  144.1612  158.2395  132.7570 H   0  0  0  0  0  0  0  0  0  0  0  0
  144.9188  155.5109  132.3653 H   0  0  0  0  0  0  0  0  0  0  0  0
  144.0618  153.1552  132.5158 H   0  0  0  0  0  0  0  0  0  0  0  0
  142.9137  151.2235  134.4152 H   0  0  0  0  0  0  0  0  0  0  0  0
  141.6111  151.9750  135.3522 H   0  0  0  0  0  0  0  0  0  0  0  0
  141.5578  149.3386  134.4309 H   0  0  0  0  0  0  0  0  0  0  0  0
  140.0918  150.2428  134.8013 H   0  0  0  0  0  0  0  0  0  0  0  0
  138.8434  149.0627  133.1256 H   0  0  0  0  0  0  0  0  0  0  0  0
  138.5244  150.0840  131.8414 H   0  0  0  0  0  0  0  0  0  0  0  0
  140.1309  147.4735  131.5933 H   0  0  0  0  0  0  0  0  0  0  0  0
  138.8950  150.3585  130.5352 H   0  0  0  0  0  0  0  0  0  0  0  0
  139.8706  150.4277  129.0285 H   0  0  0  0  0  0  0  0  0  0  0  0
  138.2755  149.6018  129.0285 H   0  0  0  0  0  0  0  0  0  0  0  0
  138.6240  146.8578  130.3877 H   0  0  0  0  0  0  0  0  0  0  0  0
  138.1794  147.7806  128.9120 H   0  0  0  0  0  0  0  0  0  0  0  0
  139.6411  146.7365  128.9120 H   0  0  0  0  0  0  0  0  0  0  0  0
  142.1948  148.6739  132.3981 H   0  0  0  0  0  0  0  0  0  0  0  0
  142.1770  149.6594  131.0500 H   0  0  0  0  0  0  0  0  0  0  0  0
  141.2343  151.8160  131.2578 H   0  0  0  0  0  0  0  0  0  0  0  0
  139.7630  152.2023  132.1519 H   0  0  0  0  0  0  0  0  0  0  0  0
  140.1750  154.6564  133.8071 H   0  0  0  0  0  0  0  0  0  0  0  0
  1  2  1  0
  2  3  1  0
  3  4  1  0
  4  5  2  0
  4  6  1  0
  6  7  1  0
  7  8  1  0
  8  9  1  0
  8 10  2  0
  7 11  2  0
 11 12  1  0
 12 13  2  0
 13 14  1  0
 14 15  2  0
 15 16  1  0
 16 17  1  0
 17 18  1  0
 19 18  1  1
 19 20  1  0
 20 21  1  0
 21 22  1  0
 22 23  1  0
 22 24  1  0
 21 25  1  0
 19 26  1  0
 15 27  1  0
 27 28  2  0
 28  6  1  0
 28 12  1  0
 26 16  1  0
 25 19  1  0
  1 29  1  0
  1 30  1  0
  1 31  1  0
  2 32  1  0
  2 33  1  0
  9 34  1  0
 11 35  1  0
 13 36  1  0
 14 37  1  0
 17 38  1  0
 17 39  1  0
 18 40  1  0
 18 41  1  0
 20 42  1  0
 20 43  1  0
 21 44  1  1
 23 45  1  0
 23 46  1  0
 23 47  1  0
 24 48  1  0
 24 49  1  0
 24 50  1  0
 25 51  1  0
 25 52  1  0
 26 53  1  0
 26 54  1  0
 27 55  1  0
M  CHG  1   9  -1
M  END
>  <UniqueID>  (6) 
6

>  <SMILES>  (6) 
CCOC(=O)n1c(C([NH-])=O)cc2ccc(N3CCC4(CC(N(C)C)C4)C3)cc21

>  <Energy>  (6) 
165.772457247503

>  <Genealogy>  (6) 
CCOC(=O)n1c(C([NH-])=O)cc2ccc(N3CCC4(CC(N(C)C)C4)C3)cc21 (protonated)
CCOC(=O)n1c(C([NH-])=O)cc2ccc(N3CCC4(CC(N(C)C)C4)C3)cc21 (3D coordinates assigned)
CCOC(=O)n1c(C([NH-])=O)cc2ccc(N3CCC4(CC(N(C)C)C4)C3)cc21 (nonaromatic ring conformer: 165.772457247503 kcal/mol)

>  <smiles>  (6) 
CCOC(=O)n1c(C(N)=O)cc2ccc(N3CCC4(CC(N(C)C)C4)C3)cc21

>  <score_type>  (6) 
oracle

>  <origin>  (6) 
adg

>  <m_score__min__energy>  (6) 
-8.3900000000000006

>  <m_primary>  (6) 
energy

$$$$
6:0
     RDKit          3D

 45 47  0  0  0  0  0  0  0  0999 V2000
  147.3600  160.1110  133.2090 C   0  0  0  0  0  0  0  0  0  0  0  0
  148.5310  159.1230  133.4050 C   0  0  0  0  0  0  0  0  0  0  0  0
  149.3930  159.1600  132.1280 C   0  0  0  0  0  0  0  0  0  0  0  0
  148.0900  157.7210  133.6770 N   0  0  0  0  0  0  0  0  0  0  0  0
  146.6450  157.6600  134.0570 C   0  0  0  0  0  0  0  0  0  0  0  0
  145.7910  156.7130  133.1970 C   0  0  0  0  0  0  0  0  0  0  0  0
  146.4470  155.4070  133.0660 N   0  0  0  0  0  0  0  0  0  0  0  0
  145.6690  154.1960  132.9370 C   0  0  0  0  0  0  0  0  0  0  0  0
  146.2990  152.9660  132.6090 C   0  0  0  0  0  0  0  0  0  0  0  0
  145.5500  151.7860  132.4810 C   0  0  0  0  0  0  0  0  0  0  0  0
  144.1790  151.8560  132.6970 C   0  0  0  0  0  0  0  0  0  0  0  0
  143.2210  150.8710  132.6140 C   0  0  0  0  0  0  0  0  0  0  0  0
  142.0200  151.5030  132.9210 C   0  0  0  0  0  0  0  0  0  0  0  0
  140.7320  150.7880  133.0180 C   0  0  0  0  0  0  0  0  0  0  0  0
  139.5720  151.2570  132.3280 N   0  0  0  0  0  0  0  0  0  0  0  0
  140.6370  149.7810  133.7690 O   0  0  0  0  0  0  0  0  0  0  0  0
  142.2200  152.8270  133.1730 N   0  0  0  0  0  0  0  0  0  0  0  0
  141.2140  153.8290  133.4070 C   0  0  0  0  0  0  0  0  0  0  0  0
  140.2520  153.9680  132.6080 O   0  0  0  0  0  0  0  0  0  0  0  0
  141.2910  154.6510  134.5260 O   0  0  0  0  0  0  0  0  0  0  0  0
  143.5510  153.0270  133.0340 C   0  0  0  0  0  0  0  0  0  0  0  0
  144.2700  154.2240  133.1460 C   0  0  0  0  0  0  0  0  0  0  0  0
  147.9030  155.3620  132.9120 C   0  0  0  0  0  0  0  0  0  0  0  0
  148.4620  156.7570  132.6140 C   0  0  0  0  0  0  0  0  0  0  0  0
  146.9814  160.4304  134.1912 H   0  0  0  0  0  0  0  0  0  0  0  0
  147.7115  160.9896  132.6481 H   0  0  0  0  0  0  0  0  0  0  0  0
  146.5531  159.6166  132.6481 H   0  0  0  0  0  0  0  0  0  0  0  0
  149.0981  159.4381  134.2933 H   0  0  0  0  0  0  0  0  0  0  0  0
  150.4566  159.2057  132.4048 H   0  0  0  0  0  0  0  0  0  0  0  0
  149.2073  158.2531  131.5339 H   0  0  0  0  0  0  0  0  0  0  0  0
  149.1303  160.0477  131.5339 H   0  0  0  0  0  0  0  0  0  0  0  0
  146.5801  157.3247  135.1026 H   0  0  0  0  0  0  0  0  0  0  0  0
  146.2406  158.6707  133.8992 H   0  0  0  0  0  0  0  0  0  0  0  0
  144.8085  156.5786  133.6730 H   0  0  0  0  0  0  0  0  0  0  0  0
  145.6700  157.1527  132.1960 H   0  0  0  0  0  0  0  0  0  0  0  0
  147.3876  152.9379  132.4533 H   0  0  0  0  0  0  0  0  0  0  0  0
  146.0339  150.8339  132.2175 H   0  0  0  0  0  0  0  0  0  0  0  0
  143.3724  149.8116  132.3596 H   0  0  0  0  0  0  0  0  0  0  0  0
  138.6780  150.7220  132.3830 H   0  0  0  0  0  0  0  0  0  0  0  0
  139.5740  152.1770  131.8350 H   0  0  0  0  0  0  0  0  0  0  0  0
  143.7576  155.1660  133.3913 H   0  0  0  0  0  0  0  0  0  0  0  0
  148.3525  154.9845  133.8423 H   0  0  0  0  0  0  0  0  0  0  0  0
  148.1482  154.6969  132.0709 H   0  0  0  0  0  0  0  0  0  0  0  0
  149.5586  156.6982  132.5504 H   0  0  0  0  0  0  0  0  0  0  0  0
  148.0369  157.1069  131.6617 H   0  0  0  0  0  0  0  0  0  0  0  0
  1  2  1  0
  2  3  1  0
  2  4  1  0
  4  5  1  0
  5  6  1  0
  6  7  1  0
  7  8  1  0
  8  9  2  0
  9 10  1  0
 10 11  2  0
 11 12  1  0
 12 13  2  0
 13 14  1  0
 14 15  1  0
 14 16  2  0
 13 17  1  0
 17 18  1  0
 18 19  2  0
 18 20  1  0
 17 21  1  0
 21 22  2  0
  7 23  1  0
 23 24  1  0
 24  4  1  0
 22  8  1  0
 21 11  1  0
  1 25  1  0
  1 26  1  0
  1 27  1  0
  2 28  1  0
  3 29  1  0
  3 30  1  0
  3 31  1  0
  5 32  1  0
  5 33  1  0
  6 34  1  0
  6 35  1  0
  9 36  1  0
 10 37  1  0
 12 38  1  0
 15 39  1  0
 15 40  1  0
 22 41  1  0
 23 42  1  0
 23 43  1  0
 24 44  1  0
 24 45  1  0
M  CHG  1  20  -1
M  END
>  <UniqueID>  (7) 
7

>  <SMILES>  (7) 
CC(C)N1CCN(c2ccc3cc(C(N)=O)n(C(=O)[O-])c3c2)CC1

>  <Energy>  (7) 
98.70746119889446

>  <Genealogy>  (7) 
CC(C)N1CCN(c2ccc3cc(C(N)=O)n(C(=O)[O-])c3c2)CC1 (protonated)
CC(C)N1CCN(c2ccc3cc(C(N)=O)n(C(=O)[O-])c3c2)CC1 (3D coordinates assigned)
CC(C)N1CCN(c2ccc3cc(C(N)=O)n(C(=O)[O-])c3c2)CC1 (nonaromatic ring conformer: 98.70746119889446 kcal/mol)

>  <smiles>  (7) 
CC(C)N1CCN(c2ccc3cc(C(N)=O)n(C(=O)O)c3c2)CC1

>  <score_type>  (7) 
oracle

>  <origin>  (7) 
adg

>  <m_score__min__energy>  (7) 
-7.6200000000000001

>  <m_primary>  (7) 
energy

$$$$
7:0
     RDKit          3D

 56 59  0  0  0  0  0  0  0  0999 V2000
  143.6030  154.1970  134.0660 C   0  0  0  0  0  0  0  0  0  0  0  0
  144.4670  154.7350  135.1630 C   0  0  0  0  0  0  0  0  0  0  0  0
  144.1350  154.5360  136.3630 O   0  0  0  0  0  0  0  0  0  0  0  0
  145.6170  155.5400  134.8660 N   0  0  0  0  0  0  0  0  0  0  0  0
  146.9330  155.1910  134.9400 C   0  0  0  0  0  0  0  0  0  0  0  0
  147.4630  153.9300  135.4990 C   0  0  0  0  0  0  0  0  0  0  0  0
  146.9440  153.3880  136.7090 N   0  0  0  0  0  0  0  0  0  0  0  0
  148.4170  153.3430  134.9190 O   0  0  0  0  0  0  0  0  0  0  0  0
  147.7400  156.2330  134.4890 C   0  0  0  0  0  0  0  0  0  0  0  0
  146.8710  157.2440  134.1430 C   0  0  0  0  0  0  0  0  0  0  0  0
  147.1280  158.5150  133.6370 C   0  0  0  0  0  0  0  0  0  0  0  0
  146.0310  159.3480  133.3630 C   0  0  0  0  0  0  0  0  0  0  0  0
  144.7060  158.8960  133.5880 C   0  0  0  0  0  0  0  0  0  0  0  0
  143.5390  159.8150  133.3360 C   0  0  0  0  0  0  0  0  0  0  0  0
  142.4090  159.6000  134.3560 C   0  0  0  0  0  0  0  0  0  0  0  0
  141.1170  159.1620  133.6940 C   0  0  0  0  0  0  0  0  0  0  0  0
  140.4280  160.0920  132.8940 C   0  0  0  0  0  0  0  0  0  0  0  0
  139.2610  159.7290  132.2230 C   0  0  0  0  0  0  0  0  0  0  0  0
  138.7600  158.4350  132.3400 C   0  0  0  0  0  0  0  0  0  0  0  0
  139.4250  157.4970  133.1310 C   0  0  0  0  0  0  0  0  0  0  0  0
  140.6080  157.8390  133.8110 C   0  0  0  0  0  0  0  0  0  0  0  0
  141.2640  156.7960  134.6930 C   0  0  0  0  0  0  0  0  0  0  0  0
  140.7260  156.8520  136.0690 N   0  0  0  0  0  0  0  0  0  0  0  0
  140.1650  158.1890  136.3850 C   0  0  0  0  0  0  0  0  0  0  0  0
  141.1050  159.0120  137.2820 C   0  0  0  0  0  0  0  0  0  0  0  0
  141.3950  158.3870  138.5250 O   0  0  0  0  0  0  0  0  0  0  0  0
  141.4060  156.9660  138.4600 C   0  0  0  0  0  0  0  0  0  0  0  0
  141.7320  156.4100  137.0650 C   0  0  0  0  0  0  0  0  0  0  0  0
  144.4850  157.6000  134.1060 C   0  0  0  0  0  0  0  0  0  0  0  0
  145.5970  156.8000  134.3810 C   0  0  0  0  0  0  0  0  0  0  0  0
  142.7459  153.6633  134.5026 H   0  0  0  0  0  0  0  0  0  0  0  0
  143.2392  155.0285  133.4445 H   0  0  0  0  0  0  0  0  0  0  0  0
  144.1887  153.5037  133.4445 H   0  0  0  0  0  0  0  0  0  0  0  0
  145.9890  153.6440  137.0460 H   0  0  0  0  0  0  0  0  0  0  0  0
  148.8380  156.2457  134.4232 H   0  0  0  0  0  0  0  0  0  0  0  0
  148.1582  158.8563  133.4573 H   0  0  0  0  0  0  0  0  0  0  0  0
  146.2014  160.3612  132.9700 H   0  0  0  0  0  0  0  0  0  0  0  0
  143.8857  160.8567  133.4037 H   0  0  0  0  0  0  0  0  0  0  0  0
  143.1410  159.5937  132.3347 H   0  0  0  0  0  0  0  0  0  0  0  0
  142.7206  158.8254  135.0722 H   0  0  0  0  0  0  0  0  0  0  0  0
  142.2220  160.5593  134.8608 H   0  0  0  0  0  0  0  0  0  0  0  0
  140.8145  161.1173  132.7968 H   0  0  0  0  0  0  0  0  0  0  0  0
  138.7346  160.4667  131.5996 H   0  0  0  0  0  0  0  0  0  0  0  0
  137.8394  158.1519  131.8086 H   0  0  0  0  0  0  0  0  0  0  0  0
  139.0195  156.4787  133.2238 H   0  0  0  0  0  0  0  0  0  0  0  0
  141.0732  155.7976  134.2724 H   0  0  0  0  0  0  0  0  0  0  0  0
  142.3446  156.9980  134.7305 H   0  0  0  0  0  0  0  0  0  0  0  0
  140.0017  158.7366  135.4451 H   0  0  0  0  0  0  0  0  0  0  0  0
  139.2205  158.0408  136.9290 H   0  0  0  0  0  0  0  0  0  0  0  0
  142.0507  159.1698  136.7428 H   0  0  0  0  0  0  0  0  0  0  0  0
  140.5902  159.9575  137.5080 H   0  0  0  0  0  0  0  0  0  0  0  0
  142.1614  156.5926  139.1671 H   0  0  0  0  0  0  0  0  0  0  0  0
  140.3900  156.6266  138.7101 H   0  0  0  0  0  0  0  0  0  0  0  0
  142.7250  156.7695  136.7574 H   0  0  0  0  0  0  0  0  0  0  0  0
  141.7183  155.3112  137.1134 H   0  0  0  0  0  0  0  0  0  0  0  0
  143.4649  157.2309  134.2879 H   0  0  0  0  0  0  0  0  0  0  0  0
  1  2  1  0
  2  3  2  0
  2  4  1  0
  4  5  1  0
  5  6  1  0
  6  7  1  0
  6  8  2  0
  5  9  2  0
  9 10  1  0
 10 11  2  0
 11 12  1  0
 12 13  2  0
 13 14  1  0
 14 15  1  0
 15 16  1  0
 16 17  2  0
 17 18  1  0
 18 19  2  0
 19 20  1  0
 20 21  2  0
 21 22  1  0
 22 23  1  0
 23 24  1  0
 24 25  1  0
 25 26  1  0
 26 27  1  0
 27 28  1  0
 13 29  1  0
 29 30  2  0
 30  4  1  0
 30 10  1  0
 21 16  1  0
 28 23  1  0
  1 31  1  0
  1 32  1  0
  1 33  1  0
  7 34  1  0
  9 35  1  0
 11 36  1  0
 12 37  1  0
 14 38  1  0
 14 39  1  0
 15 40  1  0
 15 41  1  0
 17 42  1  0
 18 43  1  0
 19 44  1  0
 20 45  1  0
 22 46  1  0
 22 47  1  0
 24 48  1  0
 24 49  1  0
 25 50  1  0
 25 51  1  0
 27 52  1  0
 27 53  1  0
 28 54  1  0
 28 55  1  0
 29 56  1  0
M  CHG  1   7  -1
M  END
>  <UniqueID>  (8) 
8

>  <SMILES>  (8) 
CC(=O)n1c(C([NH-])=O)cc2ccc(CCc3ccccc3CN3CCOCC3)cc21

>  <Energy>  (8) 
109.96881188672148

>  <Genealogy>  (8) 
CC(=O)n1c(C([NH-])=O)cc2ccc(CCc3ccccc3CN3CCOCC3)cc21 (protonated)
CC(=O)n1c(C([NH-])=O)cc2ccc(CCc3ccccc3CN3CCOCC3)cc21 (3D coordinates assigned)
CC(=O)n1c(C([NH-])=O)cc2ccc(CCc3ccccc3CN3CCOCC3)cc21 (nonaromatic ring conformer: 109.96881188672148 kcal/mol)

>  <smiles>  (8) 
CC(=O)n1c(C(N)=O)cc2ccc(CCc3ccccc3CN3CCOCC3)cc21

>  <score_type>  (8) 
oracle

>  <origin>  (8) 
adg

>  <m_score__min__energy>  (8) 
-9.2300000000000004

>  <m_primary>  (8) 
energy

$$$$
8:0
     RDKit          3D

 45 47  0  0  0  0  0  0  0  0999 V2000
  149.5330  151.2280  132.2800 C   0  0  0  0  0  0  0  0  0  0  0  0
  149.1530  152.6140  132.5240 N   0  0  0  0  0  0  0  0  0  0  0  0
  147.9180  153.0510  132.8280 C   0  0  0  0  0  0  0  0  0  0  0  0
  147.9500  154.4400  132.8960 C   0  0  0  0  0  0  0  0  0  0  0  0
  146.8210  155.3610  133.1960 C   0  0  0  0  0  0  0  0  0  0  0  0
  145.5600  154.8500  133.6100 C   0  0  0  0  0  0  0  0  0  0  0  0
  144.4880  155.7120  133.8890 C   0  0  0  0  0  0  0  0  0  0  0  0
  144.6980  157.0810  133.7580 C   0  0  0  0  0  0  0  0  0  0  0  0
  143.8300  158.1320  133.9460 C   0  0  0  0  0  0  0  0  0  0  0  0
  144.5730  159.2780  133.6700 C   0  0  0  0  0  0  0  0  0  0  0  0
  144.0460  160.6490  133.8360 C   0  0  0  0  0  0  0  0  0  0  0  0
  144.9440  161.7280  134.0850 N   0  0  0  0  0  0  0  0  0  0  0  0
  142.8140  160.8860  133.7250 O   0  0  0  0  0  0  0  0  0  0  0  0
  145.8470  158.9470  133.3150 N   0  0  0  0  0  0  0  0  0  0  0  0
  146.9110  159.8210  132.9120 C   0  0  0  0  0  0  0  0  0  0  0  0
  147.3900  160.6460  133.7360 O   0  0  0  0  0  0  0  0  0  0  0  0
  147.3860  159.7610  131.5930 O   0  0  0  0  0  0  0  0  0  0  0  0
  148.7580  159.8020  131.1770 C   0  0  0  0  0  0  0  0  0  0  0  0
  149.2210  161.2590  130.9890 C   0  0  0  0  0  0  0  0  0  0  0  0
  149.5900  159.1560  132.2960 C   0  0  0  0  0  0  0  0  0  0  0  0
  148.9560  158.9960  129.8800 C   0  0  0  0  0  0  0  0  0  0  0  0
  145.9060  157.5980  133.3780 C   0  0  0  0  0  0  0  0  0  0  0  0
  146.9870  156.7620  133.0710 C   0  0  0  0  0  0  0  0  0  0  0  0
  149.2650  154.7780  132.6000 C   0  0  0  0  0  0  0  0  0  0  0  0
  149.9610  153.6490  132.3740 N   0  0  0  0  0  0  0  0  0  0  0  0
  149.6745  150.7120  133.2411 H   0  0  0  0  0  0  0  0  0  0  0  0
  148.7395  150.7256  131.7074 H   0  0  0  0  0  0  0  0  0  0  0  0
  150.4718  151.2006  131.7074 H   0  0  0  0  0  0  0  0  0  0  0  0
  147.0337  152.4182  132.9944 H   0  0  0  0  0  0  0  0  0  0  0  0
  145.4228  153.7635  133.7130 H   0  0  0  0  0  0  0  0  0  0  0  0
  143.5104  155.3167  134.2021 H   0  0  0  0  0  0  0  0  0  0  0  0
  142.7741  158.0788  134.2496 H   0  0  0  0  0  0  0  0  0  0  0  0
  145.7100  161.9560  133.4120 H   0  0  0  0  0  0  0  0  0  0  0  0
  149.3695  161.7265  131.9736 H   0  0  0  0  0  0  0  0  0  0  0  0
  150.1680  161.2735  130.4296 H   0  0  0  0  0  0  0  0  0  0  0  0
  148.4561  161.8175  130.4296 H   0  0  0  0  0  0  0  0  0  0  0  0
  149.1920  159.4650  133.2738 H   0  0  0  0  0  0  0  0  0  0  0  0
  149.5359  158.0609  132.2076 H   0  0  0  0  0  0  0  0  0  0  0  0
  150.6376  159.4797  132.2076 H   0  0  0  0  0  0  0  0  0  0  0  0
  149.2115  157.9558  130.1302 H   0  0  0  0  0  0  0  0  0  0  0  0
  148.0267  159.0140  129.2917 H   0  0  0  0  0  0  0  0  0  0  0  0
  149.7712  159.4425  129.2917 H   0  0  0  0  0  0  0  0  0  0  0  0
  147.9465  157.1854  132.7392 H   0  0  0  0  0  0  0  0  0  0  0  0
  149.6700  155.7998  132.5575 H   0  0  0  0  0  0  0  0  0  0  0  0
  150.9700  153.5900  132.1100 H   0  0  0  0  0  0  0  0  0  0  0  0
  1  2  1  0
  2  3  1  0
  3  4  2  0
  4  5  1  0
  5  6  2  0
  6  7  1  0
  7  8  2  0
  8  9  1  0
  9 10  2  0
 10 11  1  0
 11 12  1  0
 11 13  2  0
 10 14  1  0
 14 15  1  0
 15 16  2  0
 15 17  1  0
 17 18  1  0
 18 19  1  0
 18 20  1  0
 18 21  1  0
 14 22  1  0
 22 23  2  0
  4 24  1  0
 24 25  2  0
 25  2  1  0
 23  5  1  0
 22  8  1  0
  1 26  1  0
  1 27  1  0
  1 28  1  0
  3 29  1  0
  6 30  1  0
  7 31  1  0
  9 32  1  0
 12 33  1  0
 19 34  1  0
 19 35  1  0
 19 36  1  0
 20 37  1  0
 20 38  1  0
 20 39  1  0
 21 40  1  0
 21 41  1  0
 21 42  1  0
 23 43  1  0
 24 44  1  0
 25 45  1  0
M  CHG  2  12  -1  25   1
M  END
>  <UniqueID>  (9) 
9

>  <SMILES>  (9) 
Cn1cc(-c2ccc3cc(C([NH-])=O)n(C(=O)OC(C)(C)C)c3c2)c[nH+]1

>  <Energy>  (9) 
111.92103144396212

>  <Genealogy>  (9) 
Cn1cc(-c2ccc3cc(C([NH-])=O)n(C(=O)OC(C)(C)C)c3c2)c[nH+]1 (protonated)
Cn1cc(-c2ccc3cc(C([NH-])=O)n(C(=O)OC(C)(C)C)c3c2)c[nH+]1 (3D coordinates assigned)
Cn1cc(-c2ccc3cc(C([NH-])=O)n(C(=O)OC(C)(C)C)c3c2)c[nH+]1 (optimized conformer: 111.92103144396212 kcal/mol)

>  <smiles>  (9) 
Cn1cc(-c2ccc3cc(C(N)=O)n(C(=O)OC(C)(C)C)c3c2)cn1

>  <score_type>  (9) 
oracle

>  <origin>  (9) 
adg

>  <m_score__min__energy>  (9) 
-8.0600000000000005

>  <m_primary>  (9) 
energy

$$$$
9:0
     RDKit          3D

 41 43  0  0  0  0  0  0  0  0999 V2000
  149.8360  158.6260  131.8410 C   0  0  0  0  0  0  0  0  0  0  0  0
  148.8420  157.8590  132.7060 C   0  0  0  0  0  0  0  0  0  0  0  0
  147.6630  158.7260  133.0590 C   0  0  0  0  0  0  0  0  0  0  0  0
  147.8610  160.0840  133.4150 C   0  0  0  0  0  0  0  0  0  0  0  0
  146.7660  160.9070  133.7290 C   0  0  0  0  0  0  0  0  0  0  0  0
  145.4910  160.3530  133.6600 C   0  0  0  0  0  0  0  0  0  0  0  0
  144.2650  160.9150  133.9330 C   0  0  0  0  0  0  0  0  0  0  0  0
  143.3360  159.9020  133.7060 C   0  0  0  0  0  0  0  0  0  0  0  0
  141.8750  160.0970  133.8070 C   0  0  0  0  0  0  0  0  0  0  0  0
  141.0350  159.7540  132.7070 N   0  0  0  0  0  0  0  0  0  0  0  0
  141.3540  160.5330  134.8670 O   0  0  0  0  0  0  0  0  0  0  0  0
  143.9630  158.7570  133.3110 N   0  0  0  0  0  0  0  0  0  0  0  0
  143.3720  157.4750  133.0550 C   0  0  0  0  0  0  0  0  0  0  0  0
  142.5960  157.3250  132.0720 O   0  0  0  0  0  0  0  0  0  0  0  0
  143.6800  156.3900  133.8850 O   0  0  0  0  0  0  0  0  0  0  0  0
  142.6910  155.6230  134.5700 C   0  0  0  0  0  0  0  0  0  0  0  0
  141.5750  156.5130  135.0450 C   0  0  0  0  0  0  0  0  0  0  0  0
  141.6800  157.2070  136.2620 C   0  0  0  0  0  0  0  0  0  0  0  0
  140.6490  158.0520  136.6810 C   0  0  0  0  0  0  0  0  0  0  0  0
  139.5100  158.2150  135.8870 C   0  0  0  0  0  0  0  0  0  0  0  0
  139.4000  157.5310  134.6730 C   0  0  0  0  0  0  0  0  0  0  0  0
  140.4300  156.6850  134.2510 C   0  0  0  0  0  0  0  0  0  0  0  0
  145.2820  159.0500  133.2880 C   0  0  0  0  0  0  0  0  0  0  0  0
  146.3540  158.2010  132.9880 C   0  0  0  0  0  0  0  0  0  0  0  0
  150.5409  159.1699  132.4870 H   0  0  0  0  0  0  0  0  0  0  0  0
  150.3908  157.9197  131.2060 H   0  0  0  0  0  0  0  0  0  0  0  0
  149.2935  159.3418  131.2060 H   0  0  0  0  0  0  0  0  0  0  0  0
  148.4883  156.9763  132.1530 H   0  0  0  0  0  0  0  0  0  0  0  0
  149.3452  157.5516  133.6346 H   0  0  0  0  0  0  0  0  0  0  0  0
  148.8801  160.4968  133.4457 H   0  0  0  0  0  0  0  0  0  0  0  0
  146.9122  161.9575  134.0206 H   0  0  0  0  0  0  0  0  0  0  0  0
  144.0617  161.9451  134.2608 H   0  0  0  0  0  0  0  0  0  0  0  0
  141.3940  159.1690  131.9190 H   0  0  0  0  0  0  0  0  0  0  0  0
  142.2834  154.8636  133.8866 H   0  0  0  0  0  0  0  0  0  0  0  0
  143.1555  155.1368  135.4406 H   0  0  0  0  0  0  0  0  0  0  0  0
  142.5768  157.0848  136.8871 H   0  0  0  0  0  0  0  0  0  0  0  0
  140.7337  158.5897  137.6369 H   0  0  0  0  0  0  0  0  0  0  0  0
  138.7000  158.8818  136.2177 H   0  0  0  0  0  0  0  0  0  0  0  0
  138.5028  157.6584  134.0495 H   0  0  0  0  0  0  0  0  0  0  0  0
  140.3429  156.1519  133.2928 H   0  0  0  0  0  0  0  0  0  0  0  0
  146.1812  157.1523  132.7044 H   0  0  0  0  0  0  0  0  0  0  0  0
  1  2  1  0
  2  3  1  0
  3  4  2  0
  4  5  1  0
  5  6  2  0
  6  7  1  0
  7  8  2  0
  8  9  1  0
  9 10  1  0
  9 11  2  0
  8 12  1  0
 12 13  1  0
 13 14  2  0
 13 15  1  0
 15 16  1  0
 16 17  1  0
 17 18  2  0
 18 19  1  0
 19 20  2  0
 20 21  1  0
 21 22  2  0
 12 23  1  0
 23 24  2  0
 24  3  1  0
 23  6  1  0
 22 17  1  0
  1 25  1  0
  1 26  1  0
  1 27  1  0
  2 28  1  0
  2 29  1  0
  4 30  1  0
  5 31  1  0
  7 32  1  0
 10 33  1  0
 16 34  1  0
 16 35  1  0
 18 36  1  0
 19 37  1  0
 20 38  1  0
 21 39  1  0
 22 40  1  0
 24 41  1  0
M  CHG  1  10  -1
M  END
>  <UniqueID>  (10) 
10

>  <SMILES>  (10) 
CCc1ccc2cc(C([NH-])=O)n(C(=O)OCc3ccccc3)c2c1

>  <Energy>  (10) 
76.77063222736227

>  <Genealogy>  (10) 
CCc1ccc2cc(C([NH-])=O)n(C(=O)OCc3ccccc3)c2c1 (protonated)
CCc1ccc2cc(C([NH-])=O)n(C(=O)OCc3ccccc3)c2c1 (3D coordinates assigned)
CCc1ccc2cc(C([NH-])=O)n(C(=O)OCc3ccccc3)c2c1 (optimized conformer: 76.77063222736227 kcal/mol)

>  <smiles>  (10) 
CCc1ccc2cc(C(N)=O)n(C(=O)OCc3ccccc3)c2c1

>  <score_type>  (10) 
oracle

>  <origin>  (10) 
adg

>  <m_score__min__energy>  (10) 
-7.6100000000000003

>  <m_primary>  (10) 
energy

$$$$
10:0
     RDKit          3D

 38 40  0  0  0  0  0  0  0  0999 V2000
  140.9600  150.7230  138.8350 C   0  0  0  0  0  0  0  0  0  0  0  0
  140.9830  151.3870  137.5000 C   0  0  0  0  0  0  0  0  0  0  0  0
  140.6390  150.7340  136.4780 O   0  0  0  0  0  0  0  0  0  0  0  0
  141.2900  152.7830  137.4120 N   0  0  0  0  0  0  0  0  0  0  0  0
  142.4220  153.3700  136.7550 C   0  0  0  0  0  0  0  0  0  0  0  0
  143.7050  153.3560  137.3270 C   0  0  0  0  0  0  0  0  0  0  0  0
  144.7640  153.9650  136.6530 C   0  0  0  0  0  0  0  0  0  0  0  0
  144.5490  154.5980  135.4190 C   0  0  0  0  0  0  0  0  0  0  0  0
  145.6670  155.2490  134.6890 C   0  0  0  0  0  0  0  0  0  0  0  0
  146.8360  154.5120  134.3620 C   0  0  0  0  0  0  0  0  0  0  0  0
  147.8940  155.1150  133.6620 C   0  0  0  0  0  0  0  0  0  0  0  0
  147.7640  156.4540  133.3090 C   0  0  0  0  0  0  0  0  0  0  0  0
  148.6190  157.2670  132.6020 C   0  0  0  0  0  0  0  0  0  0  0  0
  147.9770  158.5000  132.5300 C   0  0  0  0  0  0  0  0  0  0  0  0
  148.5820  159.6950  131.9080 C   0  0  0  0  0  0  0  0  0  0  0  0
  149.9980  159.8850  131.8930 N   0  0  0  0  0  0  0  0  0  0  0  0
  147.8400  160.5330  131.3300 O   0  0  0  0  0  0  0  0  0  0  0  0
  146.7660  158.4500  133.1540 N   0  0  0  0  0  0  0  0  0  0  0  0
  145.7600  159.4770  133.1940 C   0  0  0  0  0  0  0  0  0  0  0  0
  146.1020  160.8040  133.5850 N   0  0  0  0  0  0  0  0  0  0  0  0
  144.5710  159.2130  132.8710 O   0  0  0  0  0  0  0  0  0  0  0  0
  146.6530  157.1900  133.6310 C   0  0  0  0  0  0  0  0  0  0  0  0
  145.5750  156.6090  134.3090 C   0  0  0  0  0  0  0  0  0  0  0  0
  143.2460  154.6060  134.8940 C   0  0  0  0  0  0  0  0  0  0  0  0
  142.2300  154.0080  135.5700 N   0  0  0  0  0  0  0  0  0  0  0  0
  140.9865  151.4877  139.6253 H   0  0  0  0  0  0  0  0  0  0  0  0
  140.0407  150.1269  138.9322 H   0  0  0  0  0  0  0  0  0  0  0  0
  141.8359  150.0647  138.9322 H   0  0  0  0  0  0  0  0  0  0  0  0
  143.8734  152.8687  138.2987 H   0  0  0  0  0  0  0  0  0  0  0  0
  145.7729  153.9489  137.0911 H   0  0  0  0  0  0  0  0  0  0  0  0
  146.9139  153.4561  134.6605 H   0  0  0  0  0  0  0  0  0  0  0  0
  148.7981  154.5454  133.4009 H   0  0  0  0  0  0  0  0  0  0  0  0
  149.6004  156.9999  132.1830 H   0  0  0  0  0  0  0  0  0  0  0  0
  150.6460  159.1330  132.2150 H   0  0  0  0  0  0  0  0  0  0  0  0
  150.4050  160.7530  131.4810 H   0  0  0  0  0  0  0  0  0  0  0  0
  146.7230  161.3970  132.9900 H   0  0  0  0  0  0  0  0  0  0  0  0
  144.6751  157.1973  134.5416 H   0  0  0  0  0  0  0  0  0  0  0  0
  143.0471  155.0988  133.9309 H   0  0  0  0  0  0  0  0  0  0  0  0
  1  2  1  0
  2  3  2  0
  2  4  1  0
  4  5  1  0
  5  6  2  0
  6  7  1  0
  7  8  2  0
  8  9  1  0
  9 10  2  0
 10 11  1  0
 11 12  2  0
 12 13  1  0
 13 14  2  0
 14 15  1  0
 15 16  1  0
 15 17  2  0
 14 18  1  0
 18 19  1  0
 19 20  1  0
 19 21  2  0
 18 22  1  0
 22 23  2  0
  8 24  1  0
 24 25  2  0
 25  5  1  0
 23  9  1  0
 22 12  1  0
  1 26  1  0
  1 27  1  0
  1 28  1  0
  6 29  1  0
  7 30  1  0
 10 31  1  0
 11 32  1  0
 13 33  1  0
 16 34  1  0
 16 35  1  0
 20 36  1  0
 23 37  1  0
 24 38  1  0
M  CHG  2   4  -1  20  -1
M  END
>  <UniqueID>  (11) 
11

>  <SMILES>  (11) 
CC(=O)[N-]c1ccc(-c2ccc3cc(C(N)=O)n(C([NH-])=O)c3c2)cn1

>  <Energy>  (11) 
87.80353415853507

>  <Genealogy>  (11) 
CC(=O)[N-]c1ccc(-c2ccc3cc(C(N)=O)n(C([NH-])=O)c3c2)cn1 (protonated)
CC(=O)[N-]c1ccc(-c2ccc3cc(C(N)=O)n(C([NH-])=O)c3c2)cn1 (3D coordinates assigned)
CC(=O)[N-]c1ccc(-c2ccc3cc(C(N)=O)n(C([NH-])=O)c3c2)cn1 (optimized conformer: 87.80353415853507 kcal/mol)

>  <smiles>  (11) 
CC(=O)Nc1ccc(-c2ccc3cc(C(N)=O)n(C(N)=O)c3c2)cn1

>  <score_type>  (11) 
oracle

>  <origin>  (11) 
adg

>  <m_score__min__energy>  (11) 
-8.2200000000000006

>  <m_primary>  (11) 
energy

$$$$
11:0
     RDKit          3D

 45 47  0  0  0  0  0  0  0  0999 V2000
  143.2300  154.1190  132.6250 C   0  0  0  0  0  0  0  0  0  0  0  0
  143.4210  153.4150  133.9760 C   0  0  0  0  0  0  0  0  0  0  0  0
  143.3020  154.4590  135.1030 C   0  0  0  0  0  0  0  0  0  0  0  0
  142.3440  152.3230  134.1280 C   0  0  0  0  0  0  0  0  0  0  0  0
  144.7320  152.8320  133.9670 O   0  0  0  0  0  0  0  0  0  0  0  0
  145.5450  152.6250  132.8430 C   0  0  0  0  0  0  0  0  0  0  0  0
  145.1800  151.8580  131.9120 O   0  0  0  0  0  0  0  0  0  0  0  0
  146.8120  153.2960  132.7560 N   0  0  0  0  0  0  0  0  0  0  0  0
  148.0470  152.7320  132.6380 C   0  0  0  0  0  0  0  0  0  0  0  0
  148.3260  151.2990  132.4220 C   0  0  0  0  0  0  0  0  0  0  0  0
  147.3440  150.4300  131.8540 N   0  0  0  0  0  0  0  0  0  0  0  0
  149.4690  150.8430  132.6910 O   0  0  0  0  0  0  0  0  0  0  0  0
  149.0390  153.7070  132.6950 C   0  0  0  0  0  0  0  0  0  0  0  0
  148.3690  154.9000  132.8400 C   0  0  0  0  0  0  0  0  0  0  0  0
  148.8630  156.1960  132.9570 C   0  0  0  0  0  0  0  0  0  0  0  0
  147.9390  157.2400  133.1290 C   0  0  0  0  0  0  0  0  0  0  0  0
  146.5470  156.9740  133.1970 C   0  0  0  0  0  0  0  0  0  0  0  0
  145.5770  158.0800  133.3840 C   0  0  0  0  0  0  0  0  0  0  0  0
  144.2170  157.7920  133.6030 C   0  0  0  0  0  0  0  0  0  0  0  0
  143.2920  158.8250  133.7810 C   0  0  0  0  0  0  0  0  0  0  0  0
  141.9830  158.5330  133.9850 F   0  0  0  0  0  0  0  0  0  0  0  0
  143.7140  160.1560  133.7430 C   0  0  0  0  0  0  0  0  0  0  0  0
  142.8180  161.1590  133.9160 F   0  0  0  0  0  0  0  0  0  0  0  0
  145.0620  160.4550  133.5340 C   0  0  0  0  0  0  0  0  0  0  0  0
  145.9940  159.4270  133.3560 C   0  0  0  0  0  0  0  0  0  0  0  0
  147.3020  159.7470  133.1960 F   0  0  0  0  0  0  0  0  0  0  0  0
  146.0850  155.6430  133.0730 C   0  0  0  0  0  0  0  0  0  0  0  0
  147.0260  154.6250  132.8770 C   0  0  0  0  0  0  0  0  0  0  0  0
  142.9454  155.1679  132.7951 H   0  0  0  0  0  0  0  0  0  0  0  0
  144.1707  154.0820  132.0560 H   0  0  0  0  0  0  0  0  0  0  0  0
  142.4370  153.6116  132.0560 H   0  0  0  0  0  0  0  0  0  0  0  0
  143.3596  153.9538  136.0784 H   0  0  0  0  0  0  0  0  0  0  0  0
  144.1231  155.1860  135.0176 H   0  0  0  0  0  0  0  0  0  0  0  0
  142.3384  154.9825  135.0176 H   0  0  0  0  0  0  0  0  0  0  0  0
  142.1596  152.1360  135.1962 H   0  0  0  0  0  0  0  0  0  0  0  0
  141.4124  152.6575  133.6482 H   0  0  0  0  0  0  0  0  0  0  0  0
  142.6913  151.3961  133.6482 H   0  0  0  0  0  0  0  0  0  0  0  0
  146.4540  150.8070  131.4590 H   0  0  0  0  0  0  0  0  0  0  0  0
  147.5450  149.4110  131.7460 H   0  0  0  0  0  0  0  0  0  0  0  0
  150.1270  153.5558  132.6366 H   0  0  0  0  0  0  0  0  0  0  0  0
  149.9438  156.3966  132.9160 H   0  0  0  0  0  0  0  0  0  0  0  0
  148.2989  158.2761  133.2119 H   0  0  0  0  0  0  0  0  0  0  0  0
  143.8791  156.7457  133.6344 H   0  0  0  0  0  0  0  0  0  0  0  0
  145.3926  161.5039  133.5092 H   0  0  0  0  0  0  0  0  0  0  0  0
  145.0108  155.4129  133.1293 H   0  0  0  0  0  0  0  0  0  0  0  0
  1  2  1  0
  2  3  1  0
  2  4  1  0
  2  5  1  0
  5  6  1  0
  6  7  2  0
  6  8  1  0
  8  9  1  0
  9 10  1  0
 10 11  1  0
 10 12  2  0
  9 13  2  0
 13 14  1  0
 14 15  2  0
 15 16  1  0
 16 17  2  0
 17 18  1  0
 18 19  2  0
 19 20  1  0
 20 21  1  0
 20 22  2  0
 22 23  1  0
 22 24  1  0
 24 25  2  0
 25 26  1  0
 17 27  1  0
 27 28  2  0
 28  8  1  0
 28 14  1  0
 25 18  1  0
  1 29  1  0
  1 30  1  0
  1 31  1  0
  3 32  1  0
  3 33  1  0
  3 34  1  0
  4 35  1  0
  4 36  1  0
  4 37  1  0
 11 38  1  0
 11 39  1  0
 13 40  1  0
 15 41  1  0
 16 42  1  0
 19 43  1  0
 24 44  1  0
 27 45  1  0
M  END
>  <UniqueID>  (12) 
12

>  <SMILES>  (12) 
CC(C)(C)OC(=O)n1c(C(N)=O)cc2ccc(-c3cc(F)c(F)cc3F)cc21

>  <Energy>  (12) 
87.70115460201924

>  <Genealogy>  (12) 
CC(C)(C)OC(=O)n1c(C(N)=O)cc2ccc(-c3cc(F)c(F)cc3F)cc21 (3D coordinates assigned)
CC(C)(C)OC(=O)n1c(C(N)=O)cc2ccc(-c3cc(F)c(F)cc3F)cc21 (optimized conformer: 87.70115460201924 kcal/mol)

>  <smiles>  (12) 
CC(C)(C)OC(=O)n1c(C(N)=O)cc2ccc(-c3cc(F)c(F)cc3F)cc21

>  <score_type>  (12) 
oracle

>  <origin>  (12) 
adg

>  <m_score__min__energy>  (12) 
-8.0899999999999999

>  <m_primary>  (12) 
energy

$$$$
12:0
     RDKit          3D

 36 37  0  0  0  0  0  0  0  0999 V2000
  141.7510  158.9840  135.7550 C   0  0  0  0  0  0  0  0  0  0  0  0
  142.0220  157.5140  135.4570 C   0  0  0  0  0  0  0  0  0  0  0  0
  143.3040  157.3500  134.8570 O   0  0  0  0  0  0  0  0  0  0  0  0
  143.6640  157.9310  133.6360 C   0  0  0  0  0  0  0  0  0  0  0  0
  142.8540  157.9390  132.6690 O   0  0  0  0  0  0  0  0  0  0  0  0
  144.9540  158.5460  133.4940 N   0  0  0  0  0  0  0  0  0  0  0  0
  145.2650  159.8700  133.5940 C   0  0  0  0  0  0  0  0  0  0  0  0
  144.3010  160.9830  133.7180 C   0  0  0  0  0  0  0  0  0  0  0  0
  142.9320  160.8120  133.3610 N   0  0  0  0  0  0  0  0  0  0  0  0
  144.7020  162.1140  134.1020 O   0  0  0  0  0  0  0  0  0  0  0  0
  146.6410  160.0570  133.4780 C   0  0  0  0  0  0  0  0  0  0  0  0
  147.1650  158.7980  133.2920 C   0  0  0  0  0  0  0  0  0  0  0  0
  148.4840  158.3950  133.1280 C   0  0  0  0  0  0  0  0  0  0  0  0
  148.7430  157.0230  132.9820 C   0  0  0  0  0  0  0  0  0  0  0  0
  147.6860  156.0670  133.0110 C   0  0  0  0  0  0  0  0  0  0  0  0
  147.9650  154.6500  132.8710 N   0  0  0  0  0  0  0  0  0  0  0  0
  149.3270  154.1800  132.5920 C   0  0  0  0  0  0  0  0  0  0  0  0
  146.8870  153.6610  133.0040 C   0  0  0  0  0  0  0  0  0  0  0  0
  146.3550  156.5290  133.1820 C   0  0  0  0  0  0  0  0  0  0  0  0
  146.1280  157.9040  133.3050 C   0  0  0  0  0  0  0  0  0  0  0  0
  141.7226  159.1382  136.8438 H   0  0  0  0  0  0  0  0  0  0  0  0
  142.5507  159.6002  135.3182 H   0  0  0  0  0  0  0  0  0  0  0  0
  140.7842  159.2745  135.3182 H   0  0  0  0  0  0  0  0  0  0  0  0
  141.9872  156.9427  136.3964 H   0  0  0  0  0  0  0  0  0  0  0  0
  141.2551  157.1474  134.7588 H   0  0  0  0  0  0  0  0  0  0  0  0
  142.6490  160.1100  132.6410 H   0  0  0  0  0  0  0  0  0  0  0  0
  147.1913  161.0083  133.5251 H   0  0  0  0  0  0  0  0  0  0  0  0
  149.3023  159.1299  133.1130 H   0  0  0  0  0  0  0  0  0  0  0  0
  149.7788  156.6799  132.8429 H   0  0  0  0  0  0  0  0  0  0  0  0
  149.8537  153.9983  133.5405 H   0  0  0  0  0  0  0  0  0  0  0  0
  149.2811  153.2457  132.0132 H   0  0  0  0  0  0  0  0  0  0  0  0
  149.8671  154.9437  132.0132 H   0  0  0  0  0  0  0  0  0  0  0  0
  146.6871  153.4776  134.0700 H   0  0  0  0  0  0  0  0  0  0  0  0
  145.9761  154.0442  132.5208 H   0  0  0  0  0  0  0  0  0  0  0  0
  147.1905  152.7206  132.5208 H   0  0  0  0  0  0  0  0  0  0  0  0
  145.5163  155.8182  133.2172 H   0  0  0  0  0  0  0  0  0  0  0  0
  1  2  1  0
  2  3  1  0
  3  4  1  0
  4  5  2  0
  4  6  1  0
  6  7  1  0
  7  8  1  0
  8  9  1  0
  8 10  2  0
  7 11  2  0
 11 12  1  0
 12 13  2  0
 13 14  1  0
 14 15  2  0
 15 16  1  0
 16 17  1  0
 16 18  1  0
 15 19  1  0
 19 20  2  0
 20  6  1  0
 20 12  1  0
  1 21  1  0
  1 22  1  0
  1 23  1  0
  2 24  1  0
  2 25  1  0
  9 26  1  0
 11 27  1  0
 13 28  1  0
 14 29  1  0
 17 30  1  0
 17 31  1  0
 17 32  1  0
 18 33  1  0
 18 34  1  0
 18 35  1  0
 19 36  1  0
M  CHG  1   9  -1
M  END
>  <UniqueID>  (13) 
13

>  <SMILES>  (13) 
CCOC(=O)n1c(C([NH-])=O)cc2ccc(N(C)C)cc21

>  <Energy>  (13) 
72.54287439211004

>  <Genealogy>  (13) 
CCOC(=O)n1c(C([NH-])=O)cc2ccc(N(C)C)cc21 (protonated)
CCOC(=O)n1c(C([NH-])=O)cc2ccc(N(C)C)cc21 (3D coordinates assigned)
CCOC(=O)n1c(C([NH-])=O)cc2ccc(N(C)C)cc21 (optimized conformer: 72.54287439211004 kcal/mol)

>  <smiles>  (13) 
CCOC(=O)n1c(C(N)=O)cc2ccc(N(C)C)cc21

>  <score_type>  (13) 
oracle

>  <origin>  (13) 
adg

>  <m_score__min__energy>  (13) 
-5.5199999999999996

>  <m_primary>  (13) 
energy

$$$$
13:0
     RDKit          3D

 38 40  0  0  0  0  0  0  0  0999 V2000
  140.5720  158.9490  136.1940 C   0  0  0  0  0  0  0  0  0  0  0  0
  140.5540  157.9370  135.0410 C   0  0  1  0  0  0  0  0  0  0  0  0
  139.1200  157.5500  134.6620 C   0  0  0  0  0  0  0  0  0  0  0  0
  139.0860  157.5340  133.1390 C   0  0  0  0  0  0  0  0  0  0  0  0
  140.2310  158.4290  132.6940 C   0  0  0  0  0  0  0  0  0  0  0  0
  141.1390  158.5060  133.8280 N   0  0  0  0  0  0  0  0  0  0  0  0
  142.5000  158.9800  133.7090 C   0  0  0  0  0  0  0  0  0  0  0  0
  142.7810  160.3690  133.7900 C   0  0  0  0  0  0  0  0  0  0  0  0
  144.0950  160.8500  133.6640 C   0  0  0  0  0  0  0  0  0  0  0  0
  145.1120  159.9220  133.4670 C   0  0  0  0  0  0  0  0  0  0  0  0
  146.4630  160.1140  133.2850 C   0  0  0  0  0  0  0  0  0  0  0  0
  146.9980  158.8370  133.1160 C   0  0  0  0  0  0  0  0  0  0  0  0
  148.4430  158.5730  132.9520 C   0  0  0  0  0  0  0  0  0  0  0  0
  148.9280  157.7840  131.8690 N   0  0  0  0  0  0  0  0  0  0  0  0
  149.2590  159.0200  133.8010 O   0  0  0  0  0  0  0  0  0  0  0  0
  146.0140  157.8960  133.1870 N   0  0  0  0  0  0  0  0  0  0  0  0
  146.1370  156.4780  132.9980 C   0  0  0  0  0  0  0  0  0  0  0  0
  146.8570  155.9590  131.8800 N   0  0  0  0  0  0  0  0  0  0  0  0
  145.6160  155.6850  133.8250 O   0  0  0  0  0  0  0  0  0  0  0  0
  144.8670  158.5770  133.4020 C   0  0  0  0  0  0  0  0  0  0  0  0
  143.5660  158.0720  133.4980 C   0  0  0  0  0  0  0  0  0  0  0  0
  140.5624  158.4116  137.1537 H   0  0  0  0  0  0  0  0  0  0  0  0
  141.4812  159.5645  136.1275 H   0  0  0  0  0  0  0  0  0  0  0  0
  139.6852  159.5965  136.1275 H   0  0  0  0  0  0  0  0  0  0  0  0
  141.1259  157.0672  135.3965 H   0  0  0  0  0  0  0  0  0  0  0  0
  138.8728  156.5554  135.0616 H   0  0  0  0  0  0  0  0  0  0  0  0
  138.3858  158.2562  135.0770 H   0  0  0  0  0  0  0  0  0  0  0  0
  139.2303  156.5105  132.7627 H   0  0  0  0  0  0  0  0  0  0  0  0
  138.1194  157.8869  132.7502 H   0  0  0  0  0  0  0  0  0  0  0  0
  140.7421  157.9924  131.8233 H   0  0  0  0  0  0  0  0  0  0  0  0
  139.8729  159.4250  132.3943 H   0  0  0  0  0  0  0  0  0  0  0  0
  141.9575  161.0796  133.9539 H   0  0  0  0  0  0  0  0  0  0  0  0
  144.3126  161.9268  133.7194 H   0  0  0  0  0  0  0  0  0  0  0  0
  147.0053  161.0710  133.2750 H   0  0  0  0  0  0  0  0  0  0  0  0
  148.2910  157.4760  131.1010 H   0  0  0  0  0  0  0  0  0  0  0  0
  147.2440  156.6010  131.1530 H   0  0  0  0  0  0  0  0  0  0  0  0
  146.9730  154.9290  131.7590 H   0  0  0  0  0  0  0  0  0  0  0  0
  143.3750  156.9922  133.4114 H   0  0  0  0  0  0  0  0  0  0  0  0
  1  2  1  0
  2  3  1  0
  3  4  1  0
  4  5  1  0
  5  6  1  0
  6  7  1  0
  7  8  2  0
  8  9  1  0
  9 10  2  0
 10 11  1  0
 11 12  2  0
 12 13  1  0
 13 14  1  0
 13 15  2  0
 12 16  1  0
 16 17  1  0
 17 18  1  0
 17 19  2  0
 16 20  1  0
 20 21  2  0
  6  2  1  0
 21  7  1  0
 20 10  1  0
  1 22  1  0
  1 23  1  0
  1 24  1  0
  2 25  1  1
  3 26  1  0
  3 27  1  0
  4 28  1  0
  4 29  1  0
  5 30  1  0
  5 31  1  0
  8 32  1  0
  9 33  1  0
 11 34  1  0
 14 35  1  0
 18 36  1  0
 18 37  1  0
 21 38  1  0
M  CHG  1  14  -1
M  END
>  <UniqueID>  (14) 
14

>  <SMILES>  (14) 
C[C@H]1CCCN1c1ccc2cc(C([NH-])=O)n(C(N)=O)c2c1

>  <Energy>  (14) 
78.4255128773854

>  <Genealogy>  (14) 
C[C@H]1CCCN1c1ccc2cc(C([NH-])=O)n(C(N)=O)c2c1 (protonated)
C[C@H]1CCCN1c1ccc2cc(C([NH-])=O)n(C(N)=O)c2c1 (3D coordinates assigned)
C[C@H]1CCCN1c1ccc2cc(C([NH-])=O)n(C(N)=O)c2c1 (nonaromatic ring conformer: 78.4255128773854 kcal/mol)

>  <smiles>  (14) 
C[C@H]1CCCN1c1ccc2cc(C(N)=O)n(C(N)=O)c2c1

>  <score_type>  (14) 
oracle

>  <origin>  (14) 
adg

>  <m_score__min__energy>  (14) 
-7.5999999999999996

>  <m_primary>  (14) 
energy

$$$$
14:0
     RDKit          3D

 43 44  0  0  0  0  0  0  0  0999 V2000
  148.9130  155.3320  140.4320 C   0  0  0  0  0  0  0  0  0  0  0  0
  148.8170  153.9390  139.7780 C   0  0  0  0  0  0  0  0  0  0  0  0
  149.1770  152.8750  140.8270 C   0  0  0  0  0  0  0  0  0  0  0  0
  149.8000  153.8250  138.5970 C   0  0  0  0  0  0  0  0  0  0  0  0
  147.4730  153.6750  139.3480 O   0  0  0  0  0  0  0  0  0  0  0  0
  147.0920  152.8040  138.3200 C   0  0  0  0  0  0  0  0  0  0  0  0
  147.1710  151.5530  138.4630 O   0  0  0  0  0  0  0  0  0  0  0  0
  146.6120  153.3550  137.0890 N   0  0  0  0  0  0  0  0  0  0  0  0
  147.2450  154.4800  136.4040 C   0  0  0  0  0  0  0  0  0  0  0  0
  146.4900  154.8410  135.1180 C   0  0  0  0  0  0  0  0  0  0  0  0
  147.3200  155.6930  134.1940 C   0  0  0  0  0  0  0  0  0  0  0  0
  148.4360  155.1340  133.5210 C   0  0  0  0  0  0  0  0  0  0  0  0
  149.1850  155.9040  132.6160 C   0  0  0  0  0  0  0  0  0  0  0  0
  148.7860  157.2170  132.3920 C   0  0  0  0  0  0  0  0  0  0  0  0
  149.3300  158.1780  131.5730 C   0  0  0  0  0  0  0  0  0  0  0  0
  148.5240  159.3040  131.7370 C   0  0  0  0  0  0  0  0  0  0  0  0
  148.7020  160.5480  130.9600 C   0  0  0  0  0  0  0  0  0  0  0  0
  149.0830  160.5070  129.5870 N   0  0  0  0  0  0  0  0  0  0  0  0
  148.5650  161.6640  131.5300 O   0  0  0  0  0  0  0  0  0  0  0  0
  147.5260  159.0510  132.6300 N   0  0  0  0  0  0  0  0  0  0  0  0
  146.5460  159.9720  133.1340 C   0  0  0  0  0  0  0  0  0  0  0  0
  146.9050  161.0270  133.7200 O   0  0  0  0  0  0  0  0  0  0  0  0
  145.1900  159.7210  132.9550 O   0  0  0  0  0  0  0  0  0  0  0  0
  147.6990  157.7680  133.0200 C   0  0  0  0  0  0  0  0  0  0  0  0
  146.9500  157.0330  133.9470 C   0  0  0  0  0  0  0  0  0  0  0  0
  148.9056  155.2244  141.5267 H   0  0  0  0  0  0  0  0  0  0  0  0
  149.8470  155.8209  140.1179 H   0  0  0  0  0  0  0  0  0  0  0  0
  148.0549  155.9444  140.1179 H   0  0  0  0  0  0  0  0  0  0  0  0
  149.0360  153.2917  141.8352 H   0  0  0  0  0  0  0  0  0  0  0  0
  148.5256  151.9980  140.6983 H   0  0  0  0  0  0  0  0  0  0  0  0
  150.2271  152.5738  140.6983 H   0  0  0  0  0  0  0  0  0  0  0  0
  150.8236  153.7063  138.9820 H   0  0  0  0  0  0  0  0  0  0  0  0
  149.5357  152.9515  137.9829 H   0  0  0  0  0  0  0  0  0  0  0  0
  149.7426  154.7358  137.9829 H   0  0  0  0  0  0  0  0  0  0  0  0
  147.2495  155.3520  137.0745 H   0  0  0  0  0  0  0  0  0  0  0  0
  148.2723  154.1920  136.1362 H   0  0  0  0  0  0  0  0  0  0  0  0
  146.2166  153.9128  134.5948 H   0  0  0  0  0  0  0  0  0  0  0  0
  145.5970  155.4180  135.4001 H   0  0  0  0  0  0  0  0  0  0  0  0
  148.7178  154.0875  133.7094 H   0  0  0  0  0  0  0  0  0  0  0  0
  150.0600  155.4814  132.1005 H   0  0  0  0  0  0  0  0  0  0  0  0
  150.2138  158.0795  130.9255 H   0  0  0  0  0  0  0  0  0  0  0  0
  148.8830  161.3100  128.9510 H   0  0  0  0  0  0  0  0  0  0  0  0
  146.0954  157.4878  134.4693 H   0  0  0  0  0  0  0  0  0  0  0  0
  1  2  1  0
  2  3  1  0
  2  4  1  0
  2  5  1  0
  5  6  1  0
  6  7  2  0
  6  8  1  0
  8  9  1  0
  9 10  1  0
 10 11  1  0
 11 12  2  0
 12 13  1  0
 13 14  2  0
 14 15  1  0
 15 16  2  0
 16 17  1  0
 17 18  1  0
 17 19  2  0
 16 20  1  0
 20 21  1  0
 21 22  2  0
 21 23  1  0
 20 24  1  0
 24 25  2  0
 25 11  1  0
 24 14  1  0
  1 26  1  0
  1 27  1  0
  1 28  1  0
  3 29  1  0
  3 30  1  0
  3 31  1  0
  4 32  1  0
  4 33  1  0
  4 34  1  0
  9 35  1  0
  9 36  1  0
 10 37  1  0
 10 38  1  0
 12 39  1  0
 13 40  1  0
 15 41  1  0
 18 42  1  0
 25 43  1  0
M  CHG  3   8  -1  18  -1  23  -1
M  END
>  <UniqueID>  (15) 
15

>  <SMILES>  (15) 
CC(C)(C)OC(=O)[N-]CCc1ccc2cc(C([NH-])=O)n(C(=O)[O-])c2c1

>  <Energy>  (15) 
72.42411296141445

>  <Genealogy>  (15) 
CC(C)(C)OC(=O)[N-]CCc1ccc2cc(C([NH-])=O)n(C(=O)[O-])c2c1 (protonated)
CC(C)(C)OC(=O)[N-]CCc1ccc2cc(C([NH-])=O)n(C(=O)[O-])c2c1 (3D coordinates assigned)
CC(C)(C)OC(=O)[N-]CCc1ccc2cc(C([NH-])=O)n(C(=O)[O-])c2c1 (optimized conformer: 72.42411296141445 kcal/mol)

>  <smiles>  (15) 
CC(C)(C)OC(=O)NCCc1ccc2cc(C(N)=O)n(C(=O)O)c2c1

>  <score_type>  (15) 
oracle

>  <origin>  (15) 
adg

>  <m_score__min__energy>  (15) 
-7.1399999999999997

>  <m_primary>  (15) 
energy

$$$$
15:0
     RDKit          3D

 48 51  0  0  0  0  0  0  0  0999 V2000
  143.2710  160.4880  133.8230 C   0  0  0  0  0  0  0  0  0  0  0  0
  144.2810  159.9340  132.9890 O   0  0  0  0  0  0  0  0  0  0  0  0
  145.6280  159.8940  133.3620 C   0  0  0  0  0  0  0  0  0  0  0  0
  146.2100  160.9440  133.7500 O   0  0  0  0  0  0  0  0  0  0  0  0
  146.3520  158.6530  133.3010 N   0  0  0  0  0  0  0  0  0  0  0  0
  147.6110  158.4510  132.8190 C   0  0  0  0  0  0  0  0  0  0  0  0
  148.5610  159.5040  132.4080 C   0  0  0  0  0  0  0  0  0  0  0  0
  148.1020  160.7510  131.8840 N   0  0  0  0  0  0  0  0  0  0  0  0
  149.7970  159.3220  132.5740 O   0  0  0  0  0  0  0  0  0  0  0  0
  147.9220  157.0930  132.8080 C   0  0  0  0  0  0  0  0  0  0  0  0
  146.8090  156.4630  133.3140 C   0  0  0  0  0  0  0  0  0  0  0  0
  146.5610  155.1070  133.5040 C   0  0  0  0  0  0  0  0  0  0  0  0
  145.3020  154.7320  134.0030 C   0  0  0  0  0  0  0  0  0  0  0  0
  144.3230  155.7100  134.2990 C   0  0  0  0  0  0  0  0  0  0  0  0
  142.9600  155.2930  134.7820 C   0  0  0  0  0  0  0  0  0  0  0  0
  142.2450  156.4680  135.4550 C   0  0  0  0  0  0  0  0  0  0  0  0
  141.3190  157.1490  134.4840 C   0  0  0  0  0  0  0  0  0  0  0  0
  139.9950  157.4350  134.8480 C   0  0  0  0  0  0  0  0  0  0  0  0
  139.1440  158.0970  133.9580 C   0  0  0  0  0  0  0  0  0  0  0  0
  139.6070  158.4940  132.6920 C   0  0  0  0  0  0  0  0  0  0  0  0
  138.7060  159.1950  131.7490 C   0  0  0  0  0  0  0  0  0  0  0  0
  137.3690  159.0030  131.7190 N   0  0  0  0  0  0  0  0  0  0  0  0
  136.9450  159.8180  130.7380 C   0  0  0  0  0  0  0  0  0  0  0  0
  138.0230  160.4780  130.2020 C   0  0  0  0  0  0  0  0  0  0  0  0
  139.1420  160.0900  130.8360 N   0  0  0  0  0  0  0  0  0  0  0  0
  140.9380  158.2180  132.3350 C   0  0  0  0  0  0  0  0  0  0  0  0
  141.7880  157.5560  133.2260 C   0  0  0  0  0  0  0  0  0  0  0  0
  144.6050  157.0770  134.0790 C   0  0  0  0  0  0  0  0  0  0  0  0
  145.8740  157.4250  133.6030 C   0  0  0  0  0  0  0  0  0  0  0  0
  143.5438  160.3384  134.8781 H   0  0  0  0  0  0  0  0  0  0  0  0
  143.1759  161.5645  133.6180 H   0  0  0  0  0  0  0  0  0  0  0  0
  142.3120  159.9896  133.6180 H   0  0  0  0  0  0  0  0  0  0  0  0
  148.7880  161.4690  131.5610 H   0  0  0  0  0  0  0  0  0  0  0  0
  147.0880  160.9990  131.8940 H   0  0  0  0  0  0  0  0  0  0  0  0
  148.8574  156.6249  132.4675 H   0  0  0  0  0  0  0  0  0  0  0  0
  147.3265  154.3522  133.2709 H   0  0  0  0  0  0  0  0  0  0  0  0
  145.0753  153.6679  134.1651 H   0  0  0  0  0  0  0  0  0  0  0  0
  142.3623  154.9487  133.9251 H   0  0  0  0  0  0  0  0  0  0  0  0
  143.0761  154.4811  135.5150 H   0  0  0  0  0  0  0  0  0  0  0  0
  141.6620  156.0950  136.3100 H   0  0  0  0  0  0  0  0  0  0  0  0
  142.9980  157.1936  135.7963 H   0  0  0  0  0  0  0  0  0  0  0  0
  139.6240  157.1367  135.8396 H   0  0  0  0  0  0  0  0  0  0  0  0
  138.1050  158.3085  134.2507 H   0  0  0  0  0  0  0  0  0  0  0  0
  135.9001  159.9373  130.4157 H   0  0  0  0  0  0  0  0  0  0  0  0
  137.9775  161.2098  129.3820 H   0  0  0  0  0  0  0  0  0  0  0  0
  141.3136  158.5250  131.3477 H   0  0  0  0  0  0  0  0  0  0  0  0
  142.8303  157.3531  132.9390 H   0  0  0  0  0  0  0  0  0  0  0  0
  143.8460  157.8482  134.2769 H   0  0  0  0  0  0  0  0  0  0  0  0
  1  2  1  0
  2  3  1  0
  3  4  2  0
  3  5  1  0
  5  6  1  0
  6  7  1  0
  7  8  1  0
  7  9  2  0
  6 10  2  0
 10 11  1  0
 11 12  2  0
 12 13  1  0
 13 14  2  0
 14 15  1  0
 15 16  1  0
 16 17  1  0
 17 18  2  0
 18 19  1  0
 19 20  2  0
 20 21  1  0
 21 22  2  0
 22 23  1  0
 23 24  2  0
 24 25  1  0
 20 26  1  0
 26 27  2  0
 14 28  1  0
 28 29  2  0
 29  5  1  0
 29 11  1  0
 27 17  1  0
 25 21  1  0
  1 30  1  0
  1 31  1  0
  1 32  1  0
  8 33  1  0
  8 34  1  0
 10 35  1  0
 12 36  1  0
 13 37  1  0
 15 38  1  0
 15 39  1  0
 16 40  1  0
 16 41  1  0
 18 42  1  0
 19 43  1  0
 23 44  1  0
 24 45  1  0
 26 46  1  0
 27 47  1  0
 28 48  1  0
M  CHG  1  25  -1
M  END
>  <UniqueID>  (16) 
16

>  <SMILES>  (16) 
COC(=O)n1c(C(N)=O)cc2ccc(CCc3ccc(-c4ncc[n-]4)cc3)cc21

>  <Energy>  (16) 
114.18036632097278

>  <Genealogy>  (16) 
COC(=O)n1c(C(N)=O)cc2ccc(CCc3ccc(-c4ncc[n-]4)cc3)cc21 (protonated)
COC(=O)n1c(C(N)=O)cc2ccc(CCc3ccc(-c4ncc[n-]4)cc3)cc21 (3D coordinates assigned)
COC(=O)n1c(C(N)=O)cc2ccc(CCc3ccc(-c4ncc[n-]4)cc3)cc21 (optimized conformer: 114.18036632097278 kcal/mol)

>  <smiles>  (16) 
COC(=O)n1c(C(N)=O)cc2ccc(CCc3ccc(-c4ncc[nH]4)cc3)cc21

>  <score_type>  (16) 
oracle

>  <origin>  (16) 
adg

>  <m_score__min__energy>  (16) 
-9.0899999999999999

>  <m_primary>  (16) 
energy

$$$$
16:0
     RDKit          3D

 45 48  0  0  0  0  0  0  0  0999 V2000
  139.3710  156.9960  132.8950 N   0  0  0  0  0  0  0  0  0  0  0  0
  139.9380  157.8630  133.8800 C   0  0  0  0  0  0  0  0  0  0  0  0
  139.2320  158.2370  134.8530 O   0  0  0  0  0  0  0  0  0  0  0  0
  141.3550  158.2730  133.8120 C   0  0  0  0  0  0  0  0  0  0  0  0
  141.7640  159.6020  133.7740 C   0  0  0  0  0  0  0  0  0  0  0  0
  143.1390  159.5580  133.7830 C   0  0  0  0  0  0  0  0  0  0  0  0
  144.0650  160.5940  133.7310 C   0  0  0  0  0  0  0  0  0  0  0  0
  145.4280  160.2600  133.7080 C   0  0  0  0  0  0  0  0  0  0  0  0
  145.8460  158.9010  133.7390 C   0  0  0  0  0  0  0  0  0  0  0  0
  147.3160  158.5110  133.6590 C   0  0  0  0  0  0  0  0  0  0  0  0
  148.0270  159.1300  132.4650 C   0  0  0  0  0  0  0  0  0  0  0  0
  149.3900  158.8470  132.2550 C   0  0  0  0  0  0  0  0  0  0  0  0
  150.0810  159.4250  131.1870 C   0  0  0  0  0  0  0  0  0  0  0  0
  149.4260  160.3030  130.3210 C   0  0  0  0  0  0  0  0  0  0  0  0
  148.0790  160.6090  130.5270 C   0  0  0  0  0  0  0  0  0  0  0  0
  147.3820  160.0340  131.5940 C   0  0  0  0  0  0  0  0  0  0  0  0
  147.5300  157.0060  133.7580 C   0  0  0  0  0  0  0  0  0  0  0  0
  147.6280  156.2480  132.5760 C   0  0  0  0  0  0  0  0  0  0  0  0
  147.7930  154.8610  132.6330 C   0  0  0  0  0  0  0  0  0  0  0  0
  147.8500  154.2120  133.8680 C   0  0  0  0  0  0  0  0  0  0  0  0
  147.7370  154.9490  135.0480 C   0  0  0  0  0  0  0  0  0  0  0  0
  147.5720  156.3360  134.9980 C   0  0  0  0  0  0  0  0  0  0  0  0
  144.8690  157.8780  133.7720 C   0  0  0  0  0  0  0  0  0  0  0  0
  143.5170  158.2400  133.8150 C   0  0  0  0  0  0  0  0  0  0  0  0
  142.4300  157.4360  133.8300 N   0  0  0  0  0  0  0  0  0  0  0  0
  142.4170  156.0000  133.7480 C   0  0  0  0  0  0  0  0  0  0  0  0
  141.4370  155.3970  133.2370 O   0  0  0  0  0  0  0  0  0  0  0  0
  143.4870  155.2610  134.2390 O   0  0  0  0  0  0  0  0  0  0  0  0
  139.9680  156.5380  132.1720 H   0  0  0  0  0  0  0  0  0  0  0  0
  138.3580  156.7470  132.9380 H   0  0  0  0  0  0  0  0  0  0  0  0
  141.1248  160.4967  133.7433 H   0  0  0  0  0  0  0  0  0  0  0  0
  143.7389  161.6443  133.7086 H   0  0  0  0  0  0  0  0  0  0  0  0
  146.1824  161.0594  133.6654 H   0  0  0  0  0  0  0  0  0  0  0  0
  147.7932  158.9449  134.5501 H   0  0  0  0  0  0  0  0  0  0  0  0
  149.9161  158.1642  132.9384 H   0  0  0  0  0  0  0  0  0  0  0  0
  151.1433  159.1879  131.0280 H   0  0  0  0  0  0  0  0  0  0  0  0
  149.9702  160.7530  129.4776 H   0  0  0  0  0  0  0  0  0  0  0  0
  147.5647  161.3046  129.8476 H   0  0  0  0  0  0  0  0  0  0  0  0
  146.3240  160.2879  131.7556 H   0  0  0  0  0  0  0  0  0  0  0  0
  147.5743  156.7512  131.5993 H   0  0  0  0  0  0  0  0  0  0  0  0
  147.8781  154.2797  131.7030 H   0  0  0  0  0  0  0  0  0  0  0  0
  147.9838  153.1210  133.9110 H   0  0  0  0  0  0  0  0  0  0  0  0
  147.7779  154.4365  136.0205 H   0  0  0  0  0  0  0  0  0  0  0  0
  147.4743  156.9087  135.9321 H   0  0  0  0  0  0  0  0  0  0  0  0
  145.1658  156.8188  133.7640 H   0  0  0  0  0  0  0  0  0  0  0  0
  1  2  1  0
  2  3  2  0
  2  4  1  0
  4  5  2  0
  5  6  1  0
  6  7  2  0
  7  8  1  0
  8  9  2  0
  9 10  1  0
 10 11  1  0
 11 12  2  0
 12 13  1  0
 13 14  2  0
 14 15  1  0
 15 16  2  0
 10 17  1  0
 17 18  2  0
 18 19  1  0
 19 20  2  0
 20 21  1  0
 21 22  2  0
  9 23  1  0
 23 24  2  0
 24 25  1  0
 25 26  1  0
 26 27  2  0
 26 28  1  0
 25  4  1  0
 24  6  1  0
 16 11  1  0
 22 17  1  0
  1 29  1  0
  1 30  1  0
  5 31  1  0
  7 32  1  0
  8 33  1  0
 10 34  1  0
 12 35  1  0
 13 36  1  0
 14 37  1  0
 15 38  1  0
 16 39  1  0
 18 40  1  0
 19 41  1  0
 20 42  1  0
 21 43  1  0
 22 44  1  0
 23 45  1  0
M  CHG  1  28  -1
M  END
>  <UniqueID>  (17) 
17

>  <SMILES>  (17) 
NC(=O)c1cc2ccc(C(c3ccccc3)c3ccccc3)cc2n1C(=O)[O-]

>  <Energy>  (17) 
94.73941199490187

>  <Genealogy>  (17) 
NC(=O)c1cc2ccc(C(c3ccccc3)c3ccccc3)cc2n1C(=O)[O-] (protonated)
NC(=O)c1cc2ccc(C(c3ccccc3)c3ccccc3)cc2n1C(=O)[O-] (3D coordinates assigned)
NC(=O)c1cc2ccc(C(c3ccccc3)c3ccccc3)cc2n1C(=O)[O-] (optimized conformer: 94.73941199490187 kcal/mol)

>  <smiles>  (17) 
NC(=O)c1cc2ccc(C(c3ccccc3)c3ccccc3)cc2n1C(=O)O

>  <score_type>  (17) 
oracle

>  <origin>  (17) 
adg

>  <m_score__min__energy>  (17) 
-9.5199999999999996

>  <m_primary>  (17) 
energy

$$$$
17:0
     RDKit          3D

 55 57  0  0  0  0  0  0  0  0999 V2000
  144.0010  152.5310  132.9460 C   0  0  0  0  0  0  0  0  0  0  0  0
  142.6690  152.0120  132.5670 N   0  0  0  0  0  0  0  0  0  0  0  0
  142.6680  150.5370  132.6090 C   0  0  0  0  0  0  0  0  0  0  0  0
  141.5390  152.5810  133.3610 C   0  0  1  0  0  0  0  0  0  0  0  0
  141.7510  152.5480  134.8880 C   0  0  0  0  0  0  0  0  0  0  0  0
  142.1240  153.9670  135.2950 C   0  0  0  0  0  0  0  0  0  0  0  0
  141.7380  154.8220  134.1810 N   0  0  0  0  0  0  0  0  0  0  0  0
  141.8200  156.2660  134.2120 C   0  0  0  0  0  0  0  0  0  0  0  0
  140.6650  157.0520  134.4810 C   0  0  0  0  0  0  0  0  0  0  0  0
  140.7380  158.4540  134.5190 C   0  0  0  0  0  0  0  0  0  0  0  0
  141.9690  159.0530  134.2770 C   0  0  0  0  0  0  0  0  0  0  0  0
  142.3220  160.3830  134.2710 C   0  0  0  0  0  0  0  0  0  0  0  0
  143.6830  160.4020  133.9770 C   0  0  0  0  0  0  0  0  0  0  0  0
  144.4590  161.6470  133.7860 C   0  0  0  0  0  0  0  0  0  0  0  0
  145.8520  161.6660  134.0840 N   0  0  0  0  0  0  0  0  0  0  0  0
  143.8960  162.7030  133.3940 O   0  0  0  0  0  0  0  0  0  0  0  0
  144.1540  159.1320  133.8150 N   0  0  0  0  0  0  0  0  0  0  0  0
  145.5020  158.7130  133.5530 C   0  0  0  0  0  0  0  0  0  0  0  0
  145.9810  157.7230  134.1700 O   0  0  0  0  0  0  0  0  0  0  0  0
  146.2570  159.3970  132.5890 O   0  0  0  0  0  0  0  0  0  0  0  0
  147.6810  159.3370  132.4210 C   0  0  0  0  0  0  0  0  0  0  0  0
  148.0500  160.3570  131.3330 C   0  0  0  0  0  0  0  0  0  0  0  0
  148.1110  157.9340  131.9520 C   0  0  0  0  0  0  0  0  0  0  0  0
  148.3980  159.7180  133.7290 C   0  0  0  0  0  0  0  0  0  0  0  0
  143.0910  158.3200  134.0000 C   0  0  0  0  0  0  0  0  0  0  0  0
  143.0550  156.9210  133.9770 C   0  0  0  0  0  0  0  0  0  0  0  0
  141.2800  154.0600  133.0280 C   0  0  0  0  0  0  0  0  0  0  0  0
  144.0836  152.5632  134.0424 H   0  0  0  0  0  0  0  0  0  0  0  0
  144.7811  151.8711  132.5387 H   0  0  0  0  0  0  0  0  0  0  0  0
  144.1290  153.5448  132.5387 H   0  0  0  0  0  0  0  0  0  0  0  0
  142.5120  152.2710  131.5640 H   0  0  0  0  0  0  0  0  0  0  0  0
  142.6678  150.2000  133.6561 H   0  0  0  0  0  0  0  0  0  0  0  0
  141.7696  150.1563  132.1011 H   0  0  0  0  0  0  0  0  0  0  0  0
  143.5659  150.1551  132.1011 H   0  0  0  0  0  0  0  0  0  0  0  0
  140.6967  151.9317  133.0799 H   0  0  0  0  0  0  0  0  0  0  0  0
  140.8258  152.2365  135.3949 H   0  0  0  0  0  0  0  0  0  0  0  0
  142.5363  151.8306  135.1686 H   0  0  0  0  0  0  0  0  0  0  0  0
  141.5803  154.2582  136.2058 H   0  0  0  0  0  0  0  0  0  0  0  0
  143.1987  154.0528  135.5135 H   0  0  0  0  0  0  0  0  0  0  0  0
  139.7008  156.5544  134.6618 H   0  0  0  0  0  0  0  0  0  0  0  0
  139.8463  159.0611  134.7342 H   0  0  0  0  0  0  0  0  0  0  0  0
  141.6681  161.2474  134.4586 H   0  0  0  0  0  0  0  0  0  0  0  0
  146.5600  161.4230  133.3560 H   0  0  0  0  0  0  0  0  0  0  0  0
  148.3879  161.2911  131.8055 H   0  0  0  0  0  0  0  0  0  0  0  0
  148.8577  159.9496  130.7072 H   0  0  0  0  0  0  0  0  0  0  0  0
  147.1686  160.5606  130.7072 H   0  0  0  0  0  0  0  0  0  0  0  0
  148.3059  157.2982  132.8282 H   0  0  0  0  0  0  0  0  0  0  0  0
  147.3084  157.4878  131.3464 H   0  0  0  0  0  0  0  0  0  0  0  0
  149.0258  158.0142  131.3464 H   0  0  0  0  0  0  0  0  0  0  0  0
  147.7907  159.3953  134.5875 H   0  0  0  0  0  0  0  0  0  0  0  0
  149.3793  159.2224  133.7671 H   0  0  0  0  0  0  0  0  0  0  0  0
  148.5364  160.8086  133.7671 H   0  0  0  0  0  0  0  0  0  0  0  0
  143.9683  156.3404  133.7802 H   0  0  0  0  0  0  0  0  0  0  0  0
  140.2064  154.2307  132.8601 H   0  0  0  0  0  0  0  0  0  0  0  0
  141.8079  154.3631  132.1118 H   0  0  0  0  0  0  0  0  0  0  0  0
  1  2  1  0
  2  3  1  0
  2  4  1  0
  4  5  1  0
  5  6  1  0
  6  7  1  0
  7  8  1  0
  8  9  2  0
  9 10  1  0
 10 11  2  0
 11 12  1  0
 12 13  2  0
 13 14  1  0
 14 15  1  0
 14 16  2  0
 13 17  1  0
 17 18  1  0
 18 19  2  0
 18 20  1  0
 20 21  1  0
 21 22  1  0
 21 23  1  0
 21 24  1  0
 17 25  1  0
 25 26  2  0
  7 27  1  0
 27  4  1  0
 26  8  1  0
 25 11  1  0
  1 28  1  0
  1 29  1  0
  1 30  1  0
  2 31  1  0
  3 32  1  0
  3 33  1  0
  3 34  1  0
  4 35  1  1
  5 36  1  0
  5 37  1  0
  6 38  1  0
  6 39  1  0
  9 40  1  0
 10 41  1  0
 12 42  1  0
 15 43  1  0
 22 44  1  0
 22 45  1  0
 22 46  1  0
 23 47  1  0
 23 48  1  0
 23 49  1  0
 24 50  1  0
 24 51  1  0
 24 52  1  0
 26 53  1  0
 27 54  1  0
 27 55  1  0
M  CHG  2   2   1  15  -1
M  END
>  <UniqueID>  (18) 
18

>  <SMILES>  (18) 
C[NH+](C)[C@H]1CCN(c2ccc3cc(C([NH-])=O)n(C(=O)OC(C)(C)C)c3c2)C1

>  <Energy>  (18) 
96.77635360077122

>  <Genealogy>  (18) 
C[NH+](C)C1CCN(c2ccc3cc(C([NH-])=O)n(C(=O)OC(C)(C)C)c3c2)C1 (protonated)
C[NH+](C)[C@H]1CCN(c2ccc3cc(C([NH-])=O)n(C(=O)OC(C)(C)C)c3c2)C1 (chirality)
C[NH+](C)[C@H]1CCN(c2ccc3cc(C([NH-])=O)n(C(=O)OC(C)(C)C)c3c2)C1 (3D coordinates assigned)
C[NH+](C)[C@H]1CCN(c2ccc3cc(C([NH-])=O)n(C(=O)OC(C)(C)C)c3c2)C1 (nonaromatic ring conformer: 96.77635360077122 kcal/mol)

>  <smiles>  (18) 
CN(C)C1CCN(c2ccc3cc(C(N)=O)n(C(=O)OC(C)(C)C)c3c2)C1

>  <score_type>  (18) 
oracle

>  <origin>  (18) 
adg

>  <m_score__min__energy>  (18) 
-7.7599999999999998

>  <m_primary>  (18) 
energy

$$$$
18:0
     RDKit          3D

 31 32  0  0  0  0  0  0  0  0999 V2000
  149.9850  160.1350  130.0100 C   0  0  0  0  0  0  0  0  0  0  0  0
  148.9100  160.5060  130.9860 C   0  0  0  0  0  0  0  0  0  0  0  0
  148.5830  161.6780  131.0920 O   0  0  0  0  0  0  0  0  0  0  0  0
  148.2150  159.4670  131.8230 C   0  0  0  0  0  0  0  0  0  0  0  0
  146.9820  160.0100  132.3940 N   0  0  0  0  0  0  0  0  0  0  0  0
  145.9530  159.2190  133.0180 C   0  0  0  0  0  0  0  0  0  0  0  0
  146.2050  157.9050  133.4980 C   0  0  0  0  0  0  0  0  0  0  0  0
  145.1830  157.1490  134.0940 C   0  0  0  0  0  0  0  0  0  0  0  0
  143.9230  157.7250  134.2020 C   0  0  0  0  0  0  0  0  0  0  0  0
  142.7540  157.2070  134.7130 C   0  0  0  0  0  0  0  0  0  0  0  0
  141.8040  158.2140  134.5560 C   0  0  0  0  0  0  0  0  0  0  0  0
  140.4170  158.1080  135.0550 C   0  0  0  0  0  0  0  0  0  0  0  0
  140.1500  158.2700  136.4460 N   0  0  0  0  0  0  0  0  0  0  0  0
  139.4600  157.9110  134.2620 O   0  0  0  0  0  0  0  0  0  0  0  0
  142.3610  159.3100  133.9660 N   0  0  0  0  0  0  0  0  0  0  0  0
  141.7030  160.5240  133.5680 C   0  0  0  0  0  0  0  0  0  0  0  0
  142.2720  161.6360  133.7230 O   0  0  0  0  0  0  0  0  0  0  0  0
  140.4440  160.4810  132.9820 O   0  0  0  0  0  0  0  0  0  0  0  0
  143.6600  158.9950  133.7580 C   0  0  0  0  0  0  0  0  0  0  0  0
  144.6550  159.7630  133.1440 C   0  0  0  0  0  0  0  0  0  0  0  0
  150.8865  159.8239  130.5582 H   0  0  0  0  0  0  0  0  0  0  0  0
  149.6358  159.3054  129.3777 H   0  0  0  0  0  0  0  0  0  0  0  0
  150.2218  161.0034  129.3777 H   0  0  0  0  0  0  0  0  0  0  0  0
  147.9707  158.5989  131.1932 H   0  0  0  0  0  0  0  0  0  0  0  0
  148.8836  159.1647  132.6425 H   0  0  0  0  0  0  0  0  0  0  0  0
  146.8620  161.0490  132.3640 H   0  0  0  0  0  0  0  0  0  0  0  0
  147.2129  157.4752  133.4013 H   0  0  0  0  0  0  0  0  0  0  0  0
  145.3740  156.1310  134.4644 H   0  0  0  0  0  0  0  0  0  0  0  0
  142.6024  156.2099  135.1520 H   0  0  0  0  0  0  0  0  0  0  0  0
  139.4670  158.9850  136.7820 H   0  0  0  0  0  0  0  0  0  0  0  0
  144.4311  160.7716  132.7663 H   0  0  0  0  0  0  0  0  0  0  0  0
  1  2  1  0
  2  3  2  0
  2  4  1  0
  4  5  1  0
  5  6  1  0
  6  7  2  0
  7  8  1  0
  8  9  2  0
  9 10  1  0
 10 11  2  0
 11 12  1  0
 12 13  1  0
 12 14  2  0
 11 15  1  0
 15 16  1  0
 16 17  2  0
 16 18  1  0
 15 19  1  0
 19 20  2  0
 20  6  1  0
 19  9  1  0
  1 21  1  0
  1 22  1  0
  1 23  1  0
  4 24  1  0
  4 25  1  0
  5 26  1  0
  7 27  1  0
  8 28  1  0
 10 29  1  0
 13 30  1  0
 20 31  1  0
M  CHG  2  13  -1  18  -1
M  END
>  <UniqueID>  (19) 
19

>  <SMILES>  (19) 
CC(=O)CNc1ccc2cc(C([NH-])=O)n(C(=O)[O-])c2c1

>  <Energy>  (19) 
66.82162416542468

>  <Genealogy>  (19) 
CC(=O)CNc1ccc2cc(C([NH-])=O)n(C(=O)[O-])c2c1 (protonated)
CC(=O)CNc1ccc2cc(C([NH-])=O)n(C(=O)[O-])c2c1 (3D coordinates assigned)
CC(=O)CNc1ccc2cc(C([NH-])=O)n(C(=O)[O-])c2c1 (optimized conformer: 66.82162416542468 kcal/mol)

>  <smiles>  (19) 
CC(=O)CNc1ccc2cc(C(N)=O)n(C(=O)O)c2c1

>  <score_type>  (19) 
oracle

>  <origin>  (19) 
adg

>  <m_score__min__energy>  (19) 
-6.4100000000000001

>  <m_primary>  (19) 
energy

$$$$
19:0
     RDKit          3D

 28 30  0  0  0  0  0  0  0  0999 V2000
  142.8640  160.6100  133.3550 N   0  0  0  0  0  0  0  0  0  0  0  0
  144.2230  160.8920  133.6800 C   0  0  0  0  0  0  0  0  0  0  0  0
  144.5230  162.0210  134.1490 O   0  0  0  0  0  0  0  0  0  0  0  0
  145.2550  159.8490  133.4970 C   0  0  0  0  0  0  0  0  0  0  0  0
  146.6020  160.1310  133.2780 C   0  0  0  0  0  0  0  0  0  0  0  0
  147.2020  158.9090  133.0800 C   0  0  0  0  0  0  0  0  0  0  0  0
  148.5340  158.5990  132.8310 C   0  0  0  0  0  0  0  0  0  0  0  0
  148.8830  157.2450  132.6940 C   0  0  0  0  0  0  0  0  0  0  0  0
  147.9020  156.2230  132.8210 C   0  0  0  0  0  0  0  0  0  0  0  0
  148.2610  154.7860  132.6890 C   0  0  0  0  0  0  0  0  0  0  0  0
  147.3870  153.7270  132.9500 C   0  0  0  0  0  0  0  0  0  0  0  0
  148.2130  152.2940  132.6570 S   0  0  0  0  0  0  0  0  0  0  0  0
  149.6370  153.0590  132.2130 C   0  0  0  0  0  0  0  0  0  0  0  0
  149.5020  154.4000  132.2780 N   0  0  0  0  0  0  0  0  0  0  0  0
  146.5560  156.5870  133.0700 C   0  0  0  0  0  0  0  0  0  0  0  0
  146.2360  157.9440  133.1820 C   0  0  0  0  0  0  0  0  0  0  0  0
  145.0330  158.5050  133.4390 N   0  0  0  0  0  0  0  0  0  0  0  0
  143.7970  157.8070  133.6650 C   0  0  0  0  0  0  0  0  0  0  0  0
  142.7560  157.8580  132.6920 N   0  0  0  0  0  0  0  0  0  0  0  0
  143.6310  157.1370  134.7180 O   0  0  0  0  0  0  0  0  0  0  0  0
  142.6210  160.0290  132.5220 H   0  0  0  0  0  0  0  0  0  0  0  0
  147.0831  161.1201  133.2660 H   0  0  0  0  0  0  0  0  0  0  0  0
  149.2927  159.3907  132.7438 H   0  0  0  0  0  0  0  0  0  0  0  0
  149.9280  156.9719  132.4859 H   0  0  0  0  0  0  0  0  0  0  0  0
  146.3438  153.8161  133.2873 H   0  0  0  0  0  0  0  0  0  0  0  0
  150.5572  152.5382  131.9096 H   0  0  0  0  0  0  0  0  0  0  0  0
  145.7771  155.8171  133.1733 H   0  0  0  0  0  0  0  0  0  0  0  0
  142.4790  158.7620  132.2500 H   0  0  0  0  0  0  0  0  0  0  0  0
  1  2  1  0
  2  3  2  0
  2  4  1  0
  4  5  2  0
  5  6  1  0
  6  7  2  0
  7  8  1  0
  8  9  2  0
  9 10  1  0
 10 11  2  0
 11 12  1  0
 12 13  1  0
 13 14  2  0
  9 15  1  0
 15 16  2  0
 16 17  1  0
 17 18  1  0
 18 19  1  0
 18 20  2  0
 17  4  1  0
 16  6  1  0
 14 10  1  0
  1 21  1  0
  5 22  1  0
  7 23  1  0
  8 24  1  0
 11 25  1  0
 13 26  1  0
 15 27  1  0
 19 28  1  0
M  CHG  2   1  -1  19  -1
M  END
>  <UniqueID>  (20) 
20

>  <SMILES>  (20) 
[NH-]C(=O)c1cc2ccc(-c3cscn3)cc2n1C([NH-])=O

>  <Energy>  (20) 
101.49266630170084

>  <Genealogy>  (20) 
[NH-]C(=O)c1cc2ccc(-c3cscn3)cc2n1C([NH-])=O (protonated)
[NH-]C(=O)c1cc2ccc(-c3cscn3)cc2n1C([NH-])=O (3D coordinates assigned)
[NH-]C(=O)c1cc2ccc(-c3cscn3)cc2n1C([NH-])=O (optimized conformer: 101.49266630170084 kcal/mol)

>  <smiles>  (20) 
NC(=O)c1cc2ccc(-c3cscn3)cc2n1C(N)=O

>  <score_type>  (20) 
oracle

>  <origin>  (20) 
adg

>  <m_score__min__energy>  (20) 
-6.8200000000000003

>  <m_primary>  (20) 
energy

$$$$
20:0
     RDKit          3D

 29 30  0  0  0  0  0  0  0  0999 V2000
  149.2270  159.0160  131.2360 C   0  0  0  0  0  0  0  0  0  0  0  0
  148.7000  157.9980  132.0770 O   0  0  0  0  0  0  0  0  0  0  0  0
  148.0180  158.2780  133.2650 C   0  0  0  0  0  0  0  0  0  0  0  0
  148.6570  158.6200  134.2960 O   0  0  0  0  0  0  0  0  0  0  0  0
  146.5840  158.1720  133.3070 N   0  0  0  0  0  0  0  0  0  0  0  0
  145.8400  157.0310  133.2430 C   0  0  0  0  0  0  0  0  0  0  0  0
  146.3530  155.6800  132.9410 C   0  0  0  0  0  0  0  0  0  0  0  0
  147.3590  155.4750  131.9470 N   0  0  0  0  0  0  0  0  0  0  0  0
  145.8560  154.6840  133.5300 O   0  0  0  0  0  0  0  0  0  0  0  0
  144.4920  157.3100  133.4510 C   0  0  0  0  0  0  0  0  0  0  0  0
  144.4270  158.6710  133.6350 C   0  0  0  0  0  0  0  0  0  0  0  0
  143.3270  159.4870  133.8880 C   0  0  0  0  0  0  0  0  0  0  0  0
  143.5550  160.8610  134.0680 C   0  0  0  0  0  0  0  0  0  0  0  0
  144.8690  161.3880  134.0150 C   0  0  0  0  0  0  0  0  0  0  0  0
  145.0940  162.8600  134.1850 C   0  0  0  0  0  0  0  0  0  0  0  0
  145.9590  160.5320  133.7420 C   0  0  0  0  0  0  0  0  0  0  0  0
  145.7030  159.1700  133.5460 C   0  0  0  0  0  0  0  0  0  0  0  0
  149.6450  159.8233  131.8553 H   0  0  0  0  0  0  0  0  0  0  0  0
  150.0195  158.5932  130.6010 H   0  0  0  0  0  0  0  0  0  0  0  0
  148.4243  159.4191  130.6010 H   0  0  0  0  0  0  0  0  0  0  0  0
  147.6710  156.2540  131.3270 H   0  0  0  0  0  0  0  0  0  0  0  0
  147.7380  154.5180  131.7750 H   0  0  0  0  0  0  0  0  0  0  0  0
  143.6569  156.5941  133.4651 H   0  0  0  0  0  0  0  0  0  0  0  0
  142.3114  159.0683  133.9451 H   0  0  0  0  0  0  0  0  0  0  0  0
  142.7050  161.5346  134.2519 H   0  0  0  0  0  0  0  0  0  0  0  0
  145.1313  163.1038  135.2570 H   0  0  0  0  0  0  0  0  0  0  0  0
  146.0458  163.1426  133.7114 H   0  0  0  0  0  0  0  0  0  0  0  0
  144.2701  163.4140  133.7114 H   0  0  0  0  0  0  0  0  0  0  0  0
  146.9843  160.9263  133.6848 H   0  0  0  0  0  0  0  0  0  0  0  0
  1  2  1  0
  2  3  1  0
  3  4  2  0
  3  5  1  0
  5  6  1  0
  6  7  1  0
  7  8  1  0
  7  9  2  0
  6 10  2  0
 10 11  1  0
 11 12  2  0
 12 13  1  0
 13 14  2  0
 14 15  1  0
 14 16  1  0
 16 17  2  0
 17  5  1  0
 17 11  1  0
  1 18  1  0
  1 19  1  0
  1 20  1  0
  8 21  1  0
  8 22  1  0
 10 23  1  0
 12 24  1  0
 13 25  1  0
 15 26  1  0
 15 27  1  0
 15 28  1  0
 16 29  1  0
M  END
>  <UniqueID>  (21) 
21

>  <SMILES>  (21) 
COC(=O)n1c(C(N)=O)cc2ccc(C)cc21

>  <Energy>  (21) 
65.85753586617135

>  <Genealogy>  (21) 
COC(=O)n1c(C(N)=O)cc2ccc(C)cc21 (3D coordinates assigned)
COC(=O)n1c(C(N)=O)cc2ccc(C)cc21 (optimized conformer: 65.85753586617135 kcal/mol)

>  <smiles>  (21) 
COC(=O)n1c(C(N)=O)cc2ccc(C)cc21

>  <score_type>  (21) 
oracle

>  <origin>  (21) 
adg

>  <m_score__min__energy>  (21) 
-5.6500000000000004

>  <m_primary>  (21) 
energy

$$$$
21:0
     RDKit          3D

 40 42  0  0  0  0  0  0  0  0999 V2000
  145.0770  156.4220  133.4410 N   0  0  0  0  0  0  0  0  0  0  0  0
  143.8300  156.3950  134.1360 C   0  0  0  0  0  0  0  0  0  0  0  0
  143.7450  155.7660  135.2250 O   0  0  0  0  0  0  0  0  0  0  0  0
  142.6580  157.1410  133.6370 C   0  0  0  0  0  0  0  0  0  0  0  0
  141.4500  156.5360  133.3000 C   0  0  0  0  0  0  0  0  0  0  0  0
  140.6150  157.5680  132.9390 C   0  0  0  0  0  0  0  0  0  0  0  0
  139.2970  157.5380  132.4930 C   0  0  0  0  0  0  0  0  0  0  0  0
  138.6920  158.7560  132.1440 C   0  0  0  0  0  0  0  0  0  0  0  0
  139.4130  159.9710  132.2360 C   0  0  0  0  0  0  0  0  0  0  0  0
  138.7900  161.2020  131.8630 N   0  0  0  0  0  0  0  0  0  0  0  0
  140.7480  159.9650  132.6900 C   0  0  0  0  0  0  0  0  0  0  0  0
  141.3220  158.7390  133.0520 C   0  0  0  0  0  0  0  0  0  0  0  0
  142.5810  158.4930  133.4800 N   0  0  0  0  0  0  0  0  0  0  0  0
  143.6480  159.4460  133.6020 C   0  0  0  0  0  0  0  0  0  0  0  0
  143.4510  160.5400  134.1970 O   0  0  0  0  0  0  0  0  0  0  0  0
  144.9040  159.1520  133.0560 O   0  0  0  0  0  0  0  0  0  0  0  0
  145.9620  160.1040  132.9490 C   0  0  0  0  0  0  0  0  0  0  0  0
  147.1280  159.5280  132.1330 C   0  0  1  0  0  0  0  0  0  0  0  0
  147.9000  160.5950  131.5770 O   0  0  0  0  0  0  0  0  0  0  0  0
  149.2450  160.4380  131.2440 C   0  0  0  0  0  0  0  0  0  0  0  0
  149.8620  161.3680  130.6640 O   0  0  0  0  0  0  0  0  0  0  0  0
  149.9210  159.2740  131.6130 O   0  0  0  0  0  0  0  0  0  0  0  0
  149.2260  158.1530  132.1510 C   0  0  0  0  0  0  0  0  0  0  0  0
  148.0250  158.6070  132.9940 C   0  0  2  0  0  0  0  0  0  0  0  0
  147.3090  157.4730  133.4120 O   0  0  0  0  0  0  0  0  0  0  0  0
  145.8820  155.8540  133.7850 H   0  0  0  0  0  0  0  0  0  0  0  0
  145.2310  157.0650  132.6320 H   0  0  0  0  0  0  0  0  0  0  0  0
  141.2137  155.4618  133.3185 H   0  0  0  0  0  0  0  0  0  0  0  0
  138.7461  156.5890  132.4163 H   0  0  0  0  0  0  0  0  0  0  0  0
  137.6486  158.7664  131.7960 H   0  0  0  0  0  0  0  0  0  0  0  0
  137.9860  161.2140  131.1950 H   0  0  0  0  0  0  0  0  0  0  0  0
  139.1270  162.1110  132.2510 H   0  0  0  0  0  0  0  0  0  0  0  0
  141.3244  160.8994  132.7583 H   0  0  0  0  0  0  0  0  0  0  0  0
  145.5846  161.0091  132.4507 H   0  0  0  0  0  0  0  0  0  0  0  0
  146.3229  160.3476  133.9592 H   0  0  0  0  0  0  0  0  0  0  0  0
  146.7092  158.9162  131.3204 H   0  0  0  0  0  0  0  0  0  0  0  0
  148.8681  157.5207  131.3251 H   0  0  0  0  0  0  0  0  0  0  0  0
  149.9152  157.5881  132.7959 H   0  0  0  0  0  0  0  0  0  0  0  0
  148.3624  159.1641  133.8805 H   0  0  0  0  0  0  0  0  0  0  0  0
  146.4410  157.7930  133.7710 H   0  0  0  0  0  0  0  0  0  0  0  0
  1  2  1  0
  2  3  2  0
  2  4  1  0
  4  5  2  0
  5  6  1  0
  6  7  2  0
  7  8  1  0
  8  9  2  0
  9 10  1  0
  9 11  1  0
 11 12  2  0
 12 13  1  0
 13 14  1  0
 14 15  2  0
 14 16  1  0
 16 17  1  0
 17 18  1  0
 18 19  1  0
 19 20  1  0
 20 21  2  0
 20 22  1  0
 22 23  1  0
 23 24  1  0
 24 25  1  0
 13  4  1  0
 24 18  1  0
 12  6  1  0
  1 26  1  0
  1 27  1  0
  5 28  1  0
  7 29  1  0
  8 30  1  0
 10 31  1  0
 10 32  1  0
 11 33  1  0
 17 34  1  0
 17 35  1  0
 18 36  1  6
 23 37  1  0
 23 38  1  0
 24 39  1  1
 25 40  1  0
M  END
>  <UniqueID>  (22) 
22

>  <SMILES>  (22) 
NC(=O)c1cc2ccc(N)cc2n1C(=O)OC[C@H]1OC(=O)OC[C@@H]1O

>  <Energy>  (22) 
76.49089234821061

>  <Genealogy>  (22) 
NC(=O)c1cc2ccc(N)cc2n1C(=O)OC[C@H]1OC(=O)OC[C@@H]1O (chirality)
NC(=O)c1cc2ccc(N)cc2n1C(=O)OC[C@H]1OC(=O)OC[C@@H]1O (3D coordinates assigned)
NC(=O)c1cc2ccc(N)cc2n1C(=O)OC[C@H]1OC(=O)OC[C@@H]1O (nonaromatic ring conformer: 76.49089234821061 kcal/mol)

>  <smiles>  (22) 
NC(=O)c1cc2ccc(N)cc2n1C(=O)OCC1OC(=O)OCC1O

>  <score_type>  (22) 
oracle

>  <origin>  (22) 
adg

>  <m_score__min__energy>  (22) 
-6.8799999999999999

>  <m_primary>  (22) 
energy

$$$$
22:0
     RDKit          3D

 36 38  0  0  0  0  0  0  0  0999 V2000
  139.4310  158.2020  135.9680 N   0  0  0  0  0  0  0  0  0  0  0  0
  139.9150  158.3910  134.6410 C   0  0  0  0  0  0  0  0  0  0  0  0
  139.1500  158.1610  133.6660 O   0  0  0  0  0  0  0  0  0  0  0  0
  141.3120  158.8040  134.3920 C   0  0  0  0  0  0  0  0  0  0  0  0
  141.7730  160.1060  134.5730 C   0  0  0  0  0  0  0  0  0  0  0  0
  143.0810  160.0930  134.1450 C   0  0  0  0  0  0  0  0  0  0  0  0
  144.0230  161.1170  134.1080 C   0  0  0  0  0  0  0  0  0  0  0  0
  145.3110  160.8110  133.6370 C   0  0  0  0  0  0  0  0  0  0  0  0
  145.6390  159.4940  133.2180 C   0  0  0  0  0  0  0  0  0  0  0  0
  147.0060  159.1800  132.7320 C   0  0  0  0  0  0  0  0  0  0  0  0
  147.6960  158.0570  133.2230 C   0  0  0  0  0  0  0  0  0  0  0  0
  148.9750  157.7520  132.7530 C   0  0  0  0  0  0  0  0  0  0  0  0
  149.5860  158.5660  131.7980 C   0  0  0  0  0  0  0  0  0  0  0  0
  148.9280  159.7110  131.3140 C   0  0  0  0  0  0  0  0  0  0  0  0
  149.5680  160.5680  130.2500 C   0  0  0  0  0  0  0  0  0  0  0  0
  150.8580  160.1250  130.0240 F   0  0  0  0  0  0  0  0  0  0  0  0
  148.8510  160.4920  129.0690 F   0  0  0  0  0  0  0  0  0  0  0  0
  149.6090  161.8940  130.6460 F   0  0  0  0  0  0  0  0  0  0  0  0
  147.6300  159.9970  131.7700 C   0  0  0  0  0  0  0  0  0  0  0  0
  144.6510  158.4810  133.2730 C   0  0  0  0  0  0  0  0  0  0  0  0
  143.3740  158.8200  133.7330 C   0  0  0  0  0  0  0  0  0  0  0  0
  142.3010  158.0140  133.8830 N   0  0  0  0  0  0  0  0  0  0  0  0
  142.2600  156.6020  133.6290 C   0  0  0  0  0  0  0  0  0  0  0  0
  141.1290  156.0150  132.9840 N   0  0  0  0  0  0  0  0  0  0  0  0
  143.2100  155.8670  134.0090 O   0  0  0  0  0  0  0  0  0  0  0  0
  139.1260  159.0140  136.5490 H   0  0  0  0  0  0  0  0  0  0  0  0
  141.2109  160.9627  134.9731 H   0  0  0  0  0  0  0  0  0  0  0  0
  143.7670  162.1348  134.4374 H   0  0  0  0  0  0  0  0  0  0  0  0
  146.0749  161.6013  133.5922 H   0  0  0  0  0  0  0  0  0  0  0  0
  147.2251  157.4150  133.9820 H   0  0  0  0  0  0  0  0  0  0  0  0
  149.5031  156.8667  133.1369 H   0  0  0  0  0  0  0  0  0  0  0  0
  150.5876  158.3107  131.4218 H   0  0  0  0  0  0  0  0  0  0  0  0
  147.0944  160.8706  131.3701 H   0  0  0  0  0  0  0  0  0  0  0  0
  144.8822  157.4517  132.9613 H   0  0  0  0  0  0  0  0  0  0  0  0
  140.3010  156.5980  132.7310 H   0  0  0  0  0  0  0  0  0  0  0  0
  141.1070  154.9900  132.7890 H   0  0  0  0  0  0  0  0  0  0  0  0
  1  2  1  0
  2  3  2  0
  2  4  1  0
  4  5  2  0
  5  6  1  0
  6  7  2  0
  7  8  1  0
  8  9  2  0
  9 10  1  0
 10 11  2  0
 11 12  1  0
 12 13  2  0
 13 14  1  0
 14 15  1  0
 15 16  1  0
 15 17  1  0
 15 18  1  0
 14 19  2  0
  9 20  1  0
 20 21  2  0
 21 22  1  0
 22 23  1  0
 23 24  1  0
 23 25  2  0
 22  4  1  0
 21  6  1  0
 19 10  1  0
  1 26  1  0
  5 27  1  0
  7 28  1  0
  8 29  1  0
 11 30  1  0
 12 31  1  0
 13 32  1  0
 19 33  1  0
 20 34  1  0
 24 35  1  0
 24 36  1  0
M  CHG  1   1  -1
M  END
>  <UniqueID>  (23) 
23

>  <SMILES>  (23) 
[NH-]C(=O)c1cc2ccc(-c3cccc(C(F)(F)F)c3)cc2n1C(N)=O

>  <Energy>  (23) 
83.13539225606955

>  <Genealogy>  (23) 
[NH-]C(=O)c1cc2ccc(-c3cccc(C(F)(F)F)c3)cc2n1C(N)=O (protonated)
[NH-]C(=O)c1cc2ccc(-c3cccc(C(F)(F)F)c3)cc2n1C(N)=O (3D coordinates assigned)
[NH-]C(=O)c1cc2ccc(-c3cccc(C(F)(F)F)c3)cc2n1C(N)=O (optimized conformer: 83.13539225606955 kcal/mol)

>  <smiles>  (23) 
NC(=O)c1cc2ccc(-c3cccc(C(F)(F)F)c3)cc2n1C(N)=O

>  <score_type>  (23) 
oracle

>  <origin>  (23) 
adg

>  <m_score__min__energy>  (23) 
-8.0399999999999991

>  <m_primary>  (23) 
energy

$$$$
23:0
     RDKit          3D

 34 36  0  0  0  0  0  0  0  0999 V2000
  139.7370  158.1460  136.6990 N   0  0  0  0  0  0  0  0  0  0  0  0
  139.9900  158.2400  135.2990 C   0  0  0  0  0  0  0  0  0  0  0  0
  139.0520  158.0210  134.4870 O   0  0  0  0  0  0  0  0  0  0  0  0
  141.3170  158.6480  134.7920 C   0  0  0  0  0  0  0  0  0  0  0  0
  141.7400  159.9730  134.7370 C   0  0  0  0  0  0  0  0  0  0  0  0
  143.0440  159.9220  134.3010 C   0  0  0  0  0  0  0  0  0  0  0  0
  143.9450  160.9520  134.0560 C   0  0  0  0  0  0  0  0  0  0  0  0
  145.2220  160.6120  133.5780 C   0  0  0  0  0  0  0  0  0  0  0  0
  145.5730  159.2560  133.3480 C   0  0  0  0  0  0  0  0  0  0  0  0
  146.9220  158.9080  132.8320 C   0  0  0  0  0  0  0  0  0  0  0  0
  147.5750  157.7440  133.2740 C   0  0  0  0  0  0  0  0  0  0  0  0
  148.8490  157.4270  132.8010 C   0  0  0  0  0  0  0  0  0  0  0  0
  149.4850  158.2580  131.8760 C   0  0  0  0  0  0  0  0  0  0  0  0
  148.8410  159.4110  131.3980 C   0  0  0  0  0  0  0  0  0  0  0  0
  149.5410  160.3350  130.4340 C   0  0  0  0  0  0  0  0  0  0  0  0
  150.8170  159.8600  130.1940 F   0  0  0  0  0  0  0  0  0  0  0  0
  148.8550  160.4060  129.2340 F   0  0  0  0  0  0  0  0  0  0  0  0
  149.6270  161.6130  130.9580 F   0  0  0  0  0  0  0  0  0  0  0  0
  147.5680  159.7410  131.8990 C   0  0  0  0  0  0  0  0  0  0  0  0
  144.6250  158.2370  133.6090 C   0  0  0  0  0  0  0  0  0  0  0  0
  143.3680  158.6050  134.1020 C   0  0  0  0  0  0  0  0  0  0  0  0
  142.3160  157.8090  134.3950 N   0  0  0  0  0  0  0  0  0  0  0  0
  142.2500  156.3830  134.2230 C   0  0  0  0  0  0  0  0  0  0  0  0
  141.3910  155.8740  133.4560 O   0  0  0  0  0  0  0  0  0  0  0  0
  143.1150  155.5520  134.9240 O   0  0  0  0  0  0  0  0  0  0  0  0
  139.4710  158.9890  137.2540 H   0  0  0  0  0  0  0  0  0  0  0  0
  141.1558  160.8704  134.9887 H   0  0  0  0  0  0  0  0  0  0  0  0
  143.6667  162.0017  134.2311 H   0  0  0  0  0  0  0  0  0  0  0  0
  145.9577  161.4054  133.3799 H   0  0  0  0  0  0  0  0  0  0  0  0
  147.0789  157.0795  133.9967 H   0  0  0  0  0  0  0  0  0  0  0  0
  149.3549  156.5180  133.1585 H   0  0  0  0  0  0  0  0  0  0  0  0
  150.4954  158.0082  131.5201 H   0  0  0  0  0  0  0  0  0  0  0  0
  147.0716  160.6612  131.5573 H   0  0  0  0  0  0  0  0  0  0  0  0
  144.8710  157.1802  133.4283 H   0  0  0  0  0  0  0  0  0  0  0  0
  1  2  1  0
  2  3  2  0
  2  4  1  0
  4  5  2  0
  5  6  1  0
  6  7  2  0
  7  8  1  0
  8  9  2  0
  9 10  1  0
 10 11  2  0
 11 12  1  0
 12 13  2  0
 13 14  1  0
 14 15  1  0
 15 16  1  0
 15 17  1  0
 15 18  1  0
 14 19  2  0
  9 20  1  0
 20 21  2  0
 21 22  1  0
 22 23  1  0
 23 24  2  0
 23 25  1  0
 22  4  1  0
 21  6  1  0
 19 10  1  0
  1 26  1  0
  5 27  1  0
  7 28  1  0
  8 29  1  0
 11 30  1  0
 12 31  1  0
 13 32  1  0
 19 33  1  0
 20 34  1  0
M  CHG  2   1  -1  25  -1
M  END
>  <UniqueID>  (24) 
24

>  <SMILES>  (24) 
[NH-]C(=O)c1cc2ccc(-c3cccc(C(F)(F)F)c3)cc2n1C(=O)[O-]

>  <Energy>  (24) 
82.57350253094782

>  <Genealogy>  (24) 
[NH-]C(=O)c1cc2ccc(-c3cccc(C(F)(F)F)c3)cc2n1C(=O)[O-] (protonated)
[NH-]C(=O)c1cc2ccc(-c3cccc(C(F)(F)F)c3)cc2n1C(=O)[O-] (3D coordinates assigned)
[NH-]C(=O)c1cc2ccc(-c3cccc(C(F)(F)F)c3)cc2n1C(=O)[O-] (optimized conformer: 82.57350253094782 kcal/mol)

>  <smiles>  (24) 
NC(=O)c1cc2ccc(-c3cccc(C(F)(F)F)c3)cc2n1C(=O)O

>  <score_type>  (24) 
oracle

>  <origin>  (24) 
adg

>  <m_score__min__energy>  (24) 
-7.8700000000000001

>  <m_primary>  (24) 
energy

$$$$
24:0
     RDKit          3D

 36 38  0  0  0  0  0  0  0  0999 V2000
  140.9570  159.3130  137.1140 C   0  0  0  0  0  0  0  0  0  0  0  0
  141.1060  158.3280  136.0980 O   0  0  0  0  0  0  0  0  0  0  0  0
  140.3850  158.3080  134.8930 C   0  0  0  0  0  0  0  0  0  0  0  0
  139.0450  157.8780  134.8360 C   0  0  0  0  0  0  0  0  0  0  0  0
  138.3660  157.9020  133.6610 N   0  0  0  0  0  0  0  0  0  0  0  0
  138.9420  158.3330  132.5100 C   0  0  0  0  0  0  0  0  0  0  0  0
  140.2680  158.7640  132.5110 C   0  0  0  0  0  0  0  0  0  0  0  0
  141.0060  158.7470  133.7050 C   0  0  0  0  0  0  0  0  0  0  0  0
  142.4210  159.1930  133.6970 C   0  0  0  0  0  0  0  0  0  0  0  0
  142.7300  160.5770  133.7280 C   0  0  0  0  0  0  0  0  0  0  0  0
  144.0650  161.0140  133.7040 C   0  0  0  0  0  0  0  0  0  0  0  0
  145.0670  160.0510  133.6490 C   0  0  0  0  0  0  0  0  0  0  0  0
  146.4330  160.1980  133.5940 C   0  0  0  0  0  0  0  0  0  0  0  0
  146.9430  158.9020  133.5430 C   0  0  0  0  0  0  0  0  0  0  0  0
  148.3880  158.5820  133.5730 C   0  0  0  0  0  0  0  0  0  0  0  0
  148.9580  157.6960  132.6080 N   0  0  0  0  0  0  0  0  0  0  0  0
  149.1360  159.1170  134.4330 O   0  0  0  0  0  0  0  0  0  0  0  0
  145.9300  157.9890  133.5620 N   0  0  0  0  0  0  0  0  0  0  0  0
  146.0350  156.5590  133.4600 C   0  0  0  0  0  0  0  0  0  0  0  0
  146.6630  155.9620  132.3280 N   0  0  0  0  0  0  0  0  0  0  0  0
  145.5510  155.8230  134.3610 O   0  0  0  0  0  0  0  0  0  0  0  0
  144.7880  158.7090  133.6290 C   0  0  0  0  0  0  0  0  0  0  0  0
  143.4680  158.2450  133.6330 C   0  0  0  0  0  0  0  0  0  0  0  0
  141.0294  158.8346  138.1019 H   0  0  0  0  0  0  0  0  0  0  0  0
  141.7513  160.0673  137.0128 H   0  0  0  0  0  0  0  0  0  0  0  0
  139.9752  159.7986  137.0128 H   0  0  0  0  0  0  0  0  0  0  0  0
  138.5460  157.5207  135.7489 H   0  0  0  0  0  0  0  0  0  0  0  0
  138.3620  158.3423  131.5754 H   0  0  0  0  0  0  0  0  0  0  0  0
  140.7344  159.1163  131.5791 H   0  0  0  0  0  0  0  0  0  0  0  0
  141.9161  161.3157  133.7713 H   0  0  0  0  0  0  0  0  0  0  0  0
  144.3105  162.0860  133.7280 H   0  0  0  0  0  0  0  0  0  0  0  0
  147.0026  161.1391  133.5909 H   0  0  0  0  0  0  0  0  0  0  0  0
  149.9860  157.5080  132.6130 H   0  0  0  0  0  0  0  0  0  0  0  0
  148.3640  157.1930  131.9140 H   0  0  0  0  0  0  0  0  0  0  0  0
  146.4950  156.3330  131.3660 H   0  0  0  0  0  0  0  0  0  0  0  0
  143.2499  157.1678  133.5874 H   0  0  0  0  0  0  0  0  0  0  0  0
  1  2  1  0
  2  3  1  0
  3  4  2  0
  4  5  1  0
  5  6  2  0
  6  7  1  0
  7  8  2  0
  8  9  1  0
  9 10  2  0
 10 11  1  0
 11 12  2  0
 12 13  1  0
 13 14  2  0
 14 15  1  0
 15 16  1  0
 15 17  2  0
 14 18  1  0
 18 19  1  0
 19 20  1  0
 19 21  2  0
 18 22  1  0
 22 23  2  0
  8  3  1  0
 23  9  1  0
 22 12  1  0
  1 24  1  0
  1 25  1  0
  1 26  1  0
  4 27  1  0
  6 28  1  0
  7 29  1  0
 10 30  1  0
 11 31  1  0
 13 32  1  0
 16 33  1  0
 16 34  1  0
 20 35  1  0
 23 36  1  0
M  CHG  1  20  -1
M  END
>  <UniqueID>  (25) 
25

>  <SMILES>  (25) 
COc1cnccc1-c1ccc2cc(C(N)=O)n(C([NH-])=O)c2c1

>  <Energy>  (25) 
83.91763416748275

>  <Genealogy>  (25) 
COc1cnccc1-c1ccc2cc(C(N)=O)n(C([NH-])=O)c2c1 (protonated)
COc1cnccc1-c1ccc2cc(C(N)=O)n(C([NH-])=O)c2c1 (3D coordinates assigned)
COc1cnccc1-c1ccc2cc(C(N)=O)n(C([NH-])=O)c2c1 (optimized conformer: 83.91763416748275 kcal/mol)

>  <smiles>  (25) 
COc1cnccc1-c1ccc2cc(C(N)=O)n(C(N)=O)c2c1

>  <score_type>  (25) 
oracle

>  <origin>  (25) 
adg

>  <m_score__min__energy>  (25) 
-7.3600000000000003

>  <m_primary>  (25) 
energy

$$$$
25:0
     RDKit          3D

 44 45  0  0  0  0  0  0  0  0999 V2000
  148.3210  160.4550  132.4400 C   0  0  0  0  0  0  0  0  0  0  0  0
  148.8650  159.0760  132.8360 C   0  0  0  0  0  0  0  0  0  0  0  0
  149.9590  158.6160  131.8660 C   0  0  0  0  0  0  0  0  0  0  0  0
  147.7480  158.0530  132.9230 C   0  0  0  0  0  0  0  0  0  0  0  0
  146.4170  158.4790  133.1740 C   0  0  0  0  0  0  0  0  0  0  0  0
  145.3700  157.5480  133.2740 C   0  0  0  0  0  0  0  0  0  0  0  0
  145.6770  156.2000  133.1100 C   0  0  0  0  0  0  0  0  0  0  0  0
  144.8640  155.0930  133.1890 C   0  0  0  0  0  0  0  0  0  0  0  0
  145.7020  154.0060  132.9540 C   0  0  0  0  0  0  0  0  0  0  0  0
  145.2240  152.6100  132.8860 C   0  0  0  0  0  0  0  0  0  0  0  0
  145.6430  151.7340  131.8390 N   0  0  0  0  0  0  0  0  0  0  0  0
  144.3890  152.2000  133.7360 O   0  0  0  0  0  0  0  0  0  0  0  0
  146.9840  154.4210  132.7520 N   0  0  0  0  0  0  0  0  0  0  0  0
  148.1540  153.6060  132.5840 C   0  0  0  0  0  0  0  0  0  0  0  0
  149.2960  154.1040  132.7740 O   0  0  0  0  0  0  0  0  0  0  0  0
  148.0090  152.2630  132.2030 O   0  0  0  0  0  0  0  0  0  0  0  0
  148.9190  151.1930  132.4900 C   0  0  0  0  0  0  0  0  0  0  0  0
  149.6210  151.4270  133.8410 C   0  0  0  0  0  0  0  0  0  0  0  0
  149.9760  151.1880  131.3760 C   0  0  0  0  0  0  0  0  0  0  0  0
  148.1830  149.8390  132.4860 C   0  0  0  0  0  0  0  0  0  0  0  0
  146.9510  155.7690  132.8480 C   0  0  0  0  0  0  0  0  0  0  0  0
  148.0180  156.6720  132.7680 C   0  0  0  0  0  0  0  0  0  0  0  0
  148.0928  161.0335  133.3473 H   0  0  0  0  0  0  0  0  0  0  0  0
  149.0756  160.9896  131.8444 H   0  0  0  0  0  0  0  0  0  0  0  0
  147.4046  160.3305  131.8444 H   0  0  0  0  0  0  0  0  0  0  0  0
  149.3168  159.1667  133.8348 H   0  0  0  0  0  0  0  0  0  0  0  0
  150.8257  158.2516  132.4369 H   0  0  0  0  0  0  0  0  0  0  0  0
  149.5701  157.8052  131.2325 H   0  0  0  0  0  0  0  0  0  0  0  0
  150.2663  159.4611  131.2325 H   0  0  0  0  0  0  0  0  0  0  0  0
  146.2031  159.5516  133.2916 H   0  0  0  0  0  0  0  0  0  0  0  0
  144.3390  157.8740  133.4757 H   0  0  0  0  0  0  0  0  0  0  0  0
  143.7835  155.0712  133.3939 H   0  0  0  0  0  0  0  0  0  0  0  0
  145.3290  150.7380  131.8320 H   0  0  0  0  0  0  0  0  0  0  0  0
  146.1930  152.0880  131.0250 H   0  0  0  0  0  0  0  0  0  0  0  0
  148.9252  151.1951  134.6608 H   0  0  0  0  0  0  0  0  0  0  0  0
  150.5036  150.7745  133.9135 H   0  0  0  0  0  0  0  0  0  0  0  0
  149.9355  152.4786  133.9135 H   0  0  0  0  0  0  0  0  0  0  0  0
  150.9807  151.1833  131.8239 H   0  0  0  0  0  0  0  0  0  0  0  0
  149.8480  150.2905  130.7531 H   0  0  0  0  0  0  0  0  0  0  0  0
  149.8565  152.0867  130.7531 H   0  0  0  0  0  0  0  0  0  0  0  0
  148.0066  149.5145  133.5221 H   0  0  0  0  0  0  0  0  0  0  0  0
  147.2194  149.9470  131.9665 H   0  0  0  0  0  0  0  0  0  0  0  0
  148.7976  149.0891  131.9665 H   0  0  0  0  0  0  0  0  0  0  0  0
  149.0433  156.3163  132.5887 H   0  0  0  0  0  0  0  0  0  0  0  0
  1  2  1  0
  2  3  1  0
  2  4  1  0
  4  5  2  0
  5  6  1  0
  6  7  2  0
  7  8  1  0
  8  9  2  0
  9 10  1  0
 10 11  1  0
 10 12  2  0
  9 13  1  0
 13 14  1  0
 14 15  2  0
 14 16  1  0
 16 17  1  0
 17 18  1  0
 17 19  1  0
 17 20  1  0
 13 21  1  0
 21 22  2  0
 22  4  1  0
 21  7  1  0
  1 23  1  0
  1 24  1  0
  1 25  1  0
  2 26  1  0
  3 27  1  0
  3 28  1  0
  3 29  1  0
  5 30  1  0
  6 31  1  0
  8 32  1  0
 11 33  1  0
 11 34  1  0
 18 35  1  0
 18 36  1  0
 18 37  1  0
 19 38  1  0
 19 39  1  0
 19 40  1  0
 20 41  1  0
 20 42  1  0
 20 43  1  0
 22 44  1  0
M  END
>  <UniqueID>  (26) 
26

>  <SMILES>  (26) 
CC(C)c1ccc2cc(C(N)=O)n(C(=O)OC(C)(C)C)c2c1

>  <Energy>  (26) 
73.88598448142139

>  <Genealogy>  (26) 
CC(C)c1ccc2cc(C(N)=O)n(C(=O)OC(C)(C)C)c2c1 (3D coordinates assigned)
CC(C)c1ccc2cc(C(N)=O)n(C(=O)OC(C)(C)C)c2c1 (optimized conformer: 73.88598448142139 kcal/mol)

>  <smiles>  (26) 
CC(C)c1ccc2cc(C(N)=O)n(C(=O)OC(C)(C)C)c2c1

>  <score_type>  (26) 
oracle

>  <origin>  (26) 
adg

>  <m_score__min__energy>  (26) 
-7.46

>  <m_primary>  (26) 
energy

$$$$
26:0
     RDKit          3D

 26 27  0  0  0  0  0  0  0  0999 V2000
  149.3500  162.0530  130.3340 C   0  0  0  0  0  0  0  0  0  0  0  0
  149.1150  160.7360  131.0100 C   0  0  0  0  0  0  0  0  0  0  0  0
  150.1680  159.7940  131.1120 C   0  0  0  0  0  0  0  0  0  0  0  0
  149.9750  158.5760  131.7860 C   0  0  0  0  0  0  0  0  0  0  0  0
  148.7260  158.3320  132.3480 C   0  0  0  0  0  0  0  0  0  0  0  0
  148.2820  157.2580  133.0840 C   0  0  0  0  0  0  0  0  0  0  0  0
  146.9620  157.5530  133.4080 C   0  0  0  0  0  0  0  0  0  0  0  0
  146.0800  156.6260  134.1440 C   0  0  0  0  0  0  0  0  0  0  0  0
  144.7280  156.4130  133.7400 N   0  0  0  0  0  0  0  0  0  0  0  0
  146.5450  155.9670  135.1120 O   0  0  0  0  0  0  0  0  0  0  0  0
  146.6030  158.7700  132.9080 N   0  0  0  0  0  0  0  0  0  0  0  0
  145.3720  159.4790  133.1300 C   0  0  0  0  0  0  0  0  0  0  0  0
  145.3830  160.7660  133.7460 N   0  0  0  0  0  0  0  0  0  0  0  0
  144.2740  158.9730  132.7720 O   0  0  0  0  0  0  0  0  0  0  0  0
  147.6940  159.2330  132.2570 C   0  0  0  0  0  0  0  0  0  0  0  0
  147.8660  160.4620  131.6080 C   0  0  0  0  0  0  0  0  0  0  0  0
  149.4897  162.8356  131.0943 H   0  0  0  0  0  0  0  0  0  0  0  0
  150.2506  161.9872  129.7058 H   0  0  0  0  0  0  0  0  0  0  0  0
  148.4822  162.3027  129.7058 H   0  0  0  0  0  0  0  0  0  0  0  0
  151.1454  160.0178  130.6597 H   0  0  0  0  0  0  0  0  0  0  0  0
  150.7868  157.8381  131.8667 H   0  0  0  0  0  0  0  0  0  0  0  0
  148.8504  156.3570  133.3581 H   0  0  0  0  0  0  0  0  0  0  0  0
  144.1080  155.7810  134.2930 H   0  0  0  0  0  0  0  0  0  0  0  0
  144.3620  156.8150  132.8480 H   0  0  0  0  0  0  0  0  0  0  0  0
  145.7100  161.6060  133.2220 H   0  0  0  0  0  0  0  0  0  0  0  0
  147.0478  161.1960  131.5653 H   0  0  0  0  0  0  0  0  0  0  0  0
  1  2  1  0
  2  3  2  0
  3  4  1  0
  4  5  2  0
  5  6  1  0
  6  7  2  0
  7  8  1  0
  8  9  1  0
  8 10  2  0
  7 11  1  0
 11 12  1  0
 12 13  1  0
 12 14  2  0
 11 15  1  0
 15 16  2  0
 16  2  1  0
 15  5  1  0
  1 17  1  0
  1 18  1  0
  1 19  1  0
  3 20  1  0
  4 21  1  0
  6 22  1  0
  9 23  1  0
  9 24  1  0
 13 25  1  0
 16 26  1  0
M  CHG  1  13  -1
M  END
>  <UniqueID>  (27) 
27

>  <SMILES>  (27) 
Cc1ccc2cc(C(N)=O)n(C([NH-])=O)c2c1

>  <Energy>  (27) 
65.30142774817865

>  <Genealogy>  (27) 
Cc1ccc2cc(C(N)=O)n(C([NH-])=O)c2c1 (protonated)
Cc1ccc2cc(C(N)=O)n(C([NH-])=O)c2c1 (3D coordinates assigned)
Cc1ccc2cc(C(N)=O)n(C([NH-])=O)c2c1 (optimized conformer: 65.30142774817865 kcal/mol)

>  <smiles>  (27) 
Cc1ccc2cc(C(N)=O)n(C(N)=O)c2c1

>  <score_type>  (27) 
oracle

>  <origin>  (27) 
adg

>  <m_score__min__energy>  (27) 
-6.1299999999999999

>  <m_primary>  (27) 
energy

$$$$
27:0
     RDKit          3D

 29 30  0  0  0  0  0  0  0  0999 V2000
  143.9790  163.7030  133.3950 C   0  0  0  0  0  0  0  0  0  0  0  0
  145.0550  162.9270  134.1470 C   0  0  0  0  0  0  0  0  0  0  0  0
  144.8660  161.4450  133.9650 C   0  0  0  0  0  0  0  0  0  0  0  0
  143.5750  160.8740  134.0890 C   0  0  0  0  0  0  0  0  0  0  0  0
  143.3890  159.4900  133.9400 C   0  0  0  0  0  0  0  0  0  0  0  0
  144.5090  158.7040  133.6870 C   0  0  0  0  0  0  0  0  0  0  0  0
  144.6080  157.3490  133.4740 C   0  0  0  0  0  0  0  0  0  0  0  0
  145.9630  157.1070  133.2650 C   0  0  0  0  0  0  0  0  0  0  0  0
  146.5230  155.7550  133.0650 C   0  0  0  0  0  0  0  0  0  0  0  0
  147.3680  155.4640  131.9500 N   0  0  0  0  0  0  0  0  0  0  0  0
  146.2980  154.8590  133.9210 O   0  0  0  0  0  0  0  0  0  0  0  0
  146.6760  158.2660  133.3310 N   0  0  0  0  0  0  0  0  0  0  0  0
  148.0740  158.4510  133.0530 C   0  0  0  0  0  0  0  0  0  0  0  0
  148.5980  158.1410  131.7630 N   0  0  0  0  0  0  0  0  0  0  0  0
  148.8450  158.8980  133.9430 O   0  0  0  0  0  0  0  0  0  0  0  0
  145.7700  159.2370  133.5940 C   0  0  0  0  0  0  0  0  0  0  0  0
  145.9820  160.6150  133.7180 C   0  0  0  0  0  0  0  0  0  0  0  0
  143.3055  164.1887  134.1164 H   0  0  0  0  0  0  0  0  0  0  0  0
  144.4531  164.4685  132.7631 H   0  0  0  0  0  0  0  0  0  0  0  0
  143.4023  163.0116  132.7631 H   0  0  0  0  0  0  0  0  0  0  0  0
  146.0441  163.2151  133.7615 H   0  0  0  0  0  0  0  0  0  0  0  0
  144.9794  163.1646  135.2184 H   0  0  0  0  0  0  0  0  0  0  0  0
  142.7112  161.5203  134.3038 H   0  0  0  0  0  0  0  0  0  0  0  0
  142.3881  159.0409  134.0209 H   0  0  0  0  0  0  0  0  0  0  0  0
  143.7905  156.6130  133.4697 H   0  0  0  0  0  0  0  0  0  0  0  0
  147.7050  156.2200  131.3170 H   0  0  0  0  0  0  0  0  0  0  0  0
  147.7250  154.4930  131.8040 H   0  0  0  0  0  0  0  0  0  0  0  0
  148.8060  157.1550  131.4910 H   0  0  0  0  0  0  0  0  0  0  0  0
  146.9920  161.0408  133.6255 H   0  0  0  0  0  0  0  0  0  0  0  0
  1  2  1  0
  2  3  1  0
  3  4  2  0
  4  5  1  0
  5  6  2  0
  6  7  1  0
  7  8  2  0
  8  9  1  0
  9 10  1  0
  9 11  2  0
  8 12  1  0
 12 13  1  0
 13 14  1  0
 13 15  2  0
 12 16  1  0
 16 17  2  0
 17  3  1  0
 16  6  1  0
  1 18  1  0
  1 19  1  0
  1 20  1  0
  2 21  1  0
  2 22  1  0
  4 23  1  0
  5 24  1  0
  7 25  1  0
 10 26  1  0
 10 27  1  0
 14 28  1  0
 17 29  1  0
M  CHG  1  14  -1
M  END
>  <UniqueID>  (28) 
28

>  <SMILES>  (28) 
CCc1ccc2cc(C(N)=O)n(C([NH-])=O)c2c1

>  <Energy>  (28) 
65.52040690388884

>  <Genealogy>  (28) 
CCc1ccc2cc(C(N)=O)n(C([NH-])=O)c2c1 (protonated)
CCc1ccc2cc(C(N)=O)n(C([NH-])=O)c2c1 (3D coordinates assigned)
CCc1ccc2cc(C(N)=O)n(C([NH-])=O)c2c1 (optimized conformer: 65.52040690388884 kcal/mol)

>  <smiles>  (28) 
CCc1ccc2cc(C(N)=O)n(C(N)=O)c2c1

>  <score_type>  (28) 
oracle

>  <origin>  (28) 
adg

>  <m_score__min__energy>  (28) 
-6.3200000000000003

>  <m_primary>  (28) 
energy

$$$$
28:0
     RDKit          3D

 37 39  0  0  0  0  0  0  0  0999 V2000
  138.6810  159.3340  130.7570 C   0  0  0  0  0  0  0  0  0  0  0  0
  138.3880  158.4630  131.8880 N   0  0  0  0  0  0  0  0  0  0  0  0
  139.2420  158.4060  133.0400 C   0  0  0  0  0  0  0  0  0  0  0  0
  138.7600  157.8890  134.2470 C   0  0  0  0  0  0  0  0  0  0  0  0
  139.6080  157.8290  135.3530 C   0  0  0  0  0  0  0  0  0  0  0  0
  140.9280  158.2850  135.2530 C   0  0  0  0  0  0  0  0  0  0  0  0
  141.7870  158.1760  136.3460 O   0  0  0  0  0  0  0  0  0  0  0  0
  141.3750  158.8250  134.0290 C   0  0  0  0  0  0  0  0  0  0  0  0
  142.7530  159.3360  133.8510 C   0  0  0  0  0  0  0  0  0  0  0  0
  143.0320  160.7260  133.9150 C   0  0  0  0  0  0  0  0  0  0  0  0
  144.3410  161.2050  133.7330 C   0  0  0  0  0  0  0  0  0  0  0  0
  145.3450  160.2780  133.4700 C   0  0  0  0  0  0  0  0  0  0  0  0
  146.6930  160.4660  133.2730 C   0  0  0  0  0  0  0  0  0  0  0  0
  147.2150  159.1930  133.0510 C   0  0  0  0  0  0  0  0  0  0  0  0
  148.6280  158.9450  132.7010 C   0  0  0  0  0  0  0  0  0  0  0  0
  148.9900  158.4730  131.4060 N   0  0  0  0  0  0  0  0  0  0  0  0
  149.5320  159.1980  133.5410 O   0  0  0  0  0  0  0  0  0  0  0  0
  146.2280  158.2540  133.1180 N   0  0  0  0  0  0  0  0  0  0  0  0
  146.3640  156.8270  133.0380 C   0  0  0  0  0  0  0  0  0  0  0  0
  147.3820  156.2450  132.2270 N   0  0  0  0  0  0  0  0  0  0  0  0
  145.6020  156.0800  133.7090 O   0  0  0  0  0  0  0  0  0  0  0  0
  145.0890  158.9360  133.3710 C   0  0  0  0  0  0  0  0  0  0  0  0
  143.7990  158.4290  133.5640 C   0  0  0  0  0  0  0  0  0  0  0  0
  140.5250  158.8540  132.9660 N   0  0  0  0  0  0  0  0  0  0  0  0
  139.0113  160.3160  131.1264 H   0  0  0  0  0  0  0  0  0  0  0  0
  139.4777  158.8854  130.1454 H   0  0  0  0  0  0  0  0  0  0  0  0
  137.7751  159.4581  130.1454 H   0  0  0  0  0  0  0  0  0  0  0  0
  137.5320  157.8640  131.8500 H   0  0  0  0  0  0  0  0  0  0  0  0
  137.7220  157.5331  134.3234 H   0  0  0  0  0  0  0  0  0  0  0  0
  139.2387  157.4224  136.3061 H   0  0  0  0  0  0  0  0  0  0  0  0
  142.7740  157.9820  136.2300 H   0  0  0  0  0  0  0  0  0  0  0  0
  142.2149  161.4364  134.1091 H   0  0  0  0  0  0  0  0  0  0  0  0
  144.5649  162.2801  133.7966 H   0  0  0  0  0  0  0  0  0  0  0  0
  147.2425  161.4188  133.2875 H   0  0  0  0  0  0  0  0  0  0  0  0
  148.8200  157.4790  131.1300 H   0  0  0  0  0  0  0  0  0  0  0  0
  147.7310  156.7330  131.3720 H   0  0  0  0  0  0  0  0  0  0  0  0
  143.6031  157.3488  133.4940 H   0  0  0  0  0  0  0  0  0  0  0  0
  1  2  1  0
  2  3  1  0
  3  4  2  0
  4  5  1  0
  5  6  2  0
  6  7  1  0
  6  8  1  0
  8  9  1  0
  9 10  2  0
 10 11  1  0
 11 12  2  0
 12 13  1  0
 13 14  2  0
 14 15  1  0
 15 16  1  0
 15 17  2  0
 14 18  1  0
 18 19  1  0
 19 20  1  0
 19 21  2  0
 18 22  1  0
 22 23  2  0
  8 24  2  0
 24  3  1  0
 23  9  1  0
 22 12  1  0
  1 25  1  0
  1 26  1  0
  1 27  1  0
  2 28  1  0
  4 29  1  0
  5 30  1  0
  7 31  1  0
 10 32  1  0
 11 33  1  0
 13 34  1  0
 16 35  1  0
 20 36  1  0
 23 37  1  0
M  CHG  2  16  -1  20  -1
M  END
>  <UniqueID>  (29) 
29

>  <SMILES>  (29) 
CNc1ccc(O)c(-c2ccc3cc(C([NH-])=O)n(C([NH-])=O)c3c2)n1

>  <Energy>  (29) 
81.87054247429563

>  <Genealogy>  (29) 
CNc1ccc(O)c(-c2ccc3cc(C([NH-])=O)n(C([NH-])=O)c3c2)n1 (protonated)
CNc1ccc(O)c(-c2ccc3cc(C([NH-])=O)n(C([NH-])=O)c3c2)n1 (3D coordinates assigned)
CNc1ccc(O)c(-c2ccc3cc(C([NH-])=O)n(C([NH-])=O)c3c2)n1 (optimized conformer: 81.87054247429563 kcal/mol)

>  <smiles>  (29) 
CNc1ccc(O)c(-c2ccc3cc(C(N)=O)n(C(N)=O)c3c2)n1

>  <score_type>  (29) 
oracle

>  <origin>  (29) 
adg

>  <m_score__min__energy>  (29) 
-7.4100000000000001

>  <m_primary>  (29) 
energy

$$$$
29:0
     RDKit          3D

 44 45  0  0  0  0  0  0  0  0999 V2000
  143.1940  155.3710  134.7030 C   0  0  0  0  0  0  0  0  0  0  0  0
  142.2450  156.0430  133.7640 C   0  0  0  0  0  0  0  0  0  0  0  0
  141.5340  155.3370  133.0000 O   0  0  0  0  0  0  0  0  0  0  0  0
  142.1480  157.4760  133.7060 N   0  0  0  0  0  0  0  0  0  0  0  0
  141.0130  158.2260  133.7860 C   0  0  0  0  0  0  0  0  0  0  0  0
  139.6310  157.7030  133.8130 C   0  0  0  0  0  0  0  0  0  0  0  0
  139.2140  156.6580  132.9330 N   0  0  0  0  0  0  0  0  0  0  0  0
  138.7900  158.2220  134.5950 O   0  0  0  0  0  0  0  0  0  0  0  0
  141.3220  159.5840  133.8150 C   0  0  0  0  0  0  0  0  0  0  0  0
  142.6940  159.6450  133.7440 C   0  0  0  0  0  0  0  0  0  0  0  0
  143.5420  160.7500  133.7480 C   0  0  0  0  0  0  0  0  0  0  0  0
  144.9250  160.5170  133.7020 C   0  0  0  0  0  0  0  0  0  0  0  0
  145.4350  159.1970  133.6710 C   0  0  0  0  0  0  0  0  0  0  0  0
  146.9190  158.9550  133.5760 C   0  0  0  0  0  0  0  0  0  0  0  0
  147.2500  157.7380  132.6830 C   0  0  1  0  0  0  0  0  0  0  0  0
  148.1050  158.0990  131.5310 N   0  0  0  0  0  0  0  0  0  0  0  0
  148.7070  159.4430  131.6500 C   0  0  0  0  0  0  0  0  0  0  0  0
  147.8610  160.4580  130.8730 C   0  0  0  0  0  0  0  0  0  0  0  0
  150.1420  159.4420  131.1040 C   0  0  0  0  0  0  0  0  0  0  0  0
  147.9670  156.7030  133.5010 C   0  0  0  0  0  0  0  0  0  0  0  0
  147.7850  156.6430  134.7450 O   0  0  0  0  0  0  0  0  0  0  0  0
  148.8590  155.8280  132.8940 O   0  0  0  0  0  0  0  0  0  0  0  0
  144.5450  158.1000  133.6750 C   0  0  0  0  0  0  0  0  0  0  0  0
  143.1700  158.3610  133.6880 C   0  0  0  0  0  0  0  0  0  0  0  0
  142.8951  155.5827  135.7402 H   0  0  0  0  0  0  0  0  0  0  0  0
  143.1737  154.2849  134.5299 H   0  0  0  0  0  0  0  0  0  0  0  0
  144.2117  155.7509  134.5299 H   0  0  0  0  0  0  0  0  0  0  0  0
  138.2490  156.2680  133.0070 H   0  0  0  0  0  0  0  0  0  0  0  0
  139.8220  156.3390  132.1470 H   0  0  0  0  0  0  0  0  0  0  0  0
  140.6188  160.4273  133.8807 H   0  0  0  0  0  0  0  0  0  0  0  0
  143.1401  161.7733  133.7860 H   0  0  0  0  0  0  0  0  0  0  0  0
  145.6203  161.3693  133.6899 H   0  0  0  0  0  0  0  0  0  0  0  0
  147.3983  159.8489  133.1503 H   0  0  0  0  0  0  0  0  0  0  0  0
  147.2952  158.7465  134.5884 H   0  0  0  0  0  0  0  0  0  0  0  0
  146.2971  157.3504  132.2934 H   0  0  0  0  0  0  0  0  0  0  0  0
  148.8400  157.3670  131.3850 H   0  0  0  0  0  0  0  0  0  0  0  0
  148.7349  159.7228  132.7134 H   0  0  0  0  0  0  0  0  0  0  0  0
  147.3220  161.1046  131.5811 H   0  0  0  0  0  0  0  0  0  0  0  0
  148.5168  161.0739  130.2401 H   0  0  0  0  0  0  0  0  0  0  0  0
  147.1370  159.9238  130.2401 H   0  0  0  0  0  0  0  0  0  0  0  0
  150.8535  159.4415  131.9429 H   0  0  0  0  0  0  0  0  0  0  0  0
  150.2997  158.5437  130.4890 H   0  0  0  0  0  0  0  0  0  0  0  0
  150.3009  160.3400  130.4890 H   0  0  0  0  0  0  0  0  0  0  0  0
  144.9230  157.0670  133.6681 H   0  0  0  0  0  0  0  0  0  0  0  0
  1  2  1  0
  2  3  2  0
  2  4  1  0
  4  5  1  0
  5  6  1  0
  6  7  1  0
  6  8  2  0
  5  9  2  0
  9 10  1  0
 10 11  2  0
 11 12  1  0
 12 13  2  0
 13 14  1  0
 14 15  1  0
 15 16  1  0
 16 17  1  0
 17 18  1  0
 17 19  1  0
 15 20  1  0
 20 21  2  0
 20 22  1  0
 13 23  1  0
 23 24  2  0
 24  4  1  0
 24 10  1  0
  1 25  1  0
  1 26  1  0
  1 27  1  0
  7 28  1  0
  7 29  1  0
  9 30  1  0
 11 31  1  0
 12 32  1  0
 14 33  1  0
 14 34  1  0
 15 35  1  6
 16 36  1  0
 17 37  1  0
 18 38  1  0
 18 39  1  0
 18 40  1  0
 19 41  1  0
 19 42  1  0
 19 43  1  0
 23 44  1  0
M  CHG  1  22  -1
M  END
>  <UniqueID>  (30) 
30

>  <SMILES>  (30) 
CC(=O)n1c(C(N)=O)cc2ccc(C[C@@H](NC(C)C)C(=O)[O-])cc21

>  <Energy>  (30) 
78.02411221304284

>  <Genealogy>  (30) 
CC(=O)n1c(C(N)=O)cc2ccc(CC(NC(C)C)C(=O)[O-])cc21 (protonated)
CC(=O)n1c(C(N)=O)cc2ccc(C[C@@H](NC(C)C)C(=O)[O-])cc21 (chirality)
CC(=O)n1c(C(N)=O)cc2ccc(C[C@@H](NC(C)C)C(=O)[O-])cc21 (3D coordinates assigned)
CC(=O)n1c(C(N)=O)cc2ccc(C[C@@H](NC(C)C)C(=O)[O-])cc21 (optimized conformer: 78.02411221304284 kcal/mol)

>  <smiles>  (30) 
CC(=O)n1c(C(N)=O)cc2ccc(CC(NC(C)C)C(=O)O)cc21

>  <score_type>  (30) 
oracle

>  <origin>  (30) 
adg

>  <m_score__min__energy>  (30) 
-7.6699999999999999

>  <m_primary>  (30) 
energy

$$$$
30:0
     RDKit          3D

 45 47  0  0  0  0  0  0  0  0999 V2000
  142.8850  155.1010  133.3470 C   0  0  0  0  0  0  0  0  0  0  0  0
  144.2830  155.1240  132.7420 C   0  0  0  0  0  0  0  0  0  0  0  0
  145.1590  155.9280  133.5290 O   0  0  0  0  0  0  0  0  0  0  0  0
  146.1230  156.7830  132.9820 C   0  0  0  0  0  0  0  0  0  0  0  0
  147.0600  156.3210  132.2760 O   0  0  0  0  0  0  0  0  0  0  0  0
  146.0230  158.1990  133.2030 N   0  0  0  0  0  0  0  0  0  0  0  0
  147.0330  159.1170  133.2130 C   0  0  0  0  0  0  0  0  0  0  0  0
  148.4780  158.8200  133.1240 C   0  0  0  0  0  0  0  0  0  0  0  0
  149.0330  158.3630  131.8930 N   0  0  0  0  0  0  0  0  0  0  0  0
  149.2350  158.9950  134.1140 O   0  0  0  0  0  0  0  0  0  0  0  0
  146.5230  160.3980  133.4060 C   0  0  0  0  0  0  0  0  0  0  0  0
  145.1610  160.2340  133.5220 C   0  0  0  0  0  0  0  0  0  0  0  0
  144.1640  161.1770  133.7230 C   0  0  0  0  0  0  0  0  0  0  0  0
  142.8340  160.7320  133.7840 C   0  0  0  0  0  0  0  0  0  0  0  0
  142.5010  159.3500  133.6310 C   0  0  0  0  0  0  0  0  0  0  0  0
  141.1120  158.8950  133.6850 N   0  0  0  0  0  0  0  0  0  0  0  0
  140.2860  158.9740  132.4590 C   0  0  0  0  0  0  0  0  0  0  0  0
  138.8230  158.5420  132.6320 C   0  0  0  0  0  0  0  0  0  0  0  0
  138.6570  157.4400  133.5860 N   0  0  0  0  0  0  0  0  0  0  0  0
  139.2620  156.1800  133.1190 C   0  0  0  0  0  0  0  0  0  0  0  0
  139.1400  157.8530  134.9070 C   0  0  0  0  0  0  0  0  0  0  0  0
  140.6280  158.2290  134.9150 C   0  0  0  0  0  0  0  0  0  0  0  0
  143.5690  158.4270  133.4310 C   0  0  0  0  0  0  0  0  0  0  0  0
  144.8850  158.9010  133.3960 C   0  0  0  0  0  0  0  0  0  0  0  0
  142.9603  155.1022  134.4444 H   0  0  0  0  0  0  0  0  0  0  0  0
  142.3279  155.9901  133.0167 H   0  0  0  0  0  0  0  0  0  0  0  0
  142.3574  154.1941  133.0167 H   0  0  0  0  0  0  0  0  0  0  0  0
  144.6753  154.0972  132.6999 H   0  0  0  0  0  0  0  0  0  0  0  0
  144.2238  155.5514  131.7302 H   0  0  0  0  0  0  0  0  0  0  0  0
  148.7150  157.4680  131.4600 H   0  0  0  0  0  0  0  0  0  0  0  0
  147.0880  161.3405  133.4553 H   0  0  0  0  0  0  0  0  0  0  0  0
  144.4087  162.2439  133.8316 H   0  0  0  0  0  0  0  0  0  0  0  0
  142.0298  161.4631  133.9533 H   0  0  0  0  0  0  0  0  0  0  0  0
  140.2945  160.0167  132.1087 H   0  0  0  0  0  0  0  0  0  0  0  0
  140.7317  158.2682  131.7426 H   0  0  0  0  0  0  0  0  0  0  0  0
  138.2431  159.4054  132.9902 H   0  0  0  0  0  0  0  0  0  0  0  0
  138.4687  158.1849  131.6537 H   0  0  0  0  0  0  0  0  0  0  0  0
  139.5548  155.5702  133.9865 H   0  0  0  0  0  0  0  0  0  0  0  0
  138.5317  155.6259  132.5110 H   0  0  0  0  0  0  0  0  0  0  0  0
  140.1510  156.4034  132.5110 H   0  0  0  0  0  0  0  0  0  0  0  0
  138.5568  158.7259  135.2355 H   0  0  0  0  0  0  0  0  0  0  0  0
  139.0155  156.9951  135.5841 H   0  0  0  0  0  0  0  0  0  0  0  0
  140.8037  158.9081  135.7623 H   0  0  0  0  0  0  0  0  0  0  0  0
  141.1836  157.2827  134.9909 H   0  0  0  0  0  0  0  0  0  0  0  0
  143.3608  157.3542  133.3056 H   0  0  0  0  0  0  0  0  0  0  0  0
  1  2  1  0
  2  3  1  0
  3  4  1  0
  4  5  2  0
  4  6  1  0
  6  7  1  0
  7  8  1  0
  8  9  1  0
  8 10  2  0
  7 11  2  0
 11 12  1  0
 12 13  2  0
 13 14  1  0
 14 15  2  0
 15 16  1  0
 16 17  1  0
 17 18  1  0
 18 19  1  0
 19 20  1  0
 19 21  1  0
 21 22  1  0
 15 23  1  0
 23 24  2  0
 24  6  1  0
 24 12  1  0
 22 16  1  0
  1 25  1  0
  1 26  1  0
  1 27  1  0
  2 28  1  0
  2 29  1  0
  9 30  1  0
 11 31  1  0
 13 32  1  0
 14 33  1  0
 17 34  1  0
 17 35  1  0
 18 36  1  0
 18 37  1  0
 20 38  1  0
 20 39  1  0
 20 40  1  0
 21 41  1  0
 21 42  1  0
 22 43  1  0
 22 44  1  0
 23 45  1  0
M  CHG  1   9  -1
M  END
>  <UniqueID>  (31) 
31

>  <SMILES>  (31) 
CCOC(=O)n1c(C([NH-])=O)cc2ccc(N3CCN(C)CC3)cc21

>  <Energy>  (31) 
91.53179328199577

>  <Genealogy>  (31) 
CCOC(=O)n1c(C([NH-])=O)cc2ccc(N3CCN(C)CC3)cc21 (protonated)
CCOC(=O)n1c(C([NH-])=O)cc2ccc(N3CCN(C)CC3)cc21 (3D coordinates assigned)
CCOC(=O)n1c(C([NH-])=O)cc2ccc(N3CCN(C)CC3)cc21 (nonaromatic ring conformer: 91.53179328199577 kcal/mol)

>  <smiles>  (31) 
CCOC(=O)n1c(C(N)=O)cc2ccc(N3CCN(C)CC3)cc21

>  <score_type>  (31) 
oracle

>  <origin>  (31) 
adg

>  <m_score__min__energy>  (31) 
-6.9500000000000002

>  <m_primary>  (31) 
energy

$$$$
31:0
     RDKit          3D

 41 43  0  0  0  0  0  0  0  0999 V2000
  149.5510  161.2210  130.5770 C   0  0  0  0  0  0  0  0  0  0  0  0
  148.2850  160.5460  131.0790 C   0  0  0  0  0  0  0  0  0  0  0  0
  148.0900  160.8680  132.4520 O   0  0  0  0  0  0  0  0  0  0  0  0
  147.8000  159.9060  133.4230 C   0  0  0  0  0  0  0  0  0  0  0  0
  148.6910  159.5340  134.2340 O   0  0  0  0  0  0  0  0  0  0  0  0
  146.4860  159.3240  133.4800 N   0  0  0  0  0  0  0  0  0  0  0  0
  145.3020  159.9580  133.7180 C   0  0  0  0  0  0  0  0  0  0  0  0
  145.1160  161.4220  133.8320 C   0  0  0  0  0  0  0  0  0  0  0  0
  146.2260  162.2790  134.1060 N   0  0  0  0  0  0  0  0  0  0  0  0
  143.9670  161.9240  133.7200 O   0  0  0  0  0  0  0  0  0  0  0  0
  144.2550  159.0380  133.7440 C   0  0  0  0  0  0  0  0  0  0  0  0
  144.8380  157.8150  133.5090 C   0  0  0  0  0  0  0  0  0  0  0  0
  144.2620  156.5490  133.4350 C   0  0  0  0  0  0  0  0  0  0  0  0
  145.1090  155.4520  133.2040 C   0  0  0  0  0  0  0  0  0  0  0  0
  146.5090  155.6350  133.0570 C   0  0  0  0  0  0  0  0  0  0  0  0
  147.3950  154.4660  132.8310 C   0  0  0  0  0  0  0  0  0  0  0  0
  148.7710  154.6600  132.6240 C   0  0  0  0  0  0  0  0  0  0  0  0
  149.6160  153.5690  132.4010 C   0  0  0  0  0  0  0  0  0  0  0  0
  149.1040  152.2630  132.3830 C   0  0  0  0  0  0  0  0  0  0  0  0
  150.0030  151.1120  132.1460 C   0  0  0  0  0  0  0  0  0  0  0  0
  150.7960  150.7220  133.0450 O   0  0  0  0  0  0  0  0  0  0  0  0
  149.9860  150.4430  130.9270 O   0  0  0  0  0  0  0  0  0  0  0  0
  147.7280  152.0670  132.5950 C   0  0  0  0  0  0  0  0  0  0  0  0
  146.8800  153.1560  132.8180 C   0  0  0  0  0  0  0  0  0  0  0  0
  145.5640  152.9230  133.0560 F   0  0  0  0  0  0  0  0  0  0  0  0
  147.0540  156.9360  133.1460 C   0  0  0  0  0  0  0  0  0  0  0  0
  146.1840  158.0130  133.3550 C   0  0  0  0  0  0  0  0  0  0  0  0
  150.1586  161.5450  131.4348 H   0  0  0  0  0  0  0  0  0  0  0  0
  150.1278  160.5107  129.9664 H   0  0  0  0  0  0  0  0  0  0  0  0
  149.2827  162.0958  129.9664 H   0  0  0  0  0  0  0  0  0  0  0  0
  147.4237  160.8995  130.4932 H   0  0  0  0  0  0  0  0  0  0  0  0
  148.3808  159.4559  130.9673 H   0  0  0  0  0  0  0  0  0  0  0  0
  146.0790  163.3060  134.2240 H   0  0  0  0  0  0  0  0  0  0  0  0
  147.2000  161.9060  134.1510 H   0  0  0  0  0  0  0  0  0  0  0  0
  143.1887  159.2462  133.9160 H   0  0  0  0  0  0  0  0  0  0  0  0
  143.1770  156.4122  133.5538 H   0  0  0  0  0  0  0  0  0  0  0  0
  144.6826  154.4403  133.1363 H   0  0  0  0  0  0  0  0  0  0  0  0
  149.1866  155.6784  132.6375 H   0  0  0  0  0  0  0  0  0  0  0  0
  150.6910  153.7358  132.2383 H   0  0  0  0  0  0  0  0  0  0  0  0
  147.3149  151.0476  132.5853 H   0  0  0  0  0  0  0  0  0  0  0  0
  148.1379  157.0989  133.0531 H   0  0  0  0  0  0  0  0  0  0  0  0
  1  2  1  0
  2  3  1  0
  3  4  1  0
  4  5  2  0
  4  6  1  0
  6  7  1  0
  7  8  1  0
  8  9  1  0
  8 10  2  0
  7 11  2  0
 11 12  1  0
 12 13  2  0
 13 14  1  0
 14 15  2  0
 15 16  1  0
 16 17  2  0
 17 18  1  0
 18 19  2  0
 19 20  1  0
 20 21  2  0
 20 22  1  0
 19 23  1  0
 23 24  2  0
 24 25  1  0
 15 26  1  0
 26 27  2  0
 27  6  1  0
 27 12  1  0
 24 16  1  0
  1 28  1  0
  1 29  1  0
  1 30  1  0
  2 31  1  0
  2 32  1  0
  9 33  1  0
  9 34  1  0
 11 35  1  0
 13 36  1  0
 14 37  1  0
 17 38  1  0
 18 39  1  0
 23 40  1  0
 26 41  1  0
M  CHG  1  22  -1
M  END
>  <UniqueID>  (32) 
32

>  <SMILES>  (32) 
CCOC(=O)n1c(C(N)=O)cc2ccc(-c3ccc(C(=O)[O-])cc3F)cc21

>  <Energy>  (32) 
83.70878806797862

>  <Genealogy>  (32) 
CCOC(=O)n1c(C(N)=O)cc2ccc(-c3ccc(C(=O)[O-])cc3F)cc21 (protonated)
CCOC(=O)n1c(C(N)=O)cc2ccc(-c3ccc(C(=O)[O-])cc3F)cc21 (3D coordinates assigned)
CCOC(=O)n1c(C(N)=O)cc2ccc(-c3ccc(C(=O)[O-])cc3F)cc21 (optimized conformer: 83.70878806797862 kcal/mol)

>  <smiles>  (32) 
CCOC(=O)n1c(C(N)=O)cc2ccc(-c3ccc(C(=O)O)cc3F)cc21

>  <score_type>  (32) 
oracle

>  <origin>  (32) 
adg

>  <m_score__min__energy>  (32) 
-8.0600000000000005

>  <m_primary>  (32) 
energy

$$$$
32:0
     RDKit          3D

 26 27  0  0  0  0  0  0  0  0999 V2000
  143.5910  156.3870  132.6100 C   0  0  0  0  0  0  0  0  0  0  0  0
  143.9030  157.1870  133.8350 C   0  0  0  0  0  0  0  0  0  0  0  0
  143.5710  156.7380  134.9650 O   0  0  0  0  0  0  0  0  0  0  0  0
  144.5640  158.4580  133.7380 N   0  0  0  0  0  0  0  0  0  0  0  0
  144.0090  159.6950  133.8870 C   0  0  0  0  0  0  0  0  0  0  0  0
  142.6210  159.9790  134.3110 C   0  0  0  0  0  0  0  0  0  0  0  0
  142.0460  159.3190  135.4360 N   0  0  0  0  0  0  0  0  0  0  0  0
  141.9440  160.8420  133.6910 O   0  0  0  0  0  0  0  0  0  0  0  0
  144.9560  160.6870  133.6400 C   0  0  0  0  0  0  0  0  0  0  0  0
  146.1170  160.0150  133.3330 C   0  0  0  0  0  0  0  0  0  0  0  0
  147.3720  160.5080  132.9860 C   0  0  0  0  0  0  0  0  0  0  0  0
  148.3830  159.5790  132.6850 C   0  0  0  0  0  0  0  0  0  0  0  0
  148.1200  158.1890  132.7280 C   0  0  0  0  0  0  0  0  0  0  0  0
  149.1540  157.2540  132.4060 N   0  0  0  0  0  0  0  0  0  0  0  0
  146.8360  157.7250  133.0820 C   0  0  0  0  0  0  0  0  0  0  0  0
  145.8530  158.6720  133.3960 C   0  0  0  0  0  0  0  0  0  0  0  0
  143.2060  155.3997  132.9050 H   0  0  0  0  0  0  0  0  0  0  0  0
  142.8321  156.9128  132.0121 H   0  0  0  0  0  0  0  0  0  0  0  0
  144.5056  156.2602  132.0121 H   0  0  0  0  0  0  0  0  0  0  0  0
  142.3600  158.3630  135.7170 H   0  0  0  0  0  0  0  0  0  0  0  0
  144.8071  161.7761  133.6816 H   0  0  0  0  0  0  0  0  0  0  0  0
  147.5662  161.5901  132.9486 H   0  0  0  0  0  0  0  0  0  0  0  0
  149.3876  159.9355  132.4136 H   0  0  0  0  0  0  0  0  0  0  0  0
  149.9630  157.1100  133.0490 H   0  0  0  0  0  0  0  0  0  0  0  0
  149.1170  156.7010  131.5200 H   0  0  0  0  0  0  0  0  0  0  0  0
  146.6126  156.6483  133.1107 H   0  0  0  0  0  0  0  0  0  0  0  0
  1  2  1  0
  2  3  2  0
  2  4  1  0
  4  5  1  0
  5  6  1  0
  6  7  1  0
  6  8  2  0
  5  9  2  0
  9 10  1  0
 10 11  2  0
 11 12  1  0
 12 13  2  0
 13 14  1  0
 13 15  1  0
 15 16  2  0
 16  4  1  0
 16 10  1  0
  1 17  1  0
  1 18  1  0
  1 19  1  0
  7 20  1  0
  9 21  1  0
 11 22  1  0
 12 23  1  0
 14 24  1  0
 14 25  1  0
 15 26  1  0
M  CHG  1   7  -1
M  END
>  <UniqueID>  (33) 
33

>  <SMILES>  (33) 
CC(=O)n1c(C([NH-])=O)cc2ccc(N)cc21

>  <Energy>  (33) 
64.34733278569404

>  <Genealogy>  (33) 
CC(=O)n1c(C([NH-])=O)cc2ccc(N)cc21 (protonated)
CC(=O)n1c(C([NH-])=O)cc2ccc(N)cc21 (3D coordinates assigned)
CC(=O)n1c(C([NH-])=O)cc2ccc(N)cc21 (optimized conformer: 64.34733278569404 kcal/mol)

>  <smiles>  (33) 
CC(=O)n1c(C(N)=O)cc2ccc(N)cc21

>  <score_type>  (33) 
oracle

>  <origin>  (33) 
adg

>  <m_score__min__energy>  (33) 
-5.7699999999999996

>  <m_primary>  (33) 
energy

$$$$
33:0
     RDKit          3D

 31 33  0  0  0  0  0  0  0  0999 V2000
  145.9410  163.1000  134.7680 N   0  0  0  0  0  0  0  0  0  0  0  0
  145.2190  162.0830  134.0780 C   0  0  0  0  0  0  0  0  0  0  0  0
  144.0530  162.3250  133.6680 O   0  0  0  0  0  0  0  0  0  0  0  0
  145.8400  160.7730  133.7880 C   0  0  0  0  0  0  0  0  0  0  0  0
  147.1860  160.6200  133.4670 C   0  0  0  0  0  0  0  0  0  0  0  0
  147.3840  159.2630  133.3620 C   0  0  0  0  0  0  0  0  0  0  0  0
  148.5360  158.5490  133.0480 C   0  0  0  0  0  0  0  0  0  0  0  0
  148.4470  157.1490  132.9790 C   0  0  0  0  0  0  0  0  0  0  0  0
  147.2140  156.4890  133.2170 C   0  0  0  0  0  0  0  0  0  0  0  0
  147.1230  155.0120  133.1210 C   0  0  0  0  0  0  0  0  0  0  0  0
  148.2930  154.2360  133.0840 C   0  0  0  0  0  0  0  0  0  0  0  0
  148.1990  152.8440  132.9990 C   0  0  0  0  0  0  0  0  0  0  0  0
  149.6600  151.8720  132.9610 Cl  0  0  0  0  0  0  0  0  0  0  0  0
  146.9790  152.2420  132.9470 N   0  0  0  0  0  0  0  0  0  0  0  0
  145.8290  152.9680  132.9740 C   0  0  0  0  0  0  0  0  0  0  0  0
  145.8770  154.3620  133.0610 C   0  0  0  0  0  0  0  0  0  0  0  0
  144.7170  155.0680  133.0470 F   0  0  0  0  0  0  0  0  0  0  0  0
  146.0630  157.2520  133.5270 C   0  0  0  0  0  0  0  0  0  0  0  0
  146.1870  158.6430  133.6090 C   0  0  0  0  0  0  0  0  0  0  0  0
  145.2250  159.5570  133.8710 N   0  0  0  0  0  0  0  0  0  0  0  0
  143.8330  159.2860  134.0930 C   0  0  0  0  0  0  0  0  0  0  0  0
  143.1780  158.6000  133.2650 O   0  0  0  0  0  0  0  0  0  0  0  0
  143.2000  159.7580  135.2360 O   0  0  0  0  0  0  0  0  0  0  0  0
  146.9850  163.0970  134.7890 H   0  0  0  0  0  0  0  0  0  0  0  0
  147.9327  161.4155  133.3270 H   0  0  0  0  0  0  0  0  0  0  0  0
  149.4886  159.0657  132.8593 H   0  0  0  0  0  0  0  0  0  0  0  0
  149.3429  156.5580  132.7379 H   0  0  0  0  0  0  0  0  0  0  0  0
  149.2793  154.7217  133.1218 H   0  0  0  0  0  0  0  0  0  0  0  0
  146.9200  151.2020  132.8820 H   0  0  0  0  0  0  0  0  0  0  0  0
  144.8568  152.4555  132.9271 H   0  0  0  0  0  0  0  0  0  0  0  0
  145.0932  156.7625  133.6995 H   0  0  0  0  0  0  0  0  0  0  0  0
  1  2  1  0
  2  3  2  0
  2  4  1  0
  4  5  2  0
  5  6  1  0
  6  7  2  0
  7  8  1  0
  8  9  2  0
  9 10  1  0
 10 11  2  0
 11 12  1  0
 12 13  1  0
 12 14  2  0
 14 15  1  0
 15 16  2  0
 16 17  1  0
  9 18  1  0
 18 19  2  0
 19 20  1  0
 20 21  1  0
 21 22  2  0
 21 23  1  0
 20  4  1  0
 19  6  1  0
 16 10  1  0
  1 24  1  0
  5 25  1  0
  7 26  1  0
  8 27  1  0
 11 28  1  0
 14 29  1  0
 15 30  1  0
 18 31  1  0
M  CHG  3   1  -1  14   1  23  -1
M  END
>  <UniqueID>  (34) 
34

>  <SMILES>  (34) 
[NH-]C(=O)c1cc2ccc(-c3cc(Cl)[nH+]cc3F)cc2n1C(=O)[O-]

>  <Energy>  (34) 
80.01763339667126

>  <Genealogy>  (34) 
[NH-]C(=O)c1cc2ccc(-c3cc(Cl)[nH+]cc3F)cc2n1C(=O)[O-] (protonated)
[NH-]C(=O)c1cc2ccc(-c3cc(Cl)[nH+]cc3F)cc2n1C(=O)[O-] (3D coordinates assigned)
[NH-]C(=O)c1cc2ccc(-c3cc(Cl)[nH+]cc3F)cc2n1C(=O)[O-] (optimized conformer: 80.01763339667126 kcal/mol)

>  <smiles>  (34) 
NC(=O)c1cc2ccc(-c3cc(Cl)ncc3F)cc2n1C(=O)O

>  <score_type>  (34) 
oracle

>  <origin>  (34) 
adg

>  <m_score__min__energy>  (34) 
-7.4500000000000002

>  <m_primary>  (34) 
energy

$$$$
34:0
     RDKit          3D

 37 39  0  0  0  0  0  0  0  0999 V2000
  141.8350  158.7420  135.6520 C   0  0  0  0  0  0  0  0  0  0  0  0
  142.1460  157.2750  135.3710 C   0  0  0  0  0  0  0  0  0  0  0  0
  143.4240  157.1390  134.7520 O   0  0  0  0  0  0  0  0  0  0  0  0
  143.7810  157.7940  133.5670 C   0  0  0  0  0  0  0  0  0  0  0  0
  142.9680  157.8590  132.6050 O   0  0  0  0  0  0  0  0  0  0  0  0
  145.0670  158.4260  133.4620 N   0  0  0  0  0  0  0  0  0  0  0  0
  145.3400  159.7610  133.4530 C   0  0  0  0  0  0  0  0  0  0  0  0
  144.3770  160.8460  133.7320 C   0  0  0  0  0  0  0  0  0  0  0  0
  143.0080  160.7260  133.3520 N   0  0  0  0  0  0  0  0  0  0  0  0
  144.7550  161.8710  134.3610 O   0  0  0  0  0  0  0  0  0  0  0  0
  146.6960  159.9820  133.2220 C   0  0  0  0  0  0  0  0  0  0  0  0
  147.2520  158.7300  133.0960 C   0  0  0  0  0  0  0  0  0  0  0  0
  148.5690  158.3590  132.8450 C   0  0  0  0  0  0  0  0  0  0  0  0
  148.8570  156.9890  132.7320 C   0  0  0  0  0  0  0  0  0  0  0  0
  147.8300  156.0160  132.8630 C   0  0  0  0  0  0  0  0  0  0  0  0
  148.1440  154.5700  132.7300 C   0  0  0  0  0  0  0  0  0  0  0  0
  149.4740  154.1290  132.6010 C   0  0  0  0  0  0  0  0  0  0  0  0
  149.7490  152.8030  132.4770 N   0  0  0  0  0  0  0  0  0  0  0  0
  148.7650  151.8650  132.4770 C   0  0  0  0  0  0  0  0  0  0  0  0
  147.4320  152.2520  132.6030 C   0  0  0  0  0  0  0  0  0  0  0  0
  146.4470  151.3210  132.6070 F   0  0  0  0  0  0  0  0  0  0  0  0
  147.1210  153.6080  132.7290 C   0  0  0  0  0  0  0  0  0  0  0  0
  146.5040  156.4380  133.1170 C   0  0  0  0  0  0  0  0  0  0  0  0
  146.2490  157.8080  133.2450 C   0  0  0  0  0  0  0  0  0  0  0  0
  141.7999  158.9077  136.7389 H   0  0  0  0  0  0  0  0  0  0  0  0
  142.6191  159.3742  135.2098 H   0  0  0  0  0  0  0  0  0  0  0  0
  140.8618  159.0017  135.2098 H   0  0  0  0  0  0  0  0  0  0  0  0
  142.1431  156.7174  136.3192 H   0  0  0  0  0  0  0  0  0  0  0  0
  141.3796  156.8756  134.6904 H   0  0  0  0  0  0  0  0  0  0  0  0
  142.7070  160.0210  132.6450 H   0  0  0  0  0  0  0  0  0  0  0  0
  147.2121  160.9511  133.1547 H   0  0  0  0  0  0  0  0  0  0  0  0
  149.3605  159.1154  132.7383 H   0  0  0  0  0  0  0  0  0  0  0  0
  149.8905  156.6653  132.5397 H   0  0  0  0  0  0  0  0  0  0  0  0
  150.2955  154.8606  132.6005 H   0  0  0  0  0  0  0  0  0  0  0  0
  149.0210  150.7999  132.3775 H   0  0  0  0  0  0  0  0  0  0  0  0
  146.0717  153.9231  132.8277 H   0  0  0  0  0  0  0  0  0  0  0  0
  145.6900  155.7043  133.2120 H   0  0  0  0  0  0  0  0  0  0  0  0
  1  2  1  0
  2  3  1  0
  3  4  1  0
  4  5  2  0
  4  6  1  0
  6  7  1  0
  7  8  1  0
  8  9  1  0
  8 10  2  0
  7 11  2  0
 11 12  1  0
 12 13  2  0
 13 14  1  0
 14 15  2  0
 15 16  1  0
 16 17  2  0
 17 18  1  0
 18 19  2  0
 19 20  1  0
 20 21  1  0
 20 22  2  0
 15 23  1  0
 23 24  2  0
 24  6  1  0
 24 12  1  0
 22 16  1  0
  1 25  1  0
  1 26  1  0
  1 27  1  0
  2 28  1  0
  2 29  1  0
  9 30  1  0
 11 31  1  0
 13 32  1  0
 14 33  1  0
 17 34  1  0
 19 35  1  0
 22 36  1  0
 23 37  1  0
M  CHG  1   9  -1
M  END
>  <UniqueID>  (35) 
35

>  <SMILES>  (35) 
CCOC(=O)n1c(C([NH-])=O)cc2ccc(-c3cncc(F)c3)cc21

>  <Energy>  (35) 
80.85663011979852

>  <Genealogy>  (35) 
CCOC(=O)n1c(C([NH-])=O)cc2ccc(-c3cncc(F)c3)cc21 (protonated)
CCOC(=O)n1c(C([NH-])=O)cc2ccc(-c3cncc(F)c3)cc21 (3D coordinates assigned)
CCOC(=O)n1c(C([NH-])=O)cc2ccc(-c3cncc(F)c3)cc21 (optimized conformer: 80.85663011979852 kcal/mol)

>  <smiles>  (35) 
CCOC(=O)n1c(C(N)=O)cc2ccc(-c3cncc(F)c3)cc21

>  <score_type>  (35) 
oracle

>  <origin>  (35) 
adg

>  <m_score__min__energy>  (35) 
-6.7800000000000002

>  <m_primary>  (35) 
energy

$$$$
35:0
     RDKit          3D

 32 33  0  0  0  0  0  0  0  0999 V2000
  145.6530  162.7640  134.4770 C   0  0  0  0  0  0  0  0  0  0  0  0
  144.7280  161.6530  134.0080 C   0  0  0  0  0  0  0  0  0  0  0  0
  145.3330  160.3900  134.2630 O   0  0  0  0  0  0  0  0  0  0  0  0
  145.3850  159.3700  133.3090 C   0  0  0  0  0  0  0  0  0  0  0  0
  144.3520  159.0570  132.6560 O   0  0  0  0  0  0  0  0  0  0  0  0
  146.6250  158.6850  133.0640 N   0  0  0  0  0  0  0  0  0  0  0  0
  147.0090  157.4710  133.5540 C   0  0  0  0  0  0  0  0  0  0  0  0
  146.1470  156.5380  134.3100 C   0  0  0  0  0  0  0  0  0  0  0  0
  144.7480  156.4500  134.0310 N   0  0  0  0  0  0  0  0  0  0  0  0
  146.6330  155.8330  135.2340 O   0  0  0  0  0  0  0  0  0  0  0  0
  148.3140  157.1780  133.1610 C   0  0  0  0  0  0  0  0  0  0  0  0
  148.7200  158.2560  132.4080 C   0  0  0  0  0  0  0  0  0  0  0  0
  149.9390  158.5010  131.7830 C   0  0  0  0  0  0  0  0  0  0  0  0
  150.0950  159.7170  131.0980 C   0  0  0  0  0  0  0  0  0  0  0  0
  149.0360  160.6550  131.0450 C   0  0  0  0  0  0  0  0  0  0  0  0
  149.2330  161.9720  130.3550 C   0  0  0  0  0  0  0  0  0  0  0  0
  147.8170  160.3800  131.7050 C   0  0  0  0  0  0  0  0  0  0  0  0
  147.6830  159.1530  132.3650 C   0  0  0  0  0  0  0  0  0  0  0  0
  145.6714  162.7861  135.5766 H   0  0  0  0  0  0  0  0  0  0  0  0
  146.6688  162.5803  134.0969 H   0  0  0  0  0  0  0  0  0  0  0  0
  145.2883  163.7297  134.0969 H   0  0  0  0  0  0  0  0  0  0  0  0
  143.7732  161.7180  134.5503 H   0  0  0  0  0  0  0  0  0  0  0  0
  144.5457  161.7600  132.9285 H   0  0  0  0  0  0  0  0  0  0  0  0
  144.3180  156.9790  133.2400 H   0  0  0  0  0  0  0  0  0  0  0  0
  144.1410  155.8160  134.5960 H   0  0  0  0  0  0  0  0  0  0  0  0
  148.8960  156.2761  133.4018 H   0  0  0  0  0  0  0  0  0  0  0  0
  150.7553  157.7648  131.8243 H   0  0  0  0  0  0  0  0  0  0  0  0
  151.0486  159.9426  130.5982 H   0  0  0  0  0  0  0  0  0  0  0  0
  149.3518  162.7658  131.1071 H   0  0  0  0  0  0  0  0  0  0  0  0
  150.1341  161.9252  129.7259 H   0  0  0  0  0  0  0  0  0  0  0  0
  148.3576  162.1909  129.7259 H   0  0  0  0  0  0  0  0  0  0  0  0
  146.9951  161.1110  131.7002 H   0  0  0  0  0  0  0  0  0  0  0  0
  1  2  1  0
  2  3  1  0
  3  4  1  0
  4  5  2  0
  4  6  1  0
  6  7  1  0
  7  8  1  0
  8  9  1  0
  8 10  2  0
  7 11  2  0
 11 12  1  0
 12 13  2  0
 13 14  1  0
 14 15  2  0
 15 16  1  0
 15 17  1  0
 17 18  2  0
 18  6  1  0
 18 12  1  0
  1 19  1  0
  1 20  1  0
  1 21  1  0
  2 22  1  0
  2 23  1  0
  9 24  1  0
  9 25  1  0
 11 26  1  0
 13 27  1  0
 14 28  1  0
 16 29  1  0
 16 30  1  0
 16 31  1  0
 17 32  1  0
M  END
>  <UniqueID>  (36) 
36

>  <SMILES>  (36) 
CCOC(=O)n1c(C(N)=O)cc2ccc(C)cc21

>  <Energy>  (36) 
64.90700507452743

>  <Genealogy>  (36) 
CCOC(=O)n1c(C(N)=O)cc2ccc(C)cc21 (3D coordinates assigned)
CCOC(=O)n1c(C(N)=O)cc2ccc(C)cc21 (optimized conformer: 64.90700507452743 kcal/mol)

>  <smiles>  (36) 
CCOC(=O)n1c(C(N)=O)cc2ccc(C)cc21

>  <score_type>  (36) 
oracle

>  <origin>  (36) 
adg

>  <m_score__min__energy>  (36) 
-6.0999999999999996

>  <m_primary>  (36) 
energy

$$$$
36:0
     RDKit          3D

 33 34  0  0  0  0  0  0  0  0999 V2000
  149.5310  161.7270  130.3380 C   0  0  0  0  0  0  0  0  0  0  0  0
  149.0530  160.3140  130.0420 C   0  0  0  0  0  0  0  0  0  0  0  0
  149.9900  159.3770  130.5610 O   0  0  0  0  0  0  0  0  0  0  0  0
  149.7940  158.7060  131.7710 C   0  0  0  0  0  0  0  0  0  0  0  0
  150.0450  157.4740  131.8740 O   0  0  0  0  0  0  0  0  0  0  0  0
  149.2350  159.4500  132.9410 C   0  0  0  0  0  0  0  0  0  0  0  0
  147.7680  159.1550  133.0810 C   0  0  0  0  0  0  0  0  0  0  0  0
  147.2920  157.8290  132.9270 C   0  0  0  0  0  0  0  0  0  0  0  0
  145.9270  157.5370  133.0780 C   0  0  0  0  0  0  0  0  0  0  0  0
  145.0670  158.5840  133.4000 C   0  0  0  0  0  0  0  0  0  0  0  0
  143.7050  158.5850  133.5840 C   0  0  0  0  0  0  0  0  0  0  0  0
  143.3720  159.9040  133.8850 C   0  0  0  0  0  0  0  0  0  0  0  0
  142.0050  160.3340  134.2440 C   0  0  0  0  0  0  0  0  0  0  0  0
  141.2930  161.2630  133.4310 N   0  0  0  0  0  0  0  0  0  0  0  0
  141.4790  159.9170  135.3100 O   0  0  0  0  0  0  0  0  0  0  0  0
  144.4850  160.6910  133.8780 N   0  0  0  0  0  0  0  0  0  0  0  0
  144.5530  162.1160  134.0440 C   0  0  0  0  0  0  0  0  0  0  0  0
  145.4280  162.6300  134.7920 O   0  0  0  0  0  0  0  0  0  0  0  0
  143.6710  162.9460  133.3610 O   0  0  0  0  0  0  0  0  0  0  0  0
  145.5160  159.8680  133.5830 C   0  0  0  0  0  0  0  0  0  0  0  0
  146.8690  160.1900  133.4180 C   0  0  0  0  0  0  0  0  0  0  0  0
  149.5816  161.8765  131.4266 H   0  0  0  0  0  0  0  0  0  0  0  0
  150.5294  161.8755  129.9007 H   0  0  0  0  0  0  0  0  0  0  0  0
  148.8278  162.4511  129.9007 H   0  0  0  0  0  0  0  0  0  0  0  0
  148.0728  160.1521  130.5143 H   0  0  0  0  0  0  0  0  0  0  0  0
  148.9631  160.1780  128.9542 H   0  0  0  0  0  0  0  0  0  0  0  0
  149.7589  159.1373  133.8563 H   0  0  0  0  0  0  0  0  0  0  0  0
  149.3740  160.5298  132.7836 H   0  0  0  0  0  0  0  0  0  0  0  0
  147.9987  157.0209  132.6869 H   0  0  0  0  0  0  0  0  0  0  0  0
  145.5485  156.5127  132.9460 H   0  0  0  0  0  0  0  0  0  0  0  0
  143.0221  157.7259  133.5094 H   0  0  0  0  0  0  0  0  0  0  0  0
  141.6060  162.2560  133.3500 H   0  0  0  0  0  0  0  0  0  0  0  0
  147.2224  161.2236  133.5478 H   0  0  0  0  0  0  0  0  0  0  0  0
  1  2  1  0
  2  3  1  0
  3  4  1  0
  4  5  2  0
  4  6  1  0
  6  7  1  0
  7  8  2  0
  8  9  1  0
  9 10  2  0
 10 11  1  0
 11 12  2  0
 12 13  1  0
 13 14  1  0
 13 15  2  0
 12 16  1  0
 16 17  1  0
 17 18  2  0
 17 19  1  0
 16 20  1  0
 20 21  2  0
 21  7  1  0
 20 10  1  0
  1 22  1  0
  1 23  1  0
  1 24  1  0
  2 25  1  0
  2 26  1  0
  6 27  1  0
  6 28  1  0
  8 29  1  0
  9 30  1  0
 11 31  1  0
 14 32  1  0
 21 33  1  0
M  CHG  2  14  -1  19  -1
M  END
>  <UniqueID>  (37) 
37

>  <SMILES>  (37) 
CCOC(=O)Cc1ccc2cc(C([NH-])=O)n(C(=O)[O-])c2c1

>  <Energy>  (37) 
66.0342433743974

>  <Genealogy>  (37) 
CCOC(=O)Cc1ccc2cc(C([NH-])=O)n(C(=O)[O-])c2c1 (protonated)
CCOC(=O)Cc1ccc2cc(C([NH-])=O)n(C(=O)[O-])c2c1 (3D coordinates assigned)
CCOC(=O)Cc1ccc2cc(C([NH-])=O)n(C(=O)[O-])c2c1 (optimized conformer: 66.0342433743974 kcal/mol)

>  <smiles>  (37) 
CCOC(=O)Cc1ccc2cc(C(N)=O)n(C(=O)O)c2c1

>  <score_type>  (37) 
oracle

>  <origin>  (37) 
adg

>  <m_score__min__energy>  (37) 
-6.4500000000000002

>  <m_primary>  (37) 
energy

$$$$
37:0
     RDKit          3D

 56 58  0  0  0  0  0  0  0  0999 V2000
  141.2870  158.9500  137.4290 C   0  0  0  0  0  0  0  0  0  0  0  0
  140.8050  159.2260  136.2120 C   0  0  0  0  0  0  0  0  0  0  0  0
  141.3910  158.6530  134.9310 C   0  0  0  0  0  0  0  0  0  0  0  0
  141.1290  157.1380  134.8170 C   0  0  0  0  0  0  0  0  0  0  0  0
  140.7610  159.3630  133.7280 C   0  0  0  0  0  0  0  0  0  0  0  0
  142.8030  158.9040  134.8870 O   0  0  0  0  0  0  0  0  0  0  0  0
  143.6100  158.7710  133.7590 C   0  0  0  0  0  0  0  0  0  0  0  0
  143.2210  158.0900  132.7750 O   0  0  0  0  0  0  0  0  0  0  0  0
  144.9140  159.3620  133.7340 N   0  0  0  0  0  0  0  0  0  0  0  0
  145.2430  160.6870  133.7220 C   0  0  0  0  0  0  0  0  0  0  0  0
  144.3030  161.8280  133.7900 C   0  0  0  0  0  0  0  0  0  0  0  0
  142.9000  161.6330  133.6800 N   0  0  0  0  0  0  0  0  0  0  0  0
  144.7440  162.9940  133.9580 O   0  0  0  0  0  0  0  0  0  0  0  0
  146.6170  160.8430  133.5520 C   0  0  0  0  0  0  0  0  0  0  0  0
  147.1240  159.5670  133.4560 C   0  0  0  0  0  0  0  0  0  0  0  0
  148.4310  159.1340  133.2650 C   0  0  0  0  0  0  0  0  0  0  0  0
  148.6630  157.7520  133.1960 C   0  0  0  0  0  0  0  0  0  0  0  0
  147.5920  156.8270  133.3190 C   0  0  0  0  0  0  0  0  0  0  0  0
  147.8450  155.4080  133.2630 N   0  0  0  0  0  0  0  0  0  0  0  0
  149.0710  154.9340  132.6110 C   0  0  0  0  0  0  0  0  0  0  0  0
  149.2130  153.4140  132.7370 C   0  0  0  0  0  0  0  0  0  0  0  0
  147.9240  152.7650  132.4220 N   0  0  0  0  0  0  0  0  0  0  0  0
  148.1190  151.2990  132.3090 C   0  0  0  0  0  0  0  0  0  0  0  0
  149.5960  150.8890  132.4000 C   0  0  0  0  0  0  0  0  0  0  0  0
  149.9750  150.7470  133.7250 F   0  0  0  0  0  0  0  0  0  0  0  0
  146.8840  153.1040  133.4330 C   0  0  0  0  0  0  0  0  0  0  0  0
  147.0660  154.4830  134.1000 C   0  0  0  0  0  0  0  0  0  0  0  0
  146.2770  157.3120  133.5090 C   0  0  0  0  0  0  0  0  0  0  0  0
  146.0770  158.6950  133.5660 C   0  0  0  0  0  0  0  0  0  0  0  0
  140.8198  159.3955  138.3196 H   0  0  0  0  0  0  0  0  0  0  0  0
  142.1505  158.2775  137.5391 H   0  0  0  0  0  0  0  0  0  0  0  0
  139.9407  159.9019  136.1339 H   0  0  0  0  0  0  0  0  0  0  0  0
  141.0536  156.7021  135.8241 H   0  0  0  0  0  0  0  0  0  0  0  0
  140.1882  156.9685  134.2728 H   0  0  0  0  0  0  0  0  0  0  0  0
  141.9582  156.6624  134.2728 H   0  0  0  0  0  0  0  0  0  0  0  0
  140.0699  160.1419  134.0826 H   0  0  0  0  0  0  0  0  0  0  0  0
  141.5522  159.8245  133.1189 H   0  0  0  0  0  0  0  0  0  0  0  0
  140.2086  158.6323  133.1189 H   0  0  0  0  0  0  0  0  0  0  0  0
  142.4060  160.9330  134.2740 H   0  0  0  0  0  0  0  0  0  0  0  0
  147.1787  161.7876  133.5045 H   0  0  0  0  0  0  0  0  0  0  0  0
  149.2582  159.8530  133.1708 H   0  0  0  0  0  0  0  0  0  0  0  0
  149.6871  157.3801  133.0448 H   0  0  0  0  0  0  0  0  0  0  0  0
  149.0381  155.2042  131.5452 H   0  0  0  0  0  0  0  0  0  0  0  0
  149.9331  155.4066  133.1044 H   0  0  0  0  0  0  0  0  0  0  0  0
  149.9820  153.0593  132.0350 H   0  0  0  0  0  0  0  0  0  0  0  0
  149.5065  153.1600  133.7662 H   0  0  0  0  0  0  0  0  0  0  0  0
  147.6070  153.1220  131.4850 H   0  0  0  0  0  0  0  0  0  0  0  0
  147.5663  150.8067  133.1228 H   0  0  0  0  0  0  0  0  0  0  0  0
  147.7486  150.9897  131.3205 H   0  0  0  0  0  0  0  0  0  0  0  0
  149.7398  149.9321  131.8769 H   0  0  0  0  0  0  0  0  0  0  0  0
  150.2136  151.6704  131.9330 H   0  0  0  0  0  0  0  0  0  0  0  0
  145.9032  153.0899  132.9351 H   0  0  0  0  0  0  0  0  0  0  0  0
  146.9704  152.3551  134.2340 H   0  0  0  0  0  0  0  0  0  0  0  0
  146.0739  154.9214  134.2831 H   0  0  0  0  0  0  0  0  0  0  0  0
  147.6177  154.3327  135.0397 H   0  0  0  0  0  0  0  0  0  0  0  0
  145.4304  156.6169  133.6097 H   0  0  0  0  0  0  0  0  0  0  0  0
  1  2  2  0
  2  3  1  0
  3  4  1  0
  3  5  1  0
  3  6  1  0
  6  7  1  0
  7  8  2  0
  7  9  1  0
  9 10  1  0
 10 11  1  0
 11 12  1  0
 11 13  2  0
 10 14  2  0
 14 15  1  0
 15 16  2  0
 16 17  1  0
 17 18  2  0
 18 19  1  0
 19 20  1  0
 20 21  1  0
 21 22  1  0
 22 23  1  0
 23 24  1  0
 24 25  1  0
 22 26  1  0
 26 27  1  0
 18 28  1  0
 28 29  2  0
 29  9  1  0
 29 15  1  0
 27 19  1  0
  1 30  1  0
  1 31  1  0
  2 32  1  0
  4 33  1  0
  4 34  1  0
  4 35  1  0
  5 36  1  0
  5 37  1  0
  5 38  1  0
 12 39  1  0
 14 40  1  0
 16 41  1  0
 17 42  1  0
 20 43  1  0
 20 44  1  0
 21 45  1  0
 21 46  1  0
 22 47  1  0
 23 48  1  0
 23 49  1  0
 24 50  1  0
 24 51  1  0
 26 52  1  0
 26 53  1  0
 27 54  1  0
 27 55  1  0
 28 56  1  0
M  CHG  2  12  -1  22   1
M  END
>  <UniqueID>  (38) 
38

>  <SMILES>  (38) 
C=CC(C)(C)OC(=O)n1c(C([NH-])=O)cc2ccc(N3CC[NH+](CCF)CC3)cc21

>  <Energy>  (38) 
102.53288401487262

>  <Genealogy>  (38) 
C=CC(C)(C)OC(=O)n1c(C([NH-])=O)cc2ccc(N3CC[NH+](CCF)CC3)cc21 (protonated)
C=CC(C)(C)OC(=O)n1c(C([NH-])=O)cc2ccc(N3CC[NH+](CCF)CC3)cc21 (3D coordinates assigned)
C=CC(C)(C)OC(=O)n1c(C([NH-])=O)cc2ccc(N3CC[NH+](CCF)CC3)cc21 (nonaromatic ring conformer: 102.53288401487262 kcal/mol)

>  <smiles>  (38) 
C=CC(C)(C)OC(=O)n1c(C(N)=O)cc2ccc(N3CCN(CCF)CC3)cc21

>  <score_type>  (38) 
oracle

>  <origin>  (38) 
adg

>  <m_score__min__energy>  (38) 
-7.96

>  <m_primary>  (38) 
energy

$$$$
38:0
     RDKit          3D

 64 67  0  0  0  0  0  0  0  0999 V2000
  149.6750  156.7050  133.1070 H   0  0  0  0  0  0  0  0  0  0  0  0
  149.6670  157.3080  132.2580 N   0  0  0  0  0  0  0  0  0  0  0  0
  149.1830  158.6460  132.3110 C   0  0  0  0  0  0  0  0  0  0  0  0
  149.9340  159.5960  131.9680 O   0  0  0  0  0  0  0  0  0  0  0  0
  147.7960  158.9100  132.7230 C   0  0  0  0  0  0  0  0  0  0  0  0
  147.1990  160.1610  132.6080 C   0  0  0  0  0  0  0  0  0  0  0  0
  147.6312  161.0697  132.1637 H   0  0  0  0  0  0  0  0  0  0  0  0
  145.9530  160.0170  133.1690 C   0  0  0  0  0  0  0  0  0  0  0  0
  144.9510  160.9690  133.3650 C   0  0  0  0  0  0  0  0  0  0  0  0
  145.0933  162.0151  133.0561 H   0  0  0  0  0  0  0  0  0  0  0  0
  143.7560  160.5480  133.9690 C   0  0  0  0  0  0  0  0  0  0  0  0
  142.9581  161.2789  134.1671 H   0  0  0  0  0  0  0  0  0  0  0  0
  143.5690  159.1920  134.3250 C   0  0  0  0  0  0  0  0  0  0  0  0
  142.2970  158.7510  134.9280 C   0  0  0  0  0  0  0  0  0  0  0  0
  141.9240  159.2140  136.2030 C   0  0  0  0  0  0  0  0  0  0  0  0
  142.5757  159.9132  136.7475 H   0  0  0  0  0  0  0  0  0  0  0  0
  140.7260  158.7850  136.7760 C   0  0  0  0  0  0  0  0  0  0  0  0
  140.4483  159.1238  137.7850 H   0  0  0  0  0  0  0  0  0  0  0  0
  139.8790  157.9270  136.0720 C   0  0  0  0  0  0  0  0  0  0  0  0
  138.9278  157.6089  136.5238 H   0  0  0  0  0  0  0  0  0  0  0  0
  140.2290  157.4670  134.7950 C   0  0  0  0  0  0  0  0  0  0  0  0
  139.2820  156.6570  134.0760 N   0  0  0  0  0  0  0  0  0  0  0  0
  139.2850  156.3840  132.6730 C   0  0  0  0  0  0  0  0  0  0  0  0
  139.4590  155.2100  132.2470 O   0  0  0  0  0  0  0  0  0  0  0  0
  139.0710  157.4420  131.7830 O   0  0  0  0  0  0  0  0  0  0  0  0
  138.5470  158.7100  132.1810 C   0  0  0  0  0  0  0  0  0  0  0  0
  138.3372  158.6600  133.2596 H   0  0  0  0  0  0  0  0  0  0  0  0
  137.2950  159.0270  131.3600 C   0  0  0  0  0  0  0  0  0  0  0  0
  136.9488  158.1239  130.8361 H   0  0  0  0  0  0  0  0  0  0  0  0
  136.4788  159.3756  132.0099 H   0  0  0  0  0  0  0  0  0  0  0  0
  137.6820  160.1050  130.3470 C   0  0  0  0  0  0  0  0  0  0  0  0
  137.4017  159.7906  129.3308 H   0  0  0  0  0  0  0  0  0  0  0  0
  137.1630  161.0524  130.5545 H   0  0  0  0  0  0  0  0  0  0  0  0
  139.1900  160.2680  130.4500 C   0  0  0  0  0  0  0  0  0  0  0  0
  139.6986  159.6378  129.7056 H   0  0  0  0  0  0  0  0  0  0  0  0
  139.5076  161.3032  130.2564 H   0  0  0  0  0  0  0  0  0  0  0  0
  139.5390  159.8190  131.8560 C   0  0  0  0  0  0  0  0  0  0  0  0
  140.5699  159.4372  131.8939 H   0  0  0  0  0  0  0  0  0  0  0  0
  139.4798  160.6470  132.5777 H   0  0  0  0  0  0  0  0  0  0  0  0
  141.4460  157.8820  134.2260 C   0  0  0  0  0  0  0  0  0  0  0  0
  141.7329  157.5243  133.2261 H   0  0  0  0  0  0  0  0  0  0  0  0
  144.6070  158.2550  134.1090 C   0  0  0  0  0  0  0  0  0  0  0  0
  144.4681  157.1925  134.3576 H   0  0  0  0  0  0  0  0  0  0  0  0
  145.8150  158.7140  133.5710 C   0  0  0  0  0  0  0  0  0  0  0  0
  146.9560  158.0200  133.3220 N   0  0  0  0  0  0  0  0  0  0  0  0
  147.2540  156.6480  133.6460 C   0  0  0  0  0  0  0  0  0  0  0  0
  148.0890  156.3820  134.5550 O   0  0  0  0  0  0  0  0  0  0  0  0
  146.5590  155.5240  132.9850 C   0  0  0  0  0  0  0  0  0  0  0  0
  147.3160  154.2890  132.6340 C   0  0  0  0  0  0  0  0  0  0  0  0
  146.7486  153.3810  132.3818 H   0  0  0  0  0  0  0  0  0  0  0  0
  148.6480  154.2320  132.6110 C   0  0  0  0  0  0  0  0  0  0  0  0
  149.1538  153.2923  132.3443 H   0  0  0  0  0  0  0  0  0  0  0  0
  149.2411  155.1247  132.8587 H   0  0  0  0  0  0  0  0  0  0  0  0
  145.2320  155.6480  132.7880 C   0  0  0  0  0  0  0  0  0  0  0  0
  144.7440  156.5595  133.1636 H   0  0  0  0  0  0  0  0  0  0  0  0
  144.3810  154.6460  132.1020 C   0  0  0  0  0  0  0  0  0  0  0  0
  144.7136  154.2672  131.1243 H   0  0  0  0  0  0  0  0  0  0  0  0
  143.2320  154.1750  132.6020 C   0  0  0  0  0  0  0  0  0  0  0  0
  142.6861  153.4263  132.0092 H   0  0  0  0  0  0  0  0  0  0  0  0
  142.6340  154.5960  133.9160 C   0  0  0  0  0  0  0  0  0  0  0  0
  143.1618  154.0852  134.7348 H   0  0  0  0  0  0  0  0  0  0  0  0
  142.7369  155.6860  134.0222 H   0  0  0  0  0  0  0  0  0  0  0  0
  141.2750  154.2610  133.9630 O   0  0  0  0  0  0  0  0  0  0  0  0
  140.7590  155.1070  133.8910 H   0  0  0  0  0  0  0  0  0  0  0  0
  1  2  1  0
  2  3  1  0
  3  4  2  0
  3  5  1  0
  5  6  2  0
  6  7  1  0
  6  8  1  0
  8  9  2  0
  9 10  1  0
  9 11  1  0
 11 12  1  0
 11 13  2  0
 13 14  1  0
 14 15  2  0
 15 16  1  0
 15 17  1  0
 17 18  1  0
 17 19  2  0
 19 20  1  0
 19 21  1  0
 21 22  1  0
 22 23  1  0
 23 24  2  0
 23 25  1  0
 25 26  1  0
 26 27  1  0
 26 28  1  0
 28 29  1  0
 28 30  1  0
 28 31  1  0
 31 32  1  0
 31 33  1  0
 31 34  1  0
 34 35  1  0
 34 36  1  0
 34 37  1  0
 37 38  1  0
 37 39  1  0
 21 40  2  0
 40 41  1  0
 13 42  1  0
 42 43  1  0
 42 44  2  0
 44 45  1  0
 45 46  1  0
 46 47  2  0
 46 48  1  0
 48 49  1  0
 49 50  1  0
 49 51  2  0
 51 52  1  0
 51 53  1  0
 48 54  2  0
 54 55  1  0
 54 56  1  0
 56 57  1  0
 56 58  2  0
 58 59  1  0
 58 60  1  0
 60 61  1  0
 60 62  1  0
 60 63  1  0
 63 64  1  0
 45  5  1  0
 44  8  1  0
 40 14  1  0
 37 26  1  0
M  CHG  2   2  -1  22  -1
M  END
>  <UniqueID>  (39) 
39

>  <SMILES>  (39) 
C=C/C(=C\C=C/CO)C(=O)n1c(C([NH-])=O)cc2ccc(-c3cccc([N-]C(=O)OC4CCCC4)c3)cc21

>  <Energy>  (39) 
123.09832155286563

>  <Genealogy>  (39) 
C=C/C(=C\C=C/CO)C(=O)n1c(C([NH-])=O)cc2ccc(-c3cccc([N-]C(=O)OC4CCCC4)c3)cc21 (protonated)
C=C/C(=C\C=C/CO)C(=O)n1c(C([NH-])=O)cc2ccc(-c3cccc([N-]C(=O)OC4CCCC4)c3)cc21 (cis-trans isomerization)
C=C/C(=C\C=C/CO)C(=O)n1c(C([NH-])=O)cc2ccc(-c3cccc([N-]C(=O)OC4CCCC4)c3)cc21 (3D coordinates assigned)
C=C/C(=C\C=C/CO)C(=O)n1c(C([NH-])=O)cc2ccc(-c3cccc([N-]C(=O)OC4CCCC4)c3)cc21 (nonaromatic ring conformer: 123.09832155286563 kcal/mol)

>  <smiles>  (39) 
C=C/C(=C\C=C/CO)C(=O)n1c(C(N)=O)cc2ccc(-c3cccc(NC(=O)OC4CCCC4)c3)cc21

>  <score_type>  (39) 
oracle

>  <origin>  (39) 
adg

>  <m_score__min__energy>  (39) 
-10.119999999999999

>  <m_primary>  (39) 
energy

$$$$
39:0
     RDKit          3D

 34 36  0  0  0  0  0  0  0  0999 V2000
  143.1010  161.2300  133.7280 N   0  0  0  0  0  0  0  0  0  0  0  0
  144.5130  161.4040  133.8130 C   0  0  0  0  0  0  0  0  0  0  0  0
  144.9770  162.5220  134.1670 O   0  0  0  0  0  0  0  0  0  0  0  0
  145.4350  160.2800  133.5520 C   0  0  0  0  0  0  0  0  0  0  0  0
  146.8040  160.4460  133.3510 C   0  0  0  0  0  0  0  0  0  0  0  0
  147.3120  159.1720  133.2320 C   0  0  0  0  0  0  0  0  0  0  0  0
  148.6170  158.7480  133.0100 C   0  0  0  0  0  0  0  0  0  0  0  0
  148.8520  157.3670  132.8990 C   0  0  0  0  0  0  0  0  0  0  0  0
  147.7850  156.4380  133.0040 C   0  0  0  0  0  0  0  0  0  0  0  0
  148.0420  154.9810  132.8730 C   0  0  0  0  0  0  0  0  0  0  0  0
  146.9950  154.0530  133.0220 C   0  0  0  0  0  0  0  0  0  0  0  0
  147.2390  152.6820  132.8980 C   0  0  0  0  0  0  0  0  0  0  0  0
  148.5360  152.2080  132.6420 C   0  0  0  0  0  0  0  0  0  0  0  0
  148.7880  150.7320  132.4590 C   0  0  0  0  0  0  0  0  0  0  0  0
  149.3550  150.1890  133.6000 F   0  0  0  0  0  0  0  0  0  0  0  0
  149.6520  150.5110  131.4000 F   0  0  0  0  0  0  0  0  0  0  0  0
  147.5900  150.0950  132.2040 F   0  0  0  0  0  0  0  0  0  0  0  0
  149.5770  153.1350  132.4660 C   0  0  0  0  0  0  0  0  0  0  0  0
  149.3340  154.5060  132.5900 C   0  0  0  0  0  0  0  0  0  0  0  0
  146.4710  156.9120  133.2310 C   0  0  0  0  0  0  0  0  0  0  0  0
  146.2690  158.2920  133.3560 C   0  0  0  0  0  0  0  0  0  0  0  0
  145.1080  158.9560  133.5490 N   0  0  0  0  0  0  0  0  0  0  0  0
  143.7990  158.3700  133.6400 C   0  0  0  0  0  0  0  0  0  0  0  0
  143.2760  157.8220  132.6340 O   0  0  0  0  0  0  0  0  0  0  0  0
  143.1090  158.3800  134.8450 O   0  0  0  0  0  0  0  0  0  0  0  0
  142.6640  160.2980  133.8970 H   0  0  0  0  0  0  0  0  0  0  0  0
  147.3604  161.3935  133.2986 H   0  0  0  0  0  0  0  0  0  0  0  0
  149.4409  159.4717  132.9238 H   0  0  0  0  0  0  0  0  0  0  0  0
  149.8756  157.0019  132.7287 H   0  0  0  0  0  0  0  0  0  0  0  0
  145.9767  154.4089  133.2377 H   0  0  0  0  0  0  0  0  0  0  0  0
  146.4082  151.9686  133.0018 H   0  0  0  0  0  0  0  0  0  0  0  0
  150.5906  152.7793  132.2289 H   0  0  0  0  0  0  0  0  0  0  0  0
  150.1617  155.2196  132.4649 H   0  0  0  0  0  0  0  0  0  0  0  0
  145.6264  156.2114  133.3076 H   0  0  0  0  0  0  0  0  0  0  0  0
  1  2  1  0
  2  3  2  0
  2  4  1  0
  4  5  2  0
  5  6  1  0
  6  7  2  0
  7  8  1  0
  8  9  2  0
  9 10  1  0
 10 11  2  0
 11 12  1  0
 12 13  2  0
 13 14  1  0
 14 15  1  0
 14 16  1  0
 14 17  1  0
 13 18  1  0
 18 19  2  0
  9 20  1  0
 20 21  2  0
 21 22  1  0
 22 23  1  0
 23 24  2  0
 23 25  1  0
 22  4  1  0
 21  6  1  0
 19 10  1  0
  1 26  1  0
  5 27  1  0
  7 28  1  0
  8 29  1  0
 11 30  1  0
 12 31  1  0
 18 32  1  0
 19 33  1  0
 20 34  1  0
M  CHG  2   1  -1  25  -1
M  END
>  <UniqueID>  (40) 
40

>  <SMILES>  (40) 
[NH-]C(=O)c1cc2ccc(-c3ccc(C(F)(F)F)cc3)cc2n1C(=O)[O-]

>  <Energy>  (40) 
82.60398760051226

>  <Genealogy>  (40) 
[NH-]C(=O)c1cc2ccc(-c3ccc(C(F)(F)F)cc3)cc2n1C(=O)[O-] (protonated)
[NH-]C(=O)c1cc2ccc(-c3ccc(C(F)(F)F)cc3)cc2n1C(=O)[O-] (3D coordinates assigned)
[NH-]C(=O)c1cc2ccc(-c3ccc(C(F)(F)F)cc3)cc2n1C(=O)[O-] (optimized conformer: 82.60398760051226 kcal/mol)

>  <smiles>  (40) 
NC(=O)c1cc2ccc(-c3ccc(C(F)(F)F)cc3)cc2n1C(=O)O

>  <score_type>  (40) 
oracle

>  <origin>  (40) 
adg

>  <m_score__min__energy>  (40) 
-7.4500000000000002

>  <m_primary>  (40) 
energy

$$$$
40:0
     RDKit          3D

 33 35  0  0  0  0  0  0  0  0999 V2000
  148.6840  158.7040  131.2510 N   0  0  0  0  0  0  0  0  0  0  0  0
  148.3150  158.8190  132.6230 C   0  0  0  0  0  0  0  0  0  0  0  0
  149.0880  159.4060  133.4270 O   0  0  0  0  0  0  0  0  0  0  0  0
  147.0740  158.2620  133.0930 N   0  0  0  0  0  0  0  0  0  0  0  0
  145.9380  158.9400  133.4200 C   0  0  0  0  0  0  0  0  0  0  0  0
  145.8000  160.4070  133.5100 C   0  0  0  0  0  0  0  0  0  0  0  0
  146.9350  161.2450  133.7350 N   0  0  0  0  0  0  0  0  0  0  0  0
  144.6540  160.9260  133.4400 O   0  0  0  0  0  0  0  0  0  0  0  0
  144.9030  158.0550  133.7080 C   0  0  0  0  0  0  0  0  0  0  0  0
  145.4470  156.8000  133.5590 C   0  0  0  0  0  0  0  0  0  0  0  0
  144.8570  155.5490  133.7060 C   0  0  0  0  0  0  0  0  0  0  0  0
  145.6420  154.4150  133.4460 C   0  0  0  0  0  0  0  0  0  0  0  0
  146.9940  154.5460  133.0330 C   0  0  0  0  0  0  0  0  0  0  0  0
  147.8100  153.3390  132.7460 C   0  0  0  0  0  0  0  0  0  0  0  0
  147.1910  152.0920  132.5330 C   0  0  0  0  0  0  0  0  0  0  0  0
  147.9620  150.9560  132.2630 C   0  0  0  0  0  0  0  0  0  0  0  0
  149.3540  151.0510  132.2020 C   0  0  0  0  0  0  0  0  0  0  0  0
  150.0990  149.9480  131.9410 F   0  0  0  0  0  0  0  0  0  0  0  0
  149.9790  152.2830  132.4120 C   0  0  0  0  0  0  0  0  0  0  0  0
  149.2140  153.4210  132.6820 C   0  0  0  0  0  0  0  0  0  0  0  0
  147.5560  155.8370  132.8930 C   0  0  0  0  0  0  0  0  0  0  0  0
  146.7570  156.9510  133.1820 C   0  0  0  0  0  0  0  0  0  0  0  0
  148.7970  157.7670  130.8030 H   0  0  0  0  0  0  0  0  0  0  0  0
  146.8240  162.2830  133.7530 H   0  0  0  0  0  0  0  0  0  0  0  0
  147.8670  160.8400  133.9730 H   0  0  0  0  0  0  0  0  0  0  0  0
  143.8707  158.3054  133.9937 H   0  0  0  0  0  0  0  0  0  0  0  0
  143.8063  155.4513  134.0168 H   0  0  0  0  0  0  0  0  0  0  0  0
  145.2045  153.4126  133.5636 H   0  0  0  0  0  0  0  0  0  0  0  0
  146.0950  152.0106  132.5792 H   0  0  0  0  0  0  0  0  0  0  0  0
  147.4705  149.9858  132.0984 H   0  0  0  0  0  0  0  0  0  0  0  0
  151.0755  152.3573  132.3647 H   0  0  0  0  0  0  0  0  0  0  0  0
  149.7125  154.3878  132.8457 H   0  0  0  0  0  0  0  0  0  0  0  0
  148.5981  155.9633  132.5642 H   0  0  0  0  0  0  0  0  0  0  0  0
  1  2  1  0
  2  3  2  0
  2  4  1  0
  4  5  1  0
  5  6  1  0
  6  7  1  0
  6  8  2  0
  5  9  2  0
  9 10  1  0
 10 11  2  0
 11 12  1  0
 12 13  2  0
 13 14  1  0
 14 15  2  0
 15 16  1  0
 16 17  2  0
 17 18  1  0
 17 19  1  0
 19 20  2  0
 13 21  1  0
 21 22  2  0
 22  4  1  0
 22 10  1  0
 20 14  1  0
  1 23  1  0
  7 24  1  0
  7 25  1  0
  9 26  1  0
 11 27  1  0
 12 28  1  0
 15 29  1  0
 16 30  1  0
 19 31  1  0
 20 32  1  0
 21 33  1  0
M  CHG  1   1  -1
M  END
>  <UniqueID>  (41) 
41

>  <SMILES>  (41) 
[NH-]C(=O)n1c(C(N)=O)cc2ccc(-c3ccc(F)cc3)cc21

>  <Energy>  (41) 
80.8620010448505

>  <Genealogy>  (41) 
[NH-]C(=O)n1c(C(N)=O)cc2ccc(-c3ccc(F)cc3)cc21 (protonated)
[NH-]C(=O)n1c(C(N)=O)cc2ccc(-c3ccc(F)cc3)cc21 (3D coordinates assigned)
[NH-]C(=O)n1c(C(N)=O)cc2ccc(-c3ccc(F)cc3)cc21 (optimized conformer: 80.8620010448505 kcal/mol)

>  <smiles>  (41) 
NC(=O)c1cc2ccc(-c3ccc(F)cc3)cc2n1C(N)=O

>  <score_type>  (41) 
oracle

>  <origin>  (41) 
adg

>  <m_score__min__energy>  (41) 
-7.6100000000000003

>  <m_primary>  (41) 
energy

$$$$
41:0
     RDKit          3D

 45 47  0  0  0  0  0  0  0  0999 V2000
  149.1870  152.8630  132.3980 C   0  0  0  0  0  0  0  0  0  0  0  0
  148.9680  154.3580  132.6080 C   0  0  0  0  0  0  0  0  0  0  0  0
  147.6990  154.6250  133.4130 C   0  0  0  0  0  0  0  0  0  0  0  0
  147.5080  156.0300  133.5380 O   0  0  0  0  0  0  0  0  0  0  0  0
  146.3640  156.6830  133.0720 C   0  0  0  0  0  0  0  0  0  0  0  0
  145.3880  156.0160  132.6300 O   0  0  0  0  0  0  0  0  0  0  0  0
  146.3040  158.1200  133.0900 N   0  0  0  0  0  0  0  0  0  0  0  0
  147.3320  158.9960  132.9020 C   0  0  0  0  0  0  0  0  0  0  0  0
  148.7010  158.6450  132.4730 C   0  0  0  0  0  0  0  0  0  0  0  0
  148.9840  157.3860  131.8610 N   0  0  0  0  0  0  0  0  0  0  0  0
  149.6240  159.4930  132.5950 O   0  0  0  0  0  0  0  0  0  0  0  0
  146.9100  160.3040  133.1190 C   0  0  0  0  0  0  0  0  0  0  0  0
  145.5750  160.2070  133.4350 C   0  0  0  0  0  0  0  0  0  0  0  0
  144.6560  161.2030  133.7520 C   0  0  0  0  0  0  0  0  0  0  0  0
  143.3440  160.8140  134.0690 C   0  0  0  0  0  0  0  0  0  0  0  0
  142.9770  159.4440  134.0800 C   0  0  0  0  0  0  0  0  0  0  0  0
  141.6300  159.0520  134.4040 N   0  0  0  0  0  0  0  0  0  0  0  0
  141.0650  159.3350  135.7310 C   0  0  0  0  0  0  0  0  0  0  0  0
  140.1970  158.1520  136.2240 C   0  0  0  0  0  0  0  0  0  0  0  0
  139.9220  157.1840  135.2240 O   0  0  0  0  0  0  0  0  0  0  0  0
  139.5390  157.8160  134.0200 C   0  0  0  0  0  0  0  0  0  0  0  0
  140.7680  158.4620  133.3740 C   0  0  0  0  0  0  0  0  0  0  0  0
  143.9390  158.4620  133.7480 C   0  0  0  0  0  0  0  0  0  0  0  0
  145.2330  158.8780  133.4140 C   0  0  0  0  0  0  0  0  0  0  0  0
  149.2603  152.3624  133.3747 H   0  0  0  0  0  0  0  0  0  0  0  0
  148.3406  152.4441  131.8339 H   0  0  0  0  0  0  0  0  0  0  0  0
  150.1179  152.7045  131.8339 H   0  0  0  0  0  0  0  0  0  0  0  0
  149.8302  154.7738  133.1499 H   0  0  0  0  0  0  0  0  0  0  0  0
  148.8608  154.8350  131.6226 H   0  0  0  0  0  0  0  0  0  0  0  0
  146.8355  154.1814  132.8956 H   0  0  0  0  0  0  0  0  0  0  0  0
  147.7954  154.1759  134.4125 H   0  0  0  0  0  0  0  0  0  0  0  0
  148.2170  156.7320  131.5920 H   0  0  0  0  0  0  0  0  0  0  0  0
  149.9640  157.1390  131.6000 H   0  0  0  0  0  0  0  0  0  0  0  0
  147.5151  161.2202  133.0521 H   0  0  0  0  0  0  0  0  0  0  0  0
  144.9484  162.2634  133.7542 H   0  0  0  0  0  0  0  0  0  0  0  0
  142.5930  161.5803  134.3114 H   0  0  0  0  0  0  0  0  0  0  0  0
  141.8858  159.5015  136.4441 H   0  0  0  0  0  0  0  0  0  0  0  0
  140.4310  160.2311  135.6599 H   0  0  0  0  0  0  0  0  0  0  0  0
  140.7262  157.6552  137.0505 H   0  0  0  0  0  0  0  0  0  0  0  0
  139.2296  158.5737  136.5343 H   0  0  0  0  0  0  0  0  0  0  0  0
  139.1122  157.0702  133.3332 H   0  0  0  0  0  0  0  0  0  0  0  0
  138.7858  158.5888  134.2330 H   0  0  0  0  0  0  0  0  0  0  0  0
  141.3331  157.6965  132.8220 H   0  0  0  0  0  0  0  0  0  0  0  0
  140.4375  159.2538  132.6856 H   0  0  0  0  0  0  0  0  0  0  0  0
  143.6759  157.3939  133.7522 H   0  0  0  0  0  0  0  0  0  0  0  0
  1  2  1  0
  2  3  1  0
  3  4  1  0
  4  5  1  0
  5  6  2  0
  5  7  1  0
  7  8  1  0
  8  9  1  0
  9 10  1  0
  9 11  2  0
  8 12  2  0
 12 13  1  0
 13 14  2  0
 14 15  1  0
 15 16  2  0
 16 17  1  0
 17 18  1  0
 18 19  1  0
 19 20  1  0
 20 21  1  0
 21 22  1  0
 16 23  1  0
 23 24  2  0
 24  7  1  0
 24 13  1  0
 22 17  1  0
  1 25  1  0
  1 26  1  0
  1 27  1  0
  2 28  1  0
  2 29  1  0
  3 30  1  0
  3 31  1  0
 10 32  1  0
 10 33  1  0
 12 34  1  0
 14 35  1  0
 15 36  1  0
 18 37  1  0
 18 38  1  0
 19 39  1  0
 19 40  1  0
 21 41  1  0
 21 42  1  0
 22 43  1  0
 22 44  1  0
 23 45  1  0
M  END
>  <UniqueID>  (42) 
42

>  <SMILES>  (42) 
CCCOC(=O)n1c(C(N)=O)cc2ccc(N3CCOCC3)cc21

>  <Energy>  (42) 
88.71571266813633

>  <Genealogy>  (42) 
CCCOC(=O)n1c(C(N)=O)cc2ccc(N3CCOCC3)cc21 (3D coordinates assigned)
CCCOC(=O)n1c(C(N)=O)cc2ccc(N3CCOCC3)cc21 (nonaromatic ring conformer: 88.71571266813633 kcal/mol)

>  <smiles>  (42) 
CCCOC(=O)n1c(C(N)=O)cc2ccc(N3CCOCC3)cc21

>  <score_type>  (42) 
oracle

>  <origin>  (42) 
adg

>  <m_score__min__energy>  (42) 
-7.29

>  <m_primary>  (42) 
energy

$$$$
42:0
     RDKit          3D

 28 30  0  0  0  0  0  0  0  0999 V2000
  145.0630  162.6810  134.1000 N   0  0  0  0  0  0  0  0  0  0  0  0
  144.5460  161.3870  133.7960 C   0  0  0  0  0  0  0  0  0  0  0  0
  143.3060  161.2440  133.6260 O   0  0  0  0  0  0  0  0  0  0  0  0
  145.4690  160.2430  133.6430 C   0  0  0  0  0  0  0  0  0  0  0  0
  146.8450  160.3850  133.4750 C   0  0  0  0  0  0  0  0  0  0  0  0
  147.3230  159.1110  133.2830 C   0  0  0  0  0  0  0  0  0  0  0  0
  148.6240  158.6670  133.0750 C   0  0  0  0  0  0  0  0  0  0  0  0
  148.8360  157.2860  132.9350 C   0  0  0  0  0  0  0  0  0  0  0  0
  147.7520  156.3700  133.0150 C   0  0  0  0  0  0  0  0  0  0  0  0
  147.9790  154.9070  132.8780 C   0  0  0  0  0  0  0  0  0  0  0  0
  147.0200  153.8970  132.9840 C   0  0  0  0  0  0  0  0  0  0  0  0
  147.5380  152.6080  132.8070 C   0  0  0  0  0  0  0  0  0  0  0  0
  148.9000  152.5960  132.5610 C   0  0  0  0  0  0  0  0  0  0  0  0
  149.8790  151.1710  132.2870 Cl  0  0  0  0  0  0  0  0  0  0  0  0
  149.4680  154.1740  132.5600 S   0  0  0  0  0  0  0  0  0  0  0  0
  146.4430  156.8670  133.2260 C   0  0  0  0  0  0  0  0  0  0  0  0
  146.2600  158.2500  133.3430 C   0  0  0  0  0  0  0  0  0  0  0  0
  145.1130  158.9290  133.5660 N   0  0  0  0  0  0  0  0  0  0  0  0
  143.8070  158.3560  133.7460 C   0  0  0  0  0  0  0  0  0  0  0  0
  143.2710  158.3380  134.8850 O   0  0  0  0  0  0  0  0  0  0  0  0
  143.1320  157.7950  132.6690 O   0  0  0  0  0  0  0  0  0  0  0  0
  145.9690  163.0050  133.6970 H   0  0  0  0  0  0  0  0  0  0  0  0
  147.4256  161.3191  133.4924 H   0  0  0  0  0  0  0  0  0  0  0  0
  149.4627  159.3768  133.0217 H   0  0  0  0  0  0  0  0  0  0  0  0
  149.8543  156.9080  132.7611 H   0  0  0  0  0  0  0  0  0  0  0  0
  145.9574  154.0955  133.1874 H   0  0  0  0  0  0  0  0  0  0  0  0
  146.9241  151.6967  132.8583 H   0  0  0  0  0  0  0  0  0  0  0  0
  145.5868  156.1800  133.2966 H   0  0  0  0  0  0  0  0  0  0  0  0
  1  2  1  0
  2  3  2  0
  2  4  1  0
  4  5  2  0
  5  6  1  0
  6  7  2  0
  7  8  1  0
  8  9  2  0
  9 10  1  0
 10 11  2  0
 11 12  1  0
 12 13  2  0
 13 14  1  0
 13 15  1  0
  9 16  1  0
 16 17  2  0
 17 18  1  0
 18 19  1  0
 19 20  2  0
 19 21  1  0
 18  4  1  0
 17  6  1  0
 15 10  1  0
  1 22  1  0
  5 23  1  0
  7 24  1  0
  8 25  1  0
 11 26  1  0
 12 27  1  0
 16 28  1  0
M  CHG  2   1  -1  21  -1
M  END
>  <UniqueID>  (43) 
43

>  <SMILES>  (43) 
[NH-]C(=O)c1cc2ccc(-c3ccc(Cl)s3)cc2n1C(=O)[O-]

>  <Energy>  (43) 
99.01806349963708

>  <Genealogy>  (43) 
[NH-]C(=O)c1cc2ccc(-c3ccc(Cl)s3)cc2n1C(=O)[O-] (protonated)
[NH-]C(=O)c1cc2ccc(-c3ccc(Cl)s3)cc2n1C(=O)[O-] (3D coordinates assigned)
[NH-]C(=O)c1cc2ccc(-c3ccc(Cl)s3)cc2n1C(=O)[O-] (optimized conformer: 99.01806349963708 kcal/mol)

>  <smiles>  (43) 
NC(=O)c1cc2ccc(-c3ccc(Cl)s3)cc2n1C(=O)O

>  <score_type>  (43) 
oracle

>  <origin>  (43) 
adg

>  <m_score__min__energy>  (43) 
-7.4800000000000004

>  <m_primary>  (43) 
energy

$$$$
43:0
     RDKit          3D

 34 36  0  0  0  0  0  0  0  0999 V2000
  147.5980  156.7380  134.5590 C   0  0  0  0  0  0  0  0  0  0  0  0
  148.0010  157.6970  133.4830 C   0  0  0  0  0  0  0  0  0  0  0  0
  149.1940  157.6720  132.8620 N   0  0  0  0  0  0  0  0  0  0  0  0
  149.2200  158.6350  131.9890 O   0  0  0  0  0  0  0  0  0  0  0  0
  148.0910  159.3090  132.0110 C   0  0  0  0  0  0  0  0  0  0  0  0
  147.8070  160.4820  131.1290 C   0  0  0  0  0  0  0  0  0  0  0  0
  147.2550  158.7450  132.9650 C   0  0  0  0  0  0  0  0  0  0  0  0
  145.8900  159.1690  133.3440 C   0  0  0  0  0  0  0  0  0  0  0  0
  145.5750  160.5460  133.4510 C   0  0  0  0  0  0  0  0  0  0  0  0
  144.2780  160.9610  133.7970 C   0  0  0  0  0  0  0  0  0  0  0  0
  143.3220  159.9800  134.0350 C   0  0  0  0  0  0  0  0  0  0  0  0
  141.9900  160.1020  134.3600 C   0  0  0  0  0  0  0  0  0  0  0  0
  141.5150  158.7980  134.4690 C   0  0  0  0  0  0  0  0  0  0  0  0
  140.1360  158.4680  134.8890 C   0  0  0  0  0  0  0  0  0  0  0  0
  139.8490  158.2500  136.2690 N   0  0  0  0  0  0  0  0  0  0  0  0
  139.2140  158.3410  134.0410 O   0  0  0  0  0  0  0  0  0  0  0  0
  142.5110  157.9020  134.2150 N   0  0  0  0  0  0  0  0  0  0  0  0
  142.4180  156.4680  134.1620 C   0  0  0  0  0  0  0  0  0  0  0  0
  141.5130  155.9140  133.4840 O   0  0  0  0  0  0  0  0  0  0  0  0
  143.3420  155.6800  134.8360 O   0  0  0  0  0  0  0  0  0  0  0  0
  143.6120  158.6420  133.9520 C   0  0  0  0  0  0  0  0  0  0  0  0
  144.8900  158.2020  133.5940 C   0  0  0  0  0  0  0  0  0  0  0  0
  147.7881  157.1905  135.5435 H   0  0  0  0  0  0  0  0  0  0  0  0
  146.5268  156.5073  134.4622 H   0  0  0  0  0  0  0  0  0  0  0  0
  148.1828  155.8114  134.4622 H   0  0  0  0  0  0  0  0  0  0  0  0
  149.9760  157.0010  133.0320 H   0  0  0  0  0  0  0  0  0  0  0  0
  147.5934  161.3645  131.7500 H   0  0  0  0  0  0  0  0  0  0  0  0
  148.6823  160.6837  130.4940 H   0  0  0  0  0  0  0  0  0  0  0  0
  146.9364  160.2610  130.4940 H   0  0  0  0  0  0  0  0  0  0  0  0
  146.3544  161.2986  133.2611 H   0  0  0  0  0  0  0  0  0  0  0  0
  144.0268  162.0289  133.8771 H   0  0  0  0  0  0  0  0  0  0  0  0
  141.4214  161.0327  134.5032 H   0  0  0  0  0  0  0  0  0  0  0  0
  139.4580  159.0130  136.8630 H   0  0  0  0  0  0  0  0  0  0  0  0
  145.1120  157.1280  133.5089 H   0  0  0  0  0  0  0  0  0  0  0  0
  1  2  1  0
  2  3  2  0
  3  4  1  0
  4  5  1  0
  5  6  1  0
  5  7  2  0
  7  8  1  0
  8  9  2  0
  9 10  1  0
 10 11  2  0
 11 12  1  0
 12 13  2  0
 13 14  1  0
 14 15  1  0
 14 16  2  0
 13 17  1  0
 17 18  1  0
 18 19  2  0
 18 20  1  0
 17 21  1  0
 21 22  2  0
  7  2  1  0
 22  8  1  0
 21 11  1  0
  1 23  1  0
  1 24  1  0
  1 25  1  0
  3 26  1  0
  6 27  1  0
  6 28  1  0
  6 29  1  0
  9 30  1  0
 10 31  1  0
 12 32  1  0
 15 33  1  0
 22 34  1  0
M  CHG  3   3   1  15  -1  20  -1
M  END
>  <UniqueID>  (44) 
44

>  <SMILES>  (44) 
Cc1[nH+]oc(C)c1-c1ccc2cc(C([NH-])=O)n(C(=O)[O-])c2c1

>  <Energy>  (44) 
109.78209204529762

>  <Genealogy>  (44) 
Cc1[nH+]oc(C)c1-c1ccc2cc(C([NH-])=O)n(C(=O)[O-])c2c1 (protonated)
Cc1[nH+]oc(C)c1-c1ccc2cc(C([NH-])=O)n(C(=O)[O-])c2c1 (3D coordinates assigned)
Cc1[nH+]oc(C)c1-c1ccc2cc(C([NH-])=O)n(C(=O)[O-])c2c1 (optimized conformer: 109.78209204529762 kcal/mol)

>  <smiles>  (44) 
Cc1noc(C)c1-c1ccc2cc(C(N)=O)n(C(=O)O)c2c1

>  <score_type>  (44) 
oracle

>  <origin>  (44) 
adg

>  <m_score__min__energy>  (44) 
-7.1100000000000003

>  <m_primary>  (44) 
energy

$$$$
44:0
     RDKit          3D

 43 45  0  0  0  0  0  0  0  0999 V2000
  146.3720  155.1320  135.1450 C   0  0  0  0  0  0  0  0  0  0  0  0
  145.5400  155.8670  134.2560 O   0  0  0  0  0  0  0  0  0  0  0  0
  146.0520  156.6480  133.2160 C   0  0  0  0  0  0  0  0  0  0  0  0
  146.6460  156.1040  132.2450 O   0  0  0  0  0  0  0  0  0  0  0  0
  145.9190  158.0780  133.2660 N   0  0  0  0  0  0  0  0  0  0  0  0
  146.9060  159.0150  133.1790 C   0  0  0  0  0  0  0  0  0  0  0  0
  148.3280  158.7540  132.8740 C   0  0  0  0  0  0  0  0  0  0  0  0
  148.6860  158.1190  131.6480 N   0  0  0  0  0  0  0  0  0  0  0  0
  149.2320  159.0520  133.6980 O   0  0  0  0  0  0  0  0  0  0  0  0
  146.3780  160.2950  133.3370 C   0  0  0  0  0  0  0  0  0  0  0  0
  145.0270  160.1130  133.5190 C   0  0  0  0  0  0  0  0  0  0  0  0
  144.0190  161.0470  133.7300 C   0  0  0  0  0  0  0  0  0  0  0  0
  142.7090  160.5740  133.9100 C   0  0  0  0  0  0  0  0  0  0  0  0
  142.4290  159.1820  133.8890 C   0  0  0  0  0  0  0  0  0  0  0  0
  141.0120  158.6690  134.0870 C   0  0  2  0  0  0  0  0  0  0  0  0
  140.9420  157.1490  133.8430 C   0  0  0  0  0  0  0  0  0  0  0  0
  139.4810  156.7030  133.7150 C   0  0  0  0  0  0  0  0  0  0  0  0
  138.7670  157.3560  132.5980 N   0  0  0  0  0  0  0  0  0  0  0  0
  139.3940  158.5950  132.0900 C   0  0  1  0  0  0  0  0  0  0  0  0
  138.3570  159.3980  131.3030 C   0  0  0  0  0  0  0  0  0  0  0  0
  139.9750  159.4500  133.2370 C   0  0  0  0  0  0  0  0  0  0  0  0
  143.4820  158.2650  133.6670 C   0  0  0  0  0  0  0  0  0  0  0  0
  144.7750  158.7670  133.4710 C   0  0  0  0  0  0  0  0  0  0  0  0
  146.1007  155.3717  136.1837 H   0  0  0  0  0  0  0  0  0  0  0  0
  146.2348  154.0548  134.9694 H   0  0  0  0  0  0  0  0  0  0  0  0
  147.4240  155.4010  134.9694 H   0  0  0  0  0  0  0  0  0  0  0  0
  148.3760  157.1450  131.4380 H   0  0  0  0  0  0  0  0  0  0  0  0
  146.9257  161.2488  133.3198 H   0  0  0  0  0  0  0  0  0  0  0  0
  144.2409  162.1241  133.7552 H   0  0  0  0  0  0  0  0  0  0  0  0
  141.8898  161.2906  134.0692 H   0  0  0  0  0  0  0  0  0  0  0  0
  140.7377  158.8516  135.1365 H   0  0  0  0  0  0  0  0  0  0  0  0
  141.4798  156.9043  132.9152 H   0  0  0  0  0  0  0  0  0  0  0  0
  141.4050  156.6261  134.6929 H   0  0  0  0  0  0  0  0  0  0  0  0
  139.4608  155.6150  133.5540 H   0  0  0  0  0  0  0  0  0  0  0  0
  138.9687  156.9938  134.6440 H   0  0  0  0  0  0  0  0  0  0  0  0
  138.7070  156.6780  131.8020 H   0  0  0  0  0  0  0  0  0  0  0  0
  140.2301  158.3176  131.4312 H   0  0  0  0  0  0  0  0  0  0  0  0
  137.6865  159.9172  132.0036 H   0  0  0  0  0  0  0  0  0  0  0  0
  138.8692  160.1373  130.6697 H   0  0  0  0  0  0  0  0  0  0  0  0
  137.7695  158.7170  130.6697 H   0  0  0  0  0  0  0  0  0  0  0  0
  140.4660  160.3345  132.8051 H   0  0  0  0  0  0  0  0  0  0  0  0
  139.1437  159.7347  133.8987 H   0  0  0  0  0  0  0  0  0  0  0  0
  143.2903  157.1820  133.6486 H   0  0  0  0  0  0  0  0  0  0  0  0
  1  2  1  0
  2  3  1  0
  3  4  2  0
  3  5  1  0
  5  6  1  0
  6  7  1  0
  7  8  1  0
  7  9  2  0
  6 10  2  0
 10 11  1  0
 11 12  2  0
 12 13  1  0
 13 14  2  0
 14 15  1  0
 15 16  1  0
 16 17  1  0
 17 18  1  0
 18 19  1  0
 19 20  1  0
 19 21  1  0
 14 22  1  0
 22 23  2  0
 23  5  1  0
 23 11  1  0
 21 15  1  0
  1 24  1  0
  1 25  1  0
  1 26  1  0
  8 27  1  0
 10 28  1  0
 12 29  1  0
 13 30  1  0
 15 31  1  1
 16 32  1  0
 16 33  1  0
 17 34  1  0
 17 35  1  0
 18 36  1  0
 19 37  1  6
 20 38  1  0
 20 39  1  0
 20 40  1  0
 21 41  1  0
 21 42  1  0
 22 43  1  0
M  CHG  1   8  -1
M  END
>  <UniqueID>  (45) 
45

>  <SMILES>  (45) 
COC(=O)n1c(C([NH-])=O)cc2ccc([C@@H]3CCN[C@@H](C)C3)cc21

>  <Energy>  (45) 
85.86947837841684

>  <Genealogy>  (45) 
COC(=O)n1c(C([NH-])=O)cc2ccc(C3CCNC(C)C3)cc21 (protonated)
COC(=O)n1c(C([NH-])=O)cc2ccc([C@@H]3CCN[C@@H](C)C3)cc21 (chirality)
COC(=O)n1c(C([NH-])=O)cc2ccc([C@@H]3CCN[C@@H](C)C3)cc21 (3D coordinates assigned)
COC(=O)n1c(C([NH-])=O)cc2ccc([C@@H]3CCN[C@@H](C)C3)cc21 (nonaromatic ring conformer: 85.86947837841684 kcal/mol)

>  <smiles>  (45) 
COC(=O)n1c(C(N)=O)cc2ccc(C3CCNC(C)C3)cc21

>  <score_type>  (45) 
oracle

>  <origin>  (45) 
adg

>  <m_score__min__energy>  (45) 
-7.7599999999999998

>  <m_primary>  (45) 
energy

$$$$
45:0
     RDKit          3D

 27 28  0  0  0  0  0  0  0  0999 V2000
  145.2090  160.6910  134.0740 C   0  0  0  0  0  0  0  0  0  0  0  0
  145.3550  159.4720  133.2190 C   0  0  0  0  0  0  0  0  0  0  0  0
  144.3380  158.9890  132.6560 O   0  0  0  0  0  0  0  0  0  0  0  0
  146.6210  158.8050  133.1020 N   0  0  0  0  0  0  0  0  0  0  0  0
  146.9720  157.5760  133.5740 C   0  0  0  0  0  0  0  0  0  0  0  0
  146.1520  156.7180  134.4540 C   0  0  0  0  0  0  0  0  0  0  0  0
  144.7290  156.7850  134.4230 N   0  0  0  0  0  0  0  0  0  0  0  0
  146.7160  155.9430  135.2720 O   0  0  0  0  0  0  0  0  0  0  0  0
  148.2700  157.2550  133.1790 C   0  0  0  0  0  0  0  0  0  0  0  0
  148.7090  158.3400  132.4530 C   0  0  0  0  0  0  0  0  0  0  0  0
  149.9310  158.5650  131.8230 C   0  0  0  0  0  0  0  0  0  0  0  0
  150.1020  159.7770  131.1320 C   0  0  0  0  0  0  0  0  0  0  0  0
  149.0520  160.7270  131.0710 C   0  0  0  0  0  0  0  0  0  0  0  0
  149.2580  162.0290  130.3580 C   0  0  0  0  0  0  0  0  0  0  0  0
  147.8320  160.4710  131.7350 C   0  0  0  0  0  0  0  0  0  0  0  0
  147.6960  159.2620  132.4250 C   0  0  0  0  0  0  0  0  0  0  0  0
  145.2437  160.4013  135.1346 H   0  0  0  0  0  0  0  0  0  0  0  0
  146.0297  161.3908  133.8580 H   0  0  0  0  0  0  0  0  0  0  0  0
  144.2462  161.1772  133.8580 H   0  0  0  0  0  0  0  0  0  0  0  0
  144.2350  157.7030  134.3860 H   0  0  0  0  0  0  0  0  0  0  0  0
  148.8254  156.3316  133.4001 H   0  0  0  0  0  0  0  0  0  0  0  0
  150.7369  157.8175  131.8650 H   0  0  0  0  0  0  0  0  0  0  0  0
  151.0594  159.9901  130.6341 H   0  0  0  0  0  0  0  0  0  0  0  0
  149.3855  162.8349  131.0958 H   0  0  0  0  0  0  0  0  0  0  0  0
  150.1570  161.9635  129.7275 H   0  0  0  0  0  0  0  0  0  0  0  0
  148.3827  162.2442  129.7275 H   0  0  0  0  0  0  0  0  0  0  0  0
  147.0110  161.2027  131.7102 H   0  0  0  0  0  0  0  0  0  0  0  0
  1  2  1  0
  2  3  2  0
  2  4  1  0
  4  5  1  0
  5  6  1  0
  6  7  1  0
  6  8  2  0
  5  9  2  0
  9 10  1  0
 10 11  2  0
 11 12  1  0
 12 13  2  0
 13 14  1  0
 13 15  1  0
 15 16  2  0
 16  4  1  0
 16 10  1  0
  1 17  1  0
  1 18  1  0
  1 19  1  0
  7 20  1  0
  9 21  1  0
 11 22  1  0
 12 23  1  0
 14 24  1  0
 14 25  1  0
 14 26  1  0
 15 27  1  0
M  CHG  1   7  -1
M  END
>  <UniqueID>  (46) 
46

>  <SMILES>  (46) 
CC(=O)n1c(C([NH-])=O)cc2ccc(C)cc21

>  <Energy>  (46) 
65.75745571792903

>  <Genealogy>  (46) 
CC(=O)n1c(C([NH-])=O)cc2ccc(C)cc21 (protonated)
CC(=O)n1c(C([NH-])=O)cc2ccc(C)cc21 (3D coordinates assigned)
CC(=O)n1c(C([NH-])=O)cc2ccc(C)cc21 (optimized conformer: 65.75745571792903 kcal/mol)

>  <smiles>  (46) 
CC(=O)n1c(C(N)=O)cc2ccc(C)cc21

>  <score_type>  (46) 
oracle

>  <origin>  (46) 
adg

>  <m_score__min__energy>  (46) 
-5.79

>  <m_primary>  (46) 
energy

$$$$
46:0
     RDKit          3D

 40 42  0  0  0  0  0  0  0  0999 V2000
  138.7860  157.9970  135.1570 N   0  0  0  0  0  0  0  0  0  0  0  0
  139.9970  157.9400  135.9070 C   0  0  0  0  0  0  0  0  0  0  0  0
  139.9680  157.5090  137.0910 O   0  0  0  0  0  0  0  0  0  0  0  0
  141.2690  158.4320  135.3380 C   0  0  0  0  0  0  0  0  0  0  0  0
  141.5520  159.7840  135.1540 C   0  0  0  0  0  0  0  0  0  0  0  0
  142.7760  159.8170  134.5270 C   0  0  0  0  0  0  0  0  0  0  0  0
  143.5370  160.9040  134.1110 C   0  0  0  0  0  0  0  0  0  0  0  0
  144.7800  160.6480  133.5130 C   0  0  0  0  0  0  0  0  0  0  0  0
  145.2530  159.3170  133.3520 C   0  0  0  0  0  0  0  0  0  0  0  0
  146.5930  159.0240  132.6910 C   0  0  0  0  0  0  0  0  0  0  0  0
  147.6890  160.0130  133.1590 C   0  0  0  0  0  0  0  0  0  0  0  0
  148.9270  160.1470  132.2530 C   0  0  0  0  0  0  0  0  0  0  0  0
  149.3400  158.8760  131.4830 C   0  0  0  0  0  0  0  0  0  0  0  0
  149.5550  157.6330  132.3660 C   0  0  0  0  0  0  0  0  0  0  0  0
  148.3800  157.2570  133.3100 C   0  0  0  0  0  0  0  0  0  0  0  0
  146.9650  157.5210  132.7650 C   0  0  0  0  0  0  0  0  0  0  0  0
  144.4400  158.2400  133.7820 C   0  0  0  0  0  0  0  0  0  0  0  0
  143.1960  158.5250  134.3570 C   0  0  0  0  0  0  0  0  0  0  0  0
  142.2830  157.6610  134.8520 N   0  0  0  0  0  0  0  0  0  0  0  0
  142.4160  156.2310  134.9250 C   0  0  0  0  0  0  0  0  0  0  0  0
  143.2780  155.7100  135.6800 O   0  0  0  0  0  0  0  0  0  0  0  0
  141.6110  155.4130  134.1440 O   0  0  0  0  0  0  0  0  0  0  0  0
  137.9830  158.5820  135.4770 H   0  0  0  0  0  0  0  0  0  0  0  0
  140.9294  160.6420  135.4476 H   0  0  0  0  0  0  0  0  0  0  0  0
  143.1752  161.9339  134.2468 H   0  0  0  0  0  0  0  0  0  0  0  0
  145.3973  161.4889  133.1638 H   0  0  0  0  0  0  0  0  0  0  0  0
  146.4999  159.2147  131.6117 H   0  0  0  0  0  0  0  0  0  0  0  0
  147.2273  161.0079  133.2431 H   0  0  0  0  0  0  0  0  0  0  0  0
  148.0658  159.6020  134.1072 H   0  0  0  0  0  0  0  0  0  0  0  0
  148.7204  160.9359  131.5148 H   0  0  0  0  0  0  0  0  0  0  0  0
  149.7662  160.3718  132.9277 H   0  0  0  0  0  0  0  0  0  0  0  0
  148.5504  158.6456  130.7526 H   0  0  0  0  0  0  0  0  0  0  0  0
  150.3103  159.0970  131.0142 H   0  0  0  0  0  0  0  0  0  0  0  0
  149.7404  156.7761  131.7016 H   0  0  0  0  0  0  0  0  0  0  0  0
  150.3987  157.8809  133.0268 H   0  0  0  0  0  0  0  0  0  0  0  0
  148.4592  156.1831  133.5344 H   0  0  0  0  0  0  0  0  0  0  0  0
  148.4856  157.9098  134.1890 H   0  0  0  0  0  0  0  0  0  0  0  0
  146.8989  157.0972  131.7521 H   0  0  0  0  0  0  0  0  0  0  0  0
  146.2592  157.0505  133.4653 H   0  0  0  0  0  0  0  0  0  0  0  0
  144.7794  157.2001  133.6664 H   0  0  0  0  0  0  0  0  0  0  0  0
  1  2  1  0
  2  3  2  0
  2  4  1  0
  4  5  2  0
  5  6  1  0
  6  7  2  0
  7  8  1  0
  8  9  2  0
  9 10  1  0
 10 11  1  0
 11 12  1  0
 12 13  1  0
 13 14  1  0
 14 15  1  0
 15 16  1  0
  9 17  1  0
 17 18  2  0
 18 19  1  0
 19 20  1  0
 20 21  2  0
 20 22  1  0
 19  4  1  0
 18  6  1  0
 16 10  1  0
  1 23  1  0
  5 24  1  0
  7 25  1  0
  8 26  1  0
 10 27  1  0
 11 28  1  0
 11 29  1  0
 12 30  1  0
 12 31  1  0
 13 32  1  0
 13 33  1  0
 14 34  1  0
 14 35  1  0
 15 36  1  0
 15 37  1  0
 16 38  1  0
 16 39  1  0
 17 40  1  0
M  CHG  2   1  -1  22  -1
M  END
>  <UniqueID>  (47) 
47

>  <SMILES>  (47) 
[NH-]C(=O)c1cc2ccc(C3CCCCCC3)cc2n1C(=O)[O-]

>  <Energy>  (47) 
91.19609901252332

>  <Genealogy>  (47) 
[NH-]C(=O)c1cc2ccc(C3CCCCCC3)cc2n1C(=O)[O-] (protonated)
[NH-]C(=O)c1cc2ccc(C3CCCCCC3)cc2n1C(=O)[O-] (3D coordinates assigned)
[NH-]C(=O)c1cc2ccc(C3CCCCCC3)cc2n1C(=O)[O-] (nonaromatic ring conformer: 91.19609901252332 kcal/mol)

>  <smiles>  (47) 
NC(=O)c1cc2ccc(C3CCCCCC3)cc2n1C(=O)O

>  <score_type>  (47) 
oracle

>  <origin>  (47) 
adg

>  <m_score__min__energy>  (47) 
-5.9000000000000004

>  <m_primary>  (47) 
energy

$$$$
47:0
     RDKit          3D

 32 34  0  0  0  0  0  0  0  0999 V2000
  143.1710  161.4990  133.6890 N   0  0  0  0  0  0  0  0  0  0  0  0
  144.5810  161.5850  133.8780 C   0  0  0  0  0  0  0  0  0  0  0  0
  145.1000  162.7010  134.1500 O   0  0  0  0  0  0  0  0  0  0  0  0
  145.4460  160.4000  133.7020 C   0  0  0  0  0  0  0  0  0  0  0  0
  146.8090  160.4810  133.4340 C   0  0  0  0  0  0  0  0  0  0  0  0
  147.2230  159.1830  133.2490 C   0  0  0  0  0  0  0  0  0  0  0  0
  148.4870  158.6790  132.9650 C   0  0  0  0  0  0  0  0  0  0  0  0
  148.6340  157.2860  132.8550 C   0  0  0  0  0  0  0  0  0  0  0  0
  147.5230  156.4200  133.0360 C   0  0  0  0  0  0  0  0  0  0  0  0
  147.6940  154.9480  132.9270 C   0  0  0  0  0  0  0  0  0  0  0  0
  146.7180  153.9760  133.0950 C   0  0  0  0  0  0  0  0  0  0  0  0
  147.2430  152.7860  132.9140 O   0  0  0  0  0  0  0  0  0  0  0  0
  148.5190  152.9270  132.6400 C   0  0  0  0  0  0  0  0  0  0  0  0
  149.4420  151.7880  132.3430 C   0  0  0  0  0  0  0  0  0  0  0  0
  148.9390  150.6050  132.9000 O   0  0  0  0  0  0  0  0  0  0  0  0
  148.8610  154.2640  132.6300 C   0  0  0  0  0  0  0  0  0  0  0  0
  146.2530  156.9760  133.3240 C   0  0  0  0  0  0  0  0  0  0  0  0
  146.1340  158.3680  133.4100 C   0  0  0  0  0  0  0  0  0  0  0  0
  145.0320  159.1010  133.6910 N   0  0  0  0  0  0  0  0  0  0  0  0
  143.7270  158.5920  134.0130 C   0  0  0  0  0  0  0  0  0  0  0  0
  143.1350  157.8140  133.2220 O   0  0  0  0  0  0  0  0  0  0  0  0
  143.1180  158.9360  135.2140 O   0  0  0  0  0  0  0  0  0  0  0  0
  142.6430  160.6420  133.9680 H   0  0  0  0  0  0  0  0  0  0  0  0
  147.4249  161.3909  133.3813 H   0  0  0  0  0  0  0  0  0  0  0  0
  149.3472  159.3513  132.8303 H   0  0  0  0  0  0  0  0  0  0  0  0
  149.6222  156.8607  132.6258 H   0  0  0  0  0  0  0  0  0  0  0  0
  145.6643  154.1725  133.3423 H   0  0  0  0  0  0  0  0  0  0  0  0
  149.5329  151.6676  131.2534 H   0  0  0  0  0  0  0  0  0  0  0  0
  150.4293  152.0006  132.7789 H   0  0  0  0  0  0  0  0  0  0  0  0
  148.0920  150.8440  133.3590 H   0  0  0  0  0  0  0  0  0  0  0  0
  149.8524  154.6958  132.4284 H   0  0  0  0  0  0  0  0  0  0  0  0
  145.3779  156.3273  133.4770 H   0  0  0  0  0  0  0  0  0  0  0  0
  1  2  1  0
  2  3  2  0
  2  4  1  0
  4  5  2  0
  5  6  1  0
  6  7  2  0
  7  8  1  0
  8  9  2  0
  9 10  1  0
 10 11  2  0
 11 12  1  0
 12 13  1  0
 13 14  1  0
 14 15  1  0
 13 16  2  0
  9 17  1  0
 17 18  2  0
 18 19  1  0
 19 20  1  0
 20 21  2  0
 20 22  1  0
 19  4  1  0
 18  6  1  0
 16 10  1  0
  1 23  1  0
  5 24  1  0
  7 25  1  0
  8 26  1  0
 11 27  1  0
 14 28  1  0
 14 29  1  0
 15 30  1  0
 16 31  1  0
 17 32  1  0
M  CHG  2   1  -1  22  -1
M  END
>  <UniqueID>  (48) 
48

>  <SMILES>  (48) 
[NH-]C(=O)c1cc2ccc(-c3coc(CO)c3)cc2n1C(=O)[O-]

>  <Energy>  (48) 
102.0308195606462

>  <Genealogy>  (48) 
[NH-]C(=O)c1cc2ccc(-c3coc(CO)c3)cc2n1C(=O)[O-] (protonated)
[NH-]C(=O)c1cc2ccc(-c3coc(CO)c3)cc2n1C(=O)[O-] (3D coordinates assigned)
[NH-]C(=O)c1cc2ccc(-c3coc(CO)c3)cc2n1C(=O)[O-] (optimized conformer: 102.0308195606462 kcal/mol)

>  <smiles>  (48) 
NC(=O)c1cc2ccc(-c3coc(CO)c3)cc2n1C(=O)O

>  <score_type>  (48) 
oracle

>  <origin>  (48) 
adg

>  <m_score__min__energy>  (48) 
-6.7599999999999998

>  <m_primary>  (48) 
energy

$$$$
48:0
     RDKit          3D

 38 40  0  0  0  0  0  0  0  0999 V2000
  145.7800  154.4590  132.6840 C   0  0  0  0  0  0  0  0  0  0  0  0
  146.7570  155.6250  132.5930 C   0  0  0  0  0  0  0  0  0  0  0  0
  146.9080  156.2530  133.8640 O   0  0  0  0  0  0  0  0  0  0  0  0
  147.8400  157.2640  134.1230 C   0  0  0  0  0  0  0  0  0  0  0  0
  148.4900  157.2700  135.2030 O   0  0  0  0  0  0  0  0  0  0  0  0
  148.0900  158.3160  133.1230 C   0  0  0  0  0  0  0  0  0  0  0  0
  149.5090  158.4310  132.2200 S   0  0  0  0  0  0  0  0  0  0  0  0
  149.0130  159.7190  131.2660 C   0  0  0  0  0  0  0  0  0  0  0  0
  149.9760  160.4730  130.0130 Cl  0  0  0  0  0  0  0  0  0  0  0  0
  147.7280  160.0860  131.6310 C   0  0  0  0  0  0  0  0  0  0  0  0
  147.2040  159.3110  132.6790 C   0  0  0  0  0  0  0  0  0  0  0  0
  145.8720  159.5820  133.2560 C   0  0  0  0  0  0  0  0  0  0  0  0
  145.5490  160.8780  133.7310 C   0  0  0  0  0  0  0  0  0  0  0  0
  144.2770  161.1510  134.2570 C   0  0  0  0  0  0  0  0  0  0  0  0
  143.3490  160.1140  134.2900 C   0  0  0  0  0  0  0  0  0  0  0  0
  142.0420  160.1090  134.7200 C   0  0  0  0  0  0  0  0  0  0  0  0
  141.5880  158.8080  134.5080 C   0  0  0  0  0  0  0  0  0  0  0  0
  140.2490  158.3390  134.9200 C   0  0  0  0  0  0  0  0  0  0  0  0
  139.8700  158.3190  136.2940 N   0  0  0  0  0  0  0  0  0  0  0  0
  139.4100  157.9990  134.0440 O   0  0  0  0  0  0  0  0  0  0  0  0
  142.5720  158.0420  133.9580 N   0  0  0  0  0  0  0  0  0  0  0  0
  142.4800  156.6820  133.5030 C   0  0  0  0  0  0  0  0  0  0  0  0
  141.4870  155.8120  134.0400 N   0  0  0  0  0  0  0  0  0  0  0  0
  143.2560  156.2620  132.6050 O   0  0  0  0  0  0  0  0  0  0  0  0
  143.6450  158.8550  133.8360 C   0  0  0  0  0  0  0  0  0  0  0  0
  144.9000  158.5590  133.2910 C   0  0  0  0  0  0  0  0  0  0  0  0
  145.5847  154.2259  133.7411 H   0  0  0  0  0  0  0  0  0  0  0  0
  144.8366  154.7316  132.1883 H   0  0  0  0  0  0  0  0  0  0  0  0
  146.2135  153.5779  132.1883 H   0  0  0  0  0  0  0  0  0  0  0  0
  147.7352  155.2516  132.2557 H   0  0  0  0  0  0  0  0  0  0  0  0
  146.3639  156.3622  131.8774 H   0  0  0  0  0  0  0  0  0  0  0  0
  147.1728  160.9035  131.1479 H   0  0  0  0  0  0  0  0  0  0  0  0
  146.3030  161.6777  133.6868 H   0  0  0  0  0  0  0  0  0  0  0  0
  144.0212  162.1531  134.6315 H   0  0  0  0  0  0  0  0  0  0  0  0
  141.4756  160.9525  135.1416 H   0  0  0  0  0  0  0  0  0  0  0  0
  139.4490  159.1610  136.7470 H   0  0  0  0  0  0  0  0  0  0  0  0
  140.5330  156.1650  134.2720 H   0  0  0  0  0  0  0  0  0  0  0  0
  145.1229  157.5552  132.9002 H   0  0  0  0  0  0  0  0  0  0  0  0
  1  2  1  0
  2  3  1  0
  3  4  1  0
  4  5  2  0
  4  6  1  0
  6  7  1  0
  7  8  1  0
  8  9  1  0
  8 10  2  0
 10 11  1  0
 11 12  1  0
 12 13  2  0
 13 14  1  0
 14 15  2  0
 15 16  1  0
 16 17  2  0
 17 18  1  0
 18 19  1  0
 18 20  2  0
 17 21  1  0
 21 22  1  0
 22 23  1  0
 22 24  2  0
 21 25  1  0
 25 26  2  0
 11  6  2  0
 26 12  1  0
 25 15  1  0
  1 27  1  0
  1 28  1  0
  1 29  1  0
  2 30  1  0
  2 31  1  0
 10 32  1  0
 13 33  1  0
 14 34  1  0
 16 35  1  0
 19 36  1  0
 23 37  1  0
 26 38  1  0
M  CHG  2  19  -1  23  -1
M  END
>  <UniqueID>  (49) 
49

>  <SMILES>  (49) 
CCOC(=O)c1sc(Cl)cc1-c1ccc2cc(C([NH-])=O)n(C([NH-])=O)c2c1

>  <Energy>  (49) 
107.96466183119065

>  <Genealogy>  (49) 
CCOC(=O)c1sc(Cl)cc1-c1ccc2cc(C([NH-])=O)n(C([NH-])=O)c2c1 (protonated)
CCOC(=O)c1sc(Cl)cc1-c1ccc2cc(C([NH-])=O)n(C([NH-])=O)c2c1 (3D coordinates assigned)
CCOC(=O)c1sc(Cl)cc1-c1ccc2cc(C([NH-])=O)n(C([NH-])=O)c2c1 (optimized conformer: 107.96466183119065 kcal/mol)

>  <smiles>  (49) 
CCOC(=O)c1sc(Cl)cc1-c1ccc2cc(C(N)=O)n(C(N)=O)c2c1

>  <score_type>  (49) 
oracle

>  <origin>  (49) 
adg

>  <m_score__min__energy>  (49) 
-8.2599999999999998

>  <m_primary>  (49) 
energy

$$$$
49:0
     RDKit          3D

 54 56  0  0  0  0  0  0  0  0999 V2000
  149.5690  161.8720  130.3240 C   0  0  0  0  0  0  0  0  0  0  0  0
  148.6900  161.0500  131.0840 O   0  0  0  0  0  0  0  0  0  0  0  0
  149.1440  159.9650  131.8510 C   0  0  0  0  0  0  0  0  0  0  0  0
  150.0110  159.1690  131.3930 O   0  0  0  0  0  0  0  0  0  0  0  0
  148.5410  159.7140  133.1950 C   0  0  0  0  0  0  0  0  0  0  0  0
  147.8040  158.4020  133.1900 C   0  0  0  0  0  0  0  0  0  0  0  0
  148.4910  157.2080  132.9340 C   0  0  0  0  0  0  0  0  0  0  0  0
  147.7990  155.9960  132.8700 C   0  0  0  0  0  0  0  0  0  0  0  0
  146.4050  155.9570  133.0540 C   0  0  0  0  0  0  0  0  0  0  0  0
  145.6660  154.6730  132.9360 C   0  0  0  0  0  0  0  0  0  0  0  0
  146.3720  153.4620  132.7090 C   0  0  0  0  0  0  0  0  0  0  0  0
  145.6940  152.2350  132.6450 C   0  0  0  0  0  0  0  0  0  0  0  0
  144.3150  152.2410  132.8270 C   0  0  0  0  0  0  0  0  0  0  0  0
  143.4290  151.1910  132.8400 C   0  0  0  0  0  0  0  0  0  0  0  0
  142.1880  151.7620  133.0950 C   0  0  0  0  0  0  0  0  0  0  0  0
  140.9670  150.9610  133.3010 C   0  0  0  0  0  0  0  0  0  0  0  0
  139.7890  151.2100  132.5330 N   0  0  0  0  0  0  0  0  0  0  0  0
  140.9480  150.0750  134.1930 O   0  0  0  0  0  0  0  0  0  0  0  0
  142.2890  153.1180  133.2120 N   0  0  0  0  0  0  0  0  0  0  0  0
  141.1990  154.0500  133.3590 C   0  0  0  0  0  0  0  0  0  0  0  0
  140.1730  153.9510  132.6300 O   0  0  0  0  0  0  0  0  0  0  0  0
  141.2840  155.0600  134.3300 O   0  0  0  0  0  0  0  0  0  0  0  0
  141.0020  156.4570  134.1550 C   0  0  0  0  0  0  0  0  0  0  0  0
  141.0970  157.1210  135.5440 C   0  0  0  0  0  0  0  0  0  0  0  0
  142.0420  157.1150  133.2170 C   0  0  0  0  0  0  0  0  0  0  0  0
  139.5770  156.6410  133.6050 C   0  0  0  0  0  0  0  0  0  0  0  0
  143.6080  153.3960  133.0520 C   0  0  0  0  0  0  0  0  0  0  0  0
  144.2590  154.6380  133.0890 C   0  0  0  0  0  0  0  0  0  0  0  0
  145.7200  157.1590  133.3120 C   0  0  0  0  0  0  0  0  0  0  0  0
  146.4140  158.3700  133.3760 C   0  0  0  0  0  0  0  0  0  0  0  0
  150.1999  162.4620  131.0051 H   0  0  0  0  0  0  0  0  0  0  0  0
  150.2067  161.2386  129.6898 H   0  0  0  0  0  0  0  0  0  0  0  0
  148.9798  162.5506  129.6898 H   0  0  0  0  0  0  0  0  0  0  0  0
  149.3385  159.6813  133.9520 H   0  0  0  0  0  0  0  0  0  0  0  0
  147.8357  160.5242  133.4320 H   0  0  0  0  0  0  0  0  0  0  0  0
  149.5804  157.2249  132.7827 H   0  0  0  0  0  0  0  0  0  0  0  0
  148.3492  155.0639  132.6739 H   0  0  0  0  0  0  0  0  0  0  0  0
  147.4643  153.4860  132.5817 H   0  0  0  0  0  0  0  0  0  0  0  0
  146.2366  151.2969  132.4566 H   0  0  0  0  0  0  0  0  0  0  0  0
  143.6539  150.1259  132.6822 H   0  0  0  0  0  0  0  0  0  0  0  0
  138.9270  150.6430  132.6880 H   0  0  0  0  0  0  0  0  0  0  0  0
  139.7510  152.0070  131.8550 H   0  0  0  0  0  0  0  0  0  0  0  0
  140.9873  156.3544  136.3252 H   0  0  0  0  0  0  0  0  0  0  0  0
  142.0748  157.6139  135.6487 H   0  0  0  0  0  0  0  0  0  0  0  0
  140.2966  157.8683  135.6487 H   0  0  0  0  0  0  0  0  0  0  0  0
  142.8197  157.6070  133.8196 H   0  0  0  0  0  0  0  0  0  0  0  0
  142.5030  156.3439  132.5823 H   0  0  0  0  0  0  0  0  0  0  0  0
  141.5426  157.8619  132.5823 H   0  0  0  0  0  0  0  0  0  0  0  0
  138.8697  156.7323  134.4425 H   0  0  0  0  0  0  0  0  0  0  0  0
  139.5362  157.5519  132.9896 H   0  0  0  0  0  0  0  0  0  0  0  0
  139.3062  155.7704  132.9896 H   0  0  0  0  0  0  0  0  0  0  0  0
  143.6874  155.5666  133.2341 H   0  0  0  0  0  0  0  0  0  0  0  0
  144.6307  157.1450  133.4643 H   0  0  0  0  0  0  0  0  0  0  0  0
  145.8671  159.3038  133.5734 H   0  0  0  0  0  0  0  0  0  0  0  0
  1  2  1  0
  2  3  1  0
  3  4  2  0
  3  5  1  0
  5  6  1  0
  6  7  2  0
  7  8  1  0
  8  9  2  0
  9 10  1  0
 10 11  2  0
 11 12  1  0
 12 13  2  0
 13 14  1  0
 14 15  2  0
 15 16  1  0
 16 17  1  0
 16 18  2  0
 15 19  1  0
 19 20  1  0
 20 21  2  0
 20 22  1  0
 22 23  1  0
 23 24  1  0
 23 25  1  0
 23 26  1  0
 19 27  1  0
 27 28  2  0
  9 29  1  0
 29 30  2  0
 30  6  1  0
 28 10  1  0
 27 13  1  0
  1 31  1  0
  1 32  1  0
  1 33  1  0
  5 34  1  0
  5 35  1  0
  7 36  1  0
  8 37  1  0
 11 38  1  0
 12 39  1  0
 14 40  1  0
 17 41  1  0
 17 42  1  0
 24 43  1  0
 24 44  1  0
 24 45  1  0
 25 46  1  0
 25 47  1  0
 25 48  1  0
 26 49  1  0
 26 50  1  0
 26 51  1  0
 28 52  1  0
 29 53  1  0
 30 54  1  0
M  END
>  <UniqueID>  (50) 
50

>  <SMILES>  (50) 
COC(=O)Cc1ccc(-c2ccc3cc(C(N)=O)n(C(=O)OC(C)(C)C)c3c2)cc1

>  <Energy>  (50) 
92.23270556883425

>  <Genealogy>  (50) 
COC(=O)Cc1ccc(-c2ccc3cc(C(N)=O)n(C(=O)OC(C)(C)C)c3c2)cc1 (3D coordinates assigned)
COC(=O)Cc1ccc(-c2ccc3cc(C(N)=O)n(C(=O)OC(C)(C)C)c3c2)cc1 (optimized conformer: 92.23270556883425 kcal/mol)

>  <smiles>  (50) 
COC(=O)Cc1ccc(-c2ccc3cc(C(N)=O)n(C(=O)OC(C)(C)C)c3c2)cc1

>  <score_type>  (50) 
oracle

>  <origin>  (50) 
adg

>  <m_score__min__energy>  (50) 
-9.2200000000000006

>  <m_primary>  (50) 
energy

$$$$
50:0
     RDKit          3D

 29 30  0  0  0  0  0  0  0  0999 V2000
  146.0010  162.5770  134.8250 N   0  0  0  0  0  0  0  0  0  0  0  0
  144.9770  161.9250  134.0760 C   0  0  0  0  0  0  0  0  0  0  0  0
  143.9900  162.5910  133.6670 O   0  0  0  0  0  0  0  0  0  0  0  0
  145.0790  160.5230  133.7780 N   0  0  0  0  0  0  0  0  0  0  0  0
  144.1820  159.5420  134.0830 C   0  0  0  0  0  0  0  0  0  0  0  0
  142.8260  159.7490  134.6280 C   0  0  0  0  0  0  0  0  0  0  0  0
  141.9790  160.7870  134.1310 N   0  0  0  0  0  0  0  0  0  0  0  0
  142.3850  158.9610  135.5080 O   0  0  0  0  0  0  0  0  0  0  0  0
  144.6900  158.2890  133.7550 C   0  0  0  0  0  0  0  0  0  0  0  0
  145.9350  158.5310  133.2200 C   0  0  0  0  0  0  0  0  0  0  0  0
  146.8910  157.6390  132.7430 C   0  0  0  0  0  0  0  0  0  0  0  0
  148.1100  158.1640  132.2850 C   0  0  0  0  0  0  0  0  0  0  0  0
  148.3510  159.5600  132.3120 C   0  0  0  0  0  0  0  0  0  0  0  0
  149.6790  160.1080  131.8610 C   0  0  0  0  0  0  0  0  0  0  0  0
  149.5940  160.6490  130.4350 C   0  0  0  0  0  0  0  0  0  0  0  0
  150.6100  160.1040  129.6720 F   0  0  0  0  0  0  0  0  0  0  0  0
  149.7220  162.0280  130.4380 F   0  0  0  0  0  0  0  0  0  0  0  0
  147.3610  160.4340  132.8140 C   0  0  0  0  0  0  0  0  0  0  0  0
  146.1470  159.8860  133.2460 C   0  0  0  0  0  0  0  0  0  0  0  0
  147.0030  162.5040  134.5400 H   0  0  0  0  0  0  0  0  0  0  0  0
  141.0360  160.9420  134.5540 H   0  0  0  0  0  0  0  0  0  0  0  0
  142.2500  161.3490  133.2950 H   0  0  0  0  0  0  0  0  0  0  0  0
  144.2012  157.3134  133.8936 H   0  0  0  0  0  0  0  0  0  0  0  0
  146.6975  156.5563  132.7254 H   0  0  0  0  0  0  0  0  0  0  0  0
  148.8856  157.4848  131.9014 H   0  0  0  0  0  0  0  0  0  0  0  0
  149.9802  160.9219  132.5369 H   0  0  0  0  0  0  0  0  0  0  0  0
  150.4188  159.2942  131.8828 H   0  0  0  0  0  0  0  0  0  0  0  0
  148.6169  160.3753  130.0103 H   0  0  0  0  0  0  0  0  0  0  0  0
  147.5395  161.5183  132.8642 H   0  0  0  0  0  0  0  0  0  0  0  0
  1  2  1  0
  2  3  2  0
  2  4  1  0
  4  5  1  0
  5  6  1  0
  6  7  1  0
  6  8  2  0
  5  9  2  0
  9 10  1  0
 10 11  2  0
 11 12  1  0
 12 13  2  0
 13 14  1  0
 14 15  1  0
 15 16  1  0
 15 17  1  0
 13 18  1  0
 18 19  2  0
 19  4  1  0
 19 10  1  0
  1 20  1  0
  7 21  1  0
  7 22  1  0
  9 23  1  0
 11 24  1  0
 12 25  1  0
 14 26  1  0
 14 27  1  0
 15 28  1  0
 18 29  1  0
M  CHG  1   1  -1
M  END
>  <UniqueID>  (51) 
51

>  <SMILES>  (51) 
[NH-]C(=O)n1c(C(N)=O)cc2ccc(CC(F)F)cc21

>  <Energy>  (51) 
65.88586481463187

>  <Genealogy>  (51) 
[NH-]C(=O)n1c(C(N)=O)cc2ccc(CC(F)F)cc21 (protonated)
[NH-]C(=O)n1c(C(N)=O)cc2ccc(CC(F)F)cc21 (3D coordinates assigned)
[NH-]C(=O)n1c(C(N)=O)cc2ccc(CC(F)F)cc21 (optimized conformer: 65.88586481463187 kcal/mol)

>  <smiles>  (51) 
NC(=O)c1cc2ccc(CC(F)F)cc2n1C(N)=O

>  <score_type>  (51) 
oracle

>  <origin>  (51) 
adg

>  <m_score__min__energy>  (51) 
-6.1100000000000003

>  <m_primary>  (51) 
energy

$$$$
51:0
     RDKit          3D

 47 50  0  0  0  0  0  0  0  0999 V2000
  144.3610  154.5770  130.5300 N   0  0  0  0  0  0  0  0  0  0  0  0
  144.4160  154.1450  131.9270 C   0  0  0  0  0  0  0  0  0  0  0  0
  143.6450  155.0910  132.8600 C   0  0  0  0  0  0  0  0  0  0  0  0
  144.3580  156.4050  133.0440 C   0  0  0  0  0  0  0  0  0  0  0  0
  145.7730  156.4660  132.9820 C   0  0  0  0  0  0  0  0  0  0  0  0
  146.4470  157.6850  133.1700 C   0  0  0  0  0  0  0  0  0  0  0  0
  145.6820  158.8190  133.4280 C   0  0  0  0  0  0  0  0  0  0  0  0
  146.0710  160.1260  133.6280 C   0  0  0  0  0  0  0  0  0  0  0  0
  144.8880  160.8320  133.8390 C   0  0  0  0  0  0  0  0  0  0  0  0
  144.8400  162.2830  134.1220 C   0  0  0  0  0  0  0  0  0  0  0  0
  143.9930  163.1600  133.3790 N   0  0  0  0  0  0  0  0  0  0  0  0
  145.5340  162.7500  135.0630 O   0  0  0  0  0  0  0  0  0  0  0  0
  143.8130  160.0000  133.7500 N   0  0  0  0  0  0  0  0  0  0  0  0
  142.4210  160.3440  133.8240 C   0  0  0  0  0  0  0  0  0  0  0  0
  142.0410  161.4650  133.3890 O   0  0  0  0  0  0  0  0  0  0  0  0
  141.4620  159.4290  134.3870 N   0  0  0  0  0  0  0  0  0  0  0  0
  141.4180  159.2350  135.8500 C   0  0  0  0  0  0  0  0  0  0  0  0
  140.4600  158.0880  136.2300 C   0  0  2  0  0  0  0  0  0  0  0  0
  141.0120  156.7300  135.8010 C   0  0  0  0  0  0  0  0  0  0  0  0
  140.4070  156.5350  134.4280 C   0  0  0  0  0  0  0  0  0  0  0  0
  139.5790  157.8060  134.2350 C   0  0  2  0  0  0  0  0  0  0  0  0
  140.3880  158.9070  133.5190 C   0  0  0  0  0  0  0  0  0  0  0  0
  139.2590  158.2650  135.5230 O   0  0  0  0  0  0  0  0  0  0  0  0
  144.3150  158.7720  133.5090 C   0  0  0  0  0  0  0  0  0  0  0  0
  143.6160  157.5770  133.3130 C   0  0  0  0  0  0  0  0  0  0  0  0
  144.3070  153.7360  129.9120 H   0  0  0  0  0  0  0  0  0  0  0  0
  143.4950  155.1440  130.3810 H   0  0  0  0  0  0  0  0  0  0  0  0
  143.9788  153.1385  132.0036 H   0  0  0  0  0  0  0  0  0  0  0  0
  145.4706  154.1494  132.2396 H   0  0  0  0  0  0  0  0  0  0  0  0
  142.6513  155.2832  132.4291 H   0  0  0  0  0  0  0  0  0  0  0  0
  143.5643  154.6069  133.8444 H   0  0  0  0  0  0  0  0  0  0  0  0
  146.3493  155.5500  132.7847 H   0  0  0  0  0  0  0  0  0  0  0  0
  147.5442  157.7411  133.1150 H   0  0  0  0  0  0  0  0  0  0  0  0
  147.0956  160.5262  133.6223 H   0  0  0  0  0  0  0  0  0  0  0  0
  144.0270  164.1880  133.5530 H   0  0  0  0  0  0  0  0  0  0  0  0
  143.2610  162.7910  132.7330 H   0  0  0  0  0  0  0  0  0  0  0  0
  141.0716  160.1646  136.3253 H   0  0  0  0  0  0  0  0  0  0  0  0
  142.4286  158.9756  136.1983 H   0  0  0  0  0  0  0  0  0  0  0  0
  140.3247  158.1084  137.3215 H   0  0  0  0  0  0  0  0  0  0  0  0
  140.6900  155.9364  136.4913 H   0  0  0  0  0  0  0  0  0  0  0  0
  142.1113  156.6896  135.8000 H   0  0  0  0  0  0  0  0  0  0  0  0
  139.7691  155.6393  134.4003 H   0  0  0  0  0  0  0  0  0  0  0  0
  141.1591  156.3831  133.6398 H   0  0  0  0  0  0  0  0  0  0  0  0
  138.6926  157.5845  133.6224 H   0  0  0  0  0  0  0  0  0  0  0  0
  139.7117  159.7316  133.2494 H   0  0  0  0  0  0  0  0  0  0  0  0
  140.8473  158.4726  132.6188 H   0  0  0  0  0  0  0  0  0  0  0  0
  142.5176  157.5500  133.3668 H   0  0  0  0  0  0  0  0  0  0  0  0
  1  2  1  0
  2  3  1  0
  3  4  1  0
  4  5  2  0
  5  6  1  0
  6  7  2  0
  7  8  1  0
  8  9  2  0
  9 10  1  0
 10 11  1  0
 10 12  2  0
  9 13  1  0
 13 14  1  0
 14 15  2  0
 14 16  1  0
 16 17  1  0
 17 18  1  0
 18 19  1  0
 19 20  1  0
 20 21  1  0
 21 22  1  0
 21 23  1  0
 13 24  1  0
 24 25  2  0
 25  4  1  0
 24  7  1  0
 22 16  1  0
 23 18  1  0
  1 26  1  0
  1 27  1  0
  2 28  1  0
  2 29  1  0
  3 30  1  0
  3 31  1  0
  5 32  1  0
  6 33  1  0
  8 34  1  0
 11 35  1  0
 11 36  1  0
 17 37  1  0
 17 38  1  0
 18 39  1  1
 19 40  1  0
 19 41  1  0
 20 42  1  0
 20 43  1  0
 21 44  1  6
 22 45  1  0
 22 46  1  0
 25 47  1  0
M  END
>  <UniqueID>  (52) 
52

>  <SMILES>  (52) 
NCCc1ccc2cc(C(N)=O)n(C(=O)N3C[C@H]4CC[C@@H](C3)O4)c2c1

>  <Energy>  (52) 
90.6492972790763

>  <Genealogy>  (52) 
NCCc1ccc2cc(C(N)=O)n(C(=O)N3C[C@H]4CC[C@@H](C3)O4)c2c1 (chirality)
NCCc1ccc2cc(C(N)=O)n(C(=O)N3C[C@H]4CC[C@@H](C3)O4)c2c1 (3D coordinates assigned)
NCCc1ccc2cc(C(N)=O)n(C(=O)N3C[C@H]4CC[C@@H](C3)O4)c2c1 (nonaromatic ring conformer: 90.6492972790763 kcal/mol)

>  <smiles>  (52) 
NCCc1ccc2cc(C(N)=O)n(C(=O)N3CC4CCC(C3)O4)c2c1

>  <score_type>  (52) 
oracle

>  <origin>  (52) 
adg

>  <m_score__min__energy>  (52) 
-7.8600000000000003

>  <m_primary>  (52) 
energy

$$$$
52:0
     RDKit          3D

 50 53  0  0  0  0  0  0  0  0999 V2000
  148.3940  159.7010  133.7030 C   0  0  0  0  0  0  0  0  0  0  0  0
  147.7620  159.3950  132.3360 C   0  0  0  0  0  0  0  0  0  0  0  0
  148.0770  157.9340  131.9580 C   0  0  0  0  0  0  0  0  0  0  0  0
  148.3450  160.3640  131.2900 C   0  0  0  0  0  0  0  0  0  0  0  0
  146.3470  159.5880  132.4720 O   0  0  0  0  0  0  0  0  0  0  0  0
  145.5070  158.9670  133.4090 C   0  0  0  0  0  0  0  0  0  0  0  0
  145.9150  157.9940  134.0990 O   0  0  0  0  0  0  0  0  0  0  0  0
  144.1730  159.4630  133.5990 N   0  0  0  0  0  0  0  0  0  0  0  0
  143.7930  160.7430  133.8730 C   0  0  0  0  0  0  0  0  0  0  0  0
  144.6770  161.9280  133.8780 C   0  0  0  0  0  0  0  0  0  0  0  0
  146.0750  161.7690  134.1070 N   0  0  0  0  0  0  0  0  0  0  0  0
  144.2050  163.0840  133.7160 O   0  0  0  0  0  0  0  0  0  0  0  0
  142.4160  160.8100  134.0770 C   0  0  0  0  0  0  0  0  0  0  0  0
  141.9610  159.5220  133.9120 C   0  0  0  0  0  0  0  0  0  0  0  0
  140.6710  159.0110  134.0130 C   0  0  0  0  0  0  0  0  0  0  0  0
  140.4910  157.6310  133.8220 C   0  0  0  0  0  0  0  0  0  0  0  0
  141.5980  156.7860  133.5420 C   0  0  0  0  0  0  0  0  0  0  0  0
  141.3980  155.3260  133.3560 C   0  0  0  0  0  0  0  0  0  0  0  0
  142.4870  154.4420  133.3750 C   0  0  0  0  0  0  0  0  0  0  0  0
  142.2880  153.0720  133.2000 C   0  0  0  0  0  0  0  0  0  0  0  0
  140.9860  152.5790  133.0020 C   0  0  0  0  0  0  0  0  0  0  0  0
  140.7310  151.1730  132.8180 N   0  0  0  0  0  0  0  0  0  0  0  0
  139.7500  150.5850  132.1040 C   0  0  0  0  0  0  0  0  0  0  0  0
  139.9010  149.2210  132.2160 C   0  0  0  0  0  0  0  0  0  0  0  0
  140.9660  148.9460  132.9940 N   0  0  0  0  0  0  0  0  0  0  0  0
  141.4470  150.1570  133.3420 C   0  0  0  0  0  0  0  0  0  0  0  0
  139.9450  153.4570  132.9860 N   0  0  0  0  0  0  0  0  0  0  0  0
  140.1140  154.7930  133.1570 C   0  0  0  0  0  0  0  0  0  0  0  0
  142.8940  157.3480  133.4480 C   0  0  0  0  0  0  0  0  0  0  0  0
  143.0390  158.7280  133.6250 C   0  0  0  0  0  0  0  0  0  0  0  0
  147.7145  159.3720  134.5030 H   0  0  0  0  0  0  0  0  0  0  0  0
  149.3513  159.1666  133.7922 H   0  0  0  0  0  0  0  0  0  0  0  0
  148.5685  160.7834  133.7922 H   0  0  0  0  0  0  0  0  0  0  0  0
  148.2055  157.3379  132.8735 H   0  0  0  0  0  0  0  0  0  0  0  0
  147.2471  157.5215  131.3654 H   0  0  0  0  0  0  0  0  0  0  0  0
  149.0031  157.9001  131.3654 H   0  0  0  0  0  0  0  0  0  0  0  0
  148.8468  161.1981  131.8024 H   0  0  0  0  0  0  0  0  0  0  0  0
  149.0718  159.8299  130.6603 H   0  0  0  0  0  0  0  0  0  0  0  0
  147.5327  160.7560  130.6603 H   0  0  0  0  0  0  0  0  0  0  0  0
  146.7250  161.5460  133.3220 H   0  0  0  0  0  0  0  0  0  0  0  0
  141.8199  161.7024  134.3185 H   0  0  0  0  0  0  0  0  0  0  0  0
  139.8174  159.6680  134.2358 H   0  0  0  0  0  0  0  0  0  0  0  0
  139.4813  157.1998  133.8900 H   0  0  0  0  0  0  0  0  0  0  0  0
  143.5043  154.8312  133.5288 H   0  0  0  0  0  0  0  0  0  0  0  0
  143.1444  152.3819  133.2168 H   0  0  0  0  0  0  0  0  0  0  0  0
  138.9665  151.1039  131.5323 H   0  0  0  0  0  0  0  0  0  0  0  0
  139.2512  148.4703  131.7425 H   0  0  0  0  0  0  0  0  0  0  0  0
  142.3285  150.3007  133.9841 H   0  0  0  0  0  0  0  0  0  0  0  0
  139.2407  155.4616  133.1396 H   0  0  0  0  0  0  0  0  0  0  0  0
  143.7680  156.7132  133.2403 H   0  0  0  0  0  0  0  0  0  0  0  0
  1  2  1  0
  2  3  1  0
  2  4  1  0
  2  5  1  0
  5  6  1  0
  6  7  2  0
  6  8  1  0
  8  9  1  0
  9 10  1  0
 10 11  1  0
 10 12  2  0
  9 13  2  0
 13 14  1  0
 14 15  2  0
 15 16  1  0
 16 17  2  0
 17 18  1  0
 18 19  2  0
 19 20  1  0
 20 21  2  0
 21 22  1  0
 22 23  1  0
 23 24  2  0
 24 25  1  0
 25 26  2  0
 21 27  1  0
 27 28  2  0
 17 29  1  0
 29 30  2  0
 30  8  1  0
 30 14  1  0
 28 18  1  0
 26 22  1  0
  1 31  1  0
  1 32  1  0
  1 33  1  0
  3 34  1  0
  3 35  1  0
  3 36  1  0
  4 37  1  0
  4 38  1  0
  4 39  1  0
 11 40  1  0
 13 41  1  0
 15 42  1  0
 16 43  1  0
 19 44  1  0
 20 45  1  0
 23 46  1  0
 24 47  1  0
 26 48  1  0
 28 49  1  0
 29 50  1  0
M  CHG  1  11  -1
M  END
>  <UniqueID>  (53) 
53

>  <SMILES>  (53) 
CC(C)(C)OC(=O)n1c(C([NH-])=O)cc2ccc(-c3ccc(-n4ccnc4)nc3)cc21

>  <Energy>  (53) 
125.0376013109153

>  <Genealogy>  (53) 
CC(C)(C)OC(=O)n1c(C([NH-])=O)cc2ccc(-c3ccc(-n4ccnc4)nc3)cc21 (protonated)
CC(C)(C)OC(=O)n1c(C([NH-])=O)cc2ccc(-c3ccc(-n4ccnc4)nc3)cc21 (3D coordinates assigned)
CC(C)(C)OC(=O)n1c(C([NH-])=O)cc2ccc(-c3ccc(-n4ccnc4)nc3)cc21 (optimized conformer: 125.0376013109153 kcal/mol)

>  <smiles>  (53) 
CC(C)(C)OC(=O)n1c(C(N)=O)cc2ccc(-c3ccc(-n4ccnc4)nc3)cc21

>  <score_type>  (53) 
oracle

>  <origin>  (53) 
adg

>  <m_score__min__energy>  (53) 
-9.2300000000000004

>  <m_primary>  (53) 
energy

$$$$
53:0
     RDKit          3D

 36 38  0  0  0  0  0  0  0  0999 V2000
  142.5620  157.1820  132.6320 N   0  0  0  0  0  0  0  0  0  0  0  0
  142.3960  156.3240  133.7590 C   0  0  0  0  0  0  0  0  0  0  0  0
  142.3730  156.8230  134.9150 O   0  0  0  0  0  0  0  0  0  0  0  0
  142.2170  154.8710  133.5580 C   0  0  0  0  0  0  0  0  0  0  0  0
  143.2510  153.9440  133.6680 C   0  0  0  0  0  0  0  0  0  0  0  0
  142.6960  152.7350  133.3130 C   0  0  0  0  0  0  0  0  0  0  0  0
  143.2710  151.4710  133.2490 C   0  0  0  0  0  0  0  0  0  0  0  0
  142.4520  150.3940  132.8670 C   0  0  0  0  0  0  0  0  0  0  0  0
  141.0820  150.5930  132.5630 C   0  0  0  0  0  0  0  0  0  0  0  0
  140.2340  149.3990  132.1650 C   0  0  1  0  0  0  0  0  0  0  0  0
  139.1010  149.7170  131.1840 C   0  0  0  0  0  0  0  0  0  0  0  0
  139.7350  148.7780  130.1530 C   0  0  2  0  0  0  0  0  0  0  0  0
  140.1720  149.4820  129.0170 O   0  0  0  0  0  0  0  0  0  0  0  0
  138.8640  147.5920  129.8120 C   0  0  0  0  0  0  0  0  0  0  0  0
  138.3720  146.8800  130.7270 O   0  0  0  0  0  0  0  0  0  0  0  0
  138.6300  147.2490  128.4850 O   0  0  0  0  0  0  0  0  0  0  0  0
  140.8790  148.4720  131.1320 C   0  0  0  0  0  0  0  0  0  0  0  0
  140.5360  151.8990  132.6410 C   0  0  0  0  0  0  0  0  0  0  0  0
  141.3790  152.9530  133.0100 C   0  0  0  0  0  0  0  0  0  0  0  0
  141.0660  154.2580  133.1610 N   0  0  0  0  0  0  0  0  0  0  0  0
  139.7660  154.8440  132.9890 C   0  0  0  0  0  0  0  0  0  0  0  0
  139.6200  156.2580  132.8660 N   0  0  0  0  0  0  0  0  0  0  0  0
  138.7420  154.1090  132.9800 O   0  0  0  0  0  0  0  0  0  0  0  0
  142.6690  156.7910  131.6710 H   0  0  0  0  0  0  0  0  0  0  0  0
  144.2900  154.1369  133.9735 H   0  0  0  0  0  0  0  0  0  0  0  0
  144.3334  151.3182  133.4897 H   0  0  0  0  0  0  0  0  0  0  0  0
  142.8804  149.3829  132.8032 H   0  0  0  0  0  0  0  0  0  0  0  0
  140.0034  149.0266  133.1740 H   0  0  0  0  0  0  0  0  0  0  0  0
  139.0616  150.7701  130.8687 H   0  0  0  0  0  0  0  0  0  0  0  0
  138.0506  149.5884  131.4842 H   0  0  0  0  0  0  0  0  0  0  0  0
  140.0600  148.8700  128.2420 H   0  0  0  0  0  0  0  0  0  0  0  0
  141.8688  148.8039  130.7854 H   0  0  0  0  0  0  0  0  0  0  0  0
  141.1289  147.4329  131.3924 H   0  0  0  0  0  0  0  0  0  0  0  0
  139.4743  152.0795  132.4167 H   0  0  0  0  0  0  0  0  0  0  0  0
  138.6760  156.6810  132.7260 H   0  0  0  0  0  0  0  0  0  0  0  0
  140.4490  156.8860  132.9550 H   0  0  0  0  0  0  0  0  0  0  0  0
  1  2  1  0
  2  3  2  0
  2  4  1  0
  4  5  2  0
  5  6  1  0
  6  7  2  0
  7  8  1  0
  8  9  2  0
  9 10  1  0
 10 11  1  0
 11 12  1  0
 12 13  1  6
 12 14  1  0
 14 15  2  0
 14 16  1  0
 12 17  1  0
  9 18  1  0
 18 19  2  0
 19 20  1  0
 20 21  1  0
 21 22  1  0
 21 23  2  0
 20  4  1  0
 19  6  1  0
 17 10  1  0
  1 24  1  0
  5 25  1  0
  7 26  1  0
  8 27  1  0
 10 28  1  1
 11 29  1  0
 11 30  1  0
 13 31  1  0
 17 32  1  0
 17 33  1  0
 18 34  1  0
 22 35  1  0
 22 36  1  0
M  CHG  2   1  -1  16  -1
M  END
>  <UniqueID>  (54) 
54

>  <SMILES>  (54) 
[NH-]C(=O)c1cc2ccc(C3CC(O)(C(=O)[O-])C3)cc2n1C(N)=O

>  <Energy>  (54) 
140.08511727114475

>  <Genealogy>  (54) 
[NH-]C(=O)c1cc2ccc(C3CC(O)(C(=O)[O-])C3)cc2n1C(N)=O (protonated)
[NH-]C(=O)c1cc2ccc(C3CC(O)(C(=O)[O-])C3)cc2n1C(N)=O (3D coordinates assigned)
[NH-]C(=O)c1cc2ccc(C3CC(O)(C(=O)[O-])C3)cc2n1C(N)=O (nonaromatic ring conformer: 140.08511727114475 kcal/mol)

>  <smiles>  (54) 
NC(=O)c1cc2ccc(C3CC(O)(C(=O)O)C3)cc2n1C(N)=O

>  <score_type>  (54) 
oracle

>  <origin>  (54) 
adg

>  <m_score__min__energy>  (54) 
-7.7199999999999998

>  <m_primary>  (54) 
energy

$$$$
54:0
     RDKit          3D

 44 45  0  0  0  0  0  0  0  0999 V2000
  149.3990  161.1030  130.4150 C   0  0  0  0  0  0  0  0  0  0  0  0
  148.9210  159.7920  131.0270 C   0  0  0  0  0  0  0  0  0  0  0  0
  148.0750  160.0380  132.1480 O   0  0  0  0  0  0  0  0  0  0  0  0
  148.0040  159.1920  133.2620 C   0  0  0  0  0  0  0  0  0  0  0  0
  148.8240  159.3190  134.2110 O   0  0  0  0  0  0  0  0  0  0  0  0
  146.9840  158.1820  133.3250 N   0  0  0  0  0  0  0  0  0  0  0  0
  145.6600  158.3570  133.5950 C   0  0  0  0  0  0  0  0  0  0  0  0
  144.9750  159.6620  133.7240 C   0  0  0  0  0  0  0  0  0  0  0  0
  145.5890  160.8590  133.2450 N   0  0  0  0  0  0  0  0  0  0  0  0
  143.8510  159.7330  134.2890 O   0  0  0  0  0  0  0  0  0  0  0  0
  145.0040  157.1280  133.6420 C   0  0  0  0  0  0  0  0  0  0  0  0
  145.9750  156.1870  133.3900 C   0  0  0  0  0  0  0  0  0  0  0  0
  145.8800  154.7990  133.3210 C   0  0  0  0  0  0  0  0  0  0  0  0
  147.0530  154.0720  133.0620 C   0  0  0  0  0  0  0  0  0  0  0  0
  148.2920  154.7370  132.8870 C   0  0  0  0  0  0  0  0  0  0  0  0
  149.5410  153.9490  132.5930 C   0  0  0  0  0  0  0  0  0  0  0  0
  149.2460  152.5830  131.9490 C   0  0  0  0  0  0  0  0  0  0  0  0
  150.1760  151.4460  132.4510 C   0  0  0  0  0  0  0  0  0  0  0  0
  149.6440  150.8080  133.7450 C   0  0  0  0  0  0  0  0  0  0  0  0
  150.3320  150.3610  131.3750 C   0  0  0  0  0  0  0  0  0  0  0  0
  148.3490  156.1450  132.9640 C   0  0  0  0  0  0  0  0  0  0  0  0
  147.1620  156.8470  133.2020 C   0  0  0  0  0  0  0  0  0  0  0  0
  149.6567  161.8098  131.2175 H   0  0  0  0  0  0  0  0  0  0  0  0
  150.2865  160.9151  129.7928 H   0  0  0  0  0  0  0  0  0  0  0  0
  148.5989  161.5305  129.7928 H   0  0  0  0  0  0  0  0  0  0  0  0
  148.3612  159.2231  130.2701 H   0  0  0  0  0  0  0  0  0  0  0  0
  149.7973  159.2189  131.3643 H   0  0  0  0  0  0  0  0  0  0  0  0
  145.1140  161.7800  133.3760 H   0  0  0  0  0  0  0  0  0  0  0  0
  146.4940  160.8350  132.7260 H   0  0  0  0  0  0  0  0  0  0  0  0
  143.9367  156.9488  133.8388 H   0  0  0  0  0  0  0  0  0  0  0  0
  144.9163  154.2885  133.4649 H   0  0  0  0  0  0  0  0  0  0  0  0
  147.0097  152.9749  132.9942 H   0  0  0  0  0  0  0  0  0  0  0  0
  150.1714  154.5327  131.9060 H   0  0  0  0  0  0  0  0  0  0  0  0
  150.0475  153.7611  133.5512 H   0  0  0  0  0  0  0  0  0  0  0  0
  148.2058  152.3080  132.1777 H   0  0  0  0  0  0  0  0  0  0  0  0
  149.4222  152.6907  130.8686 H   0  0  0  0  0  0  0  0  0  0  0  0
  151.1562  151.8979  132.6630 H   0  0  0  0  0  0  0  0  0  0  0  0
  150.0761  151.3261  134.6138 H   0  0  0  0  0  0  0  0  0  0  0  0
  148.5479  150.8959  133.7734 H   0  0  0  0  0  0  0  0  0  0  0  0
  149.9275  149.7455  133.7734 H   0  0  0  0  0  0  0  0  0  0  0  0
  150.4726  149.3829  131.8583 H   0  0  0  0  0  0  0  0  0  0  0  0
  149.4285  150.3337  130.7481 H   0  0  0  0  0  0  0  0  0  0  0  0
  151.2065  150.5894  130.7481 H   0  0  0  0  0  0  0  0  0  0  0  0
  149.3033  156.6778  132.8400 H   0  0  0  0  0  0  0  0  0  0  0  0
  1  2  1  0
  2  3  1  0
  3  4  1  0
  4  5  2  0
  4  6  1  0
  6  7  1  0
  7  8  1  0
  8  9  1  0
  8 10  2  0
  7 11  2  0
 11 12  1  0
 12 13  2  0
 13 14  1  0
 14 15  2  0
 15 16  1  0
 16 17  1  0
 17 18  1  0
 18 19  1  0
 18 20  1  0
 15 21  1  0
 21 22  2  0
 22  6  1  0
 22 12  1  0
  1 23  1  0
  1 24  1  0
  1 25  1  0
  2 26  1  0
  2 27  1  0
  9 28  1  0
  9 29  1  0
 11 30  1  0
 13 31  1  0
 14 32  1  0
 16 33  1  0
 16 34  1  0
 17 35  1  0
 17 36  1  0
 18 37  1  0
 19 38  1  0
 19 39  1  0
 19 40  1  0
 20 41  1  0
 20 42  1  0
 20 43  1  0
 21 44  1  0
M  END
>  <UniqueID>  (55) 
55

>  <SMILES>  (55) 
CCOC(=O)n1c(C(N)=O)cc2ccc(CCC(C)C)cc21

>  <Energy>  (55) 
72.35214549488767

>  <Genealogy>  (55) 
CCOC(=O)n1c(C(N)=O)cc2ccc(CCC(C)C)cc21 (3D coordinates assigned)
CCOC(=O)n1c(C(N)=O)cc2ccc(CCC(C)C)cc21 (optimized conformer: 72.35214549488767 kcal/mol)

>  <smiles>  (55) 
CCOC(=O)n1c(C(N)=O)cc2ccc(CCC(C)C)cc21

>  <score_type>  (55) 
oracle

>  <origin>  (55) 
adg

>  <m_score__min__energy>  (55) 
-7.6799999999999997

>  <m_primary>  (55) 
energy

$$$$
55:0
     RDKit          3D

 29 31  0  0  0  0  0  0  0  0999 V2000
  142.9910  160.6420  133.3730 N   0  0  0  0  0  0  0  0  0  0  0  0
  144.3620  160.7820  133.7340 C   0  0  0  0  0  0  0  0  0  0  0  0
  144.7340  161.8160  134.3500 O   0  0  0  0  0  0  0  0  0  0  0  0
  145.3410  159.7120  133.4420 C   0  0  0  0  0  0  0  0  0  0  0  0
  146.6810  159.9580  133.1540 C   0  0  0  0  0  0  0  0  0  0  0  0
  147.2610  158.7170  133.0280 C   0  0  0  0  0  0  0  0  0  0  0  0
  148.5740  158.3690  132.7350 C   0  0  0  0  0  0  0  0  0  0  0  0
  148.8900  157.0040  132.6360 C   0  0  0  0  0  0  0  0  0  0  0  0
  147.8920  156.0100  132.8210 C   0  0  0  0  0  0  0  0  0  0  0  0
  148.2360  154.5700  132.7010 C   0  0  0  0  0  0  0  0  0  0  0  0
  149.5000  154.1020  132.2960 C   0  0  0  0  0  0  0  0  0  0  0  0
  149.5990  152.7190  132.2530 C   0  0  0  0  0  0  0  0  0  0  0  0
  148.1200  152.0750  132.7150 S   0  0  0  0  0  0  0  0  0  0  0  0
  147.3390  153.5380  132.9790 C   0  0  0  0  0  0  0  0  0  0  0  0
  146.5660  156.4080  133.1180 C   0  0  0  0  0  0  0  0  0  0  0  0
  146.2860  157.7750  133.2310 C   0  0  0  0  0  0  0  0  0  0  0  0
  145.0990  158.3710  133.4870 N   0  0  0  0  0  0  0  0  0  0  0  0
  143.8370  157.7100  133.6700 C   0  0  0  0  0  0  0  0  0  0  0  0
  142.8010  157.8600  132.7030 N   0  0  0  0  0  0  0  0  0  0  0  0
  143.6350  157.0030  134.6930 O   0  0  0  0  0  0  0  0  0  0  0  0
  142.7060  160.0400  132.5700 H   0  0  0  0  0  0  0  0  0  0  0  0
  147.1716  160.9369  133.0495 H   0  0  0  0  0  0  0  0  0  0  0  0
  149.3438  159.1403  132.5849 H   0  0  0  0  0  0  0  0  0  0  0  0
  149.9235  156.7008  132.4124 H   0  0  0  0  0  0  0  0  0  0  0  0
  150.3333  154.7717  132.0372 H   0  0  0  0  0  0  0  0  0  0  0  0
  150.4919  152.1443  131.9659 H   0  0  0  0  0  0  0  0  0  0  0  0
  146.2985  153.6616  133.3138 H   0  0  0  0  0  0  0  0  0  0  0  0
  145.7726  155.6589  133.2570 H   0  0  0  0  0  0  0  0  0  0  0  0
  142.6000  158.7900  132.2720 H   0  0  0  0  0  0  0  0  0  0  0  0
  1  2  1  0
  2  3  2  0
  2  4  1  0
  4  5  2  0
  5  6  1  0
  6  7  2  0
  7  8  1  0
  8  9  2  0
  9 10  1  0
 10 11  1  0
 11 12  2  0
 12 13  1  0
 13 14  1  0
  9 15  1  0
 15 16  2  0
 16 17  1  0
 17 18  1  0
 18 19  1  0
 18 20  2  0
 17  4  1  0
 16  6  1  0
 14 10  2  0
  1 21  1  0
  5 22  1  0
  7 23  1  0
  8 24  1  0
 11 25  1  0
 12 26  1  0
 14 27  1  0
 15 28  1  0
 19 29  1  0
M  CHG  2   1  -1  19  -1
M  END
>  <UniqueID>  (56) 
56

>  <SMILES>  (56) 
[NH-]C(=O)c1cc2ccc(-c3ccsc3)cc2n1C([NH-])=O

>  <Energy>  (56) 
100.39290383887972

>  <Genealogy>  (56) 
[NH-]C(=O)c1cc2ccc(-c3ccsc3)cc2n1C([NH-])=O (protonated)
[NH-]C(=O)c1cc2ccc(-c3ccsc3)cc2n1C([NH-])=O (3D coordinates assigned)
[NH-]C(=O)c1cc2ccc(-c3ccsc3)cc2n1C([NH-])=O (optimized conformer: 100.39290383887972 kcal/mol)

>  <smiles>  (56) 
NC(=O)c1cc2ccc(-c3ccsc3)cc2n1C(N)=O

>  <score_type>  (56) 
oracle

>  <origin>  (56) 
adg

>  <m_score__min__energy>  (56) 
-6.9400000000000004

>  <m_primary>  (56) 
energy

$$$$
56:0
     RDKit          3D

 42 44  0  0  0  0  0  0  0  0999 V2000
  139.1250  146.2900  129.6820 C   0  0  0  0  0  0  0  0  0  0  0  0
  139.0200  147.7830  129.6000 C   0  0  0  0  0  0  0  0  0  0  0  0
  138.4020  148.2870  128.6230 O   0  0  0  0  0  0  0  0  0  0  0  0
  139.6200  148.6720  130.6320 C   0  0  0  0  0  0  0  0  0  0  0  0
  138.8580  149.6660  131.2750 C   0  0  0  0  0  0  0  0  0  0  0  0
  139.4380  150.4950  132.2380 C   0  0  0  0  0  0  0  0  0  0  0  0
  140.7900  150.3490  132.5830 C   0  0  0  0  0  0  0  0  0  0  0  0
  141.4210  151.2890  133.5820 C   0  0  0  0  0  0  0  0  0  0  0  0
  142.2500  152.3810  132.8920 C   0  0  0  0  0  0  0  0  0  0  0  0
  141.6190  153.7410  133.0460 C   0  0  0  0  0  0  0  0  0  0  0  0
  140.2090  153.8800  133.0070 C   0  0  0  0  0  0  0  0  0  0  0  0
  139.6090  155.1360  133.1930 C   0  0  0  0  0  0  0  0  0  0  0  0
  140.4390  156.2270  133.4290 C   0  0  0  0  0  0  0  0  0  0  0  0
  140.1250  157.5510  133.6250 C   0  0  0  0  0  0  0  0  0  0  0  0
  141.3440  158.1980  133.8120 C   0  0  0  0  0  0  0  0  0  0  0  0
  141.4580  159.6330  134.1440 C   0  0  0  0  0  0  0  0  0  0  0  0
  142.1930  160.5240  133.3100 N   0  0  0  0  0  0  0  0  0  0  0  0
  140.9400  160.0710  135.2060 O   0  0  0  0  0  0  0  0  0  0  0  0
  142.3750  157.3090  133.7270 N   0  0  0  0  0  0  0  0  0  0  0  0
  143.7840  157.5840  133.7810 C   0  0  0  0  0  0  0  0  0  0  0  0
  144.5350  156.9150  134.5400 O   0  0  0  0  0  0  0  0  0  0  0  0
  144.3290  158.6080  133.0170 O   0  0  0  0  0  0  0  0  0  0  0  0
  141.8030  156.1060  133.4950 C   0  0  0  0  0  0  0  0  0  0  0  0
  142.4300  154.8710  133.2930 C   0  0  0  0  0  0  0  0  0  0  0  0
  141.5590  149.3650  131.9400 C   0  0  0  0  0  0  0  0  0  0  0  0
  142.8750  149.2140  132.2380 F   0  0  0  0  0  0  0  0  0  0  0  0
  140.9770  148.5340  130.9780 C   0  0  0  0  0  0  0  0  0  0  0  0
  139.1467  145.9814  130.7376 H   0  0  0  0  0  0  0  0  0  0  0  0
  138.2567  145.8335  129.1843 H   0  0  0  0  0  0  0  0  0  0  0  0
  140.0486  145.9595  129.1843 H   0  0  0  0  0  0  0  0  0  0  0  0
  137.7961  149.7909  131.0166 H   0  0  0  0  0  0  0  0  0  0  0  0
  138.8299  151.2685  132.7298 H   0  0  0  0  0  0  0  0  0  0  0  0
  140.6258  151.7660  134.1737 H   0  0  0  0  0  0  0  0  0  0  0  0
  142.0945  150.7031  134.2248 H   0  0  0  0  0  0  0  0  0  0  0  0
  143.2549  152.4016  133.3390 H   0  0  0  0  0  0  0  0  0  0  0  0
  142.3007  152.1461  131.8186 H   0  0  0  0  0  0  0  0  0  0  0  0
  139.5789  152.9960  132.8294 H   0  0  0  0  0  0  0  0  0  0  0  0
  138.5160  155.2535  133.1533 H   0  0  0  0  0  0  0  0  0  0  0  0
  139.1225  158.0038  133.6325 H   0  0  0  0  0  0  0  0  0  0  0  0
  142.8630  160.1620  132.5940 H   0  0  0  0  0  0  0  0  0  0  0  0
  143.5259  154.7826  133.3257 H   0  0  0  0  0  0  0  0  0  0  0  0
  141.5874  147.7628  130.4855 H   0  0  0  0  0  0  0  0  0  0  0  0
  1  2  1  0
  2  3  2  0
  2  4  1  0
  4  5  2  0
  5  6  1  0
  6  7  2  0
  7  8  1  0
  8  9  1  0
  9 10  1  0
 10 11  2  0
 11 12  1  0
 12 13  2  0
 13 14  1  0
 14 15  2  0
 15 16  1  0
 16 17  1  0
 16 18  2  0
 15 19  1  0
 19 20  1  0
 20 21  2  0
 20 22  1  0
 19 23  1  0
 23 24  2  0
  7 25  1  0
 25 26  1  0
 25 27  2  0
 27  4  1  0
 24 10  1  0
 23 13  1  0
  1 28  1  0
  1 29  1  0
  1 30  1  0
  5 31  1  0
  6 32  1  0
  8 33  1  0
  8 34  1  0
  9 35  1  0
  9 36  1  0
 11 37  1  0
 12 38  1  0
 14 39  1  0
 17 40  1  0
 24 41  1  0
 27 42  1  0
M  CHG  2  17  -1  22  -1
M  END
>  <UniqueID>  (57) 
57

>  <SMILES>  (57) 
CC(=O)c1ccc(CCc2ccc3cc(C([NH-])=O)n(C(=O)[O-])c3c2)c(F)c1

>  <Energy>  (57) 
81.07179239522512

>  <Genealogy>  (57) 
CC(=O)c1ccc(CCc2ccc3cc(C([NH-])=O)n(C(=O)[O-])c3c2)c(F)c1 (protonated)
CC(=O)c1ccc(CCc2ccc3cc(C([NH-])=O)n(C(=O)[O-])c3c2)c(F)c1 (3D coordinates assigned)
CC(=O)c1ccc(CCc2ccc3cc(C([NH-])=O)n(C(=O)[O-])c3c2)c(F)c1 (optimized conformer: 81.07179239522512 kcal/mol)

>  <smiles>  (57) 
CC(=O)c1ccc(CCc2ccc3cc(C(N)=O)n(C(=O)O)c3c2)c(F)c1

>  <score_type>  (57) 
oracle

>  <origin>  (57) 
adg

>  <m_score__min__energy>  (57) 
-8.9000000000000004

>  <m_primary>  (57) 
energy

$$$$
57:0
     RDKit          3D

 36 37  0  0  0  0  0  0  0  0999 V2000
  145.9730  162.9140  134.4700 C   0  0  0  0  0  0  0  0  0  0  0  0
  145.1150  161.8690  134.9120 O   0  0  0  0  0  0  0  0  0  0  0  0
  144.1950  161.2410  134.0670 C   0  0  0  0  0  0  0  0  0  0  0  0
  143.2610  161.9040  133.5390 O   0  0  0  0  0  0  0  0  0  0  0  0
  144.3300  159.8390  133.7800 N   0  0  0  0  0  0  0  0  0  0  0  0
  143.3670  158.8770  133.8590 C   0  0  0  0  0  0  0  0  0  0  0  0
  141.9250  159.1090  134.0850 C   0  0  0  0  0  0  0  0  0  0  0  0
  141.4780  160.1120  134.9950 N   0  0  0  0  0  0  0  0  0  0  0  0
  141.0770  158.4470  133.4300 O   0  0  0  0  0  0  0  0  0  0  0  0
  143.9090  157.6190  133.6080 C   0  0  0  0  0  0  0  0  0  0  0  0
  145.2460  157.8410  133.3630 C   0  0  0  0  0  0  0  0  0  0  0  0
  146.2620  156.9390  133.0620 C   0  0  0  0  0  0  0  0  0  0  0  0
  147.5600  157.4450  132.8820 C   0  0  0  0  0  0  0  0  0  0  0  0
  147.8190  158.8310  133.0240 C   0  0  0  0  0  0  0  0  0  0  0  0
  149.2100  159.3640  132.8040 C   0  0  0  0  0  0  0  0  0  0  0  0
  149.7910  158.8260  131.4930 C   0  0  0  0  0  0  0  0  0  0  0  0
  150.1240  159.9670  130.5290 C   0  0  0  0  0  0  0  0  0  0  0  0
  148.9850  160.9320  130.4450 C   0  0  0  0  0  0  0  0  0  0  0  0
  147.8030  160.5100  130.3390 O   0  0  0  0  0  0  0  0  0  0  0  0
  149.2300  162.3000  130.4340 O   0  0  0  0  0  0  0  0  0  0  0  0
  146.7610  159.7190  133.3190 C   0  0  0  0  0  0  0  0  0  0  0  0
  145.4740  159.1880  133.4740 C   0  0  0  0  0  0  0  0  0  0  0  0
  146.3986  163.4324  135.3418 H   0  0  0  0  0  0  0  0  0  0  0  0
  146.7861  162.4889  133.8632 H   0  0  0  0  0  0  0  0  0  0  0  0
  145.3978  163.6288  133.8632 H   0  0  0  0  0  0  0  0  0  0  0  0
  141.7320  161.1150  134.8550 H   0  0  0  0  0  0  0  0  0  0  0  0
  143.3816  156.6537  133.6059 H   0  0  0  0  0  0  0  0  0  0  0  0
  146.0550  155.8627  132.9679 H   0  0  0  0  0  0  0  0  0  0  0  0
  148.3823  156.7597  132.6287 H   0  0  0  0  0  0  0  0  0  0  0  0
  149.1737  160.4625  132.7597 H   0  0  0  0  0  0  0  0  0  0  0  0
  149.8509  159.0384  133.6366 H   0  0  0  0  0  0  0  0  0  0  0  0
  150.7091  158.2611  131.7119 H   0  0  0  0  0  0  0  0  0  0  0  0
  149.0409  158.1758  131.0191 H   0  0  0  0  0  0  0  0  0  0  0  0
  151.0196  160.4948  130.8886 H   0  0  0  0  0  0  0  0  0  0  0  0
  150.3073  159.5457  129.5295 H   0  0  0  0  0  0  0  0  0  0  0  0
  146.9428  160.7988  133.4242 H   0  0  0  0  0  0  0  0  0  0  0  0
  1  2  1  0
  2  3  1  0
  3  4  2  0
  3  5  1  0
  5  6  1  0
  6  7  1  0
  7  8  1  0
  7  9  2  0
  6 10  2  0
 10 11  1  0
 11 12  2  0
 12 13  1  0
 13 14  2  0
 14 15  1  0
 15 16  1  0
 16 17  1  0
 17 18  1  0
 18 19  2  0
 18 20  1  0
 14 21  1  0
 21 22  2  0
 22  5  1  0
 22 11  1  0
  1 23  1  0
  1 24  1  0
  1 25  1  0
  8 26  1  0
 10 27  1  0
 12 28  1  0
 13 29  1  0
 15 30  1  0
 15 31  1  0
 16 32  1  0
 16 33  1  0
 17 34  1  0
 17 35  1  0
 21 36  1  0
M  CHG  2   8  -1  20  -1
M  END
>  <UniqueID>  (58) 
58

>  <SMILES>  (58) 
COC(=O)n1c(C([NH-])=O)cc2ccc(CCCC(=O)[O-])cc21

>  <Energy>  (58) 
67.27477369227506

>  <Genealogy>  (58) 
COC(=O)n1c(C([NH-])=O)cc2ccc(CCCC(=O)[O-])cc21 (protonated)
COC(=O)n1c(C([NH-])=O)cc2ccc(CCCC(=O)[O-])cc21 (3D coordinates assigned)
COC(=O)n1c(C([NH-])=O)cc2ccc(CCCC(=O)[O-])cc21 (optimized conformer: 67.27477369227506 kcal/mol)

>  <smiles>  (58) 
COC(=O)n1c(C(N)=O)cc2ccc(CCCC(=O)O)cc21

>  <score_type>  (58) 
oracle

>  <origin>  (58) 
adg

>  <m_score__min__energy>  (58) 
-6.8399999999999999

>  <m_primary>  (58) 
energy

$$$$
58:0
     RDKit          3D

 51 53  0  0  0  0  0  0  0  0999 V2000
  138.6840  159.4550  130.7440 C   0  0  0  0  0  0  0  0  0  0  0  0
  138.4450  158.6450  131.7800 C   0  0  0  0  0  0  0  0  0  0  0  0
  139.5400  157.8380  132.4210 C   0  0  0  0  0  0  0  0  0  0  0  0
  139.2080  157.4490  133.8650 C   0  0  0  0  0  0  0  0  0  0  0  0
  139.8770  156.2440  134.2320 O   0  0  0  0  0  0  0  0  0  0  0  0
  140.1340  155.1920  133.3440 C   0  0  0  0  0  0  0  0  0  0  0  0
  139.2030  154.6990  132.6510 O   0  0  0  0  0  0  0  0  0  0  0  0
  141.4610  154.6500  133.2500 N   0  0  0  0  0  0  0  0  0  0  0  0
  142.6470  155.3220  133.2700 C   0  0  0  0  0  0  0  0  0  0  0  0
  142.8210  156.7680  133.5300 C   0  0  0  0  0  0  0  0  0  0  0  0
  142.5070  157.2990  134.8150 N   0  0  0  0  0  0  0  0  0  0  0  0
  143.2090  157.5450  132.6190 O   0  0  0  0  0  0  0  0  0  0  0  0
  143.7110  154.4400  133.0950 C   0  0  0  0  0  0  0  0  0  0  0  0
  143.1380  153.1950  132.9740 C   0  0  0  0  0  0  0  0  0  0  0  0
  143.7300  151.9530  132.7740 C   0  0  0  0  0  0  0  0  0  0  0  0
  142.8890  150.8320  132.6640 C   0  0  0  0  0  0  0  0  0  0  0  0
  141.4790  150.9690  132.7500 C   0  0  0  0  0  0  0  0  0  0  0  0
  140.5890  149.7460  132.6120 C   0  0  2  0  0  0  0  0  0  0  0  0
  141.1420  148.7830  131.5420 C   0  0  0  0  0  0  0  0  0  0  0  0
  140.0810  147.7380  131.1740 C   0  0  0  0  0  0  0  0  0  0  0  0
  138.8360  148.3420  130.6130 N   0  0  2  0  0  0  0  0  0  0  0  0
  138.7620  148.1340  129.1560 C   0  0  0  0  0  0  0  0  0  0  0  0
  138.6630  149.7850  130.9220 C   0  0  0  0  0  0  0  0  0  0  0  0
  139.1070  150.1240  132.3530 C   0  0  0  0  0  0  0  0  0  0  0  0
  140.9180  152.2540  132.9460 C   0  0  0  0  0  0  0  0  0  0  0  0
  141.7800  153.3490  133.0730 C   0  0  0  0  0  0  0  0  0  0  0  0
  137.8618  160.0327  130.2964 H   0  0  0  0  0  0  0  0  0  0  0  0
  139.7029  159.5439  130.3390 H   0  0  0  0  0  0  0  0  0  0  0  0
  137.4209  158.5667  132.1738 H   0  0  0  0  0  0  0  0  0  0  0  0
  139.6929  156.9204  131.8339 H   0  0  0  0  0  0  0  0  0  0  0  0
  140.4477  158.4591  132.4406 H   0  0  0  0  0  0  0  0  0  0  0  0
  139.5269  158.2580  134.5387 H   0  0  0  0  0  0  0  0  0  0  0  0
  138.1228  157.2883  133.9460 H   0  0  0  0  0  0  0  0  0  0  0  0
  141.5560  157.1770  135.2290 H   0  0  0  0  0  0  0  0  0  0  0  0
  144.7824  154.6867  133.0608 H   0  0  0  0  0  0  0  0  0  0  0  0
  144.8230  151.8507  132.7040 H   0  0  0  0  0  0  0  0  0  0  0  0
  143.3294  149.8359  132.5093 H   0  0  0  0  0  0  0  0  0  0  0  0
  140.6025  149.2150  133.5753 H   0  0  0  0  0  0  0  0  0  0  0  0
  141.4154  149.3558  130.6436 H   0  0  0  0  0  0  0  0  0  0  0  0
  142.0285  148.2700  131.9432 H   0  0  0  0  0  0  0  0  0  0  0  0
  140.5073  147.0547  130.4248 H   0  0  0  0  0  0  0  0  0  0  0  0
  139.8031  147.2119  132.0992 H   0  0  0  0  0  0  0  0  0  0  0  0
  138.0210  147.8330  131.0320 H   0  0  0  0  0  0  0  0  0  0  0  0
  138.3998  147.1162  128.9488 H   0  0  0  0  0  0  0  0  0  0  0  0
  138.0693  148.8664  128.7158 H   0  0  0  0  0  0  0  0  0  0  0  0
  139.7616  148.2642  128.7158 H   0  0  0  0  0  0  0  0  0  0  0  0
  139.2646  150.3744  130.2144 H   0  0  0  0  0  0  0  0  0  0  0  0
  137.5935  150.0261  130.8318 H   0  0  0  0  0  0  0  0  0  0  0  0
  138.9835  151.2049  132.5155 H   0  0  0  0  0  0  0  0  0  0  0  0
  138.4837  149.5410  133.0469 H   0  0  0  0  0  0  0  0  0  0  0  0
  139.8275  152.3888  132.9974 H   0  0  0  0  0  0  0  0  0  0  0  0
  1  2  2  0
  2  3  1  0
  3  4  1  0
  4  5  1  0
  5  6  1  0
  6  7  2  0
  6  8  1  0
  8  9  1  0
  9 10  1  0
 10 11  1  0
 10 12  2  0
  9 13  2  0
 13 14  1  0
 14 15  2  0
 15 16  1  0
 16 17  2  0
 17 18  1  0
 18 19  1  0
 19 20  1  0
 20 21  1  0
 21 22  1  0
 21 23  1  0
 23 24  1  0
 17 25  1  0
 25 26  2  0
 26  8  1  0
 26 14  1  0
 24 18  1  0
  1 27  1  0
  1 28  1  0
  2 29  1  0
  3 30  1  0
  3 31  1  0
  4 32  1  0
  4 33  1  0
 11 34  1  0
 13 35  1  0
 15 36  1  0
 16 37  1  0
 18 38  1  1
 19 39  1  0
 19 40  1  0
 20 41  1  0
 20 42  1  0
 21 43  1  1
 22 44  1  0
 22 45  1  0
 22 46  1  0
 23 47  1  0
 23 48  1  0
 24 49  1  0
 24 50  1  0
 25 51  1  0
M  CHG  2  11  -1  21   1
M  END
>  <UniqueID>  (59) 
59

>  <SMILES>  (59) 
C=CCCOC(=O)n1c(C([NH-])=O)cc2ccc(C3CC[NH+](C)CC3)cc21

>  <Energy>  (59) 
93.17517000502197

>  <Genealogy>  (59) 
C=CCCOC(=O)n1c(C([NH-])=O)cc2ccc(C3CC[NH+](C)CC3)cc21 (protonated)
C=CCCOC(=O)n1c(C([NH-])=O)cc2ccc(C3CC[NH+](C)CC3)cc21 (3D coordinates assigned)
C=CCCOC(=O)n1c(C([NH-])=O)cc2ccc(C3CC[NH+](C)CC3)cc21 (nonaromatic ring conformer: 93.17517000502197 kcal/mol)

>  <smiles>  (59) 
C=CCCOC(=O)n1c(C(N)=O)cc2ccc(C3CCN(C)CC3)cc21

>  <score_type>  (59) 
oracle

>  <origin>  (59) 
adg

>  <m_score__min__energy>  (59) 
-7.6200000000000001

>  <m_primary>  (59) 
energy

$$$$
59:0
     RDKit          3D

 25 26  0  0  0  0  0  0  0  0999 V2000
  139.4840  146.6070  129.9510 C   0  0  0  0  0  0  0  0  0  0  0  0
  139.5300  147.9210  130.6740 C   0  0  0  0  0  0  0  0  0  0  0  0
  138.3440  148.6730  130.8550 C   0  0  0  0  0  0  0  0  0  0  0  0
  138.3830  149.9280  131.4850 C   0  0  0  0  0  0  0  0  0  0  0  0
  139.6160  150.4030  131.9170 C   0  0  0  0  0  0  0  0  0  0  0  0
  139.9400  151.5930  132.5280 C   0  0  0  0  0  0  0  0  0  0  0  0
  141.3200  151.5490  132.7180 C   0  0  0  0  0  0  0  0  0  0  0  0
  142.0880  152.5950  133.4290 C   0  0  0  0  0  0  0  0  0  0  0  0
  143.1870  153.2500  132.7950 N   0  0  0  0  0  0  0  0  0  0  0  0
  141.7560  152.9420  134.5930 O   0  0  0  0  0  0  0  0  0  0  0  0
  141.8300  150.3770  132.2400 N   0  0  0  0  0  0  0  0  0  0  0  0
  143.2100  149.9750  132.1930 C   0  0  0  0  0  0  0  0  0  0  0  0
  143.5170  148.7550  132.1350 O   0  0  0  0  0  0  0  0  0  0  0  0
  144.2210  150.9270  132.2280 O   0  0  0  0  0  0  0  0  0  0  0  0
  140.7740  149.6870  131.7540 C   0  0  0  0  0  0  0  0  0  0  0  0
  140.7680  148.4420  131.1110 C   0  0  0  0  0  0  0  0  0  0  0  0
  139.4553  145.7865  130.6831 H   0  0  0  0  0  0  0  0  0  0  0  0
  138.5839  146.5670  129.3199 H   0  0  0  0  0  0  0  0  0  0  0  0
  140.3791  146.5042  129.3199 H   0  0  0  0  0  0  0  0  0  0  0  0
  137.3838  148.2711  130.4992 H   0  0  0  0  0  0  0  0  0  0  0  0
  137.4657  150.5170  131.6320 H   0  0  0  0  0  0  0  0  0  0  0  0
  139.2546  152.4068  132.8073 H   0  0  0  0  0  0  0  0  0  0  0  0
  143.6980  154.0150  133.2890 H   0  0  0  0  0  0  0  0  0  0  0  0
  143.5260  152.9540  131.8530 H   0  0  0  0  0  0  0  0  0  0  0  0
  141.7029  147.8850  130.9507 H   0  0  0  0  0  0  0  0  0  0  0  0
  1  2  1  0
  2  3  2  0
  3  4  1  0
  4  5  2  0
  5  6  1  0
  6  7  2  0
  7  8  1  0
  8  9  1  0
  8 10  2  0
  7 11  1  0
 11 12  1  0
 12 13  2  0
 12 14  1  0
 11 15  1  0
 15 16  2  0
 16  2  1  0
 15  5  1  0
  1 17  1  0
  1 18  1  0
  1 19  1  0
  3 20  1  0
  4 21  1  0
  6 22  1  0
  9 23  1  0
  9 24  1  0
 16 25  1  0
M  CHG  1  14  -1
M  END
>  <UniqueID>  (60) 
60

>  <SMILES>  (60) 
Cc1ccc2cc(C(N)=O)n(C(=O)[O-])c2c1

>  <Energy>  (60) 
63.99128658746743

>  <Genealogy>  (60) 
Cc1ccc2cc(C(N)=O)n(C(=O)[O-])c2c1 (protonated)
Cc1ccc2cc(C(N)=O)n(C(=O)[O-])c2c1 (3D coordinates assigned)
Cc1ccc2cc(C(N)=O)n(C(=O)[O-])c2c1 (optimized conformer: 63.99128658746743 kcal/mol)

>  <smiles>  (60) 
Cc1ccc2cc(C(N)=O)n(C(=O)O)c2c1

>  <score_type>  (60) 
oracle

>  <origin>  (60) 
adg

>  <m_score__min__energy>  (60) 
-5.8700000000000001

>  <m_primary>  (60) 
energy

$$$$
60:0
     RDKit          3D

 44 45  0  0  0  0  0  0  0  0999 V2000
  140.8850  159.3930  133.8980 C   0  0  0  0  0  0  0  0  0  0  0  0
  141.6650  158.6510  134.9990 C   0  0  0  0  0  0  0  0  0  0  0  0
  141.2540  157.1670  135.0510 C   0  0  0  0  0  0  0  0  0  0  0  0
  141.3490  159.3010  136.3550 C   0  0  0  0  0  0  0  0  0  0  0  0
  143.0800  158.7750  134.7920 O   0  0  0  0  0  0  0  0  0  0  0  0
  143.7710  158.5160  133.5970 C   0  0  0  0  0  0  0  0  0  0  0  0
  143.2270  157.8750  132.6590 O   0  0  0  0  0  0  0  0  0  0  0  0
  145.1270  158.9690  133.4570 N   0  0  0  0  0  0  0  0  0  0  0  0
  145.6180  160.2150  133.7100 C   0  0  0  0  0  0  0  0  0  0  0  0
  144.8180  161.4180  134.0150 C   0  0  0  0  0  0  0  0  0  0  0  0
  143.4260  161.4680  133.7140 N   0  0  0  0  0  0  0  0  0  0  0  0
  145.3800  162.4360  134.5010 O   0  0  0  0  0  0  0  0  0  0  0  0
  147.0040  160.2330  133.5660 C   0  0  0  0  0  0  0  0  0  0  0  0
  147.3500  158.9510  133.2050 C   0  0  0  0  0  0  0  0  0  0  0  0
  148.6020  158.4040  132.9390 C   0  0  0  0  0  0  0  0  0  0  0  0
  148.6680  157.0390  132.6160 C   0  0  0  0  0  0  0  0  0  0  0  0
  147.4920  156.2440  132.5800 C   0  0  0  0  0  0  0  0  0  0  0  0
  147.5710  154.8480  132.2300 N   0  0  0  0  0  0  0  0  0  0  0  0
  148.0210  154.0650  133.3890 C   0  0  0  0  0  0  0  0  0  0  0  0
  149.1300  153.0860  132.9880 C   0  0  0  0  0  0  0  0  0  0  0  0
  149.8580  153.5950  131.9050 O   0  0  0  0  0  0  0  0  0  0  0  0
  146.2380  156.8400  132.8470 C   0  0  0  0  0  0  0  0  0  0  0  0
  146.2000  158.2070  133.1470 C   0  0  0  0  0  0  0  0  0  0  0  0
  140.1620  160.0808  134.3609 H   0  0  0  0  0  0  0  0  0  0  0  0
  141.5869  159.9649  133.2733 H   0  0  0  0  0  0  0  0  0  0  0  0
  140.3489  158.6634  133.2733 H   0  0  0  0  0  0  0  0  0  0  0  0
  141.1655  156.8476  136.0999 H   0  0  0  0  0  0  0  0  0  0  0  0
  140.2860  157.0367  134.5451 H   0  0  0  0  0  0  0  0  0  0  0  0
  142.0171  156.5573  134.5451 H   0  0  0  0  0  0  0  0  0  0  0  0
  141.6737  158.6330  137.1664 H   0  0  0  0  0  0  0  0  0  0  0  0
  141.8813  160.2603  136.4347 H   0  0  0  0  0  0  0  0  0  0  0  0
  140.2658  159.4750  136.4347 H   0  0  0  0  0  0  0  0  0  0  0  0
  142.8600  160.5930  133.6390 H   0  0  0  0  0  0  0  0  0  0  0  0
  147.6783  161.0901  133.7103 H   0  0  0  0  0  0  0  0  0  0  0  0
  149.5113  159.0217  132.9805 H   0  0  0  0  0  0  0  0  0  0  0  0
  149.6416  156.5805  132.3883 H   0  0  0  0  0  0  0  0  0  0  0  0
  146.6300  154.5090  131.9170 H   0  0  0  0  0  0  0  0  0  0  0  0
  148.2410  154.7220  131.4350 H   0  0  0  0  0  0  0  0  0  0  0  0
  148.4057  154.7497  134.1592 H   0  0  0  0  0  0  0  0  0  0  0  0
  147.1678  153.4904  133.7786 H   0  0  0  0  0  0  0  0  0  0  0  0
  149.8070  152.9348  133.8417 H   0  0  0  0  0  0  0  0  0  0  0  0
  148.6742  152.1286  132.6952 H   0  0  0  0  0  0  0  0  0  0  0  0
  150.7460  153.1520  131.9260 H   0  0  0  0  0  0  0  0  0  0  0  0
  145.3140  156.2437  132.8197 H   0  0  0  0  0  0  0  0  0  0  0  0
  1  2  1  0
  2  3  1  0
  2  4  1  0
  2  5  1  0
  5  6  1  0
  6  7  2  0
  6  8  1  0
  8  9  1  0
  9 10  1  0
 10 11  1  0
 10 12  2  0
  9 13  2  0
 13 14  1  0
 14 15  2  0
 15 16  1  0
 16 17  2  0
 17 18  1  0
 18 19  1  0
 19 20  1  0
 20 21  1  0
 17 22  1  0
 22 23  2  0
 23  8  1  0
 23 14  1  0
  1 24  1  0
  1 25  1  0
  1 26  1  0
  3 27  1  0
  3 28  1  0
  3 29  1  0
  4 30  1  0
  4 31  1  0
  4 32  1  0
 11 33  1  0
 13 34  1  0
 15 35  1  0
 16 36  1  0
 18 37  1  0
 18 38  1  0
 19 39  1  0
 19 40  1  0
 20 41  1  0
 20 42  1  0
 21 43  1  0
 22 44  1  0
M  CHG  2  11  -1  18   1
M  END
>  <UniqueID>  (61) 
61

>  <SMILES>  (61) 
CC(C)(C)OC(=O)n1c(C([NH-])=O)cc2ccc([NH2+]CCO)cc21

>  <Energy>  (61) 
75.9106381954074

>  <Genealogy>  (61) 
CC(C)(C)OC(=O)n1c(C([NH-])=O)cc2ccc([NH2+]CCO)cc21 (protonated)
CC(C)(C)OC(=O)n1c(C([NH-])=O)cc2ccc([NH2+]CCO)cc21 (3D coordinates assigned)
CC(C)(C)OC(=O)n1c(C([NH-])=O)cc2ccc([NH2+]CCO)cc21 (optimized conformer: 75.9106381954074 kcal/mol)

>  <smiles>  (61) 
CC(C)(C)OC(=O)n1c(C(N)=O)cc2ccc(NCCO)cc21

>  <score_type>  (61) 
oracle

>  <origin>  (61) 
adg

>  <m_score__min__energy>  (61) 
-6.8899999999999997

>  <m_primary>  (61) 
energy

$$$$
61:0
     RDKit          3D

 39 40  0  0  0  0  0  0  0  0999 V2000
  142.1320  149.4800  131.9400 C   0  0  0  0  0  0  0  0  0  0  0  0
  140.6130  149.6250  132.1670 C   0  0  0  0  0  0  0  0  0  0  0  0
  140.2890  149.2290  133.6230 C   0  0  0  0  0  0  0  0  0  0  0  0
  139.8770  148.6730  131.2030 C   0  0  0  0  0  0  0  0  0  0  0  0
  140.2130  151.1050  131.9070 C   0  0  0  0  0  0  0  0  0  0  0  0
  141.3170  152.0370  132.1650 N   0  0  0  0  0  0  0  0  0  0  0  0
  141.4820  152.8540  133.3430 C   0  0  0  0  0  0  0  0  0  0  0  0
  142.1280  152.3750  134.5170 C   0  0  0  0  0  0  0  0  0  0  0  0
  142.2620  153.1940  135.6490 C   0  0  0  0  0  0  0  0  0  0  0  0
  141.7500  154.4850  135.5880 C   0  0  0  0  0  0  0  0  0  0  0  0
  141.7150  155.4670  136.5490 C   0  0  0  0  0  0  0  0  0  0  0  0
  141.0710  156.5460  135.9490 C   0  0  0  0  0  0  0  0  0  0  0  0
  140.8710  157.8460  136.6190 C   0  0  0  0  0  0  0  0  0  0  0  0
  139.6490  158.5710  136.4770 N   0  0  0  0  0  0  0  0  0  0  0  0
  141.8150  158.3520  137.2800 O   0  0  0  0  0  0  0  0  0  0  0  0
  140.7090  156.2400  134.6710 N   0  0  0  0  0  0  0  0  0  0  0  0
  139.9270  157.0420  133.7680 C   0  0  0  0  0  0  0  0  0  0  0  0
  138.7140  157.2770  134.0160 O   0  0  0  0  0  0  0  0  0  0  0  0
  140.4970  157.5630  132.6130 O   0  0  0  0  0  0  0  0  0  0  0  0
  141.1360  154.9730  134.4640 C   0  0  0  0  0  0  0  0  0  0  0  0
  140.9690  154.1720  133.3280 C   0  0  0  0  0  0  0  0  0  0  0  0
  142.6449  149.4310  132.9119 H   0  0  0  0  0  0  0  0  0  0  0  0
  142.3317  148.5587  131.3731 H   0  0  0  0  0  0  0  0  0  0  0  0
  142.5024  150.3469  131.3731 H   0  0  0  0  0  0  0  0  0  0  0  0
  140.8316  149.8922  134.3128 H   0  0  0  0  0  0  0  0  0  0  0  0
  139.2071  149.3250  133.7970 H   0  0  0  0  0  0  0  0  0  0  0  0
  140.5973  148.1875  133.7970 H   0  0  0  0  0  0  0  0  0  0  0  0
  139.3054  147.9336  131.7831 H   0  0  0  0  0  0  0  0  0  0  0  0
  139.1897  149.2524  130.5691 H   0  0  0  0  0  0  0  0  0  0  0  0
  140.6108  148.1538  130.5691 H   0  0  0  0  0  0  0  0  0  0  0  0
  139.9023  151.2076  130.8568 H   0  0  0  0  0  0  0  0  0  0  0  0
  139.3937  151.3568  132.5964 H   0  0  0  0  0  0  0  0  0  0  0  0
  142.0680  152.0760  131.4370 H   0  0  0  0  0  0  0  0  0  0  0  0
  142.5273  151.3502  134.5376 H   0  0  0  0  0  0  0  0  0  0  0  0
  142.7581  152.8247  136.5587 H   0  0  0  0  0  0  0  0  0  0  0  0
  142.1113  155.4122  137.5737 H   0  0  0  0  0  0  0  0  0  0  0  0
  138.9140  158.2630  135.8040 H   0  0  0  0  0  0  0  0  0  0  0  0
  139.5100  159.4700  136.9900 H   0  0  0  0  0  0  0  0  0  0  0  0
  140.4485  154.5605  132.4402 H   0  0  0  0  0  0  0  0  0  0  0  0
  1  2  1  0
  2  3  1  0
  2  4  1  0
  2  5  1  0
  5  6  1  0
  6  7  1  0
  7  8  2  0
  8  9  1  0
  9 10  2  0
 10 11  1  0
 11 12  2  0
 12 13  1  0
 13 14  1  0
 13 15  2  0
 12 16  1  0
 16 17  1  0
 17 18  2  0
 17 19  1  0
 16 20  1  0
 20 21  2  0
 21  7  1  0
 20 10  1  0
  1 22  1  0
  1 23  1  0
  1 24  1  0
  3 25  1  0
  3 26  1  0
  3 27  1  0
  4 28  1  0
  4 29  1  0
  4 30  1  0
  5 31  1  0
  5 32  1  0
  6 33  1  0
  8 34  1  0
  9 35  1  0
 11 36  1  0
 14 37  1  0
 14 38  1  0
 21 39  1  0
M  CHG  1  19  -1
M  END
>  <UniqueID>  (62) 
62

>  <SMILES>  (62) 
CC(C)(C)CNc1ccc2cc(C(N)=O)n(C(=O)[O-])c2c1

>  <Energy>  (62) 
75.14941521885072

>  <Genealogy>  (62) 
CC(C)(C)CNc1ccc2cc(C(N)=O)n(C(=O)[O-])c2c1 (protonated)
CC(C)(C)CNc1ccc2cc(C(N)=O)n(C(=O)[O-])c2c1 (3D coordinates assigned)
CC(C)(C)CNc1ccc2cc(C(N)=O)n(C(=O)[O-])c2c1 (optimized conformer: 75.14941521885072 kcal/mol)

>  <smiles>  (62) 
CC(C)(C)CNc1ccc2cc(C(N)=O)n(C(=O)O)c2c1

>  <score_type>  (62) 
oracle

>  <origin>  (62) 
adg

>  <m_score__min__energy>  (62) 
-7.3399999999999999

>  <m_primary>  (62) 
energy

$$$$
62:0
     RDKit          3D

 32 33  0  0  0  0  0  0  0  0999 V2000
  149.2380  159.3650  130.5900 C   0  0  0  0  0  0  0  0  0  0  0  0
  149.8310  158.6880  131.8250 C   0  0  0  0  0  0  0  0  0  0  0  0
  148.7780  157.9120  132.6300 C   0  0  0  0  0  0  0  0  0  0  0  0
  147.6100  158.7840  133.0160 C   0  0  0  0  0  0  0  0  0  0  0  0
  147.8190  160.1360  133.3870 C   0  0  0  0  0  0  0  0  0  0  0  0
  146.7340  160.9590  133.7330 C   0  0  0  0  0  0  0  0  0  0  0  0
  145.4570  160.4080  133.6880 C   0  0  0  0  0  0  0  0  0  0  0  0
  144.2360  160.9710  133.9860 C   0  0  0  0  0  0  0  0  0  0  0  0
  143.3000  159.9620  133.7660 C   0  0  0  0  0  0  0  0  0  0  0  0
  141.8410  160.1670  133.8780 C   0  0  0  0  0  0  0  0  0  0  0  0
  140.9990  160.0820  132.7300 N   0  0  0  0  0  0  0  0  0  0  0  0
  141.3360  160.4640  134.9930 O   0  0  0  0  0  0  0  0  0  0  0  0
  143.9180  158.8180  133.3600 N   0  0  0  0  0  0  0  0  0  0  0  0
  143.3260  157.5340  133.1090 C   0  0  0  0  0  0  0  0  0  0  0  0
  142.1920  157.4160  132.2490 N   0  0  0  0  0  0  0  0  0  0  0  0
  143.7850  156.5080  133.6760 O   0  0  0  0  0  0  0  0  0  0  0  0
  145.2370  159.1080  133.3120 C   0  0  0  0  0  0  0  0  0  0  0  0
  146.2980  158.2610  132.9770 C   0  0  0  0  0  0  0  0  0  0  0  0
  148.5435  160.1579  130.9045 H   0  0  0  0  0  0  0  0  0  0  0  0
  150.0475  159.8040  129.9883 H   0  0  0  0  0  0  0  0  0  0  0  0
  148.6962  158.6204  129.9883 H   0  0  0  0  0  0  0  0  0  0  0  0
  150.6151  157.9876  131.5016 H   0  0  0  0  0  0  0  0  0  0  0  0
  150.2376  159.4756  132.4764 H   0  0  0  0  0  0  0  0  0  0  0  0
  148.4099  157.0743  132.0194 H   0  0  0  0  0  0  0  0  0  0  0  0
  149.2534  157.5506  133.5538 H   0  0  0  0  0  0  0  0  0  0  0  0
  148.8401  160.5447  133.4042 H   0  0  0  0  0  0  0  0  0  0  0  0
  146.8893  162.0066  134.0303 H   0  0  0  0  0  0  0  0  0  0  0  0
  144.0409  161.9989  134.3256 H   0  0  0  0  0  0  0  0  0  0  0  0
  141.3660  159.7240  131.8220 H   0  0  0  0  0  0  0  0  0  0  0  0
  141.7700  156.4810  132.0570 H   0  0  0  0  0  0  0  0  0  0  0  0
  141.7530  158.2660  131.8320 H   0  0  0  0  0  0  0  0  0  0  0  0
  146.1159  157.2147  132.6905 H   0  0  0  0  0  0  0  0  0  0  0  0
  1  2  1  0
  2  3  1  0
  3  4  1  0
  4  5  2  0
  5  6  1  0
  6  7  2  0
  7  8  1  0
  8  9  2  0
  9 10  1  0
 10 11  1  0
 10 12  2  0
  9 13  1  0
 13 14  1  0
 14 15  1  0
 14 16  2  0
 13 17  1  0
 17 18  2  0
 18  4  1  0
 17  7  1  0
  1 19  1  0
  1 20  1  0
  1 21  1  0
  2 22  1  0
  2 23  1  0
  3 24  1  0
  3 25  1  0
  5 26  1  0
  6 27  1  0
  8 28  1  0
 11 29  1  0
 15 30  1  0
 15 31  1  0
 18 32  1  0
M  CHG  1  11  -1
M  END
>  <UniqueID>  (63) 
63

>  <SMILES>  (63) 
CCCc1ccc2cc(C([NH-])=O)n(C(N)=O)c2c1

>  <Energy>  (63) 
65.73968698900332

>  <Genealogy>  (63) 
CCCc1ccc2cc(C([NH-])=O)n(C(N)=O)c2c1 (protonated)
CCCc1ccc2cc(C([NH-])=O)n(C(N)=O)c2c1 (3D coordinates assigned)
CCCc1ccc2cc(C([NH-])=O)n(C(N)=O)c2c1 (optimized conformer: 65.73968698900332 kcal/mol)

>  <smiles>  (63) 
CCCc1ccc2cc(C(N)=O)n(C(N)=O)c2c1

>  <score_type>  (63) 
oracle

>  <origin>  (63) 
adg

>  <m_score__min__energy>  (63) 
-6.8300000000000001

>  <m_primary>  (63) 
energy

$$$$
63:0
     RDKit          3D

 42 44  0  0  0  0  0  0  0  0999 V2000
  143.6250  160.6440  134.0590 C   0  0  0  0  0  0  0  0  0  0  0  0
  144.7380  159.7590  134.0380 O   0  0  0  0  0  0  0  0  0  0  0  0
  144.7470  158.5740  133.2970 C   0  0  0  0  0  0  0  0  0  0  0  0
  143.7330  158.2390  132.6250 O   0  0  0  0  0  0  0  0  0  0  0  0
  145.9130  157.7330  133.3030 N   0  0  0  0  0  0  0  0  0  0  0  0
  147.2180  158.1270  133.2910 C   0  0  0  0  0  0  0  0  0  0  0  0
  147.7050  159.5130  133.4350 C   0  0  0  0  0  0  0  0  0  0  0  0
  146.9820  160.6140  132.8810 N   0  0  0  0  0  0  0  0  0  0  0  0
  148.7480  159.7370  134.1050 O   0  0  0  0  0  0  0  0  0  0  0  0
  148.0630  157.0270  133.1740 C   0  0  0  0  0  0  0  0  0  0  0  0
  147.2290  155.9330  133.1270 C   0  0  0  0  0  0  0  0  0  0  0  0
  147.5360  154.5830  132.9980 C   0  0  0  0  0  0  0  0  0  0  0  0
  146.4730  153.6680  132.9380 C   0  0  0  0  0  0  0  0  0  0  0  0
  145.1260  154.1140  132.9940 C   0  0  0  0  0  0  0  0  0  0  0  0
  144.0090  153.1380  132.9140 C   0  0  0  0  0  0  0  0  0  0  0  0
  142.6750  153.5670  133.0410 C   0  0  0  0  0  0  0  0  0  0  0  0
  141.6250  152.6480  132.9630 C   0  0  0  0  0  0  0  0  0  0  0  0
  141.8900  151.2880  132.7630 C   0  0  0  0  0  0  0  0  0  0  0  0
  140.5660  150.1340  132.6470 S   0  0  0  0  0  0  0  0  0  0  0  0
  140.9770  148.8820  131.4540 C   0  0  0  0  0  0  0  0  0  0  0  0
  140.3280  149.4950  133.9870 O   0  0  0  0  0  0  0  0  0  0  0  0
  139.3090  150.8420  132.2230 O   0  0  0  0  0  0  0  0  0  0  0  0
  143.2150  150.8550  132.6280 C   0  0  0  0  0  0  0  0  0  0  0  0
  144.2670  151.7720  132.7050 C   0  0  0  0  0  0  0  0  0  0  0  0
  144.8570  155.4980  133.1230 C   0  0  0  0  0  0  0  0  0  0  0  0
  145.9370  156.3860  133.2030 C   0  0  0  0  0  0  0  0  0  0  0  0
  143.3500  160.8626  135.1014 H   0  0  0  0  0  0  0  0  0  0  0  0
  143.8910  161.5799  133.5459 H   0  0  0  0  0  0  0  0  0  0  0  0
  142.7731  160.1739  133.5459 H   0  0  0  0  0  0  0  0  0  0  0  0
  147.3620  161.5830  132.9570 H   0  0  0  0  0  0  0  0  0  0  0  0
  146.0310  160.4820  132.4700 H   0  0  0  0  0  0  0  0  0  0  0  0
  149.1621  157.0311  133.1288 H   0  0  0  0  0  0  0  0  0  0  0  0
  148.5805  154.2422  132.9446 H   0  0  0  0  0  0  0  0  0  0  0  0
  146.6861  152.5927  132.8465 H   0  0  0  0  0  0  0  0  0  0  0  0
  142.4571  154.6330  133.2028 H   0  0  0  0  0  0  0  0  0  0  0  0
  140.5856  152.9949  133.0592 H   0  0  0  0  0  0  0  0  0  0  0  0
  141.2789  147.9624  131.9767 H   0  0  0  0  0  0  0  0  0  0  0  0
  140.0999  148.6743  130.8235 H   0  0  0  0  0  0  0  0  0  0  0  0
  141.8066  149.2345  130.8235 H   0  0  0  0  0  0  0  0  0  0  0  0
  143.4286  149.7890  132.4607 H   0  0  0  0  0  0  0  0  0  0  0  0
  145.3047  151.4222  132.6013 H   0  0  0  0  0  0  0  0  0  0  0  0
  143.8217  155.8680  133.1596 H   0  0  0  0  0  0  0  0  0  0  0  0
  1  2  1  0
  2  3  1  0
  3  4  2  0
  3  5  1  0
  5  6  1  0
  6  7  1  0
  7  8  1  0
  7  9  2  0
  6 10  2  0
 10 11  1  0
 11 12  2  0
 12 13  1  0
 13 14  2  0
 14 15  1  0
 15 16  2  0
 16 17  1  0
 17 18  2  0
 18 19  1  0
 19 20  1  0
 19 21  2  0
 19 22  2  0
 18 23  1  0
 23 24  2  0
 14 25  1  0
 25 26  2  0
 26  5  1  0
 26 11  1  0
 24 15  1  0
  1 27  1  0
  1 28  1  0
  1 29  1  0
  8 30  1  0
  8 31  1  0
 10 32  1  0
 12 33  1  0
 13 34  1  0
 16 35  1  0
 17 36  1  0
 20 37  1  0
 20 38  1  0
 20 39  1  0
 23 40  1  0
 24 41  1  0
 25 42  1  0
M  END
>  <UniqueID>  (64) 
64

>  <SMILES>  (64) 
COC(=O)n1c(C(N)=O)cc2ccc(-c3ccc(S(C)(=O)=O)cc3)cc21

>  <Energy>  (64) 
84.3892643334202

>  <Genealogy>  (64) 
COC(=O)n1c(C(N)=O)cc2ccc(-c3ccc(S(C)(=O)=O)cc3)cc21 (3D coordinates assigned)
COC(=O)n1c(C(N)=O)cc2ccc(-c3ccc(S(C)(=O)=O)cc3)cc21 (optimized conformer: 84.3892643334202 kcal/mol)

>  <smiles>  (64) 
COC(=O)n1c(C(N)=O)cc2ccc(-c3ccc(S(C)(=O)=O)cc3)cc21

>  <score_type>  (64) 
oracle

>  <origin>  (64) 
adg

>  <m_score__min__energy>  (64) 
-8.5600000000000005

>  <m_primary>  (64) 
energy

$$$$
64:0
     RDKit          3D

 27 28  0  0  0  0  0  0  0  0999 V2000
  150.2470  159.6150  130.8120 N   0  0  0  0  0  0  0  0  0  0  0  0
  149.6430  159.0260  131.6040 C   0  0  0  0  0  0  0  0  0  0  0  0
  148.8770  158.2790  132.6050 C   0  0  0  0  0  0  0  0  0  0  0  0
  147.6630  159.0650  133.0140 C   0  0  0  0  0  0  0  0  0  0  0  0
  147.7890  160.4270  133.3840 C   0  0  0  0  0  0  0  0  0  0  0  0
  146.6590  161.1780  133.7490 C   0  0  0  0  0  0  0  0  0  0  0  0
  145.4190  160.5450  133.7190 C   0  0  0  0  0  0  0  0  0  0  0  0
  144.1700  161.0290  134.0350 C   0  0  0  0  0  0  0  0  0  0  0  0
  143.2970  159.9640  133.8220 C   0  0  0  0  0  0  0  0  0  0  0  0
  141.8290  160.0740  133.9540 C   0  0  0  0  0  0  0  0  0  0  0  0
  140.9750  159.8820  132.8290 N   0  0  0  0  0  0  0  0  0  0  0  0
  141.3240  160.3840  135.0670 O   0  0  0  0  0  0  0  0  0  0  0  0
  143.9820  158.8630  133.4010 N   0  0  0  0  0  0  0  0  0  0  0  0
  143.4670  157.5450  133.1510 C   0  0  0  0  0  0  0  0  0  0  0  0
  142.3560  157.3570  132.2760 N   0  0  0  0  0  0  0  0  0  0  0  0
  143.9760  156.5500  133.7340 O   0  0  0  0  0  0  0  0  0  0  0  0
  145.2770  159.2370  133.3380 C   0  0  0  0  0  0  0  0  0  0  0  0
  146.3860  158.4600  132.9850 C   0  0  0  0  0  0  0  0  0  0  0  0
  148.5607  157.3160  132.1777 H   0  0  0  0  0  0  0  0  0  0  0  0
  149.5094  158.1052  133.4881 H   0  0  0  0  0  0  0  0  0  0  0  0
  148.7816  160.9012  133.3855 H   0  0  0  0  0  0  0  0  0  0  0  0
  146.7509  162.2323  134.0489 H   0  0  0  0  0  0  0  0  0  0  0  0
  143.9151  162.0413  134.3819 H   0  0  0  0  0  0  0  0  0  0  0  0
  141.3700  159.6900  131.8820 H   0  0  0  0  0  0  0  0  0  0  0  0
  141.8740  158.1760  131.8450 H   0  0  0  0  0  0  0  0  0  0  0  0
  141.9900  156.3970  132.0860 H   0  0  0  0  0  0  0  0  0  0  0  0
  146.2670  157.4063  132.6927 H   0  0  0  0  0  0  0  0  0  0  0  0
  1  2  3  0
  2  3  1  0
  3  4  1  0
  4  5  2  0
  5  6  1  0
  6  7  2  0
  7  8  1  0
  8  9  2  0
  9 10  1  0
 10 11  1  0
 10 12  2  0
  9 13  1  0
 13 14  1  0
 14 15  1  0
 14 16  2  0
 13 17  1  0
 17 18  2  0
 18  4  1  0
 17  7  1  0
  3 19  1  0
  3 20  1  0
  5 21  1  0
  6 22  1  0
  8 23  1  0
 11 24  1  0
 15 25  1  0
 15 26  1  0
 18 27  1  0
M  CHG  1  11  -1
M  END
>  <UniqueID>  (65) 
65

>  <SMILES>  (65) 
N#CCc1ccc2cc(C([NH-])=O)n(C(N)=O)c2c1

>  <Energy>  (65) 
64.16923890358753

>  <Genealogy>  (65) 
N#CCc1ccc2cc(C([NH-])=O)n(C(N)=O)c2c1 (protonated)
N#CCc1ccc2cc(C([NH-])=O)n(C(N)=O)c2c1 (3D coordinates assigned)
N#CCc1ccc2cc(C([NH-])=O)n(C(N)=O)c2c1 (optimized conformer: 64.16923890358753 kcal/mol)

>  <smiles>  (65) 
N#CCc1ccc2cc(C(N)=O)n(C(N)=O)c2c1

>  <score_type>  (65) 
oracle

>  <origin>  (65) 
adg

>  <m_score__min__energy>  (65) 
-6.7199999999999998

>  <m_primary>  (65) 
energy

$$$$
65:0
     RDKit          3D

 41 43  0  0  0  0  0  0  0  0999 V2000
  150.3230  150.3760  131.7050 C   0  0  0  0  0  0  0  0  0  0  0  0
  149.7320  150.9810  132.8500 O   0  0  0  0  0  0  0  0  0  0  0  0
  149.3010  152.3150  132.9080 C   0  0  0  0  0  0  0  0  0  0  0  0
  149.9270  153.3400  132.1800 C   0  0  0  0  0  0  0  0  0  0  0  0
  149.4570  154.6520  132.2660 C   0  0  0  0  0  0  0  0  0  0  0  0
  148.3640  154.9680  133.0860 C   0  0  0  0  0  0  0  0  0  0  0  0
  147.9130  156.3720  133.1390 C   0  0  0  0  0  0  0  0  0  0  0  0
  148.8570  157.4210  133.0320 C   0  0  0  0  0  0  0  0  0  0  0  0
  148.4440  158.7620  133.0830 C   0  0  0  0  0  0  0  0  0  0  0  0
  147.0880  159.0210  133.2600 C   0  0  0  0  0  0  0  0  0  0  0  0
  146.4160  160.2190  133.3210 C   0  0  0  0  0  0  0  0  0  0  0  0
  145.0760  159.8850  133.5010 C   0  0  0  0  0  0  0  0  0  0  0  0
  144.0050  160.8850  133.6920 C   0  0  0  0  0  0  0  0  0  0  0  0
  142.6560  160.5530  133.3700 N   0  0  0  0  0  0  0  0  0  0  0  0
  144.2710  162.0450  134.1050 O   0  0  0  0  0  0  0  0  0  0  0  0
  144.9230  158.5290  133.5460 N   0  0  0  0  0  0  0  0  0  0  0  0
  143.7000  157.7840  133.6580 C   0  0  0  0  0  0  0  0  0  0  0  0
  142.7350  157.8260  132.6100 N   0  0  0  0  0  0  0  0  0  0  0  0
  143.4680  157.0990  134.6900 O   0  0  0  0  0  0  0  0  0  0  0  0
  146.1650  158.0160  133.3990 C   0  0  0  0  0  0  0  0  0  0  0  0
  146.5470  156.6710  133.3340 C   0  0  0  0  0  0  0  0  0  0  0  0
  147.7250  153.9410  133.8260 C   0  0  0  0  0  0  0  0  0  0  0  0
  146.4860  154.1930  134.6550 C   0  0  0  0  0  0  0  0  0  0  0  0
  146.8250  154.2070  136.1140 C   0  0  0  0  0  0  0  0  0  0  0  0
  147.0000  153.1620  136.7200 O   0  0  0  0  0  0  0  0  0  0  0  0
  148.2040  152.6240  133.7170 C   0  0  0  0  0  0  0  0  0  0  0  0
  151.0582  149.6234  132.0263 H   0  0  0  0  0  0  0  0  0  0  0  0
  149.5413  149.8909  131.1020 H   0  0  0  0  0  0  0  0  0  0  0  0
  150.8262  151.1461  131.1020 H   0  0  0  0  0  0  0  0  0  0  0  0
  150.7908  153.1083  131.5396 H   0  0  0  0  0  0  0  0  0  0  0  0
  149.9490  155.4458  131.6847 H   0  0  0  0  0  0  0  0  0  0  0  0
  149.9239  157.1836  132.9078 H   0  0  0  0  0  0  0  0  0  0  0  0
  149.1699  159.5827  132.9860 H   0  0  0  0  0  0  0  0  0  0  0  0
  146.8461  161.2285  133.2439 H   0  0  0  0  0  0  0  0  0  0  0  0
  142.4310  159.9850  132.5240 H   0  0  0  0  0  0  0  0  0  0  0  0
  142.4360  158.7350  132.1920 H   0  0  0  0  0  0  0  0  0  0  0  0
  145.8021  155.8676  133.4323 H   0  0  0  0  0  0  0  0  0  0  0  0
  146.0541  155.1650  134.3743 H   0  0  0  0  0  0  0  0  0  0  0  0
  145.7614  153.3873  134.4658 H   0  0  0  0  0  0  0  0  0  0  0  0
  146.9170  155.1668  136.6435 H   0  0  0  0  0  0  0  0  0  0  0  0
  147.7056  151.8207  134.2795 H   0  0  0  0  0  0  0  0  0  0  0  0
  1  2  1  0
  2  3  1  0
  3  4  2  0
  4  5  1  0
  5  6  2  0
  6  7  1  0
  7  8  2  0
  8  9  1  0
  9 10  2  0
 10 11  1  0
 11 12  2  0
 12 13  1  0
 13 14  1  0
 13 15  2  0
 12 16  1  0
 16 17  1  0
 17 18  1  0
 17 19  2  0
 16 20  1  0
 20 21  2  0
  6 22  1  0
 22 23  1  0
 23 24  1  0
 24 25  2  0
 22 26  2  0
 26  3  1  0
 21  7  1  0
 20 10  1  0
  1 27  1  0
  1 28  1  0
  1 29  1  0
  4 30  1  0
  5 31  1  0
  8 32  1  0
  9 33  1  0
 11 34  1  0
 14 35  1  0
 18 36  1  0
 21 37  1  0
 23 38  1  0
 23 39  1  0
 24 40  1  0
 26 41  1  0
M  CHG  2  14  -1  18  -1
M  END
>  <UniqueID>  (66) 
66

>  <SMILES>  (66) 
COc1ccc(-c2ccc3cc(C([NH-])=O)n(C([NH-])=O)c3c2)c(CC=O)c1

>  <Energy>  (66) 
88.14734260349043

>  <Genealogy>  (66) 
COc1ccc(-c2ccc3cc(C([NH-])=O)n(C([NH-])=O)c3c2)c(CC=O)c1 (protonated)
COc1ccc(-c2ccc3cc(C([NH-])=O)n(C([NH-])=O)c3c2)c(CC=O)c1 (3D coordinates assigned)
COc1ccc(-c2ccc3cc(C([NH-])=O)n(C([NH-])=O)c3c2)c(CC=O)c1 (optimized conformer: 88.14734260349043 kcal/mol)

>  <smiles>  (66) 
COc1ccc(-c2ccc3cc(C(N)=O)n(C(N)=O)c3c2)c(CC=O)c1

>  <score_type>  (66) 
oracle

>  <origin>  (66) 
adg

>  <m_score__min__energy>  (66) 
-7.7300000000000004

>  <m_primary>  (66) 
energy

$$$$
66:0
     RDKit          3D

 51 53  0  0  0  0  0  0  0  0999 V2000
  142.3730  155.1500  133.7760 C   0  0  0  0  0  0  0  0  0  0  0  0
  142.3890  155.0250  135.2990 C   0  0  0  0  0  0  0  0  0  0  0  0
  142.3730  156.3140  135.9120 O   0  0  0  0  0  0  0  0  0  0  0  0
  141.4170  156.6970  136.8610 C   0  0  0  0  0  0  0  0  0  0  0  0
  140.8830  155.8430  137.6260 O   0  0  0  0  0  0  0  0  0  0  0  0
  141.0500  158.1440  136.9940 C   0  0  0  0  0  0  0  0  0  0  0  0
  141.6650  158.9910  135.8700 C   0  0  0  0  0  0  0  0  0  0  0  0
  140.9030  158.8520  134.5740 C   0  0  0  0  0  0  0  0  0  0  0  0
  139.6940  158.6710  134.6060 O   0  0  0  0  0  0  0  0  0  0  0  0
  141.5960  158.9840  133.2420 C   0  0  0  0  0  0  0  0  0  0  0  0
  143.0660  159.2590  133.4240 C   0  0  0  0  0  0  0  0  0  0  0  0
  143.5110  160.5290  133.8220 C   0  0  0  0  0  0  0  0  0  0  0  0
  144.8770  160.7810  133.9770 C   0  0  0  0  0  0  0  0  0  0  0  0
  145.4590  162.5280  134.4960 Br  0  0  0  0  0  0  0  0  0  0  0  0
  145.8120  159.7600  133.7600 C   0  0  0  0  0  0  0  0  0  0  0  0
  147.1310  160.0090  133.9690 F   0  0  0  0  0  0  0  0  0  0  0  0
  145.3810  158.4780  133.3650 C   0  0  0  0  0  0  0  0  0  0  0  0
  146.3530  157.3840  133.1130 C   0  0  0  0  0  0  0  0  0  0  0  0
  147.7200  157.6860  132.8760 C   0  0  0  0  0  0  0  0  0  0  0  0
  148.6630  156.6610  132.6860 C   0  0  0  0  0  0  0  0  0  0  0  0
  148.2130  155.3440  132.7310 C   0  0  0  0  0  0  0  0  0  0  0  0
  148.9140  154.1650  132.6170 C   0  0  0  0  0  0  0  0  0  0  0  0
  147.9630  153.1540  132.7570 C   0  0  0  0  0  0  0  0  0  0  0  0
  148.2800  151.7180  132.6120 C   0  0  0  0  0  0  0  0  0  0  0  0
  147.6400  150.9240  131.6170 N   0  0  0  0  0  0  0  0  0  0  0  0
  149.1670  151.1970  133.3460 O   0  0  0  0  0  0  0  0  0  0  0  0
  146.7240  153.6900  132.9560 N   0  0  0  0  0  0  0  0  0  0  0  0
  145.4960  152.9900  133.2190 C   0  0  0  0  0  0  0  0  0  0  0  0
  145.0480  152.1600  132.3850 O   0  0  0  0  0  0  0  0  0  0  0  0
  144.7790  153.2440  134.3820 O   0  0  0  0  0  0  0  0  0  0  0  0
  146.8930  155.0310  132.9360 C   0  0  0  0  0  0  0  0  0  0  0  0
  145.9360  156.0310  133.1490 C   0  0  0  0  0  0  0  0  0  0  0  0
  144.0050  158.2400  133.1980 C   0  0  0  0  0  0  0  0  0  0  0  0
  142.2379  156.2052  133.4961 H   0  0  0  0  0  0  0  0  0  0  0  0
  143.3257  154.7815  133.3678 H   0  0  0  0  0  0  0  0  0  0  0  0
  141.5439  154.5533  133.3678 H   0  0  0  0  0  0  0  0  0  0  0  0
  141.5031  154.4597  135.6241 H   0  0  0  0  0  0  0  0  0  0  0  0
  143.3082  154.5016  135.6009 H   0  0  0  0  0  0  0  0  0  0  0  0
  139.9549  158.2393  136.9539 H   0  0  0  0  0  0  0  0  0  0  0  0
  141.4424  158.5107  137.9540 H   0  0  0  0  0  0  0  0  0  0  0  0
  141.6553  160.0476  136.1759 H   0  0  0  0  0  0  0  0  0  0  0  0
  142.6917  158.6349  135.6998 H   0  0  0  0  0  0  0  0  0  0  0  0
  141.4722  158.0480  132.6776 H   0  0  0  0  0  0  0  0  0  0  0  0
  141.1467  159.8258  132.6947 H   0  0  0  0  0  0  0  0  0  0  0  0
  142.7814  161.3298  134.0129 H   0  0  0  0  0  0  0  0  0  0  0  0
  148.0455  158.7362  132.8406 H   0  0  0  0  0  0  0  0  0  0  0  0
  149.7235  156.8921  132.5073 H   0  0  0  0  0  0  0  0  0  0  0  0
  149.9948  154.0453  132.4508 H   0  0  0  0  0  0  0  0  0  0  0  0
  146.5960  150.8790  131.5580 H   0  0  0  0  0  0  0  0  0  0  0  0
  144.8842  155.7715  133.3399 H   0  0  0  0  0  0  0  0  0  0  0  0
  143.6602  157.2430  132.8864 H   0  0  0  0  0  0  0  0  0  0  0  0
  1  2  1  0
  2  3  1  0
  3  4  1  0
  4  5  2  0
  4  6  1  0
  6  7  1  0
  7  8  1  0
  8  9  2  0
  8 10  1  0
 10 11  1  0
 11 12  2  0
 12 13  1  0
 13 14  1  0
 13 15  2  0
 15 16  1  0
 15 17  1  0
 17 18  1  0
 18 19  2  0
 19 20  1  0
 20 21  2  0
 21 22  1  0
 22 23  2  0
 23 24  1  0
 24 25  1  0
 24 26  2  0
 23 27  1  0
 27 28  1  0
 28 29  2  0
 28 30  1  0
 27 31  1  0
 31 32  2  0
 17 33  2  0
 33 11  1  0
 32 18  1  0
 31 21  1  0
  1 34  1  0
  1 35  1  0
  1 36  1  0
  2 37  1  0
  2 38  1  0
  6 39  1  0
  6 40  1  0
  7 41  1  0
  7 42  1  0
 10 43  1  0
 10 44  1  0
 12 45  1  0
 19 46  1  0
 20 47  1  0
 22 48  1  0
 25 49  1  0
 32 50  1  0
 33 51  1  0
M  CHG  2  25  -1  30  -1
M  END
>  <UniqueID>  (67) 
67

>  <SMILES>  (67) 
CCOC(=O)CCC(=O)Cc1cc(Br)c(F)c(-c2ccc3cc(C([NH-])=O)n(C(=O)[O-])c3c2)c1

>  <Energy>  (67) 
86.05558700845073

>  <Genealogy>  (67) 
CCOC(=O)CCC(=O)Cc1cc(Br)c(F)c(-c2ccc3cc(C([NH-])=O)n(C(=O)[O-])c3c2)c1 (protonated)
CCOC(=O)CCC(=O)Cc1cc(Br)c(F)c(-c2ccc3cc(C([NH-])=O)n(C(=O)[O-])c3c2)c1 (3D coordinates assigned)
CCOC(=O)CCC(=O)Cc1cc(Br)c(F)c(-c2ccc3cc(C([NH-])=O)n(C(=O)[O-])c3c2)c1 (optimized conformer: 86.05558700845073 kcal/mol)

>  <smiles>  (67) 
CCOC(=O)CCC(=O)Cc1cc(Br)c(F)c(-c2ccc3cc(C(N)=O)n(C(=O)O)c3c2)c1

>  <score_type>  (67) 
oracle

>  <origin>  (67) 
adg

>  <m_score__min__energy>  (67) 
-9.8000000000000007

>  <m_primary>  (67) 
energy

$$$$
67:0
     RDKit          3D

 48 51  0  0  0  0  0  0  0  0999 V2000
  148.8640  159.0780  133.9540 N   0  0  0  0  0  0  0  0  0  0  0  0
  147.8010  159.4970  133.1000 C   0  0  0  0  0  0  0  0  0  0  0  0
  148.0210  160.3800  132.2310 O   0  0  0  0  0  0  0  0  0  0  0  0
  146.4680  158.8700  133.2240 C   0  0  0  0  0  0  0  0  0  0  0  0
  145.2950  159.5900  133.4380 C   0  0  0  0  0  0  0  0  0  0  0  0
  144.3020  158.6430  133.5570 C   0  0  0  0  0  0  0  0  0  0  0  0
  142.9350  158.7990  133.7620 C   0  0  0  0  0  0  0  0  0  0  0  0
  142.1390  157.6420  133.8090 C   0  0  0  0  0  0  0  0  0  0  0  0
  142.7190  156.3540  133.6430 C   0  0  0  0  0  0  0  0  0  0  0  0
  141.8750  155.0920  133.6740 C   0  0  2  0  0  0  0  0  0  0  0  0
  141.8400  154.3860  135.0320 C   0  0  0  0  0  0  0  0  0  0  0  0
  142.5090  153.1610  134.4020 C   0  0  1  0  0  0  0  0  0  0  0  0
  141.7090  151.8770  134.4100 C   0  0  0  0  0  0  0  0  0  0  0  0
  141.1950  151.4950  135.4950 O   0  0  0  0  0  0  0  0  0  0  0  0
  141.4980  151.0850  133.2300 N   0  0  0  0  0  0  0  0  0  0  0  0
  142.6110  150.3980  132.5720 C   0  0  0  0  0  0  0  0  0  0  0  0
  142.1080  149.1060  131.9190 C   0  0  0  0  0  0  0  0  0  0  0  0
  140.9800  149.3590  131.1030 O   0  0  0  0  0  0  0  0  0  0  0  0
  139.8960  149.7840  131.9070 C   0  0  0  0  0  0  0  0  0  0  0  0
  140.1980  151.1380  132.5570 C   0  0  0  0  0  0  0  0  0  0  0  0
  142.5430  153.8650  133.0460 C   0  0  0  0  0  0  0  0  0  0  0  0
  144.1110  156.2410  133.4340 C   0  0  0  0  0  0  0  0  0  0  0  0
  144.8810  157.4090  133.4130 C   0  0  0  0  0  0  0  0  0  0  0  0
  146.2100  157.5320  133.2090 N   0  0  0  0  0  0  0  0  0  0  0  0
  147.1370  156.4610  132.9700 C   0  0  0  0  0  0  0  0  0  0  0  0
  146.9980  155.6290  131.8190 N   0  0  0  0  0  0  0  0  0  0  0  0
  148.0830  156.2560  133.7760 O   0  0  0  0  0  0  0  0  0  0  0  0
  149.2250  158.0980  133.9200 H   0  0  0  0  0  0  0  0  0  0  0  0
  145.1851  160.6828  133.4990 H   0  0  0  0  0  0  0  0  0  0  0  0
  142.4906  159.7979  133.8836 H   0  0  0  0  0  0  0  0  0  0  0  0
  141.0556  157.7334  133.9760 H   0  0  0  0  0  0  0  0  0  0  0  0
  140.9519  155.5027  133.2390 H   0  0  0  0  0  0  0  0  0  0  0  0
  142.4419  154.8773  135.8107 H   0  0  0  0  0  0  0  0  0  0  0  0
  140.8952  154.2848  135.5861 H   0  0  0  0  0  0  0  0  0  0  0  0
  143.4259  152.7607  134.8593 H   0  0  0  0  0  0  0  0  0  0  0  0
  143.0408  151.0540  131.8007 H   0  0  0  0  0  0  0  0  0  0  0  0
  143.3800  150.1526  133.3192 H   0  0  0  0  0  0  0  0  0  0  0  0
  142.9112  148.6785  131.3008 H   0  0  0  0  0  0  0  0  0  0  0  0
  141.8173  148.4013  132.7120 H   0  0  0  0  0  0  0  0  0  0  0  0
  138.9971  149.8776  131.2800 H   0  0  0  0  0  0  0  0  0  0  0  0
  139.7336  149.0404  132.7011 H   0  0  0  0  0  0  0  0  0  0  0  0
  140.2191  151.9186  131.7823 H   0  0  0  0  0  0  0  0  0  0  0  0
  139.4157  151.3699  133.2947 H   0  0  0  0  0  0  0  0  0  0  0  0
  143.5564  154.0518  132.6612 H   0  0  0  0  0  0  0  0  0  0  0  0
  142.1083  153.3859  132.1563 H   0  0  0  0  0  0  0  0  0  0  0  0
  144.5797  155.2562  133.2908 H   0  0  0  0  0  0  0  0  0  0  0  0
  146.1810  155.7410  131.1780 H   0  0  0  0  0  0  0  0  0  0  0  0
  147.6890  154.8700  131.6300 H   0  0  0  0  0  0  0  0  0  0  0  0
  1  2  1  0
  2  3  2  0
  2  4  1  0
  4  5  2  0
  5  6  1  0
  6  7  2  0
  7  8  1  0
  8  9  2  0
  9 10  1  0
 10 11  1  0
 11 12  1  0
 12 13  1  0
 13 14  2  0
 13 15  1  0
 15 16  1  0
 16 17  1  0
 17 18  1  0
 18 19  1  0
 19 20  1  0
 12 21  1  0
  9 22  1  0
 22 23  2  0
 23 24  1  0
 24 25  1  0
 25 26  1  0
 25 27  2  0
 24  4  1  0
 23  6  1  0
 21 10  1  0
 20 15  1  0
  1 28  1  0
  5 29  1  0
  7 30  1  0
  8 31  1  0
 10 32  1  6
 11 33  1  0
 11 34  1  0
 12 35  1  1
 16 36  1  0
 16 37  1  0
 17 38  1  0
 17 39  1  0
 19 40  1  0
 19 41  1  0
 20 42  1  0
 20 43  1  0
 21 44  1  0
 21 45  1  0
 22 46  1  0
 26 47  1  0
 26 48  1  0
M  CHG  1   1  -1
M  END
>  <UniqueID>  (68) 
68

>  <SMILES>  (68) 
[NH-]C(=O)c1cc2ccc(C3CC(C(=O)N4CCOCC4)C3)cc2n1C(N)=O

>  <Energy>  (68) 
158.2585024463879

>  <Genealogy>  (68) 
[NH-]C(=O)c1cc2ccc(C3CC(C(=O)N4CCOCC4)C3)cc2n1C(N)=O (protonated)
[NH-]C(=O)c1cc2ccc(C3CC(C(=O)N4CCOCC4)C3)cc2n1C(N)=O (3D coordinates assigned)
[NH-]C(=O)c1cc2ccc(C3CC(C(=O)N4CCOCC4)C3)cc2n1C(N)=O (nonaromatic ring conformer: 158.2585024463879 kcal/mol)

>  <smiles>  (68) 
NC(=O)c1cc2ccc(C3CC(C(=O)N4CCOCC4)C3)cc2n1C(N)=O

>  <score_type>  (68) 
oracle

>  <origin>  (68) 
adg

>  <m_score__min__energy>  (68) 
-8.9299999999999997

>  <m_primary>  (68) 
energy

$$$$
68:0
     RDKit          3D

 41 43  0  0  0  0  0  0  0  0999 V2000
  149.1010  154.0550  132.6060 C   0  0  0  0  0  0  0  0  0  0  0  0
  147.9290  154.4400  133.4880 C   0  0  0  0  0  0  0  0  0  0  0  0
  147.8220  155.8570  133.5340 O   0  0  0  0  0  0  0  0  0  0  0  0
  146.7260  156.5540  133.0140 C   0  0  0  0  0  0  0  0  0  0  0  0
  145.8000  155.9260  132.4270 O   0  0  0  0  0  0  0  0  0  0  0  0
  146.6490  157.9870  133.1600 N   0  0  0  0  0  0  0  0  0  0  0  0
  147.6240  158.8980  132.8790 C   0  0  0  0  0  0  0  0  0  0  0  0
  149.0190  158.5880  132.5350 C   0  0  0  0  0  0  0  0  0  0  0  0
  149.3610  157.3730  131.8660 N   0  0  0  0  0  0  0  0  0  0  0  0
  149.9300  159.3760  132.8920 O   0  0  0  0  0  0  0  0  0  0  0  0
  147.1450  160.1960  133.0200 C   0  0  0  0  0  0  0  0  0  0  0  0
  145.8370  160.0590  133.4210 C   0  0  0  0  0  0  0  0  0  0  0  0
  144.8880  161.0350  133.7170 C   0  0  0  0  0  0  0  0  0  0  0  0
  143.6060  160.6120  134.1080 C   0  0  0  0  0  0  0  0  0  0  0  0
  143.2920  159.2340  134.1800 C   0  0  0  0  0  0  0  0  0  0  0  0
  141.9550  158.8000  134.6530 C   0  0  0  0  0  0  0  0  0  0  0  0
  141.5320  159.1910  135.9390 C   0  0  0  0  0  0  0  0  0  0  0  0
  140.3160  158.7390  136.4580 C   0  0  0  0  0  0  0  0  0  0  0  0
  139.5080  157.8900  135.7030 C   0  0  0  0  0  0  0  0  0  0  0  0
  139.9060  157.5020  134.4200 C   0  0  0  0  0  0  0  0  0  0  0  0
  141.1200  157.9580  133.8780 C   0  0  0  0  0  0  0  0  0  0  0  0
  141.4630  157.5880  132.5340 N   0  0  0  0  0  0  0  0  0  0  0  0
  144.2800  158.2730  133.8680 C   0  0  0  0  0  0  0  0  0  0  0  0
  145.5580  158.7180  133.4980 C   0  0  0  0  0  0  0  0  0  0  0  0
  149.9574  153.7737  133.2364 H   0  0  0  0  0  0  0  0  0  0  0  0
  148.8175  153.2027  131.9709 H   0  0  0  0  0  0  0  0  0  0  0  0
  149.3782  154.9093  131.9709 H   0  0  0  0  0  0  0  0  0  0  0  0
  147.0026  154.0146  133.0747 H   0  0  0  0  0  0  0  0  0  0  0  0
  148.0878  154.0490  134.5038 H   0  0  0  0  0  0  0  0  0  0  0  0
  150.3470  157.1720  131.6050 H   0  0  0  0  0  0  0  0  0  0  0  0
  148.6470  156.6440  131.7020 H   0  0  0  0  0  0  0  0  0  0  0  0
  147.6953  161.1327  132.8475 H   0  0  0  0  0  0  0  0  0  0  0  0
  145.1347  162.1047  133.6468 H   0  0  0  0  0  0  0  0  0  0  0  0
  142.8393  161.3593  134.3605 H   0  0  0  0  0  0  0  0  0  0  0  0
  142.1658  159.8591  136.5406 H   0  0  0  0  0  0  0  0  0  0  0  0
  139.9961  159.0531  137.4625 H   0  0  0  0  0  0  0  0  0  0  0  0
  138.5565  157.5250  136.1170 H   0  0  0  0  0  0  0  0  0  0  0  0
  139.2628  156.8334  133.8291 H   0  0  0  0  0  0  0  0  0  0  0  0
  141.3630  156.5990  132.2140 H   0  0  0  0  0  0  0  0  0  0  0  0
  141.7350  158.2980  131.8190 H   0  0  0  0  0  0  0  0  0  0  0  0
  144.0517  157.1980  133.9143 H   0  0  0  0  0  0  0  0  0  0  0  0
  1  2  1  0
  2  3  1  0
  3  4  1  0
  4  5  2  0
  4  6  1  0
  6  7  1  0
  7  8  1  0
  8  9  1  0
  8 10  2  0
  7 11  2  0
 11 12  1  0
 12 13  2  0
 13 14  1  0
 14 15  2  0
 15 16  1  0
 16 17  2  0
 17 18  1  0
 18 19  2  0
 19 20  1  0
 20 21  2  0
 21 22  1  0
 15 23  1  0
 23 24  2  0
 24  6  1  0
 24 12  1  0
 21 16  1  0
  1 25  1  0
  1 26  1  0
  1 27  1  0
  2 28  1  0
  2 29  1  0
  9 30  1  0
  9 31  1  0
 11 32  1  0
 13 33  1  0
 14 34  1  0
 17 35  1  0
 18 36  1  0
 19 37  1  0
 20 38  1  0
 22 39  1  0
 22 40  1  0
 23 41  1  0
M  END
>  <UniqueID>  (69) 
69

>  <SMILES>  (69) 
CCOC(=O)n1c(C(N)=O)cc2ccc(-c3ccccc3N)cc21

>  <Energy>  (69) 
85.53123034096569

>  <Genealogy>  (69) 
CCOC(=O)n1c(C(N)=O)cc2ccc(-c3ccccc3N)cc21 (3D coordinates assigned)
CCOC(=O)n1c(C(N)=O)cc2ccc(-c3ccccc3N)cc21 (optimized conformer: 85.53123034096569 kcal/mol)

>  <smiles>  (69) 
CCOC(=O)n1c(C(N)=O)cc2ccc(-c3ccccc3N)cc21

>  <score_type>  (69) 
oracle

>  <origin>  (69) 
adg

>  <m_score__min__energy>  (69) 
-8.0299999999999994

>  <m_primary>  (69) 
energy

$$$$
69:0
     RDKit          3D

 31 32  0  0  0  0  0  0  0  0999 V2000
  141.0170  159.6640  132.5840 N   0  0  0  0  0  0  0  0  0  0  0  0
  141.8990  159.6410  133.7030 C   0  0  0  0  0  0  0  0  0  0  0  0
  142.8540  160.4620  133.7510 O   0  0  0  0  0  0  0  0  0  0  0  0
  141.7350  158.6450  134.7840 C   0  0  0  0  0  0  0  0  0  0  0  0
  141.3930  158.9810  136.0930 C   0  0  0  0  0  0  0  0  0  0  0  0
  141.4120  157.7950  136.7910 C   0  0  0  0  0  0  0  0  0  0  0  0
  141.1430  157.5400  138.1330 C   0  0  0  0  0  0  0  0  0  0  0  0
  141.2150  156.2090  138.5780 C   0  0  0  0  0  0  0  0  0  0  0  0
  141.5340  155.1620  137.6750 C   0  0  0  0  0  0  0  0  0  0  0  0
  141.6320  153.7430  138.1710 C   0  0  0  0  0  0  0  0  0  0  0  0
  141.7270  152.7440  137.0120 C   0  0  0  0  0  0  0  0  0  0  0  0
  140.9630  151.4870  137.3000 C   0  0  0  0  0  0  0  0  0  0  0  0
  140.6320  150.7170  136.3610 O   0  0  0  0  0  0  0  0  0  0  0  0
  140.6560  151.1440  138.6110 O   0  0  0  0  0  0  0  0  0  0  0  0
  141.8040  155.4610  136.3220 C   0  0  0  0  0  0  0  0  0  0  0  0
  141.7490  156.7980  135.9130 C   0  0  0  0  0  0  0  0  0  0  0  0
  141.9550  157.3040  134.6780 N   0  0  0  0  0  0  0  0  0  0  0  0
  142.2630  156.5530  133.4940 C   0  0  0  0  0  0  0  0  0  0  0  0
  142.6170  157.2240  132.2850 N   0  0  0  0  0  0  0  0  0  0  0  0
  142.2280  155.2950  133.5200 O   0  0  0  0  0  0  0  0  0  0  0  0
  141.3620  159.4390  131.6240 H   0  0  0  0  0  0  0  0  0  0  0  0
  141.1579  159.9816  136.4848 H   0  0  0  0  0  0  0  0  0  0  0  0
  140.8821  158.3553  138.8237 H   0  0  0  0  0  0  0  0  0  0  0  0
  141.0223  155.9767  139.6358 H   0  0  0  0  0  0  0  0  0  0  0  0
  142.5292  153.6461  138.8000 H   0  0  0  0  0  0  0  0  0  0  0  0
  140.7220  153.5165  138.7460 H   0  0  0  0  0  0  0  0  0  0  0  0
  141.3165  153.2107  136.1044 H   0  0  0  0  0  0  0  0  0  0  0  0
  142.7855  152.4782  136.8741 H   0  0  0  0  0  0  0  0  0  0  0  0
  142.0515  154.6626  135.6069 H   0  0  0  0  0  0  0  0  0  0  0  0
  142.5890  158.2670  132.2300 H   0  0  0  0  0  0  0  0  0  0  0  0
  142.8700  156.6780  131.4320 H   0  0  0  0  0  0  0  0  0  0  0  0
  1  2  1  0
  2  3  2  0
  2  4  1  0
  4  5  2  0
  5  6  1  0
  6  7  2  0
  7  8  1  0
  8  9  2  0
  9 10  1  0
 10 11  1  0
 11 12  1  0
 12 13  2  0
 12 14  1  0
  9 15  1  0
 15 16  2  0
 16 17  1  0
 17 18  1  0
 18 19  1  0
 18 20  2  0
 17  4  1  0
 16  6  1  0
  1 21  1  0
  5 22  1  0
  7 23  1  0
  8 24  1  0
 10 25  1  0
 10 26  1  0
 11 27  1  0
 11 28  1  0
 15 29  1  0
 19 30  1  0
 19 31  1  0
M  CHG  2   1  -1  14  -1
M  END
>  <UniqueID>  (70) 
70

>  <SMILES>  (70) 
[NH-]C(=O)c1cc2ccc(CCC(=O)[O-])cc2n1C(N)=O

>  <Energy>  (70) 
66.20543243744818

>  <Genealogy>  (70) 
[NH-]C(=O)c1cc2ccc(CCC(=O)[O-])cc2n1C(N)=O (protonated)
[NH-]C(=O)c1cc2ccc(CCC(=O)[O-])cc2n1C(N)=O (3D coordinates assigned)
[NH-]C(=O)c1cc2ccc(CCC(=O)[O-])cc2n1C(N)=O (optimized conformer: 66.20543243744818 kcal/mol)

>  <smiles>  (70) 
NC(=O)c1cc2ccc(CCC(=O)O)cc2n1C(N)=O

>  <score_type>  (70) 
oracle

>  <origin>  (70) 
adg

>  <m_score__min__energy>  (70) 
-6.8499999999999996

>  <m_primary>  (70) 
energy

$$$$
70:0
     RDKit          3D

 47 50  0  0  0  0  0  0  0  0999 V2000
  142.0100  160.3680  133.1760 N   0  0  0  0  0  0  0  0  0  0  0  0
  142.8440  159.7810  134.1730 C   0  0  0  0  0  0  0  0  0  0  0  0
  142.3470  159.4610  135.2860 O   0  0  0  0  0  0  0  0  0  0  0  0
  144.2340  159.5350  133.9040 N   0  0  0  0  0  0  0  0  0  0  0  0
  145.2380  160.4520  133.8040 C   0  0  0  0  0  0  0  0  0  0  0  0
  145.1200  161.8930  134.1190 C   0  0  0  0  0  0  0  0  0  0  0  0
  143.9880  162.6440  133.6780 N   0  0  0  0  0  0  0  0  0  0  0  0
  146.0370  162.4790  134.7510 O   0  0  0  0  0  0  0  0  0  0  0  0
  146.4360  159.8280  133.4590 C   0  0  0  0  0  0  0  0  0  0  0  0
  146.1330  158.4900  133.3520 C   0  0  0  0  0  0  0  0  0  0  0  0
  146.9480  157.4120  133.0230 C   0  0  0  0  0  0  0  0  0  0  0  0
  146.3630  156.1370  132.9620 C   0  0  0  0  0  0  0  0  0  0  0  0
  144.9790  155.9590  133.2230 C   0  0  0  0  0  0  0  0  0  0  0  0
  144.3680  154.6070  133.1450 C   0  0  0  0  0  0  0  0  0  0  0  0
  145.1210  153.5070  132.7000 C   0  0  0  0  0  0  0  0  0  0  0  0
  144.5450  152.2360  132.6240 C   0  0  0  0  0  0  0  0  0  0  0  0
  143.2000  152.0410  132.9890 C   0  0  0  0  0  0  0  0  0  0  0  0
  142.5710  150.7880  132.9260 O   0  0  0  0  0  0  0  0  0  0  0  0
  141.2300  150.5150  133.3360 C   0  0  0  0  0  0  0  0  0  0  0  0
  140.4710  149.8050  132.2470 C   0  0  0  0  0  0  0  0  0  0  0  0
  139.0880  150.0060  132.1050 C   0  0  0  0  0  0  0  0  0  0  0  0
  138.3790  149.3390  131.1020 C   0  0  0  0  0  0  0  0  0  0  0  0
  139.0410  148.4630  130.2390 C   0  0  0  0  0  0  0  0  0  0  0  0
  140.4160  148.2480  130.3810 C   0  0  0  0  0  0  0  0  0  0  0  0
  141.1280  148.9120  131.3840 C   0  0  0  0  0  0  0  0  0  0  0  0
  142.4520  153.1360  133.4370 C   0  0  0  0  0  0  0  0  0  0  0  0
  143.0260  154.4070  133.5120 C   0  0  0  0  0  0  0  0  0  0  0  0
  144.1850  157.0820  133.5560 C   0  0  0  0  0  0  0  0  0  0  0  0
  144.7990  158.3380  133.6260 C   0  0  0  0  0  0  0  0  0  0  0  0
  142.0970  160.0910  132.1740 H   0  0  0  0  0  0  0  0  0  0  0  0
  143.1840  162.1830  133.1980 H   0  0  0  0  0  0  0  0  0  0  0  0
  143.9320  163.6690  133.8700 H   0  0  0  0  0  0  0  0  0  0  0  0
  147.4156  160.3042  133.3050 H   0  0  0  0  0  0  0  0  0  0  0  0
  148.0191  157.5541  132.8167 H   0  0  0  0  0  0  0  0  0  0  0  0
  146.9847  155.2655  132.7089 H   0  0  0  0  0  0  0  0  0  0  0  0
  146.1725  153.6476  132.4091 H   0  0  0  0  0  0  0  0  0  0  0  0
  145.1465  151.3830  132.2768 H   0  0  0  0  0  0  0  0  0  0  0  0
  141.2498  149.8803  134.2342 H   0  0  0  0  0  0  0  0  0  0  0  0
  140.7266  151.4690  133.5517 H   0  0  0  0  0  0  0  0  0  0  0  0
  138.5611  150.6908  132.7857 H   0  0  0  0  0  0  0  0  0  0  0  0
  137.2971  149.5044  130.9921 H   0  0  0  0  0  0  0  0  0  0  0  0
  138.4815  147.9423  129.4479 H   0  0  0  0  0  0  0  0  0  0  0  0
  140.9371  147.5561  129.7030 H   0  0  0  0  0  0  0  0  0  0  0  0
  142.2076  148.7346  131.4981 H   0  0  0  0  0  0  0  0  0  0  0  0
  141.4021  152.9941  133.7328 H   0  0  0  0  0  0  0  0  0  0  0  0
  142.4231  155.2583  133.8610 H   0  0  0  0  0  0  0  0  0  0  0  0
  143.1090  156.9704  133.7554 H   0  0  0  0  0  0  0  0  0  0  0  0
  1  2  1  0
  2  3  2  0
  2  4  1  0
  4  5  1  0
  5  6  1  0
  6  7  1  0
  6  8  2  0
  5  9  2  0
  9 10  1  0
 10 11  2  0
 11 12  1  0
 12 13  2  0
 13 14  1  0
 14 15  2  0
 15 16  1  0
 16 17  2  0
 17 18  1  0
 18 19  1  0
 19 20  1  0
 20 21  2  0
 21 22  1  0
 22 23  2  0
 23 24  1  0
 24 25  2  0
 17 26  1  0
 26 27  2  0
 13 28  1  0
 28 29  2  0
 29  4  1  0
 29 10  1  0
 27 14  1  0
 25 20  1  0
  1 30  1  0
  7 31  1  0
  7 32  1  0
  9 33  1  0
 11 34  1  0
 12 35  1  0
 15 36  1  0
 16 37  1  0
 19 38  1  0
 19 39  1  0
 21 40  1  0
 22 41  1  0
 23 42  1  0
 24 43  1  0
 25 44  1  0
 26 45  1  0
 27 46  1  0
 28 47  1  0
M  CHG  1   1  -1
M  END
>  <UniqueID>  (71) 
71

>  <SMILES>  (71) 
[NH-]C(=O)n1c(C(N)=O)cc2ccc(-c3ccc(OCc4ccccc4)cc3)cc21

>  <Energy>  (71) 
95.57847945706887

>  <Genealogy>  (71) 
[NH-]C(=O)n1c(C(N)=O)cc2ccc(-c3ccc(OCc4ccccc4)cc3)cc21 (protonated)
[NH-]C(=O)n1c(C(N)=O)cc2ccc(-c3ccc(OCc4ccccc4)cc3)cc21 (3D coordinates assigned)
[NH-]C(=O)n1c(C(N)=O)cc2ccc(-c3ccc(OCc4ccccc4)cc3)cc21 (optimized conformer: 95.57847945706887 kcal/mol)

>  <smiles>  (71) 
NC(=O)c1cc2ccc(-c3ccc(OCc4ccccc4)cc3)cc2n1C(N)=O

>  <score_type>  (71) 
oracle

>  <origin>  (71) 
adg

>  <m_score__min__energy>  (71) 
-10.01

>  <m_primary>  (71) 
energy

$$$$
71:0
     RDKit          3D

 34 36  0  0  0  0  0  0  0  0999 V2000
  142.7940  160.7240  133.3630 N   0  0  0  0  0  0  0  0  0  0  0  0
  144.1540  160.9800  133.7050 C   0  0  0  0  0  0  0  0  0  0  0  0
  144.4810  162.1270  134.1140 O   0  0  0  0  0  0  0  0  0  0  0  0
  145.1910  159.9410  133.5360 C   0  0  0  0  0  0  0  0  0  0  0  0
  146.5340  160.2290  133.3050 C   0  0  0  0  0  0  0  0  0  0  0  0
  147.1440  159.0090  133.1270 C   0  0  0  0  0  0  0  0  0  0  0  0
  148.4770  158.7040  132.8760 C   0  0  0  0  0  0  0  0  0  0  0  0
  148.8360  157.3510  132.7670 C   0  0  0  0  0  0  0  0  0  0  0  0
  147.8630  156.3260  132.9190 C   0  0  0  0  0  0  0  0  0  0  0  0
  148.2570  154.8980  132.8150 C   0  0  0  0  0  0  0  0  0  0  0  0
  147.3000  153.8770  132.9260 C   0  0  0  0  0  0  0  0  0  0  0  0
  147.6830  152.5390  132.8280 C   0  0  0  0  0  0  0  0  0  0  0  0
  149.0310  152.2210  132.6170 C   0  0  0  0  0  0  0  0  0  0  0  0
  149.4650  150.7890  132.5100 C   0  0  0  0  0  0  0  0  0  0  0  0
  150.3430  150.6470  131.4510 F   0  0  0  0  0  0  0  0  0  0  0  0
  150.0970  150.3830  133.6730 F   0  0  0  0  0  0  0  0  0  0  0  0
  148.3610  149.9830  132.2970 F   0  0  0  0  0  0  0  0  0  0  0  0
  149.9460  153.2230  132.5100 N   0  0  0  0  0  0  0  0  0  0  0  0
  149.5980  154.5330  132.6050 C   0  0  0  0  0  0  0  0  0  0  0  0
  146.5170  156.6800  133.1740 C   0  0  0  0  0  0  0  0  0  0  0  0
  146.1860  158.0380  133.2570 C   0  0  0  0  0  0  0  0  0  0  0  0
  144.9800  158.5940  133.5100 N   0  0  0  0  0  0  0  0  0  0  0  0
  143.7580  157.8890  133.7840 C   0  0  0  0  0  0  0  0  0  0  0  0
  142.6590  157.9790  132.8820 N   0  0  0  0  0  0  0  0  0  0  0  0
  143.6570  157.1770  134.8190 O   0  0  0  0  0  0  0  0  0  0  0  0
  142.5510  160.1300  132.5390 H   0  0  0  0  0  0  0  0  0  0  0  0
  147.0067  161.2217  133.2719 H   0  0  0  0  0  0  0  0  0  0  0  0
  149.2286  159.4996  132.7660 H   0  0  0  0  0  0  0  0  0  0  0  0
  149.8824  157.0811  132.5616 H   0  0  0  0  0  0  0  0  0  0  0  0
  146.2430  154.1331  133.0910 H   0  0  0  0  0  0  0  0  0  0  0  0
  146.9323  151.7398  132.9157 H   0  0  0  0  0  0  0  0  0  0  0  0
  150.3697  155.3119  132.5171 H   0  0  0  0  0  0  0  0  0  0  0  0
  145.7472  155.9051  133.3042 H   0  0  0  0  0  0  0  0  0  0  0  0
  142.5130  158.8310  132.2970 H   0  0  0  0  0  0  0  0  0  0  0  0
  1  2  1  0
  2  3  2  0
  2  4  1  0
  4  5  2  0
  5  6  1  0
  6  7  2  0
  7  8  1  0
  8  9  2  0
  9 10  1  0
 10 11  2  0
 11 12  1  0
 12 13  2  0
 13 14  1  0
 14 15  1  0
 14 16  1  0
 14 17  1  0
 13 18  1  0
 18 19  2  0
  9 20  1  0
 20 21  2  0
 21 22  1  0
 22 23  1  0
 23 24  1  0
 23 25  2  0
 22  4  1  0
 21  6  1  0
 19 10  1  0
  1 26  1  0
  5 27  1  0
  7 28  1  0
  8 29  1  0
 11 30  1  0
 12 31  1  0
 19 32  1  0
 20 33  1  0
 24 34  1  0
M  CHG  2   1  -1  24  -1
M  END
>  <UniqueID>  (72) 
72

>  <SMILES>  (72) 
[NH-]C(=O)c1cc2ccc(-c3ccc(C(F)(F)F)nc3)cc2n1C([NH-])=O

>  <Energy>  (72) 
81.64276148468488

>  <Genealogy>  (72) 
[NH-]C(=O)c1cc2ccc(-c3ccc(C(F)(F)F)nc3)cc2n1C([NH-])=O (protonated)
[NH-]C(=O)c1cc2ccc(-c3ccc(C(F)(F)F)nc3)cc2n1C([NH-])=O (3D coordinates assigned)
[NH-]C(=O)c1cc2ccc(-c3ccc(C(F)(F)F)nc3)cc2n1C([NH-])=O (optimized conformer: 81.64276148468488 kcal/mol)

>  <smiles>  (72) 
NC(=O)c1cc2ccc(-c3ccc(C(F)(F)F)nc3)cc2n1C(N)=O

>  <score_type>  (72) 
oracle

>  <origin>  (72) 
adg

>  <m_score__min__energy>  (72) 
-7.5199999999999996

>  <m_primary>  (72) 
energy

$$$$
72:0
     RDKit          3D

 30 32  0  0  0  0  0  0  0  0999 V2000
  146.9460  153.7850  136.1440 N   0  0  0  0  0  0  0  0  0  0  0  0
  146.6170  154.1060  134.7940 C   0  0  0  0  0  0  0  0  0  0  0  0
  145.9060  153.3080  134.1280 O   0  0  0  0  0  0  0  0  0  0  0  0
  147.0630  155.3770  134.1840 C   0  0  0  0  0  0  0  0  0  0  0  0
  146.5440  156.6220  134.5360 C   0  0  0  0  0  0  0  0  0  0  0  0
  147.2600  157.5360  133.7970 C   0  0  0  0  0  0  0  0  0  0  0  0
  147.1510  158.9210  133.7390 C   0  0  0  0  0  0  0  0  0  0  0  0
  147.9980  159.6140  132.8590 C   0  0  0  0  0  0  0  0  0  0  0  0
  148.9330  158.9140  132.0420 C   0  0  0  0  0  0  0  0  0  0  0  0
  149.8680  159.5980  131.0580 C   0  0  0  0  0  0  0  0  0  0  0  0
  149.3120  159.9210  129.6780 C   0  0  0  0  0  0  0  0  0  0  0  0
  149.5520  161.0410  130.6850 C   0  0  0  0  0  0  0  0  0  0  0  0
  149.0060  157.5060  132.1340 C   0  0  0  0  0  0  0  0  0  0  0  0
  148.1640  156.8460  133.0360 C   0  0  0  0  0  0  0  0  0  0  0  0
  148.0580  155.5180  133.2640 N   0  0  0  0  0  0  0  0  0  0  0  0
  148.7920  154.4810  132.5950 C   0  0  0  0  0  0  0  0  0  0  0  0
  148.1370  153.2820  132.1840 N   0  0  0  0  0  0  0  0  0  0  0  0
  150.0250  154.6240  132.3740 O   0  0  0  0  0  0  0  0  0  0  0  0
  146.4680  152.9990  136.6400 H   0  0  0  0  0  0  0  0  0  0  0  0
  145.7349  156.8296  135.2517 H   0  0  0  0  0  0  0  0  0  0  0  0
  146.4226  159.4582  134.3642 H   0  0  0  0  0  0  0  0  0  0  0  0
  147.9392  160.7108  132.7994 H   0  0  0  0  0  0  0  0  0  0  0  0
  150.7554  159.0681  131.4345 H   0  0  0  0  0  0  0  0  0  0  0  0
  149.9561  159.8317  128.7908 H   0  0  0  0  0  0  0  0  0  0  0  0
  148.4501  159.5780  129.0868 H   0  0  0  0  0  0  0  0  0  0  0  0
  150.3694  161.7594  130.5245 H   0  0  0  0  0  0  0  0  0  0  0  0
  148.9354  161.8405  131.1215 H   0  0  0  0  0  0  0  0  0  0  0  0
  149.7114  156.9393  131.5084 H   0  0  0  0  0  0  0  0  0  0  0  0
  148.6770  152.5170  131.7230 H   0  0  0  0  0  0  0  0  0  0  0  0
  147.1050  153.1750  132.3010 H   0  0  0  0  0  0  0  0  0  0  0  0
  1  2  1  0
  2  3  2  0
  2  4  1  0
  4  5  2  0
  5  6  1  0
  6  7  2  0
  7  8  1  0
  8  9  2  0
  9 10  1  0
 10 11  1  0
 11 12  1  0
  9 13  1  0
 13 14  2  0
 14 15  1  0
 15 16  1  0
 16 17  1  0
 16 18  2  0
 15  4  1  0
 14  6  1  0
 12 10  1  0
  1 19  1  0
  5 20  1  0
  7 21  1  0
  8 22  1  0
 10 23  1  0
 11 24  1  0
 11 25  1  0
 12 26  1  0
 12 27  1  0
 13 28  1  0
 17 29  1  0
 17 30  1  0
M  CHG  1   1  -1
M  END
>  <UniqueID>  (73) 
73

>  <SMILES>  (73) 
[NH-]C(=O)c1cc2ccc(C3CC3)cc2n1C(N)=O

>  <Energy>  (73) 
337.72589987221164

>  <Genealogy>  (73) 
[NH-]C(=O)c1cc2ccc(C3CC3)cc2n1C(N)=O (protonated)
[NH-]C(=O)c1cc2ccc(C3CC3)cc2n1C(N)=O (3D coordinates assigned)
[NH-]C(=O)c1cc2ccc(C3CC3)cc2n1C(N)=O (nonaromatic ring conformer: 337.72589987221164 kcal/mol)

>  <smiles>  (73) 
NC(=O)c1cc2ccc(C3CC3)cc2n1C(N)=O

>  <score_type>  (73) 
oracle

>  <origin>  (73) 
adg

>  <m_score__min__energy>  (73) 
-6.8399999999999999

>  <m_primary>  (73) 
energy

$$$$
73:0
     RDKit          3D

 35 37  0  0  0  0  0  0  0  0999 V2000
  141.6830  158.5020  135.0250 C   0  0  0  0  0  0  0  0  0  0  0  0
  143.0940  158.3680  134.8930 O   0  0  0  0  0  0  0  0  0  0  0  0
  143.7390  158.3650  133.6540 C   0  0  0  0  0  0  0  0  0  0  0  0
  143.1820  157.8450  132.6480 O   0  0  0  0  0  0  0  0  0  0  0  0
  145.0320  158.9780  133.5220 N   0  0  0  0  0  0  0  0  0  0  0  0
  145.3470  160.3020  133.6210 C   0  0  0  0  0  0  0  0  0  0  0  0
  144.3860  161.4160  133.7580 C   0  0  0  0  0  0  0  0  0  0  0  0
  142.9850  161.1520  133.7300 N   0  0  0  0  0  0  0  0  0  0  0  0
  144.7870  162.5960  133.9370 O   0  0  0  0  0  0  0  0  0  0  0  0
  146.7220  160.4860  133.4930 C   0  0  0  0  0  0  0  0  0  0  0  0
  147.2430  159.2270  133.3030 C   0  0  0  0  0  0  0  0  0  0  0  0
  148.5620  158.8230  133.1280 C   0  0  0  0  0  0  0  0  0  0  0  0
  148.8160  157.4490  132.9800 C   0  0  0  0  0  0  0  0  0  0  0  0
  147.7570  156.5050  133.0170 C   0  0  0  0  0  0  0  0  0  0  0  0
  148.0380  155.0540  132.8720 C   0  0  0  0  0  0  0  0  0  0  0  0
  149.3420  154.6010  132.5990 C   0  0  0  0  0  0  0  0  0  0  0  0
  149.6030  153.2340  132.4640 C   0  0  0  0  0  0  0  0  0  0  0  0
  148.5690  152.3040  132.6000 C   0  0  0  0  0  0  0  0  0  0  0  0
  148.9000  150.5910  132.4300 Cl  0  0  0  0  0  0  0  0  0  0  0  0
  147.2700  152.7430  132.8710 C   0  0  0  0  0  0  0  0  0  0  0  0
  147.0040  154.1090  133.0070 C   0  0  0  0  0  0  0  0  0  0  0  0
  146.4290  156.9590  133.1990 C   0  0  0  0  0  0  0  0  0  0  0  0
  146.2040  158.3350  133.3230 C   0  0  0  0  0  0  0  0  0  0  0  0
  141.4153  158.5274  136.0916 H   0  0  0  0  0  0  0  0  0  0  0  0
  141.3566  159.4352  134.5427 H   0  0  0  0  0  0  0  0  0  0  0  0
  141.1868  157.6469  134.5427 H   0  0  0  0  0  0  0  0  0  0  0  0
  142.6230  160.1730  133.7250 H   0  0  0  0  0  0  0  0  0  0  0  0
  147.2741  161.4365  133.5350 H   0  0  0  0  0  0  0  0  0  0  0  0
  149.3814  159.5565  133.1061 H   0  0  0  0  0  0  0  0  0  0  0  0
  149.8490  157.1006  132.8336 H   0  0  0  0  0  0  0  0  0  0  0  0
  150.1613  155.3270  132.4911 H   0  0  0  0  0  0  0  0  0  0  0  0
  150.6255  152.8896  132.2501 H   0  0  0  0  0  0  0  0  0  0  0  0
  146.4549  152.0121  132.9776 H   0  0  0  0  0  0  0  0  0  0  0  0
  145.9794  154.4473  133.2210 H   0  0  0  0  0  0  0  0  0  0  0  0
  145.5922  156.2464  133.2421 H   0  0  0  0  0  0  0  0  0  0  0  0
  1  2  1  0
  2  3  1  0
  3  4  2  0
  3  5  1  0
  5  6  1  0
  6  7  1  0
  7  8  1  0
  7  9  2  0
  6 10  2  0
 10 11  1  0
 11 12  2  0
 12 13  1  0
 13 14  2  0
 14 15  1  0
 15 16  2  0
 16 17  1  0
 17 18  2  0
 18 19  1  0
 18 20  1  0
 20 21  2  0
 14 22  1  0
 22 23  2  0
 23  5  1  0
 23 11  1  0
 21 15  1  0
  1 24  1  0
  1 25  1  0
  1 26  1  0
  8 27  1  0
 10 28  1  0
 12 29  1  0
 13 30  1  0
 16 31  1  0
 17 32  1  0
 20 33  1  0
 21 34  1  0
 22 35  1  0
M  CHG  1   8  -1
M  END
>  <UniqueID>  (74) 
74

>  <SMILES>  (74) 
COC(=O)n1c(C([NH-])=O)cc2ccc(-c3ccc(Cl)cc3)cc21

>  <Energy>  (74) 
79.59208065778627

>  <Genealogy>  (74) 
COC(=O)n1c(C([NH-])=O)cc2ccc(-c3ccc(Cl)cc3)cc21 (protonated)
COC(=O)n1c(C([NH-])=O)cc2ccc(-c3ccc(Cl)cc3)cc21 (3D coordinates assigned)
COC(=O)n1c(C([NH-])=O)cc2ccc(-c3ccc(Cl)cc3)cc21 (optimized conformer: 79.59208065778627 kcal/mol)

>  <smiles>  (74) 
COC(=O)n1c(C(N)=O)cc2ccc(-c3ccc(Cl)cc3)cc21

>  <score_type>  (74) 
oracle

>  <origin>  (74) 
adg

>  <m_score__min__energy>  (74) 
-7.4900000000000002

>  <m_primary>  (74) 
energy

$$$$
74:0
     RDKit          3D

 41 42  0  0  0  0  0  0  0  0999 V2000
  141.8340  152.5520  136.1660 C   0  0  0  0  0  0  0  0  0  0  0  0
  140.9840  151.3990  136.4260 N   0  0  0  0  0  0  0  0  0  0  0  0
  140.6490  150.9640  137.7460 C   0  0  0  0  0  0  0  0  0  0  0  0
  139.8210  150.0290  137.9200 O   0  0  0  0  0  0  0  0  0  0  0  0
  141.2480  151.6610  138.9290 C   0  0  0  0  0  0  0  0  0  0  0  0
  140.2920  152.7030  139.5360 C   0  0  0  0  0  0  0  0  0  0  0  0
  140.2220  154.0330  138.7630 C   0  0  0  0  0  0  0  0  0  0  0  0
  141.2340  155.0720  139.2660 C   0  0  0  0  0  0  0  0  0  0  0  0
  141.3150  156.2270  138.3040 C   0  0  0  0  0  0  0  0  0  0  0  0
  141.6610  157.5190  138.7670 C   0  0  0  0  0  0  0  0  0  0  0  0
  141.7150  158.6070  137.8780 C   0  0  0  0  0  0  0  0  0  0  0  0
  141.4000  158.3730  136.5410 C   0  0  0  0  0  0  0  0  0  0  0  0
  141.3960  159.2360  135.4710 C   0  0  0  0  0  0  0  0  0  0  0  0
  141.0050  158.4650  134.3790 C   0  0  0  0  0  0  0  0  0  0  0  0
  140.8010  159.0200  133.0260 C   0  0  0  0  0  0  0  0  0  0  0  0
  141.0580  158.2380  131.8590 N   0  0  0  0  0  0  0  0  0  0  0  0
  140.3360  160.1850  132.8990 O   0  0  0  0  0  0  0  0  0  0  0  0
  140.7890  157.1720  134.7530 N   0  0  0  0  0  0  0  0  0  0  0  0
  140.4890  156.0530  133.9030 C   0  0  0  0  0  0  0  0  0  0  0  0
  139.5680  156.1970  132.8240 N   0  0  0  0  0  0  0  0  0  0  0  0
  141.0460  154.9390  134.0980 O   0  0  0  0  0  0  0  0  0  0  0  0
  141.0330  157.1330  136.0840 C   0  0  0  0  0  0  0  0  0  0  0  0
  140.9930  156.0290  136.9430 C   0  0  0  0  0  0  0  0  0  0  0  0
  142.1580  152.9915  137.1209 H   0  0  0  0  0  0  0  0  0  0  0  0
  142.7161  152.2349  135.5903 H   0  0  0  0  0  0  0  0  0  0  0  0
  141.2702  153.3008  135.5903 H   0  0  0  0  0  0  0  0  0  0  0  0
  141.4887  150.9114  139.6972 H   0  0  0  0  0  0  0  0  0  0  0  0
  142.1505  152.1893  138.5880 H   0  0  0  0  0  0  0  0  0  0  0  0
  139.2821  152.2679  139.5631 H   0  0  0  0  0  0  0  0  0  0  0  0
  140.6844  152.9425  140.5353 H   0  0  0  0  0  0  0  0  0  0  0  0
  140.4242  153.8322  137.7006 H   0  0  0  0  0  0  0  0  0  0  0  0
  139.2163  154.4511  138.9172 H   0  0  0  0  0  0  0  0  0  0  0  0
  140.9155  155.4419  140.2518 H   0  0  0  0  0  0  0  0  0  0  0  0
  142.2244  154.5998  139.3441 H   0  0  0  0  0  0  0  0  0  0  0  0
  141.8897  157.6733  139.8318 H   0  0  0  0  0  0  0  0  0  0  0  0
  141.9970  159.6113  138.2270 H   0  0  0  0  0  0  0  0  0  0  0  0
  141.6478  160.3068  135.4761 H   0  0  0  0  0  0  0  0  0  0  0  0
  140.9430  158.6590  130.9110 H   0  0  0  0  0  0  0  0  0  0  0  0
  141.2840  157.2220  131.9310 H   0  0  0  0  0  0  0  0  0  0  0  0
  138.5560  155.9760  132.9500 H   0  0  0  0  0  0  0  0  0  0  0  0
  140.7178  155.0323  136.5678 H   0  0  0  0  0  0  0  0  0  0  0  0
  1  2  1  0
  2  3  1  0
  3  4  2  0
  3  5  1  0
  5  6  1  0
  6  7  1  0
  7  8  1  0
  8  9  1  0
  9 10  2  0
 10 11  1  0
 11 12  2  0
 12 13  1  0
 13 14  2  0
 14 15  1  0
 15 16  1  0
 15 17  2  0
 14 18  1  0
 18 19  1  0
 19 20  1  0
 19 21  2  0
 18 22  1  0
 22 23  2  0
 23  9  1  0
 22 12  1  0
  1 24  1  0
  1 25  1  0
  1 26  1  0
  5 27  1  0
  5 28  1  0
  6 29  1  0
  6 30  1  0
  7 31  1  0
  7 32  1  0
  8 33  1  0
  8 34  1  0
 10 35  1  0
 11 36  1  0
 13 37  1  0
 16 38  1  0
 16 39  1  0
 20 40  1  0
 23 41  1  0
M  CHG  2   2  -1  20  -1
M  END
>  <UniqueID>  (75) 
75

>  <SMILES>  (75) 
C[N-]C(=O)CCCCc1ccc2cc(C(N)=O)n(C([NH-])=O)c2c1

>  <Energy>  (75) 
70.36215799093658

>  <Genealogy>  (75) 
C[N-]C(=O)CCCCc1ccc2cc(C(N)=O)n(C([NH-])=O)c2c1 (protonated)
C[N-]C(=O)CCCCc1ccc2cc(C(N)=O)n(C([NH-])=O)c2c1 (3D coordinates assigned)
C[N-]C(=O)CCCCc1ccc2cc(C(N)=O)n(C([NH-])=O)c2c1 (optimized conformer: 70.36215799093658 kcal/mol)

>  <smiles>  (75) 
CNC(=O)CCCCc1ccc2cc(C(N)=O)n(C(N)=O)c2c1

>  <score_type>  (75) 
oracle

>  <origin>  (75) 
adg

>  <m_score__min__energy>  (75) 
-7.5

>  <m_primary>  (75) 
energy

$$$$
75:0
     RDKit          3D

 45 46  0  0  0  0  0  0  0  0999 V2000
  141.0320  159.9720  133.7110 C   0  0  0  0  0  0  0  0  0  0  0  0
  141.6630  159.3370  134.9460 C   0  0  0  0  0  0  0  0  0  0  0  0
  143.0860  159.3980  134.8720 O   0  0  0  0  0  0  0  0  0  0  0  0
  143.8210  158.9410  133.7720 C   0  0  0  0  0  0  0  0  0  0  0  0
  143.2710  158.2340  132.8850 O   0  0  0  0  0  0  0  0  0  0  0  0
  145.2080  159.2950  133.6470 N   0  0  0  0  0  0  0  0  0  0  0  0
  145.7590  160.5390  133.7170 C   0  0  0  0  0  0  0  0  0  0  0  0
  145.0570  161.7800  134.1060 C   0  0  0  0  0  0  0  0  0  0  0  0
  143.7010  162.0030  133.7310 N   0  0  0  0  0  0  0  0  0  0  0  0
  145.6470  162.6320  134.8220 O   0  0  0  0  0  0  0  0  0  0  0  0
  147.1260  160.4840  133.4550 C   0  0  0  0  0  0  0  0  0  0  0  0
  147.4000  159.1540  133.2300 C   0  0  0  0  0  0  0  0  0  0  0  0
  148.6060  158.5270  132.9310 C   0  0  0  0  0  0  0  0  0  0  0  0
  148.5960  157.1340  132.7540 C   0  0  0  0  0  0  0  0  0  0  0  0
  147.3900  156.3980  132.8690 C   0  0  0  0  0  0  0  0  0  0  0  0
  147.4020  154.8970  132.7220 C   0  0  0  0  0  0  0  0  0  0  0  0
  148.8230  154.3110  132.6320 C   0  0  0  0  0  0  0  0  0  0  0  0
  148.8830  152.7960  132.8910 C   0  0  0  0  0  0  0  0  0  0  0  0
  149.9890  152.1880  132.1510 N   0  0  0  0  0  0  0  0  0  0  0  0
  149.9990  150.8220  131.7230 C   0  0  0  0  0  0  0  0  0  0  0  0
  149.0730  150.0360  132.0690 O   0  0  0  0  0  0  0  0  0  0  0  0
  151.0390  150.3730  130.9040 O   0  0  0  0  0  0  0  0  0  0  0  0
  150.8090  149.7220  129.6600 C   0  0  0  0  0  0  0  0  0  0  0  0
  146.1810  157.0740  133.1480 C   0  0  0  0  0  0  0  0  0  0  0  0
  146.2250  158.4580  133.3500 C   0  0  0  0  0  0  0  0  0  0  0  0
  140.2884  160.7203  134.0228 H   0  0  0  0  0  0  0  0  0  0  0  0
  141.8133  160.4599  133.1098 H   0  0  0  0  0  0  0  0  0  0  0  0
  140.5392  159.1938  133.1098 H   0  0  0  0  0  0  0  0  0  0  0  0
  141.3244  159.8768  135.8427 H   0  0  0  0  0  0  0  0  0  0  0  0
  141.3561  158.2819  134.9975 H   0  0  0  0  0  0  0  0  0  0  0  0
  143.0150  161.2160  133.6990 H   0  0  0  0  0  0  0  0  0  0  0  0
  147.8354  161.3244  133.4327 H   0  0  0  0  0  0  0  0  0  0  0  0
  149.5375  159.1043  132.8363 H   0  0  0  0  0  0  0  0  0  0  0  0
  149.5343  156.6082  132.5236 H   0  0  0  0  0  0  0  0  0  0  0  0
  146.8957  154.4557  133.5932 H   0  0  0  0  0  0  0  0  0  0  0  0
  146.8869  154.6552  131.7806 H   0  0  0  0  0  0  0  0  0  0  0  0
  149.2166  154.5071  131.6237 H   0  0  0  0  0  0  0  0  0  0  0  0
  149.4217  154.7960  133.4171 H   0  0  0  0  0  0  0  0  0  0  0  0
  149.0281  152.6191  133.9670 H   0  0  0  0  0  0  0  0  0  0  0  0
  147.9397  152.3420  132.5532 H   0  0  0  0  0  0  0  0  0  0  0  0
  150.8300  152.7720  131.9410 H   0  0  0  0  0  0  0  0  0  0  0  0
  150.4477  148.6992  129.8427 H   0  0  0  0  0  0  0  0  0  0  0  0
  150.0539  150.2809  129.0878 H   0  0  0  0  0  0  0  0  0  0  0  0
  151.7476  149.6825  129.0878 H   0  0  0  0  0  0  0  0  0  0  0  0
  145.2289  156.5260  133.2050 H   0  0  0  0  0  0  0  0  0  0  0  0
  1  2  1  0
  2  3  1  0
  3  4  1  0
  4  5  2  0
  4  6  1  0
  6  7  1  0
  7  8  1  0
  8  9  1  0
  8 10  2  0
  7 11  2  0
 11 12  1  0
 12 13  2  0
 13 14  1  0
 14 15  2  0
 15 16  1  0
 16 17  1  0
 17 18  1  0
 18 19  1  0
 19 20  1  0
 20 21  2  0
 20 22  1  0
 22 23  1  0
 15 24  1  0
 24 25  2  0
 25  6  1  0
 25 12  1  0
  1 26  1  0
  1 27  1  0
  1 28  1  0
  2 29  1  0
  2 30  1  0
  9 31  1  0
 11 32  1  0
 13 33  1  0
 14 34  1  0
 16 35  1  0
 16 36  1  0
 17 37  1  0
 17 38  1  0
 18 39  1  0
 18 40  1  0
 19 41  1  0
 23 42  1  0
 23 43  1  0
 23 44  1  0
 24 45  1  0
M  CHG  1   9  -1
M  END
>  <UniqueID>  (76) 
76

>  <SMILES>  (76) 
CCOC(=O)n1c(C([NH-])=O)cc2ccc(CCCNC(=O)OC)cc21

>  <Energy>  (76) 
70.3955561880188

>  <Genealogy>  (76) 
CCOC(=O)n1c(C([NH-])=O)cc2ccc(CCCNC(=O)OC)cc21 (protonated)
CCOC(=O)n1c(C([NH-])=O)cc2ccc(CCCNC(=O)OC)cc21 (3D coordinates assigned)
CCOC(=O)n1c(C([NH-])=O)cc2ccc(CCCNC(=O)OC)cc21 (optimized conformer: 70.3955561880188 kcal/mol)

>  <smiles>  (76) 
CCOC(=O)n1c(C(N)=O)cc2ccc(CCCNC(=O)OC)cc21

>  <score_type>  (76) 
oracle

>  <origin>  (76) 
adg

>  <m_score__min__energy>  (76) 
-7.1200000000000001

>  <m_primary>  (76) 
energy

$$$$
76:0
     RDKit          3D

 30 32  0  0  0  0  0  0  0  0999 V2000
  139.6710  158.1780  136.4330 N   0  0  0  0  0  0  0  0  0  0  0  0
  139.9860  158.3190  135.0500 C   0  0  0  0  0  0  0  0  0  0  0  0
  139.0870  158.1140  134.1900 O   0  0  0  0  0  0  0  0  0  0  0  0
  141.3290  158.7540  134.6150 C   0  0  0  0  0  0  0  0  0  0  0  0
  141.7520  160.0810  134.6520 C   0  0  0  0  0  0  0  0  0  0  0  0
  143.0690  160.0560  134.2580 C   0  0  0  0  0  0  0  0  0  0  0  0
  143.9760  161.0980  134.1060 C   0  0  0  0  0  0  0  0  0  0  0  0
  145.2700  160.7860  133.6550 C   0  0  0  0  0  0  0  0  0  0  0  0
  145.6330  159.4470  133.3560 C   0  0  0  0  0  0  0  0  0  0  0  0
  146.9990  159.1310  132.8670 C   0  0  0  0  0  0  0  0  0  0  0  0
  147.7570  160.1000  132.1860 C   0  0  0  0  0  0  0  0  0  0  0  0
  149.0410  159.7830  131.7360 C   0  0  0  0  0  0  0  0  0  0  0  0
  149.5530  158.5430  131.9520 N   0  0  0  0  0  0  0  0  0  0  0  0
  148.8460  157.5840  132.6060 C   0  0  0  0  0  0  0  0  0  0  0  0
  147.5590  157.8590  133.0750 C   0  0  0  0  0  0  0  0  0  0  0  0
  144.6780  158.4160  133.5240 C   0  0  0  0  0  0  0  0  0  0  0  0
  143.4030  158.7530  133.9930 C   0  0  0  0  0  0  0  0  0  0  0  0
  142.3440  157.9410  134.2050 N   0  0  0  0  0  0  0  0  0  0  0  0
  142.2940  156.5270  133.9550 C   0  0  0  0  0  0  0  0  0  0  0  0
  141.3110  156.0220  133.3520 O   0  0  0  0  0  0  0  0  0  0  0  0
  143.3420  155.7060  134.3530 O   0  0  0  0  0  0  0  0  0  0  0  0
  139.4720  159.0150  137.0260 H   0  0  0  0  0  0  0  0  0  0  0  0
  141.1580  160.9621  134.9362 H   0  0  0  0  0  0  0  0  0  0  0  0
  143.6897  162.1358  134.3319 H   0  0  0  0  0  0  0  0  0  0  0  0
  146.0108  161.5898  133.5322 H   0  0  0  0  0  0  0  0  0  0  0  0
  147.3410  161.1027  132.0085 H   0  0  0  0  0  0  0  0  0  0  0  0
  149.6388  160.5389  131.2056 H   0  0  0  0  0  0  0  0  0  0  0  0
  149.2879  156.5895  132.7664 H   0  0  0  0  0  0  0  0  0  0  0  0
  146.9866  157.0833  133.6047 H   0  0  0  0  0  0  0  0  0  0  0  0
  144.9325  157.3716  133.2908 H   0  0  0  0  0  0  0  0  0  0  0  0
  1  2  1  0
  2  3  2  0
  2  4  1  0
  4  5  2  0
  5  6  1  0
  6  7  2  0
  7  8  1  0
  8  9  2  0
  9 10  1  0
 10 11  2  0
 11 12  1  0
 12 13  2  0
 13 14  1  0
 14 15  2  0
  9 16  1  0
 16 17  2  0
 17 18  1  0
 18 19  1  0
 19 20  2  0
 19 21  1  0
 18  4  1  0
 17  6  1  0
 15 10  1  0
  1 22  1  0
  5 23  1  0
  7 24  1  0
  8 25  1  0
 11 26  1  0
 12 27  1  0
 14 28  1  0
 15 29  1  0
 16 30  1  0
M  CHG  2   1  -1  21  -1
M  END
>  <UniqueID>  (77) 
77

>  <SMILES>  (77) 
[NH-]C(=O)c1cc2ccc(-c3ccncc3)cc2n1C(=O)[O-]

>  <Energy>  (77) 
79.07057026568903

>  <Genealogy>  (77) 
[NH-]C(=O)c1cc2ccc(-c3ccncc3)cc2n1C(=O)[O-] (protonated)
[NH-]C(=O)c1cc2ccc(-c3ccncc3)cc2n1C(=O)[O-] (3D coordinates assigned)
[NH-]C(=O)c1cc2ccc(-c3ccncc3)cc2n1C(=O)[O-] (optimized conformer: 79.07057026568903 kcal/mol)

>  <smiles>  (77) 
NC(=O)c1cc2ccc(-c3ccncc3)cc2n1C(=O)O

>  <score_type>  (77) 
oracle

>  <origin>  (77) 
adg

>  <m_score__min__energy>  (77) 
-7.0800000000000001

>  <m_primary>  (77) 
energy

$$$$
77:0
     RDKit          3D

 40 41  0  0  0  0  0  0  0  0999 V2000
  141.6730  149.2800  132.2070 C   0  0  0  0  0  0  0  0  0  0  0  0
  142.1750  150.3260  133.0280 O   0  0  0  0  0  0  0  0  0  0  0  0
  141.3390  151.2000  133.7280 C   0  0  0  0  0  0  0  0  0  0  0  0
  141.2220  151.1150  134.9820 O   0  0  0  0  0  0  0  0  0  0  0  0
  140.6170  152.2780  132.9870 C   0  0  0  0  0  0  0  0  0  0  0  0
  141.3620  153.5770  133.1140 C   0  0  0  0  0  0  0  0  0  0  0  0
  142.7780  153.5940  133.0540 C   0  0  0  0  0  0  0  0  0  0  0  0
  143.4870  154.7960  133.2170 C   0  0  0  0  0  0  0  0  0  0  0  0
  142.7550  155.9590  133.4410 C   0  0  0  0  0  0  0  0  0  0  0  0
  143.1870  157.2460  133.6650 C   0  0  0  0  0  0  0  0  0  0  0  0
  142.0280  157.9980  133.8480 C   0  0  0  0  0  0  0  0  0  0  0  0
  142.0320  159.4640  134.0340 C   0  0  0  0  0  0  0  0  0  0  0  0
  140.9950  160.1130  134.7650 N   0  0  0  0  0  0  0  0  0  0  0  0
  142.9380  160.1590  133.5010 O   0  0  0  0  0  0  0  0  0  0  0  0
  140.9240  157.2050  133.7500 N   0  0  0  0  0  0  0  0  0  0  0  0
  139.5520  157.5690  133.9620 C   0  0  0  0  0  0  0  0  0  0  0  0
  139.1040  157.6810  135.1360 O   0  0  0  0  0  0  0  0  0  0  0  0
  138.7120  157.7750  132.8620 O   0  0  0  0  0  0  0  0  0  0  0  0
  138.6080  159.0170  132.1680 C   0  0  0  0  0  0  0  0  0  0  0  0
  137.3590  159.0230  131.2820 C   0  0  0  0  0  0  0  0  0  0  0  0
  139.8630  159.2180  131.3220 C   0  0  0  0  0  0  0  0  0  0  0  0
  141.3860  155.9600  133.4970 C   0  0  0  0  0  0  0  0  0  0  0  0
  140.6550  154.7750  133.3550 C   0  0  0  0  0  0  0  0  0  0  0  0
  141.2843  148.4701  132.8418 H   0  0  0  0  0  0  0  0  0  0  0  0
  140.8634  149.6688  131.5719 H   0  0  0  0  0  0  0  0  0  0  0  0
  142.4828  148.8916  131.5719 H   0  0  0  0  0  0  0  0  0  0  0  0
  140.5430  152.0029  131.9245 H   0  0  0  0  0  0  0  0  0  0  0  0
  139.6097  152.3964  133.4129 H   0  0  0  0  0  0  0  0  0  0  0  0
  143.3271  152.6572  132.8782 H   0  0  0  0  0  0  0  0  0  0  0  0
  144.5857  154.8176  133.1691 H   0  0  0  0  0  0  0  0  0  0  0  0
  144.2263  157.6051  133.6936 H   0  0  0  0  0  0  0  0  0  0  0  0
  140.1280  159.6000  135.0390 H   0  0  0  0  0  0  0  0  0  0  0  0
  138.5192  159.8405  132.8919 H   0  0  0  0  0  0  0  0  0  0  0  0
  136.4599  159.0273  131.9157 H   0  0  0  0  0  0  0  0  0  0  0  0
  137.3643  159.9211  130.6469 H   0  0  0  0  0  0  0  0  0  0  0  0
  137.3556  158.1249  130.6469 H   0  0  0  0  0  0  0  0  0  0  0  0
  140.7318  159.3572  131.9822 H   0  0  0  0  0  0  0  0  0  0  0  0
  140.0227  158.3340  130.6872 H   0  0  0  0  0  0  0  0  0  0  0  0
  139.7387  160.1077  130.6872 H   0  0  0  0  0  0  0  0  0  0  0  0
  139.5575  154.7770  133.4293 H   0  0  0  0  0  0  0  0  0  0  0  0
  1  2  1  0
  2  3  1  0
  3  4  2  0
  3  5  1  0
  5  6  1  0
  6  7  2  0
  7  8  1  0
  8  9  2  0
  9 10  1  0
 10 11  2  0
 11 12  1  0
 12 13  1  0
 12 14  2  0
 11 15  1  0
 15 16  1  0
 16 17  2  0
 16 18  1  0
 18 19  1  0
 19 20  1  0
 19 21  1  0
 15 22  1  0
 22 23  2  0
 23  6  1  0
 22  9  1  0
  1 24  1  0
  1 25  1  0
  1 26  1  0
  5 27  1  0
  5 28  1  0
  7 29  1  0
  8 30  1  0
 10 31  1  0
 13 32  1  0
 19 33  1  0
 20 34  1  0
 20 35  1  0
 20 36  1  0
 21 37  1  0
 21 38  1  0
 21 39  1  0
 23 40  1  0
M  CHG  1  13  -1
M  END
>  <UniqueID>  (78) 
78

>  <SMILES>  (78) 
COC(=O)Cc1ccc2cc(C([NH-])=O)n(C(=O)OC(C)C)c2c1

>  <Energy>  (78) 
68.4943170077858

>  <Genealogy>  (78) 
COC(=O)Cc1ccc2cc(C([NH-])=O)n(C(=O)OC(C)C)c2c1 (protonated)
COC(=O)Cc1ccc2cc(C([NH-])=O)n(C(=O)OC(C)C)c2c1 (3D coordinates assigned)
COC(=O)Cc1ccc2cc(C([NH-])=O)n(C(=O)OC(C)C)c2c1 (optimized conformer: 68.4943170077858 kcal/mol)

>  <smiles>  (78) 
COC(=O)Cc1ccc2cc(C(N)=O)n(C(=O)OC(C)C)c2c1

>  <score_type>  (78) 
oracle

>  <origin>  (78) 
adg

>  <m_score__min__energy>  (78) 
-6.46

>  <m_primary>  (78) 
energy

$$$$
78:0
     RDKit          3D

 46 48  0  0  0  0  0  0  0  0999 V2000
  149.2650  159.3740  131.4130 C   0  0  0  0  0  0  0  0  0  0  0  0
  148.2250  160.4880  131.3690 C   0  0  0  0  0  0  0  0  0  0  0  0
  146.9670  160.0190  131.8470 O   0  0  0  0  0  0  0  0  0  0  0  0
  146.6350  159.9450  133.2050 C   0  0  0  0  0  0  0  0  0  0  0  0
  147.5410  159.9200  134.0820 O   0  0  0  0  0  0  0  0  0  0  0  0
  145.2550  159.9240  133.6000 N   0  0  0  0  0  0  0  0  0  0  0  0
  144.4610  160.9830  133.9320 C   0  0  0  0  0  0  0  0  0  0  0  0
  144.9030  162.3860  134.0820 C   0  0  0  0  0  0  0  0  0  0  0  0
  146.2050  162.6690  134.5890 N   0  0  0  0  0  0  0  0  0  0  0  0
  144.1560  163.3380  133.7330 O   0  0  0  0  0  0  0  0  0  0  0  0
  143.1630  160.5550  134.1990 C   0  0  0  0  0  0  0  0  0  0  0  0
  143.1870  159.1910  134.0280 C   0  0  0  0  0  0  0  0  0  0  0  0
  142.1660  158.2550  134.1560 C   0  0  0  0  0  0  0  0  0  0  0  0
  142.4670  156.9090  133.8940 C   0  0  0  0  0  0  0  0  0  0  0  0
  143.7760  156.5140  133.5010 C   0  0  0  0  0  0  0  0  0  0  0  0
  144.0730  155.1250  133.2230 N   0  0  0  0  0  0  0  0  0  0  0  0
  143.6680  154.0230  134.0810 C   0  0  0  0  0  0  0  0  0  0  0  0
  144.0140  152.7530  133.3200 C   0  0  0  0  0  0  0  0  0  0  0  0
  145.0330  153.1630  132.2420 C   0  0  2  0  0  0  0  0  0  0  0  0
  146.4260  152.8870  132.6630 N   0  0  0  0  0  0  0  0  0  0  0  0
  147.0370  154.0400  133.3360 C   0  0  0  0  0  0  0  0  0  0  0  0
  144.8030  154.6700  132.0490 C   0  0  0  0  0  0  0  0  0  0  0  0
  144.7840  157.5030  133.3810 C   0  0  0  0  0  0  0  0  0  0  0  0
  144.4590  158.8340  133.6680 C   0  0  0  0  0  0  0  0  0  0  0  0
  149.4947  159.1280  132.4602 H   0  0  0  0  0  0  0  0  0  0  0  0
  148.8688  158.4822  130.9052 H   0  0  0  0  0  0  0  0  0  0  0  0
  150.1818  159.7080  130.9052 H   0  0  0  0  0  0  0  0  0  0  0  0
  148.5630  161.3232  132.0001 H   0  0  0  0  0  0  0  0  0  0  0  0
  148.1066  160.8217  130.3275 H   0  0  0  0  0  0  0  0  0  0  0  0
  146.9830  161.9820  134.4830 H   0  0  0  0  0  0  0  0  0  0  0  0
  142.3016  161.1761  134.4858 H   0  0  0  0  0  0  0  0  0  0  0  0
  141.1522  158.5606  134.4539 H   0  0  0  0  0  0  0  0  0  0  0  0
  141.6788  156.1483  133.9941 H   0  0  0  0  0  0  0  0  0  0  0  0
  144.2158  154.0590  135.0342 H   0  0  0  0  0  0  0  0  0  0  0  0
  142.5954  154.0707  134.3202 H   0  0  0  0  0  0  0  0  0  0  0  0
  144.4561  152.0096  133.9997 H   0  0  0  0  0  0  0  0  0  0  0  0
  143.1185  152.2971  132.8726 H   0  0  0  0  0  0  0  0  0  0  0  0
  144.8938  152.5917  131.3124 H   0  0  0  0  0  0  0  0  0  0  0  0
  146.4370  152.0960  133.3490 H   0  0  0  0  0  0  0  0  0  0  0  0
  147.0130  152.6150  131.8390 H   0  0  0  0  0  0  0  0  0  0  0  0
  146.9670  153.9079  134.4258 H   0  0  0  0  0  0  0  0  0  0  0  0
  148.0945  154.1174  133.0432 H   0  0  0  0  0  0  0  0  0  0  0  0
  146.5073  154.9585  133.0432 H   0  0  0  0  0  0  0  0  0  0  0  0
  145.7662  155.1956  131.9720 H   0  0  0  0  0  0  0  0  0  0  0  0
  144.2418  154.8739  131.1252 H   0  0  0  0  0  0  0  0  0  0  0  0
  145.8026  157.2299  133.0682 H   0  0  0  0  0  0  0  0  0  0  0  0
  1  2  1  0
  2  3  1  0
  3  4  1  0
  4  5  2  0
  4  6  1  0
  6  7  1  0
  7  8  1  0
  8  9  1  0
  8 10  2  0
  7 11  2  0
 11 12  1  0
 12 13  2  0
 13 14  1  0
 14 15  2  0
 15 16  1  0
 16 17  1  0
 17 18  1  0
 18 19  1  0
 19 20  1  0
 20 21  1  0
 19 22  1  0
 15 23  1  0
 23 24  2  0
 24  6  1  0
 24 12  1  0
 22 16  1  0
  1 25  1  0
  1 26  1  0
  1 27  1  0
  2 28  1  0
  2 29  1  0
  9 30  1  0
 11 31  1  0
 13 32  1  0
 14 33  1  0
 17 34  1  0
 17 35  1  0
 18 36  1  0
 18 37  1  0
 19 38  1  6
 20 39  1  0
 20 40  1  0
 21 41  1  0
 21 42  1  0
 21 43  1  0
 22 44  1  0
 22 45  1  0
 23 46  1  0
M  CHG  2   9  -1  20   1
M  END
>  <UniqueID>  (79) 
79

>  <SMILES>  (79) 
CCOC(=O)n1c(C([NH-])=O)cc2ccc(N3CC[C@H]([NH2+]C)C3)cc21

>  <Energy>  (79) 
85.02419904468647

>  <Genealogy>  (79) 
CCOC(=O)n1c(C([NH-])=O)cc2ccc(N3CCC([NH2+]C)C3)cc21 (protonated)
CCOC(=O)n1c(C([NH-])=O)cc2ccc(N3CC[C@H]([NH2+]C)C3)cc21 (chirality)
CCOC(=O)n1c(C([NH-])=O)cc2ccc(N3CC[C@H]([NH2+]C)C3)cc21 (3D coordinates assigned)
CCOC(=O)n1c(C([NH-])=O)cc2ccc(N3CC[C@H]([NH2+]C)C3)cc21 (nonaromatic ring conformer: 85.02419904468647 kcal/mol)

>  <smiles>  (79) 
CCOC(=O)n1c(C(N)=O)cc2ccc(N3CCC(NC)C3)cc21

>  <score_type>  (79) 
oracle

>  <origin>  (79) 
adg

>  <m_score__min__energy>  (79) 
-7.04

>  <m_primary>  (79) 
energy

$$$$
79:0
     RDKit          3D

 32 34  0  0  0  0  0  0  0  0999 V2000
  138.9320  158.3220  134.2140 N   0  0  0  0  0  0  0  0  0  0  0  0
  139.9600  158.0660  135.1720 C   0  0  0  0  0  0  0  0  0  0  0  0
  139.6670  158.0270  136.3970 O   0  0  0  0  0  0  0  0  0  0  0  0
  141.3690  157.9150  134.7580 C   0  0  0  0  0  0  0  0  0  0  0  0
  142.1180  156.7690  135.0040 C   0  0  0  0  0  0  0  0  0  0  0  0
  143.3780  157.0500  134.5300 C   0  0  0  0  0  0  0  0  0  0  0  0
  144.5200  156.2560  134.5050 C   0  0  0  0  0  0  0  0  0  0  0  0
  145.6790  156.7880  133.9180 C   0  0  0  0  0  0  0  0  0  0  0  0
  145.6800  158.0940  133.3610 C   0  0  0  0  0  0  0  0  0  0  0  0
  146.9080  158.6400  132.7310 C   0  0  0  0  0  0  0  0  0  0  0  0
  146.9450  159.9660  132.2620 C   0  0  0  0  0  0  0  0  0  0  0  0
  148.1030  160.4770  131.6700 C   0  0  0  0  0  0  0  0  0  0  0  0
  149.2380  159.6720  131.5380 C   0  0  0  0  0  0  0  0  0  0  0  0
  150.3590  160.1730  130.9630 F   0  0  0  0  0  0  0  0  0  0  0  0
  149.2160  158.3530  132.0000 C   0  0  0  0  0  0  0  0  0  0  0  0
  150.3130  157.5680  131.8690 F   0  0  0  0  0  0  0  0  0  0  0  0
  148.0580  157.8380  132.5930 C   0  0  0  0  0  0  0  0  0  0  0  0
  144.4950  158.8680  133.4050 C   0  0  0  0  0  0  0  0  0  0  0  0
  143.3600  158.3210  134.0150 C   0  0  0  0  0  0  0  0  0  0  0  0
  142.1280  158.8660  134.1440 N   0  0  0  0  0  0  0  0  0  0  0  0
  141.6850  160.1310  133.6250 C   0  0  0  0  0  0  0  0  0  0  0  0
  142.4010  161.1590  133.7500 O   0  0  0  0  0  0  0  0  0  0  0  0
  140.4620  160.2320  132.9730 O   0  0  0  0  0  0  0  0  0  0  0  0
  139.1630  158.5250  133.2170 H   0  0  0  0  0  0  0  0  0  0  0  0
  137.9360  158.3910  134.5210 H   0  0  0  0  0  0  0  0  0  0  0  0
  141.7755  155.8367  135.4769 H   0  0  0  0  0  0  0  0  0  0  0  0
  144.5150  155.2423  134.9321 H   0  0  0  0  0  0  0  0  0  0  0  0
  146.5986  156.1850  133.8892 H   0  0  0  0  0  0  0  0  0  0  0  0
  146.0555  160.6053  132.3621 H   0  0  0  0  0  0  0  0  0  0  0  0
  148.1214  161.5152  131.3070 H   0  0  0  0  0  0  0  0  0  0  0  0
  148.0455  156.7991  132.9542 H   0  0  0  0  0  0  0  0  0  0  0  0
  144.4670  159.8776  132.9691 H   0  0  0  0  0  0  0  0  0  0  0  0
  1  2  1  0
  2  3  2  0
  2  4  1  0
  4  5  2  0
  5  6  1  0
  6  7  2  0
  7  8  1  0
  8  9  2  0
  9 10  1  0
 10 11  2  0
 11 12  1  0
 12 13  2  0
 13 14  1  0
 13 15  1  0
 15 16  1  0
 15 17  2  0
  9 18  1  0
 18 19  2  0
 19 20  1  0
 20 21  1  0
 21 22  2  0
 21 23  1  0
 20  4  1  0
 19  6  1  0
 17 10  1  0
  1 24  1  0
  1 25  1  0
  5 26  1  0
  7 27  1  0
  8 28  1  0
 11 29  1  0
 12 30  1  0
 17 31  1  0
 18 32  1  0
M  CHG  1  23  -1
M  END
>  <UniqueID>  (80) 
80

>  <SMILES>  (80) 
NC(=O)c1cc2ccc(-c3ccc(F)c(F)c3)cc2n1C(=O)[O-]

>  <Energy>  (80) 
80.41562652799067

>  <Genealogy>  (80) 
NC(=O)c1cc2ccc(-c3ccc(F)c(F)c3)cc2n1C(=O)[O-] (protonated)
NC(=O)c1cc2ccc(-c3ccc(F)c(F)c3)cc2n1C(=O)[O-] (3D coordinates assigned)
NC(=O)c1cc2ccc(-c3ccc(F)c(F)c3)cc2n1C(=O)[O-] (optimized conformer: 80.41562652799067 kcal/mol)

>  <smiles>  (80) 
NC(=O)c1cc2ccc(-c3ccc(F)c(F)c3)cc2n1C(=O)O

>  <score_type>  (80) 
oracle

>  <origin>  (80) 
adg

>  <m_score__min__energy>  (80) 
-7.29

>  <m_primary>  (80) 
energy

$$$$
80:0
     RDKit          3D

 28 29  0  0  0  0  0  0  0  0999 V2000
  141.0460  160.0640  132.7380 N   0  0  0  0  0  0  0  0  0  0  0  0
  141.8890  160.1430  133.8840 C   0  0  0  0  0  0  0  0  0  0  0  0
  141.3850  160.4340  135.0020 O   0  0  0  0  0  0  0  0  0  0  0  0
  143.3480  159.9370  133.7700 C   0  0  0  0  0  0  0  0  0  0  0  0
  144.2850  160.9460  133.9870 C   0  0  0  0  0  0  0  0  0  0  0  0
  145.5040  160.3810  133.6890 C   0  0  0  0  0  0  0  0  0  0  0  0
  146.7820  160.9330  133.7300 C   0  0  0  0  0  0  0  0  0  0  0  0
  147.8660  160.1090  133.3830 C   0  0  0  0  0  0  0  0  0  0  0  0
  147.6570  158.7540  133.0200 C   0  0  0  0  0  0  0  0  0  0  0  0
  148.8240  157.8900  132.6300 C   0  0  0  0  0  0  0  0  0  0  0  0
  149.8260  158.6840  131.8480 C   0  0  0  0  0  0  0  0  0  0  0  0
  149.4900  159.2740  130.8340 O   0  0  0  0  0  0  0  0  0  0  0  0
  146.3440  158.2320  132.9800 C   0  0  0  0  0  0  0  0  0  0  0  0
  145.2840  159.0810  133.3150 C   0  0  0  0  0  0  0  0  0  0  0  0
  143.9660  158.7910  133.3650 N   0  0  0  0  0  0  0  0  0  0  0  0
  143.3710  157.5080  133.1170 C   0  0  0  0  0  0  0  0  0  0  0  0
  142.2320  157.3910  132.2650 N   0  0  0  0  0  0  0  0  0  0  0  0
  143.8340  156.4800  133.6820 O   0  0  0  0  0  0  0  0  0  0  0  0
  141.4040  159.6830  131.8340 H   0  0  0  0  0  0  0  0  0  0  0  0
  144.0913  161.9748  134.3246 H   0  0  0  0  0  0  0  0  0  0  0  0
  146.9379  161.9812  134.0248 H   0  0  0  0  0  0  0  0  0  0  0  0
  148.8867  160.5189  133.3930 H   0  0  0  0  0  0  0  0  0  0  0  0
  149.3032  157.4969  133.5388 H   0  0  0  0  0  0  0  0  0  0  0  0
  148.4602  157.0613  132.0047 H   0  0  0  0  0  0  0  0  0  0  0  0
  150.8702  158.7353  132.1900 H   0  0  0  0  0  0  0  0  0  0  0  0
  146.1607  157.1860  132.6931 H   0  0  0  0  0  0  0  0  0  0  0  0
  141.8080  156.4560  132.0770 H   0  0  0  0  0  0  0  0  0  0  0  0
  141.7900  158.2410  131.8500 H   0  0  0  0  0  0  0  0  0  0  0  0
  1  2  1  0
  2  3  2  0
  2  4  1  0
  4  5  2  0
  5  6  1  0
  6  7  2  0
  7  8  1  0
  8  9  2  0
  9 10  1  0
 10 11  1  0
 11 12  2  0
  9 13  1  0
 13 14  2  0
 14 15  1  0
 15 16  1  0
 16 17  1  0
 16 18  2  0
 15  4  1  0
 14  6  1  0
  1 19  1  0
  5 20  1  0
  7 21  1  0
  8 22  1  0
 10 23  1  0
 10 24  1  0
 11 25  1  0
 13 26  1  0
 17 27  1  0
 17 28  1  0
M  CHG  1   1  -1
M  END
>  <UniqueID>  (81) 
81

>  <SMILES>  (81) 
[NH-]C(=O)c1cc2ccc(CC=O)cc2n1C(N)=O

>  <Energy>  (81) 
65.00933865852552

>  <Genealogy>  (81) 
[NH-]C(=O)c1cc2ccc(CC=O)cc2n1C(N)=O (protonated)
[NH-]C(=O)c1cc2ccc(CC=O)cc2n1C(N)=O (3D coordinates assigned)
[NH-]C(=O)c1cc2ccc(CC=O)cc2n1C(N)=O (optimized conformer: 65.00933865852552 kcal/mol)

>  <smiles>  (81) 
NC(=O)c1cc2ccc(CC=O)cc2n1C(N)=O

>  <score_type>  (81) 
oracle

>  <origin>  (81) 
adg

>  <m_score__min__energy>  (81) 
-6.29

>  <m_primary>  (81) 
energy

$$$$
81:0
     RDKit          3D

 26 27  0  0  0  0  0  0  0  0999 V2000
  148.8410  158.7930  134.2760 N   0  0  0  0  0  0  0  0  0  0  0  0
  148.0920  158.2530  133.1910 C   0  0  0  0  0  0  0  0  0  0  0  0
  148.6950  157.8620  132.1560 O   0  0  0  0  0  0  0  0  0  0  0  0
  146.6590  158.1640  133.2680 N   0  0  0  0  0  0  0  0  0  0  0  0
  145.8970  157.0350  133.2140 C   0  0  0  0  0  0  0  0  0  0  0  0
  146.3870  155.6750  132.9060 C   0  0  0  0  0  0  0  0  0  0  0  0
  147.3590  155.4520  131.8840 N   0  0  0  0  0  0  0  0  0  0  0  0
  145.8980  154.6890  133.5190 O   0  0  0  0  0  0  0  0  0  0  0  0
  144.5590  157.3300  133.4500 C   0  0  0  0  0  0  0  0  0  0  0  0
  144.5170  158.6920  133.6410 C   0  0  0  0  0  0  0  0  0  0  0  0
  143.4350  159.5220  133.9180 C   0  0  0  0  0  0  0  0  0  0  0  0
  143.6850  160.8910  134.1040 C   0  0  0  0  0  0  0  0  0  0  0  0
  145.0060  161.4020  134.0400 C   0  0  0  0  0  0  0  0  0  0  0  0
  145.2580  162.8800  134.2080 C   0  0  0  0  0  0  0  0  0  0  0  0
  146.5450  163.2050  133.8130 F   0  0  0  0  0  0  0  0  0  0  0  0
  145.1050  163.2560  135.5310 F   0  0  0  0  0  0  0  0  0  0  0  0
  144.3570  163.5850  133.4330 F   0  0  0  0  0  0  0  0  0  0  0  0
  146.0770  160.5300  133.7340 C   0  0  0  0  0  0  0  0  0  0  0  0
  145.7970  159.1730  133.5300 C   0  0  0  0  0  0  0  0  0  0  0  0
  149.3970  158.1730  134.9060 H   0  0  0  0  0  0  0  0  0  0  0  0
  147.7230  154.4890  131.7100 H   0  0  0  0  0  0  0  0  0  0  0  0
  147.6530  156.2200  131.2410 H   0  0  0  0  0  0  0  0  0  0  0  0
  143.7147  156.6254  133.4780 H   0  0  0  0  0  0  0  0  0  0  0  0
  142.4145  159.1177  133.9891 H   0  0  0  0  0  0  0  0  0  0  0  0
  142.8464  161.5749  134.3016 H   0  0  0  0  0  0  0  0  0  0  0  0
  147.1067  160.9093  133.6580 H   0  0  0  0  0  0  0  0  0  0  0  0
  1  2  1  0
  2  3  2  0
  2  4  1  0
  4  5  1  0
  5  6  1  0
  6  7  1  0
  6  8  2  0
  5  9  2  0
  9 10  1  0
 10 11  2  0
 11 12  1  0
 12 13  2  0
 13 14  1  0
 14 15  1  0
 14 16  1  0
 14 17  1  0
 13 18  1  0
 18 19  2  0
 19  4  1  0
 19 10  1  0
  1 20  1  0
  7 21  1  0
  7 22  1  0
  9 23  1  0
 11 24  1  0
 12 25  1  0
 18 26  1  0
M  CHG  1   1  -1
M  END
>  <UniqueID>  (82) 
82

>  <SMILES>  (82) 
[NH-]C(=O)n1c(C(N)=O)cc2ccc(C(F)(F)F)cc21

>  <Energy>  (82) 
66.88303797339525

>  <Genealogy>  (82) 
[NH-]C(=O)n1c(C(N)=O)cc2ccc(C(F)(F)F)cc21 (protonated)
[NH-]C(=O)n1c(C(N)=O)cc2ccc(C(F)(F)F)cc21 (3D coordinates assigned)
[NH-]C(=O)n1c(C(N)=O)cc2ccc(C(F)(F)F)cc21 (optimized conformer: 66.88303797339525 kcal/mol)

>  <smiles>  (82) 
NC(=O)c1cc2ccc(C(F)(F)F)cc2n1C(N)=O

>  <score_type>  (82) 
oracle

>  <origin>  (82) 
adg

>  <m_score__min__energy>  (82) 
-5.8399999999999999

>  <m_primary>  (82) 
energy

$$$$
82:0
     RDKit          3D

 41 43  0  0  0  0  0  0  0  0999 V2000
  149.6550  160.2320  129.2500 C   0  0  0  0  0  0  0  0  0  0  0  0
  149.5150  161.0830  130.4660 C   0  0  0  0  0  0  0  0  0  0  0  0
  149.4770  162.3370  130.3450 O   0  0  0  0  0  0  0  0  0  0  0  0
  149.5370  160.4710  131.7610 N   0  0  0  0  0  0  0  0  0  0  0  0
  148.6240  159.4800  132.2530 C   0  0  0  0  0  0  0  0  0  0  0  0
  149.0770  158.1640  132.3970 C   0  0  0  0  0  0  0  0  0  0  0  0
  148.2170  157.1660  132.8600 C   0  0  0  0  0  0  0  0  0  0  0  0
  146.8900  157.4710  133.1690 C   0  0  0  0  0  0  0  0  0  0  0  0
  146.4040  158.7810  133.0060 C   0  0  0  0  0  0  0  0  0  0  0  0
  144.9870  159.1000  133.3130 C   0  0  0  0  0  0  0  0  0  0  0  0
  144.5810  160.4470  133.5100 C   0  0  0  0  0  0  0  0  0  0  0  0
  143.2410  160.7600  133.7900 C   0  0  0  0  0  0  0  0  0  0  0  0
  142.3300  159.7130  133.8770 C   0  0  0  0  0  0  0  0  0  0  0  0
  140.9730  159.7360  134.1100 C   0  0  0  0  0  0  0  0  0  0  0  0
  140.5730  158.4020  134.0780 C   0  0  0  0  0  0  0  0  0  0  0  0
  139.1920  157.9610  134.3550 C   0  0  0  0  0  0  0  0  0  0  0  0
  138.4520  157.2040  133.3980 N   0  0  0  0  0  0  0  0  0  0  0  0
  138.6760  158.2120  135.4770 O   0  0  0  0  0  0  0  0  0  0  0  0
  141.6350  157.5880  133.8200 N   0  0  0  0  0  0  0  0  0  0  0  0
  141.6270  156.1680  133.5900 C   0  0  0  0  0  0  0  0  0  0  0  0
  142.7420  155.3010  134.0840 C   0  0  0  0  0  0  0  0  0  0  0  0
  140.6570  155.6360  132.9870 O   0  0  0  0  0  0  0  0  0  0  0  0
  142.7050  158.4060  133.7050 C   0  0  0  0  0  0  0  0  0  0  0  0
  144.0280  158.0640  133.4070 C   0  0  0  0  0  0  0  0  0  0  0  0
  147.2790  159.7800  132.5400 C   0  0  0  0  0  0  0  0  0  0  0  0
  149.8268  159.1880  129.5509 H   0  0  0  0  0  0  0  0  0  0  0  0
  148.7345  160.2942  128.6509 H   0  0  0  0  0  0  0  0  0  0  0  0
  150.5070  160.5858  128.6509 H   0  0  0  0  0  0  0  0  0  0  0  0
  150.1178  157.9138  132.1437 H   0  0  0  0  0  0  0  0  0  0  0  0
  148.5860  156.1369  132.9816 H   0  0  0  0  0  0  0  0  0  0  0  0
  146.2204  156.6821  133.5422 H   0  0  0  0  0  0  0  0  0  0  0  0
  145.3250  161.2544  133.4424 H   0  0  0  0  0  0  0  0  0  0  0  0
  142.9215  161.8024  133.9362 H   0  0  0  0  0  0  0  0  0  0  0  0
  140.3403  160.6188  134.2841 H   0  0  0  0  0  0  0  0  0  0  0  0
  137.4610  156.9380  133.5930 H   0  0  0  0  0  0  0  0  0  0  0  0
  138.9060  156.8360  132.5330 H   0  0  0  0  0  0  0  0  0  0  0  0
  142.7449  155.2987  135.1840 H   0  0  0  0  0  0  0  0  0  0  0  0
  142.5991  154.2744  133.7156 H   0  0  0  0  0  0  0  0  0  0  0  0
  143.7017  155.6925  133.7156 H   0  0  0  0  0  0  0  0  0  0  0  0
  144.3162  157.0142  133.2494 H   0  0  0  0  0  0  0  0  0  0  0  0
  146.9080  160.8058  132.3986 H   0  0  0  0  0  0  0  0  0  0  0  0
  1  2  1  0
  2  3  2  0
  2  4  1  0
  4  5  1  0
  5  6  2  0
  6  7  1  0
  7  8  2  0
  8  9  1  0
  9 10  1  0
 10 11  2  0
 11 12  1  0
 12 13  2  0
 13 14  1  0
 14 15  2  0
 15 16  1  0
 16 17  1  0
 16 18  2  0
 15 19  1  0
 19 20  1  0
 20 21  1  0
 20 22  2  0
 19 23  1  0
 23 24  2  0
  9 25  2  0
 25  5  1  0
 24 10  1  0
 23 13  1  0
  1 26  1  0
  1 27  1  0
  1 28  1  0
  6 29  1  0
  7 30  1  0
  8 31  1  0
 11 32  1  0
 12 33  1  0
 14 34  1  0
 17 35  1  0
 17 36  1  0
 21 37  1  0
 21 38  1  0
 21 39  1  0
 24 40  1  0
 25 41  1  0
M  CHG  1   4  -1
M  END
>  <UniqueID>  (83) 
83

>  <SMILES>  (83) 
CC(=O)[N-]c1cccc(-c2ccc3cc(C(N)=O)n(C(C)=O)c3c2)c1

>  <Energy>  (83) 
89.59823149519107

>  <Genealogy>  (83) 
CC(=O)[N-]c1cccc(-c2ccc3cc(C(N)=O)n(C(C)=O)c3c2)c1 (protonated)
CC(=O)[N-]c1cccc(-c2ccc3cc(C(N)=O)n(C(C)=O)c3c2)c1 (3D coordinates assigned)
CC(=O)[N-]c1cccc(-c2ccc3cc(C(N)=O)n(C(C)=O)c3c2)c1 (optimized conformer: 89.59823149519107 kcal/mol)

>  <smiles>  (83) 
CC(=O)Nc1cccc(-c2ccc3cc(C(N)=O)n(C(C)=O)c3c2)c1

>  <score_type>  (83) 
oracle

>  <origin>  (83) 
adg

>  <m_score__min__energy>  (83) 
-8.8300000000000001

>  <m_primary>  (83) 
energy

$$$$
83:0
     RDKit          3D

 69 72  0  0  0  0  0  0  0  0999 V2000
  148.6960  151.4220  131.6820 C   0  0  0  0  0  0  0  0  0  0  0  0
  148.8530  152.5100  132.7600 C   0  0  0  0  0  0  0  0  0  0  0  0
  149.9690  153.4770  132.3330 C   0  0  0  0  0  0  0  0  0  0  0  0
  149.2320  151.8820  134.1160 C   0  0  0  0  0  0  0  0  0  0  0  0
  147.6480  153.2820  132.8770 O   0  0  0  0  0  0  0  0  0  0  0  0
  146.9530  153.5670  134.0650 C   0  0  0  0  0  0  0  0  0  0  0  0
  147.5600  154.0380  135.0650 O   0  0  0  0  0  0  0  0  0  0  0  0
  145.5340  153.3360  134.1380 N   0  0  0  0  0  0  0  0  0  0  0  0
  144.8420  152.5650  133.0950 C   0  0  0  0  0  0  0  0  0  0  0  0
  143.5580  153.2770  132.6310 C   0  0  0  0  0  0  0  0  0  0  0  0
  142.8630  154.0940  133.7520 C   0  0  0  0  0  0  0  0  0  0  0  0
  141.3350  154.1000  133.5880 C   0  0  0  0  0  0  0  0  0  0  0  0
  140.9000  155.3100  132.9640 O   0  0  0  0  0  0  0  0  0  0  0  0
  140.9820  156.5850  133.5470 C   0  0  0  0  0  0  0  0  0  0  0  0
  141.8140  156.8590  134.5690 C   0  0  0  0  0  0  0  0  0  0  0  0
  141.9620  158.2580  135.1220 C   0  0  1  0  0  0  0  0  0  0  0  0
  143.2130  158.9180  134.5690 C   0  0  0  0  0  0  0  0  0  0  0  0
  143.3240  160.3330  134.4920 C   0  0  0  0  0  0  0  0  0  0  0  0
  144.4800  160.9370  133.9740 C   0  0  0  0  0  0  0  0  0  0  0  0
  145.5060  160.1110  133.5300 C   0  0  0  0  0  0  0  0  0  0  0  0
  146.7270  160.4350  132.9870 C   0  0  0  0  0  0  0  0  0  0  0  0
  147.3440  159.2160  132.7150 C   0  0  0  0  0  0  0  0  0  0  0  0
  148.6390  159.0930  132.0100 C   0  0  0  0  0  0  0  0  0  0  0  0
  149.7220  158.3730  132.6010 N   0  0  0  0  0  0  0  0  0  0  0  0
  148.8090  159.6540  130.8950 O   0  0  0  0  0  0  0  0  0  0  0  0
  146.5390  158.1780  133.0820 N   0  0  0  0  0  0  0  0  0  0  0  0
  146.8370  156.7720  133.0150 C   0  0  0  0  0  0  0  0  0  0  0  0
  148.1090  156.2830  133.4350 N   0  0  0  0  0  0  0  0  0  0  0  0
  145.9680  155.9570  132.6050 O   0  0  0  0  0  0  0  0  0  0  0  0
  145.4150  158.7440  133.5780 C   0  0  0  0  0  0  0  0  0  0  0  0
  144.2850  158.1130  134.1120 C   0  0  0  0  0  0  0  0  0  0  0  0
  140.6980  159.1190  134.8940 C   0  0  0  0  0  0  0  0  0  0  0  0
  140.0350  158.8470  133.5730 C   0  0  0  0  0  0  0  0  0  0  0  0
  140.1230  157.6470  132.9900 C   0  0  0  0  0  0  0  0  0  0  0  0
  143.2770  153.6110  135.1530 C   0  0  0  0  0  0  0  0  0  0  0  0
  144.7910  153.7780  135.3310 C   0  0  0  0  0  0  0  0  0  0  0  0
  148.5549  150.4442  132.1657 H   0  0  0  0  0  0  0  0  0  0  0  0
  147.8215  151.6505  131.0550 H   0  0  0  0  0  0  0  0  0  0  0  0
  149.5994  151.3940  131.0550 H   0  0  0  0  0  0  0  0  0  0  0  0
  150.4529  153.8963  133.2274 H   0  0  0  0  0  0  0  0  0  0  0  0
  150.7145  152.9346  131.7330 H   0  0  0  0  0  0  0  0  0  0  0  0
  149.5382  154.2921  131.7330 H   0  0  0  0  0  0  0  0  0  0  0  0
  148.8508  152.5136  134.9319 H   0  0  0  0  0  0  0  0  0  0  0  0
  148.7888  150.8781  134.1918 H   0  0  0  0  0  0  0  0  0  0  0  0
  150.3268  151.8062  134.1918 H   0  0  0  0  0  0  0  0  0  0  0  0
  145.5152  152.4431  132.2336 H   0  0  0  0  0  0  0  0  0  0  0  0
  144.5641  151.5865  133.5138 H   0  0  0  0  0  0  0  0  0  0  0  0
  143.8171  153.9623  131.8105 H   0  0  0  0  0  0  0  0  0  0  0  0
  142.8513  152.4956  132.3149 H   0  0  0  0  0  0  0  0  0  0  0  0
  143.2076  155.1337  133.6510 H   0  0  0  0  0  0  0  0  0  0  0  0
  141.0350  153.2442  132.9653 H   0  0  0  0  0  0  0  0  0  0  0  0
  140.8716  154.0281  134.5830 H   0  0  0  0  0  0  0  0  0  0  0  0
  142.4021  156.0428  135.0138 H   0  0  0  0  0  0  0  0  0  0  0  0
  142.0759  158.1761  136.2130 H   0  0  0  0  0  0  0  0  0  0  0  0
  142.4931  160.9627  134.8430 H   0  0  0  0  0  0  0  0  0  0  0  0
  144.5715  162.0319  133.9209 H   0  0  0  0  0  0  0  0  0  0  0  0
  147.1306  161.4421  132.8060 H   0  0  0  0  0  0  0  0  0  0  0  0
  149.5960  157.8440  133.4920 H   0  0  0  0  0  0  0  0  0  0  0  0
  150.6480  158.3300  132.1190 H   0  0  0  0  0  0  0  0  0  0  0  0
  148.3060  155.2600  133.4710 H   0  0  0  0  0  0  0  0  0  0  0  0
  144.2309  157.0162  134.1752 H   0  0  0  0  0  0  0  0  0  0  0  0
  139.9784  158.9058  135.6982 H   0  0  0  0  0  0  0  0  0  0  0  0
  141.0124  160.1731  134.8945 H   0  0  0  0  0  0  0  0  0  0  0  0
  139.4678  159.6487  133.0774 H   0  0  0  0  0  0  0  0  0  0  0  0
  139.5432  157.4477  132.0767 H   0  0  0  0  0  0  0  0  0  0  0  0
  142.7515  154.2056  135.9148 H   0  0  0  0  0  0  0  0  0  0  0  0
  143.0120  152.5493  135.2653 H   0  0  0  0  0  0  0  0  0  0  0  0
  145.0129  154.8394  135.5157 H   0  0  0  0  0  0  0  0  0  0  0  0
  145.1063  153.1546  136.1807 H   0  0  0  0  0  0  0  0  0  0  0  0
  1  2  1  0
  2  3  1  0
  2  4  1  0
  2  5  1  0
  5  6  1  0
  6  7  2  0
  6  8  1  0
  8  9  1  0
  9 10  1  0
 10 11  1  0
 11 12  1  0
 12 13  1  0
 13 14  1  0
 14 15  2  0
 15 16  1  0
 16 17  1  0
 17 18  2  0
 18 19  1  0
 19 20  2  0
 20 21  1  0
 21 22  2  0
 22 23  1  0
 23 24  1  0
 23 25  2  0
 22 26  1  0
 26 27  1  0
 27 28  1  0
 27 29  2  0
 26 30  1  0
 30 31  2  0
 16 32  1  0
 32 33  1  0
 33 34  2  0
 11 35  1  0
 35 36  1  0
 36  8  1  0
 34 14  1  0
 31 17  1  0
 30 20  1  0
  1 37  1  0
  1 38  1  0
  1 39  1  0
  3 40  1  0
  3 41  1  0
  3 42  1  0
  4 43  1  0
  4 44  1  0
  4 45  1  0
  9 46  1  0
  9 47  1  0
 10 48  1  0
 10 49  1  0
 11 50  1  0
 12 51  1  0
 12 52  1  0
 15 53  1  0
 16 54  1  1
 18 55  1  0
 19 56  1  0
 21 57  1  0
 24 58  1  0
 24 59  1  0
 28 60  1  0
 31 61  1  0
 32 62  1  0
 32 63  1  0
 33 64  1  0
 34 65  1  0
 35 66  1  0
 35 67  1  0
 36 68  1  0
 36 69  1  0
M  CHG  1  28  -1
M  END
>  <UniqueID>  (84) 
84

>  <SMILES>  (84) 
CC(C)(C)OC(=O)N1CCC(COC2=C[C@@H](c3ccc4cc(C(N)=O)n(C([NH-])=O)c4c3)CC=C2)CC1

>  <Energy>  (84) 
107.40688006969357

>  <Genealogy>  (84) 
CC(C)(C)OC(=O)N1CCC(COC2=CC(c3ccc4cc(C(N)=O)n(C([NH-])=O)c4c3)CC=C2)CC1 (protonated)
CC(C)(C)OC(=O)N1CCC(COC2=C[C@@H](c3ccc4cc(C(N)=O)n(C([NH-])=O)c4c3)CC=C2)CC1 (chirality)
CC(C)(C)OC(=O)N1CCC(COC2=C[C@@H](c3ccc4cc(C(N)=O)n(C([NH-])=O)c4c3)CC=C2)CC1 (3D coordinates assigned)
CC(C)(C)OC(=O)N1CCC(COC2=C[C@@H](c3ccc4cc(C(N)=O)n(C([NH-])=O)c4c3)CC=C2)CC1 (nonaromatic ring conformer: 107.40688006969357 kcal/mol)

>  <smiles>  (84) 
CC(C)(C)OC(=O)N1CCC(COC2=CC(c3ccc4cc(C(N)=O)n(C(N)=O)c4c3)CC=C2)CC1

>  <score_type>  (84) 
oracle

>  <origin>  (84) 
adg

>  <m_score__min__energy>  (84) 
-10.76

>  <m_primary>  (84) 
energy

$$$$
84:0
     RDKit          3D

 34 36  0  0  0  0  0  0  0  0999 V2000
  145.5770  159.9960  133.1660 N   0  0  0  0  0  0  0  0  0  0  0  0
  146.9180  159.5470  133.3530 C   0  0  0  0  0  0  0  0  0  0  0  0
  147.8500  160.3920  133.4090 O   0  0  0  0  0  0  0  0  0  0  0  0
  147.2020  158.0990  133.4370 C   0  0  0  0  0  0  0  0  0  0  0  0
  146.4580  157.2160  134.2160 C   0  0  0  0  0  0  0  0  0  0  0  0
  146.9760  155.9690  133.9520 C   0  0  0  0  0  0  0  0  0  0  0  0
  146.6140  154.7260  134.4560 C   0  0  0  0  0  0  0  0  0  0  0  0
  147.3360  153.6020  134.0240 C   0  0  0  0  0  0  0  0  0  0  0  0
  148.4190  153.7380  133.1100 C   0  0  0  0  0  0  0  0  0  0  0  0
  149.2270  152.5470  132.6040 C   0  0  1  0  0  0  0  0  0  0  0  0
  149.7960  151.6050  133.6700 C   0  0  0  0  0  0  0  0  0  0  0  0
  148.9810  150.4500  133.0910 C   0  0  0  0  0  0  0  0  0  0  0  0
  148.4390  151.3720  131.9970 C   0  0  1  0  0  0  0  0  0  0  0  0
  146.9760  151.5010  132.0160 N   0  0  0  0  0  0  0  0  0  0  0  0
  148.7450  155.0220  132.6140 C   0  0  0  0  0  0  0  0  0  0  0  0
  147.9940  156.1210  133.0480 C   0  0  0  0  0  0  0  0  0  0  0  0
  148.1480  157.4240  132.7220 N   0  0  0  0  0  0  0  0  0  0  0  0
  149.1510  157.9700  131.8500 C   0  0  0  0  0  0  0  0  0  0  0  0
  150.3730  157.8500  132.1300 O   0  0  0  0  0  0  0  0  0  0  0  0
  148.7830  158.6160  130.6760 O   0  0  0  0  0  0  0  0  0  0  0  0
  145.3720  160.8550  132.6090 H   0  0  0  0  0  0  0  0  0  0  0  0
  145.6312  157.4633  134.8980 H   0  0  0  0  0  0  0  0  0  0  0  0
  145.7857  154.6253  135.1728 H   0  0  0  0  0  0  0  0  0  0  0  0
  147.0615  152.6040  134.3964 H   0  0  0  0  0  0  0  0  0  0  0  0
  149.8980  153.1452  131.9700 H   0  0  0  0  0  0  0  0  0  0  0  0
  150.8848  151.4616  133.6066 H   0  0  0  0  0  0  0  0  0  0  0  0
  149.7160  151.8609  134.7368 H   0  0  0  0  0  0  0  0  0  0  0  0
  149.5911  149.6164  132.7129 H   0  0  0  0  0  0  0  0  0  0  0  0
  148.2892  149.8835  133.7318 H   0  0  0  0  0  0  0  0  0  0  0  0
  148.5625  151.1358  130.9298 H   0  0  0  0  0  0  0  0  0  0  0  0
  146.5660  150.7220  131.4520 H   0  0  0  0  0  0  0  0  0  0  0  0
  146.5850  151.4440  132.9820 H   0  0  0  0  0  0  0  0  0  0  0  0
  146.6990  152.4060  131.5740 H   0  0  0  0  0  0  0  0  0  0  0  0
  149.5723  155.1544  131.9013 H   0  0  0  0  0  0  0  0  0  0  0  0
  1  2  1  0
  2  3  2  0
  2  4  1  0
  4  5  2  0
  5  6  1  0
  6  7  2  0
  7  8  1  0
  8  9  2  0
  9 10  1  0
 10 11  1  0
 11 12  1  0
 12 13  1  0
 13 14  1  0
  9 15  1  0
 15 16  2  0
 16 17  1  0
 17 18  1  0
 18 19  2  0
 18 20  1  0
 17  4  1  0
 16  6  1  0
 13 10  1  0
  1 21  1  0
  5 22  1  0
  7 23  1  0
  8 24  1  0
 10 25  1  6
 11 26  1  0
 11 27  1  0
 12 28  1  0
 12 29  1  0
 13 30  1  6
 14 31  1  0
 14 32  1  0
 14 33  1  0
 15 34  1  0
M  CHG  3   1  -1  14   1  20  -1
M  END
>  <UniqueID>  (85) 
85

>  <SMILES>  (85) 
[NH-]C(=O)c1cc2ccc([C@H]3CC[C@H]3[NH3+])cc2n1C(=O)[O-]

>  <Energy>  (85) 
140.92752418107608

>  <Genealogy>  (85) 
[NH-]C(=O)c1cc2ccc(C3CC[C@H]3[NH3+])cc2n1C(=O)[O-] (protonated)
[NH-]C(=O)c1cc2ccc([C@H]3CC[C@H]3[NH3+])cc2n1C(=O)[O-] (chirality)
[NH-]C(=O)c1cc2ccc([C@H]3CC[C@H]3[NH3+])cc2n1C(=O)[O-] (3D coordinates assigned)
[NH-]C(=O)c1cc2ccc([C@H]3CC[C@H]3[NH3+])cc2n1C(=O)[O-] (nonaromatic ring conformer: 140.92752418107608 kcal/mol)

>  <smiles>  (85) 
NC(=O)c1cc2ccc(C3CC[C@H]3N)cc2n1C(=O)O

>  <score_type>  (85) 
oracle

>  <origin>  (85) 
adg

>  <m_score__min__energy>  (85) 
-7.25

>  <m_primary>  (85) 
energy

$$$$
85:0
     RDKit          3D

 50 53  0  0  0  0  0  0  0  0999 V2000
  148.2600  161.2660  130.9130 N   0  0  0  0  0  0  0  0  0  0  0  0
  149.0450  160.0730  131.1410 C   0  0  0  0  0  0  0  0  0  0  0  0
  150.1920  160.1040  130.6400 O   0  0  0  0  0  0  0  0  0  0  0  0
  148.4750  158.9790  131.8970 C   0  0  0  0  0  0  0  0  0  0  0  0
  149.0350  157.6940  131.8780 C   0  0  0  0  0  0  0  0  0  0  0  0
  148.2910  156.8630  132.6810 C   0  0  0  0  0  0  0  0  0  0  0  0
  148.4220  155.5260  132.9940 C   0  0  0  0  0  0  0  0  0  0  0  0
  147.5050  154.9480  133.8470 C   0  0  0  0  0  0  0  0  0  0  0  0
  146.4920  155.6850  134.3690 C   0  0  0  0  0  0  0  0  0  0  0  0
  145.5240  155.0560  135.2760 C   0  0  0  0  0  0  0  0  0  0  0  0
  144.5700  154.1390  134.6560 C   0  0  0  0  0  0  0  0  0  0  0  0
  143.1840  154.2390  134.8140 C   0  0  0  0  0  0  0  0  0  0  0  0
  142.3170  153.3480  134.2090 C   0  0  0  0  0  0  0  0  0  0  0  0
  142.8550  152.3310  133.4250 C   0  0  0  0  0  0  0  0  0  0  0  0
  142.0140  151.3450  132.7490 C   0  0  0  0  0  0  0  0  0  0  0  0
  142.5260  150.1520  132.2490 C   0  0  0  0  0  0  0  0  0  0  0  0
  141.6900  149.2460  131.6150 C   0  0  0  0  0  0  0  0  0  0  0  0
  140.3340  149.5410  131.4820 C   0  0  0  0  0  0  0  0  0  0  0  0
  139.3800  148.5370  130.7740 B   0  0  0  0  0  0  0  0  0  0  0  0
  139.9710  147.4350  130.0050 O   0  0  0  0  0  0  0  0  0  0  0  0
  138.0250  148.9210  130.4740 O   0  0  0  0  0  0  0  0  0  0  0  0
  139.8140  150.7210  131.9740 C   0  0  0  0  0  0  0  0  0  0  0  0
  140.6550  151.6210  132.6060 C   0  0  0  0  0  0  0  0  0  0  0  0
  144.2230  152.1940  133.2410 C   0  0  0  0  0  0  0  0  0  0  0  0
  145.0430  153.1100  133.8680 C   0  0  0  0  0  0  0  0  0  0  0  0
  146.3860  157.0290  134.0350 C   0  0  0  0  0  0  0  0  0  0  0  0
  147.2780  157.6540  133.1850 C   0  0  0  0  0  0  0  0  0  0  0  0
  147.4030  158.9260  132.7040 N   0  0  0  0  0  0  0  0  0  0  0  0
  146.5280  159.9880  133.0220 C   0  0  0  0  0  0  0  0  0  0  0  0
  145.2790  159.9530  132.9510 O   0  0  0  0  0  0  0  0  0  0  0  0
  147.0560  161.2180  133.4600 O   0  0  0  0  0  0  0  0  0  0  0  0
  147.8790  161.3780  129.9450 H   0  0  0  0  0  0  0  0  0  0  0  0
  148.1000  161.9570  131.6850 H   0  0  0  0  0  0  0  0  0  0  0  0
  149.9291  157.3975  131.3099 H   0  0  0  0  0  0  0  0  0  0  0  0
  149.2442  154.9306  132.5703 H   0  0  0  0  0  0  0  0  0  0  0  0
  147.5954  153.8827  134.1058 H   0  0  0  0  0  0  0  0  0  0  0  0
  146.0888  154.4930  136.0337 H   0  0  0  0  0  0  0  0  0  0  0  0
  144.9213  155.8800  135.6855 H   0  0  0  0  0  0  0  0  0  0  0  0
  142.7729  155.0478  135.4359 H   0  0  0  0  0  0  0  0  0  0  0  0
  141.2292  153.4404  134.3437 H   0  0  0  0  0  0  0  0  0  0  0  0
  143.5973  149.9270  132.3570 H   0  0  0  0  0  0  0  0  0  0  0  0
  142.0933  148.3019  131.2201 H   0  0  0  0  0  0  0  0  0  0  0  0
  140.7360  147.8280  129.5080 H   0  0  0  0  0  0  0  0  0  0  0  0
  137.3440  148.4860  131.0240 H   0  0  0  0  0  0  0  0  0  0  0  0
  138.7424  150.9441  131.8651 H   0  0  0  0  0  0  0  0  0  0  0  0
  140.2467  152.5636  132.9994 H   0  0  0  0  0  0  0  0  0  0  0  0
  144.6381  151.3868  132.6196 H   0  0  0  0  0  0  0  0  0  0  0  0
  146.1304  153.0147  133.7324 H   0  0  0  0  0  0  0  0  0  0  0  0
  145.5613  157.6176  134.4631 H   0  0  0  0  0  0  0  0  0  0  0  0
  146.7800  162.1000  133.0050 H   0  0  0  0  0  0  0  0  0  0  0  0
  1  2  1  0
  2  3  2  0
  2  4  1  0
  4  5  2  0
  5  6  1  0
  6  7  2  0
  7  8  1  0
  8  9  2  0
  9 10  1  0
 10 11  1  0
 11 12  2  0
 12 13  1  0
 13 14  2  0
 14 15  1  0
 15 16  2  0
 16 17  1  0
 17 18  2  0
 18 19  1  0
 19 20  1  0
 19 21  1  0
 18 22  1  0
 22 23  2  0
 14 24  1  0
 24 25  2  0
  9 26  1  0
 26 27  2  0
 27 28  1  0
 28 29  1  0
 29 30  2  0
 29 31  1  0
 28  4  1  0
 27  6  1  0
 25 11  1  0
 23 15  1  0
  1 32  1  0
  1 33  1  0
  5 34  1  0
  7 35  1  0
  8 36  1  0
 10 37  1  0
 10 38  1  0
 12 39  1  0
 13 40  1  0
 16 41  1  0
 17 42  1  0
 20 43  1  0
 21 44  1  0
 22 45  1  0
 23 46  1  0
 24 47  1  0
 25 48  1  0
 26 49  1  0
 31 50  1  0
M  END
>  <smiles>  (86) 
NC(=O)c1cc2ccc(Cc3ccc(-c4ccc(B(O)O)cc4)cc3)cc2n1C(=O)O

>  <score_type>  (86) 
oracle

>  <origin>  (86) 
adg

>  <m_score__min__energy>  (86) 
-11.029999999999999

>  <m_primary>  (86) 
energy

$$$$
86:0
     RDKit          3D

 34 36  0  0  0  0  0  0  0  0999 V2000
  146.5410  155.7800  132.4010 N   0  0  0  0  0  0  0  0  0  0  0  0
  146.3780  156.6180  133.5430 C   0  0  0  0  0  0  0  0  0  0  0  0
  146.3630  156.1030  134.6920 O   0  0  0  0  0  0  0  0  0  0  0  0
  146.2450  158.0420  133.3850 N   0  0  0  0  0  0  0  0  0  0  0  0
  147.2260  158.9380  133.0810 C   0  0  0  0  0  0  0  0  0  0  0  0
  148.6050  158.6060  132.6720 C   0  0  0  0  0  0  0  0  0  0  0  0
  148.8810  157.4660  131.8580 N   0  0  0  0  0  0  0  0  0  0  0  0
  149.5490  159.3740  132.9980 O   0  0  0  0  0  0  0  0  0  0  0  0
  146.7410  160.2420  133.1500 C   0  0  0  0  0  0  0  0  0  0  0  0
  145.4150  160.1180  133.4960 C   0  0  0  0  0  0  0  0  0  0  0  0
  144.4550  161.1010  133.7220 C   0  0  0  0  0  0  0  0  0  0  0  0
  143.1700  160.6890  134.1100 C   0  0  0  0  0  0  0  0  0  0  0  0
  142.8690  159.3130  134.2620 C   0  0  0  0  0  0  0  0  0  0  0  0
  141.5060  158.8880  134.7310 C   0  0  0  0  0  0  0  0  0  0  0  0
  140.5270  158.9700  133.6030 C   0  0  0  0  0  0  0  0  0  0  0  0
  140.2970  160.1610  132.9870 N   0  0  0  0  0  0  0  0  0  0  0  0
  139.4410  160.2490  131.9350 C   0  0  0  0  0  0  0  0  0  0  0  0
  138.7920  159.1060  131.4700 C   0  0  0  0  0  0  0  0  0  0  0  0
  139.0480  157.8920  132.1040 C   0  0  0  0  0  0  0  0  0  0  0  0
  139.9110  157.8440  133.1530 N   0  0  0  0  0  0  0  0  0  0  0  0
  143.8720  158.3430  134.0370 C   0  0  0  0  0  0  0  0  0  0  0  0
  145.1390  158.7810  133.6320 C   0  0  0  0  0  0  0  0  0  0  0  0
  146.2240  156.0920  131.4570 H   0  0  0  0  0  0  0  0  0  0  0  0
  149.8660  157.2250  131.6090 H   0  0  0  0  0  0  0  0  0  0  0  0
  148.1080  156.9040  131.4360 H   0  0  0  0  0  0  0  0  0  0  0  0
  147.2989  161.1722  132.9670 H   0  0  0  0  0  0  0  0  0  0  0  0
  144.6959  162.1674  133.6003 H   0  0  0  0  0  0  0  0  0  0  0  0
  142.3899  161.4415  134.2977 H   0  0  0  0  0  0  0  0  0  0  0  0
  141.5537  157.8518  135.0971 H   0  0  0  0  0  0  0  0  0  0  0  0
  141.1790  159.5559  135.5415 H   0  0  0  0  0  0  0  0  0  0  0  0
  139.2605  161.2203  131.4513 H   0  0  0  0  0  0  0  0  0  0  0  0
  138.0937  159.1614  130.6219 H   0  0  0  0  0  0  0  0  0  0  0  0
  138.5524  156.9737  131.7561 H   0  0  0  0  0  0  0  0  0  0  0  0
  143.6629  157.2721  134.1764 H   0  0  0  0  0  0  0  0  0  0  0  0
  1  2  1  0
  2  3  2  0
  2  4  1  0
  4  5  1  0
  5  6  1  0
  6  7  1  0
  6  8  2  0
  5  9  2  0
  9 10  1  0
 10 11  2  0
 11 12  1  0
 12 13  2  0
 13 14  1  0
 14 15  1  0
 15 16  2  0
 16 17  1  0
 17 18  2  0
 18 19  1  0
 19 20  2  0
 13 21  1  0
 21 22  2  0
 22  4  1  0
 22 10  1  0
 20 15  1  0
  1 23  1  0
  7 24  1  0
  7 25  1  0
  9 26  1  0
 11 27  1  0
 12 28  1  0
 14 29  1  0
 14 30  1  0
 17 31  1  0
 18 32  1  0
 19 33  1  0
 21 34  1  0
M  CHG  1   1  -1
M  END
>  <UniqueID>  (87) 
86

>  <SMILES>  (87) 
[NH-]C(=O)n1c(C(N)=O)cc2ccc(Cc3ncccn3)cc21

>  <Energy>  (87) 
75.45942180745037

>  <Genealogy>  (87) 
[NH-]C(=O)n1c(C(N)=O)cc2ccc(Cc3ncccn3)cc21 (protonated)
[NH-]C(=O)n1c(C(N)=O)cc2ccc(Cc3ncccn3)cc21 (3D coordinates assigned)
[NH-]C(=O)n1c(C(N)=O)cc2ccc(Cc3ncccn3)cc21 (optimized conformer: 75.45942180745037 kcal/mol)

>  <smiles>  (87) 
NC(=O)c1cc2ccc(Cc3ncccn3)cc2n1C(N)=O

>  <score_type>  (87) 
oracle

>  <origin>  (87) 
adg

>  <m_score__min__energy>  (87) 
-7.6200000000000001

>  <m_primary>  (87) 
energy

$$$$
87:0
     RDKit          3D

 33 35  0  0  0  0  0  0  0  0999 V2000
  141.7430  160.8900  133.7380 C   0  0  0  0  0  0  0  0  0  0  0  0
  143.1810  160.6650  133.7650 N   0  0  0  0  0  0  0  0  0  0  0  0
  143.8020  159.5110  133.4620 C   0  0  0  0  0  0  0  0  0  0  0  0
  145.1680  159.7220  133.5420 C   0  0  0  0  0  0  0  0  0  0  0  0
  146.2540  158.7410  133.2940 C   0  0  0  0  0  0  0  0  0  0  0  0
  147.5410  159.1810  132.8820 C   0  0  0  0  0  0  0  0  0  0  0  0
  148.5730  158.2610  132.6330 C   0  0  0  0  0  0  0  0  0  0  0  0
  148.3000  156.9090  132.8110 C   0  0  0  0  0  0  0  0  0  0  0  0
  149.1040  155.8120  132.6100 C   0  0  0  0  0  0  0  0  0  0  0  0
  148.3130  154.7140  132.9280 C   0  0  0  0  0  0  0  0  0  0  0  0
  148.8100  153.3240  132.9130 C   0  0  0  0  0  0  0  0  0  0  0  0
  147.9750  152.2350  133.3090 N   0  0  0  0  0  0  0  0  0  0  0  0
  150.0100  153.0990  132.6000 O   0  0  0  0  0  0  0  0  0  0  0  0
  147.0630  155.1110  133.2990 N   0  0  0  0  0  0  0  0  0  0  0  0
  145.9280  154.2750  133.5850 C   0  0  0  0  0  0  0  0  0  0  0  0
  145.4460  153.3580  132.6050 N   0  0  0  0  0  0  0  0  0  0  0  0
  145.3450  154.3540  134.6990 O   0  0  0  0  0  0  0  0  0  0  0  0
  147.0730  156.4620  133.2260 C   0  0  0  0  0  0  0  0  0  0  0  0
  146.0200  157.3540  133.4610 C   0  0  0  0  0  0  0  0  0  0  0  0
  145.2950  161.0600  133.8930 C   0  0  0  0  0  0  0  0  0  0  0  0
  144.0720  161.6110  134.0130 N   0  0  0  0  0  0  0  0  0  0  0  0
  141.3618  160.9496  134.7681 H   0  0  0  0  0  0  0  0  0  0  0  0
  141.5291  161.8325  133.2128 H   0  0  0  0  0  0  0  0  0  0  0  0
  141.2515  160.0578  133.2128 H   0  0  0  0  0  0  0  0  0  0  0  0
  143.3098  158.5637  133.1966 H   0  0  0  0  0  0  0  0  0  0  0  0
  147.7317  160.2570  132.7563 H   0  0  0  0  0  0  0  0  0  0  0  0
  149.5674  158.5999  132.3069 H   0  0  0  0  0  0  0  0  0  0  0  0
  150.1501  155.8047  132.2700 H   0  0  0  0  0  0  0  0  0  0  0  0
  147.0340  152.4010  133.7290 H   0  0  0  0  0  0  0  0  0  0  0  0
  148.3320  151.2550  133.2570 H   0  0  0  0  0  0  0  0  0  0  0  0
  146.0160  153.1260  131.7610 H   0  0  0  0  0  0  0  0  0  0  0  0
  145.0306  156.9852  133.7692 H   0  0  0  0  0  0  0  0  0  0  0  0
  146.2474  161.5879  134.0489 H   0  0  0  0  0  0  0  0  0  0  0  0
  1  2  1  0
  2  3  1  0
  3  4  2  0
  4  5  1  0
  5  6  2  0
  6  7  1  0
  7  8  2  0
  8  9  1  0
  9 10  2  0
 10 11  1  0
 11 12  1  0
 11 13  2  0
 10 14  1  0
 14 15  1  0
 15 16  1  0
 15 17  2  0
 14 18  1  0
 18 19  2  0
  4 20  1  0
 20 21  2  0
 21  2  1  0
 19  5  1  0
 18  8  1  0
  1 22  1  0
  1 23  1  0
  1 24  1  0
  3 25  1  0
  6 26  1  0
  7 27  1  0
  9 28  1  0
 12 29  1  0
 12 30  1  0
 16 31  1  0
 19 32  1  0
 20 33  1  0
M  CHG  1  16  -1
M  END
>  <UniqueID>  (88) 
87

>  <SMILES>  (88) 
Cn1cc(-c2ccc3cc(C(N)=O)n(C([NH-])=O)c3c2)cn1

>  <Energy>  (88) 
106.04818535050399

>  <Genealogy>  (88) 
Cn1cc(-c2ccc3cc(C(N)=O)n(C([NH-])=O)c3c2)cn1 (protonated)
Cn1cc(-c2ccc3cc(C(N)=O)n(C([NH-])=O)c3c2)cn1 (3D coordinates assigned)
Cn1cc(-c2ccc3cc(C(N)=O)n(C([NH-])=O)c3c2)cn1 (optimized conformer: 106.04818535050399 kcal/mol)

>  <smiles>  (88) 
Cn1cc(-c2ccc3cc(C(N)=O)n(C(N)=O)c3c2)cn1

>  <score_type>  (88) 
oracle

>  <origin>  (88) 
adg

>  <m_score__min__energy>  (88) 
-7.0700000000000003

>  <m_primary>  (88) 
energy

$$$$
88:0
     RDKit          3D

 36 38  0  0  0  0  0  0  0  0999 V2000
  143.3750  156.9460  134.7460 C   0  0  0  0  0  0  0  0  0  0  0  0
  143.7020  157.7880  133.5540 C   0  0  0  0  0  0  0  0  0  0  0  0
  142.8820  157.8500  132.5980 O   0  0  0  0  0  0  0  0  0  0  0  0
  144.9690  158.4560  133.4500 N   0  0  0  0  0  0  0  0  0  0  0  0
  145.2330  159.7870  133.5800 C   0  0  0  0  0  0  0  0  0  0  0  0
  144.2280  160.8610  133.7090 C   0  0  0  0  0  0  0  0  0  0  0  0
  142.8630  160.6320  133.3720 N   0  0  0  0  0  0  0  0  0  0  0  0
  144.5870  162.0100  134.0840 O   0  0  0  0  0  0  0  0  0  0  0  0
  146.6050  160.0200  133.4940 C   0  0  0  0  0  0  0  0  0  0  0  0
  147.1750  158.7820  133.2940 C   0  0  0  0  0  0  0  0  0  0  0  0
  148.5100  158.4230  133.1450 C   0  0  0  0  0  0  0  0  0  0  0  0
  148.8100  157.0610  132.9730 C   0  0  0  0  0  0  0  0  0  0  0  0
  147.7790  156.0840  132.9560 C   0  0  0  0  0  0  0  0  0  0  0  0
  148.1090  154.6470  132.7810 C   0  0  0  0  0  0  0  0  0  0  0  0
  147.0980  153.6710  132.8050 C   0  0  0  0  0  0  0  0  0  0  0  0
  147.4100  152.3190  132.6380 C   0  0  0  0  0  0  0  0  0  0  0  0
  148.7420  151.9160  132.4440 C   0  0  0  0  0  0  0  0  0  0  0  0
  149.0910  150.4950  132.2680 C   0  0  0  0  0  0  0  0  0  0  0  0
  148.2000  149.6040  132.2450 O   0  0  0  0  0  0  0  0  0  0  0  0
  149.7530  152.8870  132.4200 C   0  0  0  0  0  0  0  0  0  0  0  0
  149.4420  154.2400  132.5860 C   0  0  0  0  0  0  0  0  0  0  0  0
  146.4330  156.4940  133.1120 C   0  0  0  0  0  0  0  0  0  0  0  0
  146.1650  157.8560  133.2690 C   0  0  0  0  0  0  0  0  0  0  0  0
  143.5941  157.5101  135.6646 H   0  0  0  0  0  0  0  0  0  0  0  0
  142.3080  156.6795  134.7251 H   0  0  0  0  0  0  0  0  0  0  0  0
  143.9824  156.0292  134.7251 H   0  0  0  0  0  0  0  0  0  0  0  0
  142.6020  159.9950  132.5860 H   0  0  0  0  0  0  0  0  0  0  0  0
  147.1227  160.9876  133.5698 H   0  0  0  0  0  0  0  0  0  0  0  0
  149.3065  159.1815  133.1613 H   0  0  0  0  0  0  0  0  0  0  0  0
  149.8571  156.7473  132.8499 H   0  0  0  0  0  0  0  0  0  0  0  0
  146.0515  153.9741  132.9566 H   0  0  0  0  0  0  0  0  0  0  0  0
  146.6083  151.5661  132.6586 H   0  0  0  0  0  0  0  0  0  0  0  0
  150.1467  150.2073  132.1549 H   0  0  0  0  0  0  0  0  0  0  0  0
  150.7991  152.5820  132.2694 H   0  0  0  0  0  0  0  0  0  0  0  0
  150.2449  154.9916  132.5640 H   0  0  0  0  0  0  0  0  0  0  0  0
  145.6166  155.7568  133.1096 H   0  0  0  0  0  0  0  0  0  0  0  0
  1  2  1  0
  2  3  2  0
  2  4  1  0
  4  5  1  0
  5  6  1  0
  6  7  1  0
  6  8  2  0
  5  9  2  0
  9 10  1  0
 10 11  2  0
 11 12  1  0
 12 13  2  0
 13 14  1  0
 14 15  2  0
 15 16  1  0
 16 17  2  0
 17 18  1  0
 18 19  2  0
 17 20  1  0
 20 21  2  0
 13 22  1  0
 22 23  2  0
 23  4  1  0
 23 10  1  0
 21 14  1  0
  1 24  1  0
  1 25  1  0
  1 26  1  0
  7 27  1  0
  9 28  1  0
 11 29  1  0
 12 30  1  0
 15 31  1  0
 16 32  1  0
 18 33  1  0
 20 34  1  0
 21 35  1  0
 22 36  1  0
M  CHG  1   7  -1
M  END
>  <UniqueID>  (89) 
88

>  <SMILES>  (89) 
CC(=O)n1c(C([NH-])=O)cc2ccc(-c3ccc(C=O)cc3)cc21

>  <Energy>  (89) 
82.98987344799124

>  <Genealogy>  (89) 
CC(=O)n1c(C([NH-])=O)cc2ccc(-c3ccc(C=O)cc3)cc21 (protonated)
CC(=O)n1c(C([NH-])=O)cc2ccc(-c3ccc(C=O)cc3)cc21 (3D coordinates assigned)
CC(=O)n1c(C([NH-])=O)cc2ccc(-c3ccc(C=O)cc3)cc21 (optimized conformer: 82.98987344799124 kcal/mol)

>  <smiles>  (89) 
CC(=O)n1c(C(N)=O)cc2ccc(-c3ccc(C=O)cc3)cc21

>  <score_type>  (89) 
oracle

>  <origin>  (89) 
adg

>  <m_score__min__energy>  (89) 
-7.9199999999999999

>  <m_primary>  (89) 
energy

$$$$
89:0
     RDKit          3D

 33 35  0  0  0  0  0  0  0  0999 V2000
  148.1020  160.8750  132.3820 N   0  0  0  0  0  0  0  0  0  0  0  0
  147.8230  159.8900  133.3750 C   0  0  0  0  0  0  0  0  0  0  0  0
  148.7450  159.5360  134.1550 O   0  0  0  0  0  0  0  0  0  0  0  0
  146.5180  159.2780  133.4550 N   0  0  0  0  0  0  0  0  0  0  0  0
  145.3330  159.8960  133.7290 C   0  0  0  0  0  0  0  0  0  0  0  0
  145.1280  161.3470  133.8700 C   0  0  0  0  0  0  0  0  0  0  0  0
  146.2300  162.2210  134.1050 N   0  0  0  0  0  0  0  0  0  0  0  0
  143.9750  161.8280  133.7100 O   0  0  0  0  0  0  0  0  0  0  0  0
  144.3160  158.9660  133.9120 C   0  0  0  0  0  0  0  0  0  0  0  0
  144.9070  157.7410  133.7120 C   0  0  0  0  0  0  0  0  0  0  0  0
  144.3490  156.4680  133.7480 C   0  0  0  0  0  0  0  0  0  0  0  0
  145.1860  155.3740  133.4810 C   0  0  0  0  0  0  0  0  0  0  0  0
  146.5580  155.5660  133.1730 C   0  0  0  0  0  0  0  0  0  0  0  0
  147.4300  154.4020  132.8750 C   0  0  0  0  0  0  0  0  0  0  0  0
  148.7990  154.5850  132.6040 C   0  0  0  0  0  0  0  0  0  0  0  0
  149.6200  153.4880  132.3240 C   0  0  0  0  0  0  0  0  0  0  0  0
  149.0840  152.1970  132.3090 C   0  0  0  0  0  0  0  0  0  0  0  0
  150.2060  150.7010  131.9250 Br  0  0  0  0  0  0  0  0  0  0  0  0
  147.7260  152.0030  132.5750 C   0  0  0  0  0  0  0  0  0  0  0  0
  146.9020  153.0980  132.8570 C   0  0  0  0  0  0  0  0  0  0  0  0
  147.0860  156.8790  133.1440 C   0  0  0  0  0  0  0  0  0  0  0  0
  146.2340  157.9530  133.4360 C   0  0  0  0  0  0  0  0  0  0  0  0
  147.3950  161.6000  132.1310 H   0  0  0  0  0  0  0  0  0  0  0  0
  146.0750  163.2480  134.2170 H   0  0  0  0  0  0  0  0  0  0  0  0
  147.2100  161.8550  134.1080 H   0  0  0  0  0  0  0  0  0  0  0  0
  143.2641  159.1672  134.1630 H   0  0  0  0  0  0  0  0  0  0  0  0
  143.2833  156.3229  133.9789 H   0  0  0  0  0  0  0  0  0  0  0  0
  144.7736  154.3547  133.5108 H   0  0  0  0  0  0  0  0  0  0  0  0
  149.2264  155.5986  132.6125 H   0  0  0  0  0  0  0  0  0  0  0  0
  150.6891  153.6413  132.1153 H   0  0  0  0  0  0  0  0  0  0  0  0
  147.3039  150.9873  132.5627 H   0  0  0  0  0  0  0  0  0  0  0  0
  145.8339  152.9383  133.0661 H   0  0  0  0  0  0  0  0  0  0  0  0
  148.1437  157.0530  132.8972 H   0  0  0  0  0  0  0  0  0  0  0  0
  1  2  1  0
  2  3  2  0
  2  4  1  0
  4  5  1  0
  5  6  1  0
  6  7  1  0
  6  8  2  0
  5  9  2  0
  9 10  1  0
 10 11  2  0
 11 12  1  0
 12 13  2  0
 13 14  1  0
 14 15  2  0
 15 16  1  0
 16 17  2  0
 17 18  1  0
 17 19  1  0
 19 20  2  0
 13 21  1  0
 21 22  2  0
 22  4  1  0
 22 10  1  0
 20 14  1  0
  1 23  1  0
  7 24  1  0
  7 25  1  0
  9 26  1  0
 11 27  1  0
 12 28  1  0
 15 29  1  0
 16 30  1  0
 19 31  1  0
 20 32  1  0
 21 33  1  0
M  CHG  1   1  -1
M  END
>  <UniqueID>  (90) 
89

>  <SMILES>  (90) 
[NH-]C(=O)n1c(C(N)=O)cc2ccc(-c3ccc(Br)cc3)cc21

>  <Energy>  (90) 
83.41366662849337

>  <Genealogy>  (90) 
[NH-]C(=O)n1c(C(N)=O)cc2ccc(-c3ccc(Br)cc3)cc21 (protonated)
[NH-]C(=O)n1c(C(N)=O)cc2ccc(-c3ccc(Br)cc3)cc21 (3D coordinates assigned)
[NH-]C(=O)n1c(C(N)=O)cc2ccc(-c3ccc(Br)cc3)cc21 (optimized conformer: 83.41366662849337 kcal/mol)

>  <smiles>  (90) 
NC(=O)c1cc2ccc(-c3ccc(Br)cc3)cc2n1C(N)=O

>  <score_type>  (90) 
oracle

>  <origin>  (90) 
adg

>  <m_score__min__energy>  (90) 
-8.4800000000000004

>  <m_primary>  (90) 
energy

$$$$
90:0
     RDKit          3D

 91 95  0  0  0  0  0  0  0  0999 V2000
  137.9960  145.6130  124.8370 C   0  0  0  0  0  0  0  0  0  0  0  0
  137.8720  147.0360  125.4050 C   0  0  0  0  0  0  0  0  0  0  0  0
  139.1770  147.8030  125.1130 C   0  0  0  0  0  0  0  0  0  0  0  0
  136.6700  147.7330  124.7380 C   0  0  0  0  0  0  0  0  0  0  0  0
  137.6590  146.9110  126.8190 O   0  0  0  0  0  0  0  0  0  0  0  0
  138.5770  146.4130  127.7580 C   0  0  0  0  0  0  0  0  0  0  0  0
  139.3010  145.4180  127.4810 O   0  0  0  0  0  0  0  0  0  0  0  0
  138.6930  147.0540  129.0420 N   0  0  0  0  0  0  0  0  0  0  0  0
  139.5710  146.5120  130.0890 C   0  0  0  0  0  0  0  0  0  0  0  0
  140.3220  147.6380  130.8420 C   0  0  0  0  0  0  0  0  0  0  0  0
  139.7100  148.9860  130.6740 N   0  0  0  0  0  0  0  0  0  0  0  0
  140.1690  149.9820  131.6920 C   0  0  0  0  0  0  0  0  0  0  0  0
  141.6680  150.3030  131.5040 C   0  0  0  0  0  0  0  0  0  0  0  0
  142.0520  151.5030  132.3710 C   0  0  0  0  0  0  0  0  0  0  0  0
  141.5260  151.3840  133.7410 N   0  0  0  0  0  0  0  0  0  0  0  0
  142.0040  152.3100  134.7330 C   0  0  0  0  0  0  0  0  0  0  0  0
  142.4450  151.8700  135.8280 O   0  0  0  0  0  0  0  0  0  0  0  0
  142.0070  153.7700  134.4910 C   0  0  0  0  0  0  0  0  0  0  0  0
  140.9840  154.3810  133.7480 C   0  0  0  0  0  0  0  0  0  0  0  0
  140.9790  155.7670  133.5620 C   0  0  0  0  0  0  0  0  0  0  0  0
  141.9950  156.5680  134.1140 C   0  0  0  0  0  0  0  0  0  0  0  0
  141.9890  158.0390  133.9280 C   0  0  0  0  0  0  0  0  0  0  0  0
  140.7630  158.7490  133.8450 C   0  0  0  0  0  0  0  0  0  0  0  0
  140.7490  160.1480  133.7210 C   0  0  0  0  0  0  0  0  0  0  0  0
  141.9710  160.8120  133.6750 C   0  0  0  0  0  0  0  0  0  0  0  0
  142.2450  162.1580  133.6030 C   0  0  0  0  0  0  0  0  0  0  0  0
  143.6360  162.2550  133.6080 C   0  0  0  0  0  0  0  0  0  0  0  0
  144.3750  163.5280  133.4690 C   0  0  0  0  0  0  0  0  0  0  0  0
  143.8400  164.6010  132.6910 N   0  0  0  0  0  0  0  0  0  0  0  0
  145.5010  163.6700  134.0160 O   0  0  0  0  0  0  0  0  0  0  0  0
  144.1980  161.0150  133.6800 N   0  0  0  0  0  0  0  0  0  0  0  0
  145.5960  160.6930  133.7650 C   0  0  0  0  0  0  0  0  0  0  0  0
  146.4300  161.6000  134.0270 O   0  0  0  0  0  0  0  0  0  0  0  0
  146.0150  159.3720  133.5500 O   0  0  0  0  0  0  0  0  0  0  0  0
  147.2810  158.9570  133.0150 C   0  0  0  0  0  0  0  0  0  0  0  0
  147.1430  157.4830  132.6050 C   0  0  0  0  0  0  0  0  0  0  0  0
  147.6380  159.7930  131.7710 C   0  0  0  0  0  0  0  0  0  0  0  0
  148.3880  159.0700  134.0810 C   0  0  0  0  0  0  0  0  0  0  0  0
  143.1660  160.1430  133.7250 C   0  0  0  0  0  0  0  0  0  0  0  0
  143.2100  158.7520  133.8650 C   0  0  0  0  0  0  0  0  0  0  0  0
  143.0150  155.9530  134.8620 C   0  0  0  0  0  0  0  0  0  0  0  0
  143.0150  154.5700  135.0530 C   0  0  0  0  0  0  0  0  0  0  0  0
  140.9200  150.1260  134.2000 C   0  0  0  0  0  0  0  0  0  0  0  0
  139.9710  149.4920  133.1580 C   0  0  0  0  0  0  0  0  0  0  0  0
  138.2360  148.8490  130.6690 C   0  0  0  0  0  0  0  0  0  0  0  0
  137.8130  148.1840  129.3590 C   0  0  0  0  0  0  0  0  0  0  0  0
  138.0589  144.8918  125.6652 H   0  0  0  0  0  0  0  0  0  0  0  0
  137.1142  145.3865  124.2197 H   0  0  0  0  0  0  0  0  0  0  0  0
  138.9037  145.5424  124.2197 H   0  0  0  0  0  0  0  0  0  0  0  0
  139.6567  148.0850  126.0619 H   0  0  0  0  0  0  0  0  0  0  0  0
  139.8578  147.1613  124.5344 H   0  0  0  0  0  0  0  0  0  0  0  0
  138.9476  148.7100  124.5344 H   0  0  0  0  0  0  0  0  0  0  0  0
  135.9958  148.1240  125.5143 H   0  0  0  0  0  0  0  0  0  0  0  0
  137.0287  148.5632  124.1118 H   0  0  0  0  0  0  0  0  0  0  0  0
  136.1276  147.0093  124.1118 H   0  0  0  0  0  0  0  0  0  0  0  0
  138.9612  145.9462  130.8088 H   0  0  0  0  0  0  0  0  0  0  0  0
  140.3172  145.8613  129.6097 H   0  0  0  0  0  0  0  0  0  0  0  0
  140.3306  147.3923  131.9142 H   0  0  0  0  0  0  0  0  0  0  0  0
  141.3339  147.6900  130.4137 H   0  0  0  0  0  0  0  0  0  0  0  0
  139.5479  150.8756  131.5315 H   0  0  0  0  0  0  0  0  0  0  0  0
  142.2686  149.4305  131.8009 H   0  0  0  0  0  0  0  0  0  0  0  0
  141.8593  150.5415  130.4473 H   0  0  0  0  0  0  0  0  0  0  0  0
  143.1489  151.5719  132.4164 H   0  0  0  0  0  0  0  0  0  0  0  0
  141.6154  152.4045  131.9163 H   0  0  0  0  0  0  0  0  0  0  0  0
  140.1832  153.7668  133.3104 H   0  0  0  0  0  0  0  0  0  0  0  0
  140.1728  156.2353  132.9784 H   0  0  0  0  0  0  0  0  0  0  0  0
  139.8121  158.1969  133.8782 H   0  0  0  0  0  0  0  0  0  0  0  0
  139.8006  160.7021  133.6620 H   0  0  0  0  0  0  0  0  0  0  0  0
  141.5199  162.9836  133.5522 H   0  0  0  0  0  0  0  0  0  0  0  0
  142.8910  164.5440  132.2670 H   0  0  0  0  0  0  0  0  0  0  0  0
  144.3840  165.4840  132.5740 H   0  0  0  0  0  0  0  0  0  0  0  0
  147.0843  156.8556  133.5066 H   0  0  0  0  0  0  0  0  0  0  0  0
  146.2287  157.3527  132.0074 H   0  0  0  0  0  0  0  0  0  0  0  0
  148.0172  157.1852  132.0074 H   0  0  0  0  0  0  0  0  0  0  0  0
  148.0518  160.7620  132.0868 H   0  0  0  0  0  0  0  0  0  0  0  0
  148.3845  159.2542  131.1690 H   0  0  0  0  0  0  0  0  0  0  0  0
  146.7325  159.9596  131.1690 H   0  0  0  0  0  0  0  0  0  0  0  0
  147.9377  159.0240  135.0835 H   0  0  0  0  0  0  0  0  0  0  0  0
  149.0995  158.2398  133.9602 H   0  0  0  0  0  0  0  0  0  0  0  0
  148.9171  160.0268  133.9602 H   0  0  0  0  0  0  0  0  0  0  0  0
  144.1729  158.2236  133.9249 H   0  0  0  0  0  0  0  0  0  0  0  0
  143.8175  156.5653  135.2991 H   0  0  0  0  0  0  0  0  0  0  0  0
  143.8123  154.1025  135.6495 H   0  0  0  0  0  0  0  0  0  0  0  0
  141.7254  149.4100  134.4207 H   0  0  0  0  0  0  0  0  0  0  0  0
  140.3186  150.3588  135.0911 H   0  0  0  0  0  0  0  0  0  0  0  0
  140.1252  148.4030  133.1761 H   0  0  0  0  0  0  0  0  0  0  0  0
  138.9545  149.7980  133.4464 H   0  0  0  0  0  0  0  0  0  0  0  0
  137.9186  148.2277  131.5195 H   0  0  0  0  0  0  0  0  0  0  0  0
  137.7660  149.8396  130.7568 H   0  0  0  0  0  0  0  0  0  0  0  0
  136.7794  147.8203  129.4562 H   0  0  0  0  0  0  0  0  0  0  0  0
  137.8831  148.9243  128.5484 H   0  0  0  0  0  0  0  0  0  0  0  0
  1  2  1  0
  2  3  1  0
  2  4  1  0
  2  5  1  0
  5  6  1  0
  6  7  2  0
  6  8  1  0
  8  9  1  0
  9 10  1  0
 10 11  1  0
 11 12  1  0
 12 13  1  0
 13 14  1  0
 14 15  1  0
 15 16  1  0
 16 17  2  0
 16 18  1  0
 18 19  2  0
 19 20  1  0
 20 21  2  0
 21 22  1  0
 22 23  2  0
 23 24  1  0
 24 25  2  0
 25 26  1  0
 26 27  2  0
 27 28  1  0
 28 29  1  0
 28 30  2  0
 27 31  1  0
 31 32  1  0
 32 33  2  0
 32 34  1  0
 34 35  1  0
 35 36  1  0
 35 37  1  0
 35 38  1  0
 31 39  1  0
 39 40  2  0
 21 41  1  0
 41 42  2  0
 15 43  1  0
 43 44  1  0
 11 45  1  0
 45 46  1  0
 46  8  1  0
 44 12  1  0
 42 18  1  0
 40 22  1  0
 39 25  1  0
  1 47  1  0
  1 48  1  0
  1 49  1  0
  3 50  1  0
  3 51  1  0
  3 52  1  0
  4 53  1  0
  4 54  1  0
  4 55  1  0
  9 56  1  0
  9 57  1  0
 10 58  1  0
 10 59  1  0
 12 60  1  0
 13 61  1  0
 13 62  1  0
 14 63  1  0
 14 64  1  0
 19 65  1  0
 20 66  1  0
 23 67  1  0
 24 68  1  0
 26 69  1  0
 29 70  1  0
 29 71  1  0
 36 72  1  0
 36 73  1  0
 36 74  1  0
 37 75  1  0
 37 76  1  0
 37 77  1  0
 38 78  1  0
 38 79  1  0
 38 80  1  0
 40 81  1  0
 41 82  1  0
 42 83  1  0
 43 84  1  0
 43 85  1  0
 44 86  1  0
 44 87  1  0
 45 88  1  0
 45 89  1  0
 46 90  1  0
 46 91  1  0
M  END
>  <UniqueID>  (91) 
90

>  <SMILES>  (91) 
CC(C)(C)OC(=O)N1CCN(C2CCN(C(=O)c3ccc(-c4ccc5cc(C(N)=O)n(C(=O)OC(C)(C)C)c5c4)cc3)CC2)CC1

>  <Energy>  (91) 
149.07269427088957

>  <Genealogy>  (91) 
CC(C)(C)OC(=O)N1CCN(C2CCN(C(=O)c3ccc(-c4ccc5cc(C(N)=O)n(C(=O)OC(C)(C)C)c5c4)cc3)CC2)CC1 (3D coordinates assigned)
CC(C)(C)OC(=O)N1CCN(C2CCN(C(=O)c3ccc(-c4ccc5cc(C(N)=O)n(C(=O)OC(C)(C)C)c5c4)cc3)CC2)CC1 (nonaromatic ring conformer: 149.07269427088957 kcal/mol)

>  <smiles>  (91) 
CC(C)(C)OC(=O)N1CCN(C2CCN(C(=O)c3ccc(-c4ccc5cc(C(N)=O)n(C(=O)OC(C)(C)C)c5c4)cc3)CC2)CC1

>  <score_type>  (91) 
oracle

>  <origin>  (91) 
adg

>  <m_score__min__energy>  (91) 
4.4299999999999997

>  <m_primary>  (91) 
energy

$$$$
91:0
     RDKit          3D

 55 57  0  0  0  0  0  0  0  0999 V2000
  143.1930  149.7520  132.2340 C   0  0  0  0  0  0  0  0  0  0  0  0
  141.7240  149.3430  132.0570 C   0  0  0  0  0  0  0  0  0  0  0  0
  140.7570  150.1990  132.7770 N   0  0  0  0  0  0  0  0  0  0  0  0
  139.4100  150.3350  132.1790 C   0  0  0  0  0  0  0  0  0  0  0  0
  139.0900  149.2910  131.1040 C   0  0  0  0  0  0  0  0  0  0  0  0
  141.3090  151.4130  133.4130 C   0  0  0  0  0  0  0  0  0  0  0  0
  140.5730  152.6660  132.9210 C   0  0  0  0  0  0  0  0  0  0  0  0
  141.2510  153.9230  133.4020 C   0  0  0  0  0  0  0  0  0  0  0  0
  142.6410  153.9200  133.6820 C   0  0  0  0  0  0  0  0  0  0  0  0
  143.2760  155.0760  134.1630 C   0  0  0  0  0  0  0  0  0  0  0  0
  142.4980  156.2150  134.3570 C   0  0  0  0  0  0  0  0  0  0  0  0
  142.8500  157.4550  134.8370 C   0  0  0  0  0  0  0  0  0  0  0  0
  141.6720  158.1990  134.8390 C   0  0  0  0  0  0  0  0  0  0  0  0
  141.6210  159.6330  135.1950 C   0  0  0  0  0  0  0  0  0  0  0  0
  140.8090  160.0940  136.2710 N   0  0  0  0  0  0  0  0  0  0  0  0
  142.2610  160.4700  134.5030 O   0  0  0  0  0  0  0  0  0  0  0  0
  140.6290  157.4450  134.3910 N   0  0  0  0  0  0  0  0  0  0  0  0
  139.2360  157.7950  134.3520 C   0  0  0  0  0  0  0  0  0  0  0  0
  138.6580  158.2030  135.3960 O   0  0  0  0  0  0  0  0  0  0  0  0
  138.5160  157.6360  133.1630 O   0  0  0  0  0  0  0  0  0  0  0  0
  138.7480  158.4160  131.9920 C   0  0  0  0  0  0  0  0  0  0  0  0
  137.4370  158.9780  131.4700 C   0  0  0  0  0  0  0  0  0  0  0  0
  137.8110  160.2600  130.7480 C   0  0  0  0  0  0  0  0  0  0  0  0
  139.0840  160.7710  131.4190 C   0  0  0  0  0  0  0  0  0  0  0  0
  139.6150  159.6360  132.2920 C   0  0  0  0  0  0  0  0  0  0  0  0
  141.1520  156.2350  134.0930 C   0  0  0  0  0  0  0  0  0  0  0  0
  140.4920  155.0920  133.6250 C   0  0  0  0  0  0  0  0  0  0  0  0
  143.4287  149.8176  133.3064 H   0  0  0  0  0  0  0  0  0  0  0  0
  143.8424  149.0005  131.7612 H   0  0  0  0  0  0  0  0  0  0  0  0
  143.3606  150.7310  131.7612 H   0  0  0  0  0  0  0  0  0  0  0  0
  141.4839  149.3810  130.9842 H   0  0  0  0  0  0  0  0  0  0  0  0
  141.6270  148.3342  132.4847 H   0  0  0  0  0  0  0  0  0  0  0  0
  138.6650  150.2415  132.9829 H   0  0  0  0  0  0  0  0  0  0  0  0
  139.3826  151.3167  131.6834 H   0  0  0  0  0  0  0  0  0  0  0  0
  138.8002  148.3456  131.5858 H   0  0  0  0  0  0  0  0  0  0  0  0
  138.2613  149.6522  130.4772 H   0  0  0  0  0  0  0  0  0  0  0  0
  139.9787  149.1258  130.4772 H   0  0  0  0  0  0  0  0  0  0  0  0
  141.1951  151.3325  134.5041 H   0  0  0  0  0  0  0  0  0  0  0  0
  142.3724  151.4998  133.1454 H   0  0  0  0  0  0  0  0  0  0  0  0
  140.5590  152.6647  131.8211 H   0  0  0  0  0  0  0  0  0  0  0  0
  139.5493  152.6479  133.3230 H   0  0  0  0  0  0  0  0  0  0  0  0
  143.2273  153.0033  133.5209 H   0  0  0  0  0  0  0  0  0  0  0  0
  144.3544  155.0821  134.3799 H   0  0  0  0  0  0  0  0  0  0  0  0
  143.8496  157.7886  135.1524 H   0  0  0  0  0  0  0  0  0  0  0  0
  139.8400  159.7320  136.4060 H   0  0  0  0  0  0  0  0  0  0  0  0
  139.2392  157.7484  131.2688 H   0  0  0  0  0  0  0  0  0  0  0  0
  136.9629  158.2688  130.7756 H   0  0  0  0  0  0  0  0  0  0  0  0
  136.7161  159.1589  132.2809 H   0  0  0  0  0  0  0  0  0  0  0  0
  137.9963  160.0576  129.6828 H   0  0  0  0  0  0  0  0  0  0  0  0
  137.0018  161.0029  130.8052 H   0  0  0  0  0  0  0  0  0  0  0  0
  139.8298  161.0423  130.6573 H   0  0  0  0  0  0  0  0  0  0  0  0
  138.8770  161.6668  132.0228 H   0  0  0  0  0  0  0  0  0  0  0  0
  140.6658  159.4256  132.0440 H   0  0  0  0  0  0  0  0  0  0  0  0
  139.5725  159.9015  133.3586 H   0  0  0  0  0  0  0  0  0  0  0  0
  139.4085  155.1049  133.4358 H   0  0  0  0  0  0  0  0  0  0  0  0
  1  2  1  0
  2  3  1  0
  3  4  1  0
  4  5  1  0
  3  6  1  0
  6  7  1  0
  7  8  1  0
  8  9  2  0
  9 10  1  0
 10 11  2  0
 11 12  1  0
 12 13  2  0
 13 14  1  0
 14 15  1  0
 14 16  2  0
 13 17  1  0
 17 18  1  0
 18 19  2  0
 18 20  1  0
 20 21  1  0
 21 22  1  0
 22 23  1  0
 23 24  1  0
 24 25  1  0
 17 26  1  0
 26 27  2  0
 27  8  1  0
 26 11  1  0
 25 21  1  0
  1 28  1  0
  1 29  1  0
  1 30  1  0
  2 31  1  0
  2 32  1  0
  4 33  1  0
  4 34  1  0
  5 35  1  0
  5 36  1  0
  5 37  1  0
  6 38  1  0
  6 39  1  0
  7 40  1  0
  7 41  1  0
  9 42  1  0
 10 43  1  0
 12 44  1  0
 15 45  1  0
 21 46  1  0
 22 47  1  0
 22 48  1  0
 23 49  1  0
 23 50  1  0
 24 51  1  0
 24 52  1  0
 25 53  1  0
 25 54  1  0
 27 55  1  0
M  CHG  1  15  -1
M  END
>  <UniqueID>  (92) 
91

>  <SMILES>  (92) 
CCN(CC)CCc1ccc2cc(C([NH-])=O)n(C(=O)OC3CCCC3)c2c1

>  <Energy>  (92) 
95.54421485962612

>  <Genealogy>  (92) 
CCN(CC)CCc1ccc2cc(C([NH-])=O)n(C(=O)OC3CCCC3)c2c1 (protonated)
CCN(CC)CCc1ccc2cc(C([NH-])=O)n(C(=O)OC3CCCC3)c2c1 (3D coordinates assigned)
CCN(CC)CCc1ccc2cc(C([NH-])=O)n(C(=O)OC3CCCC3)c2c1 (nonaromatic ring conformer: 95.54421485962612 kcal/mol)

>  <smiles>  (92) 
CCN(CC)CCc1ccc2cc(C(N)=O)n(C(=O)OC3CCCC3)c2c1

>  <score_type>  (92) 
oracle

>  <origin>  (92) 
adg

>  <m_score__min__energy>  (92) 
-8.8699999999999992

>  <m_primary>  (92) 
energy

$$$$
92:0
     RDKit          3D

 34 36  0  0  0  0  0  0  0  0999 V2000
  145.9620  163.1160  134.9680 N   0  0  0  0  0  0  0  0  0  0  0  0
  145.0390  162.4290  134.1270 C   0  0  0  0  0  0  0  0  0  0  0  0
  144.0920  163.0690  133.5990 O   0  0  0  0  0  0  0  0  0  0  0  0
  145.1450  160.9700  133.9150 C   0  0  0  0  0  0  0  0  0  0  0  0
  146.3520  160.3180  133.6710 C   0  0  0  0  0  0  0  0  0  0  0  0
  146.0160  159.0050  133.4390 C   0  0  0  0  0  0  0  0  0  0  0  0
  146.8290  157.9110  133.1560 C   0  0  0  0  0  0  0  0  0  0  0  0
  146.2140  156.6590  132.9920 C   0  0  0  0  0  0  0  0  0  0  0  0
  144.8070  156.5180  133.1150 C   0  0  0  0  0  0  0  0  0  0  0  0
  144.1690  155.1490  132.9550 C   0  0  2  0  0  0  0  0  0  0  0  0
  144.6740  154.1340  133.9820 C   0  0  0  0  0  0  0  0  0  0  0  0
  145.3410  153.0400  133.1650 C   0  0  0  0  0  0  0  0  0  0  0  0
  144.7960  153.1190  131.8120 N   0  0  0  0  0  0  0  0  0  0  0  0
  144.4640  154.5250  131.5870 C   0  0  0  0  0  0  0  0  0  0  0  0
  144.0170  157.6570  133.4090 C   0  0  0  0  0  0  0  0  0  0  0  0
  144.6550  158.8950  133.5490 C   0  0  0  0  0  0  0  0  0  0  0  0
  144.1040  160.0930  133.8450 N   0  0  0  0  0  0  0  0  0  0  0  0
  142.7180  160.3500  134.1260 C   0  0  0  0  0  0  0  0  0  0  0  0
  142.0410  161.0880  133.3630 O   0  0  0  0  0  0  0  0  0  0  0  0
  142.1060  159.7620  135.2260 O   0  0  0  0  0  0  0  0  0  0  0  0
  146.9870  163.0950  134.7710 H   0  0  0  0  0  0  0  0  0  0  0  0
  147.3594  160.7597  133.6652 H   0  0  0  0  0  0  0  0  0  0  0  0
  147.9193  158.0236  133.0637 H   0  0  0  0  0  0  0  0  0  0  0  0
  146.8305  155.7766  132.7654 H   0  0  0  0  0  0  0  0  0  0  0  0
  143.0942  155.3422  133.0873 H   0  0  0  0  0  0  0  0  0  0  0  0
  145.3989  154.6029  134.6637 H   0  0  0  0  0  0  0  0  0  0  0  0
  143.8589  153.7414  134.6076 H   0  0  0  0  0  0  0  0  0  0  0  0
  146.4296  153.1967  133.1427 H   0  0  0  0  0  0  0  0  0  0  0  0
  145.1493  152.0508  133.6063 H   0  0  0  0  0  0  0  0  0  0  0  0
  143.9270  152.5370  131.7500 H   0  0  0  0  0  0  0  0  0  0  0  0
  145.4970  152.7830  131.1110 H   0  0  0  0  0  0  0  0  0  0  0  0
  145.3122  155.0408  131.1132 H   0  0  0  0  0  0  0  0  0  0  0  0
  143.5932  154.6174  130.9213 H   0  0  0  0  0  0  0  0  0  0  0  0
  142.9265  157.5702  133.5246 H   0  0  0  0  0  0  0  0  0  0  0  0
  1  2  1  0
  2  3  2  0
  2  4  1  0
  4  5  2  0
  5  6  1  0
  6  7  2  0
  7  8  1  0
  8  9  2  0
  9 10  1  0
 10 11  1  0
 11 12  1  0
 12 13  1  0
 13 14  1  0
  9 15  1  0
 15 16  2  0
 16 17  1  0
 17 18  1  0
 18 19  2  0
 18 20  1  0
 17  4  1  0
 16  6  1  0
 14 10  1  0
  1 21  1  0
  5 22  1  0
  7 23  1  0
  8 24  1  0
 10 25  1  1
 11 26  1  0
 11 27  1  0
 12 28  1  0
 12 29  1  0
 13 30  1  0
 13 31  1  0
 14 32  1  0
 14 33  1  0
 15 34  1  0
M  CHG  3   1  -1  13   1  20  -1
M  END
>  <UniqueID>  (93) 
92

>  <SMILES>  (93) 
[NH-]C(=O)c1cc2ccc([C@@H]3CC[NH2+]C3)cc2n1C(=O)[O-]

>  <Energy>  (93) 
77.83154518559509

>  <Genealogy>  (93) 
[NH-]C(=O)c1cc2ccc(C3CC[NH2+]C3)cc2n1C(=O)[O-] (protonated)
[NH-]C(=O)c1cc2ccc([C@@H]3CC[NH2+]C3)cc2n1C(=O)[O-] (chirality)
[NH-]C(=O)c1cc2ccc([C@@H]3CC[NH2+]C3)cc2n1C(=O)[O-] (3D coordinates assigned)
[NH-]C(=O)c1cc2ccc([C@@H]3CC[NH2+]C3)cc2n1C(=O)[O-] (nonaromatic ring conformer: 77.83154518559509 kcal/mol)

>  <smiles>  (93) 
NC(=O)c1cc2ccc(C3CCNC3)cc2n1C(=O)O

>  <score_type>  (93) 
oracle

>  <origin>  (93) 
adg

>  <m_score__min__energy>  (93) 
-6.7000000000000002

>  <m_primary>  (93) 
energy

$$$$
93:0
     RDKit          3D

 30 31  0  0  0  0  0  0  0  0999 V2000
  150.5840  150.3920  130.6860 N   0  0  0  0  0  0  0  0  0  0  0  0
  149.9800  150.9780  131.4800 C   0  0  0  0  0  0  0  0  0  0  0  0
  149.2160  151.7230  132.4900 C   0  0  0  0  0  0  0  0  0  0  0  0
  149.6400  153.1960  132.5410 C   0  0  0  0  0  0  0  0  0  0  0  0
  148.4620  154.1090  132.7640 C   0  0  0  0  0  0  0  0  0  0  0  0
  147.1810  153.5620  133.0200 C   0  0  0  0  0  0  0  0  0  0  0  0
  146.0770  154.4010  133.2470 C   0  0  0  0  0  0  0  0  0  0  0  0
  146.2890  155.7770  133.2290 C   0  0  0  0  0  0  0  0  0  0  0  0
  145.3950  156.8100  133.3920 C   0  0  0  0  0  0  0  0  0  0  0  0
  146.1520  157.9720  133.2720 C   0  0  0  0  0  0  0  0  0  0  0  0
  145.5920  159.3260  133.4510 C   0  0  0  0  0  0  0  0  0  0  0  0
  146.2860  160.4830  132.9810 N   0  0  0  0  0  0  0  0  0  0  0  0
  144.5090  159.4700  134.0800 O   0  0  0  0  0  0  0  0  0  0  0  0
  147.4600  157.6730  133.0300 N   0  0  0  0  0  0  0  0  0  0  0  0
  148.5260  158.5920  132.7310 C   0  0  0  0  0  0  0  0  0  0  0  0
  149.1740  158.5520  131.4620 N   0  0  0  0  0  0  0  0  0  0  0  0
  148.9030  159.4290  133.5940 O   0  0  0  0  0  0  0  0  0  0  0  0
  147.5280  156.3230  133.0090 C   0  0  0  0  0  0  0  0  0  0  0  0
  148.6400  155.5110  132.7590 C   0  0  0  0  0  0  0  0  0  0  0  0
  148.1458  151.6674  132.2417 H   0  0  0  0  0  0  0  0  0  0  0  0
  149.4133  151.2725  133.4740 H   0  0  0  0  0  0  0  0  0  0  0  0
  150.3570  153.3320  133.3641 H   0  0  0  0  0  0  0  0  0  0  0  0
  150.0955  153.4548  131.5738 H   0  0  0  0  0  0  0  0  0  0  0  0
  147.0491  152.4701  133.0413 H   0  0  0  0  0  0  0  0  0  0  0  0
  145.0764  153.9837  133.4331 H   0  0  0  0  0  0  0  0  0  0  0  0
  144.3134  156.7339  133.5775 H   0  0  0  0  0  0  0  0  0  0  0  0
  145.8580  161.4290  133.0840 H   0  0  0  0  0  0  0  0  0  0  0  0
  147.2580  160.4120  132.6060 H   0  0  0  0  0  0  0  0  0  0  0  0
  148.8880  157.8610  130.7340 H   0  0  0  0  0  0  0  0  0  0  0  0
  149.6281  155.9530  132.5634 H   0  0  0  0  0  0  0  0  0  0  0  0
  1  2  3  0
  2  3  1  0
  3  4  1  0
  4  5  1  0
  5  6  2  0
  6  7  1  0
  7  8  2  0
  8  9  1  0
  9 10  2  0
 10 11  1  0
 11 12  1  0
 11 13  2  0
 10 14  1  0
 14 15  1  0
 15 16  1  0
 15 17  2  0
 14 18  1  0
 18 19  2  0
 19  5  1  0
 18  8  1  0
  3 20  1  0
  3 21  1  0
  4 22  1  0
  4 23  1  0
  6 24  1  0
  7 25  1  0
  9 26  1  0
 12 27  1  0
 12 28  1  0
 16 29  1  0
 19 30  1  0
M  CHG  1  16  -1
M  END
>  <UniqueID>  (94) 
93

>  <SMILES>  (94) 
N#CCCc1ccc2cc(C(N)=O)n(C([NH-])=O)c2c1

>  <Energy>  (94) 
66.24394937535926

>  <Genealogy>  (94) 
N#CCCc1ccc2cc(C(N)=O)n(C([NH-])=O)c2c1 (protonated)
N#CCCc1ccc2cc(C(N)=O)n(C([NH-])=O)c2c1 (3D coordinates assigned)
N#CCCc1ccc2cc(C(N)=O)n(C([NH-])=O)c2c1 (optimized conformer: 66.24394937535926 kcal/mol)

>  <smiles>  (94) 
N#CCCc1ccc2cc(C(N)=O)n(C(N)=O)c2c1

>  <score_type>  (94) 
oracle

>  <origin>  (94) 
adg

>  <m_score__min__energy>  (94) 
-6.9000000000000004

>  <m_primary>  (94) 
energy

$$$$
