0:0
     RDKit          3D

 45 49  0  0  0  0  0  0  0  0999 V2000
  140.9340  157.1010  137.7440 C   0  0  0  0  0  0  0  0  0  0  0  0
  141.3920  157.7920  136.5050 C   0  0  0  0  0  0  0  0  0  0  0  0
  142.1130  157.1950  135.5390 N   0  0  0  0  0  0  0  0  0  0  0  0
  142.2520  158.2050  134.6550 C   0  0  0  0  0  0  0  0  0  0  0  0
  143.0380  158.0820  133.3880 C   0  0  0  0  0  0  0  0  0  0  0  0
  144.3540  158.7190  133.5100 N   0  0  0  0  0  0  0  0  0  0  0  0
  144.5860  160.0510  133.6400 C   0  0  0  0  0  0  0  0  0  0  0  0
  143.6740  160.9190  133.6840 O   0  0  0  0  0  0  0  0  0  0  0  0
  145.8670  160.3520  133.7150 O   0  0  0  0  0  0  0  0  0  0  0  0
  146.5040  159.2120  133.6280 C   0  0  0  0  0  0  0  0  0  0  0  0
  147.8800  159.0070  133.6370 C   0  0  0  0  0  0  0  0  0  0  0  0
  148.3460  157.6930  133.4970 C   0  0  0  0  0  0  0  0  0  0  0  0
  147.4380  156.6230  133.3560 C   0  0  0  0  0  0  0  0  0  0  0  0
  146.0430  156.8480  133.3610 C   0  0  0  0  0  0  0  0  0  0  0  0
  145.1430  155.6960  133.1940 C   0  0  0  0  0  0  0  0  0  0  0  0
  145.0080  155.0950  131.9200 C   0  0  0  0  0  0  0  0  0  0  0  0
  144.1730  153.9790  131.7430 C   0  0  0  0  0  0  0  0  0  0  0  0
  143.5060  153.4810  132.8580 C   0  0  0  0  0  0  0  0  0  0  0  0
  142.6090  152.4440  132.9600 C   0  0  0  0  0  0  0  0  0  0  0  0
  142.2530  152.3950  134.3060 C   0  0  0  0  0  0  0  0  0  0  0  0
  141.3630  151.3610  134.8730 C   0  0  0  0  0  0  0  0  0  0  0  0
  140.9780  151.3960  136.2450 N   0  0  0  0  0  0  0  0  0  0  0  0
  140.9790  150.4040  134.1490 O   0  0  0  0  0  0  0  0  0  0  0  0
  142.8990  153.3700  135.0090 N   0  0  0  0  0  0  0  0  0  0  0  0
  142.7280  153.7140  136.3920 C   0  0  0  0  0  0  0  0  0  0  0  0
  141.6890  154.3130  136.7750 O   0  0  0  0  0  0  0  0  0  0  0  0
  143.6970  153.3670  137.3270 O   0  0  0  0  0  0  0  0  0  0  0  0
  143.6640  154.0250  134.1070 C   0  0  0  0  0  0  0  0  0  0  0  0
  144.4850  155.1400  134.3110 C   0  0  0  0  0  0  0  0  0  0  0  0
  145.6020  158.1820  133.5040 C   0  0  0  0  0  0  0  0  0  0  0  0
  141.6730  159.3470  135.0760 N   0  0  0  0  0  0  0  0  0  0  0  0
  141.1440  159.0470  136.2230 O   0  0  0  0  0  0  0  0  0  0  0  0
  141.2975  157.6495  138.6255 H   0  0  0  0  0  0  0  0  0  0  0  0
  139.8346  157.0680  137.7604 H   0  0  0  0  0  0  0  0  0  0  0  0
  141.3319  156.0756  137.7604 H   0  0  0  0  0  0  0  0  0  0  0  0
  143.1767  157.0159  133.1550 H   0  0  0  0  0  0  0  0  0  0  0  0
  142.4817  158.5881  132.5852 H   0  0  0  0  0  0  0  0  0  0  0  0
  148.5791  159.8487  133.7503 H   0  0  0  0  0  0  0  0  0  0  0  0
  149.4279  157.4945  133.4971 H   0  0  0  0  0  0  0  0  0  0  0  0
  147.8214  155.5985  133.2405 H   0  0  0  0  0  0  0  0  0  0  0  0
  145.5609  155.5046  131.0618 H   0  0  0  0  0  0  0  0  0  0  0  0
  144.0504  153.5135  130.7539 H   0  0  0  0  0  0  0  0  0  0  0  0
  142.2489  151.7917  132.1508 H   0  0  0  0  0  0  0  0  0  0  0  0
  141.3050  152.1630  136.8740 H   0  0  0  0  0  0  0  0  0  0  0  0
  144.6136  155.5709  135.3149 H   0  0  0  0  0  0  0  0  0  0  0  0
  1  2  1  0
  2  3  2  0
  3  4  1  0
  4  5  1  0
  5  6  1  0
  6  7  1  0
  7  8  2  0
  7  9  1  0
  9 10  1  0
 10 11  2  0
 11 12  1  0
 12 13  2  0
 13 14  1  0
 14 15  1  0
 15 16  2  0
 16 17  1  0
 17 18  2  0
 18 19  1  0
 19 20  2  0
 20 21  1  0
 21 22  1  0
 21 23  2  0
 20 24  1  0
 24 25  1  0
 25 26  2  0
 25 27  1  0
 24 28  1  0
 28 29  2  0
 14 30  2  0
  4 31  2  0
 31 32  1  0
 32  2  1  0
 30  6  1  0
 30 10  1  0
 29 15  1  0
 28 18  1  0
  1 33  1  0
  1 34  1  0
  1 35  1  0
  5 36  1  0
  5 37  1  0
 11 38  1  0
 12 39  1  0
 13 40  1  0
 16 41  1  0
 17 42  1  0
 19 43  1  0
 22 44  1  0
 29 45  1  0
M  CHG  2  22  -1  27  -1
M  END
>  <UniqueID>  (1) 
1

>  <SMILES>  (1) 
Cc1nc(Cn2c(=O)oc3cccc(-c4ccc5cc(C([NH-])=O)n(C(=O)[O-])c5c4)c32)no1

>  <Energy>  (1) 
169.7961487407017

>  <Genealogy>  (1) 
Cc1nc(Cn2c(=O)oc3cccc(-c4ccc5cc(C([NH-])=O)n(C(=O)[O-])c5c4)c32)no1 (protonated)
Cc1nc(Cn2c(=O)oc3cccc(-c4ccc5cc(C([NH-])=O)n(C(=O)[O-])c5c4)c32)no1 (3D coordinates assigned)
Cc1nc(Cn2c(=O)oc3cccc(-c4ccc5cc(C([NH-])=O)n(C(=O)[O-])c5c4)c32)no1 (optimized conformer: 169.7961487407017 kcal/mol)

>  <smiles>  (1) 
Cc1nc(Cn2c(=O)oc3cccc(-c4ccc5cc(C(N)=O)n(C(=O)O)c5c4)c32)no1

>  <score_type>  (1) 
oracle

>  <origin>  (1) 
adg

>  <m_score__min__energy>  (1) 
-8.3599999999999994

>  <m_primary>  (1) 
energy

$$$$
1:0
     RDKit          3D

 35 37  0  0  0  0  0  0  0  0999 V2000
  139.5030  156.1850  132.9820 C   0  0  0  0  0  0  0  0  0  0  0  0
  139.4060  157.6170  132.5620 C   0  0  0  0  0  0  0  0  0  0  0  0
  138.7700  158.0070  131.4370 N   0  0  0  0  0  0  0  0  0  0  0  0
  138.9630  159.3410  131.3910 C   0  0  0  0  0  0  0  0  0  0  0  0
  139.7150  159.7370  132.4740 C   0  0  0  0  0  0  0  0  0  0  0  0
  139.9890  158.6500  133.2130 N   0  0  0  0  0  0  0  0  0  0  0  0
  140.8260  158.6100  134.4130 C   0  0  0  0  0  0  0  0  0  0  0  0
  142.2080  159.1150  134.1020 C   0  0  0  0  0  0  0  0  0  0  0  0
  142.4660  160.5070  134.0380 C   0  0  0  0  0  0  0  0  0  0  0  0
  143.7590  160.9820  133.7610 C   0  0  0  0  0  0  0  0  0  0  0  0
  144.7690  160.0460  133.5610 C   0  0  0  0  0  0  0  0  0  0  0  0
  146.1000  160.2320  133.2610 C   0  0  0  0  0  0  0  0  0  0  0  0
  146.6390  158.9500  133.1690 C   0  0  0  0  0  0  0  0  0  0  0  0
  148.0760  158.6860  132.9500 C   0  0  0  0  0  0  0  0  0  0  0  0
  148.5090  158.0770  131.7360 N   0  0  0  0  0  0  0  0  0  0  0  0
  148.9320  159.0280  133.8080 O   0  0  0  0  0  0  0  0  0  0  0  0
  145.6770  158.0090  133.3960 N   0  0  0  0  0  0  0  0  0  0  0  0
  145.8080  156.5800  133.3250 C   0  0  0  0  0  0  0  0  0  0  0  0
  146.5240  155.9750  132.2520 N   0  0  0  0  0  0  0  0  0  0  0  0
  145.2610  155.8510  134.1960 O   0  0  0  0  0  0  0  0  0  0  0  0
  144.5400  158.6970  133.6370 C   0  0  0  0  0  0  0  0  0  0  0  0
  143.2600  158.1960  133.8940 C   0  0  0  0  0  0  0  0  0  0  0  0
  139.5071  156.1245  134.0803 H   0  0  0  0  0  0  0  0  0  0  0  0
  138.6405  155.6279  132.5873 H   0  0  0  0  0  0  0  0  0  0  0  0
  140.4327  155.7493  132.5873 H   0  0  0  0  0  0  0  0  0  0  0  0
  138.5782  160.0105  130.6076 H   0  0  0  0  0  0  0  0  0  0  0  0
  140.0358  160.7656  132.6955 H   0  0  0  0  0  0  0  0  0  0  0  0
  140.3749  159.2429  135.1914 H   0  0  0  0  0  0  0  0  0  0  0  0
  140.8958  157.5706  134.7663 H   0  0  0  0  0  0  0  0  0  0  0  0
  141.6470  161.2217  134.2066 H   0  0  0  0  0  0  0  0  0  0  0  0
  143.9665  162.0607  133.7040 H   0  0  0  0  0  0  0  0  0  0  0  0
  146.6257  161.1884  133.1233 H   0  0  0  0  0  0  0  0  0  0  0  0
  148.2080  157.1100  131.4830 H   0  0  0  0  0  0  0  0  0  0  0  0
  146.9400  156.5550  131.4900 H   0  0  0  0  0  0  0  0  0  0  0  0
  143.0769  157.1121  133.9332 H   0  0  0  0  0  0  0  0  0  0  0  0
  1  2  1  0
  2  3  2  0
  3  4  1  0
  4  5  2  0
  5  6  1  0
  6  7  1  0
  7  8  1  0
  8  9  2  0
  9 10  1  0
 10 11  2  0
 11 12  1  0
 12 13  2  0
 13 14  1  0
 14 15  1  0
 14 16  2  0
 13 17  1  0
 17 18  1  0
 18 19  1  0
 18 20  2  0
 17 21  1  0
 21 22  2  0
  6  2  1  0
 22  8  1  0
 21 11  1  0
  1 23  1  0
  1 24  1  0
  1 25  1  0
  4 26  1  0
  5 27  1  0
  7 28  1  0
  7 29  1  0
  9 30  1  0
 10 31  1  0
 12 32  1  0
 15 33  1  0
 19 34  1  0
 22 35  1  0
M  CHG  2  15  -1  19  -1
M  END
>  <UniqueID>  (2) 
2

>  <SMILES>  (2) 
Cc1nccn1Cc1ccc2cc(C([NH-])=O)n(C([NH-])=O)c2c1

>  <Energy>  (2) 
102.51252386665192

>  <Genealogy>  (2) 
Cc1nccn1Cc1ccc2cc(C([NH-])=O)n(C([NH-])=O)c2c1 (protonated)
Cc1nccn1Cc1ccc2cc(C([NH-])=O)n(C([NH-])=O)c2c1 (3D coordinates assigned)
Cc1nccn1Cc1ccc2cc(C([NH-])=O)n(C([NH-])=O)c2c1 (optimized conformer: 102.51252386665192 kcal/mol)

>  <smiles>  (2) 
Cc1nccn1Cc1ccc2cc(C(N)=O)n(C(N)=O)c2c1

>  <score_type>  (2) 
oracle

>  <origin>  (2) 
adg

>  <m_score__min__energy>  (2) 
-7.0099999999999998

>  <m_primary>  (2) 
energy

$$$$
2:0
     RDKit          3D

 35 37  0  0  0  0  0  0  0  0999 V2000
  148.1430  149.5820  132.6050 C   0  0  0  0  0  0  0  0  0  0  0  0
  149.1320  150.6020  132.5140 O   0  0  0  0  0  0  0  0  0  0  0  0
  148.8620  151.9770  132.6030 C   0  0  0  0  0  0  0  0  0  0  0  0
  147.5480  152.3820  132.8560 C   0  0  0  0  0  0  0  0  0  0  0  0
  147.2280  153.7380  132.9540 C   0  0  0  0  0  0  0  0  0  0  0  0
  148.2230  154.7190  132.8000 C   0  0  0  0  0  0  0  0  0  0  0  0
  147.8850  156.1610  132.9030 C   0  0  0  0  0  0  0  0  0  0  0  0
  148.8910  157.1480  132.7290 C   0  0  0  0  0  0  0  0  0  0  0  0
  148.5810  158.5150  132.8130 C   0  0  0  0  0  0  0  0  0  0  0  0
  147.2630  158.8700  133.0810 C   0  0  0  0  0  0  0  0  0  0  0  0
  146.6880  160.1150  133.1900 C   0  0  0  0  0  0  0  0  0  0  0  0
  145.3410  159.8770  133.4560 C   0  0  0  0  0  0  0  0  0  0  0  0
  144.3660  160.9520  133.7350 C   0  0  0  0  0  0  0  0  0  0  0  0
  142.9980  160.8180  133.3590 N   0  0  0  0  0  0  0  0  0  0  0  0
  144.7360  161.9820  134.3590 O   0  0  0  0  0  0  0  0  0  0  0  0
  145.0900  158.5370  133.5000 N   0  0  0  0  0  0  0  0  0  0  0  0
  143.8190  157.8870  133.6520 C   0  0  0  0  0  0  0  0  0  0  0  0
  143.5550  157.2400  134.7000 O   0  0  0  0  0  0  0  0  0  0  0  0
  142.8770  157.9420  132.6320 O   0  0  0  0  0  0  0  0  0  0  0  0
  146.2790  157.9340  133.2710 C   0  0  0  0  0  0  0  0  0  0  0  0
  146.5550  156.5650  133.1740 C   0  0  0  0  0  0  0  0  0  0  0  0
  149.5440  154.3110  132.5450 C   0  0  0  0  0  0  0  0  0  0  0  0
  149.8630  152.9530  132.4480 C   0  0  0  0  0  0  0  0  0  0  0  0
  147.9344  149.3669  133.6634 H   0  0  0  0  0  0  0  0  0  0  0  0
  147.2204  149.9207  132.1109 H   0  0  0  0  0  0  0  0  0  0  0  0
  148.5100  148.6703  132.1109 H   0  0  0  0  0  0  0  0  0  0  0  0
  146.7588  151.6257  132.9790 H   0  0  0  0  0  0  0  0  0  0  0  0
  146.1894  154.0407  133.1532 H   0  0  0  0  0  0  0  0  0  0  0  0
  149.9266  156.8377  132.5258 H   0  0  0  0  0  0  0  0  0  0  0  0
  149.3568  159.2818  132.6712 H   0  0  0  0  0  0  0  0  0  0  0  0
  147.1857  161.0908  133.0887 H   0  0  0  0  0  0  0  0  0  0  0  0
  142.7060  160.1200  132.6410 H   0  0  0  0  0  0  0  0  0  0  0  0
  145.7566  155.8198  133.3053 H   0  0  0  0  0  0  0  0  0  0  0  0
  150.3336  155.0667  132.4207 H   0  0  0  0  0  0  0  0  0  0  0  0
  150.9008  152.6468  132.2497 H   0  0  0  0  0  0  0  0  0  0  0  0
  1  2  1  0
  2  3  1  0
  3  4  2  0
  4  5  1  0
  5  6  2  0
  6  7  1  0
  7  8  2  0
  8  9  1  0
  9 10  2  0
 10 11  1  0
 11 12  2  0
 12 13  1  0
 13 14  1  0
 13 15  2  0
 12 16  1  0
 16 17  1  0
 17 18  2  0
 17 19  1  0
 16 20  1  0
 20 21  2  0
  6 22  1  0
 22 23  2  0
 23  3  1  0
 21  7  1  0
 20 10  1  0
  1 24  1  0
  1 25  1  0
  1 26  1  0
  4 27  1  0
  5 28  1  0
  8 29  1  0
  9 30  1  0
 11 31  1  0
 14 32  1  0
 21 33  1  0
 22 34  1  0
 23 35  1  0
M  CHG  2  14  -1  19  -1
M  END
>  <UniqueID>  (3) 
3

>  <SMILES>  (3) 
COc1ccc(-c2ccc3cc(C([NH-])=O)n(C(=O)[O-])c3c2)cc1

>  <Energy>  (3) 
82.35571816384595

>  <Genealogy>  (3) 
COc1ccc(-c2ccc3cc(C([NH-])=O)n(C(=O)[O-])c3c2)cc1 (protonated)
COc1ccc(-c2ccc3cc(C([NH-])=O)n(C(=O)[O-])c3c2)cc1 (3D coordinates assigned)
COc1ccc(-c2ccc3cc(C([NH-])=O)n(C(=O)[O-])c3c2)cc1 (optimized conformer: 82.35571816384595 kcal/mol)

>  <smiles>  (3) 
COc1ccc(-c2ccc3cc(C(N)=O)n(C(=O)O)c3c2)cc1

>  <score_type>  (3) 
oracle

>  <origin>  (3) 
adg

>  <m_score__min__energy>  (3) 
-7.1500000000000004

>  <m_primary>  (3) 
energy

$$$$
3:0
     RDKit          3D

 23 24  0  0  0  0  0  0  0  0999 V2000
  141.4890  159.7330  132.7060 N   0  0  0  0  0  0  0  0  0  0  0  0
  142.3970  159.9680  133.7790 C   0  0  0  0  0  0  0  0  0  0  0  0
  141.9680  160.4750  134.8510 O   0  0  0  0  0  0  0  0  0  0  0  0
  143.8390  159.6840  133.6300 C   0  0  0  0  0  0  0  0  0  0  0  0
  144.8230  160.6700  133.6820 C   0  0  0  0  0  0  0  0  0  0  0  0
  146.0050  160.0210  133.4100 C   0  0  0  0  0  0  0  0  0  0  0  0
  147.3030  160.5170  133.3420 C   0  0  0  0  0  0  0  0  0  0  0  0
  148.3420  159.6120  133.0700 C   0  0  0  0  0  0  0  0  0  0  0  0
  148.0650  158.2370  132.8800 C   0  0  0  0  0  0  0  0  0  0  0  0
  149.1320  157.3230  132.6150 N   0  0  0  0  0  0  0  0  0  0  0  0
  146.7370  157.7670  132.9550 C   0  0  0  0  0  0  0  0  0  0  0  0
  145.7190  158.6940  133.2100 C   0  0  0  0  0  0  0  0  0  0  0  0
  144.3930  158.4700  133.3450 N   0  0  0  0  0  0  0  0  0  0  0  0
  143.7330  157.1950  133.2990 C   0  0  0  0  0  0  0  0  0  0  0  0
  144.2220  156.2040  133.9040 O   0  0  0  0  0  0  0  0  0  0  0  0
  142.5340  157.0490  132.6130 O   0  0  0  0  0  0  0  0  0  0  0  0
  141.6750  158.9860  132.0010 H   0  0  0  0  0  0  0  0  0  0  0  0
  144.6838  161.7401  133.8953 H   0  0  0  0  0  0  0  0  0  0  0  0
  147.5094  161.5863  133.4967 H   0  0  0  0  0  0  0  0  0  0  0  0
  149.3785  159.9744  133.0042 H   0  0  0  0  0  0  0  0  0  0  0  0
  149.1340  156.7420  131.7480 H   0  0  0  0  0  0  0  0  0  0  0  0
  149.9290  157.2220  133.2840 H   0  0  0  0  0  0  0  0  0  0  0  0
  146.5072  156.7002  132.8168 H   0  0  0  0  0  0  0  0  0  0  0  0
  1  2  1  0
  2  3  2  0
  2  4  1  0
  4  5  2  0
  5  6  1  0
  6  7  2  0
  7  8  1  0
  8  9  2  0
  9 10  1  0
  9 11  1  0
 11 12  2  0
 12 13  1  0
 13 14  1  0
 14 15  2  0
 14 16  1  0
 13  4  1  0
 12  6  1  0
  1 17  1  0
  5 18  1  0
  7 19  1  0
  8 20  1  0
 10 21  1  0
 10 22  1  0
 11 23  1  0
M  CHG  2   1  -1  16  -1
M  END
>  <UniqueID>  (4) 
4

>  <SMILES>  (4) 
[NH-]C(=O)c1cc2ccc(N)cc2n1C(=O)[O-]

>  <Energy>  (4) 
62.76577769652213

>  <Genealogy>  (4) 
[NH-]C(=O)c1cc2ccc(N)cc2n1C(=O)[O-] (protonated)
[NH-]C(=O)c1cc2ccc(N)cc2n1C(=O)[O-] (3D coordinates assigned)
[NH-]C(=O)c1cc2ccc(N)cc2n1C(=O)[O-] (optimized conformer: 62.76577769652213 kcal/mol)

>  <smiles>  (4) 
NC(=O)c1cc2ccc(N)cc2n1C(=O)O

>  <score_type>  (4) 
oracle

>  <origin>  (4) 
adg

>  <m_score__min__energy>  (4) 
-5.5599999999999996

>  <m_primary>  (4) 
energy

$$$$
4:0
     RDKit          3D

 41 43  0  0  0  0  0  0  0  0999 V2000
  138.3410  160.3790  130.6530 C   0  0  0  0  0  0  0  0  0  0  0  0
  139.0710  159.5680  131.6830 C   0  0  0  0  0  0  0  0  0  0  0  0
  138.7980  158.1990  131.8260 C   0  0  0  0  0  0  0  0  0  0  0  0
  139.4500  157.4430  132.8120 C   0  0  0  0  0  0  0  0  0  0  0  0
  139.1240  155.9900  132.9860 C   0  0  0  0  0  0  0  0  0  0  0  0
  140.3490  158.0740  133.6850 C   0  0  0  0  0  0  0  0  0  0  0  0
  140.6240  159.4440  133.5550 C   0  0  0  0  0  0  0  0  0  0  0  0
  141.5550  160.1240  134.5220 C   0  0  0  0  0  0  0  0  0  0  0  0
  142.9840  159.8200  134.1650 C   0  0  0  0  0  0  0  0  0  0  0  0
  143.9000  160.8770  133.9390 C   0  0  0  0  0  0  0  0  0  0  0  0
  145.2220  160.6070  133.5500 C   0  0  0  0  0  0  0  0  0  0  0  0
  145.5970  159.2770  133.3940 C   0  0  0  0  0  0  0  0  0  0  0  0
  146.7960  158.7400  132.9840 C   0  0  0  0  0  0  0  0  0  0  0  0
  146.6010  157.3620  132.9840 C   0  0  0  0  0  0  0  0  0  0  0  0
  147.6640  156.3920  132.6560 C   0  0  0  0  0  0  0  0  0  0  0  0
  147.3930  155.2390  131.8590 N   0  0  0  0  0  0  0  0  0  0  0  0
  148.8190  156.5550  133.1340 O   0  0  0  0  0  0  0  0  0  0  0  0
  145.3290  157.0540  133.3650 N   0  0  0  0  0  0  0  0  0  0  0  0
  144.7080  155.7570  133.3750 C   0  0  0  0  0  0  0  0  0  0  0  0
  144.5660  155.1120  132.3030 O   0  0  0  0  0  0  0  0  0  0  0  0
  144.2560  155.2010  134.5660 O   0  0  0  0  0  0  0  0  0  0  0  0
  144.7270  158.2400  133.6170 C   0  0  0  0  0  0  0  0  0  0  0  0
  143.3980  158.4820  133.9860 C   0  0  0  0  0  0  0  0  0  0  0  0
  139.9720  160.1880  132.5600 C   0  0  0  0  0  0  0  0  0  0  0  0
  137.6864  161.1063  131.1555 H   0  0  0  0  0  0  0  0  0  0  0  0
  139.0683  160.9135  130.0242 H   0  0  0  0  0  0  0  0  0  0  0  0
  137.7332  159.7117  130.0242 H   0  0  0  0  0  0  0  0  0  0  0  0
  138.0679  157.7152  131.1606 H   0  0  0  0  0  0  0  0  0  0  0  0
  139.0706  155.7521  134.0586 H   0  0  0  0  0  0  0  0  0  0  0  0
  138.1547  155.7726  132.5135 H   0  0  0  0  0  0  0  0  0  0  0  0
  139.9074  155.3793  132.5135 H   0  0  0  0  0  0  0  0  0  0  0  0
  140.8417  157.4908  134.4769 H   0  0  0  0  0  0  0  0  0  0  0  0
  141.3929  161.2112  134.4796 H   0  0  0  0  0  0  0  0  0  0  0  0
  141.3515  159.7543  135.5378 H   0  0  0  0  0  0  0  0  0  0  0  0
  143.5725  161.9190  134.0695 H   0  0  0  0  0  0  0  0  0  0  0  0
  145.9389  161.4225  133.3741 H   0  0  0  0  0  0  0  0  0  0  0  0
  147.7131  159.2840  132.7138 H   0  0  0  0  0  0  0  0  0  0  0  0
  146.4160  154.9870  131.5910 H   0  0  0  0  0  0  0  0  0  0  0  0
  148.1670  154.5850  131.6030 H   0  0  0  0  0  0  0  0  0  0  0  0
  142.6937  157.6499  134.1328 H   0  0  0  0  0  0  0  0  0  0  0  0
  140.1694  161.2662  132.4673 H   0  0  0  0  0  0  0  0  0  0  0  0
  1  2  1  0
  2  3  2  0
  3  4  1  0
  4  5  1  0
  4  6  2  0
  6  7  1  0
  7  8  1  0
  8  9  1  0
  9 10  2  0
 10 11  1  0
 11 12  2  0
 12 13  1  0
 13 14  2  0
 14 15  1  0
 15 16  1  0
 15 17  2  0
 14 18  1  0
 18 19  1  0
 19 20  2  0
 19 21  1  0
 18 22  1  0
 22 23  2  0
  7 24  2  0
 24  2  1  0
 23  9  1  0
 22 12  1  0
  1 25  1  0
  1 26  1  0
  1 27  1  0
  3 28  1  0
  5 29  1  0
  5 30  1  0
  5 31  1  0
  6 32  1  0
  8 33  1  0
  8 34  1  0
 10 35  1  0
 11 36  1  0
 13 37  1  0
 16 38  1  0
 16 39  1  0
 23 40  1  0
 24 41  1  0
M  CHG  1  21  -1
M  END
>  <UniqueID>  (5) 
5

>  <SMILES>  (5) 
Cc1cc(C)cc(Cc2ccc3cc(C(N)=O)n(C(=O)[O-])c3c2)c1

>  <Energy>  (5) 
79.9913051774736

>  <Genealogy>  (5) 
Cc1cc(C)cc(Cc2ccc3cc(C(N)=O)n(C(=O)[O-])c3c2)c1 (protonated)
Cc1cc(C)cc(Cc2ccc3cc(C(N)=O)n(C(=O)[O-])c3c2)c1 (3D coordinates assigned)
Cc1cc(C)cc(Cc2ccc3cc(C(N)=O)n(C(=O)[O-])c3c2)c1 (optimized conformer: 79.9913051774736 kcal/mol)

>  <smiles>  (5) 
Cc1cc(C)cc(Cc2ccc3cc(C(N)=O)n(C(=O)O)c3c2)c1

>  <score_type>  (5) 
oracle

>  <origin>  (5) 
adg

>  <m_score__min__energy>  (5) 
-8.1300000000000008

>  <m_primary>  (5) 
energy

$$$$
5:0
     RDKit          3D

 34 36  0  0  0  0  0  0  0  0999 V2000
  141.0150  155.0230  133.3600 C   0  0  0  0  0  0  0  0  0  0  0  0
  139.9240  155.9970  133.6660 C   0  0  0  0  0  0  0  0  0  0  0  0
  138.7460  155.7390  133.3020 O   0  0  0  0  0  0  0  0  0  0  0  0
  140.2040  157.2240  134.3600 N   0  0  0  0  0  0  0  0  0  0  0  0
  140.2520  158.4820  133.8370 C   0  0  0  0  0  0  0  0  0  0  0  0
  139.8960  158.8600  132.4510 C   0  0  0  0  0  0  0  0  0  0  0  0
  138.7650  158.2900  131.8010 N   0  0  0  0  0  0  0  0  0  0  0  0
  140.5830  159.7260  131.8450 O   0  0  0  0  0  0  0  0  0  0  0  0
  140.6320  159.4010  134.8110 C   0  0  0  0  0  0  0  0  0  0  0  0
  140.8170  158.6630  135.9580 C   0  0  0  0  0  0  0  0  0  0  0  0
  141.2150  159.0660  137.2280 C   0  0  0  0  0  0  0  0  0  0  0  0
  141.3560  158.0800  138.2190 C   0  0  0  0  0  0  0  0  0  0  0  0
  141.1080  156.7130  137.9250 C   0  0  0  0  0  0  0  0  0  0  0  0
  141.2750  155.6820  138.9780 C   0  0  0  0  0  0  0  0  0  0  0  0
  140.1680  154.9390  139.4280 C   0  0  0  0  0  0  0  0  0  0  0  0
  140.3420  153.9770  140.4240 C   0  0  0  0  0  0  0  0  0  0  0  0
  141.6080  153.7590  140.9650 C   0  0  0  0  0  0  0  0  0  0  0  0
  142.6880  154.5110  140.5000 C   0  0  0  0  0  0  0  0  0  0  0  0
  142.5050  155.4470  139.5280 N   0  0  0  0  0  0  0  0  0  0  0  0
  140.7080  156.3450  136.6190 C   0  0  0  0  0  0  0  0  0  0  0  0
  140.5550  157.3520  135.6580 C   0  0  0  0  0  0  0  0  0  0  0  0
  141.4412  154.6425  134.3000 H   0  0  0  0  0  0  0  0  0  0  0  0
  140.6054  154.1847  132.7774 H   0  0  0  0  0  0  0  0  0  0  0  0
  141.8017  155.5247  132.7774 H   0  0  0  0  0  0  0  0  0  0  0  0
  138.2490  157.4880  132.2250 H   0  0  0  0  0  0  0  0  0  0  0  0
  140.7578  160.4870  134.6897 H   0  0  0  0  0  0  0  0  0  0  0  0
  141.4135  160.1249  137.4501 H   0  0  0  0  0  0  0  0  0  0  0  0
  141.6622  158.3705  139.2348 H   0  0  0  0  0  0  0  0  0  0  0  0
  139.1713  155.1154  138.9973 H   0  0  0  0  0  0  0  0  0  0  0  0
  139.4818  153.3920  140.7814 H   0  0  0  0  0  0  0  0  0  0  0  0
  141.7543  153.0024  141.7500 H   0  0  0  0  0  0  0  0  0  0  0  0
  143.6911  154.3469  140.9204 H   0  0  0  0  0  0  0  0  0  0  0  0
  143.3410  155.9730  139.1910 H   0  0  0  0  0  0  0  0  0  0  0  0
  140.5213  155.2914  136.3640 H   0  0  0  0  0  0  0  0  0  0  0  0
  1  2  1  0
  2  3  2  0
  2  4  1  0
  4  5  1  0
  5  6  1  0
  6  7  1  0
  6  8  2  0
  5  9  2  0
  9 10  1  0
 10 11  2  0
 11 12  1  0
 12 13  2  0
 13 14  1  0
 14 15  2  0
 15 16  1  0
 16 17  2  0
 17 18  1  0
 18 19  2  0
 13 20  1  0
 20 21  2  0
 21  4  1  0
 21 10  1  0
 19 14  1  0
  1 22  1  0
  1 23  1  0
  1 24  1  0
  7 25  1  0
  9 26  1  0
 11 27  1  0
 12 28  1  0
 15 29  1  0
 16 30  1  0
 17 31  1  0
 18 32  1  0
 19 33  1  0
 20 34  1  0
M  CHG  2   7  -1  19   1
M  END
>  <UniqueID>  (6) 
6

>  <SMILES>  (6) 
CC(=O)n1c(C([NH-])=O)cc2ccc(-c3cccc[nH+]3)cc21

>  <Energy>  (6) 
80.34287601412181

>  <Genealogy>  (6) 
CC(=O)n1c(C([NH-])=O)cc2ccc(-c3cccc[nH+]3)cc21 (protonated)
CC(=O)n1c(C([NH-])=O)cc2ccc(-c3cccc[nH+]3)cc21 (3D coordinates assigned)
CC(=O)n1c(C([NH-])=O)cc2ccc(-c3cccc[nH+]3)cc21 (optimized conformer: 80.34287601412181 kcal/mol)

>  <smiles>  (6) 
CC(=O)n1c(C(N)=O)cc2ccc(-c3ccccn3)cc21

>  <score_type>  (6) 
oracle

>  <origin>  (6) 
adg

>  <m_score__min__energy>  (6) 
-6.9199999999999999

>  <m_primary>  (6) 
energy

$$$$
6:0
     RDKit          3D

 49 51  0  0  0  0  0  0  0  0999 V2000
  139.1780  147.1220  130.0060 C   0  0  0  0  0  0  0  0  0  0  0  0
  139.8770  148.4060  130.4460 C   0  0  0  0  0  0  0  0  0  0  0  0
  139.2930  148.9000  131.6530 O   0  0  0  0  0  0  0  0  0  0  0  0
  139.9900  149.6970  132.5810 C   0  0  0  0  0  0  0  0  0  0  0  0
  140.2980  149.2460  133.7210 O   0  0  0  0  0  0  0  0  0  0  0  0
  140.3340  151.1080  132.2130 C   0  0  0  0  0  0  0  0  0  0  0  0
  141.2140  151.7830  133.2970 C   0  0  0  0  0  0  0  0  0  0  0  0
  142.6730  151.2320  133.2840 C   0  0  0  0  0  0  0  0  0  0  0  0
  143.6680  152.2040  132.6430 C   0  0  0  0  0  0  0  0  0  0  0  0
  143.6160  153.5040  133.3290 N   0  0  0  0  0  0  0  0  0  0  0  0
  144.7990  154.3240  133.4080 C   0  0  0  0  0  0  0  0  0  0  0  0
  146.0610  153.7360  133.6750 C   0  0  0  0  0  0  0  0  0  0  0  0
  147.2190  154.5270  133.7590 C   0  0  0  0  0  0  0  0  0  0  0  0
  147.0860  155.9010  133.5750 C   0  0  0  0  0  0  0  0  0  0  0  0
  148.0320  156.8980  133.6330 C   0  0  0  0  0  0  0  0  0  0  0  0
  147.3370  158.0820  133.3900 C   0  0  0  0  0  0  0  0  0  0  0  0
  147.9940  159.4000  133.2810 C   0  0  0  0  0  0  0  0  0  0  0  0
  147.7010  160.2760  132.1970 N   0  0  0  0  0  0  0  0  0  0  0  0
  148.8620  159.7360  134.1300 O   0  0  0  0  0  0  0  0  0  0  0  0
  146.0120  157.8270  133.1980 N   0  0  0  0  0  0  0  0  0  0  0  0
  144.9450  158.7730  133.0160 C   0  0  0  0  0  0  0  0  0  0  0  0
  145.1470  160.1500  133.3240 N   0  0  0  0  0  0  0  0  0  0  0  0
  143.8120  158.3860  132.6200 O   0  0  0  0  0  0  0  0  0  0  0  0
  145.8760  156.4860  133.3090 C   0  0  0  0  0  0  0  0  0  0  0  0
  144.7060  155.7230  133.2290 C   0  0  0  0  0  0  0  0  0  0  0  0
  142.3350  154.0100  133.8440 C   0  0  0  0  0  0  0  0  0  0  0  0
  141.1600  153.3230  133.1410 C   0  0  0  0  0  0  0  0  0  0  0  0
  138.8672  146.5511  130.8934 H   0  0  0  0  0  0  0  0  0  0  0  0
  138.2927  147.3743  129.4038 H   0  0  0  0  0  0  0  0  0  0  0  0
  139.8704  146.5154  129.4038 H   0  0  0  0  0  0  0  0  0  0  0  0
  140.9435  148.1981  130.6175 H   0  0  0  0  0  0  0  0  0  0  0  0
  139.7629  149.1639  129.6570 H   0  0  0  0  0  0  0  0  0  0  0  0
  140.8824  151.1045  131.2594 H   0  0  0  0  0  0  0  0  0  0  0  0
  139.3976  151.6786  132.1260 H   0  0  0  0  0  0  0  0  0  0  0  0
  140.8059  151.5309  134.2869 H   0  0  0  0  0  0  0  0  0  0  0  0
  142.9861  151.0414  134.3211 H   0  0  0  0  0  0  0  0  0  0  0  0
  142.6743  150.3113  132.6820 H   0  0  0  0  0  0  0  0  0  0  0  0
  144.6841  151.7904  132.7233 H   0  0  0  0  0  0  0  0  0  0  0  0
  143.4042  152.3441  131.5843 H   0  0  0  0  0  0  0  0  0  0  0  0
  146.1344  152.6478  133.8181 H   0  0  0  0  0  0  0  0  0  0  0  0
  148.2007  154.0749  133.9638 H   0  0  0  0  0  0  0  0  0  0  0  0
  149.1084  156.7851  133.8294 H   0  0  0  0  0  0  0  0  0  0  0  0
  146.8630  160.8980  132.2220 H   0  0  0  0  0  0  0  0  0  0  0  0
  145.6280  160.7850  132.6510 H   0  0  0  0  0  0  0  0  0  0  0  0
  143.7353  156.2012  133.0312 H   0  0  0  0  0  0  0  0  0  0  0  0
  142.2760  153.8109  134.9242 H   0  0  0  0  0  0  0  0  0  0  0  0
  142.2789  155.0916  133.6519 H   0  0  0  0  0  0  0  0  0  0  0  0
  140.2199  153.6918  133.5770 H   0  0  0  0  0  0  0  0  0  0  0  0
  141.2192  153.5592  132.0683 H   0  0  0  0  0  0  0  0  0  0  0  0
  1  2  1  0
  2  3  1  0
  3  4  1  0
  4  5  2  0
  4  6  1  0
  6  7  1  0
  7  8  1  0
  8  9  1  0
  9 10  1  0
 10 11  1  0
 11 12  2  0
 12 13  1  0
 13 14  2  0
 14 15  1  0
 15 16  2  0
 16 17  1  0
 17 18  1  0
 17 19  2  0
 16 20  1  0
 20 21  1  0
 21 22  1  0
 21 23  2  0
 20 24  1  0
 24 25  2  0
 10 26  1  0
 26 27  1  0
 27  7  1  0
 25 11  1  0
 24 14  1  0
  1 28  1  0
  1 29  1  0
  1 30  1  0
  2 31  1  0
  2 32  1  0
  6 33  1  0
  6 34  1  0
  7 35  1  0
  8 36  1  0
  8 37  1  0
  9 38  1  0
  9 39  1  0
 12 40  1  0
 13 41  1  0
 15 42  1  0
 18 43  1  0
 22 44  1  0
 25 45  1  0
 26 46  1  0
 26 47  1  0
 27 48  1  0
 27 49  1  0
M  CHG  2  18  -1  22  -1
M  END
>  <UniqueID>  (7) 
7

>  <SMILES>  (7) 
CCOC(=O)CC1CCN(c2ccc3cc(C([NH-])=O)n(C([NH-])=O)c3c2)CC1

>  <Energy>  (7) 
89.95710565875623

>  <Genealogy>  (7) 
CCOC(=O)CC1CCN(c2ccc3cc(C([NH-])=O)n(C([NH-])=O)c3c2)CC1 (protonated)
CCOC(=O)CC1CCN(c2ccc3cc(C([NH-])=O)n(C([NH-])=O)c3c2)CC1 (3D coordinates assigned)
CCOC(=O)CC1CCN(c2ccc3cc(C([NH-])=O)n(C([NH-])=O)c3c2)CC1 (nonaromatic ring conformer: 89.95710565875623 kcal/mol)

>  <smiles>  (7) 
CCOC(=O)CC1CCN(c2ccc3cc(C(N)=O)n(C(N)=O)c3c2)CC1

>  <score_type>  (7) 
oracle

>  <origin>  (7) 
adg

>  <m_score__min__energy>  (7) 
-8.2400000000000002

>  <m_primary>  (7) 
energy

$$$$
7:0
     RDKit          3D

 31 32  0  0  0  0  0  0  0  0999 V2000
  145.7080  162.7260  134.4920 C   0  0  0  0  0  0  0  0  0  0  0  0
  144.7380  161.6510  134.0160 C   0  0  0  0  0  0  0  0  0  0  0  0
  145.2470  160.3510  134.3080 O   0  0  0  0  0  0  0  0  0  0  0  0
  145.3970  159.3460  133.3450 C   0  0  0  0  0  0  0  0  0  0  0  0
  144.4180  158.9920  132.6330 O   0  0  0  0  0  0  0  0  0  0  0  0
  146.6710  158.7030  133.1800 N   0  0  0  0  0  0  0  0  0  0  0  0
  147.0350  157.4580  133.5960 C   0  0  0  0  0  0  0  0  0  0  0  0
  146.2410  156.5660  134.4660 C   0  0  0  0  0  0  0  0  0  0  0  0
  144.8170  156.6320  134.4790 N   0  0  0  0  0  0  0  0  0  0  0  0
  146.8280  155.7700  135.2460 O   0  0  0  0  0  0  0  0  0  0  0  0
  148.3190  157.1500  133.1510 C   0  0  0  0  0  0  0  0  0  0  0  0
  148.7380  158.2590  132.4510 C   0  0  0  0  0  0  0  0  0  0  0  0
  149.9330  158.4910  131.7750 C   0  0  0  0  0  0  0  0  0  0  0  0
  150.0810  159.7170  131.1050 C   0  0  0  0  0  0  0  0  0  0  0  0
  149.0440  160.6810  131.1270 C   0  0  0  0  0  0  0  0  0  0  0  0
  149.1940  161.9630  130.3630 C   0  0  0  0  0  0  0  0  0  0  0  0
  147.8390  160.4030  131.8090 C   0  0  0  0  0  0  0  0  0  0  0  0
  147.7250  159.1820  132.4830 C   0  0  0  0  0  0  0  0  0  0  0  0
  145.7244  162.7441  135.5917 H   0  0  0  0  0  0  0  0  0  0  0  0
  146.7166  162.5032  134.1139 H   0  0  0  0  0  0  0  0  0  0  0  0
  145.3830  163.7065  134.1139 H   0  0  0  0  0  0  0  0  0  0  0  0
  143.7723  161.7841  134.5257 H   0  0  0  0  0  0  0  0  0  0  0  0
  144.6099  161.7456  132.9276 H   0  0  0  0  0  0  0  0  0  0  0  0
  144.3170  157.5030  134.1960 H   0  0  0  0  0  0  0  0  0  0  0  0
  148.8788  156.2188  133.3225 H   0  0  0  0  0  0  0  0  0  0  0  0
  150.7354  157.7386  131.7658 H   0  0  0  0  0  0  0  0  0  0  0  0
  151.0113  159.9301  130.5581 H   0  0  0  0  0  0  0  0  0  0  0  0
  149.2921  162.8011  131.0687 H   0  0  0  0  0  0  0  0  0  0  0  0
  150.0920  161.9097  129.7300 H   0  0  0  0  0  0  0  0  0  0  0  0
  148.3079  162.1184  129.7300 H   0  0  0  0  0  0  0  0  0  0  0  0
  147.0114  161.1276  131.8104 H   0  0  0  0  0  0  0  0  0  0  0  0
  1  2  1  0
  2  3  1  0
  3  4  1  0
  4  5  2  0
  4  6  1  0
  6  7  1  0
  7  8  1  0
  8  9  1  0
  8 10  2  0
  7 11  2  0
 11 12  1  0
 12 13  2  0
 13 14  1  0
 14 15  2  0
 15 16  1  0
 15 17  1  0
 17 18  2  0
 18  6  1  0
 18 12  1  0
  1 19  1  0
  1 20  1  0
  1 21  1  0
  2 22  1  0
  2 23  1  0
  9 24  1  0
 11 25  1  0
 13 26  1  0
 14 27  1  0
 16 28  1  0
 16 29  1  0
 16 30  1  0
 17 31  1  0
M  CHG  1   9  -1
M  END
>  <UniqueID>  (8) 
8

>  <SMILES>  (8) 
CCOC(=O)n1c(C([NH-])=O)cc2ccc(C)cc21

>  <Energy>  (8) 
65.75181116169512

>  <Genealogy>  (8) 
CCOC(=O)n1c(C([NH-])=O)cc2ccc(C)cc21 (protonated)
CCOC(=O)n1c(C([NH-])=O)cc2ccc(C)cc21 (3D coordinates assigned)
CCOC(=O)n1c(C([NH-])=O)cc2ccc(C)cc21 (optimized conformer: 65.75181116169512 kcal/mol)

>  <smiles>  (8) 
CCOC(=O)n1c(C(N)=O)cc2ccc(C)cc21

>  <score_type>  (8) 
oracle

>  <origin>  (8) 
adg

>  <m_score__min__energy>  (8) 
-5.9199999999999999

>  <m_primary>  (8) 
energy

$$$$
8:0
     RDKit          3D

 34 36  0  0  0  0  0  0  0  0999 V2000
  141.0470  158.3960  136.2810 C   0  0  0  0  0  0  0  0  0  0  0  0
  140.3650  158.3420  134.9440 C   0  0  0  0  0  0  0  0  0  0  0  0
  139.0580  157.9610  134.9000 N   0  0  0  0  0  0  0  0  0  0  0  0
  138.3700  157.8660  133.7320 C   0  0  0  0  0  0  0  0  0  0  0  0
  138.9990  158.1590  132.5240 C   0  0  0  0  0  0  0  0  0  0  0  0
  140.3340  158.5620  132.5300 C   0  0  0  0  0  0  0  0  0  0  0  0
  141.0340  158.6750  133.7410 C   0  0  0  0  0  0  0  0  0  0  0  0
  142.4430  159.1250  133.7180 C   0  0  0  0  0  0  0  0  0  0  0  0
  142.7430  160.5090  133.7510 C   0  0  0  0  0  0  0  0  0  0  0  0
  144.0750  160.9540  133.7250 C   0  0  0  0  0  0  0  0  0  0  0  0
  145.0820  159.9950  133.6840 C   0  0  0  0  0  0  0  0  0  0  0  0
  146.4480  160.1520  133.6200 C   0  0  0  0  0  0  0  0  0  0  0  0
  146.9640  158.8600  133.5920 C   0  0  0  0  0  0  0  0  0  0  0  0
  148.4100  158.5660  133.5880 C   0  0  0  0  0  0  0  0  0  0  0  0
  148.9820  157.6800  132.6250 N   0  0  0  0  0  0  0  0  0  0  0  0
  149.1450  159.0580  134.4870 O   0  0  0  0  0  0  0  0  0  0  0  0
  145.9610  157.9380  133.6240 N   0  0  0  0  0  0  0  0  0  0  0  0
  146.0870  156.5120  133.4840 C   0  0  0  0  0  0  0  0  0  0  0  0
  146.7440  156.0180  132.5300 O   0  0  0  0  0  0  0  0  0  0  0  0
  145.4880  155.6610  134.4060 O   0  0  0  0  0  0  0  0  0  0  0  0
  144.8120  158.6510  133.6820 C   0  0  0  0  0  0  0  0  0  0  0  0
  143.4940  158.1800  133.6890 C   0  0  0  0  0  0  0  0  0  0  0  0
  140.2931  158.3363  137.0798 H   0  0  0  0  0  0  0  0  0  0  0  0
  141.7446  157.5503  136.3712 H   0  0  0  0  0  0  0  0  0  0  0  0
  141.6028  159.3410  136.3712 H   0  0  0  0  0  0  0  0  0  0  0  0
  137.3143  157.5571  133.7404 H   0  0  0  0  0  0  0  0  0  0  0  0
  138.4485  158.0734  131.5755 H   0  0  0  0  0  0  0  0  0  0  0  0
  140.8406  158.7923  131.5812 H   0  0  0  0  0  0  0  0  0  0  0  0
  141.9246  161.2426  133.7975 H   0  0  0  0  0  0  0  0  0  0  0  0
  144.3145  162.0275  133.7367 H   0  0  0  0  0  0  0  0  0  0  0  0
  147.0112  161.0966  133.5961 H   0  0  0  0  0  0  0  0  0  0  0  0
  148.3790  157.1300  131.9740 H   0  0  0  0  0  0  0  0  0  0  0  0
  150.0130  157.5110  132.6150 H   0  0  0  0  0  0  0  0  0  0  0  0
  143.2812  157.1009  133.6723 H   0  0  0  0  0  0  0  0  0  0  0  0
  1  2  1  0
  2  3  2  0
  3  4  1  0
  4  5  2  0
  5  6  1  0
  6  7  2  0
  7  8  1  0
  8  9  2  0
  9 10  1  0
 10 11  2  0
 11 12  1  0
 12 13  2  0
 13 14  1  0
 14 15  1  0
 14 16  2  0
 13 17  1  0
 17 18  1  0
 18 19  2  0
 18 20  1  0
 17 21  1  0
 21 22  2  0
  7  2  1  0
 22  8  1  0
 21 11  1  0
  1 23  1  0
  1 24  1  0
  1 25  1  0
  4 26  1  0
  5 27  1  0
  6 28  1  0
  9 29  1  0
 10 30  1  0
 12 31  1  0
 15 32  1  0
 15 33  1  0
 22 34  1  0
M  CHG  1  20  -1
M  END
>  <UniqueID>  (9) 
9

>  <SMILES>  (9) 
Cc1ncccc1-c1ccc2cc(C(N)=O)n(C(=O)[O-])c2c1

>  <Energy>  (9) 
84.00305452418444

>  <Genealogy>  (9) 
Cc1ncccc1-c1ccc2cc(C(N)=O)n(C(=O)[O-])c2c1 (protonated)
Cc1ncccc1-c1ccc2cc(C(N)=O)n(C(=O)[O-])c2c1 (3D coordinates assigned)
Cc1ncccc1-c1ccc2cc(C(N)=O)n(C(=O)[O-])c2c1 (optimized conformer: 84.00305452418444 kcal/mol)

>  <smiles>  (9) 
Cc1ncccc1-c1ccc2cc(C(N)=O)n(C(=O)O)c2c1

>  <score_type>  (9) 
oracle

>  <origin>  (9) 
adg

>  <m_score__min__energy>  (9) 
-7.3600000000000003

>  <m_primary>  (9) 
energy

$$$$
9:0
     RDKit          3D

 40 43  0  0  0  0  0  0  0  0999 V2000
  141.8030  154.2910  135.1230 C   0  0  0  0  0  0  0  0  0  0  0  0
  141.5710  153.6430  133.7960 C   0  0  0  0  0  0  0  0  0  0  0  0
  140.5480  153.9560  133.1300 O   0  0  0  0  0  0  0  0  0  0  0  0
  142.5040  152.6870  133.2630 N   0  0  0  0  0  0  0  0  0  0  0  0
  142.2620  151.3780  132.9740 C   0  0  0  0  0  0  0  0  0  0  0  0
  140.9430  150.7130  133.0160 C   0  0  0  0  0  0  0  0  0  0  0  0
  139.7660  151.3660  132.5400 N   0  0  0  0  0  0  0  0  0  0  0  0
  140.8630  149.5290  133.4380 O   0  0  0  0  0  0  0  0  0  0  0  0
  143.4380  150.7310  132.6040 C   0  0  0  0  0  0  0  0  0  0  0  0
  144.4190  151.6930  132.6710 C   0  0  0  0  0  0  0  0  0  0  0  0
  145.7870  151.5920  132.4340 C   0  0  0  0  0  0  0  0  0  0  0  0
  146.5750  152.7380  132.6310 C   0  0  0  0  0  0  0  0  0  0  0  0
  145.9860  153.9530  133.0620 C   0  0  0  0  0  0  0  0  0  0  0  0
  146.8310  155.1450  133.2970 C   0  0  0  0  0  0  0  0  0  0  0  0
  147.0160  156.0440  132.2330 C   0  0  0  0  0  0  0  0  0  0  0  0
  147.7320  157.2270  132.4180 C   0  0  0  0  0  0  0  0  0  0  0  0
  148.2690  157.5300  133.6680 C   0  0  0  0  0  0  0  0  0  0  0  0
  148.1070  156.6430  134.7330 C   0  0  0  0  0  0  0  0  0  0  0  0
  147.4040  155.4350  134.5650 C   0  0  0  0  0  0  0  0  0  0  0  0
  147.3350  154.4930  135.7100 C   0  0  0  0  0  0  0  0  0  0  0  0
  146.2660  153.7170  135.9910 N   0  0  0  0  0  0  0  0  0  0  0  0
  146.6150  153.0200  137.0280 O   0  0  0  0  0  0  0  0  0  0  0  0
  147.8370  153.3390  137.3660 C   0  0  0  0  0  0  0  0  0  0  0  0
  148.4520  152.8260  138.3360 O   0  0  0  0  0  0  0  0  0  0  0  0
  148.3650  154.2750  136.5590 N   0  0  0  0  0  0  0  0  0  0  0  0
  144.5970  154.0130  133.3080 C   0  0  0  0  0  0  0  0  0  0  0  0
  143.8320  152.8650  133.0770 C   0  0  0  0  0  0  0  0  0  0  0  0
  141.5496  153.5832  135.9260 H   0  0  0  0  0  0  0  0  0  0  0  0
  142.8606  154.5806  135.2097 H   0  0  0  0  0  0  0  0  0  0  0  0
  141.1695  155.1861  135.2097 H   0  0  0  0  0  0  0  0  0  0  0  0
  139.8220  152.2650  132.0120 H   0  0  0  0  0  0  0  0  0  0  0  0
  138.8370  150.8980  132.6290 H   0  0  0  0  0  0  0  0  0  0  0  0
  143.5573  149.6753  132.3188 H   0  0  0  0  0  0  0  0  0  0  0  0
  146.2368  150.6444  132.1028 H   0  0  0  0  0  0  0  0  0  0  0  0
  147.6589  152.6921  132.4491 H   0  0  0  0  0  0  0  0  0  0  0  0
  146.5922  155.8128  131.2446 H   0  0  0  0  0  0  0  0  0  0  0  0
  147.8729  157.9213  131.5765 H   0  0  0  0  0  0  0  0  0  0  0  0
  148.8214  158.4698  133.8152 H   0  0  0  0  0  0  0  0  0  0  0  0
  148.5339  156.8908  135.7160 H   0  0  0  0  0  0  0  0  0  0  0  0
  144.1283  154.9391  133.6721 H   0  0  0  0  0  0  0  0  0  0  0  0
  1  2  1  0
  2  3  2  0
  2  4  1  0
  4  5  1  0
  5  6  1  0
  6  7  1  0
  6  8  2  0
  5  9  2  0
  9 10  1  0
 10 11  2  0
 11 12  1  0
 12 13  2  0
 13 14  1  0
 14 15  2  0
 15 16  1  0
 16 17  2  0
 17 18  1  0
 18 19  2  0
 19 20  1  0
 20 21  2  0
 21 22  1  0
 22 23  1  0
 23 24  2  0
 23 25  1  0
 13 26  1  0
 26 27  2  0
 27  4  1  0
 27 10  1  0
 19 14  1  0
 25 20  1  0
  1 28  1  0
  1 29  1  0
  1 30  1  0
  7 31  1  0
  7 32  1  0
  9 33  1  0
 11 34  1  0
 12 35  1  0
 15 36  1  0
 16 37  1  0
 17 38  1  0
 18 39  1  0
 26 40  1  0
M  CHG  1  25  -1
M  END
>  <UniqueID>  (10) 
10

>  <SMILES>  (10) 
CC(=O)n1c(C(N)=O)cc2ccc(-c3ccccc3-c3noc(=O)[n-]3)cc21

>  <Energy>  (10) 
128.36911393404446

>  <Genealogy>  (10) 
CC(=O)n1c(C(N)=O)cc2ccc(-c3ccccc3-c3noc(=O)[n-]3)cc21 (protonated)
CC(=O)n1c(C(N)=O)cc2ccc(-c3ccccc3-c3noc(=O)[n-]3)cc21 (3D coordinates assigned)
CC(=O)n1c(C(N)=O)cc2ccc(-c3ccccc3-c3noc(=O)[n-]3)cc21 (optimized conformer: 128.36911393404446 kcal/mol)

>  <smiles>  (10) 
CC(=O)n1c(C(N)=O)cc2ccc(-c3ccccc3-c3noc(=O)[nH]3)cc21

>  <score_type>  (10) 
oracle

>  <origin>  (10) 
adg

>  <m_score__min__energy>  (10) 
-9.2300000000000004

>  <m_primary>  (10) 
energy

$$$$
10:0
     RDKit          3D

 28 29  0  0  0  0  0  0  0  0999 V2000
  148.8540  158.8770  134.3030 C   0  0  0  0  0  0  0  0  0  0  0  0
  148.0560  158.3480  133.1540 C   0  0  0  0  0  0  0  0  0  0  0  0
  148.6570  157.9600  132.1150 O   0  0  0  0  0  0  0  0  0  0  0  0
  146.6200  158.2940  133.2080 N   0  0  0  0  0  0  0  0  0  0  0  0
  145.8370  157.1820  133.1260 C   0  0  0  0  0  0  0  0  0  0  0  0
  146.3070  155.8150  132.8160 C   0  0  0  0  0  0  0  0  0  0  0  0
  147.3610  155.5860  131.8800 N   0  0  0  0  0  0  0  0  0  0  0  0
  145.7360  154.8290  133.3540 O   0  0  0  0  0  0  0  0  0  0  0  0
  144.5020  157.5020  133.3550 C   0  0  0  0  0  0  0  0  0  0  0  0
  144.4880  158.8590  133.5800 C   0  0  0  0  0  0  0  0  0  0  0  0
  143.4240  159.7060  133.8740 C   0  0  0  0  0  0  0  0  0  0  0  0
  143.7040  161.0620  134.1030 C   0  0  0  0  0  0  0  0  0  0  0  0
  145.0370  161.5440  134.0650 C   0  0  0  0  0  0  0  0  0  0  0  0
  145.3220  163.0080  134.2820 C   0  0  0  0  0  0  0  0  0  0  0  0
  145.3140  163.3150  135.6310 F   0  0  0  0  0  0  0  0  0  0  0  0
  144.3520  163.7590  133.6440 F   0  0  0  0  0  0  0  0  0  0  0  0
  146.5620  163.3470  133.7700 F   0  0  0  0  0  0  0  0  0  0  0  0
  146.0900  160.6550  133.7430 C   0  0  0  0  0  0  0  0  0  0  0  0
  145.7790  159.3140  133.4920 C   0  0  0  0  0  0  0  0  0  0  0  0
  148.3856  158.5665  135.2486 H   0  0  0  0  0  0  0  0  0  0  0  0
  149.8779  158.4782  134.2527 H   0  0  0  0  0  0  0  0  0  0  0  0
  148.8854  159.9754  134.2527 H   0  0  0  0  0  0  0  0  0  0  0  0
  147.7260  156.3560  131.2770 H   0  0  0  0  0  0  0  0  0  0  0  0
  147.7130  154.6180  131.7160 H   0  0  0  0  0  0  0  0  0  0  0  0
  143.6419  156.8163  133.3559 H   0  0  0  0  0  0  0  0  0  0  0  0
  142.3937  159.3240  133.9254 H   0  0  0  0  0  0  0  0  0  0  0  0
  142.8797  161.7591  134.3144 H   0  0  0  0  0  0  0  0  0  0  0  0
  147.1298  161.0103  133.6912 H   0  0  0  0  0  0  0  0  0  0  0  0
  1  2  1  0
  2  3  2  0
  2  4  1  0
  4  5  1  0
  5  6  1  0
  6  7  1  0
  6  8  2  0
  5  9  2  0
  9 10  1  0
 10 11  2  0
 11 12  1  0
 12 13  2  0
 13 14  1  0
 14 15  1  0
 14 16  1  0
 14 17  1  0
 13 18  1  0
 18 19  2  0
 19  4  1  0
 19 10  1  0
  1 20  1  0
  1 21  1  0
  1 22  1  0
  7 23  1  0
  7 24  1  0
  9 25  1  0
 11 26  1  0
 12 27  1  0
 18 28  1  0
M  END
>  <UniqueID>  (11) 
11

>  <SMILES>  (11) 
CC(=O)n1c(C(N)=O)cc2ccc(C(F)(F)F)cc21

>  <Energy>  (11) 
68.27129079387475

>  <Genealogy>  (11) 
CC(=O)n1c(C(N)=O)cc2ccc(C(F)(F)F)cc21 (3D coordinates assigned)
CC(=O)n1c(C(N)=O)cc2ccc(C(F)(F)F)cc21 (optimized conformer: 68.27129079387475 kcal/mol)

>  <smiles>  (11) 
CC(=O)n1c(C(N)=O)cc2ccc(C(F)(F)F)cc21

>  <score_type>  (11) 
oracle

>  <origin>  (11) 
adg

>  <m_score__min__energy>  (11) 
-5.71

>  <m_primary>  (11) 
energy

$$$$
11:0
     RDKit          3D

 35 37  0  0  0  0  0  0  0  0999 V2000
  149.0540  158.2810  131.4530 N   0  0  0  0  0  0  0  0  0  0  0  0
  148.6850  158.9190  132.6740 C   0  0  0  0  0  0  0  0  0  0  0  0
  149.5860  159.3350  133.4500 O   0  0  0  0  0  0  0  0  0  0  0  0
  147.2570  159.1220  132.9950 C   0  0  0  0  0  0  0  0  0  0  0  0
  146.6660  160.3800  133.1010 C   0  0  0  0  0  0  0  0  0  0  0  0
  145.3720  160.1430  133.5010 C   0  0  0  0  0  0  0  0  0  0  0  0
  144.3320  161.0360  133.7450 C   0  0  0  0  0  0  0  0  0  0  0  0
  143.0850  160.5080  134.1160 C   0  0  0  0  0  0  0  0  0  0  0  0
  142.9010  159.1080  134.2400 C   0  0  0  0  0  0  0  0  0  0  0  0
  141.5460  158.5530  134.5860 C   0  0  0  0  0  0  0  0  0  0  0  0
  140.5890  158.7720  133.4450 C   0  0  0  0  0  0  0  0  0  0  0  0
  139.8990  157.6860  132.8810 C   0  0  0  0  0  0  0  0  0  0  0  0
  138.9820  157.8960  131.8460 C   0  0  0  0  0  0  0  0  0  0  0  0
  138.7400  159.1890  131.3750 C   0  0  0  0  0  0  0  0  0  0  0  0
  137.8480  159.3880  130.3730 F   0  0  0  0  0  0  0  0  0  0  0  0
  139.4130  160.2770  131.9400 C   0  0  0  0  0  0  0  0  0  0  0  0
  139.1730  161.5330  131.4910 F   0  0  0  0  0  0  0  0  0  0  0  0
  140.3310  160.0710  132.9760 C   0  0  0  0  0  0  0  0  0  0  0  0
  143.9770  158.2320  133.9740 C   0  0  0  0  0  0  0  0  0  0  0  0
  145.2120  158.7870  133.6210 C   0  0  0  0  0  0  0  0  0  0  0  0
  146.3600  158.1450  133.3090 N   0  0  0  0  0  0  0  0  0  0  0  0
  146.5490  156.7210  133.2510 C   0  0  0  0  0  0  0  0  0  0  0  0
  147.1550  156.1220  132.1070 N   0  0  0  0  0  0  0  0  0  0  0  0
  146.1520  155.9920  134.1970 O   0  0  0  0  0  0  0  0  0  0  0  0
  148.4850  157.4960  131.0650 H   0  0  0  0  0  0  0  0  0  0  0  0
  147.1353  161.3555  132.9060 H   0  0  0  0  0  0  0  0  0  0  0  0
  144.4826  162.1215  133.6500 H   0  0  0  0  0  0  0  0  0  0  0  0
  142.2425  161.1875  134.3124 H   0  0  0  0  0  0  0  0  0  0  0  0
  141.6346  157.4746  134.7843 H   0  0  0  0  0  0  0  0  0  0  0  0
  141.1640  159.0684  135.4795 H   0  0  0  0  0  0  0  0  0  0  0  0
  140.0805  156.6674  133.2545 H   0  0  0  0  0  0  0  0  0  0  0  0
  138.4503  157.0415  131.4019 H   0  0  0  0  0  0  0  0  0  0  0  0
  140.8525  160.9293  133.4248 H   0  0  0  0  0  0  0  0  0  0  0  0
  143.8473  157.1418  134.0426 H   0  0  0  0  0  0  0  0  0  0  0  0
  148.1230  156.3790  131.8180 H   0  0  0  0  0  0  0  0  0  0  0  0
  1  2  1  0
  2  3  2  0
  2  4  1  0
  4  5  2  0
  5  6  1  0
  6  7  2  0
  7  8  1  0
  8  9  2  0
  9 10  1  0
 10 11  1  0
 11 12  2  0
 12 13  1  0
 13 14  2  0
 14 15  1  0
 14 16  1  0
 16 17  1  0
 16 18  2  0
  9 19  1  0
 19 20  2  0
 20 21  1  0
 21 22  1  0
 22 23  1  0
 22 24  2  0
 21  4  1  0
 20  6  1  0
 18 11  1  0
  1 25  1  0
  5 26  1  0
  7 27  1  0
  8 28  1  0
 10 29  1  0
 10 30  1  0
 12 31  1  0
 13 32  1  0
 18 33  1  0
 19 34  1  0
 23 35  1  0
M  CHG  2   1  -1  23  -1
M  END
>  <UniqueID>  (12) 
12

>  <SMILES>  (12) 
[NH-]C(=O)c1cc2ccc(Cc3ccc(F)c(F)c3)cc2n1C([NH-])=O

>  <Energy>  (12) 
75.25887120437352

>  <Genealogy>  (12) 
[NH-]C(=O)c1cc2ccc(Cc3ccc(F)c(F)c3)cc2n1C([NH-])=O (protonated)
[NH-]C(=O)c1cc2ccc(Cc3ccc(F)c(F)c3)cc2n1C([NH-])=O (3D coordinates assigned)
[NH-]C(=O)c1cc2ccc(Cc3ccc(F)c(F)c3)cc2n1C([NH-])=O (optimized conformer: 75.25887120437352 kcal/mol)

>  <smiles>  (12) 
NC(=O)c1cc2ccc(Cc3ccc(F)c(F)c3)cc2n1C(N)=O

>  <score_type>  (12) 
oracle

>  <origin>  (12) 
adg

>  <m_score__min__energy>  (12) 
-7.3899999999999997

>  <m_primary>  (12) 
energy

$$$$
12:0
     RDKit          3D

 32 33  0  0  0  0  0  0  0  0999 V2000
  139.1490  157.5060  133.6160 C   0  0  0  0  0  0  0  0  0  0  0  0
  139.4350  158.1310  134.8610 O   0  0  0  0  0  0  0  0  0  0  0  0
  140.6730  158.0060  135.4990 C   0  0  0  0  0  0  0  0  0  0  0  0
  140.8630  158.5010  136.6430 O   0  0  0  0  0  0  0  0  0  0  0  0
  141.7660  157.2310  134.8350 C   0  0  0  0  0  0  0  0  0  0  0  0
  142.8750  158.1590  134.4240 C   0  0  0  0  0  0  0  0  0  0  0  0
  142.6190  159.5430  134.2600 C   0  0  0  0  0  0  0  0  0  0  0  0
  143.6360  160.4130  133.8330 C   0  0  0  0  0  0  0  0  0  0  0  0
  144.8910  159.8710  133.5740 C   0  0  0  0  0  0  0  0  0  0  0  0
  146.0410  160.4800  133.1250 C   0  0  0  0  0  0  0  0  0  0  0  0
  146.9860  159.4590  133.0290 C   0  0  0  0  0  0  0  0  0  0  0  0
  148.4050  159.6800  132.6730 C   0  0  0  0  0  0  0  0  0  0  0  0
  149.4400  158.9190  133.2980 N   0  0  0  0  0  0  0  0  0  0  0  0
  148.7110  160.5210  131.7870 O   0  0  0  0  0  0  0  0  0  0  0  0
  146.4400  158.2660  133.4000 N   0  0  0  0  0  0  0  0  0  0  0  0
  147.0620  156.9700  133.3750 C   0  0  0  0  0  0  0  0  0  0  0  0
  146.7300  156.0330  132.3510 N   0  0  0  0  0  0  0  0  0  0  0  0
  147.8860  156.6450  134.2690 O   0  0  0  0  0  0  0  0  0  0  0  0
  145.1580  158.5350  133.7330 C   0  0  0  0  0  0  0  0  0  0  0  0
  144.1590  157.6430  134.1420 C   0  0  0  0  0  0  0  0  0  0  0  0
  138.6975  156.5193  133.7962 H   0  0  0  0  0  0  0  0  0  0  0  0
  138.4475  158.1314  133.0444 H   0  0  0  0  0  0  0  0  0  0  0  0
  140.0809  157.3839  133.0444 H   0  0  0  0  0  0  0  0  0  0  0  0
  142.1595  156.4810  135.5369 H   0  0  0  0  0  0  0  0  0  0  0  0
  141.3636  156.7301  133.9422 H   0  0  0  0  0  0  0  0  0  0  0  0
  141.6146  159.9399  134.4690 H   0  0  0  0  0  0  0  0  0  0  0  0
  143.4461  161.4892  133.7073 H   0  0  0  0  0  0  0  0  0  0  0  0
  146.1841  161.5454  132.8916 H   0  0  0  0  0  0  0  0  0  0  0  0
  149.2310  158.2520  134.0720 H   0  0  0  0  0  0  0  0  0  0  0  0
  150.4340  159.0540  133.0100 H   0  0  0  0  0  0  0  0  0  0  0  0
  146.2970  156.3490  131.4560 H   0  0  0  0  0  0  0  0  0  0  0  0
  144.3690  156.5678  134.2411 H   0  0  0  0  0  0  0  0  0  0  0  0
  1  2  1  0
  2  3  1  0
  3  4  2  0
  3  5  1  0
  5  6  1  0
  6  7  2  0
  7  8  1  0
  8  9  2  0
  9 10  1  0
 10 11  2  0
 11 12  1  0
 12 13  1  0
 12 14  2  0
 11 15  1  0
 15 16  1  0
 16 17  1  0
 16 18  2  0
 15 19  1  0
 19 20  2  0
 20  6  1  0
 19  9  1  0
  1 21  1  0
  1 22  1  0
  1 23  1  0
  5 24  1  0
  5 25  1  0
  7 26  1  0
  8 27  1  0
 10 28  1  0
 13 29  1  0
 13 30  1  0
 17 31  1  0
 20 32  1  0
M  CHG  1  17  -1
M  END
>  <UniqueID>  (13) 
13

>  <SMILES>  (13) 
COC(=O)Cc1ccc2cc(C(N)=O)n(C([NH-])=O)c2c1

>  <Energy>  (13) 
66.79170555032151

>  <Genealogy>  (13) 
COC(=O)Cc1ccc2cc(C(N)=O)n(C([NH-])=O)c2c1 (protonated)
COC(=O)Cc1ccc2cc(C(N)=O)n(C([NH-])=O)c2c1 (3D coordinates assigned)
COC(=O)Cc1ccc2cc(C(N)=O)n(C([NH-])=O)c2c1 (optimized conformer: 66.79170555032151 kcal/mol)

>  <smiles>  (13) 
COC(=O)Cc1ccc2cc(C(N)=O)n(C(N)=O)c2c1

>  <score_type>  (13) 
oracle

>  <origin>  (13) 
adg

>  <m_score__min__energy>  (13) 
-6.1799999999999997

>  <m_primary>  (13) 
energy

$$$$
13:0
     RDKit          3D

 36 38  0  0  0  0  0  0  0  0999 V2000
  146.8640  155.2470  132.6430 C   0  0  0  0  0  0  0  0  0  0  0  0
  145.9140  154.6040  133.6450 C   0  0  0  0  0  0  0  0  0  0  0  0
  144.9560  155.5530  134.1100 O   0  0  0  0  0  0  0  0  0  0  0  0
  144.1830  156.3500  133.2580 C   0  0  0  0  0  0  0  0  0  0  0  0
  143.6170  155.8440  132.2500 O   0  0  0  0  0  0  0  0  0  0  0  0
  144.0570  157.7550  133.5180 N   0  0  0  0  0  0  0  0  0  0  0  0
  142.9170  158.4670  133.7500 C   0  0  0  0  0  0  0  0  0  0  0  0
  141.5640  157.9030  133.9380 C   0  0  0  0  0  0  0  0  0  0  0  0
  141.0070  156.9990  132.9880 N   0  0  0  0  0  0  0  0  0  0  0  0
  140.9100  158.1860  134.9770 O   0  0  0  0  0  0  0  0  0  0  0  0
  143.2070  159.8240  133.8780 C   0  0  0  0  0  0  0  0  0  0  0  0
  144.5700  159.9230  133.7260 C   0  0  0  0  0  0  0  0  0  0  0  0
  145.3960  161.0420  133.7620 C   0  0  0  0  0  0  0  0  0  0  0  0
  146.7730  160.8520  133.5540 C   0  0  0  0  0  0  0  0  0  0  0  0
  147.2920  159.5580  133.2970 C   0  0  0  0  0  0  0  0  0  0  0  0
  148.7690  159.3620  133.1000 C   0  0  0  0  0  0  0  0  0  0  0  0
  149.1400  159.6770  131.6870 C   0  0  0  0  0  0  0  0  0  0  0  0
  149.5890  160.8720  131.2630 N   0  0  0  0  0  0  0  0  0  0  0  0
  149.8640  160.6940  129.9770 N   0  0  0  0  0  0  0  0  0  0  0  0
  149.6070  159.4420  129.6280 N   0  0  0  0  0  0  0  0  0  0  0  0
  149.1590  158.7870  130.6830 N   0  0  0  0  0  0  0  0  0  0  0  0
  146.4230  158.4440  133.2770 C   0  0  0  0  0  0  0  0  0  0  0  0
  145.0600  158.6610  133.5090 C   0  0  0  0  0  0  0  0  0  0  0  0
  147.6577  155.7842  133.1829 H   0  0  0  0  0  0  0  0  0  0  0  0
  147.3136  154.4668  132.0113 H   0  0  0  0  0  0  0  0  0  0  0  0
  146.3068  155.9544  132.0113 H   0  0  0  0  0  0  0  0  0  0  0  0
  145.3886  153.7682  133.1598 H   0  0  0  0  0  0  0  0  0  0  0  0
  146.4977  154.2401  134.5034 H   0  0  0  0  0  0  0  0  0  0  0  0
  141.5910  156.6000  132.2200 H   0  0  0  0  0  0  0  0  0  0  0  0
  142.4959  160.6429  134.0618 H   0  0  0  0  0  0  0  0  0  0  0  0
  144.9839  162.0449  133.9476 H   0  0  0  0  0  0  0  0  0  0  0  0
  147.4540  161.7150  133.5910 H   0  0  0  0  0  0  0  0  0  0  0  0
  149.3193  160.0298  133.7791 H   0  0  0  0  0  0  0  0  0  0  0  0
  149.0276  158.3152  133.3175 H   0  0  0  0  0  0  0  0  0  0  0  0
  148.8920  157.7780  130.7060 H   0  0  0  0  0  0  0  0  0  0  0  0
  146.8080  157.4318  133.0840 H   0  0  0  0  0  0  0  0  0  0  0  0
  1  2  1  0
  2  3  1  0
  3  4  1  0
  4  5  2  0
  4  6  1  0
  6  7  1  0
  7  8  1  0
  8  9  1  0
  8 10  2  0
  7 11  2  0
 11 12  1  0
 12 13  2  0
 13 14  1  0
 14 15  2  0
 15 16  1  0
 16 17  1  0
 17 18  2  0
 18 19  1  0
 19 20  1  0
 20 21  2  0
 15 22  1  0
 22 23  2  0
 23  6  1  0
 23 12  1  0
 21 17  1  0
  1 24  1  0
  1 25  1  0
  1 26  1  0
  2 27  1  0
  2 28  1  0
  9 29  1  0
 11 30  1  0
 13 31  1  0
 14 32  1  0
 16 33  1  0
 16 34  1  0
 21 35  1  0
 22 36  1  0
M  CHG  3   9  -1  19  -1  21   1
M  END
>  <UniqueID>  (14) 
14

>  <SMILES>  (14) 
CCOC(=O)n1c(C([NH-])=O)cc2ccc(Cc3n[n-]n[nH+]3)cc21

>  <Energy>  (14) 
110.6794604271775

>  <Genealogy>  (14) 
CCOC(=O)n1c(C([NH-])=O)cc2ccc(Cc3n[n-]n[nH+]3)cc21 (protonated)
CCOC(=O)n1c(C([NH-])=O)cc2ccc(Cc3n[n-]n[nH+]3)cc21 (3D coordinates assigned)
CCOC(=O)n1c(C([NH-])=O)cc2ccc(Cc3n[n-]n[nH+]3)cc21 (optimized conformer: 110.6794604271775 kcal/mol)

>  <smiles>  (14) 
CCOC(=O)n1c(C(N)=O)cc2ccc(Cc3nn[nH]n3)cc21

>  <score_type>  (14) 
oracle

>  <origin>  (14) 
adg

>  <m_score__min__energy>  (14) 
-7.6500000000000004

>  <m_primary>  (14) 
energy

$$$$
14:0
     RDKit          3D

 30 31  0  0  0  0  0  0  0  0999 V2000
  149.1740  160.6010  131.1940 C   0  0  0  0  0  0  0  0  0  0  0  0
  149.1830  159.5320  132.2910 C   0  0  0  0  0  0  0  0  0  0  0  0
  149.9870  158.3010  131.8560 C   0  0  0  0  0  0  0  0  0  0  0  0
  147.7720  159.1470  132.6930 C   0  0  0  0  0  0  0  0  0  0  0  0
  147.3620  157.7860  132.7070 C   0  0  0  0  0  0  0  0  0  0  0  0
  146.0590  157.4310  133.0910 C   0  0  0  0  0  0  0  0  0  0  0  0
  145.1830  158.4510  133.4470 C   0  0  0  0  0  0  0  0  0  0  0  0
  143.8800  158.3840  133.8820 C   0  0  0  0  0  0  0  0  0  0  0  0
  143.4970  159.7050  134.1060 C   0  0  0  0  0  0  0  0  0  0  0  0
  142.1290  160.0980  134.5010 C   0  0  0  0  0  0  0  0  0  0  0  0
  141.3560  160.9790  133.6910 N   0  0  0  0  0  0  0  0  0  0  0  0
  141.6160  159.6070  135.5430 O   0  0  0  0  0  0  0  0  0  0  0  0
  144.5260  160.5550  133.8290 N   0  0  0  0  0  0  0  0  0  0  0  0
  144.5650  161.9790  134.0210 C   0  0  0  0  0  0  0  0  0  0  0  0
  143.7580  162.7260  133.4080 O   0  0  0  0  0  0  0  0  0  0  0  0
  145.5130  162.5460  134.8640 O   0  0  0  0  0  0  0  0  0  0  0  0
  145.5500  159.7710  133.4240 C   0  0  0  0  0  0  0  0  0  0  0  0
  146.8490  160.1530  133.0640 C   0  0  0  0  0  0  0  0  0  0  0  0
  149.1656  161.5996  131.6552 H   0  0  0  0  0  0  0  0  0  0  0  0
  150.0731  160.4931  130.5695 H   0  0  0  0  0  0  0  0  0  0  0  0
  148.2769  160.4780  130.5695 H   0  0  0  0  0  0  0  0  0  0  0  0
  149.6777  159.9630  133.1739 H   0  0  0  0  0  0  0  0  0  0  0  0
  150.3402  157.7603  132.7465 H   0  0  0  0  0  0  0  0  0  0  0  0
  149.3469  157.6387  131.2547 H   0  0  0  0  0  0  0  0  0  0  0  0
  150.8508  158.6209  131.2547 H   0  0  0  0  0  0  0  0  0  0  0  0
  148.0745  157.0011  132.4133 H   0  0  0  0  0  0  0  0  0  0  0  0
  145.7407  156.3782  133.1097 H   0  0  0  0  0  0  0  0  0  0  0  0
  143.2698  157.4797  134.0231 H   0  0  0  0  0  0  0  0  0  0  0  0
  141.7540  161.8810  133.3480 H   0  0  0  0  0  0  0  0  0  0  0  0
  147.1449  161.2124  133.0697 H   0  0  0  0  0  0  0  0  0  0  0  0
  1  2  1  0
  2  3  1  0
  2  4  1  0
  4  5  2  0
  5  6  1  0
  6  7  2  0
  7  8  1  0
  8  9  2  0
  9 10  1  0
 10 11  1  0
 10 12  2  0
  9 13  1  0
 13 14  1  0
 14 15  2  0
 14 16  1  0
 13 17  1  0
 17 18  2  0
 18  4  1  0
 17  7  1  0
  1 19  1  0
  1 20  1  0
  1 21  1  0
  2 22  1  0
  3 23  1  0
  3 24  1  0
  3 25  1  0
  5 26  1  0
  6 27  1  0
  8 28  1  0
 11 29  1  0
 18 30  1  0
M  CHG  2  11  -1  16  -1
M  END
>  <UniqueID>  (15) 
15

>  <SMILES>  (15) 
CC(C)c1ccc2cc(C([NH-])=O)n(C(=O)[O-])c2c1

>  <Energy>  (15) 
66.66391096735171

>  <Genealogy>  (15) 
CC(C)c1ccc2cc(C([NH-])=O)n(C(=O)[O-])c2c1 (protonated)
CC(C)c1ccc2cc(C([NH-])=O)n(C(=O)[O-])c2c1 (3D coordinates assigned)
CC(C)c1ccc2cc(C([NH-])=O)n(C(=O)[O-])c2c1 (optimized conformer: 66.66391096735171 kcal/mol)

>  <smiles>  (15) 
CC(C)c1ccc2cc(C(N)=O)n(C(=O)O)c2c1

>  <score_type>  (15) 
oracle

>  <origin>  (15) 
adg

>  <m_score__min__energy>  (15) 
-6.5

>  <m_primary>  (15) 
energy

$$$$
15:0
     RDKit          3D

 35 37  0  0  0  0  0  0  0  0999 V2000
  143.3590  156.9680  134.6980 C   0  0  0  0  0  0  0  0  0  0  0  0
  143.7410  157.7830  133.5040 C   0  0  0  0  0  0  0  0  0  0  0  0
  142.9440  157.8640  132.5310 O   0  0  0  0  0  0  0  0  0  0  0  0
  145.0050  158.4630  133.4490 N   0  0  0  0  0  0  0  0  0  0  0  0
  145.2270  159.8080  133.4870 C   0  0  0  0  0  0  0  0  0  0  0  0
  144.2050  160.8500  133.7200 C   0  0  0  0  0  0  0  0  0  0  0  0
  142.8330  160.6170  133.4120 N   0  0  0  0  0  0  0  0  0  0  0  0
  144.5430  161.9520  134.2310 O   0  0  0  0  0  0  0  0  0  0  0  0
  146.5850  160.0810  133.3320 C   0  0  0  0  0  0  0  0  0  0  0  0
  147.1920  158.8540  133.1990 C   0  0  0  0  0  0  0  0  0  0  0  0
  148.5300  158.5350  132.9930 C   0  0  0  0  0  0  0  0  0  0  0  0
  148.8710  157.1790  132.8530 C   0  0  0  0  0  0  0  0  0  0  0  0
  147.8770  156.1670  132.9150 C   0  0  0  0  0  0  0  0  0  0  0  0
  148.2650  154.7440  132.7440 C   0  0  0  0  0  0  0  0  0  0  0  0
  147.3420  153.6990  132.9200 C   0  0  0  0  0  0  0  0  0  0  0  0
  147.7550  152.3770  132.7520 C   0  0  0  0  0  0  0  0  0  0  0  0
  149.0870  152.0880  132.4150 C   0  0  0  0  0  0  0  0  0  0  0  0
  149.5420  150.6940  132.2330 C   0  0  0  0  0  0  0  0  0  0  0  0
  148.8570  149.7330  132.6770 O   0  0  0  0  0  0  0  0  0  0  0  0
  150.7330  150.4220  131.5700 O   0  0  0  0  0  0  0  0  0  0  0  0
  149.9810  153.1590  132.2590 C   0  0  0  0  0  0  0  0  0  0  0  0
  149.5540  154.4380  132.4270 N   0  0  0  0  0  0  0  0  0  0  0  0
  146.5240  156.5380  133.1120 C   0  0  0  0  0  0  0  0  0  0  0  0
  146.2170  157.8940  133.2710 C   0  0  0  0  0  0  0  0  0  0  0  0
  143.6168  157.5180  135.6151 H   0  0  0  0  0  0  0  0  0  0  0  0
  142.2763  156.7744  134.6786 H   0  0  0  0  0  0  0  0  0  0  0  0
  143.9028  156.0120  134.6786 H   0  0  0  0  0  0  0  0  0  0  0  0
  142.5590  160.0000  132.6160 H   0  0  0  0  0  0  0  0  0  0  0  0
  147.0689  161.0688  133.3188 H   0  0  0  0  0  0  0  0  0  0  0  0
  149.2982  159.3206  132.9412 H   0  0  0  0  0  0  0  0  0  0  0  0
  149.9224  156.8977  132.6932 H   0  0  0  0  0  0  0  0  0  0  0  0
  146.2990  153.9223  133.1889 H   0  0  0  0  0  0  0  0  0  0  0  0
  147.0336  151.5572  132.8842 H   0  0  0  0  0  0  0  0  0  0  0  0
  151.0317  152.9620  131.9997 H   0  0  0  0  0  0  0  0  0  0  0  0
  145.7312  155.7759  133.1394 H   0  0  0  0  0  0  0  0  0  0  0  0
  1  2  1  0
  2  3  2  0
  2  4  1  0
  4  5  1  0
  5  6  1  0
  6  7  1  0
  6  8  2  0
  5  9  2  0
  9 10  1  0
 10 11  2  0
 11 12  1  0
 12 13  2  0
 13 14  1  0
 14 15  2  0
 15 16  1  0
 16 17  2  0
 17 18  1  0
 18 19  2  0
 18 20  1  0
 17 21  1  0
 21 22  2  0
 13 23  1  0
 23 24  2  0
 24  4  1  0
 24 10  1  0
 22 14  1  0
  1 25  1  0
  1 26  1  0
  1 27  1  0
  7 28  1  0
  9 29  1  0
 11 30  1  0
 12 31  1  0
 15 32  1  0
 16 33  1  0
 21 34  1  0
 23 35  1  0
M  CHG  2   7  -1  20  -1
M  END
>  <UniqueID>  (16) 
16

>  <SMILES>  (16) 
CC(=O)n1c(C([NH-])=O)cc2ccc(-c3ccc(C(=O)[O-])cn3)cc21

>  <Energy>  (16) 
81.69312395970262

>  <Genealogy>  (16) 
CC(=O)n1c(C([NH-])=O)cc2ccc(-c3ccc(C(=O)[O-])cn3)cc21 (protonated)
CC(=O)n1c(C([NH-])=O)cc2ccc(-c3ccc(C(=O)[O-])cn3)cc21 (3D coordinates assigned)
CC(=O)n1c(C([NH-])=O)cc2ccc(-c3ccc(C(=O)[O-])cn3)cc21 (optimized conformer: 81.69312395970262 kcal/mol)

>  <smiles>  (16) 
CC(=O)n1c(C(N)=O)cc2ccc(-c3ccc(C(=O)O)cn3)cc21

>  <score_type>  (16) 
oracle

>  <origin>  (16) 
adg

>  <m_score__min__energy>  (16) 
-7.7400000000000002

>  <m_primary>  (16) 
energy

$$$$
16:0
     RDKit          3D

 38 40  0  0  0  0  0  0  0  0999 V2000
  144.2100  155.1000  132.2720 C   0  0  0  0  0  0  0  0  0  0  0  0
  144.9720  154.8440  133.5670 C   0  0  0  0  0  0  0  0  0  0  0  0
  145.7180  155.9980  133.9480 O   0  0  0  0  0  0  0  0  0  0  0  0
  146.3730  156.8300  133.0320 C   0  0  0  0  0  0  0  0  0  0  0  0
  147.1040  156.3350  132.1320 O   0  0  0  0  0  0  0  0  0  0  0  0
  146.2340  158.2550  133.1400 N   0  0  0  0  0  0  0  0  0  0  0  0
  147.2220  159.1960  133.1290 C   0  0  0  0  0  0  0  0  0  0  0  0
  148.6500  158.9520  132.8400 C   0  0  0  0  0  0  0  0  0  0  0  0
  149.0640  158.3990  131.5930 N   0  0  0  0  0  0  0  0  0  0  0  0
  149.5230  159.2800  133.6880 O   0  0  0  0  0  0  0  0  0  0  0  0
  146.6900  160.4640  133.3500 C   0  0  0  0  0  0  0  0  0  0  0  0
  145.3350  160.2730  133.4860 C   0  0  0  0  0  0  0  0  0  0  0  0
  144.3210  161.1940  133.7350 C   0  0  0  0  0  0  0  0  0  0  0  0
  143.0080  160.7100  133.8590 C   0  0  0  0  0  0  0  0  0  0  0  0
  142.7320  159.3260  133.7340 C   0  0  0  0  0  0  0  0  0  0  0  0
  141.3510  158.8200  133.8970 C   0  0  0  0  0  0  0  0  0  0  0  0
  140.5740  158.5720  132.7530 C   0  0  0  0  0  0  0  0  0  0  0  0
  139.2720  158.0820  132.8730 C   0  0  0  0  0  0  0  0  0  0  0  0
  138.7290  157.8410  134.1350 C   0  0  0  0  0  0  0  0  0  0  0  0
  139.4820  158.0950  135.2830 C   0  0  0  0  0  0  0  0  0  0  0  0
  138.9340  157.8710  136.5040 F   0  0  0  0  0  0  0  0  0  0  0  0
  140.7920  158.5870  135.1750 C   0  0  0  0  0  0  0  0  0  0  0  0
  141.6780  158.9610  136.6530 Cl  0  0  0  0  0  0  0  0  0  0  0  0
  143.7890  158.4190  133.4940 C   0  0  0  0  0  0  0  0  0  0  0  0
  145.0850  158.9310  133.3560 C   0  0  0  0  0  0  0  0  0  0  0  0
  143.1914  155.4422  132.5074 H   0  0  0  0  0  0  0  0  0  0  0  0
  144.7304  155.8727  131.6870 H   0  0  0  0  0  0  0  0  0  0  0  0
  144.1583  154.1699  131.6870 H   0  0  0  0  0  0  0  0  0  0  0  0
  144.2560  154.5970  134.3647 H   0  0  0  0  0  0  0  0  0  0  0  0
  145.6691  154.0080  133.4084 H   0  0  0  0  0  0  0  0  0  0  0  0
  148.7540  157.4480  131.2970 H   0  0  0  0  0  0  0  0  0  0  0  0
  147.2377  161.4164  133.4043 H   0  0  0  0  0  0  0  0  0  0  0  0
  144.5411  162.2674  133.8317 H   0  0  0  0  0  0  0  0  0  0  0  0
  142.1852  161.4132  134.0553 H   0  0  0  0  0  0  0  0  0  0  0  0
  140.9946  158.7653  131.7551 H   0  0  0  0  0  0  0  0  0  0  0  0
  138.6737  157.8858  131.9710 H   0  0  0  0  0  0  0  0  0  0  0  0
  137.7049  157.4498  134.2260 H   0  0  0  0  0  0  0  0  0  0  0  0
  143.5984  157.3383  133.4176 H   0  0  0  0  0  0  0  0  0  0  0  0
  1  2  1  0
  2  3  1  0
  3  4  1  0
  4  5  2  0
  4  6  1  0
  6  7  1  0
  7  8  1  0
  8  9  1  0
  8 10  2  0
  7 11  2  0
 11 12  1  0
 12 13  2  0
 13 14  1  0
 14 15  2  0
 15 16  1  0
 16 17  2  0
 17 18  1  0
 18 19  2  0
 19 20  1  0
 20 21  1  0
 20 22  2  0
 22 23  1  0
 15 24  1  0
 24 25  2  0
 25  6  1  0
 25 12  1  0
 22 16  1  0
  1 26  1  0
  1 27  1  0
  1 28  1  0
  2 29  1  0
  2 30  1  0
  9 31  1  0
 11 32  1  0
 13 33  1  0
 14 34  1  0
 17 35  1  0
 18 36  1  0
 19 37  1  0
 24 38  1  0
M  CHG  1   9  -1
M  END
>  <UniqueID>  (17) 
17

>  <SMILES>  (17) 
CCOC(=O)n1c(C([NH-])=O)cc2ccc(-c3cccc(F)c3Cl)cc21

>  <Energy>  (17) 
83.74230129855773

>  <Genealogy>  (17) 
CCOC(=O)n1c(C([NH-])=O)cc2ccc(-c3cccc(F)c3Cl)cc21 (protonated)
CCOC(=O)n1c(C([NH-])=O)cc2ccc(-c3cccc(F)c3Cl)cc21 (3D coordinates assigned)
CCOC(=O)n1c(C([NH-])=O)cc2ccc(-c3cccc(F)c3Cl)cc21 (optimized conformer: 83.74230129855773 kcal/mol)

>  <smiles>  (17) 
CCOC(=O)n1c(C(N)=O)cc2ccc(-c3cccc(F)c3Cl)cc21

>  <score_type>  (17) 
oracle

>  <origin>  (17) 
adg

>  <m_score__min__energy>  (17) 
-7.54

>  <m_primary>  (17) 
energy

$$$$
17:0
     RDKit          3D

 44 46  0  0  0  0  0  0  0  0999 V2000
  149.5880  161.2780  130.3190 C   0  0  0  0  0  0  0  0  0  0  0  0
  149.3110  159.9880  131.0830 C   0  0  0  0  0  0  0  0  0  0  0  0
  147.9900  159.9960  131.6190 O   0  0  0  0  0  0  0  0  0  0  0  0
  147.7020  159.7730  132.9700 C   0  0  0  0  0  0  0  0  0  0  0  0
  148.5180  160.1340  133.8620 O   0  0  0  0  0  0  0  0  0  0  0  0
  146.4700  159.1350  133.3430 N   0  0  0  0  0  0  0  0  0  0  0  0
  145.2840  159.7360  133.6440 C   0  0  0  0  0  0  0  0  0  0  0  0
  145.0650  161.1870  133.8000 C   0  0  0  0  0  0  0  0  0  0  0  0
  146.1430  162.0690  134.1140 N   0  0  0  0  0  0  0  0  0  0  0  0
  143.8960  161.6490  133.7070 O   0  0  0  0  0  0  0  0  0  0  0  0
  144.2890  158.7830  133.8440 C   0  0  0  0  0  0  0  0  0  0  0  0
  144.9090  157.5670  133.6690 C   0  0  0  0  0  0  0  0  0  0  0  0
  144.3860  156.2810  133.7370 C   0  0  0  0  0  0  0  0  0  0  0  0
  145.2480  155.2040  133.4740 C   0  0  0  0  0  0  0  0  0  0  0  0
  146.6100  155.4270  133.1380 C   0  0  0  0  0  0  0  0  0  0  0  0
  147.5090  154.2820  132.8470 C   0  0  0  0  0  0  0  0  0  0  0  0
  147.0160  152.9680  132.8130 C   0  0  0  0  0  0  0  0  0  0  0  0
  147.8720  151.9010  132.5360 C   0  0  0  0  0  0  0  0  0  0  0  0
  149.2290  152.1500  132.2930 C   0  0  0  0  0  0  0  0  0  0  0  0
  150.1630  151.0500  131.9980 C   0  0  0  0  0  0  0  0  0  0  0  0
  151.0960  150.7890  132.8050 O   0  0  0  0  0  0  0  0  0  0  0  0
  150.0150  150.2990  130.8250 O   0  0  0  0  0  0  0  0  0  0  0  0
  151.1130  149.9660  129.9840 C   0  0  0  0  0  0  0  0  0  0  0  0
  149.6910  153.4300  132.3320 N   0  0  0  0  0  0  0  0  0  0  0  0
  148.8770  154.4850  132.5960 C   0  0  0  0  0  0  0  0  0  0  0  0
  147.1010  156.7530  133.0770 C   0  0  0  0  0  0  0  0  0  0  0  0
  146.2240  157.8060  133.3670 C   0  0  0  0  0  0  0  0  0  0  0  0
  149.7637  162.0963  131.0328 H   0  0  0  0  0  0  0  0  0  0  0  0
  150.4782  161.1456  129.6865 H   0  0  0  0  0  0  0  0  0  0  0  0
  148.7219  161.5227  129.6865 H   0  0  0  0  0  0  0  0  0  0  0  0
  149.4186  159.1329  130.3995 H   0  0  0  0  0  0  0  0  0  0  0  0
  150.0295  159.9055  131.9118 H   0  0  0  0  0  0  0  0  0  0  0  0
  145.9760  163.0980  134.1790 H   0  0  0  0  0  0  0  0  0  0  0  0
  147.0860  161.7010  134.3700 H   0  0  0  0  0  0  0  0  0  0  0  0
  143.2321  158.9636  134.0896 H   0  0  0  0  0  0  0  0  0  0  0  0
  143.3287  156.1120  133.9892 H   0  0  0  0  0  0  0  0  0  0  0  0
  144.8636  154.1748  133.5289 H   0  0  0  0  0  0  0  0  0  0  0  0
  145.9497  152.7784  133.0057 H   0  0  0  0  0  0  0  0  0  0  0  0
  147.4839  150.8721  132.5087 H   0  0  0  0  0  0  0  0  0  0  0  0
  151.9827  149.7022  130.6037 H   0  0  0  0  0  0  0  0  0  0  0  0
  150.8420  149.1097  129.3490 H   0  0  0  0  0  0  0  0  0  0  0  0
  151.3633  150.8286  129.3490 H   0  0  0  0  0  0  0  0  0  0  0  0
  149.2908  155.5040  132.6134 H   0  0  0  0  0  0  0  0  0  0  0  0
  148.1487  156.9524  132.8076 H   0  0  0  0  0  0  0  0  0  0  0  0
  1  2  1  0
  2  3  1  0
  3  4  1  0
  4  5  2  0
  4  6  1  0
  6  7  1  0
  7  8  1  0
  8  9  1  0
  8 10  2  0
  7 11  2  0
 11 12  1  0
 12 13  2  0
 13 14  1  0
 14 15  2  0
 15 16  1  0
 16 17  2  0
 17 18  1  0
 18 19  2  0
 19 20  1  0
 20 21  2  0
 20 22  1  0
 22 23  1  0
 19 24  1  0
 24 25  2  0
 15 26  1  0
 26 27  2  0
 27  6  1  0
 27 12  1  0
 25 16  1  0
  1 28  1  0
  1 29  1  0
  1 30  1  0
  2 31  1  0
  2 32  1  0
  9 33  1  0
  9 34  1  0
 11 35  1  0
 13 36  1  0
 14 37  1  0
 17 38  1  0
 18 39  1  0
 23 40  1  0
 23 41  1  0
 23 42  1  0
 25 43  1  0
 26 44  1  0
M  END
>  <UniqueID>  (18) 
18

>  <SMILES>  (18) 
CCOC(=O)n1c(C(N)=O)cc2ccc(-c3ccc(C(=O)OC)nc3)cc21

>  <Energy>  (18) 
84.90766189499945

>  <Genealogy>  (18) 
CCOC(=O)n1c(C(N)=O)cc2ccc(-c3ccc(C(=O)OC)nc3)cc21 (3D coordinates assigned)
CCOC(=O)n1c(C(N)=O)cc2ccc(-c3ccc(C(=O)OC)nc3)cc21 (optimized conformer: 84.90766189499945 kcal/mol)

>  <smiles>  (18) 
CCOC(=O)n1c(C(N)=O)cc2ccc(-c3ccc(C(=O)OC)nc3)cc21

>  <score_type>  (18) 
oracle

>  <origin>  (18) 
adg

>  <m_score__min__energy>  (18) 
-7.8300000000000001

>  <m_primary>  (18) 
energy

$$$$
18:0
     RDKit          3D

 56 59  0  0  0  0  0  0  0  0999 V2000
  142.8160  154.0590  136.5240 C   0  0  0  0  0  0  0  0  0  0  0  0
  142.7270  155.4130  135.8290 C   0  0  0  0  0  0  0  0  0  0  0  0
  142.5170  155.2460  134.4290 O   0  0  0  0  0  0  0  0  0  0  0  0
  141.6020  156.0050  133.6900 C   0  0  0  0  0  0  0  0  0  0  0  0
  140.7800  155.4380  132.9190 O   0  0  0  0  0  0  0  0  0  0  0  0
  141.6000  157.4370  133.8140 N   0  0  0  0  0  0  0  0  0  0  0  0
  140.5600  158.2290  134.2020 C   0  0  0  0  0  0  0  0  0  0  0  0
  139.1660  157.7870  134.4070 C   0  0  0  0  0  0  0  0  0  0  0  0
  138.5270  156.9050  133.4830 N   0  0  0  0  0  0  0  0  0  0  0  0
  138.5110  158.2390  135.3830 O   0  0  0  0  0  0  0  0  0  0  0  0
  140.9730  159.5500  134.3400 C   0  0  0  0  0  0  0  0  0  0  0  0
  142.3080  159.5500  134.0100 C   0  0  0  0  0  0  0  0  0  0  0  0
  143.2220  160.5980  133.9900 C   0  0  0  0  0  0  0  0  0  0  0  0
  144.5520  160.3060  133.6490 C   0  0  0  0  0  0  0  0  0  0  0  0
  144.9490  158.9780  133.3420 C   0  0  0  0  0  0  0  0  0  0  0  0
  146.3630  158.6790  132.9960 C   0  0  0  0  0  0  0  0  0  0  0  0
  147.1900  159.6780  132.4550 C   0  0  0  0  0  0  0  0  0  0  0  0
  148.5170  159.3940  132.1260 C   0  0  0  0  0  0  0  0  0  0  0  0
  149.0330  158.1130  132.3320 C   0  0  0  0  0  0  0  0  0  0  0  0
  148.2290  157.1010  132.8670 C   0  0  0  0  0  0  0  0  0  0  0  0
  148.8010  155.8310  133.0510 O   0  0  0  0  0  0  0  0  0  0  0  0
  148.1540  154.7040  133.6430 C   0  0  0  0  0  0  0  0  0  0  0  0
  147.3030  153.9610  132.6090 C   0  0  0  0  0  0  0  0  0  0  0  0
  146.2370  153.1940  133.2830 N   0  0  0  0  0  0  0  0  0  0  0  0
  145.1920  154.0840  133.8190 C   0  0  0  0  0  0  0  0  0  0  0  0
  144.1360  153.5490  132.8640 C   0  0  0  0  0  0  0  0  0  0  0  0
  143.6770  154.4990  131.9300 O   0  0  0  0  0  0  0  0  0  0  0  0
  145.2470  152.6540  132.3360 C   0  0  0  0  0  0  0  0  0  0  0  0
  146.8920  157.3920  133.2050 C   0  0  0  0  0  0  0  0  0  0  0  0
  143.9880  157.9400  133.3760 C   0  0  0  0  0  0  0  0  0  0  0  0
  142.6650  158.2640  133.6990 C   0  0  0  0  0  0  0  0  0  0  0  0
  142.8064  154.2051  137.6142 H   0  0  0  0  0  0  0  0  0  0  0  0
  141.9567  153.4386  136.2296 H   0  0  0  0  0  0  0  0  0  0  0  0
  143.7491  153.5564  136.2296 H   0  0  0  0  0  0  0  0  0  0  0  0
  141.8883  155.9834  136.2548 H   0  0  0  0  0  0  0  0  0  0  0  0
  143.6725  155.9535  135.9836 H   0  0  0  0  0  0  0  0  0  0  0  0
  137.5540  156.5700  133.6660 H   0  0  0  0  0  0  0  0  0  0  0  0
  138.9820  156.6450  132.5800 H   0  0  0  0  0  0  0  0  0  0  0  0
  140.3619  160.4113  134.6476 H   0  0  0  0  0  0  0  0  0  0  0  0
  142.9120  161.6248  134.2341 H   0  0  0  0  0  0  0  0  0  0  0  0
  145.2957  161.1160  133.6193 H   0  0  0  0  0  0  0  0  0  0  0  0
  146.7898  160.6892  132.2898 H   0  0  0  0  0  0  0  0  0  0  0  0
  149.1578  160.1818  131.7033 H   0  0  0  0  0  0  0  0  0  0  0  0
  150.0799  157.8980  132.0716 H   0  0  0  0  0  0  0  0  0  0  0  0
  148.9164  154.0189  134.0421 H   0  0  0  0  0  0  0  0  0  0  0  0
  147.4974  155.0584  134.4513 H   0  0  0  0  0  0  0  0  0  0  0  0
  146.8477  154.6895  131.9220 H   0  0  0  0  0  0  0  0  0  0  0  0
  147.9452  153.2663  132.0477 H   0  0  0  0  0  0  0  0  0  0  0  0
  144.9592  153.8971  134.8777 H   0  0  0  0  0  0  0  0  0  0  0  0
  145.3814  155.1672  133.8471 H   0  0  0  0  0  0  0  0  0  0  0  0
  143.1635  153.1617  133.2021 H   0  0  0  0  0  0  0  0  0  0  0  0
  142.8160  154.8770  132.2530 H   0  0  0  0  0  0  0  0  0  0  0  0
  145.0480  151.5812  132.4759 H   0  0  0  0  0  0  0  0  0  0  0  0
  145.4770  152.6735  131.2605 H   0  0  0  0  0  0  0  0  0  0  0  0
  146.2558  156.6052  133.6365 H   0  0  0  0  0  0  0  0  0  0  0  0
  144.2742  156.9014  133.1536 H   0  0  0  0  0  0  0  0  0  0  0  0
  1  2  1  0
  2  3  1  0
  3  4  1  0
  4  5  2  0
  4  6  1  0
  6  7  1  0
  7  8  1  0
  8  9  1  0
  8 10  2  0
  7 11  2  0
 11 12  1  0
 12 13  2  0
 13 14  1  0
 14 15  2  0
 15 16  1  0
 16 17  2  0
 17 18  1  0
 18 19  2  0
 19 20  1  0
 20 21  1  0
 21 22  1  0
 22 23  1  0
 23 24  1  0
 24 25  1  0
 25 26  1  0
 26 27  1  0
 26 28  1  0
 20 29  2  0
 15 30  1  0
 30 31  2  0
 31  6  1  0
 31 12  1  0
 29 16  1  0
 28 24  1  0
  1 32  1  0
  1 33  1  0
  1 34  1  0
  2 35  1  0
  2 36  1  0
  9 37  1  0
  9 38  1  0
 11 39  1  0
 13 40  1  0
 14 41  1  0
 17 42  1  0
 18 43  1  0
 19 44  1  0
 22 45  1  0
 22 46  1  0
 23 47  1  0
 23 48  1  0
 25 49  1  0
 25 50  1  0
 26 51  1  0
 27 52  1  0
 28 53  1  0
 28 54  1  0
 29 55  1  0
 30 56  1  0
M  END
>  <UniqueID>  (19) 
19

>  <SMILES>  (19) 
CCOC(=O)n1c(C(N)=O)cc2ccc(-c3cccc(OCCN4CC(O)C4)c3)cc21

>  <Energy>  (19) 
169.95785384724238

>  <Genealogy>  (19) 
CCOC(=O)n1c(C(N)=O)cc2ccc(-c3cccc(OCCN4CC(O)C4)c3)cc21 (3D coordinates assigned)
CCOC(=O)n1c(C(N)=O)cc2ccc(-c3cccc(OCCN4CC(O)C4)c3)cc21 (nonaromatic ring conformer: 169.95785384724238 kcal/mol)

>  <smiles>  (19) 
CCOC(=O)n1c(C(N)=O)cc2ccc(-c3cccc(OCCN4CC(O)C4)c3)cc21

>  <score_type>  (19) 
oracle

>  <origin>  (19) 
adg

>  <m_score__min__energy>  (19) 
-9.3800000000000008

>  <m_primary>  (19) 
energy

$$$$
19:0
     RDKit          3D

 46 48  0  0  0  0  0  0  0  0999 V2000
  139.6430  159.6780  130.7460 C   0  0  0  0  0  0  0  0  0  0  0  0
  139.9200  158.8530  131.9310 N   0  0  0  0  0  0  0  0  0  0  0  0
  140.3070  159.7070  133.0740 C   0  0  0  0  0  0  0  0  0  0  0  0
  140.2340  158.9460  134.4160 C   0  0  0  0  0  0  0  0  0  0  0  0
  140.2460  157.4830  134.2300 N   0  0  0  0  0  0  0  0  0  0  0  0
  141.5520  156.9810  133.7400 C   0  0  0  0  0  0  0  0  0  0  0  0
  142.6430  157.2240  134.7880 C   0  0  0  0  0  0  0  0  0  0  0  0
  143.7650  158.0530  134.2180 C   0  0  0  0  0  0  0  0  0  0  0  0
  143.5830  159.4380  133.9920 C   0  0  0  0  0  0  0  0  0  0  0  0
  144.6150  160.2130  133.4420 C   0  0  0  0  0  0  0  0  0  0  0  0
  145.8070  159.5750  133.1120 C   0  0  0  0  0  0  0  0  0  0  0  0
  146.9640  160.0930  132.5840 C   0  0  0  0  0  0  0  0  0  0  0  0
  147.8350  159.0140  132.4800 C   0  0  0  0  0  0  0  0  0  0  0  0
  149.2020  159.1360  131.9480 C   0  0  0  0  0  0  0  0  0  0  0  0
  150.1870  158.1430  132.2290 N   0  0  0  0  0  0  0  0  0  0  0  0
  149.5280  160.1720  131.3090 O   0  0  0  0  0  0  0  0  0  0  0  0
  147.2350  157.8590  132.8950 N   0  0  0  0  0  0  0  0  0  0  0  0
  147.7490  156.5160  132.7740 C   0  0  0  0  0  0  0  0  0  0  0  0
  147.0690  155.5480  131.9800 N   0  0  0  0  0  0  0  0  0  0  0  0
  148.8290  156.1920  133.3340 O   0  0  0  0  0  0  0  0  0  0  0  0
  145.9930  158.2280  133.2940 C   0  0  0  0  0  0  0  0  0  0  0  0
  144.9850  157.4360  133.8610 C   0  0  0  0  0  0  0  0  0  0  0  0
  139.1070  157.0310  133.3950 C   0  0  0  0  0  0  0  0  0  0  0  0
  138.7510  158.0250  132.2690 C   0  0  0  0  0  0  0  0  0  0  0  0
  139.3079  160.6762  131.0643 H   0  0  0  0  0  0  0  0  0  0  0  0
  140.5584  159.7734  130.1435 H   0  0  0  0  0  0  0  0  0  0  0  0
  138.8555  159.2017  130.1435 H   0  0  0  0  0  0  0  0  0  0  0  0
  141.3378  160.0592  132.9211 H   0  0  0  0  0  0  0  0  0  0  0  0
  139.6016  160.5496  133.1226 H   0  0  0  0  0  0  0  0  0  0  0  0
  141.0992  159.2315  135.0323 H   0  0  0  0  0  0  0  0  0  0  0  0
  139.2864  159.2157  134.9052 H   0  0  0  0  0  0  0  0  0  0  0  0
  141.4743  155.9020  133.5408 H   0  0  0  0  0  0  0  0  0  0  0  0
  141.8174  157.5169  132.8167 H   0  0  0  0  0  0  0  0  0  0  0  0
  142.2051  157.7536  135.6469 H   0  0  0  0  0  0  0  0  0  0  0  0
  143.0504  156.2515  135.1015 H   0  0  0  0  0  0  0  0  0  0  0  0
  142.6240  159.9111  134.2498 H   0  0  0  0  0  0  0  0  0  0  0  0
  144.4859  161.2928  133.2765 H   0  0  0  0  0  0  0  0  0  0  0  0
  147.1600  161.1384  132.3032 H   0  0  0  0  0  0  0  0  0  0  0  0
  149.9760  157.3520  132.8770 H   0  0  0  0  0  0  0  0  0  0  0  0
  151.1500  158.2300  131.8330 H   0  0  0  0  0  0  0  0  0  0  0  0
  147.5970  154.8440  131.4190 H   0  0  0  0  0  0  0  0  0  0  0  0
  145.1401  156.3593  134.0242 H   0  0  0  0  0  0  0  0  0  0  0  0
  139.3685  156.0646  132.9394 H   0  0  0  0  0  0  0  0  0  0  0  0
  138.2288  156.9515  134.0527 H   0  0  0  0  0  0  0  0  0  0  0  0
  138.4330  157.4648  131.3774 H   0  0  0  0  0  0  0  0  0  0  0  0
  137.9363  158.6791  132.6131 H   0  0  0  0  0  0  0  0  0  0  0  0
  1  2  1  0
  2  3  1  0
  3  4  1  0
  4  5  1  0
  5  6  1  0
  6  7  1  0
  7  8  1  0
  8  9  2  0
  9 10  1  0
 10 11  2  0
 11 12  1  0
 12 13  2  0
 13 14  1  0
 14 15  1  0
 14 16  2  0
 13 17  1  0
 17 18  1  0
 18 19  1  0
 18 20  2  0
 17 21  1  0
 21 22  2  0
  5 23  1  0
 23 24  1  0
 24  2  1  0
 22  8  1  0
 21 11  1  0
  1 25  1  0
  1 26  1  0
  1 27  1  0
  3 28  1  0
  3 29  1  0
  4 30  1  0
  4 31  1  0
  6 32  1  0
  6 33  1  0
  7 34  1  0
  7 35  1  0
  9 36  1  0
 10 37  1  0
 12 38  1  0
 15 39  1  0
 15 40  1  0
 19 41  1  0
 22 42  1  0
 23 43  1  0
 23 44  1  0
 24 45  1  0
 24 46  1  0
M  CHG  1  19  -1
M  END
>  <UniqueID>  (20) 
20

>  <SMILES>  (20) 
CN1CCN(CCc2ccc3cc(C(N)=O)n(C([NH-])=O)c3c2)CC1

>  <Energy>  (20) 
97.48296890515329

>  <Genealogy>  (20) 
CN1CCN(CCc2ccc3cc(C(N)=O)n(C([NH-])=O)c3c2)CC1 (protonated)
CN1CCN(CCc2ccc3cc(C(N)=O)n(C([NH-])=O)c3c2)CC1 (3D coordinates assigned)
CN1CCN(CCc2ccc3cc(C(N)=O)n(C([NH-])=O)c3c2)CC1 (nonaromatic ring conformer: 97.48296890515329 kcal/mol)

>  <smiles>  (20) 
CN1CCN(CCc2ccc3cc(C(N)=O)n(C(N)=O)c3c2)CC1

>  <score_type>  (20) 
oracle

>  <origin>  (20) 
adg

>  <m_score__min__energy>  (20) 
-8

>  <m_primary>  (20) 
energy

$$$$
20:0
     RDKit          3D

 45 46  0  0  0  0  0  0  0  0999 V2000
  149.3214  158.6945  130.6056 H   0  0  0  0  0  0  0  0  0  0  0  0
  149.0610  159.7600  130.6890 C   0  0  0  0  0  0  0  0  0  0  0  0
  149.8360  160.6540  130.0610 C   0  0  0  0  0  0  0  0  0  0  0  0
  150.6979  160.2808  129.4885 H   0  0  0  0  0  0  0  0  0  0  0  0
  149.5970  162.1340  130.0930 C   0  0  0  0  0  0  0  0  0  0  0  0
  149.5421  162.4740  131.1377 H   0  0  0  0  0  0  0  0  0  0  0  0
  150.4235  162.6500  129.5824 H   0  0  0  0  0  0  0  0  0  0  0  0
  148.6501  162.3636  129.5824 H   0  0  0  0  0  0  0  0  0  0  0  0
  147.8700  160.1320  131.4910 C   0  0  0  0  0  0  0  0  0  0  0  0
  147.1727  160.8723  131.0717 H   0  0  0  0  0  0  0  0  0  0  0  0
  147.5940  159.6150  132.7030 C   0  0  0  0  0  0  0  0  0  0  0  0
  148.4930  158.5970  133.3600 C   0  0  0  0  0  0  0  0  0  0  0  0
  148.4125  158.6881  134.4533 H   0  0  0  0  0  0  0  0  0  0  0  0
  148.1877  157.5858  133.0529 H   0  0  0  0  0  0  0  0  0  0  0  0
  149.5342  158.7748  133.0529 H   0  0  0  0  0  0  0  0  0  0  0  0
  146.3310  160.0510  133.4080 C   0  0  0  0  0  0  0  0  0  0  0  0
  146.4104  159.8085  134.4780 H   0  0  0  0  0  0  0  0  0  0  0  0
  146.2035  161.1356  133.2762 H   0  0  0  0  0  0  0  0  0  0  0  0
  145.2000  159.3800  132.8560 O   0  0  0  0  0  0  0  0  0  0  0  0
  143.9030  159.5260  133.3610 C   0  0  0  0  0  0  0  0  0  0  0  0
  143.5390  160.6190  133.8740 O   0  0  0  0  0  0  0  0  0  0  0  0
  142.9890  158.4200  133.3130 N   0  0  0  0  0  0  0  0  0  0  0  0
  143.2320  157.1290  133.6730 C   0  0  0  0  0  0  0  0  0  0  0  0
  144.5500  156.5690  134.0380 C   0  0  0  0  0  0  0  0  0  0  0  0
  144.6420  155.8040  135.0360 O   0  0  0  0  0  0  0  0  0  0  0  0
  145.7100  156.8300  133.2460 N   0  0  0  0  0  0  0  0  0  0  0  0
  146.6420  156.4670  133.5470 H   0  0  0  0  0  0  0  0  0  0  0  0
  145.6370  157.3110  132.3220 H   0  0  0  0  0  0  0  0  0  0  0  0
  142.0690  156.3680  133.5910 C   0  0  0  0  0  0  0  0  0  0  0  0
  141.9512  155.3007  133.8299 H   0  0  0  0  0  0  0  0  0  0  0  0
  141.0980  157.2370  133.1470 C   0  0  0  0  0  0  0  0  0  0  0  0
  139.7470  157.0170  132.8990 C   0  0  0  0  0  0  0  0  0  0  0  0
  139.3015  156.0199  133.0309 H   0  0  0  0  0  0  0  0  0  0  0  0
  138.9690  158.1070  132.4750 C   0  0  0  0  0  0  0  0  0  0  0  0
  137.8972  157.9652  132.2722 H   0  0  0  0  0  0  0  0  0  0  0  0
  139.5520  159.3880  132.3060 C   0  0  0  0  0  0  0  0  0  0  0  0
  138.7010  160.5540  131.8870 C   0  0  0  0  0  0  0  0  0  0  0  0
  138.0202  160.8208  132.7088 H   0  0  0  0  0  0  0  0  0  0  0  0
  139.3533  161.4069  131.6478 H   0  0  0  0  0  0  0  0  0  0  0  0
  137.8990  160.1990  130.6770 C   0  0  0  0  0  0  0  0  0  0  0  0
  138.4010  160.3170  129.5290 O   0  0  0  0  0  0  0  0  0  0  0  0
  136.5780  159.7880  130.8130 O   0  0  0  0  0  0  0  0  0  0  0  0
  140.9230  159.5770  132.5840 C   0  0  0  0  0  0  0  0  0  0  0  0
  141.3860  160.5701  132.4872 H   0  0  0  0  0  0  0  0  0  0  0  0
  141.6790  158.4690  132.9860 C   0  0  0  0  0  0  0  0  0  0  0  0
  1  2  1  0
  2  3  2  0
  3  4  1  0
  3  5  1  0
  5  6  1  0
  5  7  1  0
  5  8  1  0
  2  9  1  0
  9 10  1  0
  9 11  2  0
 11 12  1  0
 12 13  1  0
 12 14  1  0
 12 15  1  0
 11 16  1  0
 16 17  1  0
 16 18  1  0
 16 19  1  0
 19 20  1  0
 20 21  2  0
 20 22  1  0
 22 23  1  0
 23 24  1  0
 24 25  2  0
 24 26  1  0
 26 27  1  0
 26 28  1  0
 23 29  2  0
 29 30  1  0
 29 31  1  0
 31 32  2  0
 32 33  1  0
 32 34  1  0
 34 35  1  0
 34 36  2  0
 36 37  1  0
 37 38  1  0
 37 39  1  0
 37 40  1  0
 40 41  2  0
 40 42  1  0
 36 43  1  0
 43 44  1  0
 43 45  2  0
 45 22  1  0
 45 31  1  0
M  CHG  1  42  -1
M  END
>  <UniqueID>  (21) 
21

>  <SMILES>  (21) 
C/C=C\C=C(/C)COC(=O)n1c(C(N)=O)cc2ccc(CC(=O)[O-])cc21

>  <Energy>  (21) 
75.46785185570438

>  <Genealogy>  (21) 
C/C=C\C=C(/C)COC(=O)n1c(C(N)=O)cc2ccc(CC(=O)[O-])cc21 (protonated)
C/C=C\C=C(/C)COC(=O)n1c(C(N)=O)cc2ccc(CC(=O)[O-])cc21 (cis-trans isomerization)
C/C=C\C=C(/C)COC(=O)n1c(C(N)=O)cc2ccc(CC(=O)[O-])cc21 (3D coordinates assigned)
C/C=C\C=C(/C)COC(=O)n1c(C(N)=O)cc2ccc(CC(=O)[O-])cc21 (optimized conformer: 75.46785185570438 kcal/mol)

>  <smiles>  (21) 
C/C=C\C=C(/C)COC(=O)n1c(C(N)=O)cc2ccc(CC(=O)O)cc21

>  <score_type>  (21) 
oracle

>  <origin>  (21) 
adg

>  <m_score__min__energy>  (21) 
-8.7699999999999996

>  <m_primary>  (21) 
energy

$$$$
21:0
     RDKit          3D

 32 33  0  0  0  0  0  0  0  0999 V2000
  149.5600  161.7180  130.3350 C   0  0  0  0  0  0  0  0  0  0  0  0
  149.5900  160.1960  130.2630 C   0  0  0  0  0  0  0  0  0  0  0  0
  148.6160  159.6200  131.1880 N   0  0  0  0  0  0  0  0  0  0  0  0
  148.8740  158.4240  131.9360 C   0  0  0  0  0  0  0  0  0  0  0  0
  150.0160  157.8900  131.9070 O   0  0  0  0  0  0  0  0  0  0  0  0
  147.8260  157.8240  132.7130 N   0  0  0  0  0  0  0  0  0  0  0  0
  146.7870  158.4460  133.3370 C   0  0  0  0  0  0  0  0  0  0  0  0
  146.4400  159.8790  133.2270 C   0  0  0  0  0  0  0  0  0  0  0  0
  145.0970  160.2950  133.0000 N   0  0  0  0  0  0  0  0  0  0  0  0
  147.3380  160.7510  133.3740 O   0  0  0  0  0  0  0  0  0  0  0  0
  146.0310  157.5240  134.0580 C   0  0  0  0  0  0  0  0  0  0  0  0
  146.6450  156.3080  133.8540 C   0  0  0  0  0  0  0  0  0  0  0  0
  146.3200  155.0460  134.3400 C   0  0  0  0  0  0  0  0  0  0  0  0
  147.1490  153.9690  133.9860 C   0  0  0  0  0  0  0  0  0  0  0  0
  148.3000  154.1740  133.1800 C   0  0  0  0  0  0  0  0  0  0  0  0
  149.1620  153.0040  132.7780 C   0  0  0  0  0  0  0  0  0  0  0  0
  150.3410  153.4760  132.2300 F   0  0  0  0  0  0  0  0  0  0  0  0
  148.5130  152.2170  131.8430 F   0  0  0  0  0  0  0  0  0  0  0  0
  149.4590  152.2150  133.8760 F   0  0  0  0  0  0  0  0  0  0  0  0
  148.5840  155.4690  132.6880 C   0  0  0  0  0  0  0  0  0  0  0  0
  147.7280  156.5180  133.0410 C   0  0  0  0  0  0  0  0  0  0  0  0
  149.5537  162.0352  131.3883 H   0  0  0  0  0  0  0  0  0  0  0  0
  150.4503  162.1264  129.8344 H   0  0  0  0  0  0  0  0  0  0  0  0
  148.6543  162.0910  129.8344 H   0  0  0  0  0  0  0  0  0  0  0  0
  149.3483  159.8773  129.2383 H   0  0  0  0  0  0  0  0  0  0  0  0
  150.5950  159.8466  130.5420 H   0  0  0  0  0  0  0  0  0  0  0  0
  147.7170  160.1270  131.3440 H   0  0  0  0  0  0  0  0  0  0  0  0
  144.8860  161.2390  132.6060 H   0  0  0  0  0  0  0  0  0  0  0  0
  145.1339  157.7247  134.6621 H   0  0  0  0  0  0  0  0  0  0  0  0
  145.4399  154.8959  134.9825 H   0  0  0  0  0  0  0  0  0  0  0  0
  146.9040  152.9557  134.3369 H   0  0  0  0  0  0  0  0  0  0  0  0
  149.4571  155.6474  132.0431 H   0  0  0  0  0  0  0  0  0  0  0  0
  1  2  1  0
  2  3  1  0
  3  4  1  0
  4  5  2  0
  4  6  1  0
  6  7  1  0
  7  8  1  0
  8  9  1  0
  8 10  2  0
  7 11  2  0
 11 12  1  0
 12 13  2  0
 13 14  1  0
 14 15  2  0
 15 16  1  0
 16 17  1  0
 16 18  1  0
 16 19  1  0
 15 20  1  0
 20 21  2  0
 21  6  1  0
 21 12  1  0
  1 22  1  0
  1 23  1  0
  1 24  1  0
  2 25  1  0
  2 26  1  0
  3 27  1  0
  9 28  1  0
 11 29  1  0
 13 30  1  0
 14 31  1  0
 20 32  1  0
M  CHG  1   9  -1
M  END
>  <UniqueID>  (22) 
22

>  <SMILES>  (22) 
CCNC(=O)n1c(C([NH-])=O)cc2ccc(C(F)(F)F)cc21

>  <Energy>  (22) 
67.07219995055051

>  <Genealogy>  (22) 
CCNC(=O)n1c(C([NH-])=O)cc2ccc(C(F)(F)F)cc21 (protonated)
CCNC(=O)n1c(C([NH-])=O)cc2ccc(C(F)(F)F)cc21 (3D coordinates assigned)
CCNC(=O)n1c(C([NH-])=O)cc2ccc(C(F)(F)F)cc21 (optimized conformer: 67.07219995055051 kcal/mol)

>  <smiles>  (22) 
CCNC(=O)n1c(C(N)=O)cc2ccc(C(F)(F)F)cc21

>  <score_type>  (22) 
oracle

>  <origin>  (22) 
adg

>  <m_score__min__energy>  (22) 
-6.21

>  <m_primary>  (22) 
energy

$$$$
22:0
     RDKit          3D

 42 44  0  0  0  0  0  0  0  0999 V2000
  140.6240  158.1130  132.9790 C   0  0  0  0  0  0  0  0  0  0  0  0
  140.1100  156.7380  133.2630 C   0  0  0  0  0  0  0  0  0  0  0  0
  139.1040  156.3140  132.6350 O   0  0  0  0  0  0  0  0  0  0  0  0
  140.7400  155.9040  134.2490 N   0  0  0  0  0  0  0  0  0  0  0  0
  141.1520  156.2600  135.4980 C   0  0  0  0  0  0  0  0  0  0  0  0
  140.9260  157.5690  136.1480 C   0  0  0  0  0  0  0  0  0  0  0  0
  139.6160  158.1180  136.2590 N   0  0  0  0  0  0  0  0  0  0  0  0
  141.9000  158.1970  136.6410 O   0  0  0  0  0  0  0  0  0  0  0  0
  141.7750  155.1850  136.1300 C   0  0  0  0  0  0  0  0  0  0  0  0
  141.7300  154.1510  135.2230 C   0  0  0  0  0  0  0  0  0  0  0  0
  142.2080  152.8480  135.3250 C   0  0  0  0  0  0  0  0  0  0  0  0
  142.0400  151.9980  134.2190 C   0  0  0  0  0  0  0  0  0  0  0  0
  141.4120  152.4630  133.0340 C   0  0  0  0  0  0  0  0  0  0  0  0
  141.2360  151.5750  131.9080 N   0  0  0  0  0  0  0  0  0  0  0  0
  141.1380  150.1570  132.3290 C   0  0  0  0  0  0  0  0  0  0  0  0
  141.6930  149.2100  131.2270 C   0  0  0  0  0  0  0  0  0  0  0  0
  140.5930  148.4360  130.4760 C   0  0  0  0  0  0  0  0  0  0  0  0
  139.4150  149.2770  130.2380 N   0  0  0  0  0  0  0  0  0  0  0  0
  138.7530  149.7030  131.4880 C   0  0  0  0  0  0  0  0  0  0  0  0
  139.6940  149.7520  132.7110 C   0  0  0  0  0  0  0  0  0  0  0  0
  140.9490  153.7980  132.9690 C   0  0  0  0  0  0  0  0  0  0  0  0
  141.1060  154.6130  134.0940 C   0  0  0  0  0  0  0  0  0  0  0  0
  140.8190  158.6347  133.9276 H   0  0  0  0  0  0  0  0  0  0  0  0
  141.5568  158.0435  132.4003 H   0  0  0  0  0  0  0  0  0  0  0  0
  139.8743  158.6724  132.4003 H   0  0  0  0  0  0  0  0  0  0  0  0
  139.4480  159.0080  136.7790 H   0  0  0  0  0  0  0  0  0  0  0  0
  142.2104  155.1670  137.1400 H   0  0  0  0  0  0  0  0  0  0  0  0
  142.7016  152.4948  136.2424 H   0  0  0  0  0  0  0  0  0  0  0  0
  142.3994  150.9597  134.2720 H   0  0  0  0  0  0  0  0  0  0  0  0
  140.3950  151.8540  131.3540 H   0  0  0  0  0  0  0  0  0  0  0  0
  142.0660  151.6930  131.2800 H   0  0  0  0  0  0  0  0  0  0  0  0
  141.7563  150.0528  133.2328 H   0  0  0  0  0  0  0  0  0  0  0  0
  142.2542  149.8136  130.4985 H   0  0  0  0  0  0  0  0  0  0  0  0
  142.3297  148.4660  131.7281 H   0  0  0  0  0  0  0  0  0  0  0  0
  140.9914  148.0959  129.5087 H   0  0  0  0  0  0  0  0  0  0  0  0
  140.2878  147.5795  131.0951 H   0  0  0  0  0  0  0  0  0  0  0  0
  139.7090  150.1210  129.6930 H   0  0  0  0  0  0  0  0  0  0  0  0
  138.3347  150.7085  131.3327 H   0  0  0  0  0  0  0  0  0  0  0  0
  137.9800  148.9528  131.7107 H   0  0  0  0  0  0  0  0  0  0  0  0
  139.3002  150.4850  133.4305 H   0  0  0  0  0  0  0  0  0  0  0  0
  139.7328  148.7419  133.1448 H   0  0  0  0  0  0  0  0  0  0  0  0
  140.4764  154.1859  132.0546 H   0  0  0  0  0  0  0  0  0  0  0  0
  1  2  1  0
  2  3  2  0
  2  4  1  0
  4  5  1  0
  5  6  1  0
  6  7  1  0
  6  8  2  0
  5  9  2  0
  9 10  1  0
 10 11  2  0
 11 12  1  0
 12 13  2  0
 13 14  1  0
 14 15  1  0
 15 16  1  0
 16 17  1  0
 17 18  1  0
 18 19  1  0
 19 20  1  0
 13 21  1  0
 21 22  2  0
 22  4  1  0
 22 10  1  0
 20 15  1  0
  1 23  1  0
  1 24  1  0
  1 25  1  0
  7 26  1  0
  9 27  1  0
 11 28  1  0
 12 29  1  0
 14 30  1  0
 14 31  1  0
 15 32  1  0
 16 33  1  0
 16 34  1  0
 17 35  1  0
 17 36  1  0
 18 37  1  0
 19 38  1  0
 19 39  1  0
 20 40  1  0
 20 41  1  0
 21 42  1  0
M  CHG  2   7  -1  14   1
M  END
>  <UniqueID>  (23) 
23

>  <SMILES>  (23) 
CC(=O)n1c(C([NH-])=O)cc2ccc([NH2+]C3CCNCC3)cc21

>  <Energy>  (23) 
89.93906840399455

>  <Genealogy>  (23) 
CC(=O)n1c(C([NH-])=O)cc2ccc([NH2+]C3CCNCC3)cc21 (protonated)
CC(=O)n1c(C([NH-])=O)cc2ccc([NH2+]C3CCNCC3)cc21 (3D coordinates assigned)
CC(=O)n1c(C([NH-])=O)cc2ccc([NH2+]C3CCNCC3)cc21 (nonaromatic ring conformer: 89.93906840399455 kcal/mol)

>  <smiles>  (23) 
CC(=O)n1c(C(N)=O)cc2ccc(NC3CCNCC3)cc21

>  <score_type>  (23) 
oracle

>  <origin>  (23) 
adg

>  <m_score__min__energy>  (23) 
-7.6600000000000001

>  <m_primary>  (23) 
energy

$$$$
23:0
     RDKit          3D

 50 52  0  0  0  0  0  0  0  0999 V2000
  146.2450  160.0680  133.2060 C   0  0  0  0  0  0  0  0  0  0  0  0
  146.0460  158.5630  133.1280 C   0  0  0  0  0  0  0  0  0  0  0  0
  144.6770  158.2780  132.8580 O   0  0  0  0  0  0  0  0  0  0  0  0
  143.8730  157.5400  133.7310 C   0  0  0  0  0  0  0  0  0  0  0  0
  144.3990  156.8170  134.6220 O   0  0  0  0  0  0  0  0  0  0  0  0
  142.4440  157.5900  133.5970 N   0  0  0  0  0  0  0  0  0  0  0  0
  141.6560  158.6990  133.5160 C   0  0  0  0  0  0  0  0  0  0  0  0
  142.0960  160.0950  133.7230 C   0  0  0  0  0  0  0  0  0  0  0  0
  143.3270  160.3860  134.3800 N   0  0  0  0  0  0  0  0  0  0  0  0
  141.3520  161.0450  133.3590 O   0  0  0  0  0  0  0  0  0  0  0  0
  140.3310  158.3410  133.2850 C   0  0  0  0  0  0  0  0  0  0  0  0
  140.3290  156.9660  133.2350 C   0  0  0  0  0  0  0  0  0  0  0  0
  139.2790  156.0820  133.0180 C   0  0  0  0  0  0  0  0  0  0  0  0
  139.5690  154.7080  132.9870 C   0  0  0  0  0  0  0  0  0  0  0  0
  140.8980  154.2340  133.1630 C   0  0  0  0  0  0  0  0  0  0  0  0
  141.1870  152.8150  133.1200 N   0  0  0  0  0  0  0  0  0  0  0  0
  142.4410  152.2340  133.5820 C   0  0  0  0  0  0  0  0  0  0  0  0
  142.3650  150.7380  133.2960 C   0  0  0  0  0  0  0  0  0  0  0  0
  140.9410  150.4610  132.7910 C   0  0  2  0  0  0  0  0  0  0  0  0
  140.9020  149.6040  131.5400 C   0  0  0  0  0  0  0  0  0  0  0  0
  141.9920  149.1500  131.0980 O   0  0  0  0  0  0  0  0  0  0  0  0
  139.6820  149.3260  130.8170 N   0  0  0  0  0  0  0  0  0  0  0  0
  139.7420  149.2640  129.3540 C   0  0  0  0  0  0  0  0  0  0  0  0
  138.4340  149.0020  131.5170 C   0  0  0  0  0  0  0  0  0  0  0  0
  140.2530  151.8170  132.6200 C   0  0  0  0  0  0  0  0  0  0  0  0
  141.9380  155.1750  133.3790 C   0  0  0  0  0  0  0  0  0  0  0  0
  141.6150  156.5360  133.4250 C   0  0  0  0  0  0  0  0  0  0  0  0
  146.2860  160.3783  134.2605 H   0  0  0  0  0  0  0  0  0  0  0  0
  147.1869  160.3397  132.7069 H   0  0  0  0  0  0  0  0  0  0  0  0
  145.4061  160.5751  132.7069 H   0  0  0  0  0  0  0  0  0  0  0  0
  146.6719  158.1518  132.3223 H   0  0  0  0  0  0  0  0  0  0  0  0
  146.3336  158.1052  134.0860 H   0  0  0  0  0  0  0  0  0  0  0  0
  144.1020  159.6870  134.4030 H   0  0  0  0  0  0  0  0  0  0  0  0
  139.4689  159.0141  133.1674 H   0  0  0  0  0  0  0  0  0  0  0  0
  138.2514  156.4474  132.8748 H   0  0  0  0  0  0  0  0  0  0  0  0
  138.7546  153.9868  132.8239 H   0  0  0  0  0  0  0  0  0  0  0  0
  143.2877  152.6806  133.0401 H   0  0  0  0  0  0  0  0  0  0  0  0
  142.5923  152.4236  134.6549 H   0  0  0  0  0  0  0  0  0  0  0  0
  143.1013  150.4604  132.5273 H   0  0  0  0  0  0  0  0  0  0  0  0
  142.5882  150.1493  134.1980 H   0  0  0  0  0  0  0  0  0  0  0  0
  140.3939  149.8535  133.5270 H   0  0  0  0  0  0  0  0  0  0  0  0
  140.4770  148.5045  129.0490 H   0  0  0  0  0  0  0  0  0  0  0  0
  138.7516  148.9959  128.9574 H   0  0  0  0  0  0  0  0  0  0  0  0
  140.0424  150.2451  128.9574 H   0  0  0  0  0  0  0  0  0  0  0  0
  138.6010  149.0454  132.6034 H   0  0  0  0  0  0  0  0  0  0  0  0
  137.6569  149.7282  131.2362 H   0  0  0  0  0  0  0  0  0  0  0  0
  138.1083  147.9895  131.2362 H   0  0  0  0  0  0  0  0  0  0  0  0
  140.0317  152.0006  131.5582 H   0  0  0  0  0  0  0  0  0  0  0  0
  139.2990  151.8530  133.1665 H   0  0  0  0  0  0  0  0  0  0  0  0
  142.9782  154.8411  133.5078 H   0  0  0  0  0  0  0  0  0  0  0  0
  1  2  1  0
  2  3  1  0
  3  4  1  0
  4  5  2  0
  4  6  1  0
  6  7  1  0
  7  8  1  0
  8  9  1  0
  8 10  2  0
  7 11  2  0
 11 12  1  0
 12 13  2  0
 13 14  1  0
 14 15  2  0
 15 16  1  0
 16 17  1  0
 17 18  1  0
 18 19  1  0
 19 20  1  0
 20 21  2  0
 20 22  1  0
 22 23  1  0
 22 24  1  0
 19 25  1  0
 15 26  1  0
 26 27  2  0
 27  6  1  0
 27 12  1  0
 25 16  1  0
  1 28  1  0
  1 29  1  0
  1 30  1  0
  2 31  1  0
  2 32  1  0
  9 33  1  0
 11 34  1  0
 13 35  1  0
 14 36  1  0
 17 37  1  0
 17 38  1  0
 18 39  1  0
 18 40  1  0
 19 41  1  1
 23 42  1  0
 23 43  1  0
 23 44  1  0
 24 45  1  0
 24 46  1  0
 24 47  1  0
 25 48  1  0
 25 49  1  0
 26 50  1  0
M  CHG  1   9  -1
M  END
>  <UniqueID>  (24) 
24

>  <SMILES>  (24) 
CCOC(=O)n1c(C([NH-])=O)cc2ccc(N3CC[C@H](C(=O)N(C)C)C3)cc21

>  <Energy>  (24) 
89.16168821180685

>  <Genealogy>  (24) 
CCOC(=O)n1c(C([NH-])=O)cc2ccc(N3CC[C@H](C(=O)N(C)C)C3)cc21 (protonated)
CCOC(=O)n1c(C([NH-])=O)cc2ccc(N3CC[C@H](C(=O)N(C)C)C3)cc21 (3D coordinates assigned)
CCOC(=O)n1c(C([NH-])=O)cc2ccc(N3CC[C@H](C(=O)N(C)C)C3)cc21 (nonaromatic ring conformer: 89.16168821180685 kcal/mol)

>  <smiles>  (24) 
CCOC(=O)n1c(C(N)=O)cc2ccc(N3CC[C@H](C(=O)N(C)C)C3)cc21

>  <score_type>  (24) 
oracle

>  <origin>  (24) 
adg

>  <m_score__min__energy>  (24) 
-7.5899999999999999

>  <m_primary>  (24) 
energy

$$$$
24:0
     RDKit          3D

 46 49  0  0  0  0  0  0  0  0999 V2000
  143.9200  162.6140  133.6700 N   0  0  0  0  0  0  0  0  0  0  0  0
  145.0810  161.9170  134.1130 C   0  0  0  0  0  0  0  0  0  0  0  0
  145.9010  162.5030  134.8700 O   0  0  0  0  0  0  0  0  0  0  0  0
  145.3090  160.5050  133.7420 C   0  0  0  0  0  0  0  0  0  0  0  0
  146.5660  159.9870  133.4340 C   0  0  0  0  0  0  0  0  0  0  0  0
  146.3670  158.6400  133.2380 C   0  0  0  0  0  0  0  0  0  0  0  0
  147.2730  157.6410  132.8970 C   0  0  0  0  0  0  0  0  0  0  0  0
  146.7850  156.3350  132.7300 C   0  0  0  0  0  0  0  0  0  0  0  0
  145.4050  156.0480  132.8960 C   0  0  0  0  0  0  0  0  0  0  0  0
  144.8940  154.6690  132.7080 C   0  0  0  0  0  0  0  0  0  0  0  0
  143.5830  154.2490  132.8590 C   0  0  0  0  0  0  0  0  0  0  0  0
  143.6280  152.8940  132.5790 C   0  0  0  0  0  0  0  0  0  0  0  0
  142.5120  151.9250  132.6280 C   0  0  0  0  0  0  0  0  0  0  0  0
  141.2150  152.2710  132.8450 C   0  0  0  0  0  0  0  0  0  0  0  0
  140.7470  153.6920  133.0260 C   0  0  0  0  0  0  0  0  0  0  0  0
  141.1460  154.2070  134.2470 F   0  0  0  0  0  0  0  0  0  0  0  0
  139.3720  153.7630  132.9030 F   0  0  0  0  0  0  0  0  0  0  0  0
  140.2080  151.2450  132.8900 N   0  0  0  0  0  0  0  0  0  0  0  0
  140.4860  149.9760  132.9110 C   0  0  0  0  0  0  0  0  0  0  0  0
  141.9110  149.5110  132.9800 C   0  0  0  0  0  0  0  0  0  0  0  0
  142.8240  150.4960  132.2460 C   0  0  0  0  0  0  0  0  0  0  0  0
  144.8690  152.5620  132.3050 O   0  0  0  0  0  0  0  0  0  0  0  0
  145.6460  153.6010  132.3690 N   0  0  0  0  0  0  0  0  0  0  0  0
  144.5160  157.0940  133.2430 C   0  0  0  0  0  0  0  0  0  0  0  0
  145.0350  158.3810  133.4220 C   0  0  0  0  0  0  0  0  0  0  0  0
  144.3690  159.5170  133.7290 N   0  0  0  0  0  0  0  0  0  0  0  0
  142.9510  159.6440  133.9110 C   0  0  0  0  0  0  0  0  0  0  0  0
  142.2540  160.2330  133.0390 O   0  0  0  0  0  0  0  0  0  0  0  0
  142.3440  159.0870  135.0420 O   0  0  0  0  0  0  0  0  0  0  0  0
  141.4410  157.9880  134.9840 C   0  0  0  0  0  0  0  0  0  0  0  0
  141.7930  157.0360  135.9220 F   0  0  0  0  0  0  0  0  0  0  0  0
  141.4980  157.4230  133.7240 F   0  0  0  0  0  0  0  0  0  0  0  0
  140.1510  158.4240  135.2250 F   0  0  0  0  0  0  0  0  0  0  0  0
  142.9800  162.1610  133.6940 H   0  0  0  0  0  0  0  0  0  0  0  0
  147.5153  160.5382  133.3628 H   0  0  0  0  0  0  0  0  0  0  0  0
  148.3409  157.8676  132.7621 H   0  0  0  0  0  0  0  0  0  0  0  0
  147.4807  155.5245  132.4673 H   0  0  0  0  0  0  0  0  0  0  0  0
  142.7071  154.8533  133.1375 H   0  0  0  0  0  0  0  0  0  0  0  0
  141.2112  154.3012  132.2365 H   0  0  0  0  0  0  0  0  0  0  0  0
  139.6713  149.2376  132.8780 H   0  0  0  0  0  0  0  0  0  0  0  0
  142.2208  149.4440  134.0333 H   0  0  0  0  0  0  0  0  0  0  0  0
  141.9901  148.5235  132.5020 H   0  0  0  0  0  0  0  0  0  0  0  0
  143.8701  150.2762  132.5055 H   0  0  0  0  0  0  0  0  0  0  0  0
  142.6586  150.3822  131.1645 H   0  0  0  0  0  0  0  0  0  0  0  0
  146.6700  153.5800  132.1720 H   0  0  0  0  0  0  0  0  0  0  0  0
  143.4408  156.8991  133.3691 H   0  0  0  0  0  0  0  0  0  0  0  0
  1  2  1  0
  2  3  2  0
  2  4  1  0
  4  5  2  0
  5  6  1  0
  6  7  2  0
  7  8  1  0
  8  9  2  0
  9 10  1  0
 10 11  1  0
 11 12  2  0
 12 13  1  0
 13 14  2  0
 14 15  1  0
 15 16  1  0
 15 17  1  0
 14 18  1  0
 18 19  2  0
 19 20  1  0
 20 21  1  0
 12 22  1  0
 22 23  1  0
  9 24  1  0
 24 25  2  0
 25 26  1  0
 26 27  1  0
 27 28  2  0
 27 29  1  0
 29 30  1  0
 30 31  1  0
 30 32  1  0
 30 33  1  0
 26  4  1  0
 25  6  1  0
 23 10  2  0
 21 13  1  0
  1 34  1  0
  5 35  1  0
  7 36  1  0
  8 37  1  0
 11 38  1  0
 15 39  1  0
 19 40  1  0
 20 41  1  0
 20 42  1  0
 21 43  1  0
 21 44  1  0
 23 45  1  0
 24 46  1  0
M  CHG  2   1  -1  23   1
M  END
>  <UniqueID>  (25) 
25

>  <SMILES>  (25) 
[NH-]C(=O)c1cc2ccc(-c3cc(C4=C(C(F)F)N=CCC4)o[nH+]3)cc2n1C(=O)OC(F)(F)F

>  <Energy>  (25) 
127.74581082811191

>  <Genealogy>  (25) 
[NH-]C(=O)c1cc2ccc(-c3cc(C4=C(C(F)F)N=CCC4)o[nH+]3)cc2n1C(=O)OC(F)(F)F (protonated)
[NH-]C(=O)c1cc2ccc(-c3cc(C4=C(C(F)F)N=CCC4)o[nH+]3)cc2n1C(=O)OC(F)(F)F (3D coordinates assigned)
[NH-]C(=O)c1cc2ccc(-c3cc(C4=C(C(F)F)N=CCC4)o[nH+]3)cc2n1C(=O)OC(F)(F)F (nonaromatic ring conformer: 127.74581082811191 kcal/mol)

>  <smiles>  (25) 
NC(=O)c1cc2ccc(-c3cc(C4=C(C(F)F)N=CCC4)on3)cc2n1C(=O)OC(F)(F)F

>  <score_type>  (25) 
oracle

>  <origin>  (25) 
adg

>  <m_score__min__energy>  (25) 
-8.6099999999999994

>  <m_primary>  (25) 
energy

$$$$
25:0
     RDKit          3D

 39 41  0  0  0  0  0  0  0  0999 V2000
  150.3670  150.3130  131.3340 C   0  0  0  0  0  0  0  0  0  0  0  0
  149.2460  150.7030  132.1980 N   0  0  0  0  0  0  0  0  0  0  0  0
  148.4930  149.6590  132.8990 C   0  0  0  0  0  0  0  0  0  0  0  0
  148.8850  152.1000  132.3570 C   0  0  0  0  0  0  0  0  0  0  0  0
  147.5570  152.4750  132.6360 C   0  0  0  0  0  0  0  0  0  0  0  0
  147.2290  153.8220  132.7800 C   0  0  0  0  0  0  0  0  0  0  0  0
  148.2140  154.8080  132.6510 C   0  0  0  0  0  0  0  0  0  0  0  0
  147.8790  156.2460  132.8050 C   0  0  0  0  0  0  0  0  0  0  0  0
  148.8850  157.2380  132.6550 C   0  0  0  0  0  0  0  0  0  0  0  0
  148.5770  158.6010  132.7870 C   0  0  0  0  0  0  0  0  0  0  0  0
  147.2620  158.9490  133.0750 C   0  0  0  0  0  0  0  0  0  0  0  0
  146.6880  160.1900  133.2270 C   0  0  0  0  0  0  0  0  0  0  0  0
  145.3420  159.9450  133.4900 C   0  0  0  0  0  0  0  0  0  0  0  0
  144.3700  161.0110  133.8080 C   0  0  0  0  0  0  0  0  0  0  0  0
  143.0030  160.8980  133.4230 N   0  0  0  0  0  0  0  0  0  0  0  0
  144.7420  162.0150  134.4730 O   0  0  0  0  0  0  0  0  0  0  0  0
  145.0910  158.6050  133.4930 N   0  0  0  0  0  0  0  0  0  0  0  0
  143.8190  157.9510  133.6310 C   0  0  0  0  0  0  0  0  0  0  0  0
  143.5570  157.2810  134.6650 O   0  0  0  0  0  0  0  0  0  0  0  0
  142.8770  158.0270  132.6130 O   0  0  0  0  0  0  0  0  0  0  0  0
  146.2780  158.0090  133.2400 C   0  0  0  0  0  0  0  0  0  0  0  0
  146.5520  156.6440  133.0960 C   0  0  0  0  0  0  0  0  0  0  0  0
  149.5280  154.4020  132.3750 C   0  0  0  0  0  0  0  0  0  0  0  0
  149.8320  153.0830  132.2350 N   0  0  0  0  0  0  0  0  0  0  0  0
  151.2234  150.0150  131.9567 H   0  0  0  0  0  0  0  0  0  0  0  0
  150.0636  149.4676  130.6990 H   0  0  0  0  0  0  0  0  0  0  0  0
  150.6539  151.1641  130.6990 H   0  0  0  0  0  0  0  0  0  0  0  0
  148.5948  149.8001  133.9852 H   0  0  0  0  0  0  0  0  0  0  0  0
  147.4311  149.7221  132.6190 H   0  0  0  0  0  0  0  0  0  0  0  0
  148.8880  148.6713  132.6190 H   0  0  0  0  0  0  0  0  0  0  0  0
  146.7784  151.7051  132.7403 H   0  0  0  0  0  0  0  0  0  0  0  0
  146.1901  154.1118  132.9962 H   0  0  0  0  0  0  0  0  0  0  0  0
  149.9185  156.9340  132.4326 H   0  0  0  0  0  0  0  0  0  0  0  0
  149.3531  159.3712  132.6662 H   0  0  0  0  0  0  0  0  0  0  0  0
  147.1861  161.1682  133.1560 H   0  0  0  0  0  0  0  0  0  0  0  0
  142.7030  160.2060  132.7010 H   0  0  0  0  0  0  0  0  0  0  0  0
  145.7529  155.8962  133.2066 H   0  0  0  0  0  0  0  0  0  0  0  0
  150.3207  155.1575  132.2707 H   0  0  0  0  0  0  0  0  0  0  0  0
  150.8280  152.8410  132.0390 H   0  0  0  0  0  0  0  0  0  0  0  0
  1  2  1  0
  2  3  1  0
  2  4  1  0
  4  5  2  0
  5  6  1  0
  6  7  2  0
  7  8  1  0
  8  9  2  0
  9 10  1  0
 10 11  2  0
 11 12  1  0
 12 13  2  0
 13 14  1  0
 14 15  1  0
 14 16  2  0
 13 17  1  0
 17 18  1  0
 18 19  2  0
 18 20  1  0
 17 21  1  0
 21 22  2  0
  7 23  1  0
 23 24  2  0
 24  4  1  0
 22  8  1  0
 21 11  1  0
  1 25  1  0
  1 26  1  0
  1 27  1  0
  3 28  1  0
  3 29  1  0
  3 30  1  0
  5 31  1  0
  6 32  1  0
  9 33  1  0
 10 34  1  0
 12 35  1  0
 15 36  1  0
 22 37  1  0
 23 38  1  0
 24 39  1  0
M  CHG  3  15  -1  20  -1  24   1
M  END
>  <UniqueID>  (26) 
26

>  <SMILES>  (26) 
CN(C)c1ccc(-c2ccc3cc(C([NH-])=O)n(C(=O)[O-])c3c2)c[nH+]1

>  <Energy>  (26) 
87.69530419607409

>  <Genealogy>  (26) 
CN(C)c1ccc(-c2ccc3cc(C([NH-])=O)n(C(=O)[O-])c3c2)c[nH+]1 (protonated)
CN(C)c1ccc(-c2ccc3cc(C([NH-])=O)n(C(=O)[O-])c3c2)c[nH+]1 (3D coordinates assigned)
CN(C)c1ccc(-c2ccc3cc(C([NH-])=O)n(C(=O)[O-])c3c2)c[nH+]1 (optimized conformer: 87.69530419607409 kcal/mol)

>  <smiles>  (26) 
CN(C)c1ccc(-c2ccc3cc(C(N)=O)n(C(=O)O)c3c2)cn1

>  <score_type>  (26) 
oracle

>  <origin>  (26) 
adg

>  <m_score__min__energy>  (26) 
-7.3600000000000003

>  <m_primary>  (26) 
energy

$$$$
26:0
     RDKit          3D

 31 32  0  0  0  0  0  0  0  0999 V2000
  148.8920  161.7010  130.7620 C   0  0  0  0  0  0  0  0  0  0  0  0
  149.6090  160.4420  131.2610 C   0  0  0  0  0  0  0  0  0  0  0  0
  150.3650  159.7490  130.1210 C   0  0  0  0  0  0  0  0  0  0  0  0
  148.6380  159.4890  131.9310 C   0  0  0  0  0  0  0  0  0  0  0  0
  147.3860  159.9690  132.3960 C   0  0  0  0  0  0  0  0  0  0  0  0
  146.4680  159.1040  133.0140 C   0  0  0  0  0  0  0  0  0  0  0  0
  146.8260  157.7670  133.1580 C   0  0  0  0  0  0  0  0  0  0  0  0
  146.1250  156.7190  133.7080 C   0  0  0  0  0  0  0  0  0  0  0  0
  146.9630  155.6120  133.5880 C   0  0  0  0  0  0  0  0  0  0  0  0
  146.6430  154.2820  134.1510 C   0  0  0  0  0  0  0  0  0  0  0  0
  146.6750  153.1170  133.3230 N   0  0  0  0  0  0  0  0  0  0  0  0
  146.2950  154.1700  135.3560 O   0  0  0  0  0  0  0  0  0  0  0  0
  148.1320  155.9600  132.9760 N   0  0  0  0  0  0  0  0  0  0  0  0
  149.2280  155.1140  132.5890 C   0  0  0  0  0  0  0  0  0  0  0  0
  149.0340  153.9210  132.2370 O   0  0  0  0  0  0  0  0  0  0  0  0
  148.0330  157.2840  132.7270 C   0  0  0  0  0  0  0  0  0  0  0  0
  148.9640  158.1200  132.0980 C   0  0  0  0  0  0  0  0  0  0  0  0
  148.5533  162.2957  131.6232 H   0  0  0  0  0  0  0  0  0  0  0  0
  149.5845  162.3000  130.1523 H   0  0  0  0  0  0  0  0  0  0  0  0
  148.0235  161.4111  130.1523 H   0  0  0  0  0  0  0  0  0  0  0  0
  150.3478  160.7527  132.0144 H   0  0  0  0  0  0  0  0  0  0  0  0
  151.1141  159.0623  130.5420 H   0  0  0  0  0  0  0  0  0  0  0  0
  149.6547  159.1817  129.5016 H   0  0  0  0  0  0  0  0  0  0  0  0
  150.8685  160.5058  129.5016 H   0  0  0  0  0  0  0  0  0  0  0  0
  147.1313  161.0318  132.2708 H   0  0  0  0  0  0  0  0  0  0  0  0
  145.4957  159.4722  133.3732 H   0  0  0  0  0  0  0  0  0  0  0  0
  145.1176  156.7485  134.1487 H   0  0  0  0  0  0  0  0  0  0  0  0
  146.9970  153.1680  132.3320 H   0  0  0  0  0  0  0  0  0  0  0  0
  146.4080  152.1880  133.7160 H   0  0  0  0  0  0  0  0  0  0  0  0
  150.2521  155.5154  132.6007 H   0  0  0  0  0  0  0  0  0  0  0  0
  149.9261  157.7232  131.7418 H   0  0  0  0  0  0  0  0  0  0  0  0
  1  2  1  0
  2  3  1  0
  2  4  1  0
  4  5  2  0
  5  6  1  0
  6  7  2  0
  7  8  1  0
  8  9  2  0
  9 10  1  0
 10 11  1  0
 10 12  2  0
  9 13  1  0
 13 14  1  0
 14 15  2  0
 13 16  1  0
 16 17  2  0
 17  4  1  0
 16  7  1  0
  1 18  1  0
  1 19  1  0
  1 20  1  0
  2 21  1  0
  3 22  1  0
  3 23  1  0
  3 24  1  0
  5 25  1  0
  6 26  1  0
  8 27  1  0
 11 28  1  0
 11 29  1  0
 14 30  1  0
 17 31  1  0
M  END
>  <UniqueID>  (27) 
27

>  <SMILES>  (27) 
CC(C)c1ccc2cc(C(N)=O)n(C=O)c2c1

>  <Energy>  (27) 
65.36981673437946

>  <Genealogy>  (27) 
CC(C)c1ccc2cc(C(N)=O)n(C=O)c2c1 (3D coordinates assigned)
CC(C)c1ccc2cc(C(N)=O)n(C=O)c2c1 (optimized conformer: 65.36981673437946 kcal/mol)

>  <smiles>  (27) 
CC(C)c1ccc2cc(C(N)=O)n(C=O)c2c1

>  <score_type>  (27) 
oracle

>  <origin>  (27) 
adg

>  <m_score__min__energy>  (27) 
-6.7199999999999998

>  <m_primary>  (27) 
energy

$$$$
27:0
     RDKit          3D

 29 30  0  0  0  0  0  0  0  0999 V2000
  143.9770  163.9910  133.3620 C   0  0  0  0  0  0  0  0  0  0  0  0
  143.9170  162.5700  133.4000 O   0  0  0  0  0  0  0  0  0  0  0  0
  144.8920  161.7900  134.0270 C   0  0  0  0  0  0  0  0  0  0  0  0
  145.7610  162.3310  134.7660 O   0  0  0  0  0  0  0  0  0  0  0  0
  144.9190  160.3700  133.8090 N   0  0  0  0  0  0  0  0  0  0  0  0
  143.9350  159.4630  134.0730 C   0  0  0  0  0  0  0  0  0  0  0  0
  142.5540  159.7750  134.4960 C   0  0  0  0  0  0  0  0  0  0  0  0
  141.7090  160.5960  133.6950 N   0  0  0  0  0  0  0  0  0  0  0  0
  142.0970  159.2700  135.5560 O   0  0  0  0  0  0  0  0  0  0  0  0
  144.3810  158.1690  133.8100 C   0  0  0  0  0  0  0  0  0  0  0  0
  145.6740  158.3130  133.3650 C   0  0  0  0  0  0  0  0  0  0  0  0
  146.5990  157.3470  132.9770 C   0  0  0  0  0  0  0  0  0  0  0  0
  147.8800  157.7790  132.5920 C   0  0  0  0  0  0  0  0  0  0  0  0
  148.2100  159.1570  132.6020 C   0  0  0  0  0  0  0  0  0  0  0  0
  149.5970  159.6020  132.2320 C   0  0  0  0  0  0  0  0  0  0  0  0
  149.5450  160.4710  131.0520 C   0  0  0  0  0  0  0  0  0  0  0  0
  149.5060  161.1570  130.1220 N   0  0  0  0  0  0  0  0  0  0  0  0
  147.2490  160.1070  133.0130 C   0  0  0  0  0  0  0  0  0  0  0  0
  145.9750  159.6510  133.3720 C   0  0  0  0  0  0  0  0  0  0  0  0
  143.9936  164.3849  134.3889 H   0  0  0  0  0  0  0  0  0  0  0  0
  144.8892  164.3055  132.8338 H   0  0  0  0  0  0  0  0  0  0  0  0
  143.0945  164.3813  132.8338 H   0  0  0  0  0  0  0  0  0  0  0  0
  142.0060  161.5550  133.4080 H   0  0  0  0  0  0  0  0  0  0  0  0
  143.8183  157.2318  133.9324 H   0  0  0  0  0  0  0  0  0  0  0  0
  146.3354  156.2791  132.9720 H   0  0  0  0  0  0  0  0  0  0  0  0
  148.6332  157.0405  132.2801 H   0  0  0  0  0  0  0  0  0  0  0  0
  150.0388  160.1558  133.0735 H   0  0  0  0  0  0  0  0  0  0  0  0
  150.2116  158.7187  132.0040 H   0  0  0  0  0  0  0  0  0  0  0  0
  147.4954  161.1784  133.0501 H   0  0  0  0  0  0  0  0  0  0  0  0
  1  2  1  0
  2  3  1  0
  3  4  2  0
  3  5  1  0
  5  6  1  0
  6  7  1  0
  7  8  1  0
  7  9  2  0
  6 10  2  0
 10 11  1  0
 11 12  2  0
 12 13  1  0
 13 14  2  0
 14 15  1  0
 15 16  1  0
 16 17  3  0
 14 18  1  0
 18 19  2  0
 19  5  1  0
 19 11  1  0
  1 20  1  0
  1 21  1  0
  1 22  1  0
  8 23  1  0
 10 24  1  0
 12 25  1  0
 13 26  1  0
 15 27  1  0
 15 28  1  0
 18 29  1  0
M  CHG  1   8  -1
M  END
>  <UniqueID>  (28) 
28

>  <SMILES>  (28) 
COC(=O)n1c(C([NH-])=O)cc2ccc(CC#N)cc21

>  <Energy>  (28) 
64.72624870655456

>  <Genealogy>  (28) 
COC(=O)n1c(C([NH-])=O)cc2ccc(CC#N)cc21 (protonated)
COC(=O)n1c(C([NH-])=O)cc2ccc(CC#N)cc21 (3D coordinates assigned)
COC(=O)n1c(C([NH-])=O)cc2ccc(CC#N)cc21 (optimized conformer: 64.72624870655456 kcal/mol)

>  <smiles>  (28) 
COC(=O)n1c(C(N)=O)cc2ccc(CC#N)cc21

>  <score_type>  (28) 
oracle

>  <origin>  (28) 
adg

>  <m_score__min__energy>  (28) 
-6.1600000000000001

>  <m_primary>  (28) 
energy

$$$$
28:0
     RDKit          3D

 43 46  0  0  0  0  0  0  0  0999 V2000
  140.9620  159.4070  137.3060 C   0  0  0  0  0  0  0  0  0  0  0  0
  141.1560  158.0020  137.1860 O   0  0  0  0  0  0  0  0  0  0  0  0
  140.8560  157.2570  136.0360 C   0  0  0  0  0  0  0  0  0  0  0  0
  139.8230  157.6350  135.1330 C   0  0  0  0  0  0  0  0  0  0  0  0
  139.5530  156.8610  133.9900 C   0  0  0  0  0  0  0  0  0  0  0  0
  138.5730  157.2170  133.1240 F   0  0  0  0  0  0  0  0  0  0  0  0
  140.3250  155.7230  133.7750 C   0  0  0  0  0  0  0  0  0  0  0  0
  140.2420  154.8610  132.7460 N   0  0  0  0  0  0  0  0  0  0  0  0
  141.2230  153.9640  133.0260 C   0  0  0  0  0  0  0  0  0  0  0  0
  141.5010  152.8570  132.1660 N   0  0  0  0  0  0  0  0  0  0  0  0
  141.8970  154.2290  134.1790 N   0  0  0  0  0  0  0  0  0  0  0  0
  143.0520  153.5300  134.7530 C   0  0  0  0  0  0  0  0  0  0  0  0
  144.3030  154.3480  134.5660 C   0  0  0  0  0  0  0  0  0  0  0  0
  145.5720  153.7890  134.8610 C   0  0  0  0  0  0  0  0  0  0  0  0
  146.7410  154.5570  134.7240 C   0  0  0  0  0  0  0  0  0  0  0  0
  146.6100  155.8710  134.2860 C   0  0  0  0  0  0  0  0  0  0  0  0
  147.5690  156.8400  134.0980 C   0  0  0  0  0  0  0  0  0  0  0  0
  146.8750  157.9680  133.6660 C   0  0  0  0  0  0  0  0  0  0  0  0
  147.5400  159.2240  133.2640 C   0  0  0  0  0  0  0  0  0  0  0  0
  147.0530  159.9960  132.1690 N   0  0  0  0  0  0  0  0  0  0  0  0
  148.5850  159.5970  133.8640 O   0  0  0  0  0  0  0  0  0  0  0  0
  145.5370  157.7100  133.5990 N   0  0  0  0  0  0  0  0  0  0  0  0
  144.4760  158.6270  133.2860 C   0  0  0  0  0  0  0  0  0  0  0  0
  143.4610  158.2340  132.6530 O   0  0  0  0  0  0  0  0  0  0  0  0
  144.5710  159.9630  133.6570 O   0  0  0  0  0  0  0  0  0  0  0  0
  145.3930  156.4210  133.9790 C   0  0  0  0  0  0  0  0  0  0  0  0
  144.2120  155.6850  134.1230 C   0  0  0  0  0  0  0  0  0  0  0  0
  141.3170  155.3530  134.6350 C   0  0  0  0  0  0  0  0  0  0  0  0
  141.6140  156.0960  135.7800 C   0  0  0  0  0  0  0  0  0  0  0  0
  140.9240  159.6823  138.3703 H   0  0  0  0  0  0  0  0  0  0  0  0
  141.7958  159.9351  136.8202 H   0  0  0  0  0  0  0  0  0  0  0  0
  140.0163  159.6894  136.8202 H   0  0  0  0  0  0  0  0  0  0  0  0
  139.2305  158.5405  135.3307 H   0  0  0  0  0  0  0  0  0  0  0  0
  140.7150  152.2720  131.8050 H   0  0  0  0  0  0  0  0  0  0  0  0
  142.4720  152.6080  131.8780 H   0  0  0  0  0  0  0  0  0  0  0  0
  142.8812  153.3683  135.8276 H   0  0  0  0  0  0  0  0  0  0  0  0
  143.1761  152.5638  134.2420 H   0  0  0  0  0  0  0  0  0  0  0  0
  145.6423  152.7449  135.2001 H   0  0  0  0  0  0  0  0  0  0  0  0
  147.7289  154.1324  134.9559 H   0  0  0  0  0  0  0  0  0  0  0  0
  148.6534  156.7441  134.2555 H   0  0  0  0  0  0  0  0  0  0  0  0
  146.1330  160.4870  132.2250 H   0  0  0  0  0  0  0  0  0  0  0  0
  143.2354  156.1377  133.8963 H   0  0  0  0  0  0  0  0  0  0  0  0
  142.4174  155.7838  136.4634 H   0  0  0  0  0  0  0  0  0  0  0  0
  1  2  1  0
  2  3  1  0
  3  4  2  0
  4  5  1  0
  5  6  1  0
  5  7  2  0
  7  8  1  0
  8  9  2  0
  9 10  1  0
  9 11  1  0
 11 12  1  0
 12 13  1  0
 13 14  2  0
 14 15  1  0
 15 16  2  0
 16 17  1  0
 17 18  2  0
 18 19  1  0
 19 20  1  0
 19 21  2  0
 18 22  1  0
 22 23  1  0
 23 24  2  0
 23 25  1  0
 22 26  1  0
 26 27  2  0
 11 28  1  0
 28 29  2  0
 29  3  1  0
 28  7  1  0
 27 13  1  0
 26 16  1  0
  1 30  1  0
  1 31  1  0
  1 32  1  0
  4 33  1  0
 10 34  1  0
 10 35  1  0
 12 36  1  0
 12 37  1  0
 14 38  1  0
 15 39  1  0
 17 40  1  0
 20 41  1  0
 27 42  1  0
 29 43  1  0
M  CHG  2  20  -1  25  -1
M  END
>  <UniqueID>  (29) 
29

>  <SMILES>  (29) 
COc1cc(F)c2nc(N)n(Cc3ccc4cc(C([NH-])=O)n(C(=O)[O-])c4c3)c2c1

>  <Energy>  (29) 
122.60645192233095

>  <Genealogy>  (29) 
COc1cc(F)c2nc(N)n(Cc3ccc4cc(C([NH-])=O)n(C(=O)[O-])c4c3)c2c1 (protonated)
COc1cc(F)c2nc(N)n(Cc3ccc4cc(C([NH-])=O)n(C(=O)[O-])c4c3)c2c1 (3D coordinates assigned)
COc1cc(F)c2nc(N)n(Cc3ccc4cc(C([NH-])=O)n(C(=O)[O-])c4c3)c2c1 (optimized conformer: 122.60645192233095 kcal/mol)

>  <smiles>  (29) 
COc1cc(F)c2nc(N)n(Cc3ccc4cc(C(N)=O)n(C(=O)O)c4c3)c2c1

>  <score_type>  (29) 
oracle

>  <origin>  (29) 
adg

>  <m_score__min__energy>  (29) 
-7.4400000000000004

>  <m_primary>  (29) 
energy

$$$$
29:0
     RDKit          3D

 34 36  0  0  0  0  0  0  0  0999 V2000
  148.0640  153.0890  137.4830 C   0  0  0  0  0  0  0  0  0  0  0  0
  146.8360  153.0160  136.7680 O   0  0  0  0  0  0  0  0  0  0  0  0
  146.2860  154.1130  136.0990 C   0  0  0  0  0  0  0  0  0  0  0  0
  147.0410  154.9700  135.5620 O   0  0  0  0  0  0  0  0  0  0  0  0
  144.8250  154.2850  136.0190 C   0  0  0  0  0  0  0  0  0  0  0  0
  143.7350  153.5870  137.0930 S   0  0  0  0  0  0  0  0  0  0  0  0
  142.3420  154.2210  136.4070 C   0  0  0  0  0  0  0  0  0  0  0  0
  142.7060  154.9940  135.3070 C   0  0  0  0  0  0  0  0  0  0  0  0
  141.7030  155.6930  134.4730 C   0  0  0  0  0  0  0  0  0  0  0  0
  140.7680  154.9420  133.7170 C   0  0  0  0  0  0  0  0  0  0  0  0
  139.8090  155.5870  132.9190 C   0  0  0  0  0  0  0  0  0  0  0  0
  139.8200  156.9780  132.8810 C   0  0  0  0  0  0  0  0  0  0  0  0
  138.9940  157.8510  132.2130 C   0  0  0  0  0  0  0  0  0  0  0  0
  139.4590  159.1240  132.5390 C   0  0  0  0  0  0  0  0  0  0  0  0
  138.9010  160.3640  131.9600 C   0  0  0  0  0  0  0  0  0  0  0  0
  137.6820  160.3460  131.2230 N   0  0  0  0  0  0  0  0  0  0  0  0
  139.4840  161.4630  132.1610 O   0  0  0  0  0  0  0  0  0  0  0  0
  140.5270  159.0400  133.3820 N   0  0  0  0  0  0  0  0  0  0  0  0
  141.2350  160.1180  134.0170 C   0  0  0  0  0  0  0  0  0  0  0  0
  142.0100  160.8510  133.3490 O   0  0  0  0  0  0  0  0  0  0  0  0
  141.0520  160.3760  135.3700 O   0  0  0  0  0  0  0  0  0  0  0  0
  140.7360  157.7200  133.5810 C   0  0  0  0  0  0  0  0  0  0  0  0
  141.6910  157.1040  134.3980 C   0  0  0  0  0  0  0  0  0  0  0  0
  144.1010  155.0400  135.0890 C   0  0  0  0  0  0  0  0  0  0  0  0
  144.8530  156.0310  133.8410 Cl  0  0  0  0  0  0  0  0  0  0  0  0
  147.8602  153.0769  138.5639 H   0  0  0  0  0  0  0  0  0  0  0  0
  148.6939  152.2267  137.2189 H   0  0  0  0  0  0  0  0  0  0  0  0
  148.5873  154.0198  137.2189 H   0  0  0  0  0  0  0  0  0  0  0  0
  141.3153  154.0546  136.7650 H   0  0  0  0  0  0  0  0  0  0  0  0
  140.7939  153.8430  133.7558 H   0  0  0  0  0  0  0  0  0  0  0  0
  139.0716  155.0101  132.3416 H   0  0  0  0  0  0  0  0  0  0  0  0
  138.1459  157.5983  131.5597 H   0  0  0  0  0  0  0  0  0  0  0  0
  137.0950  161.2050  131.1340 H   0  0  0  0  0  0  0  0  0  0  0  0
  142.4152  157.7042  134.9683 H   0  0  0  0  0  0  0  0  0  0  0  0
  1  2  1  0
  2  3  1  0
  3  4  2  0
  3  5  1  0
  5  6  1  0
  6  7  1  0
  7  8  2  0
  8  9  1  0
  9 10  2  0
 10 11  1  0
 11 12  2  0
 12 13  1  0
 13 14  2  0
 14 15  1  0
 15 16  1  0
 15 17  2  0
 14 18  1  0
 18 19  1  0
 19 20  2  0
 19 21  1  0
 18 22  1  0
 22 23  2  0
  8 24  1  0
 24 25  1  0
 24  5  2  0
 23  9  1  0
 22 12  1  0
  1 26  1  0
  1 27  1  0
  1 28  1  0
  7 29  1  0
 10 30  1  0
 11 31  1  0
 13 32  1  0
 16 33  1  0
 23 34  1  0
M  CHG  2  16  -1  21  -1
M  END
>  <UniqueID>  (30) 
30

>  <SMILES>  (30) 
COC(=O)c1scc(-c2ccc3cc(C([NH-])=O)n(C(=O)[O-])c3c2)c1Cl

>  <Energy>  (30) 
106.58500741461009

>  <Genealogy>  (30) 
COC(=O)c1scc(-c2ccc3cc(C([NH-])=O)n(C(=O)[O-])c3c2)c1Cl (protonated)
COC(=O)c1scc(-c2ccc3cc(C([NH-])=O)n(C(=O)[O-])c3c2)c1Cl (3D coordinates assigned)
COC(=O)c1scc(-c2ccc3cc(C([NH-])=O)n(C(=O)[O-])c3c2)c1Cl (optimized conformer: 106.58500741461009 kcal/mol)

>  <smiles>  (30) 
COC(=O)c1scc(-c2ccc3cc(C(N)=O)n(C(=O)O)c3c2)c1Cl

>  <score_type>  (30) 
oracle

>  <origin>  (30) 
adg

>  <m_score__min__energy>  (30) 
-7.21

>  <m_primary>  (30) 
energy

$$$$
30:0
     RDKit          3D

 32 34  0  0  0  0  0  0  0  0999 V2000
  149.2710  157.4090  131.8700 N   0  0  0  0  0  0  0  0  0  0  0  0
  148.9250  158.6810  132.4180 C   0  0  0  0  0  0  0  0  0  0  0  0
  149.8260  159.5450  132.5900 O   0  0  0  0  0  0  0  0  0  0  0  0
  147.5450  158.9790  132.8490 C   0  0  0  0  0  0  0  0  0  0  0  0
  147.0290  160.2680  132.9270 C   0  0  0  0  0  0  0  0  0  0  0  0
  145.7570  160.1210  133.4280 C   0  0  0  0  0  0  0  0  0  0  0  0
  144.7870  161.0810  133.6970 C   0  0  0  0  0  0  0  0  0  0  0  0
  143.5420  160.6440  134.1770 C   0  0  0  0  0  0  0  0  0  0  0  0
  143.2810  159.2620  134.3700 C   0  0  0  0  0  0  0  0  0  0  0  0
  141.9560  158.8120  134.8650 C   0  0  0  0  0  0  0  0  0  0  0  0
  141.7270  158.6430  136.2440 C   0  0  0  0  0  0  0  0  0  0  0  0
  140.4790  158.2180  136.7080 C   0  0  0  0  0  0  0  0  0  0  0  0
  139.4470  157.9580  135.8050 C   0  0  0  0  0  0  0  0  0  0  0  0
  139.6590  158.1220  134.4330 C   0  0  0  0  0  0  0  0  0  0  0  0
  138.3600  157.8000  133.3000 Cl  0  0  0  0  0  0  0  0  0  0  0  0
  140.9070  158.5460  133.9640 C   0  0  0  0  0  0  0  0  0  0  0  0
  144.2950  158.3170  134.0830 C   0  0  0  0  0  0  0  0  0  0  0  0
  145.5340  158.7820  133.6250 C   0  0  0  0  0  0  0  0  0  0  0  0
  146.6250  158.0640  133.2720 N   0  0  0  0  0  0  0  0  0  0  0  0
  146.7390  156.6320  133.2240 C   0  0  0  0  0  0  0  0  0  0  0  0
  145.8420  155.9380  132.6750 O   0  0  0  0  0  0  0  0  0  0  0  0
  147.8420  155.9970  133.7800 O   0  0  0  0  0  0  0  0  0  0  0  0
  148.5880  156.6190  131.8670 H   0  0  0  0  0  0  0  0  0  0  0  0
  150.2450  157.2290  131.5370 H   0  0  0  0  0  0  0  0  0  0  0  0
  147.5315  161.2057  132.6474 H   0  0  0  0  0  0  0  0  0  0  0  0
  144.9893  162.1505  133.5384 H   0  0  0  0  0  0  0  0  0  0  0  0
  142.7590  161.3818  134.4064 H   0  0  0  0  0  0  0  0  0  0  0  0
  142.5359  158.8469  136.9610 H   0  0  0  0  0  0  0  0  0  0  0  0
  140.3098  158.0882  137.7871 H   0  0  0  0  0  0  0  0  0  0  0  0
  138.4659  157.6237  136.1733 H   0  0  0  0  0  0  0  0  0  0  0  0
  141.0700  158.6725  132.8835 H   0  0  0  0  0  0  0  0  0  0  0  0
  144.1136  157.2403  134.2169 H   0  0  0  0  0  0  0  0  0  0  0  0
  1  2  1  0
  2  3  2  0
  2  4  1  0
  4  5  2  0
  5  6  1  0
  6  7  2  0
  7  8  1  0
  8  9  2  0
  9 10  1  0
 10 11  2  0
 11 12  1  0
 12 13  2  0
 13 14  1  0
 14 15  1  0
 14 16  2  0
  9 17  1  0
 17 18  2  0
 18 19  1  0
 19 20  1  0
 20 21  2  0
 20 22  1  0
 19  4  1  0
 18  6  1  0
 16 10  1  0
  1 23  1  0
  1 24  1  0
  5 25  1  0
  7 26  1  0
  8 27  1  0
 11 28  1  0
 12 29  1  0
 13 30  1  0
 16 31  1  0
 17 32  1  0
M  CHG  1  22  -1
M  END
>  <UniqueID>  (31) 
31

>  <SMILES>  (31) 
NC(=O)c1cc2ccc(-c3cccc(Cl)c3)cc2n1C(=O)[O-]

>  <Energy>  (31) 
80.12706967975011

>  <Genealogy>  (31) 
NC(=O)c1cc2ccc(-c3cccc(Cl)c3)cc2n1C(=O)[O-] (protonated)
NC(=O)c1cc2ccc(-c3cccc(Cl)c3)cc2n1C(=O)[O-] (3D coordinates assigned)
NC(=O)c1cc2ccc(-c3cccc(Cl)c3)cc2n1C(=O)[O-] (optimized conformer: 80.12706967975011 kcal/mol)

>  <smiles>  (31) 
NC(=O)c1cc2ccc(-c3cccc(Cl)c3)cc2n1C(=O)O

>  <score_type>  (31) 
oracle

>  <origin>  (31) 
adg

>  <m_score__min__energy>  (31) 
-8.2100000000000009

>  <m_primary>  (31) 
energy

$$$$
31:0
     RDKit          3D

 39 42  0  0  0  0  0  0  0  0999 V2000
  142.0780  159.1560  133.1630 N   0  0  0  0  0  0  0  0  0  0  0  0
  142.0280  158.3110  134.3100 C   0  0  0  0  0  0  0  0  0  0  0  0
  141.9330  158.8280  135.4530 O   0  0  0  0  0  0  0  0  0  0  0  0
  142.0460  156.8430  134.1420 C   0  0  0  0  0  0  0  0  0  0  0  0
  143.0920  156.0320  134.5750 C   0  0  0  0  0  0  0  0  0  0  0  0
  142.7690  154.7630  134.1540 C   0  0  0  0  0  0  0  0  0  0  0  0
  143.4510  153.5620  134.3230 C   0  0  0  0  0  0  0  0  0  0  0  0
  142.8690  152.3930  133.8060 C   0  0  0  0  0  0  0  0  0  0  0  0
  141.6180  152.4390  133.1370 C   0  0  0  0  0  0  0  0  0  0  0  0
  141.0050  151.1960  132.6040 C   0  0  0  0  0  0  0  0  0  0  0  0
  139.6460  151.1700  132.2340 C   0  0  0  0  0  0  0  0  0  0  0  0
  139.0720  149.9980  131.7320 C   0  0  0  0  0  0  0  0  0  0  0  0
  139.8430  148.8420  131.5950 C   0  0  0  0  0  0  0  0  0  0  0  0
  139.2830  147.7070  131.1090 F   0  0  0  0  0  0  0  0  0  0  0  0
  141.1910  148.8550  131.9590 C   0  0  0  0  0  0  0  0  0  0  0  0
  141.7710  150.0240  132.4600 C   0  0  0  0  0  0  0  0  0  0  0  0
  140.9560  153.6830  132.9860 C   0  0  0  0  0  0  0  0  0  0  0  0
  141.5690  154.8320  133.4960 C   0  0  0  0  0  0  0  0  0  0  0  0
  141.1100  156.1020  133.4830 N   0  0  0  0  0  0  0  0  0  0  0  0
  139.8520  156.5450  132.9480 C   0  0  0  0  0  0  0  0  0  0  0  0
  138.8030  155.8820  133.1750 O   0  0  0  0  0  0  0  0  0  0  0  0
  139.7830  157.7560  132.1920 N   0  0  0  0  0  0  0  0  0  0  0  0
  138.7420  158.7510  132.4070 C   0  0  0  0  0  0  0  0  0  0  0  0
  138.0820  159.2040  131.1190 C   0  0  0  0  0  0  0  0  0  0  0  0
  139.0770  160.1120  131.8270 C   0  0  0  0  0  0  0  0  0  0  0  0
  141.7440  158.8190  132.2330 H   0  0  0  0  0  0  0  0  0  0  0  0
  143.9870  156.3408  135.1351 H   0  0  0  0  0  0  0  0  0  0  0  0
  144.4180  153.5291  134.8463 H   0  0  0  0  0  0  0  0  0  0  0  0
  143.3888  151.4304  133.9209 H   0  0  0  0  0  0  0  0  0  0  0  0
  139.0328  152.0770  132.3406 H   0  0  0  0  0  0  0  0  0  0  0  0
  138.0104  149.9867  131.4443 H   0  0  0  0  0  0  0  0  0  0  0  0
  141.7976  147.9437  131.8513 H   0  0  0  0  0  0  0  0  0  0  0  0
  142.8338  150.0280  132.7438 H   0  0  0  0  0  0  0  0  0  0  0  0
  139.9817  153.7435  132.4789 H   0  0  0  0  0  0  0  0  0  0  0  0
  138.3877  158.3883  133.3832 H   0  0  0  0  0  0  0  0  0  0  0  0
  138.3532  158.7285  130.1649 H   0  0  0  0  0  0  0  0  0  0  0  0
  137.0436  159.3084  130.7713 H   0  0  0  0  0  0  0  0  0  0  0  0
  140.0679  160.2931  131.3850 H   0  0  0  0  0  0  0  0  0  0  0  0
  139.0567  161.1453  132.2037 H   0  0  0  0  0  0  0  0  0  0  0  0
  1  2  1  0
  2  3  2  0
  2  4  1  0
  4  5  2  0
  5  6  1  0
  6  7  2  0
  7  8  1  0
  8  9  2  0
  9 10  1  0
 10 11  2  0
 11 12  1  0
 12 13  2  0
 13 14  1  0
 13 15  1  0
 15 16  2  0
  9 17  1  0
 17 18  2  0
 18 19  1  0
 19 20  1  0
 20 21  2  0
 20 22  1  0
 22 23  1  0
 23 24  1  0
 24 25  1  0
 19  4  1  0
 25 23  1  0
 18  6  1  0
 16 10  1  0
  1 26  1  0
  5 27  1  0
  7 28  1  0
  8 29  1  0
 11 30  1  0
 12 31  1  0
 15 32  1  0
 16 33  1  0
 17 34  1  0
 23 35  1  0
 24 36  1  0
 24 37  1  0
 25 38  1  0
 25 39  1  0
M  CHG  2   1  -1  22  -1
M  END
>  <UniqueID>  (32) 
32

>  <SMILES>  (32) 
[NH-]C(=O)c1cc2ccc(-c3ccc(F)cc3)cc2n1C(=O)[N-]C1CC1

>  <Energy>  (32) 
349.94410452624777

>  <Genealogy>  (32) 
[NH-]C(=O)c1cc2ccc(-c3ccc(F)cc3)cc2n1C(=O)[N-]C1CC1 (protonated)
[NH-]C(=O)c1cc2ccc(-c3ccc(F)cc3)cc2n1C(=O)[N-]C1CC1 (3D coordinates assigned)
[NH-]C(=O)c1cc2ccc(-c3ccc(F)cc3)cc2n1C(=O)[N-]C1CC1 (nonaromatic ring conformer: 349.94410452624777 kcal/mol)

>  <smiles>  (32) 
NC(=O)c1cc2ccc(-c3ccc(F)cc3)cc2n1C(=O)NC1CC1

>  <score_type>  (32) 
oracle

>  <origin>  (32) 
adg

>  <m_score__min__energy>  (32) 
-8.7300000000000004

>  <m_primary>  (32) 
energy

$$$$
32:0
     RDKit          3D

 45 48  0  0  0  0  0  0  0  0999 V2000
  150.7390  150.0460  130.8560 C   0  0  0  0  0  0  0  0  0  0  0  0
  150.1750  151.0050  131.7960 N   0  0  0  0  0  0  0  0  0  0  0  0
  149.5890  152.1740  131.4710 C   0  0  0  0  0  0  0  0  0  0  0  0
  149.1270  152.7420  132.6350 C   0  0  0  0  0  0  0  0  0  0  0  0
  148.4270  153.9900  132.7710 C   0  0  0  0  0  0  0  0  0  0  0  0
  147.8410  155.0360  132.8830 C   0  0  0  0  0  0  0  0  0  0  0  0
  147.1400  156.2860  133.0180 C   0  0  0  0  0  0  0  0  0  0  0  0
  147.7960  157.4990  132.7050 C   0  0  0  0  0  0  0  0  0  0  0  0
  147.1180  158.7240  132.8200 C   0  0  0  0  0  0  0  0  0  0  0  0
  145.7950  158.6990  133.2570 C   0  0  0  0  0  0  0  0  0  0  0  0
  144.9010  159.7290  133.4280 C   0  0  0  0  0  0  0  0  0  0  0  0
  143.7150  159.1270  133.8450 C   0  0  0  0  0  0  0  0  0  0  0  0
  142.4660  159.8820  134.0870 C   0  0  0  0  0  0  0  0  0  0  0  0
  141.7160  160.3830  132.9810 N   0  0  0  0  0  0  0  0  0  0  0  0
  142.0390  160.0770  135.2540 O   0  0  0  0  0  0  0  0  0  0  0  0
  143.8760  157.7750  133.9530 N   0  0  0  0  0  0  0  0  0  0  0  0
  142.8760  156.7720  134.3350 C   0  0  0  0  0  0  0  0  0  0  0  0
  141.5290  157.1600  133.8110 C   0  0  0  0  0  0  0  0  0  0  0  0
  140.3160  156.8970  134.4070 C   0  0  0  0  0  0  0  0  0  0  0  0
  139.3840  157.3840  133.6280 O   0  0  0  0  0  0  0  0  0  0  0  0
  139.9880  157.9170  132.5880 C   0  0  0  0  0  0  0  0  0  0  0  0
  139.2670  158.6050  131.4760 C   0  0  0  0  0  0  0  0  0  0  0  0
  140.0900  159.6860  130.9460 N   0  0  0  0  0  0  0  0  0  0  0  0
  141.3310  157.8080  132.6470 N   0  0  0  0  0  0  0  0  0  0  0  0
  145.1510  157.5300  133.5720 C   0  0  0  0  0  0  0  0  0  0  0  0
  145.8000  156.2940  133.4550 C   0  0  0  0  0  0  0  0  0  0  0  0
  149.4510  151.8560  133.6410 C   0  0  0  0  0  0  0  0  0  0  0  0
  150.0850  150.7960  133.1010 N   0  0  0  0  0  0  0  0  0  0  0  0
  151.2203  149.2276  131.4116 H   0  0  0  0  0  0  0  0  0  0  0  0
  149.9371  149.6377  130.2233 H   0  0  0  0  0  0  0  0  0  0  0  0
  151.4855  150.5484  130.2233 H   0  0  0  0  0  0  0  0  0  0  0  0
  149.4970  152.5966  130.4596 H   0  0  0  0  0  0  0  0  0  0  0  0
  148.8435  157.4833  132.3695 H   0  0  0  0  0  0  0  0  0  0  0  0
  147.6159  159.6732  132.5728 H   0  0  0  0  0  0  0  0  0  0  0  0
  145.0831  160.8021  133.2692 H   0  0  0  0  0  0  0  0  0  0  0  0
  141.7300  159.8930  132.0590 H   0  0  0  0  0  0  0  0  0  0  0  0
  143.1617  155.7960  133.9158 H   0  0  0  0  0  0  0  0  0  0  0  0
  142.8303  156.7104  135.4323 H   0  0  0  0  0  0  0  0  0  0  0  0
  140.1592  156.3740  135.3619 H   0  0  0  0  0  0  0  0  0  0  0  0
  139.0555  157.8811  130.6752 H   0  0  0  0  0  0  0  0  0  0  0  0
  138.3236  159.0217  131.8586 H   0  0  0  0  0  0  0  0  0  0  0  0
  139.9680  160.5130  131.5730 H   0  0  0  0  0  0  0  0  0  0  0  0
  141.0940  159.4000  131.0220 H   0  0  0  0  0  0  0  0  0  0  0  0
  145.2786  155.3563  133.6973 H   0  0  0  0  0  0  0  0  0  0  0  0
  149.2284  151.9921  134.7096 H   0  0  0  0  0  0  0  0  0  0  0  0
  1  2  1  0
  2  3  1  0
  3  4  2  0
  4  5  1  0
  5  6  3  0
  6  7  1  0
  7  8  2  0
  8  9  1  0
  9 10  2  0
 10 11  1  0
 11 12  2  0
 12 13  1  0
 13 14  1  0
 13 15  2  0
 12 16  1  0
 16 17  1  0
 17 18  1  0
 18 19  2  0
 19 20  1  0
 20 21  1  0
 21 22  1  0
 22 23  1  0
 21 24  2  0
 16 25  1  0
 25 26  2  0
  4 27  1  0
 27 28  2  0
 28  2  1  0
 26  7  1  0
 25 10  1  0
 24 18  1  0
  1 29  1  0
  1 30  1  0
  1 31  1  0
  3 32  1  0
  8 33  1  0
  9 34  1  0
 11 35  1  0
 14 36  1  0
 17 37  1  0
 17 38  1  0
 19 39  1  0
 22 40  1  0
 22 41  1  0
 23 42  1  0
 23 43  1  0
 26 44  1  0
 27 45  1  0
M  CHG  1  14  -1
M  END
>  <UniqueID>  (33) 
33

>  <SMILES>  (33) 
Cn1cc(C#Cc2ccc3cc(C([NH-])=O)n(Cc4coc(CN)n4)c3c2)cn1

>  <Energy>  (33) 
133.98373230632416

>  <Genealogy>  (33) 
Cn1cc(C#Cc2ccc3cc(C([NH-])=O)n(Cc4coc(CN)n4)c3c2)cn1 (protonated)
Cn1cc(C#Cc2ccc3cc(C([NH-])=O)n(Cc4coc(CN)n4)c3c2)cn1 (3D coordinates assigned)
Cn1cc(C#Cc2ccc3cc(C([NH-])=O)n(Cc4coc(CN)n4)c3c2)cn1 (optimized conformer: 133.98373230632416 kcal/mol)

>  <smiles>  (33) 
Cn1cc(C#Cc2ccc3cc(C(N)=O)n(Cc4coc(CN)n4)c3c2)cn1

>  <score_type>  (33) 
oracle

>  <origin>  (33) 
adg

>  <m_score__min__energy>  (33) 
-9.3699999999999992

>  <m_primary>  (33) 
energy

$$$$
33:0
     RDKit          3D

 38 41  0  0  0  0  0  0  0  0999 V2000
  139.8930  158.8310  136.3810 N   0  0  0  0  0  0  0  0  0  0  0  0
  141.1570  158.4170  135.8600 C   0  0  0  0  0  0  0  0  0  0  0  0
  142.0520  159.2800  135.6560 O   0  0  0  0  0  0  0  0  0  0  0  0
  141.4090  157.0090  135.4950 C   0  0  0  0  0  0  0  0  0  0  0  0
  142.4070  156.2350  136.0790 C   0  0  0  0  0  0  0  0  0  0  0  0
  142.3580  155.0260  135.4250 C   0  0  0  0  0  0  0  0  0  0  0  0
  143.1210  153.8790  135.6140 C   0  0  0  0  0  0  0  0  0  0  0  0
  142.8300  152.7560  134.8220 C   0  0  0  0  0  0  0  0  0  0  0  0
  141.7810  152.7930  133.8660 C   0  0  0  0  0  0  0  0  0  0  0  0
  141.4740  151.5960  133.0440 C   0  0  0  0  0  0  0  0  0  0  0  0
  142.4950  150.6990  132.6810 C   0  0  0  0  0  0  0  0  0  0  0  0
  142.2110  149.5710  131.9070 C   0  0  0  0  0  0  0  0  0  0  0  0
  140.9010  149.3180  131.4810 C   0  0  0  0  0  0  0  0  0  0  0  0
  140.6070  148.1870  130.7030 C   0  0  0  0  0  0  0  0  0  0  0  0
  139.2970  147.9470  130.2810 C   0  0  0  0  0  0  0  0  0  0  0  0
  138.2730  148.8310  130.6330 C   0  0  0  0  0  0  0  0  0  0  0  0
  138.5520  149.9600  131.4080 C   0  0  0  0  0  0  0  0  0  0  0  0
  139.8640  150.2130  131.8380 C   0  0  0  0  0  0  0  0  0  0  0  0
  140.1570  151.3430  132.6160 C   0  0  0  0  0  0  0  0  0  0  0  0
  141.0280  153.9810  133.7070 C   0  0  0  0  0  0  0  0  0  0  0  0
  141.3530  155.0910  134.4940 C   0  0  0  0  0  0  0  0  0  0  0  0
  140.7560  156.3050  134.5270 N   0  0  0  0  0  0  0  0  0  0  0  0
  139.5940  156.7160  133.7870 C   0  0  0  0  0  0  0  0  0  0  0  0
  139.3770  156.2600  132.6330 O   0  0  0  0  0  0  0  0  0  0  0  0
  138.6930  157.6190  134.3400 O   0  0  0  0  0  0  0  0  0  0  0  0
  139.7440  159.8240  136.6680 H   0  0  0  0  0  0  0  0  0  0  0  0
  139.0800  158.1760  136.4060 H   0  0  0  0  0  0  0  0  0  0  0  0
  143.0895  156.5276  136.8905 H   0  0  0  0  0  0  0  0  0  0  0  0
  143.9280  153.8519  136.3610 H   0  0  0  0  0  0  0  0  0  0  0  0
  143.4219  151.8369  134.9439 H   0  0  0  0  0  0  0  0  0  0  0  0
  143.5276  150.8876  133.0099 H   0  0  0  0  0  0  0  0  0  0  0  0
  143.0199  148.8785  131.6310 H   0  0  0  0  0  0  0  0  0  0  0  0
  141.4098  147.4883  130.4251 H   0  0  0  0  0  0  0  0  0  0  0  0
  139.0709  147.0604  129.6704 H   0  0  0  0  0  0  0  0  0  0  0  0
  137.2431  148.6372  130.2986 H   0  0  0  0  0  0  0  0  0  0  0  0
  137.7417  150.6518  131.6816 H   0  0  0  0  0  0  0  0  0  0  0  0
  139.3505  152.0375  132.8940 H   0  0  0  0  0  0  0  0  0  0  0  0
  140.2043  154.0304  132.9796 H   0  0  0  0  0  0  0  0  0  0  0  0
  1  2  1  0
  2  3  2  0
  2  4  1  0
  4  5  2  0
  5  6  1  0
  6  7  2  0
  7  8  1  0
  8  9  2  0
  9 10  1  0
 10 11  2  0
 11 12  1  0
 12 13  2  0
 13 14  1  0
 14 15  2  0
 15 16  1  0
 16 17  2  0
 17 18  1  0
 18 19  2  0
  9 20  1  0
 20 21  2  0
 21 22  1  0
 22 23  1  0
 23 24  2  0
 23 25  1  0
 22  4  1  0
 21  6  1  0
 19 10  1  0
 18 13  1  0
  1 26  1  0
  1 27  1  0
  5 28  1  0
  7 29  1  0
  8 30  1  0
 11 31  1  0
 12 32  1  0
 14 33  1  0
 15 34  1  0
 16 35  1  0
 17 36  1  0
 19 37  1  0
 20 38  1  0
M  CHG  1  25  -1
M  END
>  <UniqueID>  (34) 
34

>  <SMILES>  (34) 
NC(=O)c1cc2ccc(-c3ccc4ccccc4c3)cc2n1C(=O)[O-]

>  <Energy>  (34) 
91.2873143113984

>  <Genealogy>  (34) 
NC(=O)c1cc2ccc(-c3ccc4ccccc4c3)cc2n1C(=O)[O-] (protonated)
NC(=O)c1cc2ccc(-c3ccc4ccccc4c3)cc2n1C(=O)[O-] (3D coordinates assigned)
NC(=O)c1cc2ccc(-c3ccc4ccccc4c3)cc2n1C(=O)[O-] (optimized conformer: 91.2873143113984 kcal/mol)

>  <smiles>  (34) 
NC(=O)c1cc2ccc(-c3ccc4ccccc4c3)cc2n1C(=O)O

>  <score_type>  (34) 
oracle

>  <origin>  (34) 
adg

>  <m_score__min__energy>  (34) 
-8.9800000000000004

>  <m_primary>  (34) 
energy

$$$$
34:0
     RDKit          3D

 34 35  0  0  0  0  0  0  0  0999 V2000
  149.6790  159.3700  132.0370 N   0  0  0  0  0  0  0  0  0  0  0  0
  148.7750  158.3320  132.4090 C   0  0  0  0  0  0  0  0  0  0  0  0
  149.1470  157.1320  132.3250 O   0  0  0  0  0  0  0  0  0  0  0  0
  147.4090  158.6730  132.8580 C   0  0  0  0  0  0  0  0  0  0  0  0
  146.9710  159.9770  133.0790 C   0  0  0  0  0  0  0  0  0  0  0  0
  145.6420  159.8640  133.4160 C   0  0  0  0  0  0  0  0  0  0  0  0
  144.7140  160.8490  133.7450 C   0  0  0  0  0  0  0  0  0  0  0  0
  143.4100  160.4410  134.0750 C   0  0  0  0  0  0  0  0  0  0  0  0
  143.0650  159.0670  134.0860 C   0  0  0  0  0  0  0  0  0  0  0  0
  141.6590  158.6400  134.4050 C   0  0  0  0  0  0  0  0  0  0  0  0
  141.2790  159.0970  135.7870 C   0  0  0  0  0  0  0  0  0  0  0  0
  140.9060  160.2460  135.9610 O   0  0  0  0  0  0  0  0  0  0  0  0
  141.3820  158.1610  136.9620 C   0  0  0  0  0  0  0  0  0  0  0  0
  140.2110  157.1830  136.9810 C   0  0  0  0  0  0  0  0  0  0  0  0
  140.5990  156.0070  137.5950 F   0  0  0  0  0  0  0  0  0  0  0  0
  144.0320  158.0970  133.7410 C   0  0  0  0  0  0  0  0  0  0  0  0
  145.3150  158.5330  133.3960 C   0  0  0  0  0  0  0  0  0  0  0  0
  146.3880  157.7890  133.0520 N   0  0  0  0  0  0  0  0  0  0  0  0
  146.4380  156.3560  132.9660 C   0  0  0  0  0  0  0  0  0  0  0  0
  147.0580  155.7220  131.8470 N   0  0  0  0  0  0  0  0  0  0  0  0
  145.9290  155.6510  133.8770 O   0  0  0  0  0  0  0  0  0  0  0  0
  150.6800  159.3420  132.3330 H   0  0  0  0  0  0  0  0  0  0  0  0
  147.5625  160.9011  133.0006 H   0  0  0  0  0  0  0  0  0  0  0  0
  144.9928  161.9131  133.7465 H   0  0  0  0  0  0  0  0  0  0  0  0
  142.6503  161.1956  134.3270 H   0  0  0  0  0  0  0  0  0  0  0  0
  140.9691  159.0846  133.6726 H   0  0  0  0  0  0  0  0  0  0  0  0
  141.5978  157.5426  134.3600 H   0  0  0  0  0  0  0  0  0  0  0  0
  142.3228  157.5955  136.8910 H   0  0  0  0  0  0  0  0  0  0  0  0
  141.3604  158.7544  137.8880 H   0  0  0  0  0  0  0  0  0  0  0  0
  139.3722  157.6270  137.5372 H   0  0  0  0  0  0  0  0  0  0  0  0
  139.8964  156.9696  135.9488 H   0  0  0  0  0  0  0  0  0  0  0  0
  143.7821  157.0258  133.7436 H   0  0  0  0  0  0  0  0  0  0  0  0
  147.0670  154.6800  131.7700 H   0  0  0  0  0  0  0  0  0  0  0  0
  147.5450  156.2870  131.1180 H   0  0  0  0  0  0  0  0  0  0  0  0
  1  2  1  0
  2  3  2  0
  2  4  1  0
  4  5  2  0
  5  6  1  0
  6  7  2  0
  7  8  1  0
  8  9  2  0
  9 10  1  0
 10 11  1  0
 11 12  2  0
 11 13  1  0
 13 14  1  0
 14 15  1  0
  9 16  1  0
 16 17  2  0
 17 18  1  0
 18 19  1  0
 19 20  1  0
 19 21  2  0
 18  4  1  0
 17  6  1  0
  1 22  1  0
  5 23  1  0
  7 24  1  0
  8 25  1  0
 10 26  1  0
 10 27  1  0
 13 28  1  0
 13 29  1  0
 14 30  1  0
 14 31  1  0
 16 32  1  0
 20 33  1  0
 20 34  1  0
M  CHG  1   1  -1
M  END
>  <UniqueID>  (35) 
35

>  <SMILES>  (35) 
[NH-]C(=O)c1cc2ccc(CC(=O)CCF)cc2n1C(N)=O

>  <Energy>  (35) 
65.22772837652585

>  <Genealogy>  (35) 
[NH-]C(=O)c1cc2ccc(CC(=O)CCF)cc2n1C(N)=O (protonated)
[NH-]C(=O)c1cc2ccc(CC(=O)CCF)cc2n1C(N)=O (3D coordinates assigned)
[NH-]C(=O)c1cc2ccc(CC(=O)CCF)cc2n1C(N)=O (optimized conformer: 65.22772837652585 kcal/mol)

>  <smiles>  (35) 
NC(=O)c1cc2ccc(CC(=O)CCF)cc2n1C(N)=O

>  <score_type>  (35) 
oracle

>  <origin>  (35) 
adg

>  <m_score__min__energy>  (35) 
-6.46

>  <m_primary>  (35) 
energy

$$$$
35:0
     RDKit          3D

 48 51  0  0  0  0  0  0  0  0999 V2000
  139.9480  150.3080  138.5330 N   0  0  0  0  0  0  0  0  0  0  0  0
  140.9700  151.1820  139.0070 C   0  0  0  0  0  0  0  0  0  0  0  0
  141.8630  150.7300  139.7720 O   0  0  0  0  0  0  0  0  0  0  0  0
  141.0280  152.5910  138.5680 C   0  0  0  0  0  0  0  0  0  0  0  0
  140.8080  153.6690  139.4230 C   0  0  0  0  0  0  0  0  0  0  0  0
  141.0430  154.7910  138.6630 C   0  0  0  0  0  0  0  0  0  0  0  0
  140.9580  156.1370  139.0060 C   0  0  0  0  0  0  0  0  0  0  0  0
  141.2260  157.0890  138.0090 C   0  0  0  0  0  0  0  0  0  0  0  0
  141.5640  156.6840  136.6910 C   0  0  0  0  0  0  0  0  0  0  0  0
  141.8280  157.6690  135.6730 N   0  0  0  0  0  0  0  0  0  0  0  0
  142.6620  157.3030  134.5210 C   0  0  0  0  0  0  0  0  0  0  0  0
  142.8440  158.4970  133.5730 C   0  0  0  0  0  0  0  0  0  0  0  0
  141.5680  159.2090  133.3600 N   0  0  0  0  0  0  0  0  0  0  0  0
  140.5980  158.4190  132.5560 C   0  0  0  0  0  0  0  0  0  0  0  0
  139.2220  159.1100  132.4540 C   0  0  0  0  0  0  0  0  0  0  0  0
  139.2150  160.5200  131.8650 C   0  0  0  0  0  0  0  0  0  0  0  0
  138.3520  160.0310  130.7090 C   0  0  0  0  0  0  0  0  0  0  0  0
  138.3470  158.6260  131.2970 C   0  0  0  0  0  0  0  0  0  0  0  0
  140.9930  159.7580  134.6180 C   0  0  0  0  0  0  0  0  0  0  0  0
  141.5060  159.0790  135.9060 C   0  0  0  0  0  0  0  0  0  0  0  0
  141.6380  155.3060  136.3840 C   0  0  0  0  0  0  0  0  0  0  0  0
  141.3850  154.3800  137.4010 C   0  0  0  0  0  0  0  0  0  0  0  0
  141.3770  153.0300  137.3250 N   0  0  0  0  0  0  0  0  0  0  0  0
  141.5930  152.2410  136.1440 C   0  0  0  0  0  0  0  0  0  0  0  0
  140.9830  151.1510  135.9860 O   0  0  0  0  0  0  0  0  0  0  0  0
  142.5000  152.6600  135.1780 O   0  0  0  0  0  0  0  0  0  0  0  0
  139.8630  150.0830  137.5170 H   0  0  0  0  0  0  0  0  0  0  0  0
  140.5097  153.6308  140.4811 H   0  0  0  0  0  0  0  0  0  0  0  0
  140.6891  156.4458  140.0269 H   0  0  0  0  0  0  0  0  0  0  0  0
  141.1734  158.1605  138.2520 H   0  0  0  0  0  0  0  0  0  0  0  0
  143.6486  156.9754  134.8806 H   0  0  0  0  0  0  0  0  0  0  0  0
  142.1636  156.4911  133.9710 H   0  0  0  0  0  0  0  0  0  0  0  0
  143.5750  159.1935  134.0094 H   0  0  0  0  0  0  0  0  0  0  0  0
  143.1989  158.1202  132.6024 H   0  0  0  0  0  0  0  0  0  0  0  0
  141.0036  158.2870  131.5421 H   0  0  0  0  0  0  0  0  0  0  0  0
  140.4524  157.4519  133.0595 H   0  0  0  0  0  0  0  0  0  0  0  0
  138.9160  158.9561  133.4993 H   0  0  0  0  0  0  0  0  0  0  0  0
  138.7271  161.2712  132.5035 H   0  0  0  0  0  0  0  0  0  0  0  0
  140.1605  161.0474  131.6704 H   0  0  0  0  0  0  0  0  0  0  0  0
  137.3583  160.5005  130.6620 H   0  0  0  0  0  0  0  0  0  0  0  0
  138.6727  160.1957  129.6697 H   0  0  0  0  0  0  0  0  0  0  0  0
  137.3522  158.2707  131.6039 H   0  0  0  0  0  0  0  0  0  0  0  0
  138.6562  157.7649  130.6864 H   0  0  0  0  0  0  0  0  0  0  0  0
  141.2419  160.8281  134.6712 H   0  0  0  0  0  0  0  0  0  0  0  0
  139.9100  159.5699  134.5752 H   0  0  0  0  0  0  0  0  0  0  0  0
  142.4110  159.6010  136.2501 H   0  0  0  0  0  0  0  0  0  0  0  0
  140.7127  159.1327  136.6661 H   0  0  0  0  0  0  0  0  0  0  0  0
  141.8891  154.9695  135.3673 H   0  0  0  0  0  0  0  0  0  0  0  0
  1  2  1  0
  2  3  2  0
  2  4  1  0
  4  5  2  0
  5  6  1  0
  6  7  2  0
  7  8  1  0
  8  9  2  0
  9 10  1  0
 10 11  1  0
 11 12  1  0
 12 13  1  0
 13 14  1  0
 14 15  1  0
 15 16  1  0
 16 17  1  0
 17 18  1  0
 13 19  1  0
 19 20  1  0
  9 21  1  0
 21 22  2  0
 22 23  1  0
 23 24  1  0
 24 25  2  0
 24 26  1  0
 23  4  1  0
 22  6  1  0
 20 10  1  0
 18 15  1  0
  1 27  1  0
  5 28  1  0
  7 29  1  0
  8 30  1  0
 11 31  1  0
 11 32  1  0
 12 33  1  0
 12 34  1  0
 14 35  1  0
 14 36  1  0
 15 37  1  0
 16 38  1  0
 16 39  1  0
 17 40  1  0
 17 41  1  0
 18 42  1  0
 18 43  1  0
 19 44  1  0
 19 45  1  0
 20 46  1  0
 20 47  1  0
 21 48  1  0
M  CHG  2   1  -1  26  -1
M  END
>  <UniqueID>  (36) 
36

>  <SMILES>  (36) 
[NH-]C(=O)c1cc2ccc(N3CCN(CC4CCC4)CC3)cc2n1C(=O)[O-]

>  <Energy>  (36) 
164.1286944964623

>  <Genealogy>  (36) 
[NH-]C(=O)c1cc2ccc(N3CCN(CC4CCC4)CC3)cc2n1C(=O)[O-] (protonated)
[NH-]C(=O)c1cc2ccc(N3CCN(CC4CCC4)CC3)cc2n1C(=O)[O-] (3D coordinates assigned)
[NH-]C(=O)c1cc2ccc(N3CCN(CC4CCC4)CC3)cc2n1C(=O)[O-] (nonaromatic ring conformer: 164.1286944964623 kcal/mol)

>  <smiles>  (36) 
NC(=O)c1cc2ccc(N3CCN(CC4CCC4)CC3)cc2n1C(=O)O

>  <score_type>  (36) 
oracle

>  <origin>  (36) 
adg

>  <m_score__min__energy>  (36) 
-8.5299999999999994

>  <m_primary>  (36) 
energy

$$$$
36:0
     RDKit          3D

 50 51  0  0  0  0  0  0  0  0999 V2000
  143.8930  155.3210  135.1670 C   0  0  0  0  0  0  0  0  0  0  0  0
  143.6610  154.9360  133.6880 C   0  0  0  0  0  0  0  0  0  0  0  0
  143.4480  153.4120  133.5850 C   0  0  0  0  0  0  0  0  0  0  0  0
  144.9190  155.2980  132.8360 C   0  0  0  0  0  0  0  0  0  0  0  0
  145.4330  156.7060  133.0460 C   0  0  0  0  0  0  0  0  0  0  0  0
  146.8080  157.0040  132.8610 C   0  0  0  0  0  0  0  0  0  0  0  0
  147.2950  158.3060  133.0600 C   0  0  0  0  0  0  0  0  0  0  0  0
  146.3890  159.2890  133.4470 C   0  0  0  0  0  0  0  0  0  0  0  0
  146.5960  160.6190  133.7330 C   0  0  0  0  0  0  0  0  0  0  0  0
  145.3440  161.1210  134.0820 C   0  0  0  0  0  0  0  0  0  0  0  0
  145.0950  162.5460  134.3810 C   0  0  0  0  0  0  0  0  0  0  0  0
  144.1690  163.3060  133.6090 N   0  0  0  0  0  0  0  0  0  0  0  0
  145.7470  163.1140  135.2970 O   0  0  0  0  0  0  0  0  0  0  0  0
  144.4000  160.1370  134.0230 N   0  0  0  0  0  0  0  0  0  0  0  0
  143.0150  160.2260  134.3950 C   0  0  0  0  0  0  0  0  0  0  0  0
  142.5710  159.5430  135.3560 O   0  0  0  0  0  0  0  0  0  0  0  0
  142.1610  161.0860  133.7180 O   0  0  0  0  0  0  0  0  0  0  0  0
  145.0570  159.0230  133.6290 C   0  0  0  0  0  0  0  0  0  0  0  0
  144.5490  157.7300  133.4590 C   0  0  0  0  0  0  0  0  0  0  0  0
  142.4730  155.6320  133.1530 N   0  0  0  0  0  0  0  0  0  0  0  0
  141.1810  155.6770  133.7810 C   0  0  0  0  0  0  0  0  0  0  0  0
  140.9750  155.0790  134.8700 O   0  0  0  0  0  0  0  0  0  0  0  0
  140.1540  156.3980  133.1540 O   0  0  0  0  0  0  0  0  0  0  0  0
  139.8410  157.7850  133.3570 C   0  0  0  0  0  0  0  0  0  0  0  0
  140.0560  158.0830  134.8490 C   0  0  0  0  0  0  0  0  0  0  0  0
  140.7810  158.6810  132.5290 C   0  0  0  0  0  0  0  0  0  0  0  0
  138.3680  158.0660  133.0020 C   0  0  0  0  0  0  0  0  0  0  0  0
  143.4359  154.5624  135.8194 H   0  0  0  0  0  0  0  0  0  0  0  0
  144.9734  155.3737  135.3670 H   0  0  0  0  0  0  0  0  0  0  0  0
  143.4349  156.3008  135.3670 H   0  0  0  0  0  0  0  0  0  0  0  0
  143.3878  152.9811  134.5953 H   0  0  0  0  0  0  0  0  0  0  0  0
  142.5127  153.2083  133.0431 H   0  0  0  0  0  0  0  0  0  0  0  0
  144.2917  152.9597  133.0431 H   0  0  0  0  0  0  0  0  0  0  0  0
  145.7244  154.5955  133.0962 H   0  0  0  0  0  0  0  0  0  0  0  0
  144.6139  155.2295  131.7814 H   0  0  0  0  0  0  0  0  0  0  0  0
  147.5009  156.2053  132.5579 H   0  0  0  0  0  0  0  0  0  0  0  0
  148.3596  158.5416  132.9145 H   0  0  0  0  0  0  0  0  0  0  0  0
  147.5478  161.1691  133.6943 H   0  0  0  0  0  0  0  0  0  0  0  0
  143.1960  162.9640  133.4480 H   0  0  0  0  0  0  0  0  0  0  0  0
  143.4859  157.5149  133.6425 H   0  0  0  0  0  0  0  0  0  0  0  0
  142.5340  156.1060  132.2260 H   0  0  0  0  0  0  0  0  0  0  0  0
  139.5181  157.3375  135.4530 H   0  0  0  0  0  0  0  0  0  0  0  0
  141.1303  158.0369  135.0810 H   0  0  0  0  0  0  0  0  0  0  0  0
  139.6735  159.0879  135.0810 H   0  0  0  0  0  0  0  0  0  0  0  0
  141.4084  159.2790  133.2064 H   0  0  0  0  0  0  0  0  0  0  0  0
  141.4227  158.0519  131.8946 H   0  0  0  0  0  0  0  0  0  0  0  0
  140.1833  159.3521  131.8946 H   0  0  0  0  0  0  0  0  0  0  0  0
  137.7828  158.1776  133.9267 H   0  0  0  0  0  0  0  0  0  0  0  0
  138.3031  158.9927  132.4129 H   0  0  0  0  0  0  0  0  0  0  0  0
  137.9666  157.2282  132.4129 H   0  0  0  0  0  0  0  0  0  0  0  0
  1  2  1  0
  2  3  1  0
  2  4  1  0
  4  5  1  0
  5  6  2  0
  6  7  1  0
  7  8  2  0
  8  9  1  0
  9 10  2  0
 10 11  1  0
 11 12  1  0
 11 13  2  0
 10 14  1  0
 14 15  1  0
 15 16  2  0
 15 17  1  0
 14 18  1  0
 18 19  2  0
  2 20  1  0
 20 21  1  0
 21 22  2  0
 21 23  1  0
 23 24  1  0
 24 25  1  0
 24 26  1  0
 24 27  1  0
 19  5  1  0
 18  8  1  0
  1 28  1  0
  1 29  1  0
  1 30  1  0
  3 31  1  0
  3 32  1  0
  3 33  1  0
  4 34  1  0
  4 35  1  0
  6 36  1  0
  7 37  1  0
  9 38  1  0
 12 39  1  0
 19 40  1  0
 20 41  1  0
 25 42  1  0
 25 43  1  0
 25 44  1  0
 26 45  1  0
 26 46  1  0
 26 47  1  0
 27 48  1  0
 27 49  1  0
 27 50  1  0
M  CHG  2  12  -1  17  -1
M  END
>  <UniqueID>  (37) 
37

>  <SMILES>  (37) 
CC(C)(Cc1ccc2cc(C([NH-])=O)n(C(=O)[O-])c2c1)NC(=O)OC(C)(C)C

>  <Energy>  (37) 
82.54215050983963

>  <Genealogy>  (37) 
CC(C)(Cc1ccc2cc(C([NH-])=O)n(C(=O)[O-])c2c1)NC(=O)OC(C)(C)C (protonated)
CC(C)(Cc1ccc2cc(C([NH-])=O)n(C(=O)[O-])c2c1)NC(=O)OC(C)(C)C (3D coordinates assigned)
CC(C)(Cc1ccc2cc(C([NH-])=O)n(C(=O)[O-])c2c1)NC(=O)OC(C)(C)C (optimized conformer: 82.54215050983963 kcal/mol)

>  <smiles>  (37) 
CC(C)(Cc1ccc2cc(C(N)=O)n(C(=O)O)c2c1)NC(=O)OC(C)(C)C

>  <score_type>  (37) 
oracle

>  <origin>  (37) 
adg

>  <m_score__min__energy>  (37) 
-7.9199999999999999

>  <m_primary>  (37) 
energy

$$$$
37:0
     RDKit          3D

 48 51  0  0  0  0  0  0  0  0999 V2000
  147.9760  159.0220  132.9040 C   0  0  0  0  0  0  0  0  0  0  0  0
  146.5990  159.4680  133.3030 C   0  0  0  0  0  0  0  0  0  0  0  0
  146.3780  160.8010  133.7300 C   0  0  0  0  0  0  0  0  0  0  0  0
  145.0900  161.2330  134.0890 C   0  0  0  0  0  0  0  0  0  0  0  0
  144.0440  160.3190  133.9920 C   0  0  0  0  0  0  0  0  0  0  0  0
  142.7110  160.4610  134.3030 C   0  0  0  0  0  0  0  0  0  0  0  0
  142.1330  159.2240  134.0240 C   0  0  0  0  0  0  0  0  0  0  0  0
  140.6850  158.9520  134.1600 C   0  0  0  0  0  0  0  0  0  0  0  0
  140.1720  158.2200  135.2710 N   0  0  0  0  0  0  0  0  0  0  0  0
  139.8900  159.3390  133.2610 O   0  0  0  0  0  0  0  0  0  0  0  0
  143.0730  158.3510  133.5620 N   0  0  0  0  0  0  0  0  0  0  0  0
  142.9030  156.9650  133.2310 C   0  0  0  0  0  0  0  0  0  0  0  0
  143.6880  156.4220  132.4040 O   0  0  0  0  0  0  0  0  0  0  0  0
  141.8680  156.1990  133.8650 N   0  0  0  0  0  0  0  0  0  0  0  0
  141.5300  154.8520  133.4960 C   0  0  0  0  0  0  0  0  0  0  0  0
  142.5160  153.8600  133.5110 C   0  0  0  0  0  0  0  0  0  0  0  0
  142.2030  152.5490  133.1510 C   0  0  0  0  0  0  0  0  0  0  0  0
  140.8800  152.2190  132.7950 C   0  0  0  0  0  0  0  0  0  0  0  0
  140.5080  150.8780  132.3950 N   0  0  0  0  0  0  0  0  0  0  0  0
  141.3190  149.7470  132.8730 C   0  0  0  0  0  0  0  0  0  0  0  0
  141.1030  148.5040  132.0050 C   0  0  0  0  0  0  0  0  0  0  0  0
  139.7240  148.2430  131.8350 O   0  0  0  0  0  0  0  0  0  0  0  0
  139.1490  149.2800  131.0710 C   0  0  0  0  0  0  0  0  0  0  0  0
  139.1700  150.6040  131.8410 C   0  0  0  0  0  0  0  0  0  0  0  0
  139.9350  153.2020  132.8160 N   0  0  0  0  0  0  0  0  0  0  0  0
  140.2200  154.4870  133.1570 C   0  0  0  0  0  0  0  0  0  0  0  0
  144.2380  159.0350  133.5490 C   0  0  0  0  0  0  0  0  0  0  0  0
  145.5130  158.5720  133.2010 C   0  0  0  0  0  0  0  0  0  0  0  0
  148.5745  158.8282  133.8064 H   0  0  0  0  0  0  0  0  0  0  0  0
  147.9044  158.1011  132.3067 H   0  0  0  0  0  0  0  0  0  0  0  0
  148.4579  159.8100  132.3067 H   0  0  0  0  0  0  0  0  0  0  0  0
  147.2225  161.5040  133.7809 H   0  0  0  0  0  0  0  0  0  0  0  0
  144.9134  162.2618  134.4361 H   0  0  0  0  0  0  0  0  0  0  0  0
  142.2085  161.3599  134.6896 H   0  0  0  0  0  0  0  0  0  0  0  0
  139.3560  157.5800  135.1590 H   0  0  0  0  0  0  0  0  0  0  0  0
  141.4340  156.5970  134.7290 H   0  0  0  0  0  0  0  0  0  0  0  0
  143.5439  154.1150  133.8083 H   0  0  0  0  0  0  0  0  0  0  0  0
  142.9857  151.7761  133.1451 H   0  0  0  0  0  0  0  0  0  0  0  0
  142.3819  150.0281  132.8388 H   0  0  0  0  0  0  0  0  0  0  0  0
  141.0131  149.5099  133.9027 H   0  0  0  0  0  0  0  0  0  0  0  0
  141.5630  148.6682  131.0194 H   0  0  0  0  0  0  0  0  0  0  0  0
  141.5659  147.6404  132.5050 H   0  0  0  0  0  0  0  0  0  0  0  0
  139.7186  149.3975  130.1373 H   0  0  0  0  0  0  0  0  0  0  0  0
  138.1033  149.0172  130.8533 H   0  0  0  0  0  0  0  0  0  0  0  0
  138.8903  151.4202  131.1587 H   0  0  0  0  0  0  0  0  0  0  0  0
  138.4560  150.5331  132.6747 H   0  0  0  0  0  0  0  0  0  0  0  0
  139.4202  155.2422  133.1668 H   0  0  0  0  0  0  0  0  0  0  0  0
  145.6642  157.5380  132.8575 H   0  0  0  0  0  0  0  0  0  0  0  0
  1  2  1  0
  2  3  2  0
  3  4  1  0
  4  5  2  0
  5  6  1  0
  6  7  2  0
  7  8  1  0
  8  9  1  0
  8 10  2  0
  7 11  1  0
 11 12  1  0
 12 13  2  0
 12 14  1  0
 14 15  1  0
 15 16  2  0
 16 17  1  0
 17 18  2  0
 18 19  1  0
 19 20  1  0
 20 21  1  0
 21 22  1  0
 22 23  1  0
 23 24  1  0
 18 25  1  0
 25 26  2  0
 11 27  1  0
 27 28  2  0
 28  2  1  0
 27  5  1  0
 26 15  1  0
 24 19  1  0
  1 29  1  0
  1 30  1  0
  1 31  1  0
  3 32  1  0
  4 33  1  0
  6 34  1  0
  9 35  1  0
 14 36  1  0
 16 37  1  0
 17 38  1  0
 20 39  1  0
 20 40  1  0
 21 41  1  0
 21 42  1  0
 23 43  1  0
 23 44  1  0
 24 45  1  0
 24 46  1  0
 26 47  1  0
 28 48  1  0
M  CHG  1   9  -1
M  END
>  <UniqueID>  (38) 
38

>  <SMILES>  (38) 
Cc1ccc2cc(C([NH-])=O)n(C(=O)Nc3ccc(N4CCOCC4)nc3)c2c1

>  <Energy>  (38) 
98.51182959213848

>  <Genealogy>  (38) 
Cc1ccc2cc(C([NH-])=O)n(C(=O)Nc3ccc(N4CCOCC4)nc3)c2c1 (protonated)
Cc1ccc2cc(C([NH-])=O)n(C(=O)Nc3ccc(N4CCOCC4)nc3)c2c1 (3D coordinates assigned)
Cc1ccc2cc(C([NH-])=O)n(C(=O)Nc3ccc(N4CCOCC4)nc3)c2c1 (nonaromatic ring conformer: 98.51182959213848 kcal/mol)

>  <smiles>  (38) 
Cc1ccc2cc(C(N)=O)n(C(=O)Nc3ccc(N4CCOCC4)nc3)c2c1

>  <score_type>  (38) 
oracle

>  <origin>  (38) 
adg

>  <m_score__min__energy>  (38) 
-8.5299999999999994

>  <m_primary>  (38) 
energy

$$$$
38:0
     RDKit          3D

 43 45  0  0  0  0  0  0  0  0999 V2000
  139.6270  159.0380  131.4630 C   0  0  0  0  0  0  0  0  0  0  0  0
  139.8260  159.0920  132.9820 C   0  0  2  0  0  0  0  0  0  0  0  0
  141.2710  159.3690  133.3280 C   0  0  0  0  0  0  0  0  0  0  0  0
  141.7380  160.4740  134.0090 C   0  0  0  0  0  0  0  0  0  0  0  0
  143.1010  160.2990  134.1220 C   0  0  0  0  0  0  0  0  0  0  0  0
  143.3820  159.0910  133.5030 C   0  0  0  0  0  0  0  0  0  0  0  0
  144.7080  158.4460  133.3590 C   0  0  0  0  0  0  0  0  0  0  0  0
  145.8690  159.2580  133.2780 C   0  0  0  0  0  0  0  0  0  0  0  0
  147.1430  158.6810  133.1520 C   0  0  0  0  0  0  0  0  0  0  0  0
  147.2290  157.2940  133.1010 C   0  0  0  0  0  0  0  0  0  0  0  0
  148.3340  156.4800  133.0110 C   0  0  0  0  0  0  0  0  0  0  0  0
  147.8360  155.1790  133.0140 C   0  0  0  0  0  0  0  0  0  0  0  0
  148.6890  153.9810  132.8540 C   0  0  0  0  0  0  0  0  0  0  0  0
  148.2560  152.7050  133.3160 N   0  0  0  0  0  0  0  0  0  0  0  0
  149.7950  154.0790  132.2590 O   0  0  0  0  0  0  0  0  0  0  0  0
  146.4760  155.1880  133.1080 N   0  0  0  0  0  0  0  0  0  0  0  0
  145.5940  154.0600  133.2220 C   0  0  0  0  0  0  0  0  0  0  0  0
  145.6900  152.9780  132.2990 N   0  0  0  0  0  0  0  0  0  0  0  0
  144.7230  154.0270  134.1310 O   0  0  0  0  0  0  0  0  0  0  0  0
  146.1200  156.4920  133.1590 C   0  0  0  0  0  0  0  0  0  0  0  0
  144.8390  157.0380  133.3050 C   0  0  0  0  0  0  0  0  0  0  0  0
  142.2690  158.5640  133.0420 O   0  0  0  0  0  0  0  0  0  0  0  0
  139.2910  157.8650  133.6310 N   0  0  0  0  0  0  0  0  0  0  0  0
  139.5510  157.8640  135.0810 C   0  0  0  0  0  0  0  0  0  0  0  0
  139.7720  156.6060  133.0310 C   0  0  0  0  0  0  0  0  0  0  0  0
  138.5876  158.7559  131.2392 H   0  0  0  0  0  0  0  0  0  0  0  0
  139.8401  160.0264  131.0299 H   0  0  0  0  0  0  0  0  0  0  0  0
  140.3105  158.2928  131.0299 H   0  0  0  0  0  0  0  0  0  0  0  0
  139.2456  159.9339  133.3872 H   0  0  0  0  0  0  0  0  0  0  0  0
  141.1449  161.3208  134.3847 H   0  0  0  0  0  0  0  0  0  0  0  0
  143.8185  160.9789  134.6046 H   0  0  0  0  0  0  0  0  0  0  0  0
  145.7697  160.3529  133.3144 H   0  0  0  0  0  0  0  0  0  0  0  0
  148.0456  159.3072  133.0953 H   0  0  0  0  0  0  0  0  0  0  0  0
  149.3875  156.7904  132.9497 H   0  0  0  0  0  0  0  0  0  0  0  0
  147.3000  152.5730  133.7140 H   0  0  0  0  0  0  0  0  0  0  0  0
  146.6010  152.7310  131.8540 H   0  0  0  0  0  0  0  0  0  0  0  0
  143.9548  156.3875  133.3761 H   0  0  0  0  0  0  0  0  0  0  0  0
  138.5949  157.8677  135.6249 H   0  0  0  0  0  0  0  0  0  0  0  0
  140.1226  156.9636  135.3504 H   0  0  0  0  0  0  0  0  0  0  0  0
  140.1296  158.7599  135.3504 H   0  0  0  0  0  0  0  0  0  0  0  0
  140.0421  155.8991  133.8293 H   0  0  0  0  0  0  0  0  0  0  0  0
  138.9773  156.1696  132.4082 H   0  0  0  0  0  0  0  0  0  0  0  0
  140.6553  156.8106  132.4082 H   0  0  0  0  0  0  0  0  0  0  0  0
  1  2  1  0
  2  3  1  0
  3  4  2  0
  4  5  1  0
  5  6  2  0
  6  7  1  0
  7  8  2  0
  8  9  1  0
  9 10  2  0
 10 11  1  0
 11 12  2  0
 12 13  1  0
 13 14  1  0
 13 15  2  0
 12 16  1  0
 16 17  1  0
 17 18  1  0
 17 19  2  0
 16 20  1  0
 20 21  2  0
  6 22  1  0
  2 23  1  0
 23 24  1  0
 23 25  1  0
 22  3  1  0
 21  7  1  0
 20 10  1  0
  1 26  1  0
  1 27  1  0
  1 28  1  0
  2 29  1  1
  4 30  1  0
  5 31  1  0
  8 32  1  0
  9 33  1  0
 11 34  1  0
 14 35  1  0
 18 36  1  0
 21 37  1  0
 24 38  1  0
 24 39  1  0
 24 40  1  0
 25 41  1  0
 25 42  1  0
 25 43  1  0
M  CHG  2  14  -1  18  -1
M  END
>  <UniqueID>  (39) 
39

>  <SMILES>  (39) 
C[C@H](c1ccc(-c2ccc3cc(C([NH-])=O)n(C([NH-])=O)c3c2)o1)N(C)C

>  <Energy>  (39) 
112.6148616913447

>  <Genealogy>  (39) 
C[C@H](c1ccc(-c2ccc3cc(C([NH-])=O)n(C([NH-])=O)c3c2)o1)N(C)C (protonated)
C[C@H](c1ccc(-c2ccc3cc(C([NH-])=O)n(C([NH-])=O)c3c2)o1)N(C)C (3D coordinates assigned)
C[C@H](c1ccc(-c2ccc3cc(C([NH-])=O)n(C([NH-])=O)c3c2)o1)N(C)C (optimized conformer: 112.6148616913447 kcal/mol)

>  <smiles>  (39) 
C[C@H](c1ccc(-c2ccc3cc(C(N)=O)n(C(N)=O)c3c2)o1)N(C)C

>  <score_type>  (39) 
oracle

>  <origin>  (39) 
adg

>  <m_score__min__energy>  (39) 
-7.8399999999999999

>  <m_primary>  (39) 
energy

$$$$
39:0
     RDKit          3D

 50 53  0  0  0  0  0  0  0  0999 V2000
  140.8140  159.2310  136.0850 C   0  0  0  0  0  0  0  0  0  0  0  0
  141.0150  158.1850  135.5210 C   0  0  0  0  0  0  0  0  0  0  0  0
  141.2540  156.9410  134.8420 C   0  0  0  0  0  0  0  0  0  0  0  0
  140.2230  156.3460  134.0760 C   0  0  0  0  0  0  0  0  0  0  0  0
  140.4490  155.1410  133.3890 C   0  0  0  0  0  0  0  0  0  0  0  0
  141.7080  154.5600  133.4970 C   0  0  0  0  0  0  0  0  0  0  0  0
  142.2100  153.4210  132.9090 C   0  0  0  0  0  0  0  0  0  0  0  0
  143.5290  153.3320  133.3490 C   0  0  0  0  0  0  0  0  0  0  0  0
  144.4420  152.2300  132.9800 C   0  0  0  0  0  0  0  0  0  0  0  0
  145.8210  152.2480  133.3560 N   0  0  0  0  0  0  0  0  0  0  0  0
  143.9910  151.2420  132.3410 O   0  0  0  0  0  0  0  0  0  0  0  0
  143.8340  154.3800  134.1660 N   0  0  0  0  0  0  0  0  0  0  0  0
  145.1210  154.7320  134.6920 C   0  0  0  0  0  0  0  0  0  0  0  0
  145.5340  154.1990  135.7570 O   0  0  0  0  0  0  0  0  0  0  0  0
  145.9240  155.7100  134.0280 N   0  0  0  0  0  0  0  0  0  0  0  0
  145.7290  156.7490  133.0030 C   0  0  0  0  0  0  0  0  0  0  0  0
  147.1350  157.2940  133.0580 C   0  0  0  0  0  0  0  0  0  0  0  0
  147.3980  158.6520  133.6240 N   0  0  0  0  0  0  0  0  0  0  0  0
  146.7840  159.8190  132.9510 C   0  0  0  0  0  0  0  0  0  0  0  0
  147.4680  160.1190  131.6080 C   0  0  0  0  0  0  0  0  0  0  0  0
  148.9050  160.3660  131.8270 N   0  0  0  0  0  0  0  0  0  0  0  0
  149.5660  160.6610  130.5450 C   0  0  0  0  0  0  0  0  0  0  0  0
  149.5370  159.1950  132.4650 C   0  0  0  0  0  0  0  0  0  0  0  0
  148.8460  158.8820  133.8070 C   0  0  0  0  0  0  0  0  0  0  0  0
  147.2980  156.2380  134.1090 C   0  0  0  0  0  0  0  0  0  0  0  0
  142.7090  155.1200  134.2510 C   0  0  0  0  0  0  0  0  0  0  0  0
  142.5180  156.3250  134.9320 C   0  0  0  0  0  0  0  0  0  0  0  0
  140.6305  160.1857  136.5998 H   0  0  0  0  0  0  0  0  0  0  0  0
  139.2372  156.8306  134.0180 H   0  0  0  0  0  0  0  0  0  0  0  0
  139.6568  154.6731  132.7861 H   0  0  0  0  0  0  0  0  0  0  0  0
  141.6826  152.7292  132.2358 H   0  0  0  0  0  0  0  0  0  0  0  0
  146.1800  152.9210  134.0700 H   0  0  0  0  0  0  0  0  0  0  0  0
  146.4700  151.5150  132.9950 H   0  0  0  0  0  0  0  0  0  0  0  0
  145.4739  156.3311  132.0180 H   0  0  0  0  0  0  0  0  0  0  0  0
  144.9082  157.4634  133.1637 H   0  0  0  0  0  0  0  0  0  0  0  0
  147.7100  157.4336  132.1307 H   0  0  0  0  0  0  0  0  0  0  0  0
  145.7195  159.6084  132.7708 H   0  0  0  0  0  0  0  0  0  0  0  0
  146.9047  160.6964  133.6033 H   0  0  0  0  0  0  0  0  0  0  0  0
  147.3433  159.2588  130.9339 H   0  0  0  0  0  0  0  0  0  0  0  0
  147.0094  161.0112  131.1567 H   0  0  0  0  0  0  0  0  0  0  0  0
  150.5553  161.1025  130.7356 H   0  0  0  0  0  0  0  0  0  0  0  0
  149.6843  159.7303  129.9708 H   0  0  0  0  0  0  0  0  0  0  0  0
  148.9522  161.3706  129.9708 H   0  0  0  0  0  0  0  0  0  0  0  0
  149.4464  158.3249  131.7981 H   0  0  0  0  0  0  0  0  0  0  0  0
  150.5982  159.4169  132.6510 H   0  0  0  0  0  0  0  0  0  0  0  0
  149.3001  157.9795  134.2420 H   0  0  0  0  0  0  0  0  0  0  0  0
  148.9788  159.7452  134.4758 H   0  0  0  0  0  0  0  0  0  0  0  0
  148.0561  155.4875  133.8407 H   0  0  0  0  0  0  0  0  0  0  0  0
  147.6458  156.5702  135.0983 H   0  0  0  0  0  0  0  0  0  0  0  0
  143.3293  156.7787  135.5202 H   0  0  0  0  0  0  0  0  0  0  0  0
  1  2  3  0
  2  3  1  0
  3  4  2  0
  4  5  1  0
  5  6  2  0
  6  7  1  0
  7  8  2  0
  8  9  1  0
  9 10  1  0
  9 11  2  0
  8 12  1  0
 12 13  1  0
 13 14  2  0
 13 15  1  0
 15 16  1  0
 16 17  1  0
 17 18  1  0
 18 19  1  0
 19 20  1  0
 20 21  1  0
 21 22  1  0
 21 23  1  0
 23 24  1  0
 17 25  1  0
 12 26  1  0
 26 27  2  0
 27  3  1  0
 26  6  1  0
 25 15  1  0
 24 18  1  0
  1 28  1  0
  4 29  1  0
  5 30  1  0
  7 31  1  0
 10 32  1  0
 10 33  1  0
 16 34  1  0
 16 35  1  0
 17 36  1  0
 19 37  1  0
 19 38  1  0
 20 39  1  0
 20 40  1  0
 22 41  1  0
 22 42  1  0
 22 43  1  0
 23 44  1  0
 23 45  1  0
 24 46  1  0
 24 47  1  0
 25 48  1  0
 25 49  1  0
 27 50  1  0
M  END
>  <UniqueID>  (40) 
40

>  <SMILES>  (40) 
C#Cc1ccc2cc(C(N)=O)n(C(=O)N3CC(N4CCN(C)CC4)C3)c2c1

>  <Energy>  (40) 
148.1264252431048

>  <Genealogy>  (40) 
C#Cc1ccc2cc(C(N)=O)n(C(=O)N3CC(N4CCN(C)CC4)C3)c2c1 (3D coordinates assigned)
C#Cc1ccc2cc(C(N)=O)n(C(=O)N3CC(N4CCN(C)CC4)C3)c2c1 (nonaromatic ring conformer: 148.1264252431048 kcal/mol)

>  <smiles>  (40) 
C#Cc1ccc2cc(C(N)=O)n(C(=O)N3CC(N4CCN(C)CC4)C3)c2c1

>  <score_type>  (40) 
oracle

>  <origin>  (40) 
adg

>  <m_score__min__energy>  (40) 
-8.8900000000000006

>  <m_primary>  (40) 
energy

$$$$
40:0
     RDKit          3D

 37 38  0  0  0  0  0  0  0  0999 V2000
  138.5750  159.9880  131.0540 C   0  0  0  0  0  0  0  0  0  0  0  0
  139.2190  158.8010  131.7650 C   0  0  0  0  0  0  0  0  0  0  0  0
  140.6120  159.1650  132.2950 C   0  0  0  0  0  0  0  0  0  0  0  0
  141.3700  157.9300  132.7820 C   0  0  0  0  0  0  0  0  0  0  0  0
  142.7740  158.1400  132.6550 O   0  0  0  0  0  0  0  0  0  0  0  0
  143.6340  158.2010  133.7550 C   0  0  0  0  0  0  0  0  0  0  0  0
  143.2640  157.7580  134.8770 O   0  0  0  0  0  0  0  0  0  0  0  0
  144.9320  158.7970  133.6110 N   0  0  0  0  0  0  0  0  0  0  0  0
  145.2450  160.1230  133.5560 C   0  0  0  0  0  0  0  0  0  0  0  0
  144.3170  161.2470  133.7990 C   0  0  0  0  0  0  0  0  0  0  0  0
  142.9050  161.0620  133.7240 N   0  0  0  0  0  0  0  0  0  0  0  0
  144.7740  162.3740  134.1290 O   0  0  0  0  0  0  0  0  0  0  0  0
  146.6080  160.2940  133.3240 C   0  0  0  0  0  0  0  0  0  0  0  0
  147.1280  159.0240  133.2460 C   0  0  0  0  0  0  0  0  0  0  0  0
  148.4370  158.6040  133.0340 C   0  0  0  0  0  0  0  0  0  0  0  0
  148.6870  157.2220  132.9850 C   0  0  0  0  0  0  0  0  0  0  0  0
  147.6280  156.2880  133.1220 C   0  0  0  0  0  0  0  0  0  0  0  0
  147.9140  154.8070  133.1060 C   0  0  0  0  0  0  0  0  0  0  0  0
  149.0150  154.5310  132.3130 F   0  0  0  0  0  0  0  0  0  0  0  0
  146.8150  154.1380  132.6010 F   0  0  0  0  0  0  0  0  0  0  0  0
  148.1760  154.3460  134.3840 F   0  0  0  0  0  0  0  0  0  0  0  0
  146.3140  156.7550  133.3590 C   0  0  0  0  0  0  0  0  0  0  0  0
  146.0970  158.1370  133.4220 C   0  0  0  0  0  0  0  0  0  0  0  0
  138.1899  160.6979  131.8009 H   0  0  0  0  0  0  0  0  0  0  0  0
  139.3249  160.4892  130.4243 H   0  0  0  0  0  0  0  0  0  0  0  0
  137.7460  159.6326  130.4243 H   0  0  0  0  0  0  0  0  0  0  0  0
  138.5813  158.4983  132.6086 H   0  0  0  0  0  0  0  0  0  0  0  0
  139.3235  157.9765  131.0444 H   0  0  0  0  0  0  0  0  0  0  0  0
  141.1876  159.6417  131.4878 H   0  0  0  0  0  0  0  0  0  0  0  0
  140.4876  159.8500  133.1467 H   0  0  0  0  0  0  0  0  0  0  0  0
  141.1233  157.7436  133.8376 H   0  0  0  0  0  0  0  0  0  0  0  0
  141.0774  157.0623  132.1724 H   0  0  0  0  0  0  0  0  0  0  0  0
  142.4960  160.1260  133.5090 H   0  0  0  0  0  0  0  0  0  0  0  0
  147.1528  161.2444  133.2243 H   0  0  0  0  0  0  0  0  0  0  0  0
  149.2521  159.3319  132.9084 H   0  0  0  0  0  0  0  0  0  0  0  0
  149.7155  156.8603  132.8388 H   0  0  0  0  0  0  0  0  0  0  0  0
  145.4813  156.0484  133.4908 H   0  0  0  0  0  0  0  0  0  0  0  0
  1  2  1  0
  2  3  1  0
  3  4  1  0
  4  5  1  0
  5  6  1  0
  6  7  2  0
  6  8  1  0
  8  9  1  0
  9 10  1  0
 10 11  1  0
 10 12  2  0
  9 13  2  0
 13 14  1  0
 14 15  2  0
 15 16  1  0
 16 17  2  0
 17 18  1  0
 18 19  1  0
 18 20  1  0
 18 21  1  0
 17 22  1  0
 22 23  2  0
 23  8  1  0
 23 14  1  0
  1 24  1  0
  1 25  1  0
  1 26  1  0
  2 27  1  0
  2 28  1  0
  3 29  1  0
  3 30  1  0
  4 31  1  0
  4 32  1  0
 11 33  1  0
 13 34  1  0
 15 35  1  0
 16 36  1  0
 22 37  1  0
M  CHG  1  11  -1
M  END
>  <UniqueID>  (41) 
41

>  <SMILES>  (41) 
CCCCOC(=O)n1c(C([NH-])=O)cc2ccc(C(F)(F)F)cc21

>  <Energy>  (41) 
67.6399010388338

>  <Genealogy>  (41) 
CCCCOC(=O)n1c(C([NH-])=O)cc2ccc(C(F)(F)F)cc21 (protonated)
CCCCOC(=O)n1c(C([NH-])=O)cc2ccc(C(F)(F)F)cc21 (3D coordinates assigned)
CCCCOC(=O)n1c(C([NH-])=O)cc2ccc(C(F)(F)F)cc21 (optimized conformer: 67.6399010388338 kcal/mol)

>  <smiles>  (41) 
CCCCOC(=O)n1c(C(N)=O)cc2ccc(C(F)(F)F)cc21

>  <score_type>  (41) 
oracle

>  <origin>  (41) 
adg

>  <m_score__min__energy>  (41) 
-6.1699999999999999

>  <m_primary>  (41) 
energy

$$$$
41:0
     RDKit          3D

 34 36  0  0  0  0  0  0  0  0999 V2000
  149.9150  158.1620  131.8660 C   0  0  0  0  0  0  0  0  0  0  0  0
  149.1870  159.4270  132.3530 C   0  0  2  0  0  0  0  0  0  0  0  0
  147.7700  159.0670  132.7510 C   0  0  0  0  0  0  0  0  0  0  0  0
  147.3740  157.7070  132.8490 C   0  0  0  0  0  0  0  0  0  0  0  0
  146.0700  157.3640  133.2440 C   0  0  0  0  0  0  0  0  0  0  0  0
  145.1840  158.3970  133.5330 C   0  0  0  0  0  0  0  0  0  0  0  0
  143.8790  158.3470  133.9630 C   0  0  0  0  0  0  0  0  0  0  0  0
  143.4860  159.6750  134.1080 C   0  0  0  0  0  0  0  0  0  0  0  0
  142.1120  160.0790  134.4760 C   0  0  0  0  0  0  0  0  0  0  0  0
  141.3040  160.8360  133.5800 N   0  0  0  0  0  0  0  0  0  0  0  0
  141.6280  159.7080  135.5790 O   0  0  0  0  0  0  0  0  0  0  0  0
  144.5100  160.5150  133.7860 N   0  0  0  0  0  0  0  0  0  0  0  0
  144.5410  161.9480  133.8840 C   0  0  0  0  0  0  0  0  0  0  0  0
  143.6140  162.6400  133.3860 O   0  0  0  0  0  0  0  0  0  0  0  0
  145.5820  162.5840  134.5480 O   0  0  0  0  0  0  0  0  0  0  0  0
  145.5430  159.7170  133.4330 C   0  0  0  0  0  0  0  0  0  0  0  0
  146.8400  160.0870  133.0600 C   0  0  0  0  0  0  0  0  0  0  0  0
  149.1570  160.6180  131.3550 C   0  0  0  0  0  0  0  0  0  0  0  0
  148.4650  160.4940  129.9990 C   0  0  0  0  0  0  0  0  0  0  0  0
  149.9770  160.3910  130.0900 C   0  0  0  0  0  0  0  0  0  0  0  0
  150.2522  157.5760  132.7337 H   0  0  0  0  0  0  0  0  0  0  0  0
  149.2282  157.5548  131.2581 H   0  0  0  0  0  0  0  0  0  0  0  0
  150.7851  158.4508  131.2581 H   0  0  0  0  0  0  0  0  0  0  0  0
  149.7781  159.7874  133.2078 H   0  0  0  0  0  0  0  0  0  0  0  0
  148.0969  156.9123  132.6128 H   0  0  0  0  0  0  0  0  0  0  0  0
  145.7593  156.3117  133.3223 H   0  0  0  0  0  0  0  0  0  0  0  0
  143.2736  157.4483  134.1524 H   0  0  0  0  0  0  0  0  0  0  0  0
  141.6500  161.7300  133.1690 H   0  0  0  0  0  0  0  0  0  0  0  0
  147.1297  161.1469  133.0083 H   0  0  0  0  0  0  0  0  0  0  0  0
  149.0791  161.3637  132.1599 H   0  0  0  0  0  0  0  0  0  0  0  0
  147.8661  159.6010  129.7670 H   0  0  0  0  0  0  0  0  0  0  0  0
  147.7612  161.1153  129.4257 H   0  0  0  0  0  0  0  0  0  0  0  0
  150.4727  159.4233  129.9230 H   0  0  0  0  0  0  0  0  0  0  0  0
  150.8206  160.9074  129.6087 H   0  0  0  0  0  0  0  0  0  0  0  0
  1  2  1  0
  2  3  1  0
  3  4  2  0
  4  5  1  0
  5  6  2  0
  6  7  1  0
  7  8  2  0
  8  9  1  0
  9 10  1  0
  9 11  2  0
  8 12  1  0
 12 13  1  0
 13 14  2  0
 13 15  1  0
 12 16  1  0
 16 17  2  0
  2 18  1  0
 18 19  1  0
 19 20  1  0
 17  3  1  0
 20 18  1  0
 16  6  1  0
  1 21  1  0
  1 22  1  0
  1 23  1  0
  2 24  1  1
  4 25  1  0
  5 26  1  0
  7 27  1  0
 10 28  1  0
 17 29  1  0
 18 30  1  0
 19 31  1  0
 19 32  1  0
 20 33  1  0
 20 34  1  0
M  CHG  2  10  -1  15  -1
M  END
>  <UniqueID>  (42) 
42

>  <SMILES>  (42) 
C[C@H](c1ccc2cc(C([NH-])=O)n(C(=O)[O-])c2c1)C1CC1

>  <Energy>  (42) 
341.62217130683626

>  <Genealogy>  (42) 
C[C@H](c1ccc2cc(C([NH-])=O)n(C(=O)[O-])c2c1)C1CC1 (protonated)
C[C@H](c1ccc2cc(C([NH-])=O)n(C(=O)[O-])c2c1)C1CC1 (3D coordinates assigned)
C[C@H](c1ccc2cc(C([NH-])=O)n(C(=O)[O-])c2c1)C1CC1 (nonaromatic ring conformer: 341.62217130683626 kcal/mol)

>  <smiles>  (42) 
C[C@H](c1ccc2cc(C(N)=O)n(C(=O)O)c2c1)C1CC1

>  <score_type>  (42) 
oracle

>  <origin>  (42) 
adg

>  <m_score__min__energy>  (42) 
-7.5999999999999996

>  <m_primary>  (42) 
energy

$$$$
42:0
     RDKit          3D

 31 33  0  0  0  0  0  0  0  0999 V2000
  140.2460  159.1980  136.6170 N   0  0  0  0  0  0  0  0  0  0  0  0
  140.4490  158.6190  135.3320 C   0  0  0  0  0  0  0  0  0  0  0  0
  139.4500  158.2700  134.6480 O   0  0  0  0  0  0  0  0  0  0  0  0
  141.8110  158.3680  134.8160 C   0  0  0  0  0  0  0  0  0  0  0  0
  142.4860  157.1630  134.9940 C   0  0  0  0  0  0  0  0  0  0  0  0
  143.7380  157.3630  134.4590 C   0  0  0  0  0  0  0  0  0  0  0  0
  144.8170  156.4910  134.3590 C   0  0  0  0  0  0  0  0  0  0  0  0
  145.9840  156.9580  133.7310 C   0  0  0  0  0  0  0  0  0  0  0  0
  146.0520  158.2760  133.2080 C   0  0  0  0  0  0  0  0  0  0  0  0
  147.2880  158.7520  132.5350 C   0  0  0  0  0  0  0  0  0  0  0  0
  148.4330  157.9350  132.4800 C   0  0  0  0  0  0  0  0  0  0  0  0
  149.5940  158.3870  131.8440 C   0  0  0  0  0  0  0  0  0  0  0  0
  149.6260  159.6560  131.2600 C   0  0  0  0  0  0  0  0  0  0  0  0
  150.7540  160.0910  130.6460 F   0  0  0  0  0  0  0  0  0  0  0  0
  148.4960  160.4750  131.3100 C   0  0  0  0  0  0  0  0  0  0  0  0
  147.3320  160.0280  131.9430 C   0  0  0  0  0  0  0  0  0  0  0  0
  144.9310  159.1300  133.3310 C   0  0  0  0  0  0  0  0  0  0  0  0
  143.7880  158.6460  133.9780 C   0  0  0  0  0  0  0  0  0  0  0  0
  142.6100  159.2760  134.1880 N   0  0  0  0  0  0  0  0  0  0  0  0
  142.2570  160.5940  133.7390 C   0  0  0  0  0  0  0  0  0  0  0  0
  141.0780  160.8480  133.3750 O   0  0  0  0  0  0  0  0  0  0  0  0
  143.2060  161.6090  133.7280 O   0  0  0  0  0  0  0  0  0  0  0  0
  139.3940  158.9770  137.1780 H   0  0  0  0  0  0  0  0  0  0  0  0
  142.1002  156.2458  135.4629 H   0  0  0  0  0  0  0  0  0  0  0  0
  144.7586  155.4680  134.7590 H   0  0  0  0  0  0  0  0  0  0  0  0
  146.8563  156.2936  133.6435 H   0  0  0  0  0  0  0  0  0  0  0  0
  148.4147  156.9358  132.9396 H   0  0  0  0  0  0  0  0  0  0  0  0
  150.4840  157.7418  131.8035 H   0  0  0  0  0  0  0  0  0  0  0  0
  148.5216  161.4741  130.8504 H   0  0  0  0  0  0  0  0  0  0  0  0
  146.4452  160.6778  131.9784 H   0  0  0  0  0  0  0  0  0  0  0  0
  144.9570  160.1527  132.9268 H   0  0  0  0  0  0  0  0  0  0  0  0
  1  2  1  0
  2  3  2  0
  2  4  1  0
  4  5  2  0
  5  6  1  0
  6  7  2  0
  7  8  1  0
  8  9  2  0
  9 10  1  0
 10 11  2  0
 11 12  1  0
 12 13  2  0
 13 14  1  0
 13 15  1  0
 15 16  2  0
  9 17  1  0
 17 18  2  0
 18 19  1  0
 19 20  1  0
 20 21  2  0
 20 22  1  0
 19  4  1  0
 18  6  1  0
 16 10  1  0
  1 23  1  0
  5 24  1  0
  7 25  1  0
  8 26  1  0
 11 27  1  0
 12 28  1  0
 15 29  1  0
 16 30  1  0
 17 31  1  0
M  CHG  2   1  -1  22  -1
M  END
>  <UniqueID>  (43) 
43

>  <SMILES>  (43) 
[NH-]C(=O)c1cc2ccc(-c3ccc(F)cc3)cc2n1C(=O)[O-]

>  <Energy>  (43) 
79.24397082441062

>  <Genealogy>  (43) 
[NH-]C(=O)c1cc2ccc(-c3ccc(F)cc3)cc2n1C(=O)[O-] (protonated)
[NH-]C(=O)c1cc2ccc(-c3ccc(F)cc3)cc2n1C(=O)[O-] (3D coordinates assigned)
[NH-]C(=O)c1cc2ccc(-c3ccc(F)cc3)cc2n1C(=O)[O-] (optimized conformer: 79.24397082441062 kcal/mol)

>  <smiles>  (43) 
NC(=O)c1cc2ccc(-c3ccc(F)cc3)cc2n1C(=O)O

>  <score_type>  (43) 
oracle

>  <origin>  (43) 
adg

>  <m_score__min__energy>  (43) 
-7.3399999999999999

>  <m_primary>  (43) 
energy

$$$$
43:0
     RDKit          3D

 42 44  0  0  0  0  0  0  0  0999 V2000
  144.5030  154.7610  134.2560 C   0  0  0  0  0  0  0  0  0  0  0  0
  145.5310  155.7090  134.5170 O   0  0  0  0  0  0  0  0  0  0  0  0
  146.0680  156.5320  133.5240 C   0  0  0  0  0  0  0  0  0  0  0  0
  146.6500  156.0250  132.5250 O   0  0  0  0  0  0  0  0  0  0  0  0
  145.9570  157.9600  133.6380 N   0  0  0  0  0  0  0  0  0  0  0  0
  146.9660  158.8770  133.6070 C   0  0  0  0  0  0  0  0  0  0  0  0
  148.4110  158.5740  133.6060 C   0  0  0  0  0  0  0  0  0  0  0  0
  148.9850  157.7080  132.6260 N   0  0  0  0  0  0  0  0  0  0  0  0
  149.1430  159.0450  134.5170 O   0  0  0  0  0  0  0  0  0  0  0  0
  146.4560  160.1720  133.6270 C   0  0  0  0  0  0  0  0  0  0  0  0
  145.0900  160.0220  133.6860 C   0  0  0  0  0  0  0  0  0  0  0  0
  144.0860  160.9850  133.7110 C   0  0  0  0  0  0  0  0  0  0  0  0
  142.7520  160.5470  133.7320 C   0  0  0  0  0  0  0  0  0  0  0  0
  142.4420  159.1620  133.7150 C   0  0  0  0  0  0  0  0  0  0  0  0
  141.0270  158.7080  133.7190 C   0  0  0  0  0  0  0  0  0  0  0  0
  140.4790  158.0960  134.8600 C   0  0  0  0  0  0  0  0  0  0  0  0
  139.1430  157.6880  134.8710 C   0  0  0  0  0  0  0  0  0  0  0  0
  138.3440  157.8720  133.7420 C   0  0  0  0  0  0  0  0  0  0  0  0
  138.8790  158.4480  132.5840 C   0  0  0  0  0  0  0  0  0  0  0  0
  138.0240  158.6400  131.4480 N   0  0  0  0  0  0  0  0  0  0  0  0
  137.6880  159.8900  130.8310 C   0  0  0  0  0  0  0  0  0  0  0  0
  138.7340  160.8410  130.3350 C   0  0  0  0  0  0  0  0  0  0  0  0
  136.4740  160.1820  130.6700 O   0  0  0  0  0  0  0  0  0  0  0  0
  140.2140  158.8880  132.5850 C   0  0  0  0  0  0  0  0  0  0  0  0
  143.4920  158.2140  133.6860 C   0  0  0  0  0  0  0  0  0  0  0  0
  144.8130  158.6790  133.6900 C   0  0  0  0  0  0  0  0  0  0  0  0
  144.0982  154.3877  135.2082 H   0  0  0  0  0  0  0  0  0  0  0  0
  143.6991  155.2414  133.6790 H   0  0  0  0  0  0  0  0  0  0  0  0
  144.9168  153.9209  133.6790 H   0  0  0  0  0  0  0  0  0  0  0  0
  150.0150  157.5370  132.6160 H   0  0  0  0  0  0  0  0  0  0  0  0
  148.3840  157.1680  131.9660 H   0  0  0  0  0  0  0  0  0  0  0  0
  147.0238  161.1137  133.6012 H   0  0  0  0  0  0  0  0  0  0  0  0
  144.3300  162.0576  133.7142 H   0  0  0  0  0  0  0  0  0  0  0  0
  141.9377  161.2859  133.7620 H   0  0  0  0  0  0  0  0  0  0  0  0
  141.1062  157.9374  135.7496 H   0  0  0  0  0  0  0  0  0  0  0  0
  138.7197  157.2204  135.7722 H   0  0  0  0  0  0  0  0  0  0  0  0
  137.2885  157.5629  133.7622 H   0  0  0  0  0  0  0  0  0  0  0  0
  139.2440  161.3047  131.1922 H   0  0  0  0  0  0  0  0  0  0  0  0
  139.4672  160.2937  129.7243 H   0  0  0  0  0  0  0  0  0  0  0  0
  138.2588  161.6228  129.7243 H   0  0  0  0  0  0  0  0  0  0  0  0
  140.6269  159.3777  131.6907 H   0  0  0  0  0  0  0  0  0  0  0  0
  143.2755  157.1358  133.6609 H   0  0  0  0  0  0  0  0  0  0  0  0
  1  2  1  0
  2  3  1  0
  3  4  2  0
  3  5  1  0
  5  6  1  0
  6  7  1  0
  7  8  1  0
  7  9  2  0
  6 10  2  0
 10 11  1  0
 11 12  2  0
 12 13  1  0
 13 14  2  0
 14 15  1  0
 15 16  2  0
 16 17  1  0
 17 18  2  0
 18 19  1  0
 19 20  1  0
 20 21  1  0
 21 22  1  0
 21 23  2  0
 19 24  2  0
 14 25  1  0
 25 26  2  0
 26  5  1  0
 26 11  1  0
 24 15  1  0
  1 27  1  0
  1 28  1  0
  1 29  1  0
  8 30  1  0
  8 31  1  0
 10 32  1  0
 12 33  1  0
 13 34  1  0
 16 35  1  0
 17 36  1  0
 18 37  1  0
 22 38  1  0
 22 39  1  0
 22 40  1  0
 24 41  1  0
 25 42  1  0
M  CHG  1  20  -1
M  END
>  <UniqueID>  (44) 
44

>  <SMILES>  (44) 
COC(=O)n1c(C(N)=O)cc2ccc(-c3cccc([N-]C(C)=O)c3)cc21

>  <Energy>  (44) 
90.21010430517819

>  <Genealogy>  (44) 
COC(=O)n1c(C(N)=O)cc2ccc(-c3cccc([N-]C(C)=O)c3)cc21 (protonated)
COC(=O)n1c(C(N)=O)cc2ccc(-c3cccc([N-]C(C)=O)c3)cc21 (3D coordinates assigned)
COC(=O)n1c(C(N)=O)cc2ccc(-c3cccc([N-]C(C)=O)c3)cc21 (optimized conformer: 90.21010430517819 kcal/mol)

>  <smiles>  (44) 
COC(=O)n1c(C(N)=O)cc2ccc(-c3cccc(NC(C)=O)c3)cc21

>  <score_type>  (44) 
oracle

>  <origin>  (44) 
adg

>  <m_score__min__energy>  (44) 
-8.5199999999999996

>  <m_primary>  (44) 
energy

$$$$
44:0
     RDKit          3D

 34 35  0  0  0  0  0  0  0  0999 V2000
  149.2560  161.9330  130.3700 C   0  0  0  0  0  0  0  0  0  0  0  0
  148.9480  160.4580  130.1100 C   0  0  0  0  0  0  0  0  0  0  0  0
  149.8210  159.5110  130.9570 C   0  0  0  0  0  0  0  0  0  0  0  0
  149.5020  159.5570  132.4610 C   0  0  0  0  0  0  0  0  0  0  0  0
  148.0920  159.1290  132.7660 C   0  0  0  0  0  0  0  0  0  0  0  0
  147.7260  157.7620  132.6860 C   0  0  0  0  0  0  0  0  0  0  0  0
  146.4170  157.3520  132.9840 C   0  0  0  0  0  0  0  0  0  0  0  0
  145.5000  158.3280  133.3670 C   0  0  0  0  0  0  0  0  0  0  0  0
  144.1690  158.2080  133.6930 C   0  0  0  0  0  0  0  0  0  0  0  0
  143.7430  159.5010  133.9910 C   0  0  0  0  0  0  0  0  0  0  0  0
  142.3860  159.8290  134.4840 C   0  0  0  0  0  0  0  0  0  0  0  0
  141.5940  160.8230  133.8310 N   0  0  0  0  0  0  0  0  0  0  0  0
  141.9040  159.2110  135.4690 O   0  0  0  0  0  0  0  0  0  0  0  0
  144.7720  160.3860  133.8530 N   0  0  0  0  0  0  0  0  0  0  0  0
  144.7300  161.8150  134.0140 C   0  0  0  0  0  0  0  0  0  0  0  0
  145.5630  162.3970  134.7570 O   0  0  0  0  0  0  0  0  0  0  0  0
  143.7610  162.5660  133.3600 O   0  0  0  0  0  0  0  0  0  0  0  0
  145.8410  159.6510  133.4700 C   0  0  0  0  0  0  0  0  0  0  0  0
  147.1330  160.0910  133.1590 C   0  0  0  0  0  0  0  0  0  0  0  0
  149.2938  162.1141  131.4543 H   0  0  0  0  0  0  0  0  0  0  0  0
  150.2271  162.1894  129.9213 H   0  0  0  0  0  0  0  0  0  0  0  0
  148.4687  162.5566  129.9213 H   0  0  0  0  0  0  0  0  0  0  0  0
  147.8909  160.2714  130.3500 H   0  0  0  0  0  0  0  0  0  0  0  0
  149.1662  160.2540  129.0513 H   0  0  0  0  0  0  0  0  0  0  0  0
  149.6649  158.4823  130.6000 H   0  0  0  0  0  0  0  0  0  0  0  0
  150.8633  159.8422  130.8388 H   0  0  0  0  0  0  0  0  0  0  0  0
  150.1959  158.8865  132.9891 H   0  0  0  0  0  0  0  0  0  0  0  0
  149.6135  160.5995  132.7938 H   0  0  0  0  0  0  0  0  0  0  0  0
  148.4757  157.0145  132.3872 H   0  0  0  0  0  0  0  0  0  0  0  0
  146.1247  156.2937  132.9172 H   0  0  0  0  0  0  0  0  0  0  0  0
  143.5683  157.2868  133.7140 H   0  0  0  0  0  0  0  0  0  0  0  0
  140.6240  161.0190  134.1630 H   0  0  0  0  0  0  0  0  0  0  0  0
  141.9780  161.3950  133.0480 H   0  0  0  0  0  0  0  0  0  0  0  0
  147.3955  161.1576  133.2188 H   0  0  0  0  0  0  0  0  0  0  0  0
  1  2  1  0
  2  3  1  0
  3  4  1  0
  4  5  1  0
  5  6  2  0
  6  7  1  0
  7  8  2  0
  8  9  1  0
  9 10  2  0
 10 11  1  0
 11 12  1  0
 11 13  2  0
 10 14  1  0
 14 15  1  0
 15 16  2  0
 15 17  1  0
 14 18  1  0
 18 19  2  0
 19  5  1  0
 18  8  1  0
  1 20  1  0
  1 21  1  0
  1 22  1  0
  2 23  1  0
  2 24  1  0
  3 25  1  0
  3 26  1  0
  4 27  1  0
  4 28  1  0
  6 29  1  0
  7 30  1  0
  9 31  1  0
 12 32  1  0
 12 33  1  0
 19 34  1  0
M  CHG  1  17  -1
M  END
>  <UniqueID>  (45) 
45

>  <SMILES>  (45) 
CCCCc1ccc2cc(C(N)=O)n(C(=O)[O-])c2c1

>  <Energy>  (45) 
68.1125530029847

>  <Genealogy>  (45) 
CCCCc1ccc2cc(C(N)=O)n(C(=O)[O-])c2c1 (protonated)
CCCCc1ccc2cc(C(N)=O)n(C(=O)[O-])c2c1 (3D coordinates assigned)
CCCCc1ccc2cc(C(N)=O)n(C(=O)[O-])c2c1 (optimized conformer: 68.1125530029847 kcal/mol)

>  <smiles>  (45) 
CCCCc1ccc2cc(C(N)=O)n(C(=O)O)c2c1

>  <score_type>  (45) 
oracle

>  <origin>  (45) 
adg

>  <m_score__min__energy>  (45) 
-6.7300000000000004

>  <m_primary>  (45) 
energy

$$$$
45:0
     RDKit          3D

 48 52  0  0  0  0  0  0  0  0999 V2000
  141.2730  160.0220  135.3470 C   0  0  0  0  0  0  0  0  0  0  0  0
  142.0850  160.5220  134.1930 C   0  0  0  0  0  0  0  0  0  0  0  0
  141.5780  161.3580  133.3990 O   0  0  0  0  0  0  0  0  0  0  0  0
  143.4030  160.0080  133.9450 N   0  0  0  0  0  0  0  0  0  0  0  0
  144.5870  160.6830  133.9600 C   0  0  0  0  0  0  0  0  0  0  0  0
  144.7470  162.1440  134.1100 C   0  0  0  0  0  0  0  0  0  0  0  0
  143.9150  163.0290  133.3650 N   0  0  0  0  0  0  0  0  0  0  0  0
  145.5920  162.6200  134.9130 O   0  0  0  0  0  0  0  0  0  0  0  0
  145.6480  159.8090  133.7280 C   0  0  0  0  0  0  0  0  0  0  0  0
  145.0700  158.5710  133.5600 C   0  0  0  0  0  0  0  0  0  0  0  0
  145.6560  157.3360  133.3070 C   0  0  0  0  0  0  0  0  0  0  0  0
  144.8130  156.2160  133.1960 C   0  0  0  0  0  0  0  0  0  0  0  0
  143.4040  156.3460  133.3390 C   0  0  0  0  0  0  0  0  0  0  0  0
  142.5150  155.1610  133.2300 C   0  0  0  0  0  0  0  0  0  0  0  0
  141.1590  155.0930  133.5540 C   0  0  0  0  0  0  0  0  0  0  0  0
  140.5880  153.8310  133.3430 C   0  0  0  0  0  0  0  0  0  0  0  0
  141.4820  152.8800  132.8530 C   0  0  0  0  0  0  0  0  0  0  0  0
  141.1890  151.4590  132.5290 C   0  0  0  0  0  0  0  0  0  0  0  0
  141.5990  150.4250  133.4160 C   0  0  0  0  0  0  0  0  0  0  0  0
  141.3320  149.0750  133.1280 C   0  0  0  0  0  0  0  0  0  0  0  0
  140.6540  148.7830  131.9510 C   0  0  0  0  0  0  0  0  0  0  0  0
  140.2600  147.5740  131.4200 C   0  0  0  0  0  0  0  0  0  0  0  0
  139.6180  147.9000  130.2270 C   0  0  0  0  0  0  0  0  0  0  0  0
  139.0190  146.9310  129.2960 C   0  0  0  0  0  0  0  0  0  0  0  0
  139.1670  145.5330  129.5250 N   0  0  0  0  0  0  0  0  0  0  0  0
  138.3740  147.3340  128.2910 O   0  0  0  0  0  0  0  0  0  0  0  0
  139.6150  149.2390  130.0270 N   0  0  0  0  0  0  0  0  0  0  0  0
  140.2500  149.7650  131.0880 C   0  0  0  0  0  0  0  0  0  0  0  0
  140.4980  151.1130  131.3410 C   0  0  0  0  0  0  0  0  0  0  0  0
  142.9800  153.6340  132.6860 S   0  0  0  0  0  0  0  0  0  0  0  0
  142.8530  157.6240  133.6000 C   0  0  0  0  0  0  0  0  0  0  0  0
  143.7160  158.7190  133.6930 C   0  0  0  0  0  0  0  0  0  0  0  0
  141.7549  160.3187  136.2903 H   0  0  0  0  0  0  0  0  0  0  0  0
  140.2628  160.4547  135.2993 H   0  0  0  0  0  0  0  0  0  0  0  0
  141.2047  158.9252  135.2993 H   0  0  0  0  0  0  0  0  0  0  0  0
  142.8760  162.9180  133.3650 H   0  0  0  0  0  0  0  0  0  0  0  0
  146.7191  160.0561  133.6877 H   0  0  0  0  0  0  0  0  0  0  0  0
  146.7461  157.2379  133.1970 H   0  0  0  0  0  0  0  0  0  0  0  0
  145.2492  155.2262  132.9959 H   0  0  0  0  0  0  0  0  0  0  0  0
  140.5904  155.9520  133.9399 H   0  0  0  0  0  0  0  0  0  0  0  0
  139.5296  153.6104  133.5457 H   0  0  0  0  0  0  0  0  0  0  0  0
  142.1332  150.6858  134.3415 H   0  0  0  0  0  0  0  0  0  0  0  0
  141.6499  148.2752  133.8130 H   0  0  0  0  0  0  0  0  0  0  0  0
  140.4177  146.5716  131.8447 H   0  0  0  0  0  0  0  0  0  0  0  0
  138.6460  145.0570  130.2950 H   0  0  0  0  0  0  0  0  0  0  0  0
  139.2040  149.7600  129.2200 H   0  0  0  0  0  0  0  0  0  0  0  0
  140.1656  151.8892  130.6360 H   0  0  0  0  0  0  0  0  0  0  0  0
  141.7679  157.7521  133.7269 H   0  0  0  0  0  0  0  0  0  0  0  0
  1  2  1  0
  2  3  2  0
  2  4  1  0
  4  5  1  0
  5  6  1  0
  6  7  1  0
  6  8  2  0
  5  9  2  0
  9 10  1  0
 10 11  2  0
 11 12  1  0
 12 13  2  0
 13 14  1  0
 14 15  2  0
 15 16  1  0
 16 17  2  0
 17 18  1  0
 18 19  2  0
 19 20  1  0
 20 21  2  0
 21 22  1  0
 22 23  2  0
 23 24  1  0
 24 25  1  0
 24 26  2  0
 23 27  1  0
 27 28  1  0
 28 29  2  0
 17 30  1  0
 13 31  1  0
 31 32  2  0
 32  4  1  0
 32 10  1  0
 30 14  1  0
 29 18  1  0
 28 21  1  0
  1 33  1  0
  1 34  1  0
  1 35  1  0
  7 36  1  0
  9 37  1  0
 11 38  1  0
 12 39  1  0
 15 40  1  0
 16 41  1  0
 19 42  1  0
 20 43  1  0
 22 44  1  0
 25 45  1  0
 27 46  1  0
 29 47  1  0
 31 48  1  0
M  CHG  2   7  -1  25  -1
M  END
>  <UniqueID>  (46) 
46

>  <SMILES>  (46) 
CC(=O)n1c(C([NH-])=O)cc2ccc(-c3ccc(-c4ccc5cc(C([NH-])=O)[nH]c5c4)s3)cc21

>  <Energy>  (46) 
155.1501893929927

>  <Genealogy>  (46) 
CC(=O)n1c(C([NH-])=O)cc2ccc(-c3ccc(-c4ccc5cc(C([NH-])=O)[nH]c5c4)s3)cc21 (protonated)
CC(=O)n1c(C([NH-])=O)cc2ccc(-c3ccc(-c4ccc5cc(C([NH-])=O)[nH]c5c4)s3)cc21 (3D coordinates assigned)
CC(=O)n1c(C([NH-])=O)cc2ccc(-c3ccc(-c4ccc5cc(C([NH-])=O)[nH]c5c4)s3)cc21 (optimized conformer: 155.1501893929927 kcal/mol)

>  <smiles>  (46) 
CC(=O)n1c(C(N)=O)cc2ccc(-c3ccc(-c4ccc5cc(C(N)=O)[nH]c5c4)s3)cc21

>  <score_type>  (46) 
oracle

>  <origin>  (46) 
adg

>  <m_score__min__energy>  (46) 
-10.1

>  <m_primary>  (46) 
energy

$$$$
46:0
     RDKit          3D

 46 47  0  0  0  0  0  0  0  0999 V2000
  145.4320  154.8540  132.3860 C   0  0  0  0  0  0  0  0  0  0  0  0
  144.1380  154.4050  133.0550 C   0  0  0  0  0  0  0  0  0  0  0  0
  143.0600  155.2680  132.6960 O   0  0  0  0  0  0  0  0  0  0  0  0
  142.1770  155.8260  133.6270 C   0  0  0  0  0  0  0  0  0  0  0  0
  141.4630  155.0830  134.3540 O   0  0  0  0  0  0  0  0  0  0  0  0
  142.0620  157.2550  133.7300 N   0  0  0  0  0  0  0  0  0  0  0  0
  140.9220  158.0010  133.7930 C   0  0  0  0  0  0  0  0  0  0  0  0
  139.5450  157.4760  133.9080 C   0  0  0  0  0  0  0  0  0  0  0  0
  139.1520  156.3430  133.1380 N   0  0  0  0  0  0  0  0  0  0  0  0
  138.7000  158.0390  134.6520 O   0  0  0  0  0  0  0  0  0  0  0  0
  141.2300  159.3610  133.8190 C   0  0  0  0  0  0  0  0  0  0  0  0
  142.6040  159.4240  133.7790 C   0  0  0  0  0  0  0  0  0  0  0  0
  143.4480  160.5310  133.7650 C   0  0  0  0  0  0  0  0  0  0  0  0
  144.8320  160.3030  133.6870 C   0  0  0  0  0  0  0  0  0  0  0  0
  145.3440  158.9820  133.6260 C   0  0  0  0  0  0  0  0  0  0  0  0
  146.8280  158.7510  133.4920 C   0  0  0  0  0  0  0  0  0  0  0  0
  147.3790  159.2690  132.1830 C   0  0  0  0  0  0  0  0  0  0  0  0
  146.7260  160.1370  131.5380 O   0  0  0  0  0  0  0  0  0  0  0  0
  148.6280  158.7810  131.6440 N   0  0  0  0  0  0  0  0  0  0  0  0
  149.2220  157.5710  132.2230 C   0  0  0  0  0  0  0  0  0  0  0  0
  149.2820  159.4020  130.4780 C   0  0  0  0  0  0  0  0  0  0  0  0
  149.6460  160.8620  130.7680 C   0  0  0  0  0  0  0  0  0  0  0  0
  148.4940  161.7340  130.5600 N   0  0  0  0  0  0  0  0  0  0  0  0
  144.4550  157.8840  133.6290 C   0  0  0  0  0  0  0  0  0  0  0  0
  143.0820  158.1410  133.7250 C   0  0  0  0  0  0  0  0  0  0  0  0
  146.1733  155.1112  133.1570 H   0  0  0  0  0  0  0  0  0  0  0  0
  145.8227  154.0389  131.7591 H   0  0  0  0  0  0  0  0  0  0  0  0
  145.2338  155.7359  131.7591 H   0  0  0  0  0  0  0  0  0  0  0  0
  143.9022  153.3796  132.7340 H   0  0  0  0  0  0  0  0  0  0  0  0
  144.2724  154.4413  134.1461 H   0  0  0  0  0  0  0  0  0  0  0  0
  139.6230  155.4190  133.2620 H   0  0  0  0  0  0  0  0  0  0  0  0
  140.5246  160.2039  133.8623 H   0  0  0  0  0  0  0  0  0  0  0  0
  143.0436  161.5528  133.8135 H   0  0  0  0  0  0  0  0  0  0  0  0
  145.5250  161.1571  133.6731 H   0  0  0  0  0  0  0  0  0  0  0  0
  147.3409  159.2646  134.3185 H   0  0  0  0  0  0  0  0  0  0  0  0
  147.0010  157.6651  133.5210 H   0  0  0  0  0  0  0  0  0  0  0  0
  149.1901  157.6360  133.3206 H   0  0  0  0  0  0  0  0  0  0  0  0
  148.6544  156.6891  131.8913 H   0  0  0  0  0  0  0  0  0  0  0  0
  150.2669  157.4806  131.8913 H   0  0  0  0  0  0  0  0  0  0  0  0
  150.1987  158.8429  130.2392 H   0  0  0  0  0  0  0  0  0  0  0  0
  148.5837  159.3761  129.6284 H   0  0  0  0  0  0  0  0  0  0  0  0
  149.9810  160.9497  131.8121 H   0  0  0  0  0  0  0  0  0  0  0  0
  150.4490  161.1685  130.0815 H   0  0  0  0  0  0  0  0  0  0  0  0
  147.8050  161.2240  129.9600 H   0  0  0  0  0  0  0  0  0  0  0  0
  148.0300  161.8740  131.4870 H   0  0  0  0  0  0  0  0  0  0  0  0
  144.8320  156.8531  133.5577 H   0  0  0  0  0  0  0  0  0  0  0  0
  1  2  1  0
  2  3  1  0
  3  4  1  0
  4  5  2  0
  4  6  1  0
  6  7  1  0
  7  8  1  0
  8  9  1  0
  8 10  2  0
  7 11  2  0
 11 12  1  0
 12 13  2  0
 13 14  1  0
 14 15  2  0
 15 16  1  0
 16 17  1  0
 17 18  2  0
 17 19  1  0
 19 20  1  0
 19 21  1  0
 21 22  1  0
 22 23  1  0
 15 24  1  0
 24 25  2  0
 25  6  1  0
 25 12  1  0
  1 26  1  0
  1 27  1  0
  1 28  1  0
  2 29  1  0
  2 30  1  0
  9 31  1  0
 11 32  1  0
 13 33  1  0
 14 34  1  0
 16 35  1  0
 16 36  1  0
 20 37  1  0
 20 38  1  0
 20 39  1  0
 21 40  1  0
 21 41  1  0
 22 42  1  0
 22 43  1  0
 23 44  1  0
 23 45  1  0
 24 46  1  0
M  CHG  1   9  -1
M  END
>  <UniqueID>  (47) 
47

>  <SMILES>  (47) 
CCOC(=O)n1c(C([NH-])=O)cc2ccc(CC(=O)N(C)CCN)cc21

>  <Energy>  (47) 
76.24289568796168

>  <Genealogy>  (47) 
CCOC(=O)n1c(C([NH-])=O)cc2ccc(CC(=O)N(C)CCN)cc21 (protonated)
CCOC(=O)n1c(C([NH-])=O)cc2ccc(CC(=O)N(C)CCN)cc21 (3D coordinates assigned)
CCOC(=O)n1c(C([NH-])=O)cc2ccc(CC(=O)N(C)CCN)cc21 (optimized conformer: 76.24289568796168 kcal/mol)

>  <smiles>  (47) 
CCOC(=O)n1c(C(N)=O)cc2ccc(CC(=O)N(C)CCN)cc21

>  <score_type>  (47) 
oracle

>  <origin>  (47) 
adg

>  <m_score__min__energy>  (47) 
-6.6500000000000004

>  <m_primary>  (47) 
energy

$$$$
47:0
     RDKit          3D

 30 31  0  0  0  0  0  0  0  0999 V2000
  148.5810  153.2410  132.2580 N   0  0  0  0  0  0  0  0  0  0  0  0
  149.0500  154.5560  132.5430 C   0  0  0  0  0  0  0  0  0  0  0  0
  150.2430  154.8610  132.2750 O   0  0  0  0  0  0  0  0  0  0  0  0
  148.1690  155.5330  133.1220 N   0  0  0  0  0  0  0  0  0  0  0  0
  147.0340  155.3000  133.8430 C   0  0  0  0  0  0  0  0  0  0  0  0
  146.5650  153.9810  134.3120 C   0  0  0  0  0  0  0  0  0  0  0  0
  146.2290  152.9430  133.3890 N   0  0  0  0  0  0  0  0  0  0  0  0
  146.5110  153.7470  135.5480 O   0  0  0  0  0  0  0  0  0  0  0  0
  146.3760  156.4920  134.1260 C   0  0  0  0  0  0  0  0  0  0  0  0
  147.1520  157.4780  133.5630 C   0  0  0  0  0  0  0  0  0  0  0  0
  146.9540  158.8550  133.5220 C   0  0  0  0  0  0  0  0  0  0  0  0
  147.8930  159.6350  132.8280 C   0  0  0  0  0  0  0  0  0  0  0  0
  149.0030  159.0290  132.1880 C   0  0  0  0  0  0  0  0  0  0  0  0
  149.9780  159.8690  131.4050 C   0  0  0  0  0  0  0  0  0  0  0  0
  149.3180  160.4730  130.1650 C   0  0  0  0  0  0  0  0  0  0  0  0
  149.0540  161.8330  130.3730 O   0  0  0  0  0  0  0  0  0  0  0  0
  149.1650  157.6260  132.2410 C   0  0  0  0  0  0  0  0  0  0  0  0
  148.2270  156.8750  132.9600 C   0  0  0  0  0  0  0  0  0  0  0  0
  147.7520  153.0890  131.6420 H   0  0  0  0  0  0  0  0  0  0  0  0
  146.4280  153.0420  132.3700 H   0  0  0  0  0  0  0  0  0  0  0  0
  145.8600  152.0310  133.7380 H   0  0  0  0  0  0  0  0  0  0  0  0
  145.4353  156.6191  134.6818 H   0  0  0  0  0  0  0  0  0  0  0  0
  146.0883  159.3182  134.0181 H   0  0  0  0  0  0  0  0  0  0  0  0
  147.7659  160.7266  132.7806 H   0  0  0  0  0  0  0  0  0  0  0  0
  150.3468  160.6824  132.0471 H   0  0  0  0  0  0  0  0  0  0  0  0
  150.8079  159.2251  131.0785 H   0  0  0  0  0  0  0  0  0  0  0  0
  149.9924  160.3612  129.3032 H   0  0  0  0  0  0  0  0  0  0  0  0
  148.3708  159.9486  129.9703 H   0  0  0  0  0  0  0  0  0  0  0  0
  148.1590  162.0030  129.9820 H   0  0  0  0  0  0  0  0  0  0  0  0
  150.0070  157.1361  131.7301 H   0  0  0  0  0  0  0  0  0  0  0  0
  1  2  1  0
  2  3  2  0
  2  4  1  0
  4  5  1  0
  5  6  1  0
  6  7  1  0
  6  8  2  0
  5  9  2  0
  9 10  1  0
 10 11  2  0
 11 12  1  0
 12 13  2  0
 13 14  1  0
 14 15  1  0
 15 16  1  0
 13 17  1  0
 17 18  2  0
 18  4  1  0
 18 10  1  0
  1 19  1  0
  7 20  1  0
  7 21  1  0
  9 22  1  0
 11 23  1  0
 12 24  1  0
 14 25  1  0
 14 26  1  0
 15 27  1  0
 15 28  1  0
 16 29  1  0
 17 30  1  0
M  CHG  1   1  -1
M  END
>  <UniqueID>  (48) 
48

>  <SMILES>  (48) 
[NH-]C(=O)n1c(C(N)=O)cc2ccc(CCO)cc21

>  <Energy>  (48) 
66.78127393512136

>  <Genealogy>  (48) 
[NH-]C(=O)n1c(C(N)=O)cc2ccc(CCO)cc21 (protonated)
[NH-]C(=O)n1c(C(N)=O)cc2ccc(CCO)cc21 (3D coordinates assigned)
[NH-]C(=O)n1c(C(N)=O)cc2ccc(CCO)cc21 (optimized conformer: 66.78127393512136 kcal/mol)

>  <smiles>  (48) 
NC(=O)c1cc2ccc(CCO)cc2n1C(N)=O

>  <score_type>  (48) 
oracle

>  <origin>  (48) 
adg

>  <m_score__min__energy>  (48) 
-6.5099999999999998

>  <m_primary>  (48) 
energy

$$$$
48:0
     RDKit          3D

 34 36  0  0  0  0  0  0  0  0999 V2000
  143.3380  157.0260  134.7790 C   0  0  0  0  0  0  0  0  0  0  0  0
  143.7640  157.7810  133.5610 C   0  0  0  0  0  0  0  0  0  0  0  0
  142.9750  157.8680  132.5810 O   0  0  0  0  0  0  0  0  0  0  0  0
  145.0580  158.4000  133.4920 N   0  0  0  0  0  0  0  0  0  0  0  0
  145.3430  159.7330  133.5040 C   0  0  0  0  0  0  0  0  0  0  0  0
  144.3720  160.8260  133.7210 C   0  0  0  0  0  0  0  0  0  0  0  0
  143.0000  160.6730  133.3670 N   0  0  0  0  0  0  0  0  0  0  0  0
  144.7530  161.9020  134.2560 O   0  0  0  0  0  0  0  0  0  0  0  0
  146.7120  159.9400  133.3400 C   0  0  0  0  0  0  0  0  0  0  0  0
  147.2590  158.6820  133.2270 C   0  0  0  0  0  0  0  0  0  0  0  0
  148.5810  158.2970  133.0320 C   0  0  0  0  0  0  0  0  0  0  0  0
  148.8580  156.9240  132.9190 C   0  0  0  0  0  0  0  0  0  0  0  0
  147.8160  155.9610  132.9920 C   0  0  0  0  0  0  0  0  0  0  0  0
  148.1190  154.5120  132.8580 C   0  0  0  0  0  0  0  0  0  0  0  0
  147.2390  153.4450  132.9780 C   0  0  0  0  0  0  0  0  0  0  0  0
  147.9080  152.2890  132.8020 N   0  0  0  0  0  0  0  0  0  0  0  0
  149.1740  152.5920  132.5660 N   0  0  0  0  0  0  0  0  0  0  0  0
  150.2280  151.6010  132.3940 C   0  0  0  0  0  0  0  0  0  0  0  0
  149.3470  153.9250  132.6030 C   0  0  0  0  0  0  0  0  0  0  0  0
  146.4830  156.3990  133.1890 C   0  0  0  0  0  0  0  0  0  0  0  0
  146.2420  157.7710  133.3180 C   0  0  0  0  0  0  0  0  0  0  0  0
  143.6487  157.5767  135.6791 H   0  0  0  0  0  0  0  0  0  0  0  0
  142.2437  156.9143  134.7771 H   0  0  0  0  0  0  0  0  0  0  0  0
  143.8081  156.0315  134.7771 H   0  0  0  0  0  0  0  0  0  0  0  0
  142.7100  160.0160  132.6090 H   0  0  0  0  0  0  0  0  0  0  0  0
  147.2420  160.9034  133.3078 H   0  0  0  0  0  0  0  0  0  0  0  0
  149.3854  159.0445  132.9681 H   0  0  0  0  0  0  0  0  0  0  0  0
  149.8958  156.5903  132.7720 H   0  0  0  0  0  0  0  0  0  0  0  0
  146.1620  153.5303  133.1848 H   0  0  0  0  0  0  0  0  0  0  0  0
  150.5825  151.2677  133.3805 H   0  0  0  0  0  0  0  0  0  0  0  0
  149.8334  150.7392  131.8358 H   0  0  0  0  0  0  0  0  0  0  0  0
  151.0639  152.0479  131.8358 H   0  0  0  0  0  0  0  0  0  0  0  0
  150.2987  154.4568  132.4562 H   0  0  0  0  0  0  0  0  0  0  0  0
  145.6556  155.6759  133.2394 H   0  0  0  0  0  0  0  0  0  0  0  0
  1  2  1  0
  2  3  2  0
  2  4  1  0
  4  5  1  0
  5  6  1  0
  6  7  1  0
  6  8  2  0
  5  9  2  0
  9 10  1  0
 10 11  2  0
 11 12  1  0
 12 13  2  0
 13 14  1  0
 14 15  1  0
 15 16  2  0
 16 17  1  0
 17 18  1  0
 17 19  1  0
 13 20  1  0
 20 21  2  0
 21  4  1  0
 21 10  1  0
 19 14  2  0
  1 22  1  0
  1 23  1  0
  1 24  1  0
  7 25  1  0
  9 26  1  0
 11 27  1  0
 12 28  1  0
 15 29  1  0
 18 30  1  0
 18 31  1  0
 18 32  1  0
 19 33  1  0
 20 34  1  0
M  CHG  1   7  -1
M  END
>  <UniqueID>  (49) 
49

>  <SMILES>  (49) 
CC(=O)n1c(C([NH-])=O)cc2ccc(-c3cnn(C)c3)cc21

>  <Energy>  (49) 
106.02152230600666

>  <Genealogy>  (49) 
CC(=O)n1c(C([NH-])=O)cc2ccc(-c3cnn(C)c3)cc21 (protonated)
CC(=O)n1c(C([NH-])=O)cc2ccc(-c3cnn(C)c3)cc21 (3D coordinates assigned)
CC(=O)n1c(C([NH-])=O)cc2ccc(-c3cnn(C)c3)cc21 (optimized conformer: 106.02152230600666 kcal/mol)

>  <smiles>  (49) 
CC(=O)n1c(C(N)=O)cc2ccc(-c3cnn(C)c3)cc21

>  <score_type>  (49) 
oracle

>  <origin>  (49) 
adg

>  <m_score__min__energy>  (49) 
-7.0700000000000003

>  <m_primary>  (49) 
energy

$$$$
49:0
     RDKit          3D

 32 34  0  0  0  0  0  0  0  0999 V2000
  149.0000  157.4060  131.8620 N   0  0  0  0  0  0  0  0  0  0  0  0
  148.6700  158.5890  132.5900 C   0  0  0  0  0  0  0  0  0  0  0  0
  149.5930  159.3610  132.9650 O   0  0  0  0  0  0  0  0  0  0  0  0
  147.2750  158.8880  132.9690 C   0  0  0  0  0  0  0  0  0  0  0  0
  146.7490  160.1760  132.9910 C   0  0  0  0  0  0  0  0  0  0  0  0
  145.4630  160.0340  133.4560 C   0  0  0  0  0  0  0  0  0  0  0  0
  144.4770  160.9940  133.6660 C   0  0  0  0  0  0  0  0  0  0  0  0
  143.2210  160.5630  134.1200 C   0  0  0  0  0  0  0  0  0  0  0  0
  142.9660  159.1850  134.3430 C   0  0  0  0  0  0  0  0  0  0  0  0
  141.6340  158.7370  134.8170 C   0  0  0  0  0  0  0  0  0  0  0  0
  141.3760  158.6400  136.1970 C   0  0  0  0  0  0  0  0  0  0  0  0
  140.1230  158.2240  136.6560 C   0  0  0  0  0  0  0  0  0  0  0  0
  139.1170  157.8960  135.7460 C   0  0  0  0  0  0  0  0  0  0  0  0
  139.3610  157.9810  134.3720 C   0  0  0  0  0  0  0  0  0  0  0  0
  138.3830  157.6520  133.4930 F   0  0  0  0  0  0  0  0  0  0  0  0
  140.6130  158.3990  133.9050 C   0  0  0  0  0  0  0  0  0  0  0  0
  140.8380  158.4360  132.5670 F   0  0  0  0  0  0  0  0  0  0  0  0
  143.9940  158.2400  134.1220 C   0  0  0  0  0  0  0  0  0  0  0  0
  145.2440  158.7000  133.6900 C   0  0  0  0  0  0  0  0  0  0  0  0
  146.3500  157.9810  133.3910 N   0  0  0  0  0  0  0  0  0  0  0  0
  146.4740  156.5480  133.3940 C   0  0  0  0  0  0  0  0  0  0  0  0
  146.7590  155.9290  132.3360 O   0  0  0  0  0  0  0  0  0  0  0  0
  146.2860  155.8310  134.5700 O   0  0  0  0  0  0  0  0  0  0  0  0
  149.9880  157.2280  131.5710 H   0  0  0  0  0  0  0  0  0  0  0  0
  148.2850  156.6670  131.6800 H   0  0  0  0  0  0  0  0  0  0  0  0
  147.2541  161.1085  132.6988 H   0  0  0  0  0  0  0  0  0  0  0  0
  144.6767  162.0599  133.4814 H   0  0  0  0  0  0  0  0  0  0  0  0
  142.4262  161.3007  134.3048 H   0  0  0  0  0  0  0  0  0  0  0  0
  142.1659  158.8933  136.9195 H   0  0  0  0  0  0  0  0  0  0  0  0
  139.9295  158.1550  137.7366 H   0  0  0  0  0  0  0  0  0  0  0  0
  138.1314  157.5703  136.1101 H   0  0  0  0  0  0  0  0  0  0  0  0
  143.8158  157.1670  134.2858 H   0  0  0  0  0  0  0  0  0  0  0  0
  1  2  1  0
  2  3  2  0
  2  4  1  0
  4  5  2  0
  5  6  1  0
  6  7  2  0
  7  8  1  0
  8  9  2  0
  9 10  1  0
 10 11  2  0
 11 12  1  0
 12 13  2  0
 13 14  1  0
 14 15  1  0
 14 16  2  0
 16 17  1  0
  9 18  1  0
 18 19  2  0
 19 20  1  0
 20 21  1  0
 21 22  2  0
 21 23  1  0
 20  4  1  0
 19  6  1  0
 16 10  1  0
  1 24  1  0
  1 25  1  0
  5 26  1  0
  7 27  1  0
  8 28  1  0
 11 29  1  0
 12 30  1  0
 13 31  1  0
 18 32  1  0
M  CHG  1  23  -1
M  END
>  <UniqueID>  (50) 
50

>  <SMILES>  (50) 
NC(=O)c1cc2ccc(-c3cccc(F)c3F)cc2n1C(=O)[O-]

>  <Energy>  (50) 
81.34593487461304

>  <Genealogy>  (50) 
NC(=O)c1cc2ccc(-c3cccc(F)c3F)cc2n1C(=O)[O-] (protonated)
NC(=O)c1cc2ccc(-c3cccc(F)c3F)cc2n1C(=O)[O-] (3D coordinates assigned)
NC(=O)c1cc2ccc(-c3cccc(F)c3F)cc2n1C(=O)[O-] (optimized conformer: 81.34593487461304 kcal/mol)

>  <smiles>  (50) 
NC(=O)c1cc2ccc(-c3cccc(F)c3F)cc2n1C(=O)O

>  <score_type>  (50) 
oracle

>  <origin>  (50) 
adg

>  <m_score__min__energy>  (50) 
-7.2000000000000002

>  <m_primary>  (50) 
energy

$$$$
50:0
     RDKit          3D

 44 45  0  0  0  0  0  0  0  0999 V2000
  151.0510  149.6750  129.9170 C   0  0  0  0  0  0  0  0  0  0  0  0
  150.0050  150.7600  130.2050 C   0  0  0  0  0  0  0  0  0  0  0  0
  149.8640  151.1170  131.7160 C   0  0  0  0  0  0  0  0  0  0  0  0
  151.0880  150.8650  132.3720 O   0  0  0  0  0  0  0  0  0  0  0  0
  148.7520  150.2040  132.3220 C   0  0  0  0  0  0  0  0  0  0  0  0
  147.3280  150.6110  131.9390 C   0  0  0  0  0  0  0  0  0  0  0  0
  149.4710  152.6260  131.8680 C   0  0  0  0  0  0  0  0  0  0  0  0
  149.1810  153.0610  133.3170 C   0  0  0  0  0  0  0  0  0  0  0  0
  148.0670  154.0730  133.3530 C   0  0  0  0  0  0  0  0  0  0  0  0
  146.7170  153.6410  133.3520 C   0  0  0  0  0  0  0  0  0  0  0  0
  145.6680  154.5750  133.3600 C   0  0  0  0  0  0  0  0  0  0  0  0
  145.9980  155.9270  133.3520 C   0  0  0  0  0  0  0  0  0  0  0  0
  145.1840  157.0350  133.3740 C   0  0  0  0  0  0  0  0  0  0  0  0
  146.0470  158.1300  133.3530 C   0  0  0  0  0  0  0  0  0  0  0  0
  145.5930  159.5350  133.2720 C   0  0  0  0  0  0  0  0  0  0  0  0
  146.5290  160.6110  133.3620 N   0  0  0  0  0  0  0  0  0  0  0  0
  144.3660  159.7980  133.1570 O   0  0  0  0  0  0  0  0  0  0  0  0
  147.3460  157.7130  133.3220 N   0  0  0  0  0  0  0  0  0  0  0  0
  148.5270  158.5330  133.3610 C   0  0  0  0  0  0  0  0  0  0  0  0
  149.2460  158.6640  132.3350 O   0  0  0  0  0  0  0  0  0  0  0  0
  148.8970  159.1740  134.5360 O   0  0  0  0  0  0  0  0  0  0  0  0
  147.2980  156.3620  133.3210 C   0  0  0  0  0  0  0  0  0  0  0  0
  148.3640  155.4530  133.3320 C   0  0  0  0  0  0  0  0  0  0  0  0
  151.4361  149.2756  130.8668 H   0  0  0  0  0  0  0  0  0  0  0  0
  150.5868  148.8624  129.3389 H   0  0  0  0  0  0  0  0  0  0  0  0
  151.8800  150.1091  129.3389 H   0  0  0  0  0  0  0  0  0  0  0  0
  150.2918  151.6710  129.6593 H   0  0  0  0  0  0  0  0  0  0  0  0
  149.0331  150.3607  129.8794 H   0  0  0  0  0  0  0  0  0  0  0  0
  151.7600  151.5110  132.0280 H   0  0  0  0  0  0  0  0  0  0  0  0
  148.9223  149.1749  131.9726 H   0  0  0  0  0  0  0  0  0  0  0  0
  148.8249  150.3008  133.4153 H   0  0  0  0  0  0  0  0  0  0  0  0
  146.7370  150.7799  132.8513 H   0  0  0  0  0  0  0  0  0  0  0  0
  147.3583  151.5364  131.3452 H   0  0  0  0  0  0  0  0  0  0  0  0
  146.8647  149.8093  131.3452 H   0  0  0  0  0  0  0  0  0  0  0  0
  150.2997  153.2386  131.4834 H   0  0  0  0  0  0  0  0  0  0  0  0
  148.5378  152.7677  131.3031 H   0  0  0  0  0  0  0  0  0  0  0  0
  148.8885  152.1801  133.9073 H   0  0  0  0  0  0  0  0  0  0  0  0
  150.0886  153.5172  133.7389 H   0  0  0  0  0  0  0  0  0  0  0  0
  146.4889  152.5649  133.3449 H   0  0  0  0  0  0  0  0  0  0  0  0
  144.6178  154.2479  133.3722 H   0  0  0  0  0  0  0  0  0  0  0  0
  144.0845  157.0536  133.4022 H   0  0  0  0  0  0  0  0  0  0  0  0
  146.1940  161.5990  133.3440 H   0  0  0  0  0  0  0  0  0  0  0  0
  147.5570  160.4330  133.4050 H   0  0  0  0  0  0  0  0  0  0  0  0
  149.4059  155.8056  133.3245 H   0  0  0  0  0  0  0  0  0  0  0  0
  1  2  1  0
  2  3  1  0
  3  4  1  0
  3  5  1  0
  5  6  1  0
  3  7  1  0
  7  8  1  0
  8  9  1  0
  9 10  2  0
 10 11  1  0
 11 12  2  0
 12 13  1  0
 13 14  2  0
 14 15  1  0
 15 16  1  0
 15 17  2  0
 14 18  1  0
 18 19  1  0
 19 20  2  0
 19 21  1  0
 18 22  1  0
 22 23  2  0
 23  9  1  0
 22 12  1  0
  1 24  1  0
  1 25  1  0
  1 26  1  0
  2 27  1  0
  2 28  1  0
  4 29  1  0
  5 30  1  0
  5 31  1  0
  6 32  1  0
  6 33  1  0
  6 34  1  0
  7 35  1  0
  7 36  1  0
  8 37  1  0
  8 38  1  0
 10 39  1  0
 11 40  1  0
 13 41  1  0
 16 42  1  0
 16 43  1  0
 23 44  1  0
M  CHG  1  21  -1
M  END
>  <UniqueID>  (51) 
51

>  <SMILES>  (51) 
CCC(O)(CC)CCc1ccc2cc(C(N)=O)n(C(=O)[O-])c2c1

>  <Energy>  (51) 
80.79938351258562

>  <Genealogy>  (51) 
CCC(O)(CC)CCc1ccc2cc(C(N)=O)n(C(=O)[O-])c2c1 (protonated)
CCC(O)(CC)CCc1ccc2cc(C(N)=O)n(C(=O)[O-])c2c1 (3D coordinates assigned)
CCC(O)(CC)CCc1ccc2cc(C(N)=O)n(C(=O)[O-])c2c1 (optimized conformer: 80.79938351258562 kcal/mol)

>  <smiles>  (51) 
CCC(O)(CC)CCc1ccc2cc(C(N)=O)n(C(=O)O)c2c1

>  <score_type>  (51) 
oracle

>  <origin>  (51) 
adg

>  <m_score__min__energy>  (51) 
-7.5800000000000001

>  <m_primary>  (51) 
energy

$$$$
51:0
     RDKit          3D

 30 31  0  0  0  0  0  0  0  0999 V2000
  143.4200  159.8710  133.7230 C   0  0  0  0  0  0  0  0  0  0  0  0
  144.8340  160.2640  133.7470 N   0  0  0  0  0  0  0  0  0  0  0  0
  145.1810  161.6440  134.1070 C   0  0  0  0  0  0  0  0  0  0  0  0
  145.8730  159.3020  133.4220 C   0  0  0  0  0  0  0  0  0  0  0  0
  147.0750  159.7210  132.7840 C   0  0  0  0  0  0  0  0  0  0  0  0
  148.0910  158.8030  132.4770 C   0  0  0  0  0  0  0  0  0  0  0  0
  147.8880  157.4690  132.8050 C   0  0  0  0  0  0  0  0  0  0  0  0
  148.7150  156.3820  132.6390 C   0  0  0  0  0  0  0  0  0  0  0  0
  148.0080  155.2980  133.1540 C   0  0  0  0  0  0  0  0  0  0  0  0
  148.4900  153.8990  133.1000 C   0  0  0  0  0  0  0  0  0  0  0  0
  147.7350  152.8450  133.7010 N   0  0  0  0  0  0  0  0  0  0  0  0
  149.5880  153.6290  132.5480 O   0  0  0  0  0  0  0  0  0  0  0  0
  146.7910  155.6990  133.6200 N   0  0  0  0  0  0  0  0  0  0  0  0
  145.7940  154.8970  134.2750 C   0  0  0  0  0  0  0  0  0  0  0  0
  144.7220  154.6060  133.6840 O   0  0  0  0  0  0  0  0  0  0  0  0
  146.0080  154.4230  135.5640 O   0  0  0  0  0  0  0  0  0  0  0  0
  146.7340  157.0330  133.3990 C   0  0  0  0  0  0  0  0  0  0  0  0
  145.7120  157.9280  133.7370 C   0  0  0  0  0  0  0  0  0  0  0  0
  143.0504  159.7683  134.7540 H   0  0  0  0  0  0  0  0  0  0  0  0
  142.8344  160.6404  133.1985 H   0  0  0  0  0  0  0  0  0  0  0  0
  143.3154  158.9098  133.1985 H   0  0  0  0  0  0  0  0  0  0  0  0
  145.2057  161.7420  135.2023 H   0  0  0  0  0  0  0  0  0  0  0  0
  146.1697  161.8931  133.6942 H   0  0  0  0  0  0  0  0  0  0  0  0
  144.4277  162.3311  133.6942 H   0  0  0  0  0  0  0  0  0  0  0  0
  147.2094  160.7822  132.5274 H   0  0  0  0  0  0  0  0  0  0  0  0
  149.0215  159.1307  131.9905 H   0  0  0  0  0  0  0  0  0  0  0  0
  149.7209  156.3713  132.1941 H   0  0  0  0  0  0  0  0  0  0  0  0
  148.1030  151.8670  133.6920 H   0  0  0  0  0  0  0  0  0  0  0  0
  146.7960  153.0190  134.1190 H   0  0  0  0  0  0  0  0  0  0  0  0
  144.7998  157.5721  134.2382 H   0  0  0  0  0  0  0  0  0  0  0  0
  1  2  1  0
  2  3  1  0
  2  4  1  0
  4  5  2  0
  5  6  1  0
  6  7  2  0
  7  8  1  0
  8  9  2  0
  9 10  1  0
 10 11  1  0
 10 12  2  0
  9 13  1  0
 13 14  1  0
 14 15  2  0
 14 16  1  0
 13 17  1  0
 17 18  2  0
 18  4  1  0
 17  7  1  0
  1 19  1  0
  1 20  1  0
  1 21  1  0
  3 22  1  0
  3 23  1  0
  3 24  1  0
  5 25  1  0
  6 26  1  0
  8 27  1  0
 11 28  1  0
 11 29  1  0
 18 30  1  0
M  CHG  1  16  -1
M  END
>  <UniqueID>  (52) 
52

>  <SMILES>  (52) 
CN(C)c1ccc2cc(C(N)=O)n(C(=O)[O-])c2c1

>  <Energy>  (52) 
70.9340225835087

>  <Genealogy>  (52) 
CN(C)c1ccc2cc(C(N)=O)n(C(=O)[O-])c2c1 (protonated)
CN(C)c1ccc2cc(C(N)=O)n(C(=O)[O-])c2c1 (3D coordinates assigned)
CN(C)c1ccc2cc(C(N)=O)n(C(=O)[O-])c2c1 (optimized conformer: 70.9340225835087 kcal/mol)

>  <smiles>  (52) 
CN(C)c1ccc2cc(C(N)=O)n(C(=O)O)c2c1

>  <score_type>  (52) 
oracle

>  <origin>  (52) 
adg

>  <m_score__min__energy>  (52) 
-5.7300000000000004

>  <m_primary>  (52) 
energy

$$$$
52:0
     RDKit          3D

 44 46  0  0  0  0  0  0  0  0999 V2000
  149.5850  151.3380  132.5180 C   0  0  0  0  0  0  0  0  0  0  0  0
  149.1710  152.7250  132.6700 N   0  0  0  0  0  0  0  0  0  0  0  0
  147.9330  153.1470  132.9830 C   0  0  0  0  0  0  0  0  0  0  0  0
  147.9280  154.5310  132.9560 C   0  0  0  0  0  0  0  0  0  0  0  0
  146.7870  155.4380  133.2310 C   0  0  0  0  0  0  0  0  0  0  0  0
  145.5220  154.9140  133.6160 C   0  0  0  0  0  0  0  0  0  0  0  0
  144.4350  155.7660  133.8710 C   0  0  0  0  0  0  0  0  0  0  0  0
  144.6360  157.1370  133.7440 C   0  0  0  0  0  0  0  0  0  0  0  0
  143.7530  158.1800  133.9080 C   0  0  0  0  0  0  0  0  0  0  0  0
  144.4910  159.3320  133.6460 C   0  0  0  0  0  0  0  0  0  0  0  0
  143.9470  160.6980  133.7950 C   0  0  0  0  0  0  0  0  0  0  0  0
  144.8030  161.8040  134.0690 N   0  0  0  0  0  0  0  0  0  0  0  0
  142.7030  160.8850  133.7270 O   0  0  0  0  0  0  0  0  0  0  0  0
  145.7770  159.0130  133.3230 N   0  0  0  0  0  0  0  0  0  0  0  0
  146.8330  159.8940  132.9150 C   0  0  0  0  0  0  0  0  0  0  0  0
  147.2490  160.7810  133.7080 O   0  0  0  0  0  0  0  0  0  0  0  0
  147.3660  159.7730  131.6230 O   0  0  0  0  0  0  0  0  0  0  0  0
  148.7560  159.8010  131.2690 C   0  0  0  0  0  0  0  0  0  0  0  0
  149.6090  159.1300  132.3640 C   0  0  0  0  0  0  0  0  0  0  0  0
  148.9060  159.0040  129.9640 C   0  0  0  0  0  0  0  0  0  0  0  0
  149.2230  161.2480  131.0250 C   0  0  0  0  0  0  0  0  0  0  0  0
  145.8490  157.6650  133.3920 C   0  0  0  0  0  0  0  0  0  0  0  0
  146.9440  156.8400  133.1100 C   0  0  0  0  0  0  0  0  0  0  0  0
  149.2240  154.8780  132.6000 C   0  0  0  0  0  0  0  0  0  0  0  0
  149.9570  153.7600  132.4250 N   0  0  0  0  0  0  0  0  0  0  0  0
  149.7203  150.8848  133.5111 H   0  0  0  0  0  0  0  0  0  0  0  0
  148.8132  150.7836  131.9640 H   0  0  0  0  0  0  0  0  0  0  0  0
  150.5344  151.2973  131.9640 H   0  0  0  0  0  0  0  0  0  0  0  0
  147.0729  152.5035  133.2196 H   0  0  0  0  0  0  0  0  0  0  0  0
  145.3932  153.8261  133.7154 H   0  0  0  0  0  0  0  0  0  0  0  0
  143.4544  155.3617  134.1623 H   0  0  0  0  0  0  0  0  0  0  0  0
  142.6907  158.1172  134.1866 H   0  0  0  0  0  0  0  0  0  0  0  0
  145.6100  162.0270  133.4450 H   0  0  0  0  0  0  0  0  0  0  0  0
  149.2329  159.4258  133.3545 H   0  0  0  0  0  0  0  0  0  0  0  0
  149.5460  158.0368  132.2594 H   0  0  0  0  0  0  0  0  0  0  0  0
  150.6566  159.4486  132.2594 H   0  0  0  0  0  0  0  0  0  0  0  0
  149.1047  157.9481  130.2000 H   0  0  0  0  0  0  0  0  0  0  0  0
  147.9777  159.0805  129.3789 H   0  0  0  0  0  0  0  0  0  0  0  0
  149.7430  159.4128  129.3789 H   0  0  0  0  0  0  0  0  0  0  0  0
  149.3847  161.7489  131.9909 H   0  0  0  0  0  0  0  0  0  0  0  0
  150.1637  161.2385  130.4549 H   0  0  0  0  0  0  0  0  0  0  0  0
  148.4542  161.7902  130.4549 H   0  0  0  0  0  0  0  0  0  0  0  0
  147.9071  157.2721  132.8006 H   0  0  0  0  0  0  0  0  0  0  0  0
  149.5956  155.9063  132.4793 H   0  0  0  0  0  0  0  0  0  0  0  0
  1  2  1  0
  2  3  1  0
  3  4  2  0
  4  5  1  0
  5  6  2  0
  6  7  1  0
  7  8  2  0
  8  9  1  0
  9 10  2  0
 10 11  1  0
 11 12  1  0
 11 13  2  0
 10 14  1  0
 14 15  1  0
 15 16  2  0
 15 17  1  0
 17 18  1  0
 18 19  1  0
 18 20  1  0
 18 21  1  0
 14 22  1  0
 22 23  2  0
  4 24  1  0
 24 25  2  0
 25  2  1  0
 23  5  1  0
 22  8  1  0
  1 26  1  0
  1 27  1  0
  1 28  1  0
  3 29  1  0
  6 30  1  0
  7 31  1  0
  9 32  1  0
 12 33  1  0
 19 34  1  0
 19 35  1  0
 19 36  1  0
 20 37  1  0
 20 38  1  0
 20 39  1  0
 21 40  1  0
 21 41  1  0
 21 42  1  0
 23 43  1  0
 24 44  1  0
M  CHG  1  12  -1
M  END
>  <UniqueID>  (53) 
53

>  <SMILES>  (53) 
Cn1cc(-c2ccc3cc(C([NH-])=O)n(C(=O)OC(C)(C)C)c3c2)cn1

>  <Energy>  (53) 
110.80512511047124

>  <Genealogy>  (53) 
Cn1cc(-c2ccc3cc(C([NH-])=O)n(C(=O)OC(C)(C)C)c3c2)cn1 (protonated)
Cn1cc(-c2ccc3cc(C([NH-])=O)n(C(=O)OC(C)(C)C)c3c2)cn1 (3D coordinates assigned)
Cn1cc(-c2ccc3cc(C([NH-])=O)n(C(=O)OC(C)(C)C)c3c2)cn1 (optimized conformer: 110.80512511047124 kcal/mol)

>  <smiles>  (53) 
Cn1cc(-c2ccc3cc(C(N)=O)n(C(=O)OC(C)(C)C)c3c2)cn1

>  <score_type>  (53) 
oracle

>  <origin>  (53) 
adg

>  <m_score__min__energy>  (53) 
-7.9400000000000004

>  <m_primary>  (53) 
energy

$$$$
53:0
     RDKit          3D

 35 36  0  0  0  0  0  0  0  0999 V2000
  138.7140  155.8950  132.1660 H   0  0  0  0  0  0  0  0  0  0  0  0
  139.2920  156.0840  132.9990 N   0  0  0  0  0  0  0  0  0  0  0  0
  139.7050  157.2710  133.2770 C   0  0  0  0  0  0  0  0  0  0  0  0
  139.3060  158.4240  132.3940 C   0  0  0  0  0  0  0  0  0  0  0  0
  139.0100  159.2793  133.0192 H   0  0  0  0  0  0  0  0  0  0  0  0
  140.1570  158.7111  131.7589 H   0  0  0  0  0  0  0  0  0  0  0  0
  138.4595  158.1237  131.7589 H   0  0  0  0  0  0  0  0  0  0  0  0
  140.5200  157.5310  134.5310 C   0  0  2  0  0  0  0  0  0  0  0  0
  140.8099  156.5463  134.9264 H   0  0  0  0  0  0  0  0  0  0  0  0
  139.7200  158.2180  135.6110 C   0  0  0  0  0  0  0  0  0  0  0  0
  138.4600  158.2360  135.5630 O   0  0  0  0  0  0  0  0  0  0  0  0
  140.3920  158.8250  136.7120 N   0  0  0  0  0  0  0  0  0  0  0  0
  139.8660  159.3900  137.4150 H   0  0  0  0  0  0  0  0  0  0  0  0
  141.7830  158.3100  134.2130 C   0  0  0  0  0  0  0  0  0  0  0  0
  141.7400  159.7130  133.9980 C   0  0  0  0  0  0  0  0  0  0  0  0
  140.7783  160.2431  134.0618 H   0  0  0  0  0  0  0  0  0  0  0  0
  142.9100  160.4320  133.7050 C   0  0  0  0  0  0  0  0  0  0  0  0
  142.8787  161.5168  133.5253 H   0  0  0  0  0  0  0  0  0  0  0  0
  144.1090  159.7310  133.6490 C   0  0  0  0  0  0  0  0  0  0  0  0
  145.3770  160.1740  133.3510 C   0  0  0  0  0  0  0  0  0  0  0  0
  145.6842  161.2010  133.1044 H   0  0  0  0  0  0  0  0  0  0  0  0
  146.1880  159.0460  133.4280 C   0  0  0  0  0  0  0  0  0  0  0  0
  147.6500  159.0810  133.2260 C   0  0  0  0  0  0  0  0  0  0  0  0
  148.1540  159.9850  132.5080 O   0  0  0  0  0  0  0  0  0  0  0  0
  148.5110  158.1470  133.8790 N   0  0  0  0  0  0  0  0  0  0  0  0
  148.1480  157.4990  134.6130 H   0  0  0  0  0  0  0  0  0  0  0  0
  149.5380  158.1600  133.6900 H   0  0  0  0  0  0  0  0  0  0  0  0
  145.4520  157.9430  133.7510 N   0  0  0  0  0  0  0  0  0  0  0  0
  145.9070  156.5810  133.8120 C   0  0  0  0  0  0  0  0  0  0  0  0
  146.4840  156.1510  134.8460 O   0  0  0  0  0  0  0  0  0  0  0  0
  145.6990  155.7020  132.7070 N   0  0  0  0  0  0  0  0  0  0  0  0
  145.8610  156.0270  131.7270 H   0  0  0  0  0  0  0  0  0  0  0  0
  144.1800  158.3820  133.8840 C   0  0  0  0  0  0  0  0  0  0  0  0
  143.0260  157.6360  134.1550 C   0  0  0  0  0  0  0  0  0  0  0  0
  143.0846  156.5499  134.3192 H   0  0  0  0  0  0  0  0  0  0  0  0
  1  2  1  0
  2  3  2  0
  3  4  1  0
  4  5  1  0
  4  6  1  0
  4  7  1  0
  3  8  1  0
  8  9  1  1
  8 10  1  0
 10 11  2  0
 10 12  1  0
 12 13  1  0
  8 14  1  0
 14 15  2  0
 15 16  1  0
 15 17  1  0
 17 18  1  0
 17 19  2  0
 19 20  1  0
 20 21  1  0
 20 22  2  0
 22 23  1  0
 23 24  2  0
 23 25  1  0
 25 26  1  0
 25 27  1  0
 22 28  1  0
 28 29  1  0
 29 30  2  0
 29 31  1  0
 31 32  1  0
 28 33  1  0
 33 34  2  0
 34 35  1  0
 34 14  1  0
 33 19  1  0
M  CHG  2  12  -1  31  -1
M  END
>  <UniqueID>  (54) 
54

>  <SMILES>  (54) 
[H]/N=C(\C)[C@H](C([NH-])=O)c1ccc2cc(C(N)=O)n(C([NH-])=O)c2c1

>  <Energy>  (54) 
73.25673027675117

>  <Genealogy>  (54) 
CC(=N)C(C([NH-])=O)c1ccc2cc(C(N)=O)n(C([NH-])=O)c2c1 (protonated)
CC(=N)[C@H](C([NH-])=O)c1ccc2cc(C(N)=O)n(C([NH-])=O)c2c1 (chirality)
[H]/N=C(\C)[C@H](C([NH-])=O)c1ccc2cc(C(N)=O)n(C([NH-])=O)c2c1 (cis-trans isomerization)
[H]/N=C(\C)[C@H](C([NH-])=O)c1ccc2cc(C(N)=O)n(C([NH-])=O)c2c1 (3D coordinates assigned)
[H]/N=C(\C)[C@H](C([NH-])=O)c1ccc2cc(C(N)=O)n(C([NH-])=O)c2c1 (optimized conformer: 73.25673027675117 kcal/mol)

>  <smiles>  (54) 
CC(=N)C(C(N)=O)c1ccc2cc(C(N)=O)n(C(N)=O)c2c1

>  <score_type>  (54) 
oracle

>  <origin>  (54) 
adg

>  <m_score__min__energy>  (54) 
-7.5999999999999996

>  <m_primary>  (54) 
energy

$$$$
54:0
     RDKit          3D

 35 37  0  0  0  0  0  0  0  0999 V2000
  149.6170  160.7950  130.0670 C   0  0  0  0  0  0  0  0  0  0  0  0
  149.0140  159.8840  131.0890 C   0  0  0  0  0  0  0  0  0  0  0  0
  147.7540  160.1680  131.6320 C   0  0  0  0  0  0  0  0  0  0  0  0
  147.2040  159.3130  132.6040 C   0  0  0  0  0  0  0  0  0  0  0  0
  145.8700  159.5920  133.1910 C   0  0  0  0  0  0  0  0  0  0  0  0
  145.5610  160.8850  133.6910 C   0  0  0  0  0  0  0  0  0  0  0  0
  144.3040  161.1580  134.2560 C   0  0  0  0  0  0  0  0  0  0  0  0
  143.3730  160.1250  134.3060 C   0  0  0  0  0  0  0  0  0  0  0  0
  142.0950  160.1080  134.8160 C   0  0  0  0  0  0  0  0  0  0  0  0
  141.6300  158.8110  134.6050 C   0  0  0  0  0  0  0  0  0  0  0  0
  140.2550  158.3770  134.9220 C   0  0  0  0  0  0  0  0  0  0  0  0
  139.8180  158.2560  136.2740 N   0  0  0  0  0  0  0  0  0  0  0  0
  139.4670  158.0660  133.9890 O   0  0  0  0  0  0  0  0  0  0  0  0
  142.5890  158.0550  133.9980 N   0  0  0  0  0  0  0  0  0  0  0  0
  142.5400  156.6560  133.6800 C   0  0  0  0  0  0  0  0  0  0  0  0
  141.4180  156.1100  132.9860 N   0  0  0  0  0  0  0  0  0  0  0  0
  143.4730  155.8940  134.0460 O   0  0  0  0  0  0  0  0  0  0  0  0
  143.6450  158.8760  133.8160 C   0  0  0  0  0  0  0  0  0  0  0  0
  144.8920  158.5710  133.2610 C   0  0  0  0  0  0  0  0  0  0  0  0
  147.9440  158.1900  133.0110 C   0  0  0  0  0  0  0  0  0  0  0  0
  149.1980  157.9450  132.4490 C   0  0  0  0  0  0  0  0  0  0  0  0
  149.7020  158.7900  131.5110 N   0  0  0  0  0  0  0  0  0  0  0  0
  150.1559  161.6091  130.5739 H   0  0  0  0  0  0  0  0  0  0  0  0
  150.3182  160.2272  129.4378 H   0  0  0  0  0  0  0  0  0  0  0  0
  148.8203  161.2186  129.4378 H   0  0  0  0  0  0  0  0  0  0  0  0
  147.1970  161.0563  131.2994 H   0  0  0  0  0  0  0  0  0  0  0  0
  146.3159  161.6832  133.6351 H   0  0  0  0  0  0  0  0  0  0  0  0
  144.0632  162.1576  134.6468 H   0  0  0  0  0  0  0  0  0  0  0  0
  141.5550  160.9411  135.2896 H   0  0  0  0  0  0  0  0  0  0  0  0
  139.4720  159.0880  136.8020 H   0  0  0  0  0  0  0  0  0  0  0  0
  141.3880  155.0950  132.7450 H   0  0  0  0  0  0  0  0  0  0  0  0
  140.6000  156.7130  132.7430 H   0  0  0  0  0  0  0  0  0  0  0  0
  145.1082  157.5594  132.8869 H   0  0  0  0  0  0  0  0  0  0  0  0
  147.5364  157.5061  133.7701 H   0  0  0  0  0  0  0  0  0  0  0  0
  149.7794  157.0666  132.7657 H   0  0  0  0  0  0  0  0  0  0  0  0
  1  2  1  0
  2  3  2  0
  3  4  1  0
  4  5  1  0
  5  6  2  0
  6  7  1  0
  7  8  2  0
  8  9  1  0
  9 10  2  0
 10 11  1  0
 11 12  1  0
 11 13  2  0
 10 14  1  0
 14 15  1  0
 15 16  1  0
 15 17  2  0
 14 18  1  0
 18 19  2  0
  4 20  2  0
 20 21  1  0
 21 22  2  0
 22  2  1  0
 19  5  1  0
 18  8  1  0
  1 23  1  0
  1 24  1  0
  1 25  1  0
  3 26  1  0
  6 27  1  0
  7 28  1  0
  9 29  1  0
 12 30  1  0
 16 31  1  0
 16 32  1  0
 19 33  1  0
 20 34  1  0
 21 35  1  0
M  CHG  1  12  -1
M  END
>  <UniqueID>  (55) 
55

>  <SMILES>  (55) 
Cc1cc(-c2ccc3cc(C([NH-])=O)n(C(N)=O)c3c2)ccn1

>  <Energy>  (55) 
80.92417185055996

>  <Genealogy>  (55) 
Cc1cc(-c2ccc3cc(C([NH-])=O)n(C(N)=O)c3c2)ccn1 (protonated)
Cc1cc(-c2ccc3cc(C([NH-])=O)n(C(N)=O)c3c2)ccn1 (3D coordinates assigned)
Cc1cc(-c2ccc3cc(C([NH-])=O)n(C(N)=O)c3c2)ccn1 (optimized conformer: 80.92417185055996 kcal/mol)

>  <smiles>  (55) 
Cc1cc(-c2ccc3cc(C(N)=O)n(C(N)=O)c3c2)ccn1

>  <score_type>  (55) 
oracle

>  <origin>  (55) 
adg

>  <m_score__min__energy>  (55) 
-8.0199999999999996

>  <m_primary>  (55) 
energy

$$$$
55:0
     RDKit          3D

 35 37  0  0  0  0  0  0  0  0999 V2000
  149.0510  159.0420  131.0080 C   0  0  0  0  0  0  0  0  0  0  0  0
  148.6260  159.0370  132.4430 C   0  0  0  0  0  0  0  0  0  0  0  0
  149.2320  159.7750  133.2640 O   0  0  0  0  0  0  0  0  0  0  0  0
  147.5610  158.1840  132.8980 N   0  0  0  0  0  0  0  0  0  0  0  0
  146.2880  158.5340  133.2330 C   0  0  0  0  0  0  0  0  0  0  0  0
  145.7780  159.9130  133.3680 C   0  0  0  0  0  0  0  0  0  0  0  0
  146.6500  160.9950  133.6930 N   0  0  0  0  0  0  0  0  0  0  0  0
  144.5420  160.1310  133.2480 O   0  0  0  0  0  0  0  0  0  0  0  0
  145.5210  157.4030  133.4990 C   0  0  0  0  0  0  0  0  0  0  0  0
  146.3750  156.3370  133.3330 C   0  0  0  0  0  0  0  0  0  0  0  0
  146.1420  154.9720  133.4700 C   0  0  0  0  0  0  0  0  0  0  0  0
  147.2070  154.0940  133.2120 C   0  0  0  0  0  0  0  0  0  0  0  0
  148.4710  154.5910  132.8060 C   0  0  0  0  0  0  0  0  0  0  0  0
  149.6120  153.6420  132.5610 C   0  0  0  0  0  0  0  0  0  0  0  0
  149.2160  152.2270  132.9970 C   0  0  0  0  0  0  0  0  0  0  0  0
  150.2430  151.1400  132.7220 C   0  0  0  0  0  0  0  0  0  0  0  0
  148.9930  151.2430  131.8600 C   0  0  0  0  0  0  0  0  0  0  0  0
  148.6740  155.9830  132.6880 C   0  0  0  0  0  0  0  0  0  0  0  0
  147.5990  156.8350  132.9690 C   0  0  0  0  0  0  0  0  0  0  0  0
  150.1494  159.0549  130.9509 H   0  0  0  0  0  0  0  0  0  0  0  0
  148.6685  158.1393  130.5092 H   0  0  0  0  0  0  0  0  0  0  0  0
  148.6474  159.9355  130.5092 H   0  0  0  0  0  0  0  0  0  0  0  0
  147.6440  160.8250  133.9640 H   0  0  0  0  0  0  0  0  0  0  0  0
  146.2800  161.9700  133.7430 H   0  0  0  0  0  0  0  0  0  0  0  0
  144.4585  157.3689  133.7817 H   0  0  0  0  0  0  0  0  0  0  0  0
  145.1543  154.5926  133.7710 H   0  0  0  0  0  0  0  0  0  0  0  0
  147.0590  153.0100  133.3261 H   0  0  0  0  0  0  0  0  0  0  0  0
  149.8592  153.6377  131.4891 H   0  0  0  0  0  0  0  0  0  0  0  0
  150.4864  153.9689  133.1428 H   0  0  0  0  0  0  0  0  0  0  0  0
  148.6432  152.5465  133.8800 H   0  0  0  0  0  0  0  0  0  0  0  0
  151.2245  151.4042  132.3015 H   0  0  0  0  0  0  0  0  0  0  0  0
  150.7131  150.3447  133.3191 H   0  0  0  0  0  0  0  0  0  0  0  0
  149.0709  151.5816  130.8163 H   0  0  0  0  0  0  0  0  0  0  0  0
  148.1850  150.5528  131.5757 H   0  0  0  0  0  0  0  0  0  0  0  0
  149.6505  156.3875  132.3835 H   0  0  0  0  0  0  0  0  0  0  0  0
  1  2  1  0
  2  3  2  0
  2  4  1  0
  4  5  1  0
  5  6  1  0
  6  7  1  0
  6  8  2  0
  5  9  2  0
  9 10  1  0
 10 11  2  0
 11 12  1  0
 12 13  2  0
 13 14  1  0
 14 15  1  0
 15 16  1  0
 16 17  1  0
 13 18  1  0
 18 19  2  0
 19  4  1  0
 19 10  1  0
 17 15  1  0
  1 20  1  0
  1 21  1  0
  1 22  1  0
  7 23  1  0
  7 24  1  0
  9 25  1  0
 11 26  1  0
 12 27  1  0
 14 28  1  0
 14 29  1  0
 15 30  1  0
 16 31  1  0
 16 32  1  0
 17 33  1  0
 17 34  1  0
 18 35  1  0
M  END
>  <UniqueID>  (56) 
56

>  <SMILES>  (56) 
CC(=O)n1c(C(N)=O)cc2ccc(CC3CC3)cc21

>  <Energy>  (56) 
336.9854764196868

>  <Genealogy>  (56) 
CC(=O)n1c(C(N)=O)cc2ccc(CC3CC3)cc21 (3D coordinates assigned)
CC(=O)n1c(C(N)=O)cc2ccc(CC3CC3)cc21 (nonaromatic ring conformer: 336.9854764196868 kcal/mol)

>  <smiles>  (56) 
CC(=O)n1c(C(N)=O)cc2ccc(CC3CC3)cc21

>  <score_type>  (56) 
oracle

>  <origin>  (56) 
adg

>  <m_score__min__energy>  (56) 
-7.1699999999999999

>  <m_primary>  (56) 
energy

$$$$
56:0
     RDKit          3D

 52 54  0  0  0  0  0  0  0  0999 V2000
  141.0010  159.2860  137.4010 C   0  0  0  0  0  0  0  0  0  0  0  0
  140.8730  157.8800  137.3740 O   0  0  0  0  0  0  0  0  0  0  0  0
  139.8440  157.4930  136.4780 C   0  0  0  0  0  0  0  0  0  0  0  0
  140.1600  157.9990  135.0470 C   0  0  2  0  0  0  0  0  0  0  0  0
  138.8650  158.2100  134.2510 C   0  0  0  0  0  0  0  0  0  0  0  0
  138.7340  156.9860  133.3460 C   0  0  0  0  0  0  0  0  0  0  0  0
  140.0040  156.1680  133.5620 C   0  0  0  0  0  0  0  0  0  0  0  0
  140.9620  157.0640  134.2250 N   0  0  2  0  0  0  0  0  0  0  0  0
  142.1460  156.4380  134.8730 C   0  0  0  0  0  0  0  0  0  0  0  0
  143.4250  156.3510  134.0080 C   0  0  0  0  0  0  0  0  0  0  0  0
  143.4630  157.4780  133.0190 C   0  0  0  0  0  0  0  0  0  0  0  0
  142.8750  157.3650  131.9100 O   0  0  0  0  0  0  0  0  0  0  0  0
  144.0770  158.7220  133.3790 N   0  0  0  0  0  0  0  0  0  0  0  0
  143.4630  159.9190  133.5870 C   0  0  0  0  0  0  0  0  0  0  0  0
  142.0030  160.1280  133.6660 C   0  0  0  0  0  0  0  0  0  0  0  0
  141.1480  159.5710  132.6690 N   0  0  0  0  0  0  0  0  0  0  0  0
  141.5030  160.8150  134.5950 O   0  0  0  0  0  0  0  0  0  0  0  0
  144.4070  160.9350  133.7160 C   0  0  0  0  0  0  0  0  0  0  0  0
  145.6290  160.3180  133.5650 C   0  0  0  0  0  0  0  0  0  0  0  0
  146.9110  160.8600  133.5290 C   0  0  0  0  0  0  0  0  0  0  0  0
  147.9850  159.9920  133.2670 C   0  0  0  0  0  0  0  0  0  0  0  0
  147.7620  158.6090  133.0560 C   0  0  0  0  0  0  0  0  0  0  0  0
  148.9080  157.7020  132.7100 C   0  0  0  0  0  0  0  0  0  0  0  0
  149.9010  158.4280  131.8560 C   0  0  0  0  0  0  0  0  0  0  0  0
  149.5370  159.0160  130.8510 O   0  0  0  0  0  0  0  0  0  0  0  0
  146.4470  158.0960  133.1030 C   0  0  0  0  0  0  0  0  0  0  0  0
  145.3990  158.9820  133.3640 C   0  0  0  0  0  0  0  0  0  0  0  0
  141.0324  159.6313  138.4449 H   0  0  0  0  0  0  0  0  0  0  0  0
  141.9296  159.5795  136.8896 H   0  0  0  0  0  0  0  0  0  0  0  0
  140.1407  159.7424  136.8896 H   0  0  0  0  0  0  0  0  0  0  0  0
  139.7664  156.3958  136.4663 H   0  0  0  0  0  0  0  0  0  0  0  0
  138.8932  157.9338  136.8122 H   0  0  0  0  0  0  0  0  0  0  0  0
  140.7307  158.9239  135.2170 H   0  0  0  0  0  0  0  0  0  0  0  0
  138.0032  158.2785  134.9312 H   0  0  0  0  0  0  0  0  0  0  0  0
  138.8920  159.1440  133.6705 H   0  0  0  0  0  0  0  0  0  0  0  0
  137.8476  156.3972  133.6248 H   0  0  0  0  0  0  0  0  0  0  0  0
  138.6141  157.2746  132.2913 H   0  0  0  0  0  0  0  0  0  0  0  0
  139.7925  155.2970  134.1997 H   0  0  0  0  0  0  0  0  0  0  0  0
  140.4031  155.7890  132.6096 H   0  0  0  0  0  0  0  0  0  0  0  0
  141.3630  157.6570  133.4560 H   0  0  0  0  0  0  0  0  0  0  0  0
  142.3869  157.0243  135.7720 H   0  0  0  0  0  0  0  0  0  0  0  0
  141.8558  155.3972  135.0789 H   0  0  0  0  0  0  0  0  0  0  0  0
  144.3088  156.4108  134.6602 H   0  0  0  0  0  0  0  0  0  0  0  0
  143.4231  155.3961  133.4620 H   0  0  0  0  0  0  0  0  0  0  0  0
  141.5440  159.0690  131.8440 H   0  0  0  0  0  0  0  0  0  0  0  0
  144.2170  162.0028  133.8994 H   0  0  0  0  0  0  0  0  0  0  0  0
  147.0780  161.9337  133.7002 H   0  0  0  0  0  0  0  0  0  0  0  0
  149.0094  160.3907  133.2253 H   0  0  0  0  0  0  0  0  0  0  0  0
  149.3998  157.3683  133.6356 H   0  0  0  0  0  0  0  0  0  0  0  0
  148.5240  156.8333  132.1552 H   0  0  0  0  0  0  0  0  0  0  0  0
  150.9646  158.4311  132.1364 H   0  0  0  0  0  0  0  0  0  0  0  0
  146.2529  157.0259  132.9383 H   0  0  0  0  0  0  0  0  0  0  0  0
  1  2  1  0
  2  3  1  0
  3  4  1  0
  4  5  1  0
  5  6  1  0
  6  7  1  0
  7  8  1  0
  8  9  1  0
  9 10  1  0
 10 11  1  0
 11 12  2  0
 11 13  1  0
 13 14  1  0
 14 15  1  0
 15 16  1  0
 15 17  2  0
 14 18  2  0
 18 19  1  0
 19 20  2  0
 20 21  1  0
 21 22  2  0
 22 23  1  0
 23 24  1  0
 24 25  2  0
 22 26  1  0
 26 27  2  0
  8  4  1  0
 27 13  1  0
 27 19  1  0
  1 28  1  0
  1 29  1  0
  1 30  1  0
  3 31  1  0
  3 32  1  0
  4 33  1  1
  5 34  1  0
  5 35  1  0
  6 36  1  0
  6 37  1  0
  7 38  1  0
  7 39  1  0
  8 40  1  6
  9 41  1  0
  9 42  1  0
 10 43  1  0
 10 44  1  0
 16 45  1  0
 18 46  1  0
 20 47  1  0
 21 48  1  0
 23 49  1  0
 23 50  1  0
 24 51  1  0
 26 52  1  0
M  CHG  2   8   1  16  -1
M  END
>  <UniqueID>  (57) 
57

>  <SMILES>  (57) 
COC[C@@H]1CCC[N@@H+]1CCC(=O)n1c(C([NH-])=O)cc2ccc(CC=O)cc21

>  <Energy>  (57) 
102.56394249294094

>  <Genealogy>  (57) 
COCC1CCC[NH+]1CCC(=O)n1c(C([NH-])=O)cc2ccc(CC=O)cc21 (protonated)
COC[C@@H]1CCC[N@@H+]1CCC(=O)n1c(C([NH-])=O)cc2ccc(CC=O)cc21 (chirality)
COC[C@@H]1CCC[N@@H+]1CCC(=O)n1c(C([NH-])=O)cc2ccc(CC=O)cc21 (3D coordinates assigned)
COC[C@@H]1CCC[N@@H+]1CCC(=O)n1c(C([NH-])=O)cc2ccc(CC=O)cc21 (nonaromatic ring conformer: 102.56394249294094 kcal/mol)

>  <smiles>  (57) 
COCC1CCCN1CCC(=O)n1c(C(N)=O)cc2ccc(CC=O)cc21

>  <score_type>  (57) 
oracle

>  <origin>  (57) 
adg

>  <m_score__min__energy>  (57) 
-6.3499999999999996

>  <m_primary>  (57) 
energy

$$$$
57:0
     RDKit          3D

 34 36  0  0  0  0  0  0  0  0999 V2000
  147.9570  160.8580  132.4940 N   0  0  0  0  0  0  0  0  0  0  0  0
  147.5610  159.7850  133.3460 C   0  0  0  0  0  0  0  0  0  0  0  0
  148.4320  159.1890  134.0300 O   0  0  0  0  0  0  0  0  0  0  0  0
  146.1470  159.3580  133.3810 C   0  0  0  0  0  0  0  0  0  0  0  0
  145.7380  158.0420  133.1750 C   0  0  0  0  0  0  0  0  0  0  0  0
  144.3780  158.0450  133.3820 C   0  0  0  0  0  0  0  0  0  0  0  0
  143.4590  157.0030  133.3060 C   0  0  0  0  0  0  0  0  0  0  0  0
  142.1080  157.2980  133.5510 C   0  0  0  0  0  0  0  0  0  0  0  0
  141.7000  158.6220  133.8480 C   0  0  0  0  0  0  0  0  0  0  0  0
  140.2540  158.9190  134.1370 C   0  0  0  0  0  0  0  0  0  0  0  0
  139.5290  159.2540  132.8620 C   0  0  0  0  0  0  0  0  0  0  0  0
  139.7540  160.4840  132.2210 C   0  0  0  0  0  0  0  0  0  0  0  0
  139.1080  160.7790  131.0160 C   0  0  0  0  0  0  0  0  0  0  0  0
  138.2410  159.8460  130.4400 C   0  0  0  0  0  0  0  0  0  0  0  0
  138.0220  158.6160  131.0650 C   0  0  0  0  0  0  0  0  0  0  0  0
  138.6660  158.3160  132.2700 C   0  0  0  0  0  0  0  0  0  0  0  0
  142.6620  159.6520  133.9250 C   0  0  0  0  0  0  0  0  0  0  0  0
  144.0050  159.3270  133.6940 C   0  0  0  0  0  0  0  0  0  0  0  0
  145.0800  160.1470  133.6970 N   0  0  0  0  0  0  0  0  0  0  0  0
  145.0710  161.5670  133.9140 C   0  0  0  0  0  0  0  0  0  0  0  0
  144.0240  162.2360  133.7080 O   0  0  0  0  0  0  0  0  0  0  0  0
  146.2250  162.2210  134.3290 O   0  0  0  0  0  0  0  0  0  0  0  0
  147.5830  161.8220  132.6380 H   0  0  0  0  0  0  0  0  0  0  0  0
  146.3690  157.1827  132.9042 H   0  0  0  0  0  0  0  0  0  0  0  0
  143.7807  155.9799  133.0616 H   0  0  0  0  0  0  0  0  0  0  0  0
  141.3591  156.4932  133.5119 H   0  0  0  0  0  0  0  0  0  0  0  0
  139.7871  158.0371  134.5998 H   0  0  0  0  0  0  0  0  0  0  0  0
  140.1932  159.7779  134.8215 H   0  0  0  0  0  0  0  0  0  0  0  0
  140.4407  161.2176  132.6685 H   0  0  0  0  0  0  0  0  0  0  0  0
  139.2823  161.7459  130.5213 H   0  0  0  0  0  0  0  0  0  0  0  0
  137.7309  160.0805  129.4941 H   0  0  0  0  0  0  0  0  0  0  0  0
  137.3417  157.8819  130.6086 H   0  0  0  0  0  0  0  0  0  0  0  0
  138.4965  157.3435  132.7554 H   0  0  0  0  0  0  0  0  0  0  0  0
  142.3645  160.6845  134.1606 H   0  0  0  0  0  0  0  0  0  0  0  0
  1  2  1  0
  2  3  2  0
  2  4  1  0
  4  5  2  0
  5  6  1  0
  6  7  2  0
  7  8  1  0
  8  9  2  0
  9 10  1  0
 10 11  1  0
 11 12  2  0
 12 13  1  0
 13 14  2  0
 14 15  1  0
 15 16  2  0
  9 17  1  0
 17 18  2  0
 18 19  1  0
 19 20  1  0
 20 21  2  0
 20 22  1  0
 19  4  1  0
 18  6  1  0
 16 11  1  0
  1 23  1  0
  5 24  1  0
  7 25  1  0
  8 26  1  0
 10 27  1  0
 10 28  1  0
 12 29  1  0
 13 30  1  0
 14 31  1  0
 15 32  1  0
 16 33  1  0
 17 34  1  0
M  CHG  2   1  -1  22  -1
M  END
>  <UniqueID>  (58) 
58

>  <SMILES>  (58) 
[NH-]C(=O)c1cc2ccc(Cc3ccccc3)cc2n1C(=O)[O-]

>  <Energy>  (58) 
74.5495330750348

>  <Genealogy>  (58) 
[NH-]C(=O)c1cc2ccc(Cc3ccccc3)cc2n1C(=O)[O-] (protonated)
[NH-]C(=O)c1cc2ccc(Cc3ccccc3)cc2n1C(=O)[O-] (3D coordinates assigned)
[NH-]C(=O)c1cc2ccc(Cc3ccccc3)cc2n1C(=O)[O-] (optimized conformer: 74.5495330750348 kcal/mol)

>  <smiles>  (58) 
NC(=O)c1cc2ccc(Cc3ccccc3)cc2n1C(=O)O

>  <score_type>  (58) 
oracle

>  <origin>  (58) 
adg

>  <m_score__min__energy>  (58) 
-8.0899999999999999

>  <m_primary>  (58) 
energy

$$$$
58:0
     RDKit          3D

 48 50  0  0  0  0  0  0  0  0999 V2000
  149.5990  160.8750  129.9950 C   0  0  0  0  0  0  0  0  0  0  0  0
  149.3750  160.7070  131.3900 O   0  0  0  0  0  0  0  0  0  0  0  0
  149.0880  159.4630  131.9630 C   0  0  0  0  0  0  0  0  0  0  0  0
  149.9720  158.5620  131.9920 O   0  0  0  0  0  0  0  0  0  0  0  0
  147.7480  159.2080  132.5380 C   0  0  0  0  0  0  0  0  0  0  0  0
  146.9420  160.2790  132.9560 C   0  0  0  0  0  0  0  0  0  0  0  0
  145.6760  160.0430  133.4950 C   0  0  0  0  0  0  0  0  0  0  0  0
  145.1980  158.7390  133.6230 C   0  0  0  0  0  0  0  0  0  0  0  0
  145.9850  157.6490  133.2130 C   0  0  0  0  0  0  0  0  0  0  0  0
  145.4760  156.2600  133.3480 C   0  0  0  0  0  0  0  0  0  0  0  0
  146.3800  155.1720  133.4750 C   0  0  0  0  0  0  0  0  0  0  0  0
  145.9060  153.8550  133.5960 C   0  0  0  0  0  0  0  0  0  0  0  0
  144.5300  153.6530  133.5960 C   0  0  0  0  0  0  0  0  0  0  0  0
  143.8090  152.4850  133.6860 C   0  0  0  0  0  0  0  0  0  0  0  0
  142.4700  152.8720  133.6390 C   0  0  0  0  0  0  0  0  0  0  0  0
  141.3380  151.9350  133.8090 C   0  0  0  0  0  0  0  0  0  0  0  0
  140.2490  151.9330  132.8840 N   0  0  0  0  0  0  0  0  0  0  0  0
  141.3400  151.1030  134.7540 O   0  0  0  0  0  0  0  0  0  0  0  0
  142.3700  154.2270  133.5190 N   0  0  0  0  0  0  0  0  0  0  0  0
  141.1720  155.0140  133.4010 C   0  0  0  0  0  0  0  0  0  0  0  0
  140.0470  154.4480  133.3190 O   0  0  0  0  0  0  0  0  0  0  0  0
  141.2620  156.4080  133.3590 O   0  0  0  0  0  0  0  0  0  0  0  0
  140.1550  157.2490  133.0570 C   0  0  0  0  0  0  0  0  0  0  0  0
  139.6910  157.9830  134.3180 C   0  0  0  0  0  0  0  0  0  0  0  0
  140.8360  158.6930  135.0490 C   0  0  0  0  0  0  0  0  0  0  0  0
  140.6900  158.5280  136.8200 Cl  0  0  0  0  0  0  0  0  0  0  0  0
  143.6400  154.6900  133.4960 C   0  0  0  0  0  0  0  0  0  0  0  0
  144.0830  156.0100  133.3520 C   0  0  0  0  0  0  0  0  0  0  0  0
  147.2600  157.8940  132.6700 C   0  0  0  0  0  0  0  0  0  0  0  0
  150.4702  161.5284  129.8396 H   0  0  0  0  0  0  0  0  0  0  0  0
  149.7889  159.8947  129.5335 H   0  0  0  0  0  0  0  0  0  0  0  0
  148.7111  161.3318  129.5335 H   0  0  0  0  0  0  0  0  0  0  0  0
  147.3105  161.3108  132.8581 H   0  0  0  0  0  0  0  0  0  0  0  0
  145.0528  160.8891  133.8201 H   0  0  0  0  0  0  0  0  0  0  0  0
  144.1987  158.5625  134.0475 H   0  0  0  0  0  0  0  0  0  0  0  0
  147.4634  155.3626  133.4787 H   0  0  0  0  0  0  0  0  0  0  0  0
  146.6026  153.0087  133.6880 H   0  0  0  0  0  0  0  0  0  0  0  0
  144.2047  151.4626  133.7760 H   0  0  0  0  0  0  0  0  0  0  0  0
  140.1860  152.6410  132.1190 H   0  0  0  0  0  0  0  0  0  0  0  0
  139.4730  151.2420  132.9890 H   0  0  0  0  0  0  0  0  0  0  0  0
  140.4546  157.9856  132.2970 H   0  0  0  0  0  0  0  0  0  0  0  0
  139.3282  156.6319  132.6754 H   0  0  0  0  0  0  0  0  0  0  0  0
  138.9390  158.7328  134.0312 H   0  0  0  0  0  0  0  0  0  0  0  0
  139.2766  157.2304  135.0049 H   0  0  0  0  0  0  0  0  0  0  0  0
  141.7915  158.2531  134.7274 H   0  0  0  0  0  0  0  0  0  0  0  0
  140.7914  159.7633  134.7991 H   0  0  0  0  0  0  0  0  0  0  0  0
  143.3638  156.8353  133.2443 H   0  0  0  0  0  0  0  0  0  0  0  0
  147.8833  157.0481  132.3445 H   0  0  0  0  0  0  0  0  0  0  0  0
  1  2  1  0
  2  3  1  0
  3  4  2  0
  3  5  1  0
  5  6  2  0
  6  7  1  0
  7  8  2  0
  8  9  1  0
  9 10  1  0
 10 11  2  0
 11 12  1  0
 12 13  2  0
 13 14  1  0
 14 15  2  0
 15 16  1  0
 16 17  1  0
 16 18  2  0
 15 19  1  0
 19 20  1  0
 20 21  2  0
 20 22  1  0
 22 23  1  0
 23 24  1  0
 24 25  1  0
 25 26  1  0
 19 27  1  0
 27 28  2  0
  9 29  2  0
 29  5  1  0
 28 10  1  0
 27 13  1  0
  1 30  1  0
  1 31  1  0
  1 32  1  0
  6 33  1  0
  7 34  1  0
  8 35  1  0
 11 36  1  0
 12 37  1  0
 14 38  1  0
 17 39  1  0
 17 40  1  0
 23 41  1  0
 23 42  1  0
 24 43  1  0
 24 44  1  0
 25 45  1  0
 25 46  1  0
 28 47  1  0
 29 48  1  0
M  END
>  <UniqueID>  (59) 
59

>  <SMILES>  (59) 
COC(=O)c1cccc(-c2ccc3cc(C(N)=O)n(C(=O)OCCCCl)c3c2)c1

>  <Energy>  (59) 
85.44321358063185

>  <Genealogy>  (59) 
COC(=O)c1cccc(-c2ccc3cc(C(N)=O)n(C(=O)OCCCCl)c3c2)c1 (3D coordinates assigned)
COC(=O)c1cccc(-c2ccc3cc(C(N)=O)n(C(=O)OCCCCl)c3c2)c1 (optimized conformer: 85.44321358063185 kcal/mol)

>  <smiles>  (59) 
COC(=O)c1cccc(-c2ccc3cc(C(N)=O)n(C(=O)OCCCCl)c3c2)c1

>  <score_type>  (59) 
oracle

>  <origin>  (59) 
adg

>  <m_score__min__energy>  (59) 
-8.6099999999999994

>  <m_primary>  (59) 
energy

$$$$
59:0
     RDKit          3D

 34 35  0  0  0  0  0  0  0  0999 V2000
  149.6240  160.6440  129.2150 C   0  0  0  0  0  0  0  0  0  0  0  0
  149.1720  160.6450  130.6740 C   0  0  0  0  0  0  0  0  0  0  0  0
  149.5490  159.3510  131.4180 C   0  0  0  0  0  0  0  0  0  0  0  0
  149.1710  159.3490  132.9090 C   0  0  0  0  0  0  0  0  0  0  0  0
  147.7180  159.0140  133.1280 C   0  0  0  0  0  0  0  0  0  0  0  0
  147.2910  157.6630  133.1390 C   0  0  0  0  0  0  0  0  0  0  0  0
  145.9400  157.3420  133.3560 C   0  0  0  0  0  0  0  0  0  0  0  0
  145.0480  158.3870  133.5680 C   0  0  0  0  0  0  0  0  0  0  0  0
  143.6880  158.3610  133.7810 C   0  0  0  0  0  0  0  0  0  0  0  0
  143.3100  159.6950  133.9230 C   0  0  0  0  0  0  0  0  0  0  0  0
  141.9360  160.1180  134.2610 C   0  0  0  0  0  0  0  0  0  0  0  0
  141.1460  160.8540  133.3300 N   0  0  0  0  0  0  0  0  0  0  0  0
  141.4700  159.8690  135.4050 O   0  0  0  0  0  0  0  0  0  0  0  0
  144.3920  160.5150  133.7930 N   0  0  0  0  0  0  0  0  0  0  0  0
  144.4130  161.9510  133.7820 C   0  0  0  0  0  0  0  0  0  0  0  0
  145.5530  162.6560  134.2690 N   0  0  0  0  0  0  0  0  0  0  0  0
  143.4110  162.5960  133.3740 O   0  0  0  0  0  0  0  0  0  0  0  0
  145.4470  159.6990  133.5800 C   0  0  0  0  0  0  0  0  0  0  0  0
  146.7820  160.0490  133.3500 C   0  0  0  0  0  0  0  0  0  0  0  0
  150.7231  160.6415  129.1717 H   0  0  0  0  0  0  0  0  0  0  0  0
  149.2352  159.7467  128.7113 H   0  0  0  0  0  0  0  0  0  0  0  0
  149.2392  161.5430  128.7113 H   0  0  0  0  0  0  0  0  0  0  0  0
  149.6443  161.4955  131.1873 H   0  0  0  0  0  0  0  0  0  0  0  0
  148.0747  160.7219  130.6800 H   0  0  0  0  0  0  0  0  0  0  0  0
  149.0343  158.5100  130.9303 H   0  0  0  0  0  0  0  0  0  0  0  0
  150.6446  159.2656  131.3692 H   0  0  0  0  0  0  0  0  0  0  0  0
  149.7889  158.6028  133.4300 H   0  0  0  0  0  0  0  0  0  0  0  0
  149.3472  160.3607  133.3032 H   0  0  0  0  0  0  0  0  0  0  0  0
  148.0232  156.8584  132.9763 H   0  0  0  0  0  0  0  0  0  0  0  0
  145.5990  156.2962  133.3580 H   0  0  0  0  0  0  0  0  0  0  0  0
  143.0376  157.4752  133.8290 H   0  0  0  0  0  0  0  0  0  0  0  0
  141.4290  161.8120  133.0260 H   0  0  0  0  0  0  0  0  0  0  0  0
  146.4280  162.7150  133.7030 H   0  0  0  0  0  0  0  0  0  0  0  0
  147.0951  161.1035  133.3422 H   0  0  0  0  0  0  0  0  0  0  0  0
  1  2  1  0
  2  3  1  0
  3  4  1  0
  4  5  1  0
  5  6  2  0
  6  7  1  0
  7  8  2  0
  8  9  1  0
  9 10  2  0
 10 11  1  0
 11 12  1  0
 11 13  2  0
 10 14  1  0
 14 15  1  0
 15 16  1  0
 15 17  2  0
 14 18  1  0
 18 19  2  0
 19  5  1  0
 18  8  1  0
  1 20  1  0
  1 21  1  0
  1 22  1  0
  2 23  1  0
  2 24  1  0
  3 25  1  0
  3 26  1  0
  4 27  1  0
  4 28  1  0
  6 29  1  0
  7 30  1  0
  9 31  1  0
 12 32  1  0
 16 33  1  0
 19 34  1  0
M  CHG  2  12  -1  16  -1
M  END
>  <UniqueID>  (60) 
60

>  <SMILES>  (60) 
CCCCc1ccc2cc(C([NH-])=O)n(C([NH-])=O)c2c1

>  <Energy>  (60) 
67.35330931785762

>  <Genealogy>  (60) 
CCCCc1ccc2cc(C([NH-])=O)n(C([NH-])=O)c2c1 (protonated)
CCCCc1ccc2cc(C([NH-])=O)n(C([NH-])=O)c2c1 (3D coordinates assigned)
CCCCc1ccc2cc(C([NH-])=O)n(C([NH-])=O)c2c1 (optimized conformer: 67.35330931785762 kcal/mol)

>  <smiles>  (60) 
CCCCc1ccc2cc(C(N)=O)n(C(N)=O)c2c1

>  <score_type>  (60) 
oracle

>  <origin>  (60) 
adg

>  <m_score__min__energy>  (60) 
-6.9900000000000002

>  <m_primary>  (60) 
energy

$$$$
60:0
     RDKit          3D

 38 40  0  0  0  0  0  0  0  0999 V2000
  140.5570  150.9810  132.2620 C   0  0  0  0  0  0  0  0  0  0  0  0
  141.2120  150.7040  133.4930 O   0  0  0  0  0  0  0  0  0  0  0  0
  141.3570  151.6600  134.5040 C   0  0  0  0  0  0  0  0  0  0  0  0
  140.9940  151.3990  135.6820 O   0  0  0  0  0  0  0  0  0  0  0  0
  141.8680  152.9620  134.2070 N   0  0  0  0  0  0  0  0  0  0  0  0
  143.1580  153.2560  133.6530 C   0  0  0  0  0  0  0  0  0  0  0  0
  143.9840  152.2520  133.1190 C   0  0  0  0  0  0  0  0  0  0  0  0
  145.2450  152.5750  132.6140 C   0  0  0  0  0  0  0  0  0  0  0  0
  145.7000  153.8950  132.6490 C   0  0  0  0  0  0  0  0  0  0  0  0
  144.8990  154.9100  133.2020 C   0  0  0  0  0  0  0  0  0  0  0  0
  145.3850  156.3110  133.2520 C   0  0  0  0  0  0  0  0  0  0  0  0
  146.7350  156.6140  132.9320 C   0  0  0  0  0  0  0  0  0  0  0  0
  147.2030  157.9380  132.9650 C   0  0  0  0  0  0  0  0  0  0  0  0
  146.3070  158.9380  133.3280 C   0  0  0  0  0  0  0  0  0  0  0  0
  146.4880  160.2990  133.4160 C   0  0  0  0  0  0  0  0  0  0  0  0
  145.2560  160.8130  133.8110 C   0  0  0  0  0  0  0  0  0  0  0  0
  145.0290  162.2430  134.1070 C   0  0  0  0  0  0  0  0  0  0  0  0
  145.9460  162.9490  134.9380 N   0  0  0  0  0  0  0  0  0  0  0  0
  144.0120  162.8400  133.6650 O   0  0  0  0  0  0  0  0  0  0  0  0
  144.3440  159.8080  133.9550 N   0  0  0  0  0  0  0  0  0  0  0  0
  142.9510  159.9220  134.2900 C   0  0  0  0  0  0  0  0  0  0  0  0
  142.1490  160.4830  133.4980 O   0  0  0  0  0  0  0  0  0  0  0  0
  142.4700  159.3900  135.4800 O   0  0  0  0  0  0  0  0  0  0  0  0
  145.0050  158.6660  133.6590 C   0  0  0  0  0  0  0  0  0  0  0  0
  144.5060  157.3600  133.6170 C   0  0  0  0  0  0  0  0  0  0  0  0
  143.6300  154.5740  133.7100 C   0  0  0  0  0  0  0  0  0  0  0  0
  139.5610  151.4022  132.4633 H   0  0  0  0  0  0  0  0  0  0  0  0
  141.1515  151.7048  131.6851 H   0  0  0  0  0  0  0  0  0  0  0  0
  140.4518  150.0503  131.6851 H   0  0  0  0  0  0  0  0  0  0  0  0
  143.6360  151.2087  133.0989 H   0  0  0  0  0  0  0  0  0  0  0  0
  145.8825  151.7868  132.1869 H   0  0  0  0  0  0  0  0  0  0  0  0
  146.6913  154.1423  132.2414 H   0  0  0  0  0  0  0  0  0  0  0  0
  147.4229  155.8016  132.6548 H   0  0  0  0  0  0  0  0  0  0  0  0
  148.2464  158.1767  132.7114 H   0  0  0  0  0  0  0  0  0  0  0  0
  147.4115  160.8623  133.2163 H   0  0  0  0  0  0  0  0  0  0  0  0
  146.9750  162.8860  134.7760 H   0  0  0  0  0  0  0  0  0  0  0  0
  143.4540  157.1521  133.8621 H   0  0  0  0  0  0  0  0  0  0  0  0
  143.0003  155.3569  134.1579 H   0  0  0  0  0  0  0  0  0  0  0  0
  1  2  1  0
  2  3  1  0
  3  4  2  0
  3  5  1  0
  5  6  1  0
  6  7  2  0
  7  8  1  0
  8  9  2  0
  9 10  1  0
 10 11  1  0
 11 12  2  0
 12 13  1  0
 13 14  2  0
 14 15  1  0
 15 16  2  0
 16 17  1  0
 17 18  1  0
 17 19  2  0
 16 20  1  0
 20 21  1  0
 21 22  2  0
 21 23  1  0
 20 24  1  0
 24 25  2  0
 10 26  2  0
 26  6  1  0
 25 11  1  0
 24 14  1  0
  1 27  1  0
  1 28  1  0
  1 29  1  0
  7 30  1  0
  8 31  1  0
  9 32  1  0
 12 33  1  0
 13 34  1  0
 15 35  1  0
 18 36  1  0
 25 37  1  0
 26 38  1  0
M  CHG  3   5  -1  18  -1  23  -1
M  END
>  <UniqueID>  (61) 
61

>  <SMILES>  (61) 
COC(=O)[N-]c1cccc(-c2ccc3cc(C([NH-])=O)n(C(=O)[O-])c3c2)c1

>  <Energy>  (61) 
86.03349829915847

>  <Genealogy>  (61) 
COC(=O)[N-]c1cccc(-c2ccc3cc(C([NH-])=O)n(C(=O)[O-])c3c2)c1 (protonated)
COC(=O)[N-]c1cccc(-c2ccc3cc(C([NH-])=O)n(C(=O)[O-])c3c2)c1 (3D coordinates assigned)
COC(=O)[N-]c1cccc(-c2ccc3cc(C([NH-])=O)n(C(=O)[O-])c3c2)c1 (optimized conformer: 86.03349829915847 kcal/mol)

>  <smiles>  (61) 
COC(=O)Nc1cccc(-c2ccc3cc(C(N)=O)n(C(=O)O)c3c2)c1

>  <score_type>  (61) 
oracle

>  <origin>  (61) 
adg

>  <m_score__min__energy>  (61) 
-7.5899999999999999

>  <m_primary>  (61) 
energy

$$$$
61:0
     RDKit          3D

 42 44  0  0  0  0  0  0  0  0999 V2000
  144.4280  155.2220  135.5040 C   0  0  0  0  0  0  0  0  0  0  0  0
  143.9350  156.2140  134.5030 C   0  0  0  0  0  0  0  0  0  0  0  0
  144.3940  157.4380  134.3760 O   0  0  0  0  0  0  0  0  0  0  0  0
  143.7050  157.9780  133.3980 C   0  0  0  0  0  0  0  0  0  0  0  0
  143.8760  159.1570  132.9930 O   0  0  0  0  0  0  0  0  0  0  0  0
  142.8190  157.1550  132.8870 O   0  0  0  0  0  0  0  0  0  0  0  0
  142.9390  156.0340  133.5600 C   0  0  0  0  0  0  0  0  0  0  0  0
  142.1160  154.8060  133.3120 C   0  0  0  0  0  0  0  0  0  0  0  0
  140.8300  154.9490  133.9080 O   0  0  0  0  0  0  0  0  0  0  0  0
  140.0590  156.1110  133.7990 C   0  0  0  0  0  0  0  0  0  0  0  0
  139.0850  156.1580  132.9990 O   0  0  0  0  0  0  0  0  0  0  0  0
  140.3680  157.2490  134.6200 N   0  0  0  0  0  0  0  0  0  0  0  0
  140.2710  158.5690  134.2930 C   0  0  0  0  0  0  0  0  0  0  0  0
  139.9360  159.1120  132.9600 C   0  0  0  0  0  0  0  0  0  0  0  0
  140.9770  159.3990  132.0290 N   0  0  0  0  0  0  0  0  0  0  0  0
  138.7380  159.2950  132.6210 O   0  0  0  0  0  0  0  0  0  0  0  0
  140.6230  159.3660  135.3810 C   0  0  0  0  0  0  0  0  0  0  0  0
  140.9490  158.4870  136.3880 C   0  0  0  0  0  0  0  0  0  0  0  0
  141.3670  158.7350  137.6920 C   0  0  0  0  0  0  0  0  0  0  0  0
  141.6150  157.6320  138.5250 C   0  0  0  0  0  0  0  0  0  0  0  0
  141.4370  156.3060  138.0500 C   0  0  0  0  0  0  0  0  0  0  0  0
  141.6970  155.1330  138.9720 C   0  0  2  0  0  0  0  0  0  0  0  0
  142.3230  153.9540  138.2150 C   0  0  0  0  0  0  0  0  0  0  0  0
  140.4360  154.7320  139.6880 C   0  0  0  0  0  0  0  0  0  0  0  0
  139.3790  154.4880  139.0490 O   0  0  0  0  0  0  0  0  0  0  0  0
  140.4190  154.6830  141.0760 O   0  0  0  0  0  0  0  0  0  0  0  0
  141.0080  156.0980  136.7150 C   0  0  0  0  0  0  0  0  0  0  0  0
  140.7880  157.2160  135.9030 C   0  0  0  0  0  0  0  0  0  0  0  0
  144.2396  155.6010  136.5193 H   0  0  0  0  0  0  0  0  0  0  0  0
  143.8995  154.2673  135.3651 H   0  0  0  0  0  0  0  0  0  0  0  0
  145.5081  155.0668  135.3651 H   0  0  0  0  0  0  0  0  0  0  0  0
  142.0001  154.6586  132.2281 H   0  0  0  0  0  0  0  0  0  0  0  0
  142.6236  153.9371  133.7561 H   0  0  0  0  0  0  0  0  0  0  0  0
  141.9270  158.9790  132.1400 H   0  0  0  0  0  0  0  0  0  0  0  0
  140.6372  160.4650  135.4252 H   0  0  0  0  0  0  0  0  0  0  0  0
  141.4991  159.7635  138.0590 H   0  0  0  0  0  0  0  0  0  0  0  0
  141.9516  157.7976  139.5591 H   0  0  0  0  0  0  0  0  0  0  0  0
  142.4272  155.4488  139.7317 H   0  0  0  0  0  0  0  0  0  0  0  0
  142.7125  153.2204  138.9363 H   0  0  0  0  0  0  0  0  0  0  0  0
  141.5594  153.4770  137.5831 H   0  0  0  0  0  0  0  0  0  0  0  0
  143.1459  154.3194  137.5831 H   0  0  0  0  0  0  0  0  0  0  0  0
  140.8516  155.0809  136.3263 H   0  0  0  0  0  0  0  0  0  0  0  0
  1  2  1  0
  2  3  1  0
  3  4  1  0
  4  5  2  0
  4  6  1  0
  6  7  1  0
  7  8  1  0
  8  9  1  0
  9 10  1  0
 10 11  2  0
 10 12  1  0
 12 13  1  0
 13 14  1  0
 14 15  1  0
 14 16  2  0
 13 17  2  0
 17 18  1  0
 18 19  2  0
 19 20  1  0
 20 21  2  0
 21 22  1  0
 22 23  1  0
 22 24  1  0
 24 25  2  0
 24 26  1  0
 21 27  1  0
 27 28  2  0
  7  2  2  0
 28 12  1  0
 28 18  1  0
  1 29  1  0
  1 30  1  0
  1 31  1  0
  8 32  1  0
  8 33  1  0
 15 34  1  0
 17 35  1  0
 19 36  1  0
 20 37  1  0
 22 38  1  1
 23 39  1  0
 23 40  1  0
 23 41  1  0
 27 42  1  0
M  CHG  2  15  -1  26  -1
M  END
>  <UniqueID>  (62) 
62

>  <SMILES>  (62) 
Cc1oc(=O)oc1COC(=O)n1c(C([NH-])=O)cc2ccc([C@H](C)C(=O)[O-])cc21

>  <Energy>  (62) 
110.98964469121536

>  <Genealogy>  (62) 
Cc1oc(=O)oc1COC(=O)n1c(C([NH-])=O)cc2ccc(C(C)C(=O)[O-])cc21 (protonated)
Cc1oc(=O)oc1COC(=O)n1c(C([NH-])=O)cc2ccc([C@H](C)C(=O)[O-])cc21 (chirality)
Cc1oc(=O)oc1COC(=O)n1c(C([NH-])=O)cc2ccc([C@H](C)C(=O)[O-])cc21 (3D coordinates assigned)
Cc1oc(=O)oc1COC(=O)n1c(C([NH-])=O)cc2ccc([C@H](C)C(=O)[O-])cc21 (optimized conformer: 110.98964469121536 kcal/mol)

>  <smiles>  (62) 
Cc1oc(=O)oc1COC(=O)n1c(C(N)=O)cc2ccc(C(C)C(=O)O)cc21

>  <score_type>  (62) 
oracle

>  <origin>  (62) 
adg

>  <m_score__min__energy>  (62) 
-6.8300000000000001

>  <m_primary>  (62) 
energy

$$$$
62:0
     RDKit          3D

 35 36  0  0  0  0  0  0  0  0999 V2000
  137.6700  160.1050  130.8910 C   0  0  0  0  0  0  0  0  0  0  0  0
  139.3860  159.4940  130.8980 S   0  0  0  0  0  0  0  0  0  0  0  0
  139.0450  157.9590  131.8380 C   0  0  0  0  0  0  0  0  0  0  0  0
  138.3870  158.2420  133.1990 C   0  0  0  0  0  0  0  0  0  0  0  0
  139.1240  157.5980  134.3850 C   0  0  0  0  0  0  0  0  0  0  0  0
  140.5950  157.4110  134.1180 C   0  0  0  0  0  0  0  0  0  0  0  0
  141.1170  156.1190  133.8640 C   0  0  0  0  0  0  0  0  0  0  0  0
  142.4840  155.9390  133.5970 C   0  0  0  0  0  0  0  0  0  0  0  0
  143.3000  157.0660  133.5800 C   0  0  0  0  0  0  0  0  0  0  0  0
  144.6540  157.1740  133.3630 C   0  0  0  0  0  0  0  0  0  0  0  0
  144.9370  158.5360  133.4640 C   0  0  0  0  0  0  0  0  0  0  0  0
  146.2730  159.1190  133.2080 C   0  0  0  0  0  0  0  0  0  0  0  0
  146.4090  160.4850  132.8120 N   0  0  0  0  0  0  0  0  0  0  0  0
  147.3090  158.4210  133.3680 O   0  0  0  0  0  0  0  0  0  0  0  0
  143.8020  159.2410  133.7350 N   0  0  0  0  0  0  0  0  0  0  0  0
  143.6810  160.6550  133.9650 C   0  0  0  0  0  0  0  0  0  0  0  0
  142.6480  161.2730  133.5990 O   0  0  0  0  0  0  0  0  0  0  0  0
  144.7080  161.3580  134.5840 O   0  0  0  0  0  0  0  0  0  0  0  0
  142.8080  158.3270  133.8040 C   0  0  0  0  0  0  0  0  0  0  0  0
  141.4550  158.5320  134.0960 C   0  0  0  0  0  0  0  0  0  0  0  0
  137.3208  160.2293  131.9267 H   0  0  0  0  0  0  0  0  0  0  0  0
  137.6277  161.0734  130.3711 H   0  0  0  0  0  0  0  0  0  0  0  0
  137.0252  159.3812  130.3711 H   0  0  0  0  0  0  0  0  0  0  0  0
  138.3713  157.3232  131.2448 H   0  0  0  0  0  0  0  0  0  0  0  0
  140.0066  157.4592  132.0266 H   0  0  0  0  0  0  0  0  0  0  0  0
  138.3633  159.3308  133.3541 H   0  0  0  0  0  0  0  0  0  0  0  0
  137.3794  157.8017  133.1679 H   0  0  0  0  0  0  0  0  0  0  0  0
  139.0050  158.2443  135.2671 H   0  0  0  0  0  0  0  0  0  0  0  0
  138.6854  156.6029  134.5503 H   0  0  0  0  0  0  0  0  0  0  0  0
  140.4451  155.2481  133.8760 H   0  0  0  0  0  0  0  0  0  0  0  0
  142.8971  154.9374  133.4071 H   0  0  0  0  0  0  0  0  0  0  0  0
  145.3630  156.3593  133.1542 H   0  0  0  0  0  0  0  0  0  0  0  0
  145.5740  161.0800  132.6160 H   0  0  0  0  0  0  0  0  0  0  0  0
  147.3580  160.8980  132.6730 H   0  0  0  0  0  0  0  0  0  0  0  0
  141.0701  159.5414  134.3034 H   0  0  0  0  0  0  0  0  0  0  0  0
  1  2  1  0
  2  3  1  0
  3  4  1  0
  4  5  1  0
  5  6  1  0
  6  7  2  0
  7  8  1  0
  8  9  2  0
  9 10  1  0
 10 11  2  0
 11 12  1  0
 12 13  1  0
 12 14  2  0
 11 15  1  0
 15 16  1  0
 16 17  2  0
 16 18  1  0
 15 19  1  0
 19 20  2  0
 20  6  1  0
 19  9  1  0
  1 21  1  0
  1 22  1  0
  1 23  1  0
  3 24  1  0
  3 25  1  0
  4 26  1  0
  4 27  1  0
  5 28  1  0
  5 29  1  0
  7 30  1  0
  8 31  1  0
 10 32  1  0
 13 33  1  0
 13 34  1  0
 20 35  1  0
M  CHG  1  18  -1
M  END
>  <UniqueID>  (63) 
63

>  <SMILES>  (63) 
CSCCCc1ccc2cc(C(N)=O)n(C(=O)[O-])c2c1

>  <Energy>  (63) 
67.78651189059495

>  <Genealogy>  (63) 
CSCCCc1ccc2cc(C(N)=O)n(C(=O)[O-])c2c1 (protonated)
CSCCCc1ccc2cc(C(N)=O)n(C(=O)[O-])c2c1 (3D coordinates assigned)
CSCCCc1ccc2cc(C(N)=O)n(C(=O)[O-])c2c1 (optimized conformer: 67.78651189059495 kcal/mol)

>  <smiles>  (63) 
CSCCCc1ccc2cc(C(N)=O)n(C(=O)O)c2c1

>  <score_type>  (63) 
oracle

>  <origin>  (63) 
adg

>  <m_score__min__energy>  (63) 
-6.6799999999999997

>  <m_primary>  (63) 
energy

$$$$
63:0
     RDKit          3D

 43 45  0  0  0  0  0  0  0  0999 V2000
  140.9820  159.4430  137.7950 C   0  0  0  0  0  0  0  0  0  0  0  0
  141.5980  158.4330  137.0060 O   0  0  0  0  0  0  0  0  0  0  0  0
  141.2400  157.0840  137.0960 C   0  0  0  0  0  0  0  0  0  0  0  0
  140.2170  156.7360  137.7480 O   0  0  0  0  0  0  0  0  0  0  0  0
  142.0580  156.0430  136.3890 C   0  0  0  0  0  0  0  0  0  0  0  0
  141.4190  155.5960  135.0680 C   0  0  0  0  0  0  0  0  0  0  0  0
  141.9580  156.3770  133.9000 C   0  0  0  0  0  0  0  0  0  0  0  0
  142.5690  155.7760  132.9770 O   0  0  0  0  0  0  0  0  0  0  0  0
  141.8770  157.8090  133.8860 N   0  0  0  0  0  0  0  0  0  0  0  0
  140.8100  158.5930  134.2080 C   0  0  0  0  0  0  0  0  0  0  0  0
  139.4340  158.1170  134.4610 C   0  0  0  0  0  0  0  0  0  0  0  0
  138.8470  158.2310  135.7540 N   0  0  0  0  0  0  0  0  0  0  0  0
  138.7800  157.5730  133.5320 O   0  0  0  0  0  0  0  0  0  0  0  0
  141.1780  159.9370  134.2110 C   0  0  0  0  0  0  0  0  0  0  0  0
  142.5120  159.9510  133.8720 C   0  0  0  0  0  0  0  0  0  0  0  0
  143.3990  161.0170  133.7600 C   0  0  0  0  0  0  0  0  0  0  0  0
  144.7380  160.7300  133.4460 C   0  0  0  0  0  0  0  0  0  0  0  0
  145.1690  159.3900  133.2510 C   0  0  0  0  0  0  0  0  0  0  0  0
  146.5910  159.0940  132.9450 C   0  0  0  0  0  0  0  0  0  0  0  0
  147.1330  157.8240  133.2180 C   0  0  0  0  0  0  0  0  0  0  0  0
  148.4710  157.5460  132.9230 C   0  0  0  0  0  0  0  0  0  0  0  0
  149.2830  158.5310  132.3560 C   0  0  0  0  0  0  0  0  0  0  0  0
  148.7570  159.7960  132.0800 C   0  0  0  0  0  0  0  0  0  0  0  0
  147.4190  160.0780  132.3720 C   0  0  0  0  0  0  0  0  0  0  0  0
  144.2320  158.3360  133.3690 C   0  0  0  0  0  0  0  0  0  0  0  0
  142.9070  158.6550  133.6770 C   0  0  0  0  0  0  0  0  0  0  0  0
  141.1228  159.2122  138.8612 H   0  0  0  0  0  0  0  0  0  0  0  0
  141.4401  160.4167  137.5670 H   0  0  0  0  0  0  0  0  0  0  0  0
  139.9066  159.4814  137.5670 H   0  0  0  0  0  0  0  0  0  0  0  0
  143.0535  156.4599  136.1767 H   0  0  0  0  0  0  0  0  0  0  0  0
  142.1217  155.1629  137.0458 H   0  0  0  0  0  0  0  0  0  0  0  0
  141.6315  154.5281  134.9120 H   0  0  0  0  0  0  0  0  0  0  0  0
  140.3356  155.7756  135.1316 H   0  0  0  0  0  0  0  0  0  0  0  0
  139.4370  158.4100  136.5980 H   0  0  0  0  0  0  0  0  0  0  0  0
  140.5382  160.8029  134.4364 H   0  0  0  0  0  0  0  0  0  0  0  0
  143.0622  162.0530  133.9126 H   0  0  0  0  0  0  0  0  0  0  0  0
  145.4617  161.5528  133.3499 H   0  0  0  0  0  0  0  0  0  0  0  0
  146.4994  157.0447  133.6666 H   0  0  0  0  0  0  0  0  0  0  0  0
  148.8850  156.5498  133.1378 H   0  0  0  0  0  0  0  0  0  0  0  0
  150.3361  158.3111  132.1268 H   0  0  0  0  0  0  0  0  0  0  0  0
  149.3966  160.5710  131.6324 H   0  0  0  0  0  0  0  0  0  0  0  0
  147.0105  161.0755  132.1525 H   0  0  0  0  0  0  0  0  0  0  0  0
  144.5396  157.2902  133.2217 H   0  0  0  0  0  0  0  0  0  0  0  0
  1  2  1  0
  2  3  1  0
  3  4  2  0
  3  5  1  0
  5  6  1  0
  6  7  1  0
  7  8  2  0
  7  9  1  0
  9 10  1  0
 10 11  1  0
 11 12  1  0
 11 13  2  0
 10 14  2  0
 14 15  1  0
 15 16  2  0
 16 17  1  0
 17 18  2  0
 18 19  1  0
 19 20  2  0
 20 21  1  0
 21 22  2  0
 22 23  1  0
 23 24  2  0
 18 25  1  0
 25 26  2  0
 26  9  1  0
 26 15  1  0
 24 19  1  0
  1 27  1  0
  1 28  1  0
  1 29  1  0
  5 30  1  0
  5 31  1  0
  6 32  1  0
  6 33  1  0
 12 34  1  0
 14 35  1  0
 16 36  1  0
 17 37  1  0
 20 38  1  0
 21 39  1  0
 22 40  1  0
 23 41  1  0
 24 42  1  0
 25 43  1  0
M  CHG  1  12  -1
M  END
>  <UniqueID>  (64) 
64

>  <SMILES>  (64) 
COC(=O)CCC(=O)n1c(C([NH-])=O)cc2ccc(-c3ccccc3)cc21

>  <Energy>  (64) 
81.86467308507808

>  <Genealogy>  (64) 
COC(=O)CCC(=O)n1c(C([NH-])=O)cc2ccc(-c3ccccc3)cc21 (protonated)
COC(=O)CCC(=O)n1c(C([NH-])=O)cc2ccc(-c3ccccc3)cc21 (3D coordinates assigned)
COC(=O)CCC(=O)n1c(C([NH-])=O)cc2ccc(-c3ccccc3)cc21 (optimized conformer: 81.86467308507808 kcal/mol)

>  <smiles>  (64) 
COC(=O)CCC(=O)n1c(C(N)=O)cc2ccc(-c3ccccc3)cc21

>  <score_type>  (64) 
oracle

>  <origin>  (64) 
adg

>  <m_score__min__energy>  (64) 
-7.4900000000000002

>  <m_primary>  (64) 
energy

$$$$
64:0
     RDKit          3D

 38 40  0  0  0  0  0  0  0  0999 V2000
  138.7570  148.5420  130.5610 C   0  0  0  0  0  0  0  0  0  0  0  0
  139.5170  148.5510  131.7650 O   0  0  0  0  0  0  0  0  0  0  0  0
  140.4590  149.5350  132.0990 C   0  0  0  0  0  0  0  0  0  0  0  0
  141.8260  149.2430  132.2770 C   0  0  0  0  0  0  0  0  0  0  0  0
  142.7260  150.2590  132.6110 C   0  0  0  0  0  0  0  0  0  0  0  0
  142.2800  151.5810  132.7620 C   0  0  0  0  0  0  0  0  0  0  0  0
  143.2430  152.6670  133.1610 C   0  0  0  0  0  0  0  0  0  0  0  0
  142.7800  153.3270  134.4300 C   0  0  0  0  0  0  0  0  0  0  0  0
  143.0570  154.6980  134.6600 C   0  0  0  0  0  0  0  0  0  0  0  0
  142.6750  155.3130  135.8630 C   0  0  0  0  0  0  0  0  0  0  0  0
  142.0210  154.5360  136.8150 C   0  0  0  0  0  0  0  0  0  0  0  0
  141.5730  154.8680  138.0720 C   0  0  0  0  0  0  0  0  0  0  0  0
  141.0170  153.6990  138.5880 C   0  0  0  0  0  0  0  0  0  0  0  0
  140.3360  153.6340  139.8970 C   0  0  0  0  0  0  0  0  0  0  0  0
  139.3860  154.6270  140.2790 N   0  0  0  0  0  0  0  0  0  0  0  0
  140.6330  152.7180  140.7100 O   0  0  0  0  0  0  0  0  0  0  0  0
  141.1260  152.6800  137.6890 N   0  0  0  0  0  0  0  0  0  0  0  0
  140.7660  151.3020  137.8760 C   0  0  0  0  0  0  0  0  0  0  0  0
  140.2680  150.6390  136.9290 O   0  0  0  0  0  0  0  0  0  0  0  0
  140.9930  150.6780  139.0970 O   0  0  0  0  0  0  0  0  0  0  0  0
  141.7390  153.2100  136.6070 C   0  0  0  0  0  0  0  0  0  0  0  0
  142.1240  152.5670  135.4240 C   0  0  0  0  0  0  0  0  0  0  0  0
  140.9160  151.8690  132.5970 C   0  0  0  0  0  0  0  0  0  0  0  0
  140.0170  150.8530  132.2630 C   0  0  0  0  0  0  0  0  0  0  0  0
  137.6844  148.5293  130.8046 H   0  0  0  0  0  0  0  0  0  0  0  0
  138.9891  149.4430  129.9741 H   0  0  0  0  0  0  0  0  0  0  0  0
  139.0104  147.6468  129.9741 H   0  0  0  0  0  0  0  0  0  0  0  0
  142.1864  148.2112  132.1526 H   0  0  0  0  0  0  0  0  0  0  0  0
  143.7900  150.0209  132.7563 H   0  0  0  0  0  0  0  0  0  0  0  0
  144.2393  152.2291  133.3211 H   0  0  0  0  0  0  0  0  0  0  0  0
  143.2894  153.4194  132.3599 H   0  0  0  0  0  0  0  0  0  0  0  0
  143.5762  155.2857  133.8886 H   0  0  0  0  0  0  0  0  0  0  0  0
  142.8861  156.3766  136.0476 H   0  0  0  0  0  0  0  0  0  0  0  0
  141.6395  155.8487  138.5657 H   0  0  0  0  0  0  0  0  0  0  0  0
  138.3700  154.5050  140.0740 H   0  0  0  0  0  0  0  0  0  0  0  0
  141.9207  151.4966  135.2724 H   0  0  0  0  0  0  0  0  0  0  0  0
  140.5535  152.8988  132.7312 H   0  0  0  0  0  0  0  0  0  0  0  0
  138.9516  151.0911  132.1276 H   0  0  0  0  0  0  0  0  0  0  0  0
  1  2  1  0
  2  3  1  0
  3  4  2  0
  4  5  1  0
  5  6  2  0
  6  7  1  0
  7  8  1  0
  8  9  2  0
  9 10  1  0
 10 11  2  0
 11 12  1  0
 12 13  2  0
 13 14  1  0
 14 15  1  0
 14 16  2  0
 13 17  1  0
 17 18  1  0
 18 19  2  0
 18 20  1  0
 17 21  1  0
 21 22  2  0
  6 23  1  0
 23 24  2  0
 24  3  1  0
 22  8  1  0
 21 11  1  0
  1 25  1  0
  1 26  1  0
  1 27  1  0
  4 28  1  0
  5 29  1  0
  7 30  1  0
  7 31  1  0
  9 32  1  0
 10 33  1  0
 12 34  1  0
 15 35  1  0
 22 36  1  0
 23 37  1  0
 24 38  1  0
M  CHG  2  15  -1  20  -1
M  END
>  <UniqueID>  (65) 
65

>  <SMILES>  (65) 
COc1ccc(Cc2ccc3cc(C([NH-])=O)n(C(=O)[O-])c3c2)cc1

>  <Energy>  (65) 
78.24083198485887

>  <Genealogy>  (65) 
COc1ccc(Cc2ccc3cc(C([NH-])=O)n(C(=O)[O-])c3c2)cc1 (protonated)
COc1ccc(Cc2ccc3cc(C([NH-])=O)n(C(=O)[O-])c3c2)cc1 (3D coordinates assigned)
COc1ccc(Cc2ccc3cc(C([NH-])=O)n(C(=O)[O-])c3c2)cc1 (optimized conformer: 78.24083198485887 kcal/mol)

>  <smiles>  (65) 
COc1ccc(Cc2ccc3cc(C(N)=O)n(C(=O)O)c3c2)cc1

>  <score_type>  (65) 
oracle

>  <origin>  (65) 
adg

>  <m_score__min__energy>  (65) 
-7.5199999999999996

>  <m_primary>  (65) 
energy

$$$$
65:0
     RDKit          3D

 44 46  0  0  0  0  0  0  0  0999 V2000
  139.0330  147.8120  130.3530 C   0  0  0  0  0  0  0  0  0  0  0  0
  140.2640  148.5060  130.9240 C   0  0  0  0  0  0  0  0  0  0  0  0
  139.8720  149.4720  131.9970 C   0  0  0  0  0  0  0  0  0  0  0  0
  138.8370  150.1780  131.8500 O   0  0  0  0  0  0  0  0  0  0  0  0
  140.7070  149.6150  133.1530 N   0  0  0  0  0  0  0  0  0  0  0  0
  141.3400  150.8200  133.6010 C   0  0  0  0  0  0  0  0  0  0  0  0
  141.3560  151.1840  134.9000 N   0  0  0  0  0  0  0  0  0  0  0  0
  142.0040  152.3660  135.0960 C   0  0  0  0  0  0  0  0  0  0  0  0
  142.1020  152.9620  136.4670 C   0  0  0  0  0  0  0  0  0  0  0  0
  142.5290  152.9460  133.9320 C   0  0  0  0  0  0  0  0  0  0  0  0
  143.2870  154.2100  133.8080 C   0  0  0  0  0  0  0  0  0  0  0  0
  142.5920  155.4310  133.6180 C   0  0  0  0  0  0  0  0  0  0  0  0
  143.2910  156.6400  133.4720 C   0  0  0  0  0  0  0  0  0  0  0  0
  144.6810  156.6010  133.5210 C   0  0  0  0  0  0  0  0  0  0  0  0
  145.6000  157.6130  133.3710 C   0  0  0  0  0  0  0  0  0  0  0  0
  146.8440  157.0000  133.4880 C   0  0  0  0  0  0  0  0  0  0  0  0
  148.1210  157.7400  133.4470 C   0  0  0  0  0  0  0  0  0  0  0  0
  149.1260  157.4300  132.4800 N   0  0  0  0  0  0  0  0  0  0  0  0
  148.3520  158.6230  134.3170 O   0  0  0  0  0  0  0  0  0  0  0  0
  146.7040  155.6590  133.6880 N   0  0  0  0  0  0  0  0  0  0  0  0
  147.7430  154.6690  133.7540 C   0  0  0  0  0  0  0  0  0  0  0  0
  147.7510  153.8260  134.6930 O   0  0  0  0  0  0  0  0  0  0  0  0
  148.7430  154.6430  132.7770 O   0  0  0  0  0  0  0  0  0  0  0  0
  149.2510  153.4330  132.2310 C   0  0  0  0  0  0  0  0  0  0  0  0
  145.3710  155.4310  133.7090 C   0  0  0  0  0  0  0  0  0  0  0  0
  144.7000  154.2080  133.8300 C   0  0  0  0  0  0  0  0  0  0  0  0
  142.1300  151.9490  132.6330 S   0  0  0  0  0  0  0  0  0  0  0  0
  138.3984  147.4542  131.1772 H   0  0  0  0  0  0  0  0  0  0  0  0
  138.4650  148.5228  129.7348 H   0  0  0  0  0  0  0  0  0  0  0  0
  139.3472  146.9581  129.7348 H   0  0  0  0  0  0  0  0  0  0  0  0
  140.9415  147.7501  131.3477 H   0  0  0  0  0  0  0  0  0  0  0  0
  140.7676  149.0574  130.1163 H   0  0  0  0  0  0  0  0  0  0  0  0
  141.9720  152.1714  137.2207 H   0  0  0  0  0  0  0  0  0  0  0  0
  143.0892  153.4304  136.5935 H   0  0  0  0  0  0  0  0  0  0  0  0
  141.3167  153.7219  136.5935 H   0  0  0  0  0  0  0  0  0  0  0  0
  141.4925  155.4312  133.5846 H   0  0  0  0  0  0  0  0  0  0  0  0
  142.7558  157.5894  133.3234 H   0  0  0  0  0  0  0  0  0  0  0  0
  145.3955  158.6795  133.1959 H   0  0  0  0  0  0  0  0  0  0  0  0
  149.0390  156.5940  131.8620 H   0  0  0  0  0  0  0  0  0  0  0  0
  150.0060  157.9900  132.4410 H   0  0  0  0  0  0  0  0  0  0  0  0
  149.5363  152.7535  133.0477 H   0  0  0  0  0  0  0  0  0  0  0  0
  148.4768  152.9568  131.6114 H   0  0  0  0  0  0  0  0  0  0  0  0
  150.1331  153.6522  131.6114 H   0  0  0  0  0  0  0  0  0  0  0  0
  145.2598  153.2674  133.9396 H   0  0  0  0  0  0  0  0  0  0  0  0
  1  2  1  0
  2  3  1  0
  3  4  2  0
  3  5  1  0
  5  6  1  0
  6  7  2  0
  7  8  1  0
  8  9  1  0
  8 10  2  0
 10 11  1  0
 11 12  2  0
 12 13  1  0
 13 14  2  0
 14 15  1  0
 15 16  2  0
 16 17  1  0
 17 18  1  0
 17 19  2  0
 16 20  1  0
 20 21  1  0
 21 22  2  0
 21 23  1  0
 23 24  1  0
 20 25  1  0
 25 26  2  0
 10 27  1  0
 27  6  1  0
 26 11  1  0
 25 14  1  0
  1 28  1  0
  1 29  1  0
  1 30  1  0
  2 31  1  0
  2 32  1  0
  9 33  1  0
  9 34  1  0
  9 35  1  0
 12 36  1  0
 13 37  1  0
 15 38  1  0
 18 39  1  0
 18 40  1  0
 24 41  1  0
 24 42  1  0
 24 43  1  0
 26 44  1  0
M  CHG  1   5  -1
M  END
>  <UniqueID>  (66) 
66

>  <SMILES>  (66) 
CCC(=O)[N-]c1nc(C)c(-c2ccc3cc(C(N)=O)n(C(=O)OC)c3c2)s1

>  <Energy>  (66) 
113.83636062626852

>  <Genealogy>  (66) 
CCC(=O)[N-]c1nc(C)c(-c2ccc3cc(C(N)=O)n(C(=O)OC)c3c2)s1 (protonated)
CCC(=O)[N-]c1nc(C)c(-c2ccc3cc(C(N)=O)n(C(=O)OC)c3c2)s1 (3D coordinates assigned)
CCC(=O)[N-]c1nc(C)c(-c2ccc3cc(C(N)=O)n(C(=O)OC)c3c2)s1 (optimized conformer: 113.83636062626852 kcal/mol)

>  <smiles>  (66) 
CCC(=O)Nc1nc(C)c(-c2ccc3cc(C(N)=O)n(C(=O)OC)c3c2)s1

>  <score_type>  (66) 
oracle

>  <origin>  (66) 
adg

>  <m_score__min__energy>  (66) 
-8.3200000000000003

>  <m_primary>  (66) 
energy

$$$$
66:0
     RDKit          3D

 52 54  0  0  0  0  0  0  0  0999 V2000
  139.4730  146.4650  129.9410 C   0  0  0  0  0  0  0  0  0  0  0  0
  139.2730  147.3310  131.0340 O   0  0  0  0  0  0  0  0  0  0  0  0
  138.7390  148.5700  130.6020 C   0  0  0  0  0  0  0  0  0  0  0  0
  139.8130  149.3840  129.8810 C   0  0  0  0  0  0  0  0  0  0  0  0
  139.8350  150.7280  130.3560 O   0  0  0  0  0  0  0  0  0  0  0  0
  139.7520  151.0660  131.7120 C   0  0  0  0  0  0  0  0  0  0  0  0
  138.6390  151.0360  132.3070 O   0  0  0  0  0  0  0  0  0  0  0  0
  140.9360  151.4540  132.4280 N   0  0  0  0  0  0  0  0  0  0  0  0
  142.0000  150.6700  132.7600 C   0  0  0  0  0  0  0  0  0  0  0  0
  142.2220  149.2770  132.3210 C   0  0  0  0  0  0  0  0  0  0  0  0
  141.1610  148.3220  132.3260 N   0  0  0  0  0  0  0  0  0  0  0  0
  143.3540  148.9400  131.8820 O   0  0  0  0  0  0  0  0  0  0  0  0
  142.9060  151.3750  133.5470 C   0  0  0  0  0  0  0  0  0  0  0  0
  142.3690  152.6350  133.6780 C   0  0  0  0  0  0  0  0  0  0  0  0
  142.8520  153.7430  134.3660 C   0  0  0  0  0  0  0  0  0  0  0  0
  142.0730  154.9110  134.3610 C   0  0  0  0  0  0  0  0  0  0  0  0
  140.8250  154.9490  133.6870 C   0  0  0  0  0  0  0  0  0  0  0  0
  140.0350  156.1540  133.6870 N   0  0  0  0  0  0  0  0  0  0  0  0
  139.8860  156.9630  134.9050 C   0  0  0  0  0  0  0  0  0  0  0  0
  140.3490  158.4100  134.6570 C   0  0  0  0  0  0  0  0  0  0  0  0
  140.1150  158.8990  133.2050 C   0  0  0  0  0  0  0  0  0  0  0  0
  141.3270  158.7590  132.4770 O   0  0  0  0  0  0  0  0  0  0  0  0
  142.4320  158.6920  133.3510 C   0  0  0  0  0  0  0  0  0  0  0  0
  139.0010  158.0870  132.5160 C   0  0  0  0  0  0  0  0  0  0  0  0
  139.3730  156.5960  132.4500 C   0  0  0  0  0  0  0  0  0  0  0  0
  140.3730  153.8020  132.9950 C   0  0  0  0  0  0  0  0  0  0  0  0
  141.1790  152.6580  132.9960 C   0  0  0  0  0  0  0  0  0  0  0  0
  139.7061  145.4556  130.3108 H   0  0  0  0  0  0  0  0  0  0  0  0
  138.5594  146.4295  129.3294 H   0  0  0  0  0  0  0  0  0  0  0  0
  140.3096  146.8337  129.3294 H   0  0  0  0  0  0  0  0  0  0  0  0
  137.9006  148.3846  129.9144 H   0  0  0  0  0  0  0  0  0  0  0  0
  138.3877  149.1349  131.4781 H   0  0  0  0  0  0  0  0  0  0  0  0
  140.7955  148.9225  130.0594 H   0  0  0  0  0  0  0  0  0  0  0  0
  139.5840  149.3944  128.8052 H   0  0  0  0  0  0  0  0  0  0  0  0
  140.1770  148.6080  132.5230 H   0  0  0  0  0  0  0  0  0  0  0  0
  141.3470  147.3320  132.0490 H   0  0  0  0  0  0  0  0  0  0  0  0
  143.8498  151.0041  133.9732 H   0  0  0  0  0  0  0  0  0  0  0  0
  143.8143  153.7054  134.8975 H   0  0  0  0  0  0  0  0  0  0  0  0
  142.4345  155.8075  134.8859 H   0  0  0  0  0  0  0  0  0  0  0  0
  138.8284  156.9691  135.2073 H   0  0  0  0  0  0  0  0  0  0  0  0
  140.5075  156.5240  135.6994 H   0  0  0  0  0  0  0  0  0  0  0  0
  139.7974  159.0729  135.3398 H   0  0  0  0  0  0  0  0  0  0  0  0
  141.4345  158.4348  134.8335 H   0  0  0  0  0  0  0  0  0  0  0  0
  139.8001  159.9527  133.2304 H   0  0  0  0  0  0  0  0  0  0  0  0
  142.0778  158.7135  134.3922 H   0  0  0  0  0  0  0  0  0  0  0  0
  142.9856  157.7586  133.1712 H   0  0  0  0  0  0  0  0  0  0  0  0
  143.0944  159.5516  133.1712 H   0  0  0  0  0  0  0  0  0  0  0  0
  138.0669  158.2008  133.0856 H   0  0  0  0  0  0  0  0  0  0  0  0
  138.8726  158.4641  131.4907 H   0  0  0  0  0  0  0  0  0  0  0  0
  138.4573  156.0046  132.3029 H   0  0  0  0  0  0  0  0  0  0  0  0
  140.0704  156.4494  131.6121 H   0  0  0  0  0  0  0  0  0  0  0  0
  139.4081  153.8087  132.4669 H   0  0  0  0  0  0  0  0  0  0  0  0
  1  2  1  0
  2  3  1  0
  3  4  1  0
  4  5  1  0
  5  6  1  0
  6  7  2  0
  6  8  1  0
  8  9  1  0
  9 10  1  0
 10 11  1  0
 10 12  2  0
  9 13  2  0
 13 14  1  0
 14 15  2  0
 15 16  1  0
 16 17  2  0
 17 18  1  0
 18 19  1  0
 19 20  1  0
 20 21  1  0
 21 22  1  0
 22 23  1  0
 21 24  1  0
 24 25  1  0
 17 26  1  0
 26 27  2  0
 27  8  1  0
 27 14  1  0
 25 18  1  0
  1 28  1  0
  1 29  1  0
  1 30  1  0
  3 31  1  0
  3 32  1  0
  4 33  1  0
  4 34  1  0
 11 35  1  0
 11 36  1  0
 13 37  1  0
 15 38  1  0
 16 39  1  0
 19 40  1  0
 19 41  1  0
 20 42  1  0
 20 43  1  0
 21 44  1  0
 23 45  1  0
 23 46  1  0
 23 47  1  0
 24 48  1  0
 24 49  1  0
 25 50  1  0
 25 51  1  0
 26 52  1  0
M  END
>  <UniqueID>  (67) 
67

>  <SMILES>  (67) 
COCCOC(=O)n1c(C(N)=O)cc2ccc(N3CCC(OC)CC3)cc21

>  <Energy>  (67) 
99.01289485914963

>  <Genealogy>  (67) 
COCCOC(=O)n1c(C(N)=O)cc2ccc(N3CCC(OC)CC3)cc21 (3D coordinates assigned)
COCCOC(=O)n1c(C(N)=O)cc2ccc(N3CCC(OC)CC3)cc21 (nonaromatic ring conformer: 99.01289485914963 kcal/mol)

>  <smiles>  (67) 
COCCOC(=O)n1c(C(N)=O)cc2ccc(N3CCC(OC)CC3)cc21

>  <score_type>  (67) 
oracle

>  <origin>  (67) 
adg

>  <m_score__min__energy>  (67) 
-7.7300000000000004

>  <m_primary>  (67) 
energy

$$$$
67:0
     RDKit          3D

 40 42  0  0  0  0  0  0  0  0999 V2000
  144.4060  154.9390  132.3890 C   0  0  0  0  0  0  0  0  0  0  0  0
  145.0450  155.7960  133.3280 O   0  0  0  0  0  0  0  0  0  0  0  0
  146.1100  156.6390  132.9780 C   0  0  0  0  0  0  0  0  0  0  0  0
  147.1780  156.1540  132.5030 O   0  0  0  0  0  0  0  0  0  0  0  0
  145.9740  158.0660  133.1190 N   0  0  0  0  0  0  0  0  0  0  0  0
  146.9640  158.9990  133.2230 C   0  0  0  0  0  0  0  0  0  0  0  0
  148.4180  158.7560  133.0790 C   0  0  0  0  0  0  0  0  0  0  0  0
  148.9690  158.2680  131.8570 N   0  0  0  0  0  0  0  0  0  0  0  0
  149.1900  158.9910  134.0520 O   0  0  0  0  0  0  0  0  0  0  0  0
  146.4170  160.2620  133.4480 C   0  0  0  0  0  0  0  0  0  0  0  0
  145.0540  160.0740  133.4830 C   0  0  0  0  0  0  0  0  0  0  0  0
  144.0300  160.9830  133.7290 C   0  0  0  0  0  0  0  0  0  0  0  0
  142.7120  160.4990  133.7690 C   0  0  0  0  0  0  0  0  0  0  0  0
  142.4370  159.1210  133.5550 C   0  0  0  0  0  0  0  0  0  0  0  0
  141.0170  158.5890  133.6250 C   0  0  0  0  0  0  0  0  0  0  0  0
  140.1580  159.1320  132.4710 C   0  0  0  0  0  0  0  0  0  0  0  0
  138.6950  158.6400  132.5740 C   0  0  0  0  0  0  0  0  0  0  0  0
  138.5470  157.4790  133.4710 N   0  0  0  0  0  0  0  0  0  0  0  0
  139.6060  156.4900  133.2350 C   0  0  0  0  0  0  0  0  0  0  0  0
  140.9790  157.0430  133.6640 C   0  0  0  0  0  0  0  0  0  0  0  0
  143.5090  158.2290  133.3100 C   0  0  0  0  0  0  0  0  0  0  0  0
  144.8110  158.7410  133.2750 C   0  0  0  0  0  0  0  0  0  0  0  0
  143.8322  154.1695  132.9262 H   0  0  0  0  0  0  0  0  0  0  0  0
  143.7259  155.5293  131.7574 H   0  0  0  0  0  0  0  0  0  0  0  0
  145.1659  154.4556  131.7574 H   0  0  0  0  0  0  0  0  0  0  0  0
  148.6700  157.3430  131.4690 H   0  0  0  0  0  0  0  0  0  0  0  0
  146.9610  161.2100  133.5716 H   0  0  0  0  0  0  0  0  0  0  0  0
  144.2462  162.0498  133.8876 H   0  0  0  0  0  0  0  0  0  0  0  0
  141.8832  161.1943  133.9682 H   0  0  0  0  0  0  0  0  0  0  0  0
  140.5856  158.9513  134.5698 H   0  0  0  0  0  0  0  0  0  0  0  0
  140.1687  160.2315  132.5039 H   0  0  0  0  0  0  0  0  0  0  0  0
  140.5800  158.7649  131.5238 H   0  0  0  0  0  0  0  0  0  0  0  0
  138.0733  159.4625  132.9574 H   0  0  0  0  0  0  0  0  0  0  0  0
  138.3786  158.3256  131.5685 H   0  0  0  0  0  0  0  0  0  0  0  0
  137.6250  157.0280  133.2660 H   0  0  0  0  0  0  0  0  0  0  0  0
  139.3863  155.5815  133.8149 H   0  0  0  0  0  0  0  0  0  0  0  0
  139.6396  156.2602  132.1598 H   0  0  0  0  0  0  0  0  0  0  0  0
  141.1924  156.7080  134.6898 H   0  0  0  0  0  0  0  0  0  0  0  0
  141.7337  156.6659  132.9581 H   0  0  0  0  0  0  0  0  0  0  0  0
  143.3225  157.1567  133.1506 H   0  0  0  0  0  0  0  0  0  0  0  0
  1  2  1  0
  2  3  1  0
  3  4  2  0
  3  5  1  0
  5  6  1  0
  6  7  1  0
  7  8  1  0
  7  9  2  0
  6 10  2  0
 10 11  1  0
 11 12  2  0
 12 13  1  0
 13 14  2  0
 14 15  1  0
 15 16  1  0
 16 17  1  0
 17 18  1  0
 18 19  1  0
 19 20  1  0
 14 21  1  0
 21 22  2  0
 22  5  1  0
 22 11  1  0
 20 15  1  0
  1 23  1  0
  1 24  1  0
  1 25  1  0
  8 26  1  0
 10 27  1  0
 12 28  1  0
 13 29  1  0
 15 30  1  0
 16 31  1  0
 16 32  1  0
 17 33  1  0
 17 34  1  0
 18 35  1  0
 19 36  1  0
 19 37  1  0
 20 38  1  0
 20 39  1  0
 21 40  1  0
M  CHG  1   8  -1
M  END
>  <UniqueID>  (68) 
68

>  <SMILES>  (68) 
COC(=O)n1c(C([NH-])=O)cc2ccc(C3CCNCC3)cc21

>  <Energy>  (68) 
83.66866066347339

>  <Genealogy>  (68) 
COC(=O)n1c(C([NH-])=O)cc2ccc(C3CCNCC3)cc21 (protonated)
COC(=O)n1c(C([NH-])=O)cc2ccc(C3CCNCC3)cc21 (3D coordinates assigned)
COC(=O)n1c(C([NH-])=O)cc2ccc(C3CCNCC3)cc21 (nonaromatic ring conformer: 83.66866066347339 kcal/mol)

>  <smiles>  (68) 
COC(=O)n1c(C(N)=O)cc2ccc(C3CCNCC3)cc21

>  <score_type>  (68) 
oracle

>  <origin>  (68) 
adg

>  <m_score__min__energy>  (68) 
-7.3200000000000003

>  <m_primary>  (68) 
energy

$$$$
68:0
     RDKit          3D

 39 40  0  0  0  0  0  0  0  0999 V2000
  142.0280  155.6340  136.8250 C   0  0  0  0  0  0  0  0  0  0  0  0
  141.1430  156.6450  137.5360 C   0  0  0  0  0  0  0  0  0  0  0  0
  141.7370  157.9250  137.4520 O   0  0  0  0  0  0  0  0  0  0  0  0
  141.1010  158.6970  136.4500 C   0  0  0  0  0  0  0  0  0  0  0  0
  139.7690  158.0550  136.0530 C   0  0  0  0  0  0  0  0  0  0  0  0
  139.3180  158.5650  134.7610 N   0  0  0  0  0  0  0  0  0  0  0  0
  139.8990  158.1910  133.5060 C   0  0  0  0  0  0  0  0  0  0  0  0
  139.3570  158.5740  132.4370 O   0  0  0  0  0  0  0  0  0  0  0  0
  141.1010  157.4090  133.4500 N   0  0  0  0  0  0  0  0  0  0  0  0
  141.2120  156.0560  133.3270 C   0  0  0  0  0  0  0  0  0  0  0  0
  140.0760  155.1250  133.1320 C   0  0  0  0  0  0  0  0  0  0  0  0
  138.7400  155.6130  132.9800 N   0  0  0  0  0  0  0  0  0  0  0  0
  140.2780  153.8830  133.1050 O   0  0  0  0  0  0  0  0  0  0  0  0
  142.5550  155.6790  133.3640 C   0  0  0  0  0  0  0  0  0  0  0  0
  143.2610  156.8530  133.5100 C   0  0  0  0  0  0  0  0  0  0  0  0
  144.6330  157.0710  133.6050 C   0  0  0  0  0  0  0  0  0  0  0  0
  145.0800  158.3940  133.7620 C   0  0  0  0  0  0  0  0  0  0  0  0
  144.1550  159.4680  133.8390 C   0  0  0  0  0  0  0  0  0  0  0  0
  144.6520  160.8860  133.9670 C   0  0  0  0  0  0  0  0  0  0  0  0
  144.7700  161.2410  135.3000 F   0  0  0  0  0  0  0  0  0  0  0  0
  145.8900  160.9900  133.3610 F   0  0  0  0  0  0  0  0  0  0  0  0
  143.7760  161.7710  133.3610 F   0  0  0  0  0  0  0  0  0  0  0  0
  142.7710  159.2070  133.7110 C   0  0  0  0  0  0  0  0  0  0  0  0
  142.3590  157.8810  133.5520 C   0  0  0  0  0  0  0  0  0  0  0  0
  142.5610  155.0252  137.5702 H   0  0  0  0  0  0  0  0  0  0  0  0
  141.4059  154.9811  136.1952 H   0  0  0  0  0  0  0  0  0  0  0  0
  142.7575  156.1642  136.1952 H   0  0  0  0  0  0  0  0  0  0  0  0
  140.1526  156.6672  137.0578 H   0  0  0  0  0  0  0  0  0  0  0  0
  141.0310  156.3589  138.5922 H   0  0  0  0  0  0  0  0  0  0  0  0
  140.9152  159.7104  136.8354 H   0  0  0  0  0  0  0  0  0  0  0  0
  141.7537  158.7450  135.5659 H   0  0  0  0  0  0  0  0  0  0  0  0
  139.8988  156.9647  135.9860 H   0  0  0  0  0  0  0  0  0  0  0  0
  139.0150  158.3021  136.8148 H   0  0  0  0  0  0  0  0  0  0  0  0
  138.5310  156.6340  132.9400 H   0  0  0  0  0  0  0  0  0  0  0  0
  137.9500  154.9400  132.8670 H   0  0  0  0  0  0  0  0  0  0  0  0
  142.9635  154.6602  133.2919 H   0  0  0  0  0  0  0  0  0  0  0  0
  145.3448  156.2336  133.5586 H   0  0  0  0  0  0  0  0  0  0  0  0
  146.1587  158.5996  133.8259 H   0  0  0  0  0  0  0  0  0  0  0  0
  142.0377  160.0265  133.7359 H   0  0  0  0  0  0  0  0  0  0  0  0
  1  2  1  0
  2  3  1  0
  3  4  1  0
  4  5  1  0
  5  6  1  0
  6  7  1  0
  7  8  2  0
  7  9  1  0
  9 10  1  0
 10 11  1  0
 11 12  1  0
 11 13  2  0
 10 14  2  0
 14 15  1  0
 15 16  2  0
 16 17  1  0
 17 18  2  0
 18 19  1  0
 19 20  1  0
 19 21  1  0
 19 22  1  0
 18 23  1  0
 23 24  2  0
 24  9  1  0
 24 15  1  0
  1 25  1  0
  1 26  1  0
  1 27  1  0
  2 28  1  0
  2 29  1  0
  4 30  1  0
  4 31  1  0
  5 32  1  0
  5 33  1  0
 12 34  1  0
 12 35  1  0
 14 36  1  0
 16 37  1  0
 17 38  1  0
 23 39  1  0
M  CHG  1   6  -1
M  END
>  <UniqueID>  (69) 
69

>  <SMILES>  (69) 
CCOCC[N-]C(=O)n1c(C(N)=O)cc2ccc(C(F)(F)F)cc21

>  <Energy>  (69) 
73.01976478485135

>  <Genealogy>  (69) 
CCOCC[N-]C(=O)n1c(C(N)=O)cc2ccc(C(F)(F)F)cc21 (protonated)
CCOCC[N-]C(=O)n1c(C(N)=O)cc2ccc(C(F)(F)F)cc21 (3D coordinates assigned)
CCOCC[N-]C(=O)n1c(C(N)=O)cc2ccc(C(F)(F)F)cc21 (optimized conformer: 73.01976478485135 kcal/mol)

>  <smiles>  (69) 
CCOCCNC(=O)n1c(C(N)=O)cc2ccc(C(F)(F)F)cc21

>  <score_type>  (69) 
oracle

>  <origin>  (69) 
adg

>  <m_score__min__energy>  (69) 
-6.2300000000000004

>  <m_primary>  (69) 
energy

$$$$
69:0
     RDKit          3D

 31 33  0  0  0  0  0  0  0  0999 V2000
  139.4820  158.0830  136.5480 N   0  0  0  0  0  0  0  0  0  0  0  0
  139.8700  157.9810  135.1810 C   0  0  0  0  0  0  0  0  0  0  0  0
  139.0650  157.4870  134.3460 O   0  0  0  0  0  0  0  0  0  0  0  0
  141.1760  158.4970  134.7190 C   0  0  0  0  0  0  0  0  0  0  0  0
  141.4970  159.8530  134.6980 C   0  0  0  0  0  0  0  0  0  0  0  0
  142.8120  159.9090  134.2960 C   0  0  0  0  0  0  0  0  0  0  0  0
  143.6360  161.0110  134.0900 C   0  0  0  0  0  0  0  0  0  0  0  0
  144.9470  160.7770  133.6400 C   0  0  0  0  0  0  0  0  0  0  0  0
  145.4080  159.4560  133.4010 C   0  0  0  0  0  0  0  0  0  0  0  0
  146.7870  159.2270  132.9070 C   0  0  0  0  0  0  0  0  0  0  0  0
  147.3490  160.1010  131.9590 C   0  0  0  0  0  0  0  0  0  0  0  0
  148.6460  159.8910  131.4820 C   0  0  0  0  0  0  0  0  0  0  0  0
  149.3970  158.8100  131.9470 C   0  0  0  0  0  0  0  0  0  0  0  0
  150.6540  158.6080  131.4830 F   0  0  0  0  0  0  0  0  0  0  0  0
  148.8530  157.9380  132.8930 C   0  0  0  0  0  0  0  0  0  0  0  0
  147.5550  158.1410  133.3750 C   0  0  0  0  0  0  0  0  0  0  0  0
  147.0670  157.3000  134.3210 F   0  0  0  0  0  0  0  0  0  0  0  0
  144.5350  158.3640  133.6170 C   0  0  0  0  0  0  0  0  0  0  0  0
  143.2420  158.6250  134.0840 C   0  0  0  0  0  0  0  0  0  0  0  0
  142.2470  157.7460  134.3360 N   0  0  0  0  0  0  0  0  0  0  0  0
  142.3040  156.3220  134.1460 C   0  0  0  0  0  0  0  0  0  0  0  0
  141.4060  155.7310  133.4880 O   0  0  0  0  0  0  0  0  0  0  0  0
  143.3630  155.5870  134.6630 O   0  0  0  0  0  0  0  0  0  0  0  0
  139.4790  159.0040  137.0380 H   0  0  0  0  0  0  0  0  0  0  0  0
  140.8395  160.6983  134.9492 H   0  0  0  0  0  0  0  0  0  0  0  0
  143.2730  162.0331  134.2735 H   0  0  0  0  0  0  0  0  0  0  0  0
  145.6236  161.6277  133.4711 H   0  0  0  0  0  0  0  0  0  0  0  0
  146.7635  160.9561  131.5903 H   0  0  0  0  0  0  0  0  0  0  0  0
  149.0757  160.5788  130.7388 H   0  0  0  0  0  0  0  0  0  0  0  0
  149.4472  157.0884  133.2605 H   0  0  0  0  0  0  0  0  0  0  0  0
  144.8652  157.3330  133.4222 H   0  0  0  0  0  0  0  0  0  0  0  0
  1  2  1  0
  2  3  2  0
  2  4  1  0
  4  5  2  0
  5  6  1  0
  6  7  2  0
  7  8  1  0
  8  9  2  0
  9 10  1  0
 10 11  2  0
 11 12  1  0
 12 13  2  0
 13 14  1  0
 13 15  1  0
 15 16  2  0
 16 17  1  0
  9 18  1  0
 18 19  2  0
 19 20  1  0
 20 21  1  0
 21 22  2  0
 21 23  1  0
 20  4  1  0
 19  6  1  0
 16 10  1  0
  1 24  1  0
  5 25  1  0
  7 26  1  0
  8 27  1  0
 11 28  1  0
 12 29  1  0
 15 30  1  0
 18 31  1  0
M  CHG  2   1  -1  23  -1
M  END
>  <UniqueID>  (70) 
70

>  <SMILES>  (70) 
[NH-]C(=O)c1cc2ccc(-c3ccc(F)cc3F)cc2n1C(=O)[O-]

>  <Energy>  (70) 
80.18619893564129

>  <Genealogy>  (70) 
[NH-]C(=O)c1cc2ccc(-c3ccc(F)cc3F)cc2n1C(=O)[O-] (protonated)
[NH-]C(=O)c1cc2ccc(-c3ccc(F)cc3F)cc2n1C(=O)[O-] (3D coordinates assigned)
[NH-]C(=O)c1cc2ccc(-c3ccc(F)cc3F)cc2n1C(=O)[O-] (optimized conformer: 80.18619893564129 kcal/mol)

>  <smiles>  (70) 
NC(=O)c1cc2ccc(-c3ccc(F)cc3F)cc2n1C(=O)O

>  <score_type>  (70) 
oracle

>  <origin>  (70) 
adg

>  <m_score__min__energy>  (70) 
-7.1600000000000001

>  <m_primary>  (70) 
energy

$$$$
70:0
     RDKit          3D

 51 53  0  0  0  0  0  0  0  0999 V2000
  139.1310  146.8110  129.9340 C   0  0  0  0  0  0  0  0  0  0  0  0
  138.7660  148.1190  130.5040 N   0  0  0  0  0  0  0  0  0  0  0  0
  138.7310  149.1260  129.4290 C   0  0  0  0  0  0  0  0  0  0  0  0
  139.7260  148.5030  131.5620 C   0  0  0  0  0  0  0  0  0  0  0  0
  139.3890  149.8930  132.1160 C   0  0  0  0  0  0  0  0  0  0  0  0
  140.6470  150.6690  132.3970 C   0  0  0  0  0  0  0  0  0  0  0  0
  141.9040  150.0120  132.3950 C   0  0  0  0  0  0  0  0  0  0  0  0
  143.0820  150.7170  132.6980 C   0  0  0  0  0  0  0  0  0  0  0  0
  142.9720  152.0700  133.0050 C   0  0  0  0  0  0  0  0  0  0  0  0
  143.9390  152.9870  133.3550 C   0  0  0  0  0  0  0  0  0  0  0  0
  143.2530  154.1820  133.5710 C   0  0  0  0  0  0  0  0  0  0  0  0
  143.9000  155.4540  133.9530 C   0  0  0  0  0  0  0  0  0  0  0  0
  144.0710  156.4850  132.9820 N   0  0  0  0  0  0  0  0  0  0  0  0
  144.3020  155.6430  135.1320 O   0  0  0  0  0  0  0  0  0  0  0  0
  141.9200  154.0060  133.3650 N   0  0  0  0  0  0  0  0  0  0  0  0
  140.8720  154.9730  133.5060 C   0  0  0  0  0  0  0  0  0  0  0  0
  139.9430  154.9980  132.6540 O   0  0  0  0  0  0  0  0  0  0  0  0
  140.8660  155.9090  134.6580 C   0  0  0  0  0  0  0  0  0  0  0  0
  141.3610  155.5240  135.8460 C   0  0  0  0  0  0  0  0  0  0  0  0
  141.3760  156.4560  136.9800 C   0  0  0  0  0  0  0  0  0  0  0  0
  141.9490  155.9930  138.3940 S   0  0  1  0  0  6  0  0  0  0  0  0
  141.9290  157.3240  139.5780 C   0  0  0  0  0  0  0  0  0  0  0  0
  141.1240  154.8520  138.9190 O   0  0  0  0  0  0  0  0  0  0  0  0
  140.9050  157.7920  136.7970 N   0  0  0  0  0  0  0  0  0  0  0  0
  140.4220  158.2050  135.6650 C   0  0  0  0  0  0  0  0  0  0  0  0
  140.2890  157.3000  134.4660 C   0  0  0  0  0  0  0  0  0  0  0  0
  141.7620  152.7140  133.0170 C   0  0  0  0  0  0  0  0  0  0  0  0
  140.5730  152.0410  132.7240 C   0  0  0  0  0  0  0  0  0  0  0  0
  139.3297  146.0987  130.7484 H   0  0  0  0  0  0  0  0  0  0  0  0
  138.3028  146.4373  129.3140 H   0  0  0  0  0  0  0  0  0  0  0  0
  140.0330  146.9201  129.3140 H   0  0  0  0  0  0  0  0  0  0  0  0
  138.6960  150.1328  129.8707 H   0  0  0  0  0  0  0  0  0  0  0  0
  139.6330  149.0297  128.8069 H   0  0  0  0  0  0  0  0  0  0  0  0
  137.8378  148.9673  128.8069 H   0  0  0  0  0  0  0  0  0  0  0  0
  139.6785  147.7670  132.3781 H   0  0  0  0  0  0  0  0  0  0  0  0
  140.7379  148.5279  131.1315 H   0  0  0  0  0  0  0  0  0  0  0  0
  138.7840  150.4397  131.3777 H   0  0  0  0  0  0  0  0  0  0  0  0
  138.8276  149.7747  133.0545 H   0  0  0  0  0  0  0  0  0  0  0  0
  141.9577  148.9401  132.1540 H   0  0  0  0  0  0  0  0  0  0  0  0
  144.0606  150.2147  132.6926 H   0  0  0  0  0  0  0  0  0  0  0  0
  145.0215  152.8135  133.4449 H   0  0  0  0  0  0  0  0  0  0  0  0
  144.7910  156.3990  132.2300 H   0  0  0  0  0  0  0  0  0  0  0  0
  141.7571  154.5053  135.9696 H   0  0  0  0  0  0  0  0  0  0  0  0
  143.2440  155.5720  138.2330 H   0  0  0  0  0  0  0  0  0  0  0  0
  141.9352  156.9088  140.5966 H   0  0  0  0  0  0  0  0  0  0  0  0
  142.8177  157.9560  139.4342 H   0  0  0  0  0  0  0  0  0  0  0  0
  141.0217  157.9290  139.4342 H   0  0  0  0  0  0  0  0  0  0  0  0
  140.0981  159.2526  135.5772 H   0  0  0  0  0  0  0  0  0  0  0  0
  139.2195  157.1984  134.2296 H   0  0  0  0  0  0  0  0  0  0  0  0
  140.8669  157.7685  133.6557 H   0  0  0  0  0  0  0  0  0  0  0  0
  139.6062  152.5652  132.7474 H   0  0  0  0  0  0  0  0  0  0  0  0
  1  2  1  0
  2  3  1  0
  2  4  1  0
  4  5  1  0
  5  6  1  0
  6  7  2  0
  7  8  1  0
  8  9  2  0
  9 10  1  0
 10 11  2  0
 11 12  1  0
 12 13  1  0
 12 14  2  0
 11 15  1  0
 15 16  1  0
 16 17  2  0
 16 18  1  0
 18 19  2  0
 19 20  1  0
 20 21  2  0
 21 22  1  0
 21 23  2  0
 20 24  1  0
 24 25  2  0
 25 26  1  0
 15 27  1  0
 27 28  2  0
 28  6  1  0
 27  9  1  0
 26 18  1  0
  1 29  1  0
  1 30  1  0
  1 31  1  0
  3 32  1  0
  3 33  1  0
  3 34  1  0
  4 35  1  0
  4 36  1  0
  5 37  1  0
  5 38  1  0
  7 39  1  0
  8 40  1  0
 10 41  1  0
 13 42  1  0
 19 43  1  0
 21 44  1  6
 22 45  1  0
 22 46  1  0
 22 47  1  0
 25 48  1  0
 26 49  1  0
 26 50  1  0
 28 51  1  0
M  CHG  1  13  -1
M  END
>  <UniqueID>  (71) 
71

>  <SMILES>  (71) 
CN(C)CCc1ccc2cc(C([NH-])=O)n(C(=O)C3=CC(=[S@@H](C)=O)N=CC3)c2c1

>  <Energy>  (71) 
84.71069836820898

>  <Genealogy>  (71) 
CN(C)CCc1ccc2cc(C([NH-])=O)n(C(=O)C3=CC(=[SH](C)=O)N=CC3)c2c1 (protonated)
CN(C)CCc1ccc2cc(C([NH-])=O)n(C(=O)C3=CC(=[S@@H](C)=O)N=CC3)c2c1 (chirality)
CN(C)CCc1ccc2cc(C([NH-])=O)n(C(=O)C3=CC(=[S@@H](C)=O)N=CC3)c2c1 (3D coordinates assigned)
CN(C)CCc1ccc2cc(C([NH-])=O)n(C(=O)C3=CC(=[S@@H](C)=O)N=CC3)c2c1 (nonaromatic ring conformer: 84.71069836820898 kcal/mol)

>  <smiles>  (71) 
CN(C)CCc1ccc2cc(C(N)=O)n(C(=O)C3=CC(=[SH](C)=O)N=CC3)c2c1

>  <score_type>  (71) 
oracle

>  <origin>  (71) 
adg

>  <m_score__min__energy>  (71) 
-9.3699999999999992

>  <m_primary>  (71) 
energy

$$$$
71:0
     RDKit          3D

 39 41  0  0  0  0  0  0  0  0999 V2000
  139.7020  147.6340  130.5830 C   0  0  0  0  0  0  0  0  0  0  0  0
  139.4300  149.0680  130.3930 N   0  0  0  0  0  0  0  0  0  0  0  0
  138.3710  149.2360  129.3820 C   0  0  0  0  0  0  0  0  0  0  0  0
  139.0330  149.6800  131.6760 C   0  0  0  0  0  0  0  0  0  0  0  0
  140.1940  150.3970  132.2940 C   0  0  0  0  0  0  0  0  0  0  0  0
  141.2220  149.8120  133.0040 C   0  0  0  0  0  0  0  0  0  0  0  0
  142.0470  150.8480  133.3890 C   0  0  0  0  0  0  0  0  0  0  0  0
  141.4680  152.0040  132.8860 C   0  0  0  0  0  0  0  0  0  0  0  0
  141.9720  153.3900  133.0280 C   0  0  0  0  0  0  0  0  0  0  0  0
  143.3350  153.6650  132.7450 C   0  0  0  0  0  0  0  0  0  0  0  0
  143.8450  154.9690  132.8570 C   0  0  0  0  0  0  0  0  0  0  0  0
  142.9760  155.9770  133.2600 C   0  0  0  0  0  0  0  0  0  0  0  0
  143.2010  157.3240  133.4230 C   0  0  0  0  0  0  0  0  0  0  0  0
  141.9790  157.8560  133.8290 C   0  0  0  0  0  0  0  0  0  0  0  0
  141.7950  159.2740  134.1980 C   0  0  0  0  0  0  0  0  0  0  0  0
  142.0410  160.3170  133.2580 N   0  0  0  0  0  0  0  0  0  0  0  0
  141.3650  159.5690  135.3460 O   0  0  0  0  0  0  0  0  0  0  0  0
  141.0320  156.8760  133.9050 N   0  0  0  0  0  0  0  0  0  0  0  0
  139.6350  157.0220  134.2020 C   0  0  0  0  0  0  0  0  0  0  0  0
  138.7650  156.6700  133.3620 O   0  0  0  0  0  0  0  0  0  0  0  0
  139.2290  157.5300  135.4300 O   0  0  0  0  0  0  0  0  0  0  0  0
  141.6610  155.7310  133.5570 C   0  0  0  0  0  0  0  0  0  0  0  0
  141.1200  154.4460  133.4350 C   0  0  0  0  0  0  0  0  0  0  0  0
  140.3650  151.6980  132.2390 O   0  0  0  0  0  0  0  0  0  0  0  0
  139.7448  147.4083  131.6587 H   0  0  0  0  0  0  0  0  0  0  0  0
  138.8998  147.0436  130.1161 H   0  0  0  0  0  0  0  0  0  0  0  0
  140.6646  147.3784  130.1161 H   0  0  0  0  0  0  0  0  0  0  0  0
  137.4048  149.3893  129.8850 H   0  0  0  0  0  0  0  0  0  0  0  0
  138.5996  150.1091  128.7532 H   0  0  0  0  0  0  0  0  0  0  0  0
  138.3181  148.3350  128.7532 H   0  0  0  0  0  0  0  0  0  0  0  0
  138.2173  150.3964  131.4988 H   0  0  0  0  0  0  0  0  0  0  0  0
  138.6977  148.8872  132.3609 H   0  0  0  0  0  0  0  0  0  0  0  0
  141.3559  148.7415  133.2185 H   0  0  0  0  0  0  0  0  0  0  0  0
  142.9747  150.7730  133.9753 H   0  0  0  0  0  0  0  0  0  0  0  0
  144.0008  152.8465  132.4339 H   0  0  0  0  0  0  0  0  0  0  0  0
  144.8998  155.1862  132.6327 H   0  0  0  0  0  0  0  0  0  0  0  0
  144.1452  157.8661  133.2662 H   0  0  0  0  0  0  0  0  0  0  0  0
  142.1420  160.1080  132.2390 H   0  0  0  0  0  0  0  0  0  0  0  0
  140.0574  154.2603  133.6502 H   0  0  0  0  0  0  0  0  0  0  0  0
  1  2  1  0
  2  3  1  0
  2  4  1  0
  4  5  1  0
  5  6  2  0
  6  7  1  0
  7  8  2  0
  8  9  1  0
  9 10  2  0
 10 11  1  0
 11 12  2  0
 12 13  1  0
 13 14  2  0
 14 15  1  0
 15 16  1  0
 15 17  2  0
 14 18  1  0
 18 19  1  0
 19 20  2  0
 19 21  1  0
 18 22  1  0
 22 23  2  0
  8 24  1  0
 24  5  1  0
 23  9  1  0
 22 12  1  0
  1 25  1  0
  1 26  1  0
  1 27  1  0
  3 28  1  0
  3 29  1  0
  3 30  1  0
  4 31  1  0
  4 32  1  0
  6 33  1  0
  7 34  1  0
 10 35  1  0
 11 36  1  0
 13 37  1  0
 16 38  1  0
 23 39  1  0
M  CHG  2  16  -1  21  -1
M  END
>  <UniqueID>  (72) 
72

>  <SMILES>  (72) 
CN(C)Cc1ccc(-c2ccc3cc(C([NH-])=O)n(C(=O)[O-])c3c2)o1

>  <Energy>  (72) 
107.23466680399316

>  <Genealogy>  (72) 
CN(C)Cc1ccc(-c2ccc3cc(C([NH-])=O)n(C(=O)[O-])c3c2)o1 (protonated)
CN(C)Cc1ccc(-c2ccc3cc(C([NH-])=O)n(C(=O)[O-])c3c2)o1 (3D coordinates assigned)
CN(C)Cc1ccc(-c2ccc3cc(C([NH-])=O)n(C(=O)[O-])c3c2)o1 (optimized conformer: 107.23466680399316 kcal/mol)

>  <smiles>  (72) 
CN(C)Cc1ccc(-c2ccc3cc(C(N)=O)n(C(=O)O)c3c2)o1

>  <score_type>  (72) 
oracle

>  <origin>  (72) 
adg

>  <m_score__min__energy>  (72) 
-7.4400000000000004

>  <m_primary>  (72) 
energy

$$$$
72:0
     RDKit          3D

 28 29  0  0  0  0  0  0  0  0999 V2000
  149.5740  160.1720  130.7700 C   0  0  0  0  0  0  0  0  0  0  0  0
  149.5440  159.7340  132.2300 C   0  0  0  0  0  0  0  0  0  0  0  0
  148.1690  159.2560  132.6130 C   0  0  0  0  0  0  0  0  0  0  0  0
  147.8650  157.8730  132.5850 C   0  0  0  0  0  0  0  0  0  0  0  0
  146.5900  157.4140  132.9580 C   0  0  0  0  0  0  0  0  0  0  0  0
  145.6520  158.3550  133.3700 C   0  0  0  0  0  0  0  0  0  0  0  0
  144.3420  158.1860  133.7560 C   0  0  0  0  0  0  0  0  0  0  0  0
  143.8780  159.4630  134.0530 C   0  0  0  0  0  0  0  0  0  0  0  0
  142.5240  159.7320  134.5740 C   0  0  0  0  0  0  0  0  0  0  0  0
  141.6260  160.6030  133.8840 N   0  0  0  0  0  0  0  0  0  0  0  0
  142.1740  159.2330  135.6770 O   0  0  0  0  0  0  0  0  0  0  0  0
  144.8550  160.3910  133.8490 N   0  0  0  0  0  0  0  0  0  0  0  0
  144.7270  161.8210  133.9300 C   0  0  0  0  0  0  0  0  0  0  0  0
  145.6130  162.5120  134.4980 O   0  0  0  0  0  0  0  0  0  0  0  0
  143.6240  162.4590  133.3740 O   0  0  0  0  0  0  0  0  0  0  0  0
  145.9380  159.6960  133.4320 C   0  0  0  0  0  0  0  0  0  0  0  0
  147.1930  160.1830  133.0460 C   0  0  0  0  0  0  0  0  0  0  0  0
  149.6491  161.2682  130.7175 H   0  0  0  0  0  0  0  0  0  0  0  0
  150.4433  159.7206  130.2695 H   0  0  0  0  0  0  0  0  0  0  0  0
  148.6512  159.8433  130.2695 H   0  0  0  0  0  0  0  0  0  0  0  0
  150.2647  158.9160  132.3766 H   0  0  0  0  0  0  0  0  0  0  0  0
  149.8091  160.5936  132.8630 H   0  0  0  0  0  0  0  0  0  0  0  0
  148.6332  157.1520  132.2687 H   0  0  0  0  0  0  0  0  0  0  0  0
  146.3414  156.3430  132.9251 H   0  0  0  0  0  0  0  0  0  0  0  0
  143.7811  157.2417  133.8167 H   0  0  0  0  0  0  0  0  0  0  0  0
  140.6590  160.7540  134.2480 H   0  0  0  0  0  0  0  0  0  0  0  0
  141.9430  161.1600  133.0590 H   0  0  0  0  0  0  0  0  0  0  0  0
  147.4140  161.2601  133.0788 H   0  0  0  0  0  0  0  0  0  0  0  0
  1  2  1  0
  2  3  1  0
  3  4  2  0
  4  5  1  0
  5  6  2  0
  6  7  1  0
  7  8  2  0
  8  9  1  0
  9 10  1  0
  9 11  2  0
  8 12  1  0
 12 13  1  0
 13 14  2  0
 13 15  1  0
 12 16  1  0
 16 17  2  0
 17  3  1  0
 16  6  1  0
  1 18  1  0
  1 19  1  0
  1 20  1  0
  2 21  1  0
  2 22  1  0
  4 23  1  0
  5 24  1  0
  7 25  1  0
 10 26  1  0
 10 27  1  0
 17 28  1  0
M  CHG  1  15  -1
M  END
>  <UniqueID>  (73) 
73

>  <SMILES>  (73) 
CCc1ccc2cc(C(N)=O)n(C(=O)[O-])c2c1

>  <Energy>  (73) 
65.0557388349429

>  <Genealogy>  (73) 
CCc1ccc2cc(C(N)=O)n(C(=O)[O-])c2c1 (protonated)
CCc1ccc2cc(C(N)=O)n(C(=O)[O-])c2c1 (3D coordinates assigned)
CCc1ccc2cc(C(N)=O)n(C(=O)[O-])c2c1 (optimized conformer: 65.0557388349429 kcal/mol)

>  <smiles>  (73) 
CCc1ccc2cc(C(N)=O)n(C(=O)O)c2c1

>  <score_type>  (73) 
oracle

>  <origin>  (73) 
adg

>  <m_score__min__energy>  (73) 
-6.21

>  <m_primary>  (73) 
energy

$$$$
73:0
     RDKit          3D

 41 42  0  0  0  0  0  0  0  0999 V2000
  145.0450  153.5020  137.4070 N   0  0  0  0  0  0  0  0  0  0  0  0
  144.5800  153.9090  136.1220 C   0  0  0  0  0  0  0  0  0  0  0  0
  143.4870  153.4580  135.6910 O   0  0  0  0  0  0  0  0  0  0  0  0
  145.3630  154.8820  135.3320 C   0  0  0  0  0  0  0  0  0  0  0  0
  144.8100  156.0260  134.7590 C   0  0  0  0  0  0  0  0  0  0  0  0
  145.8320  156.6080  134.0460 C   0  0  0  0  0  0  0  0  0  0  0  0
  145.8430  157.7800  133.2950 C   0  0  0  0  0  0  0  0  0  0  0  0
  147.0510  158.1630  132.6900 C   0  0  0  0  0  0  0  0  0  0  0  0
  148.2180  157.3750  132.8480 C   0  0  0  0  0  0  0  0  0  0  0  0
  149.5190  157.8220  132.2290 C   0  0  0  0  0  0  0  0  0  0  0  0
  149.5620  159.3420  132.0210 C   0  0  0  0  0  0  0  0  0  0  0  0
  149.5770  159.7270  130.5400 C   0  0  0  0  0  0  0  0  0  0  0  0
  149.3510  161.6410  130.3480 Br  0  0  0  0  0  0  0  0  0  0  0  0
  148.1700  156.1960  133.6230 C   0  0  0  0  0  0  0  0  0  0  0  0
  146.9490  155.8290  134.2000 C   0  0  0  0  0  0  0  0  0  0  0  0
  146.6790  154.7660  134.9910 N   0  0  0  0  0  0  0  0  0  0  0  0
  147.6190  153.7680  135.4180 C   0  0  0  0  0  0  0  0  0  0  0  0
  148.4240  153.2660  134.5870 O   0  0  0  0  0  0  0  0  0  0  0  0
  147.6150  153.3370  136.7510 O   0  0  0  0  0  0  0  0  0  0  0  0
  148.5740  152.4330  137.2980 C   0  0  0  0  0  0  0  0  0  0  0  0
  149.2040  153.0030  138.5750 C   0  0  0  0  0  0  0  0  0  0  0  0
  148.5780  154.3260  139.0200 C   0  0  0  0  0  0  0  0  0  0  0  0
  147.2710  154.1150  139.4790 O   0  0  0  0  0  0  0  0  0  0  0  0
  145.8490  153.9860  137.8650 H   0  0  0  0  0  0  0  0  0  0  0  0
  143.7754  156.3868  134.8564 H   0  0  0  0  0  0  0  0  0  0  0  0
  144.9333  158.3875  133.1790 H   0  0  0  0  0  0  0  0  0  0  0  0
  147.0917  159.0828  132.0881 H   0  0  0  0  0  0  0  0  0  0  0  0
  150.3469  157.5303  132.8920 H   0  0  0  0  0  0  0  0  0  0  0  0
  149.6108  157.3407  131.2442 H   0  0  0  0  0  0  0  0  0  0  0  0
  148.6746  159.7886  132.4933 H   0  0  0  0  0  0  0  0  0  0  0  0
  150.4913  159.7169  132.4748 H   0  0  0  0  0  0  0  0  0  0  0  0
  150.5378  159.4277  130.0959 H   0  0  0  0  0  0  0  0  0  0  0  0
  148.7511  159.2135  130.0260 H   0  0  0  0  0  0  0  0  0  0  0  0
  149.0701  155.5810  133.7697 H   0  0  0  0  0  0  0  0  0  0  0  0
  148.0758  151.4818  137.5368 H   0  0  0  0  0  0  0  0  0  0  0  0
  149.3702  152.2765  136.5553 H   0  0  0  0  0  0  0  0  0  0  0  0
  149.0792  152.2681  139.3839 H   0  0  0  0  0  0  0  0  0  0  0  0
  150.2634  153.2015  138.3551 H   0  0  0  0  0  0  0  0  0  0  0  0
  149.1821  154.7587  139.8311 H   0  0  0  0  0  0  0  0  0  0  0  0
  148.5496  155.0149  138.1629 H   0  0  0  0  0  0  0  0  0  0  0  0
  146.7590  153.7720  138.7010 H   0  0  0  0  0  0  0  0  0  0  0  0
  1  2  1  0
  2  3  2  0
  2  4  1  0
  4  5  2  0
  5  6  1  0
  6  7  2  0
  7  8  1  0
  8  9  2  0
  9 10  1  0
 10 11  1  0
 11 12  1  0
 12 13  1  0
  9 14  1  0
 14 15  2  0
 15 16  1  0
 16 17  1  0
 17 18  2  0
 17 19  1  0
 19 20  1  0
 20 21  1  0
 21 22  1  0
 22 23  1  0
 16  4  1  0
 15  6  1  0
  1 24  1  0
  5 25  1  0
  7 26  1  0
  8 27  1  0
 10 28  1  0
 10 29  1  0
 11 30  1  0
 11 31  1  0
 12 32  1  0
 12 33  1  0
 14 34  1  0
 20 35  1  0
 20 36  1  0
 21 37  1  0
 21 38  1  0
 22 39  1  0
 22 40  1  0
 23 41  1  0
M  CHG  1   1  -1
M  END
>  <UniqueID>  (74) 
74

>  <SMILES>  (74) 
[NH-]C(=O)c1cc2ccc(CCCBr)cc2n1C(=O)OCCCO

>  <Energy>  (74) 
69.5994294979373

>  <Genealogy>  (74) 
[NH-]C(=O)c1cc2ccc(CCCBr)cc2n1C(=O)OCCCO (protonated)
[NH-]C(=O)c1cc2ccc(CCCBr)cc2n1C(=O)OCCCO (3D coordinates assigned)
[NH-]C(=O)c1cc2ccc(CCCBr)cc2n1C(=O)OCCCO (optimized conformer: 69.5994294979373 kcal/mol)

>  <smiles>  (74) 
NC(=O)c1cc2ccc(CCCBr)cc2n1C(=O)OCCCO

>  <score_type>  (74) 
oracle

>  <origin>  (74) 
adg

>  <m_score__min__energy>  (74) 
-6.29

>  <m_primary>  (74) 
energy

$$$$
74:0
     RDKit          3D

 52 55  0  0  0  0  0  0  0  0999 V2000
  139.1090  146.7620  129.8850 C   0  0  0  0  0  0  0  0  0  0  0  0
  139.9520  146.9680  131.0030 O   0  0  0  0  0  0  0  0  0  0  0  0
  140.2350  148.3370  131.3040 C   0  0  0  0  0  0  0  0  0  0  0  0
  140.2250  149.0380  130.0030 C   0  0  0  0  0  0  0  0  0  0  0  0
  140.2170  149.5880  128.9840 N   0  0  0  0  0  0  0  0  0  0  0  0
  141.5920  148.5670  131.9980 C   0  0  0  0  0  0  0  0  0  0  0  0
  141.9090  150.0560  132.1880 C   0  0  0  0  0  0  0  0  0  0  0  0
  140.7550  150.9070  132.5720 N   0  0  0  0  0  0  0  0  0  0  0  0
  141.0080  152.3200  132.8710 C   0  0  0  0  0  0  0  0  0  0  0  0
  139.9500  153.2560  132.9810 C   0  0  0  0  0  0  0  0  0  0  0  0
  140.1990  154.6030  133.2620 C   0  0  0  0  0  0  0  0  0  0  0  0
  141.5110  155.0670  133.4330 C   0  0  0  0  0  0  0  0  0  0  0  0
  141.7800  156.4960  133.7360 C   0  0  0  0  0  0  0  0  0  0  0  0
  140.7140  157.3580  134.1010 C   0  0  0  0  0  0  0  0  0  0  0  0
  140.9420  158.7210  134.3370 C   0  0  0  0  0  0  0  0  0  0  0  0
  142.2390  159.1990  134.2020 C   0  0  0  0  0  0  0  0  0  0  0  0
  142.7130  160.4790  134.3440 C   0  0  0  0  0  0  0  0  0  0  0  0
  144.0700  160.3990  134.0680 C   0  0  0  0  0  0  0  0  0  0  0  0
  144.9360  161.5900  134.0000 C   0  0  0  0  0  0  0  0  0  0  0  0
  146.3570  161.4620  134.0510 N   0  0  0  0  0  0  0  0  0  0  0  0
  144.4210  162.7240  133.8160 O   0  0  0  0  0  0  0  0  0  0  0  0
  144.4420  159.1130  133.7910 N   0  0  0  0  0  0  0  0  0  0  0  0
  145.7920  158.6220  133.6190 C   0  0  0  0  0  0  0  0  0  0  0  0
  146.2710  157.7700  134.4150 O   0  0  0  0  0  0  0  0  0  0  0  0
  146.5900  159.0580  132.5610 O   0  0  0  0  0  0  0  0  0  0  0  0
  143.2950  158.3890  133.8630 C   0  0  0  0  0  0  0  0  0  0  0  0
  143.0930  157.0170  133.6300 C   0  0  0  0  0  0  0  0  0  0  0  0
  142.5700  154.1550  133.3220 C   0  0  0  0  0  0  0  0  0  0  0  0
  142.3260  152.8070  133.0490 C   0  0  0  0  0  0  0  0  0  0  0  0
  139.3490  150.4460  132.4690 C   0  0  0  0  0  0  0  0  0  0  0  0
  139.1540  148.9400  132.2120 C   0  0  0  0  0  0  0  0  0  0  0  0
  138.0948  146.5141  130.2313 H   0  0  0  0  0  0  0  0  0  0  0  0
  139.0753  147.6783  129.2774 H   0  0  0  0  0  0  0  0  0  0  0  0
  139.5017  145.9334  129.2774 H   0  0  0  0  0  0  0  0  0  0  0  0
  141.5702  148.0821  132.9851 H   0  0  0  0  0  0  0  0  0  0  0  0
  142.3740  148.1380  131.3542 H   0  0  0  0  0  0  0  0  0  0  0  0
  142.6721  150.1430  132.9754 H   0  0  0  0  0  0  0  0  0  0  0  0
  142.2439  150.4230  131.2066 H   0  0  0  0  0  0  0  0  0  0  0  0
  138.9129  152.9165  132.8427 H   0  0  0  0  0  0  0  0  0  0  0  0
  139.3572  155.3056  133.3497 H   0  0  0  0  0  0  0  0  0  0  0  0
  139.6964  156.9521  134.2000 H   0  0  0  0  0  0  0  0  0  0  0  0
  140.1179  159.3921  134.6208 H   0  0  0  0  0  0  0  0  0  0  0  0
  142.1394  161.3767  134.6181 H   0  0  0  0  0  0  0  0  0  0  0  0
  146.9610  162.3120  134.0070 H   0  0  0  0  0  0  0  0  0  0  0  0
  146.8060  160.5260  134.1380 H   0  0  0  0  0  0  0  0  0  0  0  0
  143.9375  156.3616  133.3707 H   0  0  0  0  0  0  0  0  0  0  0  0
  143.6048  154.5049  133.4514 H   0  0  0  0  0  0  0  0  0  0  0  0
  143.1737  152.1104  132.9707 H   0  0  0  0  0  0  0  0  0  0  0  0
  138.8421  150.6956  133.4128 H   0  0  0  0  0  0  0  0  0  0  0  0
  138.9315  150.9557  131.5881 H   0  0  0  0  0  0  0  0  0  0  0  0
  139.1759  148.4147  133.1782 H   0  0  0  0  0  0  0  0  0  0  0  0
  138.1894  148.8182  131.6975 H   0  0  0  0  0  0  0  0  0  0  0  0
  1  2  1  0
  2  3  1  0
  3  4  1  0
  4  5  3  0
  3  6  1  0
  6  7  1  0
  7  8  1  0
  8  9  1  0
  9 10  2  0
 10 11  1  0
 11 12  2  0
 12 13  1  0
 13 14  2  0
 14 15  1  0
 15 16  2  0
 16 17  1  0
 17 18  2  0
 18 19  1  0
 19 20  1  0
 19 21  2  0
 18 22  1  0
 22 23  1  0
 23 24  2  0
 23 25  1  0
 22 26  1  0
 26 27  2  0
 12 28  1  0
 28 29  2  0
  8 30  1  0
 30 31  1  0
 31  3  1  0
 29  9  1  0
 27 13  1  0
 26 16  1  0
  1 32  1  0
  1 33  1  0
  1 34  1  0
  6 35  1  0
  6 36  1  0
  7 37  1  0
  7 38  1  0
 10 39  1  0
 11 40  1  0
 14 41  1  0
 15 42  1  0
 17 43  1  0
 20 44  1  0
 20 45  1  0
 27 46  1  0
 28 47  1  0
 29 48  1  0
 30 49  1  0
 30 50  1  0
 31 51  1  0
 31 52  1  0
M  CHG  1  25  -1
M  END
>  <UniqueID>  (75) 
75

>  <SMILES>  (75) 
COC1(C#N)CCN(c2ccc(-c3ccc4cc(C(N)=O)n(C(=O)[O-])c4c3)cc2)CC1

>  <Energy>  (75) 
120.48799121955999

>  <Genealogy>  (75) 
COC1(C#N)CCN(c2ccc(-c3ccc4cc(C(N)=O)n(C(=O)[O-])c4c3)cc2)CC1 (protonated)
COC1(C#N)CCN(c2ccc(-c3ccc4cc(C(N)=O)n(C(=O)[O-])c4c3)cc2)CC1 (3D coordinates assigned)
COC1(C#N)CCN(c2ccc(-c3ccc4cc(C(N)=O)n(C(=O)[O-])c4c3)cc2)CC1 (nonaromatic ring conformer: 120.48799121955999 kcal/mol)

>  <smiles>  (75) 
COC1(C#N)CCN(c2ccc(-c3ccc4cc(C(N)=O)n(C(=O)O)c4c3)cc2)CC1

>  <score_type>  (75) 
oracle

>  <origin>  (75) 
adg

>  <m_score__min__energy>  (75) 
-9.3399999999999999

>  <m_primary>  (75) 
energy

$$$$
75:0
     RDKit          3D

 45 47  0  0  0  0  0  0  0  0999 V2000
  141.3780  153.8540  138.1230 C   0  0  0  0  0  0  0  0  0  0  0  0
  140.9700  155.2950  138.1930 C   0  0  0  0  0  0  0  0  0  0  0  0
  140.3800  155.6990  139.2320 O   0  0  0  0  0  0  0  0  0  0  0  0
  141.2120  156.2100  137.0990 N   0  0  0  0  0  0  0  0  0  0  0  0
  141.3600  157.6440  137.3840 C   0  0  0  0  0  0  0  0  0  0  0  0
  140.7090  158.4900  136.2870 C   0  0  0  0  0  0  0  0  0  0  0  0
  141.1250  158.0790  134.8620 C   0  0  0  0  0  0  0  0  0  0  0  0
  142.4310  158.7210  134.4010 C   0  0  0  0  0  0  0  0  0  0  0  0
  142.5580  160.1210  134.1950 C   0  0  0  0  0  0  0  0  0  0  0  0
  143.7650  160.6810  133.7480 C   0  0  0  0  0  0  0  0  0  0  0  0
  144.8380  159.8270  133.5220 C   0  0  0  0  0  0  0  0  0  0  0  0
  146.0990  160.0990  133.0420 C   0  0  0  0  0  0  0  0  0  0  0  0
  146.7440  158.8680  132.9870 C   0  0  0  0  0  0  0  0  0  0  0  0
  148.1430  158.6980  132.5440 C   0  0  0  0  0  0  0  0  0  0  0  0
  148.4860  157.7990  131.4890 N   0  0  0  0  0  0  0  0  0  0  0  0
  149.0600  159.3260  133.1400 O   0  0  0  0  0  0  0  0  0  0  0  0
  145.9160  157.8720  133.4090 N   0  0  0  0  0  0  0  0  0  0  0  0
  146.1770  156.4580  133.3800 C   0  0  0  0  0  0  0  0  0  0  0  0
  146.0680  155.6270  134.6190 C   0  0  0  0  0  0  0  0  0  0  0  0
  146.5210  155.9080  132.3010 O   0  0  0  0  0  0  0  0  0  0  0  0
  144.7490  158.4760  133.7300 C   0  0  0  0  0  0  0  0  0  0  0  0
  143.5500  157.8890  134.1470 C   0  0  0  0  0  0  0  0  0  0  0  0
  141.0610  156.5520  134.6410 C   0  0  0  0  0  0  0  0  0  0  0  0
  141.6480  155.7130  135.7850 C   0  0  0  0  0  0  0  0  0  0  0  0
  141.4910  153.4550  139.1418 H   0  0  0  0  0  0  0  0  0  0  0  0
  140.6070  153.2802  137.5879 H   0  0  0  0  0  0  0  0  0  0  0  0
  142.3354  153.7696  137.5879 H   0  0  0  0  0  0  0  0  0  0  0  0
  140.8790  157.8711  138.3469 H   0  0  0  0  0  0  0  0  0  0  0  0
  142.4325  157.8852  137.4233 H   0  0  0  0  0  0  0  0  0  0  0  0
  139.6169  158.3900  136.3728 H   0  0  0  0  0  0  0  0  0  0  0  0
  141.0474  159.5261  136.4354 H   0  0  0  0  0  0  0  0  0  0  0  0
  140.3633  158.5011  134.1899 H   0  0  0  0  0  0  0  0  0  0  0  0
  141.6964  160.7768  134.3890 H   0  0  0  0  0  0  0  0  0  0  0  0
  143.8589  161.7642  133.5814 H   0  0  0  0  0  0  0  0  0  0  0  0
  146.5091  161.0805  132.7617 H   0  0  0  0  0  0  0  0  0  0  0  0
  149.4730  157.7350  131.1570 H   0  0  0  0  0  0  0  0  0  0  0  0
  147.7880  157.1260  131.1030 H   0  0  0  0  0  0  0  0  0  0  0  0
  146.1530  156.2750  135.5038 H   0  0  0  0  0  0  0  0  0  0  0  0
  145.0949  155.1143  134.6322 H   0  0  0  0  0  0  0  0  0  0  0  0
  146.8759  154.8806  134.6322 H   0  0  0  0  0  0  0  0  0  0  0  0
  143.4766  156.7990  134.2758 H   0  0  0  0  0  0  0  0  0  0  0  0
  140.0059  156.2681  134.5143 H   0  0  0  0  0  0  0  0  0  0  0  0
  141.6757  156.3405  133.7536 H   0  0  0  0  0  0  0  0  0  0  0  0
  141.3167  154.6704  135.6697 H   0  0  0  0  0  0  0  0  0  0  0  0
  142.7446  155.7840  135.7365 H   0  0  0  0  0  0  0  0  0  0  0  0
  1  2  1  0
  2  3  2  0
  2  4  1  0
  4  5  1  0
  5  6  1  0
  6  7  1  0
  7  8  1  0
  8  9  2  0
  9 10  1  0
 10 11  2  0
 11 12  1  0
 12 13  2  0
 13 14  1  0
 14 15  1  0
 14 16  2  0
 13 17  1  0
 17 18  1  0
 18 19  1  0
 18 20  2  0
 17 21  1  0
 21 22  2  0
  7 23  1  0
 23 24  1  0
 24  4  1  0
 22  8  1  0
 21 11  1  0
  1 25  1  0
  1 26  1  0
  1 27  1  0
  5 28  1  0
  5 29  1  0
  6 30  1  0
  6 31  1  0
  7 32  1  0
  9 33  1  0
 10 34  1  0
 12 35  1  0
 15 36  1  0
 15 37  1  0
 19 38  1  0
 19 39  1  0
 19 40  1  0
 22 41  1  0
 23 42  1  0
 23 43  1  0
 24 44  1  0
 24 45  1  0
M  END
>  <UniqueID>  (76) 
76

>  <SMILES>  (76) 
CC(=O)N1CCC(c2ccc3cc(C(N)=O)n(C(C)=O)c3c2)CC1

>  <Energy>  (76) 
88.94275170083631

>  <Genealogy>  (76) 
CC(=O)N1CCC(c2ccc3cc(C(N)=O)n(C(C)=O)c3c2)CC1 (3D coordinates assigned)
CC(=O)N1CCC(c2ccc3cc(C(N)=O)n(C(C)=O)c3c2)CC1 (nonaromatic ring conformer: 88.94275170083631 kcal/mol)

>  <smiles>  (76) 
CC(=O)N1CCC(c2ccc3cc(C(N)=O)n(C(C)=O)c3c2)CC1

>  <score_type>  (76) 
oracle

>  <origin>  (76) 
adg

>  <m_score__min__energy>  (76) 
-8.1600000000000001

>  <m_primary>  (76) 
energy

$$$$
76:0
     RDKit          3D

 31 33  0  0  0  0  0  0  0  0999 V2000
  139.7500  158.1770  136.6110 N   0  0  0  0  0  0  0  0  0  0  0  0
  140.0130  158.2780  135.2140 C   0  0  0  0  0  0  0  0  0  0  0  0
  139.0940  158.0180  134.3920 O   0  0  0  0  0  0  0  0  0  0  0  0
  141.3270  158.7370  134.7200 C   0  0  0  0  0  0  0  0  0  0  0  0
  141.7310  160.0710  134.7430 C   0  0  0  0  0  0  0  0  0  0  0  0
  143.0320  160.0660  134.2960 C   0  0  0  0  0  0  0  0  0  0  0  0
  143.9180  161.1220  134.1100 C   0  0  0  0  0  0  0  0  0  0  0  0
  145.1960  160.8300  133.6060 C   0  0  0  0  0  0  0  0  0  0  0  0
  145.5660  159.4950  133.2910 C   0  0  0  0  0  0  0  0  0  0  0  0
  146.9160  159.1980  132.7500 C   0  0  0  0  0  0  0  0  0  0  0  0
  147.5950  158.0240  133.1170 C   0  0  0  0  0  0  0  0  0  0  0  0
  148.8650  157.7650  132.5970 C   0  0  0  0  0  0  0  0  0  0  0  0
  149.4420  158.6440  131.7380 N   0  0  0  0  0  0  0  0  0  0  0  0
  148.8140  159.7890  131.3610 C   0  0  0  0  0  0  0  0  0  0  0  0
  149.6050  160.8840  130.2460 Cl  0  0  0  0  0  0  0  0  0  0  0  0
  147.5430  160.0880  131.8580 C   0  0  0  0  0  0  0  0  0  0  0  0
  144.6340  158.4490  133.4960 C   0  0  0  0  0  0  0  0  0  0  0  0
  143.3750  158.7690  134.0160 C   0  0  0  0  0  0  0  0  0  0  0  0
  142.3360  157.9410  134.2660 N   0  0  0  0  0  0  0  0  0  0  0  0
  142.2950  156.5280  134.0070 C   0  0  0  0  0  0  0  0  0  0  0  0
  141.1370  155.9390  133.4220 N   0  0  0  0  0  0  0  0  0  0  0  0
  143.2960  155.8080  134.2660 O   0  0  0  0  0  0  0  0  0  0  0  0
  139.4470  159.0110  137.1620 H   0  0  0  0  0  0  0  0  0  0  0  0
  141.1358  160.9426  135.0528 H   0  0  0  0  0  0  0  0  0  0  0  0
  143.6264  162.1550  134.3505 H   0  0  0  0  0  0  0  0  0  0  0  0
  145.9191  161.6447  133.4533 H   0  0  0  0  0  0  0  0  0  0  0  0
  147.1276  157.3109  133.8120 H   0  0  0  0  0  0  0  0  0  0  0  0
  149.3989  156.8470  132.8839 H   0  0  0  0  0  0  0  0  0  0  0  0
  147.0346  161.0148  131.5536 H   0  0  0  0  0  0  0  0  0  0  0  0
  144.8938  157.4084  133.2520 H   0  0  0  0  0  0  0  0  0  0  0  0
  140.1990  156.3880  133.5160 H   0  0  0  0  0  0  0  0  0  0  0  0
  1  2  1  0
  2  3  2  0
  2  4  1  0
  4  5  2  0
  5  6  1  0
  6  7  2  0
  7  8  1  0
  8  9  2  0
  9 10  1  0
 10 11  2  0
 11 12  1  0
 12 13  2  0
 13 14  1  0
 14 15  1  0
 14 16  2  0
  9 17  1  0
 17 18  2  0
 18 19  1  0
 19 20  1  0
 20 21  1  0
 20 22  2  0
 19  4  1  0
 18  6  1  0
 16 10  1  0
  1 23  1  0
  5 24  1  0
  7 25  1  0
  8 26  1  0
 11 27  1  0
 12 28  1  0
 16 29  1  0
 17 30  1  0
 21 31  1  0
M  CHG  2   1  -1  21  -1
M  END
>  <UniqueID>  (77) 
77

>  <SMILES>  (77) 
[NH-]C(=O)c1cc2ccc(-c3ccnc(Cl)c3)cc2n1C([NH-])=O

>  <Energy>  (77) 
79.25906516573617

>  <Genealogy>  (77) 
[NH-]C(=O)c1cc2ccc(-c3ccnc(Cl)c3)cc2n1C([NH-])=O (protonated)
[NH-]C(=O)c1cc2ccc(-c3ccnc(Cl)c3)cc2n1C([NH-])=O (3D coordinates assigned)
[NH-]C(=O)c1cc2ccc(-c3ccnc(Cl)c3)cc2n1C([NH-])=O (optimized conformer: 79.25906516573617 kcal/mol)

>  <smiles>  (77) 
NC(=O)c1cc2ccc(-c3ccnc(Cl)c3)cc2n1C(N)=O

>  <score_type>  (77) 
oracle

>  <origin>  (77) 
adg

>  <m_score__min__energy>  (77) 
-7.7699999999999996

>  <m_primary>  (77) 
energy

$$$$
77:0
     RDKit          3D

 25 26  0  0  0  0  0  0  0  0999 V2000
  142.7390  160.5630  133.3800 N   0  0  0  0  0  0  0  0  0  0  0  0
  144.0910  160.8460  133.7270 C   0  0  0  0  0  0  0  0  0  0  0  0
  144.3950  161.9950  134.1460 O   0  0  0  0  0  0  0  0  0  0  0  0
  145.1500  159.8290  133.5500 C   0  0  0  0  0  0  0  0  0  0  0  0
  146.4920  160.1480  133.3540 C   0  0  0  0  0  0  0  0  0  0  0  0
  147.1240  158.9460  133.1360 C   0  0  0  0  0  0  0  0  0  0  0  0
  148.4680  158.6710  132.8950 C   0  0  0  0  0  0  0  0  0  0  0  0
  148.8480  157.3290  132.7340 C   0  0  0  0  0  0  0  0  0  0  0  0
  147.8850  156.2910  132.8220 C   0  0  0  0  0  0  0  0  0  0  0  0
  148.2970  154.8550  132.6640 C   0  0  0  0  0  0  0  0  0  0  0  0
  148.1370  154.1880  133.8640 F   0  0  0  0  0  0  0  0  0  0  0  0
  149.6240  154.7930  132.2810 F   0  0  0  0  0  0  0  0  0  0  0  0
  146.5310  156.6080  133.0690 C   0  0  0  0  0  0  0  0  0  0  0  0
  146.1790  157.9560  133.2090 C   0  0  0  0  0  0  0  0  0  0  0  0
  144.9610  158.4820  133.4660 N   0  0  0  0  0  0  0  0  0  0  0  0
  143.7500  157.7460  133.7020 C   0  0  0  0  0  0  0  0  0  0  0  0
  142.6560  157.8520  132.7940 N   0  0  0  0  0  0  0  0  0  0  0  0
  143.6370  157.0260  134.7300 O   0  0  0  0  0  0  0  0  0  0  0  0
  142.5090  160.0130  132.5230 H   0  0  0  0  0  0  0  0  0  0  0  0
  146.9490  161.1485  133.3702 H   0  0  0  0  0  0  0  0  0  0  0  0
  149.2096  159.4811  132.8327 H   0  0  0  0  0  0  0  0  0  0  0  0
  149.9014  157.0803  132.5379 H   0  0  0  0  0  0  0  0  0  0  0  0
  147.6681  154.3820  131.8954 H   0  0  0  0  0  0  0  0  0  0  0  0
  145.7721  155.8158  133.1494 H   0  0  0  0  0  0  0  0  0  0  0  0
  142.5100  158.7180  132.2290 H   0  0  0  0  0  0  0  0  0  0  0  0
  1  2  1  0
  2  3  2  0
  2  4  1  0
  4  5  2  0
  5  6  1  0
  6  7  2  0
  7  8  1  0
  8  9  2  0
  9 10  1  0
 10 11  1  0
 10 12  1  0
  9 13  1  0
 13 14  2  0
 14 15  1  0
 15 16  1  0
 16 17  1  0
 16 18  2  0
 15  4  1  0
 14  6  1  0
  1 19  1  0
  5 20  1  0
  7 21  1  0
  8 22  1  0
 10 23  1  0
 13 24  1  0
 17 25  1  0
M  CHG  2   1  -1  17  -1
M  END
>  <UniqueID>  (78) 
78

>  <SMILES>  (78) 
[NH-]C(=O)c1cc2ccc(C(F)F)cc2n1C([NH-])=O

>  <Energy>  (78) 
64.67046227420967

>  <Genealogy>  (78) 
[NH-]C(=O)c1cc2ccc(C(F)F)cc2n1C([NH-])=O (protonated)
[NH-]C(=O)c1cc2ccc(C(F)F)cc2n1C([NH-])=O (3D coordinates assigned)
[NH-]C(=O)c1cc2ccc(C(F)F)cc2n1C([NH-])=O (optimized conformer: 64.67046227420967 kcal/mol)

>  <smiles>  (78) 
NC(=O)c1cc2ccc(C(F)F)cc2n1C(N)=O

>  <score_type>  (78) 
oracle

>  <origin>  (78) 
adg

>  <m_score__min__energy>  (78) 
-5.4500000000000002

>  <m_primary>  (78) 
energy

$$$$
78:0
     RDKit          3D

 39 42  0  0  0  0  0  0  0  0999 V2000
  139.8300  159.4520  131.6120 C   0  0  0  0  0  0  0  0  0  0  0  0
  139.9730  160.1210  132.8550 O   0  0  0  0  0  0  0  0  0  0  0  0
  141.1220  159.9850  133.6080 C   0  0  0  0  0  0  0  0  0  0  0  0
  141.7830  161.0710  133.7680 O   0  0  0  0  0  0  0  0  0  0  0  0
  141.5940  158.7910  134.1850 N   0  0  0  0  0  0  0  0  0  0  0  0
  140.9060  157.9120  134.9350 C   0  0  0  0  0  0  0  0  0  0  0  0
  139.5250  157.9140  135.3660 C   0  0  0  0  0  0  0  0  0  0  0  0
  138.4940  158.2000  134.3990 N   0  0  0  0  0  0  0  0  0  0  0  0
  139.1120  157.6890  136.5210 O   0  0  0  0  0  0  0  0  0  0  0  0
  141.8050  156.8920  135.2720 C   0  0  0  0  0  0  0  0  0  0  0  0
  143.0200  157.1600  134.7280 C   0  0  0  0  0  0  0  0  0  0  0  0
  144.2150  156.4580  134.7800 C   0  0  0  0  0  0  0  0  0  0  0  0
  145.3230  156.9550  134.1320 C   0  0  0  0  0  0  0  0  0  0  0  0
  145.1990  158.1420  133.4490 C   0  0  0  0  0  0  0  0  0  0  0  0
  146.3780  158.6670  132.7600 C   0  0  0  0  0  0  0  0  0  0  0  0
  147.5490  158.0080  132.5460 N   0  0  0  0  0  0  0  0  0  0  0  0
  148.3910  158.8430  131.8710 C   0  0  0  0  0  0  0  0  0  0  0  0
  149.6800  158.7290  131.3910 C   0  0  0  0  0  0  0  0  0  0  0  0
  150.3270  159.7480  130.7220 C   0  0  0  0  0  0  0  0  0  0  0  0
  149.6320  160.9420  130.5320 C   0  0  0  0  0  0  0  0  0  0  0  0
  148.3360  161.0760  131.0060 C   0  0  0  0  0  0  0  0  0  0  0  0
  147.7000  160.0320  131.6800 C   0  0  0  0  0  0  0  0  0  0  0  0
  146.4720  159.9000  132.2310 N   0  0  0  0  0  0  0  0  0  0  0  0
  144.0030  158.8300  133.4060 C   0  0  0  0  0  0  0  0  0  0  0  0
  142.8800  158.3520  134.0490 C   0  0  0  0  0  0  0  0  0  0  0  0
  139.6031  158.3906  131.7908 H   0  0  0  0  0  0  0  0  0  0  0  0
  139.0097  159.9111  131.0407 H   0  0  0  0  0  0  0  0  0  0  0  0
  140.7663  159.5356  131.0407 H   0  0  0  0  0  0  0  0  0  0  0  0
  137.5620  157.7460  134.4560 H   0  0  0  0  0  0  0  0  0  0  0  0
  138.6660  158.8790  133.6060 H   0  0  0  0  0  0  0  0  0  0  0  0
  141.5639  156.0098  135.8832 H   0  0  0  0  0  0  0  0  0  0  0  0
  144.2769  155.5105  135.3353 H   0  0  0  0  0  0  0  0  0  0  0  0
  146.2821  156.4170  134.1598 H   0  0  0  0  0  0  0  0  0  0  0  0
  150.2166  157.7819  131.5491 H   0  0  0  0  0  0  0  0  0  0  0  0
  151.3551  159.6228  130.3515 H   0  0  0  0  0  0  0  0  0  0  0  0
  150.1130  161.7792  130.0050 H   0  0  0  0  0  0  0  0  0  0  0  0
  147.7988  162.0228  130.8480 H   0  0  0  0  0  0  0  0  0  0  0  0
  145.7750  160.6720  132.2090 H   0  0  0  0  0  0  0  0  0  0  0  0
  143.9444  159.7767  132.8489 H   0  0  0  0  0  0  0  0  0  0  0  0
  1  2  1  0
  2  3  1  0
  3  4  2  0
  3  5  1  0
  5  6  1  0
  6  7  1  0
  7  8  1  0
  7  9  2  0
  6 10  2  0
 10 11  1  0
 11 12  2  0
 12 13  1  0
 13 14  2  0
 14 15  1  0
 15 16  2  0
 16 17  1  0
 17 18  2  0
 18 19  1  0
 19 20  2  0
 20 21  1  0
 21 22  2  0
 22 23  1  0
 14 24  1  0
 24 25  2  0
 25  5  1  0
 25 11  1  0
 23 15  1  0
 22 17  1  0
  1 26  1  0
  1 27  1  0
  1 28  1  0
  8 29  1  0
  8 30  1  0
 10 31  1  0
 12 32  1  0
 13 33  1  0
 18 34  1  0
 19 35  1  0
 20 36  1  0
 21 37  1  0
 23 38  1  0
 24 39  1  0
M  END
>  <smiles>  (79) 
COC(=O)n1c(C(N)=O)cc2ccc(-c3nc4ccccc4[nH]3)cc21

>  <score_type>  (79) 
oracle

>  <origin>  (79) 
adg

>  <m_score__min__energy>  (79) 
-8.2699999999999996

>  <m_primary>  (79) 
energy

$$$$
79:0
     RDKit          3D

 39 40  0  0  0  0  0  0  0  0999 V2000
  146.0050  154.5870  135.3200 C   0  0  0  0  0  0  0  0  0  0  0  0
  146.4310  155.2170  134.0570 N   0  0  0  0  0  0  0  0  0  0  0  0
  146.4100  154.2150  132.9750 C   0  0  0  0  0  0  0  0  0  0  0  0
  147.7820  155.8150  134.2090 C   0  0  0  0  0  0  0  0  0  0  0  0
  148.4060  156.2290  132.8540 C   0  0  0  0  0  0  0  0  0  0  0  0
  148.8230  157.7090  132.7990 C   0  0  0  0  0  0  0  0  0  0  0  0
  147.6620  158.6390  133.0290 C   0  0  0  0  0  0  0  0  0  0  0  0
  147.8900  160.0010  133.3490 C   0  0  0  0  0  0  0  0  0  0  0  0
  146.8160  160.8590  133.6330 C   0  0  0  0  0  0  0  0  0  0  0  0
  145.5300  160.3320  133.5840 C   0  0  0  0  0  0  0  0  0  0  0  0
  144.3190  160.9300  133.8480 C   0  0  0  0  0  0  0  0  0  0  0  0
  143.3650  159.9310  133.6640 C   0  0  0  0  0  0  0  0  0  0  0  0
  141.9110  160.1680  133.7640 C   0  0  0  0  0  0  0  0  0  0  0  0
  141.0800  159.9790  132.6200 N   0  0  0  0  0  0  0  0  0  0  0  0
  141.3840  160.4990  134.8590 O   0  0  0  0  0  0  0  0  0  0  0  0
  143.9630  158.7570  133.3100 N   0  0  0  0  0  0  0  0  0  0  0  0
  143.3390  157.4790  133.1090 C   0  0  0  0  0  0  0  0  0  0  0  0
  142.2320  157.3970  132.5140 O   0  0  0  0  0  0  0  0  0  0  0  0
  143.9640  156.3150  133.5420 O   0  0  0  0  0  0  0  0  0  0  0  0
  145.2880  159.0200  133.2620 C   0  0  0  0  0  0  0  0  0  0  0  0
  146.3410  158.1390  132.9910 C   0  0  0  0  0  0  0  0  0  0  0  0
  146.3967  155.1663  136.1691 H   0  0  0  0  0  0  0  0  0  0  0  0
  144.9062  154.5654  135.3666 H   0  0  0  0  0  0  0  0  0  0  0  0
  146.3942  153.5592  135.3666 H   0  0  0  0  0  0  0  0  0  0  0  0
  145.7290  155.9570  133.8250 H   0  0  0  0  0  0  0  0  0  0  0  0
  146.3888  153.2052  133.4108 H   0  0  0  0  0  0  0  0  0  0  0  0
  145.5148  154.3650  132.3536 H   0  0  0  0  0  0  0  0  0  0  0  0
  147.3107  154.3274  132.3536 H   0  0  0  0  0  0  0  0  0  0  0  0
  147.7025  156.7072  134.8474 H   0  0  0  0  0  0  0  0  0  0  0  0
  148.4354  155.0521  134.6573 H   0  0  0  0  0  0  0  0  0  0  0  0
  149.2972  155.6090  132.6768 H   0  0  0  0  0  0  0  0  0  0  0  0
  147.6355  156.0803  132.0832 H   0  0  0  0  0  0  0  0  0  0  0  0
  149.5815  157.8918  133.5744 H   0  0  0  0  0  0  0  0  0  0  0  0
  149.2202  157.9093  131.7930 H   0  0  0  0  0  0  0  0  0  0  0  0
  148.9188  160.3894  133.3750 H   0  0  0  0  0  0  0  0  0  0  0  0
  146.9863  161.9157  133.8865 H   0  0  0  0  0  0  0  0  0  0  0  0
  144.1416  161.9750  134.1420 H   0  0  0  0  0  0  0  0  0  0  0  0
  141.3580  159.3250  131.8560 H   0  0  0  0  0  0  0  0  0  0  0  0
  146.1450  157.0828  132.7541 H   0  0  0  0  0  0  0  0  0  0  0  0
  1  2  1  0
  2  3  1  0
  2  4  1  0
  4  5  1  0
  5  6  1  0
  6  7  1  0
  7  8  2  0
  8  9  1  0
  9 10  2  0
 10 11  1  0
 11 12  2  0
 12 13  1  0
 13 14  1  0
 13 15  2  0
 12 16  1  0
 16 17  1  0
 17 18  2  0
 17 19  1  0
 16 20  1  0
 20 21  2  0
 21  7  1  0
 20 10  1  0
  1 22  1  0
  1 23  1  0
  1 24  1  0
  2 25  1  0
  3 26  1  0
  3 27  1  0
  3 28  1  0
  4 29  1  0
  4 30  1  0
  5 31  1  0
  5 32  1  0
  6 33  1  0
  6 34  1  0
  8 35  1  0
  9 36  1  0
 11 37  1  0
 14 38  1  0
 21 39  1  0
M  CHG  3   2   1  14  -1  19  -1
M  END
>  <UniqueID>  (80) 
79

>  <SMILES>  (80) 
C[NH+](C)CCCc1ccc2cc(C([NH-])=O)n(C(=O)[O-])c2c1

>  <Energy>  (80) 
76.58718071234735

>  <Genealogy>  (80) 
C[NH+](C)CCCc1ccc2cc(C([NH-])=O)n(C(=O)[O-])c2c1 (protonated)
C[NH+](C)CCCc1ccc2cc(C([NH-])=O)n(C(=O)[O-])c2c1 (3D coordinates assigned)
C[NH+](C)CCCc1ccc2cc(C([NH-])=O)n(C(=O)[O-])c2c1 (optimized conformer: 76.58718071234735 kcal/mol)

>  <smiles>  (80) 
CN(C)CCCc1ccc2cc(C(N)=O)n(C(=O)O)c2c1

>  <score_type>  (80) 
oracle

>  <origin>  (80) 
adg

>  <m_score__min__energy>  (80) 
-5.0099999999999998

>  <m_primary>  (80) 
energy

$$$$
80:0
     RDKit          3D

 29 30  0  0  0  0  0  0  0  0999 V2000
  141.1950  160.4770  133.7140 N   0  0  0  0  0  0  0  0  0  0  0  0
  142.1380  159.7880  134.5310 C   0  0  0  0  0  0  0  0  0  0  0  0
  141.8190  159.4730  135.7090 O   0  0  0  0  0  0  0  0  0  0  0  0
  143.4990  159.4950  134.0370 C   0  0  0  0  0  0  0  0  0  0  0  0
  143.9670  158.2020  133.8100 C   0  0  0  0  0  0  0  0  0  0  0  0
  145.2880  158.3500  133.4530 C   0  0  0  0  0  0  0  0  0  0  0  0
  146.2360  157.3900  133.1130 C   0  0  0  0  0  0  0  0  0  0  0  0
  147.5230  157.8310  132.7630 C   0  0  0  0  0  0  0  0  0  0  0  0
  147.8330  159.2130  132.7460 C   0  0  0  0  0  0  0  0  0  0  0  0
  149.2230  159.6750  132.3890 C   0  0  0  0  0  0  0  0  0  0  0  0
  149.5750  159.3470  130.9330 C   0  0  0  0  0  0  0  0  0  0  0  0
  149.6990  160.5870  130.1010 C   0  0  0  0  0  0  0  0  0  0  0  0
  149.9810  160.5020  128.8770 O   0  0  0  0  0  0  0  0  0  0  0  0
  149.5460  161.8360  130.6870 O   0  0  0  0  0  0  0  0  0  0  0  0
  146.8460  160.1590  133.1050 C   0  0  0  0  0  0  0  0  0  0  0  0
  145.5780  159.6910  133.4670 C   0  0  0  0  0  0  0  0  0  0  0  0
  144.4890  160.4080  133.8210 N   0  0  0  0  0  0  0  0  0  0  0  0
  144.3830  161.8400  133.8580 C   0  0  0  0  0  0  0  0  0  0  0  0
  143.3490  162.4130  133.4230 O   0  0  0  0  0  0  0  0  0  0  0  0
  145.4080  162.6050  134.4010 O   0  0  0  0  0  0  0  0  0  0  0  0
  141.4180  161.4120  133.3080 H   0  0  0  0  0  0  0  0  0  0  0  0
  143.4010  157.2629  133.8975 H   0  0  0  0  0  0  0  0  0  0  0  0
  145.9854  156.3189  133.1181 H   0  0  0  0  0  0  0  0  0  0  0  0
  148.2977  157.0958  132.4995 H   0  0  0  0  0  0  0  0  0  0  0  0
  149.2847  160.7637  132.5338 H   0  0  0  0  0  0  0  0  0  0  0  0
  149.9364  159.1489  133.0404 H   0  0  0  0  0  0  0  0  0  0  0  0
  150.5322  158.8054  130.9108 H   0  0  0  0  0  0  0  0  0  0  0  0
  148.7648  158.7321  130.5141 H   0  0  0  0  0  0  0  0  0  0  0  0
  147.0691  161.2361  133.0999 H   0  0  0  0  0  0  0  0  0  0  0  0
  1  2  1  0
  2  3  2  0
  2  4  1  0
  4  5  2  0
  5  6  1  0
  6  7  2  0
  7  8  1  0
  8  9  2  0
  9 10  1  0
 10 11  1  0
 11 12  1  0
 12 13  2  0
 12 14  1  0
  9 15  1  0
 15 16  2  0
 16 17  1  0
 17 18  1  0
 18 19  2  0
 18 20  1  0
 17  4  1  0
 16  6  1  0
  1 21  1  0
  5 22  1  0
  7 23  1  0
  8 24  1  0
 10 25  1  0
 10 26  1  0
 11 27  1  0
 11 28  1  0
 15 29  1  0
M  CHG  3   1  -1  14  -1  20  -1
M  END
>  <UniqueID>  (81) 
80

>  <SMILES>  (81) 
[NH-]C(=O)c1cc2ccc(CCC(=O)[O-])cc2n1C(=O)[O-]

>  <Energy>  (81) 
65.90992558407868

>  <Genealogy>  (81) 
[NH-]C(=O)c1cc2ccc(CCC(=O)[O-])cc2n1C(=O)[O-] (protonated)
[NH-]C(=O)c1cc2ccc(CCC(=O)[O-])cc2n1C(=O)[O-] (3D coordinates assigned)
[NH-]C(=O)c1cc2ccc(CCC(=O)[O-])cc2n1C(=O)[O-] (optimized conformer: 65.90992558407868 kcal/mol)

>  <smiles>  (81) 
NC(=O)c1cc2ccc(CCC(=O)O)cc2n1C(=O)O

>  <score_type>  (81) 
oracle

>  <origin>  (81) 
adg

>  <m_score__min__energy>  (81) 
-6.6299999999999999

>  <m_primary>  (81) 
energy

$$$$
81:0
     RDKit          3D

 46 48  0  0  0  0  0  0  0  0999 V2000
  141.7240  157.7780  135.8910 C   0  0  0  0  0  0  0  0  0  0  0  0
  142.0400  156.5870  134.9930 C   0  0  0  0  0  0  0  0  0  0  0  0
  143.3150  156.7490  134.3740 O   0  0  0  0  0  0  0  0  0  0  0  0
  143.5150  157.4910  133.2040 C   0  0  0  0  0  0  0  0  0  0  0  0
  142.9220  157.1750  132.1380 O   0  0  0  0  0  0  0  0  0  0  0  0
  144.4180  158.6090  133.2160 N   0  0  0  0  0  0  0  0  0  0  0  0
  144.1070  159.9280  133.3650 C   0  0  0  0  0  0  0  0  0  0  0  0
  142.7470  160.5040  133.3670 C   0  0  0  0  0  0  0  0  0  0  0  0
  141.6260  159.7410  132.9320 N   0  0  0  0  0  0  0  0  0  0  0  0
  142.5790  161.7050  133.7120 O   0  0  0  0  0  0  0  0  0  0  0  0
  145.2660  160.6970  133.4360 C   0  0  0  0  0  0  0  0  0  0  0  0
  146.3050  159.8020  133.3170 C   0  0  0  0  0  0  0  0  0  0  0  0
  147.6780  160.0180  133.3370 C   0  0  0  0  0  0  0  0  0  0  0  0
  148.5240  158.9020  133.2290 C   0  0  0  0  0  0  0  0  0  0  0  0
  147.9890  157.5900  133.1060 C   0  0  0  0  0  0  0  0  0  0  0  0
  148.8270  156.4160  133.0160 N   0  0  0  0  0  0  0  0  0  0  0  0
  148.3990  155.0560  132.6530 C   0  0  1  0  0  0  0  0  0  0  0  0
  149.6130  154.1160  132.5860 C   0  0  0  0  0  0  0  0  0  0  0  0
  147.2400  154.5900  133.5250 C   0  0  0  0  0  0  0  0  0  0  0  0
  145.9810  154.2300  132.9970 C   0  0  0  0  0  0  0  0  0  0  0  0
  144.9450  153.8270  133.8440 C   0  0  0  0  0  0  0  0  0  0  0  0
  145.1390  153.7920  135.2260 C   0  0  0  0  0  0  0  0  0  0  0  0
  144.1290  153.4010  136.0410 F   0  0  0  0  0  0  0  0  0  0  0  0
  146.3720  154.1650  135.7650 C   0  0  0  0  0  0  0  0  0  0  0  0
  146.5610  154.1420  137.1080 F   0  0  0  0  0  0  0  0  0  0  0  0
  147.4120  154.5690  134.9220 C   0  0  0  0  0  0  0  0  0  0  0  0
  146.5860  157.4190  133.0960 C   0  0  0  0  0  0  0  0  0  0  0  0
  145.7680  158.5500  133.1860 C   0  0  0  0  0  0  0  0  0  0  0  0
  141.8047  157.4740  136.9451 H   0  0  0  0  0  0  0  0  0  0  0  0
  142.4378  158.5899  135.6879 H   0  0  0  0  0  0  0  0  0  0  0  0
  140.7016  158.1293  135.6879 H   0  0  0  0  0  0  0  0  0  0  0  0
  142.0464  155.6690  135.5990 H   0  0  0  0  0  0  0  0  0  0  0  0
  141.2712  156.5202  134.2091 H   0  0  0  0  0  0  0  0  0  0  0  0
  141.7310  158.9950  132.2080 H   0  0  0  0  0  0  0  0  0  0  0  0
  145.3362  161.7877  133.5607 H   0  0  0  0  0  0  0  0  0  0  0  0
  148.0899  161.0333  133.4346 H   0  0  0  0  0  0  0  0  0  0  0  0
  149.6147  159.0446  133.2397 H   0  0  0  0  0  0  0  0  0  0  0  0
  149.8390  156.5300  133.2530 H   0  0  0  0  0  0  0  0  0  0  0  0
  147.9794  155.0470  131.6362 H   0  0  0  0  0  0  0  0  0  0  0  0
  149.9384  153.8640  133.6061 H   0  0  0  0  0  0  0  0  0  0  0  0
  149.3349  153.1954  132.0520 H   0  0  0  0  0  0  0  0  0  0  0  0
  150.4346  154.6157  132.0520 H   0  0  0  0  0  0  0  0  0  0  0  0
  145.8142  154.2670  131.9103 H   0  0  0  0  0  0  0  0  0  0  0  0
  143.9726  153.5361  133.4199 H   0  0  0  0  0  0  0  0  0  0  0  0
  148.3758  154.8740  135.3556 H   0  0  0  0  0  0  0  0  0  0  0  0
  146.1452  156.4142  133.0188 H   0  0  0  0  0  0  0  0  0  0  0  0
  1  2  1  0
  2  3  1  0
  3  4  1  0
  4  5  2  0
  4  6  1  0
  6  7  1  0
  7  8  1  0
  8  9  1  0
  8 10  2  0
  7 11  2  0
 11 12  1  0
 12 13  2  0
 13 14  1  0
 14 15  2  0
 15 16  1  0
 16 17  1  0
 17 18  1  0
 17 19  1  0
 19 20  2  0
 20 21  1  0
 21 22  2  0
 22 23  1  0
 22 24  1  0
 24 25  1  0
 24 26  2  0
 15 27  1  0
 27 28  2  0
 28  6  1  0
 28 12  1  0
 26 19  1  0
  1 29  1  0
  1 30  1  0
  1 31  1  0
  2 32  1  0
  2 33  1  0
  9 34  1  0
 11 35  1  0
 13 36  1  0
 14 37  1  0
 16 38  1  0
 17 39  1  6
 18 40  1  0
 18 41  1  0
 18 42  1  0
 20 43  1  0
 21 44  1  0
 26 45  1  0
 27 46  1  0
M  CHG  1   9  -1
M  END
>  <UniqueID>  (82) 
81

>  <SMILES>  (82) 
CCOC(=O)n1c(C([NH-])=O)cc2ccc(N[C@@H](C)c3ccc(F)c(F)c3)cc21

>  <Energy>  (82) 
87.03170006114297

>  <Genealogy>  (82) 
CCOC(=O)n1c(C([NH-])=O)cc2ccc(NC(C)c3ccc(F)c(F)c3)cc21 (protonated)
CCOC(=O)n1c(C([NH-])=O)cc2ccc(N[C@@H](C)c3ccc(F)c(F)c3)cc21 (chirality)
CCOC(=O)n1c(C([NH-])=O)cc2ccc(N[C@@H](C)c3ccc(F)c(F)c3)cc21 (3D coordinates assigned)
CCOC(=O)n1c(C([NH-])=O)cc2ccc(N[C@@H](C)c3ccc(F)c(F)c3)cc21 (optimized conformer: 87.03170006114297 kcal/mol)

>  <smiles>  (82) 
CCOC(=O)n1c(C(N)=O)cc2ccc(NC(C)c3ccc(F)c(F)c3)cc21

>  <score_type>  (82) 
oracle

>  <origin>  (82) 
adg

>  <m_score__min__energy>  (82) 
-8.2300000000000004

>  <m_primary>  (82) 
energy

$$$$
82:0
     RDKit          3D

 39 40  0  0  0  0  0  0  0  0999 V2000
  140.6380  152.8390  132.9690 C   0  0  0  0  0  0  0  0  0  0  0  0
  140.6900  153.9990  133.7900 O   0  0  0  0  0  0  0  0  0  0  0  0
  139.9950  155.1730  133.4820 C   0  0  0  0  0  0  0  0  0  0  0  0
  138.8430  155.1180  132.9690 O   0  0  0  0  0  0  0  0  0  0  0  0
  140.6270  156.5100  133.7560 C   0  0  1  0  0  0  0  0  0  0  0  0
  139.9520  157.1700  134.9610 C   0  0  0  0  0  0  0  0  0  0  0  0
  142.0650  156.3440  134.0070 N   0  0  0  0  0  0  0  0  0  0  0  0
  143.0630  157.3560  133.7620 C   0  0  0  0  0  0  0  0  0  0  0  0
  142.6620  158.7160  133.7240 C   0  0  0  0  0  0  0  0  0  0  0  0
  143.5910  159.7400  133.4790 C   0  0  0  0  0  0  0  0  0  0  0  0
  144.9190  159.3800  133.2840 C   0  0  0  0  0  0  0  0  0  0  0  0
  146.0160  160.1610  133.0010 C   0  0  0  0  0  0  0  0  0  0  0  0
  147.0830  159.2730  132.8970 C   0  0  0  0  0  0  0  0  0  0  0  0
  148.4790  159.6990  132.6690 C   0  0  0  0  0  0  0  0  0  0  0  0
  149.5730  158.9820  133.2390 N   0  0  0  0  0  0  0  0  0  0  0  0
  148.7040  160.7450  132.0030 O   0  0  0  0  0  0  0  0  0  0  0  0
  146.6620  157.9920  133.0900 N   0  0  0  0  0  0  0  0  0  0  0  0
  147.4200  156.7790  132.9500 C   0  0  0  0  0  0  0  0  0  0  0  0
  146.9700  155.6900  132.0260 C   0  0  0  0  0  0  0  0  0  0  0  0
  148.4690  156.6120  133.6280 O   0  0  0  0  0  0  0  0  0  0  0  0
  145.3350  158.0750  133.3330 C   0  0  0  0  0  0  0  0  0  0  0  0
  144.4290  157.0330  133.5570 C   0  0  0  0  0  0  0  0  0  0  0  0
  140.5978  151.9418  133.6041 H   0  0  0  0  0  0  0  0  0  0  0  0
  139.7408  152.8792  132.3339 H   0  0  0  0  0  0  0  0  0  0  0  0
  141.5352  152.7988  132.3339 H   0  0  0  0  0  0  0  0  0  0  0  0
  140.4937  157.1570  132.8765 H   0  0  0  0  0  0  0  0  0  0  0  0
  140.3740  156.7573  135.8892 H   0  0  0  0  0  0  0  0  0  0  0  0
  140.1264  158.2556  134.9298 H   0  0  0  0  0  0  0  0  0  0  0  0
  138.8705  156.9713  134.9298 H   0  0  0  0  0  0  0  0  0  0  0  0
  142.3890  155.4440  134.4300 H   0  0  0  0  0  0  0  0  0  0  0  0
  141.6053  158.9729  133.8893 H   0  0  0  0  0  0  0  0  0  0  0  0
  143.2775  160.7938  133.4426 H   0  0  0  0  0  0  0  0  0  0  0  0
  146.0439  161.2542  132.8823 H   0  0  0  0  0  0  0  0  0  0  0  0
  150.5550  159.2720  133.0300 H   0  0  0  0  0  0  0  0  0  0  0  0
  149.4160  158.2160  133.9300 H   0  0  0  0  0  0  0  0  0  0  0  0
  146.6154  154.8319  132.6158 H   0  0  0  0  0  0  0  0  0  0  0  0
  146.1519  156.0621  131.3917 H   0  0  0  0  0  0  0  0  0  0  0  0
  147.8121  155.3761  131.3917 H   0  0  0  0  0  0  0  0  0  0  0  0
  144.7682  155.9867  133.5738 H   0  0  0  0  0  0  0  0  0  0  0  0
  1  2  1  0
  2  3  1  0
  3  4  2  0
  3  5  1  0
  5  6  1  0
  5  7  1  0
  7  8  1  0
  8  9  2  0
  9 10  1  0
 10 11  2  0
 11 12  1  0
 12 13  2  0
 13 14  1  0
 14 15  1  0
 14 16  2  0
 13 17  1  0
 17 18  1  0
 18 19  1  0
 18 20  2  0
 17 21  1  0
 21 22  2  0
 22  8  1  0
 21 11  1  0
  1 23  1  0
  1 24  1  0
  1 25  1  0
  5 26  1  6
  6 27  1  0
  6 28  1  0
  6 29  1  0
  7 30  1  0
  9 31  1  0
 10 32  1  0
 12 33  1  0
 15 34  1  0
 15 35  1  0
 19 36  1  0
 19 37  1  0
 19 38  1  0
 22 39  1  0
M  END
>  <UniqueID>  (83) 
82

>  <SMILES>  (83) 
COC(=O)[C@@H](C)Nc1ccc2cc(C(N)=O)n(C(C)=O)c2c1

>  <Energy>  (83) 
73.99270670667337

>  <Genealogy>  (83) 
COC(=O)[C@@H](C)Nc1ccc2cc(C(N)=O)n(C(C)=O)c2c1 (chirality)
COC(=O)[C@@H](C)Nc1ccc2cc(C(N)=O)n(C(C)=O)c2c1 (3D coordinates assigned)
COC(=O)[C@@H](C)Nc1ccc2cc(C(N)=O)n(C(C)=O)c2c1 (optimized conformer: 73.99270670667337 kcal/mol)

>  <smiles>  (83) 
COC(=O)C(C)Nc1ccc2cc(C(N)=O)n(C(C)=O)c2c1

>  <score_type>  (83) 
oracle

>  <origin>  (83) 
adg

>  <m_score__min__energy>  (83) 
-6.5

>  <m_primary>  (83) 
energy

$$$$
83:0
     RDKit          3D

 32 33  0  0  0  0  0  0  0  0999 V2000
  140.9760  152.6920  132.9960 C   0  0  0  0  0  0  0  0  0  0  0  0
  141.4780  154.0950  133.3170 C   0  0  0  0  0  0  0  0  0  0  0  0
  140.4350  154.8830  133.8900 O   0  0  0  0  0  0  0  0  0  0  0  0
  139.8590  155.9850  133.2470 C   0  0  0  0  0  0  0  0  0  0  0  0
  139.1040  155.8180  132.2510 O   0  0  0  0  0  0  0  0  0  0  0  0
  140.1150  157.3110  133.7380 N   0  0  0  0  0  0  0  0  0  0  0  0
  139.9410  158.4910  133.0780 C   0  0  0  0  0  0  0  0  0  0  0  0
  139.5800  158.6320  131.6500 C   0  0  0  0  0  0  0  0  0  0  0  0
  138.3650  158.0750  131.1450 N   0  0  0  0  0  0  0  0  0  0  0  0
  140.3300  159.2750  130.8690 O   0  0  0  0  0  0  0  0  0  0  0  0
  140.2420  159.5650  133.9140 C   0  0  0  0  0  0  0  0  0  0  0  0
  140.6120  159.0020  135.1130 C   0  0  0  0  0  0  0  0  0  0  0  0
  140.9950  159.6090  136.3050 C   0  0  0  0  0  0  0  0  0  0  0  0
  141.2910  158.7820  137.4010 C   0  0  0  0  0  0  0  0  0  0  0  0
  141.2140  157.3700  137.2850 C   0  0  0  0  0  0  0  0  0  0  0  0
  141.4740  156.4950  138.4850 C   0  0  0  0  0  0  0  0  0  0  0  0
  141.9460  157.2490  139.5460 F   0  0  0  0  0  0  0  0  0  0  0  0
  140.3130  155.8600  138.8890 F   0  0  0  0  0  0  0  0  0  0  0  0
  142.4180  155.5400  138.1560 F   0  0  0  0  0  0  0  0  0  0  0  0
  140.7990  156.7920  136.0630 C   0  0  0  0  0  0  0  0  0  0  0  0
  140.5280  157.6410  134.9830 C   0  0  0  0  0  0  0  0  0  0  0  0
  140.7817  152.1489  133.9326 H   0  0  0  0  0  0  0  0  0  0  0  0
  140.0464  152.7599  132.4119 H   0  0  0  0  0  0  0  0  0  0  0  0
  141.7377  152.1548  132.4119 H   0  0  0  0  0  0  0  0  0  0  0  0
  142.3124  154.0259  134.0304 H   0  0  0  0  0  0  0  0  0  0  0  0
  141.8128  154.5737  132.3849 H   0  0  0  0  0  0  0  0  0  0  0  0
  137.7450  157.4900  131.7470 H   0  0  0  0  0  0  0  0  0  0  0  0
  138.1000  158.2150  130.1450 H   0  0  0  0  0  0  0  0  0  0  0  0
  140.1938  160.6358  133.6671 H   0  0  0  0  0  0  0  0  0  0  0  0
  141.0639  160.7038  136.3866 H   0  0  0  0  0  0  0  0  0  0  0  0
  141.5857  159.2339  138.3596 H   0  0  0  0  0  0  0  0  0  0  0  0
  140.6916  155.7018  135.9633 H   0  0  0  0  0  0  0  0  0  0  0  0
  1  2  1  0
  2  3  1  0
  3  4  1  0
  4  5  2  0
  4  6  1  0
  6  7  1  0
  7  8  1  0
  8  9  1  0
  8 10  2  0
  7 11  2  0
 11 12  1  0
 12 13  2  0
 13 14  1  0
 14 15  2  0
 15 16  1  0
 16 17  1  0
 16 18  1  0
 16 19  1  0
 15 20  1  0
 20 21  2  0
 21  6  1  0
 21 12  1  0
  1 22  1  0
  1 23  1  0
  1 24  1  0
  2 25  1  0
  2 26  1  0
  9 27  1  0
  9 28  1  0
 11 29  1  0
 13 30  1  0
 14 31  1  0
 20 32  1  0
M  END
>  <UniqueID>  (84) 
83

>  <SMILES>  (84) 
CCOC(=O)n1c(C(N)=O)cc2ccc(C(F)(F)F)cc21

>  <Energy>  (84) 
67.43016493699145

>  <Genealogy>  (84) 
CCOC(=O)n1c(C(N)=O)cc2ccc(C(F)(F)F)cc21 (3D coordinates assigned)
CCOC(=O)n1c(C(N)=O)cc2ccc(C(F)(F)F)cc21 (optimized conformer: 67.43016493699145 kcal/mol)

>  <smiles>  (84) 
CCOC(=O)n1c(C(N)=O)cc2ccc(C(F)(F)F)cc21

>  <score_type>  (84) 
oracle

>  <origin>  (84) 
adg

>  <m_score__min__energy>  (84) 
-5.9800000000000004

>  <m_primary>  (84) 
energy

$$$$
84:0
     RDKit          3D

 28 29  0  0  0  0  0  0  0  0999 V2000
  145.8040  162.5960  134.4840 C   0  0  0  0  0  0  0  0  0  0  0  0
  144.7220  161.8150  133.8080 C   0  0  0  0  0  0  0  0  0  0  0  0
  143.7140  162.4250  133.3610 O   0  0  0  0  0  0  0  0  0  0  0  0
  144.8230  160.3910  133.6460 N   0  0  0  0  0  0  0  0  0  0  0  0
  143.8930  159.4570  133.9900 C   0  0  0  0  0  0  0  0  0  0  0  0
  142.5230  159.7370  134.4690 C   0  0  0  0  0  0  0  0  0  0  0  0
  141.7090  160.7330  133.8490 N   0  0  0  0  0  0  0  0  0  0  0  0
  142.0480  159.0530  135.4140 O   0  0  0  0  0  0  0  0  0  0  0  0
  144.3970  158.1710  133.8130 C   0  0  0  0  0  0  0  0  0  0  0  0
  145.6770  158.3450  133.3390 C   0  0  0  0  0  0  0  0  0  0  0  0
  146.6490  157.4000  133.0230 C   0  0  0  0  0  0  0  0  0  0  0  0
  147.9090  157.8630  132.6120 C   0  0  0  0  0  0  0  0  0  0  0  0
  148.1740  159.2530  132.5250 C   0  0  0  0  0  0  0  0  0  0  0  0
  149.5400  159.7350  132.1370 C   0  0  0  0  0  0  0  0  0  0  0  0
  149.5410  160.2790  130.2800 Br  0  0  0  0  0  0  0  0  0  0  0  0
  147.1680  160.1830  132.8700 C   0  0  0  0  0  0  0  0  0  0  0  0
  145.9130  159.6940  133.2510 C   0  0  0  0  0  0  0  0  0  0  0  0
  145.6892  162.5131  135.5748 H   0  0  0  0  0  0  0  0  0  0  0  0
  146.7849  162.1963  134.1871 H   0  0  0  0  0  0  0  0  0  0  0  0
  145.7336  163.6528  134.1871 H   0  0  0  0  0  0  0  0  0  0  0  0
  140.7650  160.9510  134.2370 H   0  0  0  0  0  0  0  0  0  0  0  0
  141.9940  161.1850  132.9520 H   0  0  0  0  0  0  0  0  0  0  0  0
  143.8819  157.2193  134.0100 H   0  0  0  0  0  0  0  0  0  0  0  0
  146.4363  156.3230  133.0932 H   0  0  0  0  0  0  0  0  0  0  0  0
  148.6978  157.1407  132.3551 H   0  0  0  0  0  0  0  0  0  0  0  0
  149.8179  160.5917  132.7685 H   0  0  0  0  0  0  0  0  0  0  0  0
  150.2657  158.9202  132.2769 H   0  0  0  0  0  0  0  0  0  0  0  0
  147.3661  161.2646  132.8399 H   0  0  0  0  0  0  0  0  0  0  0  0
  1  2  1  0
  2  3  2  0
  2  4  1  0
  4  5  1  0
  5  6  1  0
  6  7  1  0
  6  8  2  0
  5  9  2  0
  9 10  1  0
 10 11  2  0
 11 12  1  0
 12 13  2  0
 13 14  1  0
 14 15  1  0
 13 16  1  0
 16 17  2  0
 17  4  1  0
 17 10  1  0
  1 18  1  0
  1 19  1  0
  1 20  1  0
  7 21  1  0
  7 22  1  0
  9 23  1  0
 11 24  1  0
 12 25  1  0
 14 26  1  0
 14 27  1  0
 16 28  1  0
M  END
>  <UniqueID>  (85) 
84

>  <SMILES>  (85) 
CC(=O)n1c(C(N)=O)cc2ccc(CBr)cc21

>  <Energy>  (85) 
66.40197562162427

>  <Genealogy>  (85) 
CC(=O)n1c(C(N)=O)cc2ccc(CBr)cc21 (3D coordinates assigned)
CC(=O)n1c(C(N)=O)cc2ccc(CBr)cc21 (optimized conformer: 66.40197562162427 kcal/mol)

>  <smiles>  (85) 
CC(=O)n1c(C(N)=O)cc2ccc(CBr)cc21

>  <score_type>  (85) 
oracle

>  <origin>  (85) 
adg

>  <m_score__min__energy>  (85) 
-6.4800000000000004

>  <m_primary>  (85) 
energy

$$$$
85:0
     RDKit          3D

 35 37  0  0  0  0  0  0  0  0999 V2000
  148.1380  160.8390  132.6090 N   0  0  0  0  0  0  0  0  0  0  0  0
  147.6850  159.7870  133.4570 C   0  0  0  0  0  0  0  0  0  0  0  0
  148.5280  159.1230  134.1170 O   0  0  0  0  0  0  0  0  0  0  0  0
  146.2530  159.4300  133.5310 C   0  0  0  0  0  0  0  0  0  0  0  0
  145.7750  158.1400  133.3210 C   0  0  0  0  0  0  0  0  0  0  0  0
  144.4060  158.2430  133.3870 C   0  0  0  0  0  0  0  0  0  0  0  0
  143.4280  157.2620  133.2600 C   0  0  0  0  0  0  0  0  0  0  0  0
  142.0860  157.6490  133.4030 C   0  0  0  0  0  0  0  0  0  0  0  0
  141.7350  158.9980  133.6780 C   0  0  0  0  0  0  0  0  0  0  0  0
  140.2640  159.3660  133.8380 C   0  0  0  0  0  0  0  0  0  0  0  0
  139.6820  160.0840  132.5990 C   0  0  0  0  0  0  0  0  0  0  0  0
  139.0090  159.1240  131.6100 C   0  0  0  0  0  0  0  0  0  0  0  0
  138.0690  158.2990  132.2670 O   0  0  0  0  0  0  0  0  0  0  0  0
  138.7390  157.4180  133.1440 C   0  0  0  0  0  0  0  0  0  0  0  0
  139.3880  158.1820  134.3060 C   0  0  0  0  0  0  0  0  0  0  0  0
  142.7660  159.9620  133.8010 C   0  0  0  0  0  0  0  0  0  0  0  0
  144.0940  159.5530  133.6330 C   0  0  0  0  0  0  0  0  0  0  0  0
  145.2190  160.2980  133.7280 N   0  0  0  0  0  0  0  0  0  0  0  0
  145.2890  161.6940  134.0580 C   0  0  0  0  0  0  0  0  0  0  0  0
  146.3870  162.2150  134.3870 O   0  0  0  0  0  0  0  0  0  0  0  0
  144.1410  162.4770  134.0410 O   0  0  0  0  0  0  0  0  0  0  0  0
  147.6950  161.7840  132.6410 H   0  0  0  0  0  0  0  0  0  0  0  0
  146.3672  157.2308  133.1405 H   0  0  0  0  0  0  0  0  0  0  0  0
  143.6976  156.2156  133.0539 H   0  0  0  0  0  0  0  0  0  0  0  0
  141.2922  156.8944  133.3003 H   0  0  0  0  0  0  0  0  0  0  0  0
  140.2350  160.1014  134.6555 H   0  0  0  0  0  0  0  0  0  0  0  0
  138.9359  160.8179  132.9377 H   0  0  0  0  0  0  0  0  0  0  0  0
  140.5207  160.5633  132.0728 H   0  0  0  0  0  0  0  0  0  0  0  0
  138.4939  159.7094  130.8341 H   0  0  0  0  0  0  0  0  0  0  0  0
  139.7827  158.4848  131.1597 H   0  0  0  0  0  0  0  0  0  0  0  0
  138.0155  156.6952  133.5490 H   0  0  0  0  0  0  0  0  0  0  0  0
  139.5299  156.9000  132.5817 H   0  0  0  0  0  0  0  0  0  0  0  0
  138.5916  158.5715  134.9572 H   0  0  0  0  0  0  0  0  0  0  0  0
  140.0451  157.4769  134.8362 H   0  0  0  0  0  0  0  0  0  0  0  0
  142.5272  161.0123  134.0244 H   0  0  0  0  0  0  0  0  0  0  0  0
  1  2  1  0
  2  3  2  0
  2  4  1  0
  4  5  2  0
  5  6  1  0
  6  7  2  0
  7  8  1  0
  8  9  2  0
  9 10  1  0
 10 11  1  0
 11 12  1  0
 12 13  1  0
 13 14  1  0
 14 15  1  0
  9 16  1  0
 16 17  2  0
 17 18  1  0
 18 19  1  0
 19 20  2  0
 19 21  1  0
 18  4  1  0
 17  6  1  0
 15 10  1  0
  1 22  1  0
  5 23  1  0
  7 24  1  0
  8 25  1  0
 10 26  1  0
 11 27  1  0
 11 28  1  0
 12 29  1  0
 12 30  1  0
 14 31  1  0
 14 32  1  0
 15 33  1  0
 15 34  1  0
 16 35  1  0
M  CHG  2   1  -1  21  -1
M  END
>  <UniqueID>  (86) 
85

>  <SMILES>  (86) 
[NH-]C(=O)c1cc2ccc(C3CCOCC3)cc2n1C(=O)[O-]

>  <Energy>  (86) 
81.40094924879517

>  <Genealogy>  (86) 
[NH-]C(=O)c1cc2ccc(C3CCOCC3)cc2n1C(=O)[O-] (protonated)
[NH-]C(=O)c1cc2ccc(C3CCOCC3)cc2n1C(=O)[O-] (3D coordinates assigned)
[NH-]C(=O)c1cc2ccc(C3CCOCC3)cc2n1C(=O)[O-] (nonaromatic ring conformer: 81.40094924879517 kcal/mol)

>  <smiles>  (86) 
NC(=O)c1cc2ccc(C3CCOCC3)cc2n1C(=O)O

>  <score_type>  (86) 
oracle

>  <origin>  (86) 
adg

>  <m_score__min__energy>  (86) 
-7.0700000000000003

>  <m_primary>  (86) 
energy

$$$$
86:0
     RDKit          3D

 48 49  0  0  0  0  0  0  0  0999 V2000
  148.9140  153.9490  132.6390 C   0  0  0  0  0  0  0  0  0  0  0  0
  148.1100  154.5060  133.8030 C   0  0  0  0  0  0  0  0  0  0  0  0
  148.0600  155.9260  133.7070 O   0  0  0  0  0  0  0  0  0  0  0  0
  147.2830  156.5940  132.7570 C   0  0  0  0  0  0  0  0  0  0  0  0
  146.7980  155.9670  131.7760 O   0  0  0  0  0  0  0  0  0  0  0  0
  147.0130  157.9950  132.9180 N   0  0  0  0  0  0  0  0  0  0  0  0
  147.8230  159.0490  132.6140 C   0  0  0  0  0  0  0  0  0  0  0  0
  149.2320  158.9670  132.1780 C   0  0  0  0  0  0  0  0  0  0  0  0
  149.9420  157.7310  132.2180 N   0  0  0  0  0  0  0  0  0  0  0  0
  149.8330  160.0110  131.8110 O   0  0  0  0  0  0  0  0  0  0  0  0
  147.1670  160.2550  132.8570 C   0  0  0  0  0  0  0  0  0  0  0  0
  145.9230  159.9050  133.3330 C   0  0  0  0  0  0  0  0  0  0  0  0
  144.8630  160.7080  133.7400 C   0  0  0  0  0  0  0  0  0  0  0  0
  143.6880  160.0730  134.1780 C   0  0  0  0  0  0  0  0  0  0  0  0
  143.5890  158.6590  134.1820 C   0  0  0  0  0  0  0  0  0  0  0  0
  142.3290  157.9930  134.6780 C   0  0  0  0  0  0  0  0  0  0  0  0
  141.2450  159.0280  135.0690 C   0  0  2  0  0  0  0  0  0  0  0  0
  140.7600  158.7520  136.4730 C   0  0  0  0  0  0  0  0  0  0  0  0
  141.2920  159.3290  137.4600 O   0  0  0  0  0  0  0  0  0  0  0  0
  139.7120  157.8650  136.6830 O   0  0  0  0  0  0  0  0  0  0  0  0
  140.0420  159.0460  134.0700 C   0  0  1  0  0  0  0  0  0  0  0  0
  140.3720  159.8740  132.8110 C   0  0  0  0  0  0  0  0  0  0  0  0
  139.5230  157.6390  133.6650 C   0  0  0  0  0  0  0  0  0  0  0  0
  139.1070  157.5110  132.1970 C   0  0  0  0  0  0  0  0  0  0  0  0
  144.6880  157.8780  133.7640 C   0  0  0  0  0  0  0  0  0  0  0  0
  145.8560  158.5360  133.3580 C   0  0  0  0  0  0  0  0  0  0  0  0
  149.7606  153.3625  133.0255 H   0  0  0  0  0  0  0  0  0  0  0  0
  148.2701  153.3025  132.0247 H   0  0  0  0  0  0  0  0  0  0  0  0
  149.2930  154.7790  132.0247 H   0  0  0  0  0  0  0  0  0  0  0  0
  147.0882  154.0998  133.7709 H   0  0  0  0  0  0  0  0  0  0  0  0
  148.5884  154.2185  134.7509 H   0  0  0  0  0  0  0  0  0  0  0  0
  149.7900  157.0490  132.9950 H   0  0  0  0  0  0  0  0  0  0  0  0
  147.5598  161.2707  132.7015 H   0  0  0  0  0  0  0  0  0  0  0  0
  144.9416  161.8050  133.7198 H   0  0  0  0  0  0  0  0  0  0  0  0
  142.8368  160.6794  134.5211 H   0  0  0  0  0  0  0  0  0  0  0  0
  141.9320  157.3454  133.8824 H   0  0  0  0  0  0  0  0  0  0  0  0
  142.5822  157.4087  135.5749 H   0  0  0  0  0  0  0  0  0  0  0  0
  141.7085  160.0245  135.0238 H   0  0  0  0  0  0  0  0  0  0  0  0
  139.2219  159.5268  134.6235 H   0  0  0  0  0  0  0  0  0  0  0  0
  140.7638  160.8571  133.1110 H   0  0  0  0  0  0  0  0  0  0  0  0
  141.1281  159.3451  132.2121 H   0  0  0  0  0  0  0  0  0  0  0  0
  139.4594  160.0102  132.2121 H   0  0  0  0  0  0  0  0  0  0  0  0
  140.3226  156.9092  133.8598 H   0  0  0  0  0  0  0  0  0  0  0  0
  138.6175  157.4570  134.2625 H   0  0  0  0  0  0  0  0  0  0  0  0
  138.0570  157.1879  132.1403 H   0  0  0  0  0  0  0  0  0  0  0  0
  139.2184  158.4850  131.6981 H   0  0  0  0  0  0  0  0  0  0  0  0
  139.7467  156.7681  131.6981 H   0  0  0  0  0  0  0  0  0  0  0  0
  144.6287  156.7796  133.7573 H   0  0  0  0  0  0  0  0  0  0  0  0
  1  2  1  0
  2  3  1  0
  3  4  1  0
  4  5  2  0
  4  6  1  0
  6  7  1  0
  7  8  1  0
  8  9  1  0
  8 10  2  0
  7 11  2  0
 11 12  1  0
 12 13  2  0
 13 14  1  0
 14 15  2  0
 15 16  1  0
 16 17  1  0
 17 18  1  0
 18 19  2  0
 18 20  1  0
 17 21  1  0
 21 22  1  0
 21 23  1  0
 23 24  1  0
 15 25  1  0
 25 26  2  0
 26  6  1  0
 26 12  1  0
  1 27  1  0
  1 28  1  0
  1 29  1  0
  2 30  1  0
  2 31  1  0
  9 32  1  0
 11 33  1  0
 13 34  1  0
 14 35  1  0
 16 36  1  0
 16 37  1  0
 17 38  1  1
 21 39  1  1
 22 40  1  0
 22 41  1  0
 22 42  1  0
 23 43  1  0
 23 44  1  0
 24 45  1  0
 24 46  1  0
 24 47  1  0
 25 48  1  0
M  CHG  2   9  -1  20  -1
M  END
>  <UniqueID>  (87) 
86

>  <SMILES>  (87) 
CCOC(=O)n1c(C([NH-])=O)cc2ccc(C[C@H](C(=O)[O-])[C@@H](C)CC)cc21

>  <Energy>  (87) 
76.82400833259209

>  <Genealogy>  (87) 
CCOC(=O)n1c(C([NH-])=O)cc2ccc(C[C@H](C(=O)[O-])[C@@H](C)CC)cc21 (protonated)
CCOC(=O)n1c(C([NH-])=O)cc2ccc(C[C@H](C(=O)[O-])[C@@H](C)CC)cc21 (3D coordinates assigned)
CCOC(=O)n1c(C([NH-])=O)cc2ccc(C[C@H](C(=O)[O-])[C@@H](C)CC)cc21 (optimized conformer: 76.82400833259209 kcal/mol)

>  <smiles>  (87) 
CCOC(=O)n1c(C(N)=O)cc2ccc(C[C@H](C(=O)O)[C@@H](C)CC)cc21

>  <score_type>  (87) 
oracle

>  <origin>  (87) 
adg

>  <m_score__min__energy>  (87) 
-7.5199999999999996

>  <m_primary>  (87) 
energy

$$$$
87:0
     RDKit          3D

 41 43  0  0  0  0  0  0  0  0999 V2000
  144.0390  154.4270  132.2400 C   0  0  0  0  0  0  0  0  0  0  0  0
  142.8020  154.0200  133.0240 C   0  0  0  0  0  0  0  0  0  0  0  0
  142.4030  155.0910  133.8720 O   0  0  0  0  0  0  0  0  0  0  0  0
  141.3910  155.9910  133.5300 C   0  0  0  0  0  0  0  0  0  0  0  0
  140.3430  155.5810  132.9600 O   0  0  0  0  0  0  0  0  0  0  0  0
  141.5490  157.3890  133.8280 N   0  0  0  0  0  0  0  0  0  0  0  0
  140.5650  158.2820  134.1300 C   0  0  0  0  0  0  0  0  0  0  0  0
  139.1480  157.9550  134.3820 C   0  0  0  0  0  0  0  0  0  0  0  0
  138.3500  157.3110  133.3880 N   0  0  0  0  0  0  0  0  0  0  0  0
  138.6470  158.2010  135.5120 O   0  0  0  0  0  0  0  0  0  0  0  0
  141.0810  159.5720  134.2220 C   0  0  0  0  0  0  0  0  0  0  0  0
  142.4280  159.4420  133.9760 C   0  0  0  0  0  0  0  0  0  0  0  0
  143.4240  160.4130  133.9280 C   0  0  0  0  0  0  0  0  0  0  0  0
  144.7290  160.0020  133.6130 C   0  0  0  0  0  0  0  0  0  0  0  0
  145.0150  158.6390  133.3390 C   0  0  0  0  0  0  0  0  0  0  0  0
  146.3960  158.2230  132.9990 C   0  0  0  0  0  0  0  0  0  0  0  0
  146.8940  157.0040  133.4860 C   0  0  0  0  0  0  0  0  0  0  0  0
  148.1880  156.5920  133.1710 C   0  0  0  0  0  0  0  0  0  0  0  0
  148.6560  155.4090  133.6410 F   0  0  0  0  0  0  0  0  0  0  0  0
  149.0030  157.3930  132.3690 C   0  0  0  0  0  0  0  0  0  0  0  0
  148.5340  158.6220  131.8720 C   0  0  0  0  0  0  0  0  0  0  0  0
  149.4210  159.4610  131.0260 C   0  0  0  0  0  0  0  0  0  0  0  0
  150.2240  160.2740  131.5550 O   0  0  0  0  0  0  0  0  0  0  0  0
  149.3840  159.3650  129.6400 O   0  0  0  0  0  0  0  0  0  0  0  0
  147.2230  159.0360  132.1960 C   0  0  0  0  0  0  0  0  0  0  0  0
  146.7590  160.2380  131.7670 F   0  0  0  0  0  0  0  0  0  0  0  0
  143.9760  157.6820  133.4020 C   0  0  0  0  0  0  0  0  0  0  0  0
  142.6870  158.1150  133.7380 C   0  0  0  0  0  0  0  0  0  0  0  0
  144.8455  154.6924  132.9394 H   0  0  0  0  0  0  0  0  0  0  0  0
  144.3640  153.5884  131.6066 H   0  0  0  0  0  0  0  0  0  0  0  0
  143.8026  155.2947  131.6066 H   0  0  0  0  0  0  0  0  0  0  0  0
  141.9866  153.7828  132.3248 H   0  0  0  0  0  0  0  0  0  0  0  0
  143.0307  153.1346  133.6353 H   0  0  0  0  0  0  0  0  0  0  0  0
  137.3370  157.1280  133.5660 H   0  0  0  0  0  0  0  0  0  0  0  0
  138.7750  156.9440  132.5080 H   0  0  0  0  0  0  0  0  0  0  0  0
  140.5292  160.4974  134.4440 H   0  0  0  0  0  0  0  0  0  0  0  0
  143.1958  161.4698  134.1306 H   0  0  0  0  0  0  0  0  0  0  0  0
  145.5394  160.7450  133.5782 H   0  0  0  0  0  0  0  0  0  0  0  0
  146.2584  156.3693  134.1209 H   0  0  0  0  0  0  0  0  0  0  0  0
  150.0221  157.0595  132.1235 H   0  0  0  0  0  0  0  0  0  0  0  0
  144.1756  156.6209  133.1918 H   0  0  0  0  0  0  0  0  0  0  0  0
  1  2  1  0
  2  3  1  0
  3  4  1  0
  4  5  2  0
  4  6  1  0
  6  7  1  0
  7  8  1  0
  8  9  1  0
  8 10  2  0
  7 11  2  0
 11 12  1  0
 12 13  2  0
 13 14  1  0
 14 15  2  0
 15 16  1  0
 16 17  2  0
 17 18  1  0
 18 19  1  0
 18 20  2  0
 20 21  1  0
 21 22  1  0
 22 23  2  0
 22 24  1  0
 21 25  2  0
 25 26  1  0
 15 27  1  0
 27 28  2  0
 28  6  1  0
 28 12  1  0
 25 16  1  0
  1 29  1  0
  1 30  1  0
  1 31  1  0
  2 32  1  0
  2 33  1  0
  9 34  1  0
  9 35  1  0
 11 36  1  0
 13 37  1  0
 14 38  1  0
 17 39  1  0
 20 40  1  0
 27 41  1  0
M  CHG  1  24  -1
M  END
>  <UniqueID>  (88) 
87

>  <SMILES>  (88) 
CCOC(=O)n1c(C(N)=O)cc2ccc(-c3cc(F)cc(C(=O)[O-])c3F)cc21

>  <Energy>  (88) 
85.9780646656203

>  <Genealogy>  (88) 
CCOC(=O)n1c(C(N)=O)cc2ccc(-c3cc(F)cc(C(=O)[O-])c3F)cc21 (protonated)
CCOC(=O)n1c(C(N)=O)cc2ccc(-c3cc(F)cc(C(=O)[O-])c3F)cc21 (3D coordinates assigned)
CCOC(=O)n1c(C(N)=O)cc2ccc(-c3cc(F)cc(C(=O)[O-])c3F)cc21 (optimized conformer: 85.9780646656203 kcal/mol)

>  <smiles>  (88) 
CCOC(=O)n1c(C(N)=O)cc2ccc(-c3cc(F)cc(C(=O)O)c3F)cc21

>  <score_type>  (88) 
oracle

>  <origin>  (88) 
adg

>  <m_score__min__energy>  (88) 
-7.8600000000000003

>  <m_primary>  (88) 
energy

$$$$
88:0
     RDKit          3D

 33 34  0  0  0  0  0  0  0  0999 V2000
  149.6300  151.4820  133.4230 C   0  0  0  0  0  0  0  0  0  0  0  0
  148.7650  152.2260  132.4120 C   0  0  0  0  0  0  0  0  0  0  0  0
  148.1440  153.3580  133.0180 O   0  0  0  0  0  0  0  0  0  0  0  0
  148.6800  154.6510  132.9660 C   0  0  0  0  0  0  0  0  0  0  0  0
  149.8450  154.8420  132.5190 O   0  0  0  0  0  0  0  0  0  0  0  0
  147.9080  155.7600  133.4510 N   0  0  0  0  0  0  0  0  0  0  0  0
  146.8360  155.7310  134.2940 C   0  0  0  0  0  0  0  0  0  0  0  0
  146.3180  154.5400  134.9990 C   0  0  0  0  0  0  0  0  0  0  0  0
  147.2220  153.6580  135.6600 N   0  0  0  0  0  0  0  0  0  0  0  0
  145.0870  154.2710  134.9950 O   0  0  0  0  0  0  0  0  0  0  0  0
  146.3250  157.0150  134.4780 C   0  0  0  0  0  0  0  0  0  0  0  0
  147.1280  157.8390  133.7240 C   0  0  0  0  0  0  0  0  0  0  0  0
  147.0740  159.2170  133.5400 C   0  0  0  0  0  0  0  0  0  0  0  0
  148.0210  159.8060  132.6870 C   0  0  0  0  0  0  0  0  0  0  0  0
  148.9900  159.0090  132.0250 C   0  0  0  0  0  0  0  0  0  0  0  0
  150.0120  159.6520  131.1300 C   0  0  0  0  0  0  0  0  0  0  0  0
  149.3400  160.5830  130.1720 C   0  0  0  0  0  0  0  0  0  0  0  0
  149.6380  161.8060  130.1630 O   0  0  0  0  0  0  0  0  0  0  0  0
  148.3480  160.1090  129.3220 O   0  0  0  0  0  0  0  0  0  0  0  0
  149.0210  157.6140  132.2450 C   0  0  0  0  0  0  0  0  0  0  0  0
  148.0750  157.0580  133.1150 C   0  0  0  0  0  0  0  0  0  0  0  0
  149.3166  151.7515  134.4424 H   0  0  0  0  0  0  0  0  0  0  0  0
  149.5131  150.3979  133.2781 H   0  0  0  0  0  0  0  0  0  0  0  0
  150.6845  151.7597  133.2781 H   0  0  0  0  0  0  0  0  0  0  0  0
  149.3955  152.5640  131.5764 H   0  0  0  0  0  0  0  0  0  0  0  0
  147.9817  151.5453  132.0472 H   0  0  0  0  0  0  0  0  0  0  0  0
  147.7800  152.9580  135.1220 H   0  0  0  0  0  0  0  0  0  0  0  0
  145.4626  157.3072  135.0952 H   0  0  0  0  0  0  0  0  0  0  0  0
  146.3121  159.8268  134.0476 H   0  0  0  0  0  0  0  0  0  0  0  0
  148.0115  160.8948  132.5307 H   0  0  0  0  0  0  0  0  0  0  0  0
  150.7298  160.2163  131.7435 H   0  0  0  0  0  0  0  0  0  0  0  0
  150.5389  158.8699  130.5637 H   0  0  0  0  0  0  0  0  0  0  0  0
  149.7691  156.9807  131.7457 H   0  0  0  0  0  0  0  0  0  0  0  0
  1  2  1  0
  2  3  1  0
  3  4  1  0
  4  5  2  0
  4  6  1  0
  6  7  1  0
  7  8  1  0
  8  9  1  0
  8 10  2  0
  7 11  2  0
 11 12  1  0
 12 13  2  0
 13 14  1  0
 14 15  2  0
 15 16  1  0
 16 17  1  0
 17 18  2  0
 17 19  1  0
 15 20  1  0
 20 21  2  0
 21  6  1  0
 21 12  1  0
  1 22  1  0
  1 23  1  0
  1 24  1  0
  2 25  1  0
  2 26  1  0
  9 27  1  0
 11 28  1  0
 13 29  1  0
 14 30  1  0
 16 31  1  0
 16 32  1  0
 20 33  1  0
M  CHG  2   9  -1  19  -1
M  END
>  <UniqueID>  (89) 
88

>  <SMILES>  (89) 
CCOC(=O)n1c(C([NH-])=O)cc2ccc(CC(=O)[O-])cc21

>  <Energy>  (89) 
66.30654887714138

>  <Genealogy>  (89) 
CCOC(=O)n1c(C([NH-])=O)cc2ccc(CC(=O)[O-])cc21 (protonated)
CCOC(=O)n1c(C([NH-])=O)cc2ccc(CC(=O)[O-])cc21 (3D coordinates assigned)
CCOC(=O)n1c(C([NH-])=O)cc2ccc(CC(=O)[O-])cc21 (optimized conformer: 66.30654887714138 kcal/mol)

>  <smiles>  (89) 
CCOC(=O)n1c(C(N)=O)cc2ccc(CC(=O)O)cc21

>  <score_type>  (89) 
oracle

>  <origin>  (89) 
adg

>  <m_score__min__energy>  (89) 
-6.25

>  <m_primary>  (89) 
energy

$$$$
89:0
     RDKit          3D

 37 39  0  0  0  0  0  0  0  0999 V2000
  141.3920  160.5220  134.4160 N   0  0  0  0  0  0  0  0  0  0  0  0
  140.6590  159.7970  133.4320 C   0  0  0  0  0  0  0  0  0  0  0  0
  139.8470  160.4120  132.6910 O   0  0  0  0  0  0  0  0  0  0  0  0
  140.7960  158.3310  133.3070 C   0  0  0  0  0  0  0  0  0  0  0  0
  139.7140  157.4760  133.1090 C   0  0  0  0  0  0  0  0  0  0  0  0
  140.2420  156.2060  133.1400 C   0  0  0  0  0  0  0  0  0  0  0  0
  139.6130  154.9730  132.9930 C   0  0  0  0  0  0  0  0  0  0  0  0
  140.4110  153.8170  133.0460 C   0  0  0  0  0  0  0  0  0  0  0  0
  141.8130  153.9160  133.2240 C   0  0  0  0  0  0  0  0  0  0  0  0
  142.6530  152.6700  133.3070 C   0  0  0  0  0  0  0  0  0  0  0  0
  141.7890  151.4520  133.1320 C   0  0  0  0  0  0  0  0  0  0  0  0
  141.3660  150.7110  134.2430 C   0  0  0  0  0  0  0  0  0  0  0  0
  140.5560  149.6330  134.0780 N   0  0  0  0  0  0  0  0  0  0  0  0
  140.1250  149.2410  132.8500 C   0  0  0  0  0  0  0  0  0  0  0  0
  140.5100  149.9590  131.7030 C   0  0  0  0  0  0  0  0  0  0  0  0
  140.0930  149.6110  130.4080 O   0  0  0  0  0  0  0  0  0  0  0  0
  138.9760  148.7800  130.0980 C   0  0  0  0  0  0  0  0  0  0  0  0
  139.2620  147.4830  130.4820 F   0  0  0  0  0  0  0  0  0  0  0  0
  138.7330  148.7980  128.7370 F   0  0  0  0  0  0  0  0  0  0  0  0
  137.8560  149.2100  130.7840 F   0  0  0  0  0  0  0  0  0  0  0  0
  141.3440  151.0700  131.8590 C   0  0  0  0  0  0  0  0  0  0  0  0
  142.4140  155.1850  133.3780 C   0  0  0  0  0  0  0  0  0  0  0  0
  141.5930  156.3180  133.3430 C   0  0  0  0  0  0  0  0  0  0  0  0
  141.9510  157.6170  133.4450 N   0  0  0  0  0  0  0  0  0  0  0  0
  143.2890  158.1220  133.5820 C   0  0  0  0  0  0  0  0  0  0  0  0
  144.1520  157.4710  134.2290 O   0  0  0  0  0  0  0  0  0  0  0  0
  143.6370  159.3450  133.0220 O   0  0  0  0  0  0  0  0  0  0  0  0
  142.4350  160.5470  134.3970 H   0  0  0  0  0  0  0  0  0  0  0  0
  138.6610  157.7568  132.9596 H   0  0  0  0  0  0  0  0  0  0  0  0
  138.5258  154.9054  132.8402 H   0  0  0  0  0  0  0  0  0  0  0  0
  139.9426  152.8265  132.9484 H   0  0  0  0  0  0  0  0  0  0  0  0
  143.4157  152.6919  132.5147 H   0  0  0  0  0  0  0  0  0  0  0  0
  143.1388  152.6282  134.2930 H   0  0  0  0  0  0  0  0  0  0  0  0
  141.6909  151.0031  135.2525 H   0  0  0  0  0  0  0  0  0  0  0  0
  139.4735  148.3601  132.7527 H   0  0  0  0  0  0  0  0  0  0  0  0
  141.6533  151.6487  130.9761 H   0  0  0  0  0  0  0  0  0  0  0  0
  143.5004  155.2804  133.5219 H   0  0  0  0  0  0  0  0  0  0  0  0
  1  2  1  0
  2  3  2  0
  2  4  1  0
  4  5  2  0
  5  6  1  0
  6  7  2  0
  7  8  1  0
  8  9  2  0
  9 10  1  0
 10 11  1  0
 11 12  2  0
 12 13  1  0
 13 14  2  0
 14 15  1  0
 15 16  1  0
 16 17  1  0
 17 18  1  0
 17 19  1  0
 17 20  1  0
 15 21  2  0
  9 22  1  0
 22 23  2  0
 23 24  1  0
 24 25  1  0
 25 26  2  0
 25 27  1  0
 24  4  1  0
 23  6  1  0
 21 11  1  0
  1 28  1  0
  5 29  1  0
  7 30  1  0
  8 31  1  0
 10 32  1  0
 10 33  1  0
 12 34  1  0
 14 35  1  0
 21 36  1  0
 22 37  1  0
M  CHG  2   1  -1  27  -1
M  END
>  <UniqueID>  (90) 
89

>  <SMILES>  (90) 
[NH-]C(=O)c1cc2ccc(Cc3cncc(OC(F)(F)F)c3)cc2n1C(=O)[O-]

>  <Energy>  (90) 
79.06552942328776

>  <Genealogy>  (90) 
[NH-]C(=O)c1cc2ccc(Cc3cncc(OC(F)(F)F)c3)cc2n1C(=O)[O-] (protonated)
[NH-]C(=O)c1cc2ccc(Cc3cncc(OC(F)(F)F)c3)cc2n1C(=O)[O-] (3D coordinates assigned)
[NH-]C(=O)c1cc2ccc(Cc3cncc(OC(F)(F)F)c3)cc2n1C(=O)[O-] (optimized conformer: 79.06552942328776 kcal/mol)

>  <smiles>  (90) 
NC(=O)c1cc2ccc(Cc3cncc(OC(F)(F)F)c3)cc2n1C(=O)O

>  <score_type>  (90) 
oracle

>  <origin>  (90) 
adg

>  <m_score__min__energy>  (90) 
-7.0199999999999996

>  <m_primary>  (90) 
energy

$$$$
90:0
     RDKit          3D

 23 24  0  0  0  0  0  0  0  0999 V2000
  142.8130  152.9220  132.6070 N   0  0  0  0  0  0  0  0  0  0  0  0
  141.7420  152.2340  133.2500 C   0  0  0  0  0  0  0  0  0  0  0  0
  141.4350  152.5430  134.4310 O   0  0  0  0  0  0  0  0  0  0  0  0
  141.0330  151.1490  132.5370 C   0  0  0  0  0  0  0  0  0  0  0  0
  139.6790  151.2040  132.2150 C   0  0  0  0  0  0  0  0  0  0  0  0
  139.4210  150.0470  131.5190 C   0  0  0  0  0  0  0  0  0  0  0  0
  138.2270  149.5840  130.9730 C   0  0  0  0  0  0  0  0  0  0  0  0
  138.2390  148.3360  130.3300 C   0  0  0  0  0  0  0  0  0  0  0  0
  139.4310  147.5770  130.2540 C   0  0  0  0  0  0  0  0  0  0  0  0
  139.4250  146.3010  129.6080 N   0  0  0  0  0  0  0  0  0  0  0  0
  140.6220  148.0760  130.8200 C   0  0  0  0  0  0  0  0  0  0  0  0
  140.5900  149.3330  131.4400 C   0  0  0  0  0  0  0  0  0  0  0  0
  141.5930  149.9990  132.0610 N   0  0  0  0  0  0  0  0  0  0  0  0
  142.9510  149.5600  132.2410 C   0  0  0  0  0  0  0  0  0  0  0  0
  143.9070  150.3800  132.2210 O   0  0  0  0  0  0  0  0  0  0  0  0
  143.3640  152.4650  131.8460 H   0  0  0  0  0  0  0  0  0  0  0  0
  138.9667  152.0041  132.4648 H   0  0  0  0  0  0  0  0  0  0  0  0
  137.3033  150.1772  131.0432 H   0  0  0  0  0  0  0  0  0  0  0  0
  137.3139  147.9448  129.8814 H   0  0  0  0  0  0  0  0  0  0  0  0
  140.1140  146.0810  128.8540 H   0  0  0  0  0  0  0  0  0  0  0  0
  138.7310  145.5690  129.8770 H   0  0  0  0  0  0  0  0  0  0  0  0
  141.5538  147.4931  130.7762 H   0  0  0  0  0  0  0  0  0  0  0  0
  143.1579  148.4912  132.3986 H   0  0  0  0  0  0  0  0  0  0  0  0
  1  2  1  0
  2  3  2  0
  2  4  1  0
  4  5  2  0
  5  6  1  0
  6  7  2  0
  7  8  1  0
  8  9  2  0
  9 10  1  0
  9 11  1  0
 11 12  2  0
 12 13  1  0
 13 14  1  0
 14 15  2  0
 13  4  1  0
 12  6  1  0
  1 16  1  0
  5 17  1  0
  7 18  1  0
  8 19  1  0
 10 20  1  0
 10 21  1  0
 11 22  1  0
 14 23  1  0
M  CHG  1   1  -1
M  END
>  <UniqueID>  (91) 
90

>  <SMILES>  (91) 
[NH-]C(=O)c1cc2ccc(N)cc2n1C=O

>  <Energy>  (91) 
60.35951591021495

>  <Genealogy>  (91) 
[NH-]C(=O)c1cc2ccc(N)cc2n1C=O (protonated)
[NH-]C(=O)c1cc2ccc(N)cc2n1C=O (3D coordinates assigned)
[NH-]C(=O)c1cc2ccc(N)cc2n1C=O (optimized conformer: 60.35951591021495 kcal/mol)

>  <smiles>  (91) 
NC(=O)c1cc2ccc(N)cc2n1C=O

>  <score_type>  (91) 
oracle

>  <origin>  (91) 
adg

>  <m_score__min__energy>  (91) 
-5.4699999999999998

>  <m_primary>  (91) 
energy

$$$$
91:0
     RDKit          3D

 37 38  0  0  0  0  0  0  0  0999 V2000
  139.5650  158.9800  130.3550 C   0  0  0  0  0  0  0  0  0  0  0  0
  138.7730  159.3860  131.6130 C   0  0  0  0  0  0  0  0  0  0  0  0
  137.3100  159.7110  131.2520 C   0  0  0  0  0  0  0  0  0  0  0  0
  139.4220  160.6340  132.2280 C   0  0  0  0  0  0  0  0  0  0  0  0
  138.8300  158.3480  132.6010 O   0  0  0  0  0  0  0  0  0  0  0  0
  139.7380  158.2630  133.6670 C   0  0  0  0  0  0  0  0  0  0  0  0
  139.4800  158.7970  134.7800 O   0  0  0  0  0  0  0  0  0  0  0  0
  140.9770  157.5590  133.4860 N   0  0  0  0  0  0  0  0  0  0  0  0
  141.1600  156.2130  133.3850 C   0  0  0  0  0  0  0  0  0  0  0  0
  140.0920  155.2000  133.2810 C   0  0  0  0  0  0  0  0  0  0  0  0
  138.7400  155.5740  133.0060 N   0  0  0  0  0  0  0  0  0  0  0  0
  140.3840  153.9790  133.3850 O   0  0  0  0  0  0  0  0  0  0  0  0
  142.5170  155.9030  133.3390 C   0  0  0  0  0  0  0  0  0  0  0  0
  143.1680  157.1150  133.4020 C   0  0  0  0  0  0  0  0  0  0  0  0
  144.5300  157.3990  133.4070 C   0  0  0  0  0  0  0  0  0  0  0  0
  144.9220  158.7430  133.5190 C   0  0  0  0  0  0  0  0  0  0  0  0
  143.9540  159.7680  133.6340 C   0  0  0  0  0  0  0  0  0  0  0  0
  144.3660  161.1320  133.7620 N   0  0  0  0  0  0  0  0  0  0  0  0
  142.5800  159.4450  133.6270 C   0  0  0  0  0  0  0  0  0  0  0  0
  142.2160  158.0990  133.4920 C   0  0  0  0  0  0  0  0  0  0  0  0
  140.5069  158.4972  130.6546 H   0  0  0  0  0  0  0  0  0  0  0  0
  138.9670  158.2773  129.7562 H   0  0  0  0  0  0  0  0  0  0  0  0
  139.7865  159.8757  129.7562 H   0  0  0  0  0  0  0  0  0  0  0  0
  136.7249  159.8410  132.1744 H   0  0  0  0  0  0  0  0  0  0  0  0
  137.2753  160.6387  130.6620 H   0  0  0  0  0  0  0  0  0  0  0  0
  136.8858  158.8852  130.6620 H   0  0  0  0  0  0  0  0  0  0  0  0
  139.3853  160.5635  133.3251 H   0  0  0  0  0  0  0  0  0  0  0  0
  140.4697  160.7020  131.8998 H   0  0  0  0  0  0  0  0  0  0  0  0
  138.8760  161.5307  131.8998 H   0  0  0  0  0  0  0  0  0  0  0  0
  138.4940  156.5550  132.7430 H   0  0  0  0  0  0  0  0  0  0  0  0
  137.9900  154.8470  132.9790 H   0  0  0  0  0  0  0  0  0  0  0  0
  142.9716  154.9039  133.2676 H   0  0  0  0  0  0  0  0  0  0  0  0
  145.2769  156.5955  133.3257 H   0  0  0  0  0  0  0  0  0  0  0  0
  145.9913  159.0008  133.5173 H   0  0  0  0  0  0  0  0  0  0  0  0
  144.9470  161.5860  133.0220 H   0  0  0  0  0  0  0  0  0  0  0  0
  144.0920  161.6970  134.5960 H   0  0  0  0  0  0  0  0  0  0  0  0
  141.8152  160.2295  133.7250 H   0  0  0  0  0  0  0  0  0  0  0  0
  1  2  1  0
  2  3  1  0
  2  4  1  0
  2  5  1  0
  5  6  1  0
  6  7  2  0
  6  8  1  0
  8  9  1  0
  9 10  1  0
 10 11  1  0
 10 12  2  0
  9 13  2  0
 13 14  1  0
 14 15  2  0
 15 16  1  0
 16 17  2  0
 17 18  1  0
 17 19  1  0
 19 20  2  0
 20  8  1  0
 20 14  1  0
  1 21  1  0
  1 22  1  0
  1 23  1  0
  3 24  1  0
  3 25  1  0
  3 26  1  0
  4 27  1  0
  4 28  1  0
  4 29  1  0
 11 30  1  0
 11 31  1  0
 13 32  1  0
 15 33  1  0
 16 34  1  0
 18 35  1  0
 18 36  1  0
 19 37  1  0
M  END
>  <UniqueID>  (92) 
91

>  <SMILES>  (92) 
CC(C)(C)OC(=O)n1c(C(N)=O)cc2ccc(N)cc21

>  <Energy>  (92) 
70.5143446717877

>  <Genealogy>  (92) 
CC(C)(C)OC(=O)n1c(C(N)=O)cc2ccc(N)cc21 (3D coordinates assigned)
CC(C)(C)OC(=O)n1c(C(N)=O)cc2ccc(N)cc21 (optimized conformer: 70.5143446717877 kcal/mol)

>  <smiles>  (92) 
CC(C)(C)OC(=O)n1c(C(N)=O)cc2ccc(N)cc21

>  <score_type>  (92) 
oracle

>  <origin>  (92) 
adg

>  <m_score__min__energy>  (92) 
-6.5499999999999998

>  <m_primary>  (92) 
energy

$$$$
92:0
     RDKit          3D

 47 48  0  0  0  0  0  0  0  0999 V2000
  141.3080  159.3750  136.1470 C   0  0  0  0  0  0  0  0  0  0  0  0
  141.7660  158.7770  134.8220 C   0  0  0  0  0  0  0  0  0  0  0  0
  143.1880  158.6730  134.7810 O   0  0  0  0  0  0  0  0  0  0  0  0
  143.9120  158.4740  133.6010 C   0  0  0  0  0  0  0  0  0  0  0  0
  143.3790  157.8960  132.6140 O   0  0  0  0  0  0  0  0  0  0  0  0
  145.2660  158.9440  133.5090 N   0  0  0  0  0  0  0  0  0  0  0  0
  145.7090  160.2320  133.5880 C   0  0  0  0  0  0  0  0  0  0  0  0
  144.8960  161.4080  133.9590 C   0  0  0  0  0  0  0  0  0  0  0  0
  143.4890  161.4310  133.7340 N   0  0  0  0  0  0  0  0  0  0  0  0
  145.4460  162.3910  134.5260 O   0  0  0  0  0  0  0  0  0  0  0  0
  147.0800  160.2920  133.3490 C   0  0  0  0  0  0  0  0  0  0  0  0
  147.4700  158.9900  133.1290 C   0  0  0  0  0  0  0  0  0  0  0  0
  148.7250  158.4710  132.8310 C   0  0  0  0  0  0  0  0  0  0  0  0
  148.8320  157.0860  132.6280 C   0  0  0  0  0  0  0  0  0  0  0  0
  147.6950  156.2450  132.7200 C   0  0  0  0  0  0  0  0  0  0  0  0
  147.8550  154.8300  132.5050 N   0  0  0  0  0  0  0  0  0  0  0  0
  148.0130  153.8380  133.5720 C   0  0  0  0  0  0  0  0  0  0  0  0
  149.2250  152.9250  133.3250 C   0  0  0  0  0  0  0  0  0  0  0  0
  149.3340  152.4480  131.8680 C   0  0  0  0  0  0  0  0  0  0  0  0
  149.8730  151.0720  131.7840 N   0  0  0  0  0  0  0  0  0  0  0  0
  148.8840  150.1060  132.2930 C   0  0  0  0  0  0  0  0  0  0  0  0
  150.2300  150.7250  130.3980 C   0  0  0  0  0  0  0  0  0  0  0  0
  146.4310  156.8150  133.0090 C   0  0  0  0  0  0  0  0  0  0  0  0
  146.3570  158.1960  133.2300 C   0  0  0  0  0  0  0  0  0  0  0  0
  141.7460  158.8031  136.9783 H   0  0  0  0  0  0  0  0  0  0  0  0
  141.6368  160.4229  136.2095 H   0  0  0  0  0  0  0  0  0  0  0  0
  140.2107  159.3306  136.2095 H   0  0  0  0  0  0  0  0  0  0  0  0
  141.3271  157.7749  134.7071 H   0  0  0  0  0  0  0  0  0  0  0  0
  141.4356  159.4342  134.0041 H   0  0  0  0  0  0  0  0  0  0  0  0
  142.9380  160.5460  133.6940 H   0  0  0  0  0  0  0  0  0  0  0  0
  147.7162  161.1893  133.3383 H   0  0  0  0  0  0  0  0  0  0  0  0
  149.6063  159.1250  132.7566 H   0  0  0  0  0  0  0  0  0  0  0  0
  149.8131  156.6470  132.3940 H   0  0  0  0  0  0  0  0  0  0  0  0
  147.9140  154.4810  131.5220 H   0  0  0  0  0  0  0  0  0  0  0  0
  148.1511  154.3627  134.5289 H   0  0  0  0  0  0  0  0  0  0  0  0
  147.1098  153.2105  133.5932 H   0  0  0  0  0  0  0  0  0  0  0  0
  150.1394  153.4803  133.5808 H   0  0  0  0  0  0  0  0  0  0  0  0
  149.0960  152.0316  133.9537 H   0  0  0  0  0  0  0  0  0  0  0  0
  148.3341  152.4683  131.4100 H   0  0  0  0  0  0  0  0  0  0  0  0
  150.0233  153.1206  131.3364 H   0  0  0  0  0  0  0  0  0  0  0  0
  148.8942  150.1160  133.3929 H   0  0  0  0  0  0  0  0  0  0  0  0
  147.8821  150.3829  131.9331 H   0  0  0  0  0  0  0  0  0  0  0  0
  149.1373  149.0979  131.9331 H   0  0  0  0  0  0  0  0  0  0  0  0
  151.0188  149.9583  130.4035 H   0  0  0  0  0  0  0  0  0  0  0  0
  149.3429  150.3347  129.8776 H   0  0  0  0  0  0  0  0  0  0  0  0
  150.5949  151.6228  129.8776 H   0  0  0  0  0  0  0  0  0  0  0  0
  145.5287  156.1878  133.0587 H   0  0  0  0  0  0  0  0  0  0  0  0
  1  2  1  0
  2  3  1  0
  3  4  1  0
  4  5  2  0
  4  6  1  0
  6  7  1  0
  7  8  1  0
  8  9  1  0
  8 10  2  0
  7 11  2  0
 11 12  1  0
 12 13  2  0
 13 14  1  0
 14 15  2  0
 15 16  1  0
 16 17  1  0
 17 18  1  0
 18 19  1  0
 19 20  1  0
 20 21  1  0
 20 22  1  0
 15 23  1  0
 23 24  2  0
 24  6  1  0
 24 12  1  0
  1 25  1  0
  1 26  1  0
  1 27  1  0
  2 28  1  0
  2 29  1  0
  9 30  1  0
 11 31  1  0
 13 32  1  0
 14 33  1  0
 16 34  1  0
 17 35  1  0
 17 36  1  0
 18 37  1  0
 18 38  1  0
 19 39  1  0
 19 40  1  0
 21 41  1  0
 21 42  1  0
 21 43  1  0
 22 44  1  0
 22 45  1  0
 22 46  1  0
 23 47  1  0
M  CHG  1   9  -1
M  END
>  <UniqueID>  (93) 
92

>  <SMILES>  (93) 
CCOC(=O)n1c(C([NH-])=O)cc2ccc(NCCCN(C)C)cc21

>  <Energy>  (93) 
78.41309318401736

>  <Genealogy>  (93) 
CCOC(=O)n1c(C([NH-])=O)cc2ccc(NCCCN(C)C)cc21 (protonated)
CCOC(=O)n1c(C([NH-])=O)cc2ccc(NCCCN(C)C)cc21 (3D coordinates assigned)
CCOC(=O)n1c(C([NH-])=O)cc2ccc(NCCCN(C)C)cc21 (optimized conformer: 78.41309318401736 kcal/mol)

>  <smiles>  (93) 
CCOC(=O)n1c(C(N)=O)cc2ccc(NCCCN(C)C)cc21

>  <score_type>  (93) 
oracle

>  <origin>  (93) 
adg

>  <m_score__min__energy>  (93) 
-7.3300000000000001

>  <m_primary>  (93) 
energy

$$$$
93:0
     RDKit          3D

 45 46  0  0  0  0  0  0  0  0999 V2000
  147.3120  150.7180  131.8600 C   0  0  0  0  0  0  0  0  0  0  0  0
  148.5160  150.0940  132.5830 C   0  0  0  0  0  0  0  0  0  0  0  0
  149.8250  150.5550  132.0640 N   0  0  0  0  0  0  0  0  0  0  0  0
  149.8320  150.7430  130.5940 C   0  0  0  0  0  0  0  0  0  0  0  0
  150.9990  149.9720  129.9890 C   0  0  0  0  0  0  0  0  0  0  0  0
  150.3660  151.7100  132.8130 C   0  0  0  0  0  0  0  0  0  0  0  0
  149.2470  152.6630  133.2520 C   0  0  0  0  0  0  0  0  0  0  0  0
  149.3620  154.0320  132.5680 C   0  0  0  0  0  0  0  0  0  0  0  0
  148.1720  154.8900  132.9060 C   0  0  0  0  0  0  0  0  0  0  0  0
  146.9270  154.2890  133.2150 C   0  0  0  0  0  0  0  0  0  0  0  0
  145.8040  155.0810  133.5060 C   0  0  0  0  0  0  0  0  0  0  0  0
  145.9520  156.4640  133.4650 C   0  0  0  0  0  0  0  0  0  0  0  0
  145.0380  157.4600  133.7170 C   0  0  0  0  0  0  0  0  0  0  0  0
  145.7300  158.6550  133.5250 C   0  0  0  0  0  0  0  0  0  0  0  0
  145.0930  159.9860  133.6050 C   0  0  0  0  0  0  0  0  0  0  0  0
  145.8620  161.1160  134.0150 N   0  0  0  0  0  0  0  0  0  0  0  0
  143.8690  160.1320  133.3530 O   0  0  0  0  0  0  0  0  0  0  0  0
  147.0240  158.4070  133.1760 N   0  0  0  0  0  0  0  0  0  0  0  0
  148.0790  159.3590  132.9590 C   0  0  0  0  0  0  0  0  0  0  0  0
  147.8760  160.4700  132.0890 N   0  0  0  0  0  0  0  0  0  0  0  0
  149.1780  159.2340  133.5600 O   0  0  0  0  0  0  0  0  0  0  0  0
  147.1430  157.0610  133.1400 C   0  0  0  0  0  0  0  0  0  0  0  0
  148.2820  156.2970  132.8620 C   0  0  0  0  0  0  0  0  0  0  0  0
  146.5916  151.0914  132.6027 H   0  0  0  0  0  0  0  0  0  0  0  0
  147.6546  151.5520  131.2299 H   0  0  0  0  0  0  0  0  0  0  0  0
  146.8280  149.9572  131.2299 H   0  0  0  0  0  0  0  0  0  0  0  0
  148.4539  150.3544  133.6499 H   0  0  0  0  0  0  0  0  0  0  0  0
  148.4664  149.0083  132.4132 H   0  0  0  0  0  0  0  0  0  0  0  0
  148.8874  150.3692  130.1720 H   0  0  0  0  0  0  0  0  0  0  0  0
  149.9394  151.8128  130.3616 H   0  0  0  0  0  0  0  0  0  0  0  0
  151.6233  149.5595  130.7953 H   0  0  0  0  0  0  0  0  0  0  0  0
  150.6129  149.1506  129.3675 H   0  0  0  0  0  0  0  0  0  0  0  0
  151.6031  150.6493  129.3675 H   0  0  0  0  0  0  0  0  0  0  0  0
  150.8945  151.3428  133.7051 H   0  0  0  0  0  0  0  0  0  0  0  0
  151.0525  152.2610  132.1533 H   0  0  0  0  0  0  0  0  0  0  0  0
  148.2762  152.2157  132.9921 H   0  0  0  0  0  0  0  0  0  0  0  0
  149.3346  152.8153  134.3379 H   0  0  0  0  0  0  0  0  0  0  0  0
  150.2791  154.5328  132.9117 H   0  0  0  0  0  0  0  0  0  0  0  0
  149.3971  153.8843  131.4785 H   0  0  0  0  0  0  0  0  0  0  0  0
  146.8389  153.1926  133.2272 H   0  0  0  0  0  0  0  0  0  0  0  0
  144.8369  154.6218  133.7586 H   0  0  0  0  0  0  0  0  0  0  0  0
  143.9842  157.3394  134.0083 H   0  0  0  0  0  0  0  0  0  0  0  0
  146.5030  161.5990  133.3470 H   0  0  0  0  0  0  0  0  0  0  0  0
  147.0560  161.1040  132.2100 H   0  0  0  0  0  0  0  0  0  0  0  0
  149.2388  156.7804  132.6154 H   0  0  0  0  0  0  0  0  0  0  0  0
  1  2  1  0
  2  3  1  0
  3  4  1  0
  4  5  1  0
  3  6  1  0
  6  7  1  0
  7  8  1  0
  8  9  1  0
  9 10  2  0
 10 11  1  0
 11 12  2  0
 12 13  1  0
 13 14  2  0
 14 15  1  0
 15 16  1  0
 15 17  2  0
 14 18  1  0
 18 19  1  0
 19 20  1  0
 19 21  2  0
 18 22  1  0
 22 23  2  0
 23  9  1  0
 22 12  1  0
  1 24  1  0
  1 25  1  0
  1 26  1  0
  2 27  1  0
  2 28  1  0
  4 29  1  0
  4 30  1  0
  5 31  1  0
  5 32  1  0
  5 33  1  0
  6 34  1  0
  6 35  1  0
  7 36  1  0
  7 37  1  0
  8 38  1  0
  8 39  1  0
 10 40  1  0
 11 41  1  0
 13 42  1  0
 16 43  1  0
 20 44  1  0
 23 45  1  0
M  CHG  2  16  -1  20  -1
M  END
>  <UniqueID>  (94) 
93

>  <SMILES>  (94) 
CCN(CC)CCCc1ccc2cc(C([NH-])=O)n(C([NH-])=O)c2c1

>  <Energy>  (94) 
80.01757655186869

>  <Genealogy>  (94) 
CCN(CC)CCCc1ccc2cc(C([NH-])=O)n(C([NH-])=O)c2c1 (protonated)
CCN(CC)CCCc1ccc2cc(C([NH-])=O)n(C([NH-])=O)c2c1 (3D coordinates assigned)
CCN(CC)CCCc1ccc2cc(C([NH-])=O)n(C([NH-])=O)c2c1 (optimized conformer: 80.01757655186869 kcal/mol)

>  <smiles>  (94) 
CCN(CC)CCCc1ccc2cc(C(N)=O)n(C(N)=O)c2c1

>  <score_type>  (94) 
oracle

>  <origin>  (94) 
adg

>  <m_score__min__energy>  (94) 
-7.25

>  <m_primary>  (94) 
energy

$$$$
94:0
     RDKit          3D

 38 40  0  0  0  0  0  0  0  0999 V2000
  145.4150  152.9640  132.3550 N   0  0  0  0  0  0  0  0  0  0  0  0
  145.3870  153.9770  133.3570 C   0  0  0  0  0  0  0  0  0  0  0  0
  144.5710  153.8810  134.3130 O   0  0  0  0  0  0  0  0  0  0  0  0
  146.2720  155.1060  133.2700 N   0  0  0  0  0  0  0  0  0  0  0  0
  147.6120  155.0930  133.0250 C   0  0  0  0  0  0  0  0  0  0  0  0
  148.4690  153.8940  132.9620 C   0  0  0  0  0  0  0  0  0  0  0  0
  147.9670  152.6060  133.3220 N   0  0  0  0  0  0  0  0  0  0  0  0
  149.6810  154.0150  132.6400 O   0  0  0  0  0  0  0  0  0  0  0  0
  148.1030  156.3910  132.8950 C   0  0  0  0  0  0  0  0  0  0  0  0
  147.0140  157.2100  133.0850 C   0  0  0  0  0  0  0  0  0  0  0  0
  146.9230  158.5980  133.0540 C   0  0  0  0  0  0  0  0  0  0  0  0
  145.6600  159.1790  133.2540 C   0  0  0  0  0  0  0  0  0  0  0  0
  144.5140  158.3760  133.4730 C   0  0  0  0  0  0  0  0  0  0  0  0
  143.2400  159.0170  133.6740 N   0  0  0  0  0  0  0  0  0  0  0  0
  142.0210  158.3220  134.0930 C   0  0  0  0  0  0  0  0  0  0  0  0
  140.8390  158.7700  133.2690 C   0  0  0  0  0  0  0  0  0  0  0  0
  139.9400  157.8210  132.7510 C   0  0  0  0  0  0  0  0  0  0  0  0
  138.8370  158.2290  131.9960 C   0  0  0  0  0  0  0  0  0  0  0  0
  138.6250  159.5870  131.7410 C   0  0  0  0  0  0  0  0  0  0  0  0
  137.2400  160.0960  130.7940 Cl  0  0  0  0  0  0  0  0  0  0  0  0
  139.5210  160.5380  132.2380 C   0  0  0  0  0  0  0  0  0  0  0  0
  140.6270  160.1360  132.9960 C   0  0  0  0  0  0  0  0  0  0  0  0
  141.5100  161.0990  133.4720 O   0  0  0  0  0  0  0  0  0  0  0  0
  144.6470  156.9650  133.4820 C   0  0  0  0  0  0  0  0  0  0  0  0
  145.9200  156.4130  133.3070 C   0  0  0  0  0  0  0  0  0  0  0  0
  146.1680  152.9450  131.6320 H   0  0  0  0  0  0  0  0  0  0  0  0
  148.5760  151.7620  133.2360 H   0  0  0  0  0  0  0  0  0  0  0  0
  147.0210  152.4970  133.7500 H   0  0  0  0  0  0  0  0  0  0  0  0
  149.1391  156.6953  132.6854 H   0  0  0  0  0  0  0  0  0  0  0  0
  147.8125  159.2209  132.8783 H   0  0  0  0  0  0  0  0  0  0  0  0
  145.5593  160.2743  133.2403 H   0  0  0  0  0  0  0  0  0  0  0  0
  143.1850  160.0550  133.5700 H   0  0  0  0  0  0  0  0  0  0  0  0
  142.1609  157.2386  133.9637 H   0  0  0  0  0  0  0  0  0  0  0  0
  141.8250  158.5593  135.1491 H   0  0  0  0  0  0  0  0  0  0  0  0
  140.1060  156.7504  132.9413 H   0  0  0  0  0  0  0  0  0  0  0  0
  138.1344  157.4802  131.6017 H   0  0  0  0  0  0  0  0  0  0  0  0
  139.3563  161.6060  132.0327 H   0  0  0  0  0  0  0  0  0  0  0  0
  143.7684  156.3184  133.6235 H   0  0  0  0  0  0  0  0  0  0  0  0
  1  2  1  0
  2  3  2  0
  2  4  1  0
  4  5  1  0
  5  6  1  0
  6  7  1  0
  6  8  2  0
  5  9  2  0
  9 10  1  0
 10 11  2  0
 11 12  1  0
 12 13  2  0
 13 14  1  0
 14 15  1  0
 15 16  1  0
 16 17  2  0
 17 18  1  0
 18 19  2  0
 19 20  1  0
 19 21  1  0
 21 22  2  0
 22 23  1  0
 13 24  1  0
 24 25  2  0
 25  4  1  0
 25 10  1  0
 22 16  1  0
  1 26  1  0
  7 27  1  0
  7 28  1  0
  9 29  1  0
 11 30  1  0
 12 31  1  0
 14 32  1  0
 15 33  1  0
 15 34  1  0
 17 35  1  0
 18 36  1  0
 21 37  1  0
 24 38  1  0
M  CHG  2   1  -1  23  -1
M  END
>  <UniqueID>  (95) 
94

>  <SMILES>  (95) 
[NH-]C(=O)n1c(C(N)=O)cc2ccc(NCc3ccc(Cl)cc3[O-])cc21

>  <Energy>  (95) 
79.64922060373286

>  <Genealogy>  (95) 
[NH-]C(=O)n1c(C(N)=O)cc2ccc(NCc3ccc(Cl)cc3[O-])cc21 (protonated)
[NH-]C(=O)n1c(C(N)=O)cc2ccc(NCc3ccc(Cl)cc3[O-])cc21 (3D coordinates assigned)
[NH-]C(=O)n1c(C(N)=O)cc2ccc(NCc3ccc(Cl)cc3[O-])cc21 (optimized conformer: 79.64922060373286 kcal/mol)

>  <smiles>  (95) 
NC(=O)c1cc2ccc(NCc3ccc(Cl)cc3O)cc2n1C(N)=O

>  <score_type>  (95) 
oracle

>  <origin>  (95) 
adg

>  <m_score__min__energy>  (95) 
-8.5399999999999991

>  <m_primary>  (95) 
energy

$$$$
95:0
     RDKit          3D

 43 44  0  0  0  0  0  0  0  0999 V2000
  141.3690  153.3280  133.0560 C   0  0  0  0  0  0  0  0  0  0  0  0
  141.0360  154.4650  133.8440 O   0  0  0  0  0  0  0  0  0  0  0  0
  140.2400  155.5070  133.3620 C   0  0  0  0  0  0  0  0  0  0  0  0
  139.0720  155.2810  132.9410 O   0  0  0  0  0  0  0  0  0  0  0  0
  140.7700  156.9110  133.3890 C   0  0  2  0  0  0  0  0  0  0  0  0
  141.7180  157.0840  134.5860 C   0  0  0  0  0  0  0  0  0  0  0  0
  142.8280  158.0500  134.2630 C   0  0  0  0  0  0  0  0  0  0  0  0
  142.5580  159.4380  134.1570 C   0  0  0  0  0  0  0  0  0  0  0  0
  143.5750  160.3400  133.8060 C   0  0  0  0  0  0  0  0  0  0  0  0
  144.8480  159.8290  133.5690 C   0  0  0  0  0  0  0  0  0  0  0  0
  146.0010  160.4710  133.1800 C   0  0  0  0  0  0  0  0  0  0  0  0
  146.9620  159.4680  133.0650 C   0  0  0  0  0  0  0  0  0  0  0  0
  148.3830  159.7090  132.7230 C   0  0  0  0  0  0  0  0  0  0  0  0
  149.4250  158.9440  133.3350 N   0  0  0  0  0  0  0  0  0  0  0  0
  148.6890  160.5810  131.8670 O   0  0  0  0  0  0  0  0  0  0  0  0
  146.4250  158.2550  133.3780 N   0  0  0  0  0  0  0  0  0  0  0  0
  147.0770  156.9750  133.3250 C   0  0  0  0  0  0  0  0  0  0  0  0
  146.6950  155.9580  132.2970 C   0  0  0  0  0  0  0  0  0  0  0  0
  147.9850  156.6990  134.1540 O   0  0  0  0  0  0  0  0  0  0  0  0
  145.1280  158.4910  133.6800 C   0  0  0  0  0  0  0  0  0  0  0  0
  144.1300  157.5680  134.0070 C   0  0  0  0  0  0  0  0  0  0  0  0
  139.6650  157.8630  133.4920 N   0  0  0  0  0  0  0  0  0  0  0  0
  139.4370  158.9890  132.6330 C   0  0  0  0  0  0  0  0  0  0  0  0
  139.8920  160.1110  132.9800 O   0  0  0  0  0  0  0  0  0  0  0  0
  138.7050  158.8660  131.3250 C   0  0  0  0  0  0  0  0  0  0  0  0
  138.6900  157.5440  130.9220 F   0  0  0  0  0  0  0  0  0  0  0  0
  139.3370  159.6170  130.3500 F   0  0  0  0  0  0  0  0  0  0  0  0
  137.4090  159.3230  131.4600 F   0  0  0  0  0  0  0  0  0  0  0  0
  141.6163  152.4838  133.7165 H   0  0  0  0  0  0  0  0  0  0  0  0
  140.5122  153.0582  132.4212 H   0  0  0  0  0  0  0  0  0  0  0  0
  142.2360  153.5630  132.4212 H   0  0  0  0  0  0  0  0  0  0  0  0
  141.3215  157.1035  132.4569 H   0  0  0  0  0  0  0  0  0  0  0  0
  141.1467  157.4671  135.4444 H   0  0  0  0  0  0  0  0  0  0  0  0
  142.1633  156.1066  134.8234 H   0  0  0  0  0  0  0  0  0  0  0  0
  141.5419  159.8116  134.3517 H   0  0  0  0  0  0  0  0  0  0  0  0
  143.3721  161.4178  133.7209 H   0  0  0  0  0  0  0  0  0  0  0  0
  146.1358  161.5475  132.9983 H   0  0  0  0  0  0  0  0  0  0  0  0
  150.4190  159.1000  133.0570 H   0  0  0  0  0  0  0  0  0  0  0  0
  149.2230  158.2590  134.0950 H   0  0  0  0  0  0  0  0  0  0  0  0
  146.3507  155.0414  132.7983 H   0  0  0  0  0  0  0  0  0  0  0  0
  145.8859  156.3581  131.6683 H   0  0  0  0  0  0  0  0  0  0  0  0
  147.5675  155.7265  131.6683 H   0  0  0  0  0  0  0  0  0  0  0  0
  144.3539  156.4925  134.0634 H   0  0  0  0  0  0  0  0  0  0  0  0
  1  2  1  0
  2  3  1  0
  3  4  2  0
  3  5  1  0
  5  6  1  0
  6  7  1  0
  7  8  2  0
  8  9  1  0
  9 10  2  0
 10 11  1  0
 11 12  2  0
 12 13  1  0
 13 14  1  0
 13 15  2  0
 12 16  1  0
 16 17  1  0
 17 18  1  0
 17 19  2  0
 16 20  1  0
 20 21  2  0
  5 22  1  0
 22 23  1  0
 23 24  2  0
 23 25  1  0
 25 26  1  0
 25 27  1  0
 25 28  1  0
 21  7  1  0
 20 10  1  0
  1 29  1  0
  1 30  1  0
  1 31  1  0
  5 32  1  6
  6 33  1  0
  6 34  1  0
  8 35  1  0
  9 36  1  0
 11 37  1  0
 14 38  1  0
 14 39  1  0
 18 40  1  0
 18 41  1  0
 18 42  1  0
 21 43  1  0
M  CHG  1  22  -1
M  END
>  <UniqueID>  (96) 
95

>  <SMILES>  (96) 
COC(=O)[C@H](Cc1ccc2cc(C(N)=O)n(C(C)=O)c2c1)[N-]C(=O)C(F)(F)F

>  <Energy>  (96) 
74.1942219548498

>  <Genealogy>  (96) 
COC(=O)[C@H](Cc1ccc2cc(C(N)=O)n(C(C)=O)c2c1)[N-]C(=O)C(F)(F)F (protonated)
COC(=O)[C@H](Cc1ccc2cc(C(N)=O)n(C(C)=O)c2c1)[N-]C(=O)C(F)(F)F (3D coordinates assigned)
COC(=O)[C@H](Cc1ccc2cc(C(N)=O)n(C(C)=O)c2c1)[N-]C(=O)C(F)(F)F (optimized conformer: 74.1942219548498 kcal/mol)

>  <smiles>  (96) 
COC(=O)[C@H](Cc1ccc2cc(C(N)=O)n(C(C)=O)c2c1)NC(=O)C(F)(F)F

>  <score_type>  (96) 
oracle

>  <origin>  (96) 
adg

>  <m_score__min__energy>  (96) 
-7.2999999999999998

>  <m_primary>  (96) 
energy

$$$$
