0:0
     RDKit          3D

 31 32  0  0  0  0  0  0  0  0999 V2000
  147.2100  160.8740  133.3730 N   0  0  0  0  0  0  0  0  0  0  0  0
  146.8550  159.4910  133.4170 C   0  0  0  0  0  0  0  0  0  0  0  0
  147.7690  158.6240  133.4250 O   0  0  0  0  0  0  0  0  0  0  0  0
  145.4360  159.0760  133.4910 C   0  0  0  0  0  0  0  0  0  0  0  0
  144.9930  157.7790  133.2380 C   0  0  0  0  0  0  0  0  0  0  0  0
  143.6210  157.8390  133.3170 C   0  0  0  0  0  0  0  0  0  0  0  0
  142.6730  156.8330  133.1680 C   0  0  0  0  0  0  0  0  0  0  0  0
  141.3200  157.1710  133.3370 C   0  0  0  0  0  0  0  0  0  0  0  0
  140.9430  158.5020  133.6470 C   0  0  0  0  0  0  0  0  0  0  0  0
  139.4950  158.8410  133.8750 C   0  0  0  0  0  0  0  0  0  0  0  0
  138.6230  158.2430  132.7690 C   0  0  0  0  0  0  0  0  0  0  0  0
  138.4860  159.3900  131.3640 P   0  0  0  0  0  0  0  0  0  0  0  0
  139.2500  160.6600  131.6630 O   0  0  0  0  0  0  0  0  0  0  0  0
  136.8590  159.7630  131.0900 O   0  0  0  0  0  0  0  0  0  0  0  0
  139.1320  158.6600  129.9830 O   0  0  0  0  0  0  0  0  0  0  0  0
  141.9350  159.4950  133.8030 C   0  0  0  0  0  0  0  0  0  0  0  0
  143.2740  159.1340  133.6100 C   0  0  0  0  0  0  0  0  0  0  0  0
  144.3780  159.9050  133.7210 N   0  0  0  0  0  0  0  0  0  0  0  0
  144.4150  161.2980  134.0760 C   0  0  0  0  0  0  0  0  0  0  0  0
  145.1520  161.6960  135.0180 O   0  0  0  0  0  0  0  0  0  0  0  0
  143.6290  162.2190  133.3960 O   0  0  0  0  0  0  0  0  0  0  0  0
  146.4820  161.6190  133.3100 H   0  0  0  0  0  0  0  0  0  0  0  0
  148.2150  161.1570  133.3620 H   0  0  0  0  0  0  0  0  0  0  0  0
  145.6099  156.8945  133.0211 H   0  0  0  0  0  0  0  0  0  0  0  0
  142.9734  155.8031  132.9250 H   0  0  0  0  0  0  0  0  0  0  0  0
  140.5466  156.3964  133.2279 H   0  0  0  0  0  0  0  0  0  0  0  0
  139.1768  158.4344  134.8463 H   0  0  0  0  0  0  0  0  0  0  0  0
  139.3804  159.9350  133.8654 H   0  0  0  0  0  0  0  0  0  0  0  0
  139.0744  157.3014  132.4232 H   0  0  0  0  0  0  0  0  0  0  0  0
  137.6168  158.0591  133.1737 H   0  0  0  0  0  0  0  0  0  0  0  0
  141.6624  160.5268  134.0696 H   0  0  0  0  0  0  0  0  0  0  0  0
  1  2  1  0
  2  3  2  0
  2  4  1  0
  4  5  2  0
  5  6  1  0
  6  7  2  0
  7  8  1  0
  8  9  2  0
  9 10  1  0
 10 11  1  0
 11 12  1  0
 12 13  2  0
 12 14  1  0
 12 15  1  0
  9 16  1  0
 16 17  2  0
 17 18  1  0
 18 19  1  0
 19 20  2  0
 19 21  1  0
 18  4  1  0
 17  6  1  0
  1 22  1  0
  1 23  1  0
  5 24  1  0
  7 25  1  0
  8 26  1  0
 10 27  1  0
 10 28  1  0
 11 29  1  0
 11 30  1  0
 16 31  1  0
M  CHG  3  14  -1  15  -1  21  -1
M  END
>  <UniqueID>  (1) 
1

>  <SMILES>  (1) 
NC(=O)c1cc2ccc(CCP(=O)([O-])[O-])cc2n1C(=O)[O-]

>  <Energy>  (1) 
63.676902881201876

>  <Genealogy>  (1) 
NC(=O)c1cc2ccc(CCP(=O)([O-])[O-])cc2n1C(=O)[O-] (protonated)
NC(=O)c1cc2ccc(CCP(=O)([O-])[O-])cc2n1C(=O)[O-] (3D coordinates assigned)
NC(=O)c1cc2ccc(CCP(=O)([O-])[O-])cc2n1C(=O)[O-] (optimized conformer: 63.676902881201876 kcal/mol)

>  <smiles>  (1) 
NC(=O)c1cc2ccc(CCP(=O)(O)O)cc2n1C(=O)O

>  <score_type>  (1) 
oracle

>  <origin>  (1) 
adg

>  <m_score__min__energy>  (1) 
-6.3099999999999996

>  <m_primary>  (1) 
energy

$$$$
1:0
     RDKit          3D

 55 58  0  0  0  0  0  0  0  0999 V2000
  142.0800  155.9560  136.3210 C   0  0  0  0  0  0  0  0  0  0  0  0
  142.0500  156.8170  135.0440 C   0  0  0  0  0  0  0  0  0  0  0  0
  141.8810  158.2910  135.4430 C   0  0  0  0  0  0  0  0  0  0  0  0
  140.8730  156.4080  134.1380 C   0  0  0  0  0  0  0  0  0  0  0  0
  143.2930  156.7110  134.3350 O   0  0  0  0  0  0  0  0  0  0  0  0
  143.7090  157.5080  133.2600 C   0  0  0  0  0  0  0  0  0  0  0  0
  142.9720  157.6710  132.2500 O   0  0  0  0  0  0  0  0  0  0  0  0
  145.0060  158.1240  133.3010 N   0  0  0  0  0  0  0  0  0  0  0  0
  145.3070  159.4350  133.5210 C   0  0  0  0  0  0  0  0  0  0  0  0
  144.3490  160.4940  133.8990 C   0  0  0  0  0  0  0  0  0  0  0  0
  143.0290  160.4820  133.3600 N   0  0  0  0  0  0  0  0  0  0  0  0
  144.6930  161.4320  134.6660 O   0  0  0  0  0  0  0  0  0  0  0  0
  146.6820  159.6420  133.4220 C   0  0  0  0  0  0  0  0  0  0  0  0
  147.2180  158.4060  133.1410 C   0  0  0  0  0  0  0  0  0  0  0  0
  148.5410  158.0320  132.9300 C   0  0  0  0  0  0  0  0  0  0  0  0
  148.8060  156.6850  132.6300 C   0  0  0  0  0  0  0  0  0  0  0  0
  147.7480  155.7380  132.5380 C   0  0  0  0  0  0  0  0  0  0  0  0
  147.9890  154.3510  132.2200 N   0  0  0  0  0  0  0  0  0  0  0  0
  147.6410  153.2220  133.0980 C   0  0  1  0  0  0  0  0  0  0  0  0
  147.1880  152.0000  132.2430 C   0  0  0  0  0  0  0  0  0  0  0  0
  148.3670  151.0700  131.8370 C   0  0  2  0  0  0  0  0  0  0  0  0
  148.5080  149.8930  132.8110 C   0  0  0  0  0  0  0  0  0  0  0  0
  149.4650  150.4110  133.8740 C   0  0  0  0  0  0  0  0  0  0  0  0
  149.8110  151.8300  133.4040 C   0  0  2  0  0  0  0  0  0  0  0  0
  148.8490  152.8850  134.0240 C   0  0  0  0  0  0  0  0  0  0  0  0
  149.6170  151.8190  131.9560 N   0  0  0  0  0  0  0  0  0  0  0  0
  146.4190  156.1640  132.7580 C   0  0  0  0  0  0  0  0  0  0  0  0
  146.1870  157.5070  133.0740 C   0  0  0  0  0  0  0  0  0  0  0  0
  142.0572  156.6103  137.2050 H   0  0  0  0  0  0  0  0  0  0  0  0
  141.2045  155.2902  136.3350 H   0  0  0  0  0  0  0  0  0  0  0  0
  142.9997  155.3527  136.3350 H   0  0  0  0  0  0  0  0  0  0  0  0
  141.8713  158.3752  136.5397 H   0  0  0  0  0  0  0  0  0  0  0  0
  142.7176  158.8789  135.0375 H   0  0  0  0  0  0  0  0  0  0  0  0
  140.9330  158.6743  135.0375 H   0  0  0  0  0  0  0  0  0  0  0  0
  140.0168  156.1105  134.7612 H   0  0  0  0  0  0  0  0  0  0  0  0
  140.5861  157.2591  133.5030 H   0  0  0  0  0  0  0  0  0  0  0  0
  141.1757  155.5624  133.5030 H   0  0  0  0  0  0  0  0  0  0  0  0
  142.7650  159.8170  132.6000 H   0  0  0  0  0  0  0  0  0  0  0  0
  147.2236  160.5917  133.5428 H   0  0  0  0  0  0  0  0  0  0  0  0
  149.3554  158.7685  132.9960 H   0  0  0  0  0  0  0  0  0  0  0  0
  149.8434  156.3589  132.4644 H   0  0  0  0  0  0  0  0  0  0  0  0
  148.4330  154.1400  131.2970 H   0  0  0  0  0  0  0  0  0  0  0  0
  146.7947  153.4958  133.7451 H   0  0  0  0  0  0  0  0  0  0  0  0
  146.7047  152.3727  131.3278 H   0  0  0  0  0  0  0  0  0  0  0  0
  146.4980  151.4054  132.8597 H   0  0  0  0  0  0  0  0  0  0  0  0
  148.1696  150.7116  130.8159 H   0  0  0  0  0  0  0  0  0  0  0  0
  148.9272  149.0122  132.3026 H   0  0  0  0  0  0  0  0  0  0  0  0
  147.5432  149.5705  133.2294 H   0  0  0  0  0  0  0  0  0  0  0  0
  150.3682  149.7851  133.9251 H   0  0  0  0  0  0  0  0  0  0  0  0
  149.0258  150.3948  134.8824 H   0  0  0  0  0  0  0  0  0  0  0  0
  150.8349  152.0970  133.7045 H   0  0  0  0  0  0  0  0  0  0  0  0
  149.4155  153.8089  134.2123 H   0  0  0  0  0  0  0  0  0  0  0  0
  148.4439  152.4571  134.9528 H   0  0  0  0  0  0  0  0  0  0  0  0
  150.3880  151.2610  131.5160 H   0  0  0  0  0  0  0  0  0  0  0  0
  145.5828  155.4534  132.6823 H   0  0  0  0  0  0  0  0  0  0  0  0
  1  2  1  0
  2  3  1  0
  2  4  1  0
  2  5  1  0
  5  6  1  0
  6  7  2  0
  6  8  1  0
  8  9  1  0
  9 10  1  0
 10 11  1  0
 10 12  2  0
  9 13  2  0
 13 14  1  0
 14 15  2  0
 15 16  1  0
 16 17  2  0
 17 18  1  0
 18 19  1  0
 19 20  1  0
 20 21  1  0
 21 22  1  0
 22 23  1  0
 23 24  1  0
 24 25  1  0
 24 26  1  0
 17 27  1  0
 27 28  2  0
 28  8  1  0
 28 14  1  0
 25 19  1  0
 26 21  1  0
  1 29  1  0
  1 30  1  0
  1 31  1  0
  3 32  1  0
  3 33  1  0
  3 34  1  0
  4 35  1  0
  4 36  1  0
  4 37  1  0
 11 38  1  0
 13 39  1  0
 15 40  1  0
 16 41  1  0
 18 42  1  0
 19 43  1  1
 20 44  1  0
 20 45  1  0
 21 46  1  6
 22 47  1  0
 22 48  1  0
 23 49  1  0
 23 50  1  0
 24 51  1  6
 25 52  1  0
 25 53  1  0
 26 54  1  0
 27 55  1  0
M  CHG  1  11  -1
M  END
>  <UniqueID>  (2) 
2

>  <SMILES>  (2) 
CC(C)(C)OC(=O)n1c(C([NH-])=O)cc2ccc(NC3C[C@H]4CC[C@@H](C3)N4)cc21

>  <Energy>  (2) 
106.01880349977148

>  <Genealogy>  (2) 
CC(C)(C)OC(=O)n1c(C([NH-])=O)cc2ccc(NC3CC4CCC(C3)N4)cc21 (protonated)
CC(C)(C)OC(=O)n1c(C([NH-])=O)cc2ccc(NC3C[C@H]4CC[C@@H](C3)N4)cc21 (chirality)
CC(C)(C)OC(=O)n1c(C([NH-])=O)cc2ccc(NC3C[C@H]4CC[C@@H](C3)N4)cc21 (3D coordinates assigned)
CC(C)(C)OC(=O)n1c(C([NH-])=O)cc2ccc(NC3C[C@H]4CC[C@@H](C3)N4)cc21 (nonaromatic ring conformer: 106.01880349977148 kcal/mol)

>  <smiles>  (2) 
CC(C)(C)OC(=O)n1c(C(N)=O)cc2ccc(NC3CC4CCC(C3)N4)cc21

>  <score_type>  (2) 
oracle

>  <origin>  (2) 
adg

>  <m_score__min__energy>  (2) 
-9.8200000000000003

>  <m_primary>  (2) 
energy

$$$$
2:0
     RDKit          3D

 38 40  0  0  0  0  0  0  0  0999 V2000
  138.7180  158.2390  135.6700 N   0  0  0  0  0  0  0  0  0  0  0  0
  139.2300  157.6440  134.4770 C   0  0  0  0  0  0  0  0  0  0  0  0
  138.4270  157.2650  133.5830 O   0  0  0  0  0  0  0  0  0  0  0  0
  140.6830  157.5260  134.2440 C   0  0  0  0  0  0  0  0  0  0  0  0
  141.3000  156.3410  133.8550 C   0  0  0  0  0  0  0  0  0  0  0  0
  142.6260  156.6630  133.6810 C   0  0  0  0  0  0  0  0  0  0  0  0
  143.7000  155.8590  133.3140 C   0  0  0  0  0  0  0  0  0  0  0  0
  144.9730  156.4450  133.2530 C   0  0  0  0  0  0  0  0  0  0  0  0
  145.1550  157.8180  133.5610 C   0  0  0  0  0  0  0  0  0  0  0  0
  146.4710  158.4040  133.5200 N   0  0  0  0  0  0  0  0  0  0  0  0
  146.6340  159.8080  133.1110 C   0  0  0  0  0  0  0  0  0  0  0  0
  148.0880  160.1140  132.7190 C   0  0  0  0  0  0  0  0  0  0  0  0
  148.6720  158.9580  131.8960 C   0  0  0  0  0  0  0  0  0  0  0  0
  149.9810  159.2830  131.5070 O   0  0  0  0  0  0  0  0  0  0  0  0
  148.6630  157.6230  132.6850 C   0  0  0  0  0  0  0  0  0  0  0  0
  147.6610  157.6100  133.8520 C   0  0  0  0  0  0  0  0  0  0  0  0
  144.0390  158.6000  133.9390 C   0  0  0  0  0  0  0  0  0  0  0  0
  142.7770  157.9940  133.9720 C   0  0  0  0  0  0  0  0  0  0  0  0
  141.5900  158.5400  134.3250 N   0  0  0  0  0  0  0  0  0  0  0  0
  141.3630  159.8750  134.8080 C   0  0  0  0  0  0  0  0  0  0  0  0
  141.5800  160.8680  134.0670 O   0  0  0  0  0  0  0  0  0  0  0  0
  140.9080  160.0830  136.1050 O   0  0  0  0  0  0  0  0  0  0  0  0
  137.6880  158.2830  135.8340 H   0  0  0  0  0  0  0  0  0  0  0  0
  139.3530  158.7100  136.3520 H   0  0  0  0  0  0  0  0  0  0  0  0
  140.8282  155.3570  133.7163 H   0  0  0  0  0  0  0  0  0  0  0  0
  143.5553  154.7943  133.0784 H   0  0  0  0  0  0  0  0  0  0  0  0
  145.8400  155.8332  132.9631 H   0  0  0  0  0  0  0  0  0  0  0  0
  145.9815  160.0072  132.2481 H   0  0  0  0  0  0  0  0  0  0  0  0
  146.3632  160.4497  133.9624 H   0  0  0  0  0  0  0  0  0  0  0  0
  148.1160  161.0363  132.1201 H   0  0  0  0  0  0  0  0  0  0  0  0
  148.6862  160.2403  133.6334 H   0  0  0  0  0  0  0  0  0  0  0  0
  148.0400  158.8145  131.0072 H   0  0  0  0  0  0  0  0  0  0  0  0
  150.5190  159.3450  132.3400 H   0  0  0  0  0  0  0  0  0  0  0  0
  148.4014  156.8100  131.9917 H   0  0  0  0  0  0  0  0  0  0  0  0
  149.6664  157.4943  133.1170 H   0  0  0  0  0  0  0  0  0  0  0  0
  147.3579  156.5726  134.0568 H   0  0  0  0  0  0  0  0  0  0  0  0
  148.1433  158.0474  134.7386 H   0  0  0  0  0  0  0  0  0  0  0  0
  144.1597  159.6614  134.2014 H   0  0  0  0  0  0  0  0  0  0  0  0
  1  2  1  0
  2  3  2  0
  2  4  1  0
  4  5  2  0
  5  6  1  0
  6  7  2  0
  7  8  1  0
  8  9  2  0
  9 10  1  0
 10 11  1  0
 11 12  1  0
 12 13  1  0
 13 14  1  0
 13 15  1  0
 15 16  1  0
  9 17  1  0
 17 18  2  0
 18 19  1  0
 19 20  1  0
 20 21  2  0
 20 22  1  0
 19  4  1  0
 18  6  1  0
 16 10  1  0
  1 23  1  0
  1 24  1  0
  5 25  1  0
  7 26  1  0
  8 27  1  0
 11 28  1  0
 11 29  1  0
 12 30  1  0
 12 31  1  0
 13 32  1  0
 14 33  1  0
 15 34  1  0
 15 35  1  0
 16 36  1  0
 16 37  1  0
 17 38  1  0
M  CHG  1  22  -1
M  END
>  <UniqueID>  (3) 
3

>  <SMILES>  (3) 
NC(=O)c1cc2ccc(N3CCC(O)CC3)cc2n1C(=O)[O-]

>  <Energy>  (3) 
85.02313535073806

>  <Genealogy>  (3) 
NC(=O)c1cc2ccc(N3CCC(O)CC3)cc2n1C(=O)[O-] (protonated)
NC(=O)c1cc2ccc(N3CCC(O)CC3)cc2n1C(=O)[O-] (3D coordinates assigned)
NC(=O)c1cc2ccc(N3CCC(O)CC3)cc2n1C(=O)[O-] (nonaromatic ring conformer: 85.02313535073806 kcal/mol)

>  <smiles>  (3) 
NC(=O)c1cc2ccc(N3CCC(O)CC3)cc2n1C(=O)O

>  <score_type>  (3) 
oracle

>  <origin>  (3) 
adg

>  <m_score__min__energy>  (3) 
-7.3499999999999996

>  <m_primary>  (3) 
energy

$$$$
3:0
     RDKit          3D

 39 40  0  0  0  0  0  0  0  0999 V2000
  149.2530  159.7560  130.2740 C   0  0  0  0  0  0  0  0  0  0  0  0
  148.9600  160.5170  131.4390 O   0  0  0  0  0  0  0  0  0  0  0  0
  148.5000  159.9340  132.6220 C   0  0  0  0  0  0  0  0  0  0  0  0
  147.7090  160.5580  133.3810 O   0  0  0  0  0  0  0  0  0  0  0  0
  148.9070  158.5370  132.9620 C   0  0  0  0  0  0  0  0  0  0  0  0
  147.7130  157.7560  133.4310 C   0  0  0  0  0  0  0  0  0  0  0  0
  146.4140  158.0960  132.9750 C   0  0  0  0  0  0  0  0  0  0  0  0
  145.2890  157.3920  133.4320 C   0  0  0  0  0  0  0  0  0  0  0  0
  145.4880  156.3690  134.3540 C   0  0  0  0  0  0  0  0  0  0  0  0
  144.5790  155.5280  134.9520 C   0  0  0  0  0  0  0  0  0  0  0  0
  145.3290  154.7120  135.7970 C   0  0  0  0  0  0  0  0  0  0  0  0
  144.7240  153.7240  136.7140 C   0  0  0  0  0  0  0  0  0  0  0  0
  145.5110  153.0560  137.6960 N   0  0  0  0  0  0  0  0  0  0  0  0
  143.4830  153.5060  136.6660 O   0  0  0  0  0  0  0  0  0  0  0  0
  146.6530  155.0270  135.7130 N   0  0  0  0  0  0  0  0  0  0  0  0
  147.7570  154.3830  136.3710 C   0  0  0  0  0  0  0  0  0  0  0  0
  148.4910  155.0390  137.1600 O   0  0  0  0  0  0  0  0  0  0  0  0
  147.9960  153.0240  136.1530 O   0  0  0  0  0  0  0  0  0  0  0  0
  148.8530  152.2450  136.9830 C   0  0  0  0  0  0  0  0  0  0  0  0
  148.1640  151.8280  138.1390 O   0  0  0  0  0  0  0  0  0  0  0  0
  148.5350  152.8910  139.4250 P   0  0  2  0  0  0  0  0  0  0  0  0
  149.9010  153.5050  139.2200 O   0  0  0  0  0  0  0  0  0  0  0  0
  148.5410  152.0130  140.8700 O   0  0  0  0  0  0  0  0  0  0  0  0
  147.3740  154.1190  139.5320 O   0  0  0  0  0  0  0  0  0  0  0  0
  146.7330  156.0460  134.8290 C   0  0  0  0  0  0  0  0  0  0  0  0
  147.8750  156.7170  134.3750 C   0  0  0  0  0  0  0  0  0  0  0  0
  149.6338  158.7669  130.5683 H   0  0  0  0  0  0  0  0  0  0  0  0
  148.3377  159.6335  129.6763 H   0  0  0  0  0  0  0  0  0  0  0  0
  150.0141  160.2789  129.6763 H   0  0  0  0  0  0  0  0  0  0  0  0
  149.3315  158.0535  132.0698 H   0  0  0  0  0  0  0  0  0  0  0  0
  149.6594  158.5643  133.7640 H   0  0  0  0  0  0  0  0  0  0  0  0
  146.2868  158.9191  132.2565 H   0  0  0  0  0  0  0  0  0  0  0  0
  144.2800  157.6416  133.0720 H   0  0  0  0  0  0  0  0  0  0  0  0
  143.4903  155.5043  134.7963 H   0  0  0  0  0  0  0  0  0  0  0  0
  146.5440  153.2020  137.7490 H   0  0  0  0  0  0  0  0  0  0  0  0
  149.1940  151.3608  136.4246 H   0  0  0  0  0  0  0  0  0  0  0  0
  149.7168  152.8572  137.2815 H   0  0  0  0  0  0  0  0  0  0  0  0
  147.0640  154.2510  138.6000 H   0  0  0  0  0  0  0  0  0  0  0  0
  148.8740  156.4420  134.7442 H   0  0  0  0  0  0  0  0  0  0  0  0
  1  2  1  0
  2  3  1  0
  3  4  2  0
  3  5  1  0
  5  6  1  0
  6  7  2  0
  7  8  1  0
  8  9  2  0
  9 10  1  0
 10 11  2  0
 11 12  1  0
 12 13  1  0
 12 14  2  0
 11 15  1  0
 15 16  1  0
 16 17  2  0
 16 18  1  0
 18 19  1  0
 19 20  1  0
 20 21  1  0
 21 22  2  0
 21 23  1  1
 21 24  1  0
 15 25  1  0
 25 26  2  0
 26  6  1  0
 25  9  1  0
  1 27  1  0
  1 28  1  0
  1 29  1  0
  5 30  1  0
  5 31  1  0
  7 32  1  0
  8 33  1  0
 10 34  1  0
 13 35  1  0
 19 36  1  0
 19 37  1  0
 24 38  1  0
 26 39  1  0
M  CHG  2  13  -1  23  -1
M  END
>  <UniqueID>  (4) 
4

>  <SMILES>  (4) 
COC(=O)Cc1ccc2cc(C([NH-])=O)n(C(=O)OCO[P@](=O)([O-])O)c2c1

>  <Energy>  (4) 
70.66701989711066

>  <Genealogy>  (4) 
COC(=O)Cc1ccc2cc(C([NH-])=O)n(C(=O)OCOP(=O)([O-])O)c2c1 (protonated)
COC(=O)Cc1ccc2cc(C([NH-])=O)n(C(=O)OCO[P@](=O)([O-])O)c2c1 (chirality)
COC(=O)Cc1ccc2cc(C([NH-])=O)n(C(=O)OCO[P@](=O)([O-])O)c2c1 (3D coordinates assigned)
COC(=O)Cc1ccc2cc(C([NH-])=O)n(C(=O)OCO[P@](=O)([O-])O)c2c1 (optimized conformer: 70.66701989711066 kcal/mol)

>  <smiles>  (4) 
COC(=O)Cc1ccc2cc(C(N)=O)n(C(=O)OCOP(=O)(O)O)c2c1

>  <score_type>  (4) 
oracle

>  <origin>  (4) 
adg

>  <m_score__min__energy>  (4) 
-6.1100000000000003

>  <m_primary>  (4) 
energy

$$$$
4:0
     RDKit          3D

 31 32  0  0  0  0  0  0  0  0999 V2000
  140.6630  158.1970  133.7450 C   0  0  0  0  0  0  0  0  0  0  0  0
  142.0700  158.7140  133.7070 C   0  0  0  0  0  0  0  0  0  0  0  0
  142.3160  160.1080  133.7600 C   0  0  0  0  0  0  0  0  0  0  0  0
  143.6300  160.6030  133.7450 C   0  0  0  0  0  0  0  0  0  0  0  0
  144.6730  159.6810  133.7040 C   0  0  0  0  0  0  0  0  0  0  0  0
  146.0310  159.8890  133.6380 C   0  0  0  0  0  0  0  0  0  0  0  0
  146.5950  158.6170  133.5950 C   0  0  0  0  0  0  0  0  0  0  0  0
  148.0510  158.3720  133.5330 C   0  0  0  0  0  0  0  0  0  0  0  0
  148.5840  157.0470  133.5590 N   0  0  0  0  0  0  0  0  0  0  0  0
  148.8420  159.3530  133.5050 O   0  0  0  0  0  0  0  0  0  0  0  0
  145.6270  157.6580  133.6300 N   0  0  0  0  0  0  0  0  0  0  0  0
  145.8090  156.2420  133.4690 C   0  0  0  0  0  0  0  0  0  0  0  0
  146.2570  155.7940  132.3770 O   0  0  0  0  0  0  0  0  0  0  0  0
  145.6020  155.3040  134.6230 C   0  0  0  0  0  0  0  0  0  0  0  0
  147.1830  154.6280  135.2220 P   0  0  0  0  0  0  0  0  0  0  0  0
  147.9510  154.0470  134.0560 O   0  0  0  0  0  0  0  0  0  0  0  0
  148.1050  155.8450  135.9480 O   0  0  0  0  0  0  0  0  0  0  0  0
  146.8840  153.4060  136.3530 O   0  0  0  0  0  0  0  0  0  0  0  0
  144.4530  158.3280  133.6900 C   0  0  0  0  0  0  0  0  0  0  0  0
  143.1530  157.8090  133.6780 C   0  0  0  0  0  0  0  0  0  0  0  0
  140.3436  158.0796  134.7910 H   0  0  0  0  0  0  0  0  0  0  0  0
  139.9968  158.9091  133.2359 H   0  0  0  0  0  0  0  0  0  0  0  0
  140.6164  157.2230  133.2359 H   0  0  0  0  0  0  0  0  0  0  0  0
  141.4700  160.8091  133.8134 H   0  0  0  0  0  0  0  0  0  0  0  0
  143.8292  161.6846  133.7650 H   0  0  0  0  0  0  0  0  0  0  0  0
  146.5586  160.8541  133.6225 H   0  0  0  0  0  0  0  0  0  0  0  0
  149.6120  156.8950  133.4580 H   0  0  0  0  0  0  0  0  0  0  0  0
  147.9800  156.2250  133.7760 H   0  0  0  0  0  0  0  0  0  0  0  0
  145.1120  155.8487  135.4434 H   0  0  0  0  0  0  0  0  0  0  0  0
  144.9754  154.4672  134.2807 H   0  0  0  0  0  0  0  0  0  0  0  0
  142.9797  156.7232  133.6467 H   0  0  0  0  0  0  0  0  0  0  0  0
  1  2  1  0
  2  3  2  0
  3  4  1  0
  4  5  2  0
  5  6  1  0
  6  7  2  0
  7  8  1  0
  8  9  1  0
  8 10  2  0
  7 11  1  0
 11 12  1  0
 12 13  2  0
 12 14  1  0
 14 15  1  0
 15 16  2  0
 15 17  1  0
 15 18  1  0
 11 19  1  0
 19 20  2  0
 20  2  1  0
 19  5  1  0
  1 21  1  0
  1 22  1  0
  1 23  1  0
  3 24  1  0
  4 25  1  0
  6 26  1  0
  9 27  1  0
  9 28  1  0
 14 29  1  0
 14 30  1  0
 20 31  1  0
M  CHG  2  17  -1  18  -1
M  END
>  <UniqueID>  (5) 
5

>  <SMILES>  (5) 
Cc1ccc2cc(C(N)=O)n(C(=O)CP(=O)([O-])[O-])c2c1

>  <Energy>  (5) 
66.95438117176943

>  <Genealogy>  (5) 
Cc1ccc2cc(C(N)=O)n(C(=O)CP(=O)([O-])[O-])c2c1 (protonated)
Cc1ccc2cc(C(N)=O)n(C(=O)CP(=O)([O-])[O-])c2c1 (3D coordinates assigned)
Cc1ccc2cc(C(N)=O)n(C(=O)CP(=O)([O-])[O-])c2c1 (optimized conformer: 66.95438117176943 kcal/mol)

>  <smiles>  (5) 
Cc1ccc2cc(C(N)=O)n(C(=O)CP(=O)(O)O)c2c1

>  <score_type>  (5) 
oracle

>  <origin>  (5) 
adg

>  <m_score__min__energy>  (5) 
-6.3499999999999996

>  <m_primary>  (5) 
energy

$$$$
5:0
     RDKit          3D

 56 57  0  0  0  0  0  0  0  0999 V2000
  142.2190  153.0890  138.0640 C   0  0  0  0  0  0  0  0  0  0  0  0
  142.9360  154.3220  137.7580 N   0  0  0  0  0  0  0  0  0  0  0  0
  142.2960  155.5200  137.2880 C   0  0  0  0  0  0  0  0  0  0  0  0
  141.2270  156.1210  138.0070 C   0  0  0  0  0  0  0  0  0  0  0  0
  140.6090  157.2910  137.5320 C   0  0  0  0  0  0  0  0  0  0  0  0
  141.0670  157.8330  136.3360 C   0  0  0  0  0  0  0  0  0  0  0  0
  140.6510  158.9550  135.6590 C   0  0  0  0  0  0  0  0  0  0  0  0
  141.4440  159.0120  134.5160 C   0  0  0  0  0  0  0  0  0  0  0  0
  141.2540  160.0220  133.4580 C   0  0  0  0  0  0  0  0  0  0  0  0
  140.8780  159.6380  132.1390 N   0  0  0  0  0  0  0  0  0  0  0  0
  141.3700  161.2460  133.7350 O   0  0  0  0  0  0  0  0  0  0  0  0
  142.3280  157.9720  134.4900 N   0  0  0  0  0  0  0  0  0  0  0  0
  143.3450  157.7010  133.5080 C   0  0  0  0  0  0  0  0  0  0  0  0
  143.0300  157.5960  132.2910 O   0  0  0  0  0  0  0  0  0  0  0  0
  144.6780  157.5330  133.9030 O   0  0  0  0  0  0  0  0  0  0  0  0
  145.4700  156.4210  133.4880 C   0  0  0  0  0  0  0  0  0  0  0  0
  145.0280  155.2310  134.1340 O   0  0  0  0  0  0  0  0  0  0  0  0
  145.8020  154.5370  135.0700 C   0  0  0  0  0  0  0  0  0  0  0  0
  145.3110  154.1900  136.1780 O   0  0  0  0  0  0  0  0  0  0  0  0
  147.2090  154.1630  134.7310 C   0  0  0  0  0  0  0  0  0  0  0  0
  147.2750  153.5970  133.3760 N   0  0  0  0  0  0  0  0  0  0  0  0
  146.0970  152.9580  132.7800 C   0  0  0  0  0  0  0  0  0  0  0  0
  148.4920  153.6740  132.6100 C   0  0  0  0  0  0  0  0  0  0  0  0
  149.1960  154.7220  132.6480 O   0  0  0  0  0  0  0  0  0  0  0  0
  148.8880  152.5760  131.8250 O   0  0  0  0  0  0  0  0  0  0  0  0
  149.1890  151.2530  132.2980 C   0  0  0  0  0  0  0  0  0  0  0  0
  150.3600  150.6420  131.5030 C   0  0  0  0  0  0  0  0  0  0  0  0
  147.9450  150.3490  132.2100 C   0  0  0  0  0  0  0  0  0  0  0  0
  149.6030  151.3810  133.7730 C   0  0  0  0  0  0  0  0  0  0  0  0
  142.0830  157.2610  135.6160 C   0  0  0  0  0  0  0  0  0  0  0  0
  142.7350  156.1070  136.0800 C   0  0  0  0  0  0  0  0  0  0  0  0
  142.1481  152.9671  139.1549 H   0  0  0  0  0  0  0  0  0  0  0  0
  141.2077  153.1366  137.6339 H   0  0  0  0  0  0  0  0  0  0  0  0
  142.7605  152.2336  137.6339 H   0  0  0  0  0  0  0  0  0  0  0  0
  143.9740  154.3210  137.8840 H   0  0  0  0  0  0  0  0  0  0  0  0
  140.8794  155.6653  138.9459 H   0  0  0  0  0  0  0  0  0  0  0  0
  139.7873  157.7638  138.0899 H   0  0  0  0  0  0  0  0  0  0  0  0
  139.8596  159.6584  135.9571 H   0  0  0  0  0  0  0  0  0  0  0  0
  141.4600  158.9630  131.5930 H   0  0  0  0  0  0  0  0  0  0  0  0
  145.3797  156.2976  132.3987 H   0  0  0  0  0  0  0  0  0  0  0  0
  146.5193  156.6075  133.7604 H   0  0  0  0  0  0  0  0  0  0  0  0
  147.8447  155.0593  134.7810 H   0  0  0  0  0  0  0  0  0  0  0  0
  147.5619  153.4096  135.4506 H   0  0  0  0  0  0  0  0  0  0  0  0
  145.4321  152.5973  133.5786 H   0  0  0  0  0  0  0  0  0  0  0  0
  145.5595  153.6882  132.1572 H   0  0  0  0  0  0  0  0  0  0  0  0
  146.4160  152.1092  132.1572 H   0  0  0  0  0  0  0  0  0  0  0  0
  151.1127  150.2493  132.2025 H   0  0  0  0  0  0  0  0  0  0  0  0
  149.9860  149.8241  130.8696 H   0  0  0  0  0  0  0  0  0  0  0  0
  150.8169  151.4166  130.8696 H   0  0  0  0  0  0  0  0  0  0  0  0
  147.6009  150.0990  133.2245 H   0  0  0  0  0  0  0  0  0  0  0  0
  147.1448  150.8778  131.6714 H   0  0  0  0  0  0  0  0  0  0  0  0
  148.2008  149.4247  131.6714 H   0  0  0  0  0  0  0  0  0  0  0  0
  148.7511  151.1176  134.4171 H   0  0  0  0  0  0  0  0  0  0  0  0
  150.4423  150.7004  133.9786 H   0  0  0  0  0  0  0  0  0  0  0  0
  149.9118  152.4165  133.9786 H   0  0  0  0  0  0  0  0  0  0  0  0
  143.5706  155.6689  135.5145 H   0  0  0  0  0  0  0  0  0  0  0  0
  1  2  1  0
  2  3  1  0
  3  4  2  0
  4  5  1  0
  5  6  2  0
  6  7  1  0
  7  8  2  0
  8  9  1  0
  9 10  1  0
  9 11  2  0
  8 12  1  0
 12 13  1  0
 13 14  2  0
 13 15  1  0
 15 16  1  0
 16 17  1  0
 17 18  1  0
 18 19  2  0
 18 20  1  0
 20 21  1  0
 21 22  1  0
 21 23  1  0
 23 24  2  0
 23 25  1  0
 25 26  1  0
 26 27  1  0
 26 28  1  0
 26 29  1  0
 12 30  1  0
 30 31  2  0
 31  3  1  0
 30  6  1  0
  1 32  1  0
  1 33  1  0
  1 34  1  0
  2 35  1  0
  4 36  1  0
  5 37  1  0
  7 38  1  0
 10 39  1  0
 16 40  1  0
 16 41  1  0
 20 42  1  0
 20 43  1  0
 22 44  1  0
 22 45  1  0
 22 46  1  0
 27 47  1  0
 27 48  1  0
 27 49  1  0
 28 50  1  0
 28 51  1  0
 28 52  1  0
 29 53  1  0
 29 54  1  0
 29 55  1  0
 31 56  1  0
M  CHG  1  10  -1
M  END
>  <UniqueID>  (6) 
6

>  <SMILES>  (6) 
CNc1ccc2cc(C([NH-])=O)n(C(=O)OCOC(=O)CN(C)C(=O)OC(C)(C)C)c2c1

>  <Energy>  (6) 
77.16109871570181

>  <Genealogy>  (6) 
CNc1ccc2cc(C([NH-])=O)n(C(=O)OCOC(=O)CN(C)C(=O)OC(C)(C)C)c2c1 (protonated)
CNc1ccc2cc(C([NH-])=O)n(C(=O)OCOC(=O)CN(C)C(=O)OC(C)(C)C)c2c1 (3D coordinates assigned)
CNc1ccc2cc(C([NH-])=O)n(C(=O)OCOC(=O)CN(C)C(=O)OC(C)(C)C)c2c1 (optimized conformer: 77.16109871570181 kcal/mol)

>  <smiles>  (6) 
CNc1ccc2cc(C(N)=O)n(C(=O)OCOC(=O)CN(C)C(=O)OC(C)(C)C)c2c1

>  <score_type>  (6) 
oracle

>  <origin>  (6) 
adg

>  <m_score__min__energy>  (6) 
-7.1600000000000001

>  <m_primary>  (6) 
energy

$$$$
6:0
     RDKit          3D

 47 49  0  0  0  0  0  0  0  0999 V2000
  149.0830  154.0110  132.5470 C   0  0  0  0  0  0  0  0  0  0  0  0
  147.7300  154.4730  132.8820 N   0  0  0  0  0  0  0  0  0  0  0  0
  146.6570  153.4800  133.0170 C   0  0  0  0  0  0  0  0  0  0  0  0
  147.4580  155.8870  133.0740 C   0  0  0  0  0  0  0  0  0  0  0  0
  148.5260  156.8190  133.2090 C   0  0  0  0  0  0  0  0  0  0  0  0
  148.2740  158.1870  133.4080 C   0  0  0  0  0  0  0  0  0  0  0  0
  146.9510  158.6060  133.4610 C   0  0  0  0  0  0  0  0  0  0  0  0
  146.4300  159.8620  133.6720 C   0  0  0  0  0  0  0  0  0  0  0  0
  145.0480  159.6990  133.6390 C   0  0  0  0  0  0  0  0  0  0  0  0
  144.0940  160.8230  133.7420 C   0  0  0  0  0  0  0  0  0  0  0  0
  142.7220  160.6530  133.3980 N   0  0  0  0  0  0  0  0  0  0  0  0
  144.5070  161.9610  134.0900 O   0  0  0  0  0  0  0  0  0  0  0  0
  144.7270  158.3910  133.4250 N   0  0  0  0  0  0  0  0  0  0  0  0
  143.4180  157.8010  133.4280 C   0  0  0  0  0  0  0  0  0  0  0  0
  142.6990  157.8510  132.3930 O   0  0  0  0  0  0  0  0  0  0  0  0
  142.9530  157.1540  134.5760 O   0  0  0  0  0  0  0  0  0  0  0  0
  142.0010  157.7380  135.4590 C   0  0  0  0  0  0  0  0  0  0  0  0
  140.7320  157.1220  135.2690 O   0  0  0  0  0  0  0  0  0  0  0  0
  140.1860  156.8800  134.0030 C   0  0  0  0  0  0  0  0  0  0  0  0
  139.9900  155.6940  133.6150 O   0  0  0  0  0  0  0  0  0  0  0  0
  139.8380  158.0150  133.1210 C   0  0  0  0  0  0  0  0  0  0  0  0
  139.1000  157.8160  131.9430 C   0  0  0  0  0  0  0  0  0  0  0  0
  138.7810  158.9000  131.1240 C   0  0  0  0  0  0  0  0  0  0  0  0
  139.2010  160.1850  131.4870 C   0  0  0  0  0  0  0  0  0  0  0  0
  138.8870  161.3090  130.6660 N   0  0  0  0  0  0  0  0  0  0  0  0
  139.9150  160.3610  132.6320 N   0  0  0  0  0  0  0  0  0  0  0  0
  140.2380  159.3210  133.4460 C   0  0  0  0  0  0  0  0  0  0  0  0
  145.9050  157.7360  133.3170 C   0  0  0  0  0  0  0  0  0  0  0  0
  146.1230  156.3650  133.1370 C   0  0  0  0  0  0  0  0  0  0  0  0
  149.6447  153.8192  133.4731 H   0  0  0  0  0  0  0  0  0  0  0  0
  149.0187  153.0839  131.9585 H   0  0  0  0  0  0  0  0  0  0  0  0
  149.5991  154.7838  131.9585 H   0  0  0  0  0  0  0  0  0  0  0  0
  146.4590  153.2968  134.0834 H   0  0  0  0  0  0  0  0  0  0  0  0
  145.7440  153.8588  132.5344 H   0  0  0  0  0  0  0  0  0  0  0  0
  146.9641  152.5404  132.5344 H   0  0  0  0  0  0  0  0  0  0  0  0
  149.5652  156.4623  133.1566 H   0  0  0  0  0  0  0  0  0  0  0  0
  149.1002  158.9048  133.5185 H   0  0  0  0  0  0  0  0  0  0  0  0
  146.9874  160.7966  133.8327 H   0  0  0  0  0  0  0  0  0  0  0  0
  142.4360  160.0020  132.6330 H   0  0  0  0  0  0  0  0  0  0  0  0
  142.3276  157.5902  136.4990 H   0  0  0  0  0  0  0  0  0  0  0  0
  141.9195  158.8145  135.2478 H   0  0  0  0  0  0  0  0  0  0  0  0
  138.7726  156.8033  131.6651 H   0  0  0  0  0  0  0  0  0  0  0  0
  138.2040  158.7458  130.2003 H   0  0  0  0  0  0  0  0  0  0  0  0
  138.0050  161.8450  130.8230 H   0  0  0  0  0  0  0  0  0  0  0  0
  139.5310  161.6110  129.9010 H   0  0  0  0  0  0  0  0  0  0  0  0
  140.8158  159.5037  134.3640 H   0  0  0  0  0  0  0  0  0  0  0  0
  145.2748  155.6705  133.0460 H   0  0  0  0  0  0  0  0  0  0  0  0
  1  2  1  0
  2  3  1  0
  2  4  1  0
  4  5  2  0
  5  6  1  0
  6  7  2  0
  7  8  1  0
  8  9  2  0
  9 10  1  0
 10 11  1  0
 10 12  2  0
  9 13  1  0
 13 14  1  0
 14 15  2  0
 14 16  1  0
 16 17  1  0
 17 18  1  0
 18 19  1  0
 19 20  2  0
 19 21  1  0
 21 22  2  0
 22 23  1  0
 23 24  2  0
 24 25  1  0
 24 26  1  0
 26 27  2  0
 13 28  1  0
 28 29  2  0
 29  4  1  0
 28  7  1  0
 27 21  1  0
  1 30  1  0
  1 31  1  0
  1 32  1  0
  3 33  1  0
  3 34  1  0
  3 35  1  0
  5 36  1  0
  6 37  1  0
  8 38  1  0
 11 39  1  0
 17 40  1  0
 17 41  1  0
 22 42  1  0
 23 43  1  0
 25 44  1  0
 25 45  1  0
 27 46  1  0
 29 47  1  0
M  CHG  1  11  -1
M  END
>  <UniqueID>  (7) 
7

>  <SMILES>  (7) 
CN(C)c1ccc2cc(C([NH-])=O)n(C(=O)OCOC(=O)c3ccc(N)nc3)c2c1

>  <Energy>  (7) 
86.4706552579969

>  <Genealogy>  (7) 
CN(C)c1ccc2cc(C([NH-])=O)n(C(=O)OCOC(=O)c3ccc(N)nc3)c2c1 (protonated)
CN(C)c1ccc2cc(C([NH-])=O)n(C(=O)OCOC(=O)c3ccc(N)nc3)c2c1 (3D coordinates assigned)
CN(C)c1ccc2cc(C([NH-])=O)n(C(=O)OCOC(=O)c3ccc(N)nc3)c2c1 (optimized conformer: 86.4706552579969 kcal/mol)

>  <smiles>  (7) 
CN(C)c1ccc2cc(C(N)=O)n(C(=O)OCOC(=O)c3ccc(N)nc3)c2c1

>  <score_type>  (7) 
oracle

>  <origin>  (7) 
adg

>  <m_score__min__energy>  (7) 
-7.6900000000000004

>  <m_primary>  (7) 
energy

$$$$
7:0
     RDKit          3D

 34 35  0  0  0  0  0  0  0  0999 V2000
  142.6610  158.7950  132.5980 H   0  0  0  0  0  0  0  0  0  0  0  0
  142.8200  159.6520  133.1740 N   0  0  0  0  0  0  0  0  0  0  0  0
  144.1350  160.0350  133.5700 C   0  0  0  0  0  0  0  0  0  0  0  0
  144.3240  161.1890  134.0390 O   0  0  0  0  0  0  0  0  0  0  0  0
  145.2790  159.1160  133.3990 C   0  0  0  0  0  0  0  0  0  0  0  0
  146.5940  159.5440  133.2220 C   0  0  0  0  0  0  0  0  0  0  0  0
  146.9676  160.5784  133.2431 H   0  0  0  0  0  0  0  0  0  0  0  0
  147.3260  158.3950  133.0150 C   0  0  0  0  0  0  0  0  0  0  0  0
  148.6880  158.2270  132.7790 C   0  0  0  0  0  0  0  0  0  0  0  0
  149.3654  159.0921  132.7258 H   0  0  0  0  0  0  0  0  0  0  0  0
  149.1700  156.9180  132.6110 C   0  0  0  0  0  0  0  0  0  0  0  0
  150.2396  156.7525  132.4147 H   0  0  0  0  0  0  0  0  0  0  0  0
  148.2910  155.8080  132.6920 C   0  0  0  0  0  0  0  0  0  0  0  0
  148.8130  154.4120  132.4810 C   0  0  0  0  0  0  0  0  0  0  0  0
  148.4791  154.0459  131.4989 H   0  0  0  0  0  0  0  0  0  0  0  0
  149.9119  154.4340  132.5257 H   0  0  0  0  0  0  0  0  0  0  0  0
  148.2940  153.4720  133.5710 C   0  0  0  0  0  0  0  0  0  0  0  0
  149.1205  152.8420  133.9316 H   0  0  0  0  0  0  0  0  0  0  0  0
  147.8902  154.0713  134.4003 H   0  0  0  0  0  0  0  0  0  0  0  0
  147.2770  152.6540  133.0590 O   0  0  0  0  0  0  0  0  0  0  0  0
  146.5780  152.5970  133.7610 H   0  0  0  0  0  0  0  0  0  0  0  0
  146.9130  156.0190  132.9210 C   0  0  0  0  0  0  0  0  0  0  0  0
  146.2132  155.1721  132.9767 H   0  0  0  0  0  0  0  0  0  0  0  0
  146.4630  157.3340  133.0750 C   0  0  0  0  0  0  0  0  0  0  0  0
  145.2060  157.7580  133.3160 N   0  0  0  0  0  0  0  0  0  0  0  0
  144.0610  156.9170  133.5070 C   0  0  0  0  0  0  0  0  0  0  0  0
  143.3350  156.6330  132.5180 O   0  0  0  0  0  0  0  0  0  0  0  0
  143.7320  156.4220  134.8620 C   0  0  0  0  0  0  0  0  0  0  0  0
  143.1466  157.0905  135.5104 H   0  0  0  0  0  0  0  0  0  0  0  0
  144.0830  155.2320  135.3710 C   0  0  0  0  0  0  0  0  0  0  0  0
  143.6132  154.9348  136.3202 H   0  0  0  0  0  0  0  0  0  0  0  0
  145.0420  154.2870  134.7720 C   0  0  0  0  0  0  0  0  0  0  0  0
  144.8320  153.8510  133.6100 O   0  0  0  0  0  0  0  0  0  0  0  0
  146.1190  153.7920  135.4970 O   0  0  0  0  0  0  0  0  0  0  0  0
  1  2  1  0
  2  3  1  0
  3  4  2  0
  3  5  1  0
  5  6  2  0
  6  7  1  0
  6  8  1  0
  8  9  2  0
  9 10  1  0
  9 11  1  0
 11 12  1  0
 11 13  2  0
 13 14  1  0
 14 15  1  0
 14 16  1  0
 14 17  1  0
 17 18  1  0
 17 19  1  0
 17 20  1  0
 20 21  1  0
 13 22  1  0
 22 23  1  0
 22 24  2  0
 24 25  1  0
 25 26  1  0
 26 27  2  0
 26 28  1  0
 28 29  1  0
 28 30  2  0
 30 31  1  0
 30 32  1  0
 32 33  2  0
 32 34  1  0
 25  5  1  0
 24  8  1  0
M  CHG  2   2  -1  34  -1
M  END
>  <UniqueID>  (8) 
8

>  <SMILES>  (8) 
[NH-]C(=O)c1cc2ccc(CCO)cc2n1C(=O)/C=C\C(=O)[O-]

>  <Energy>  (8) 
77.26134996943439

>  <Genealogy>  (8) 
[NH-]C(=O)c1cc2ccc(CCO)cc2n1C(=O)C=CC(=O)[O-] (protonated)
[NH-]C(=O)c1cc2ccc(CCO)cc2n1C(=O)/C=C\C(=O)[O-] (cis-trans isomerization)
[NH-]C(=O)c1cc2ccc(CCO)cc2n1C(=O)/C=C\C(=O)[O-] (3D coordinates assigned)
[NH-]C(=O)c1cc2ccc(CCO)cc2n1C(=O)/C=C\C(=O)[O-] (optimized conformer: 77.26134996943439 kcal/mol)

>  <smiles>  (8) 
NC(=O)c1cc2ccc(CCO)cc2n1C(=O)C=CC(=O)O

>  <score_type>  (8) 
oracle

>  <origin>  (8) 
adg

>  <m_score__min__energy>  (8) 
-6.7400000000000002

>  <m_primary>  (8) 
energy

$$$$
8:0
     RDKit          3D

 42 43  0  0  0  0  0  0  0  0999 V2000
  147.6740  160.1700  132.5610 C   0  0  0  0  0  0  0  0  0  0  0  0
  146.6700  159.1790  132.9570 N   0  0  0  0  0  0  0  0  0  0  0  0
  147.0130  157.7540  132.9830 C   0  0  0  0  0  0  0  0  0  0  0  0
  145.3480  159.6280  133.3290 C   0  0  0  0  0  0  0  0  0  0  0  0
  145.0930  160.8640  133.3540 O   0  0  0  0  0  0  0  0  0  0  0  0
  144.2720  158.6520  133.7370 C   0  0  0  0  0  0  0  0  0  0  0  0
  143.5470  158.1870  132.6120 O   0  0  0  0  0  0  0  0  0  0  0  0
  143.0220  156.8990  132.8560 C   0  0  0  0  0  0  0  0  0  0  0  0
  141.6170  156.8930  132.6200 O   0  0  0  0  0  0  0  0  0  0  0  0
  140.6770  157.0640  133.6390 C   0  0  0  0  0  0  0  0  0  0  0  0
  139.5640  156.4720  133.5820 O   0  0  0  0  0  0  0  0  0  0  0  0
  140.9730  157.9320  134.7440 N   0  0  0  0  0  0  0  0  0  0  0  0
  141.2640  159.2640  134.7110 C   0  0  0  0  0  0  0  0  0  0  0  0
  141.2030  160.1370  133.5210 C   0  0  0  0  0  0  0  0  0  0  0  0
  140.9790  159.5660  132.2330 N   0  0  0  0  0  0  0  0  0  0  0  0
  141.3830  161.3790  133.6200 O   0  0  0  0  0  0  0  0  0  0  0  0
  141.5520  159.7320  135.9910 C   0  0  0  0  0  0  0  0  0  0  0  0
  141.4190  158.6410  136.8180 C   0  0  0  0  0  0  0  0  0  0  0  0
  141.5840  158.5370  138.1950 C   0  0  0  0  0  0  0  0  0  0  0  0
  141.3980  157.2780  138.7880 C   0  0  0  0  0  0  0  0  0  0  0  0
  141.0780  156.1440  137.9980 C   0  0  0  0  0  0  0  0  0  0  0  0
  140.8430  154.8050  138.6510 C   0  0  0  0  0  0  0  0  0  0  0  0
  139.5080  154.6470  138.9800 F   0  0  0  0  0  0  0  0  0  0  0  0
  141.6030  154.7230  139.8030 F   0  0  0  0  0  0  0  0  0  0  0  0
  141.2040  153.7760  137.7990 F   0  0  0  0  0  0  0  0  0  0  0  0
  140.8960  156.2960  136.6040 C   0  0  0  0  0  0  0  0  0  0  0  0
  141.0700  157.5670  136.0430 C   0  0  0  0  0  0  0  0  0  0  0  0
  148.1247  160.6149  133.4604 H   0  0  0  0  0  0  0  0  0  0  0  0
  148.4564  159.6803  131.9627 H   0  0  0  0  0  0  0  0  0  0  0  0
  147.1946  160.9588  131.9627 H   0  0  0  0  0  0  0  0  0  0  0  0
  147.0945  157.4155  134.0264 H   0  0  0  0  0  0  0  0  0  0  0  0
  146.2277  157.1784  132.4710 H   0  0  0  0  0  0  0  0  0  0  0  0
  147.9742  157.5988  132.4710 H   0  0  0  0  0  0  0  0  0  0  0  0
  144.7392  157.7938  134.2422 H   0  0  0  0  0  0  0  0  0  0  0  0
  143.5731  159.1672  134.4124 H   0  0  0  0  0  0  0  0  0  0  0  0
  143.5072  156.1747  132.1852 H   0  0  0  0  0  0  0  0  0  0  0  0
  143.2135  156.6234  133.9036 H   0  0  0  0  0  0  0  0  0  0  0  0
  141.6620  158.8960  131.8160 H   0  0  0  0  0  0  0  0  0  0  0  0
  141.8275  160.7571  136.2794 H   0  0  0  0  0  0  0  0  0  0  0  0
  141.8522  159.4147  138.8013 H   0  0  0  0  0  0  0  0  0  0  0  0
  141.5016  157.1697  139.8777 H   0  0  0  0  0  0  0  0  0  0  0  0
  140.6240  155.4356  135.9749 H   0  0  0  0  0  0  0  0  0  0  0  0
  1  2  1  0
  2  3  1  0
  2  4  1  0
  4  5  2  0
  4  6  1  0
  6  7  1  0
  7  8  1  0
  8  9  1  0
  9 10  1  0
 10 11  2  0
 10 12  1  0
 12 13  1  0
 13 14  1  0
 14 15  1  0
 14 16  2  0
 13 17  2  0
 17 18  1  0
 18 19  2  0
 19 20  1  0
 20 21  2  0
 21 22  1  0
 22 23  1  0
 22 24  1  0
 22 25  1  0
 21 26  1  0
 26 27  2  0
 27 12  1  0
 27 18  1  0
  1 28  1  0
  1 29  1  0
  1 30  1  0
  3 31  1  0
  3 32  1  0
  3 33  1  0
  6 34  1  0
  6 35  1  0
  8 36  1  0
  8 37  1  0
 15 38  1  0
 17 39  1  0
 19 40  1  0
 20 41  1  0
 26 42  1  0
M  CHG  1  15  -1
M  END
>  <UniqueID>  (9) 
9

>  <SMILES>  (9) 
CN(C)C(=O)COCOC(=O)n1c(C([NH-])=O)cc2ccc(C(F)(F)F)cc21

>  <Energy>  (9) 
79.66067316291397

>  <Genealogy>  (9) 
CN(C)C(=O)COCOC(=O)n1c(C([NH-])=O)cc2ccc(C(F)(F)F)cc21 (protonated)
CN(C)C(=O)COCOC(=O)n1c(C([NH-])=O)cc2ccc(C(F)(F)F)cc21 (3D coordinates assigned)
CN(C)C(=O)COCOC(=O)n1c(C([NH-])=O)cc2ccc(C(F)(F)F)cc21 (optimized conformer: 79.66067316291397 kcal/mol)

>  <smiles>  (9) 
CN(C)C(=O)COCOC(=O)n1c(C(N)=O)cc2ccc(C(F)(F)F)cc21

>  <score_type>  (9) 
oracle

>  <origin>  (9) 
adg

>  <m_score__min__energy>  (9) 
-5.9900000000000002

>  <m_primary>  (9) 
energy

$$$$
9:0
     RDKit          3D

 35 36  0  0  0  0  0  0  0  0999 V2000
  143.6240  154.1520  133.1500 C   0  0  0  0  0  0  0  0  0  0  0  0
  143.1000  155.4940  132.9220 N   0  0  0  0  0  0  0  0  0  0  0  0
  143.8790  156.6900  133.0960 C   0  0  0  0  0  0  0  0  0  0  0  0
  145.3000  156.6690  133.0420 C   0  0  0  0  0  0  0  0  0  0  0  0
  146.0430  157.8440  133.2420 C   0  0  0  0  0  0  0  0  0  0  0  0
  145.3480  159.0240  133.4850 C   0  0  0  0  0  0  0  0  0  0  0  0
  145.8190  160.2910  133.7430 C   0  0  0  0  0  0  0  0  0  0  0  0
  144.6820  161.0780  133.9200 C   0  0  0  0  0  0  0  0  0  0  0  0
  144.7330  162.5390  134.1420 C   0  0  0  0  0  0  0  0  0  0  0  0
  143.9850  163.4310  133.3170 N   0  0  0  0  0  0  0  0  0  0  0  0
  145.4840  163.0100  135.0400 O   0  0  0  0  0  0  0  0  0  0  0  0
  143.5530  160.3250  133.7850 N   0  0  0  0  0  0  0  0  0  0  0  0
  142.1920  160.7450  133.9650 C   0  0  0  0  0  0  0  0  0  0  0  0
  141.8540  161.9210  133.6640 O   0  0  0  0  0  0  0  0  0  0  0  0
  141.2300  159.8240  134.5010 N   0  0  0  0  0  0  0  0  0  0  0  0
  140.1520  159.1610  133.7620 C   0  0  1  0  0  0  0  0  0  0  0  0
  140.3670  159.2560  132.2460 C   0  0  0  0  0  0  0  0  0  0  0  0
  139.9820  157.7390  134.2200 C   0  0  0  0  0  0  0  0  0  0  0  0
  139.4510  157.4830  135.3370 O   0  0  0  0  0  0  0  0  0  0  0  0
  140.4040  156.6910  133.4000 O   0  0  0  0  0  0  0  0  0  0  0  0
  143.9780  159.0710  133.5160 C   0  0  0  0  0  0  0  0  0  0  0  0
  143.2120  157.9120  133.3400 C   0  0  0  0  0  0  0  0  0  0  0  0
  143.6968  153.9656  134.2317 H   0  0  0  0  0  0  0  0  0  0  0  0
  142.9486  153.4125  132.6951 H   0  0  0  0  0  0  0  0  0  0  0  0
  144.6218  154.0658  132.6951 H   0  0  0  0  0  0  0  0  0  0  0  0
  142.1070  155.5800  132.6060 H   0  0  0  0  0  0  0  0  0  0  0  0
  145.8229  155.7222  132.8414 H   0  0  0  0  0  0  0  0  0  0  0  0
  147.1424  157.8314  133.2075 H   0  0  0  0  0  0  0  0  0  0  0  0
  146.8691  160.6140  133.7979 H   0  0  0  0  0  0  0  0  0  0  0  0
  143.0230  163.7330  133.5900 H   0  0  0  0  0  0  0  0  0  0  0  0
  139.2140  159.6916  133.9825 H   0  0  0  0  0  0  0  0  0  0  0  0
  141.3558  159.6929  132.0426 H   0  0  0  0  0  0  0  0  0  0  0  0
  140.3127  158.2501  131.8042 H   0  0  0  0  0  0  0  0  0  0  0  0
  139.5867  159.8931  131.8042 H   0  0  0  0  0  0  0  0  0  0  0  0
  142.1139  157.9518  133.3906 H   0  0  0  0  0  0  0  0  0  0  0  0
  1  2  1  0
  2  3  1  0
  3  4  2  0
  4  5  1  0
  5  6  2  0
  6  7  1  0
  7  8  2  0
  8  9  1  0
  9 10  1  0
  9 11  2  0
  8 12  1  0
 12 13  1  0
 13 14  2  0
 13 15  1  0
 15 16  1  0
 16 17  1  0
 16 18  1  0
 18 19  2  0
 18 20  1  0
 12 21  1  0
 21 22  2  0
 22  3  1  0
 21  6  1  0
  1 23  1  0
  1 24  1  0
  1 25  1  0
  2 26  1  0
  4 27  1  0
  5 28  1  0
  7 29  1  0
 10 30  1  0
 16 31  1  6
 17 32  1  0
 17 33  1  0
 17 34  1  0
 22 35  1  0
M  CHG  3  10  -1  15  -1  20  -1
M  END
>  <UniqueID>  (10) 
10

>  <SMILES>  (10) 
CNc1ccc2cc(C([NH-])=O)n(C(=O)[N-][C@@H](C)C(=O)[O-])c2c1

>  <Energy>  (10) 
70.97286710730319

>  <Genealogy>  (10) 
CNc1ccc2cc(C([NH-])=O)n(C(=O)[N-]C(C)C(=O)[O-])c2c1 (protonated)
CNc1ccc2cc(C([NH-])=O)n(C(=O)[N-][C@@H](C)C(=O)[O-])c2c1 (chirality)
CNc1ccc2cc(C([NH-])=O)n(C(=O)[N-][C@@H](C)C(=O)[O-])c2c1 (3D coordinates assigned)
CNc1ccc2cc(C([NH-])=O)n(C(=O)[N-][C@@H](C)C(=O)[O-])c2c1 (optimized conformer: 70.97286710730319 kcal/mol)

>  <smiles>  (10) 
CNc1ccc2cc(C(N)=O)n(C(=O)NC(C)C(=O)O)c2c1

>  <score_type>  (10) 
oracle

>  <origin>  (10) 
adg

>  <m_score__min__energy>  (10) 
-7.0599999999999996

>  <m_primary>  (10) 
energy

$$$$
10:0
     RDKit          3D

 44 45  0  0  0  0  0  0  0  0999 V2000
  142.6180  161.1350  133.7280 N   0  0  0  0  0  0  0  0  0  0  0  0
  144.0190  161.3840  133.7360 C   0  0  0  0  0  0  0  0  0  0  0  0
  144.4330  162.5740  133.7520 O   0  0  0  0  0  0  0  0  0  0  0  0
  144.9950  160.2760  133.6600 C   0  0  0  0  0  0  0  0  0  0  0  0
  146.3680  160.4880  133.5630 C   0  0  0  0  0  0  0  0  0  0  0  0
  146.9210  159.2400  133.4100 C   0  0  0  0  0  0  0  0  0  0  0  0
  148.2540  158.8670  133.2720 C   0  0  0  0  0  0  0  0  0  0  0  0
  148.5480  157.5000  133.1550 C   0  0  0  0  0  0  0  0  0  0  0  0
  147.5110  156.5320  133.1680 C   0  0  0  0  0  0  0  0  0  0  0  0
  147.8350  155.0610  133.1040 C   0  0  0  0  0  0  0  0  0  0  0  0
  146.7520  154.3790  132.5810 F   0  0  0  0  0  0  0  0  0  0  0  0
  148.9370  154.8450  132.2950 F   0  0  0  0  0  0  0  0  0  0  0  0
  148.1180  154.5610  134.3630 F   0  0  0  0  0  0  0  0  0  0  0  0
  146.1700  156.9500  133.3350 C   0  0  0  0  0  0  0  0  0  0  0  0
  145.9020  158.3230  133.4290 C   0  0  0  0  0  0  0  0  0  0  0  0
  144.7080  158.9420  133.5870 N   0  0  0  0  0  0  0  0  0  0  0  0
  143.4190  158.3060  133.6730 C   0  0  0  0  0  0  0  0  0  0  0  0
  142.8010  157.9860  132.6210 O   0  0  0  0  0  0  0  0  0  0  0  0
  142.8420  158.0720  134.9240 O   0  0  0  0  0  0  0  0  0  0  0  0
  142.1500  159.0630  135.6810 C   0  0  0  0  0  0  0  0  0  0  0  0
  140.8210  159.1830  135.1890 O   0  0  0  0  0  0  0  0  0  0  0  0
  139.8040  158.2870  135.5260 C   0  0  0  0  0  0  0  0  0  0  0  0
  139.6690  157.8820  136.7120 O   0  0  0  0  0  0  0  0  0  0  0  0
  138.8330  157.8510  134.4720 C   0  0  0  0  0  0  0  0  0  0  0  0
  139.4870  157.8570  133.0790 C   0  0  0  0  0  0  0  0  0  0  0  0
  139.5220  159.2560  132.4260 C   0  0  1  0  0  0  0  0  0  0  0  0
  140.9060  159.7090  132.2860 N   0  0  0  0  0  0  0  0  0  0  0  0
  138.8640  159.2250  131.0750 C   0  0  0  0  0  0  0  0  0  0  0  0
  139.5540  159.0430  130.0370 O   0  0  0  0  0  0  0  0  0  0  0  0
  137.4930  159.4260  130.9590 O   0  0  0  0  0  0  0  0  0  0  0  0
  142.2410  160.1730  133.8780 H   0  0  0  0  0  0  0  0  0  0  0  0
  146.8977  161.4513  133.6009 H   0  0  0  0  0  0  0  0  0  0  0  0
  149.0542  159.6216  133.2551 H   0  0  0  0  0  0  0  0  0  0  0  0
  149.5940  157.1754  133.0521 H   0  0  0  0  0  0  0  0  0  0  0  0
  145.3548  156.2135  133.3900 H   0  0  0  0  0  0  0  0  0  0  0  0
  142.1250  158.7663  136.7399 H   0  0  0  0  0  0  0  0  0  0  0  0
  142.6679  160.0289  135.5867 H   0  0  0  0  0  0  0  0  0  0  0  0
  138.4867  156.8325  134.7018 H   0  0  0  0  0  0  0  0  0  0  0  0
  137.9874  158.5545  134.4638 H   0  0  0  0  0  0  0  0  0  0  0  0
  140.5199  157.4915  133.1768 H   0  0  0  0  0  0  0  0  0  0  0  0
  138.8778  157.2102  132.4305 H   0  0  0  0  0  0  0  0  0  0  0  0
  138.9720  159.9547  133.0735 H   0  0  0  0  0  0  0  0  0  0  0  0
  141.3480  159.1780  131.4990 H   0  0  0  0  0  0  0  0  0  0  0  0
  141.4330  159.4270  133.1450 H   0  0  0  0  0  0  0  0  0  0  0  0
  1  2  1  0
  2  3  2  0
  2  4  1  0
  4  5  2  0
  5  6  1  0
  6  7  2  0
  7  8  1  0
  8  9  2  0
  9 10  1  0
 10 11  1  0
 10 12  1  0
 10 13  1  0
  9 14  1  0
 14 15  2  0
 15 16  1  0
 16 17  1  0
 17 18  2  0
 17 19  1  0
 19 20  1  0
 20 21  1  0
 21 22  1  0
 22 23  2  0
 22 24  1  0
 24 25  1  0
 25 26  1  0
 26 27  1  0
 26 28  1  0
 28 29  2  0
 28 30  1  0
 16  4  1  0
 15  6  1  0
  1 31  1  0
  5 32  1  0
  7 33  1  0
  8 34  1  0
 14 35  1  0
 20 36  1  0
 20 37  1  0
 24 38  1  0
 24 39  1  0
 25 40  1  0
 25 41  1  0
 26 42  1  1
 27 43  1  0
 27 44  1  0
M  CHG  2   1  -1  30  -1
M  END
>  <UniqueID>  (11) 
11

>  <SMILES>  (11) 
[NH-]C(=O)c1cc2ccc(C(F)(F)F)cc2n1C(=O)OCOC(=O)CC[C@@H](N)C(=O)[O-]

>  <Energy>  (11) 
75.56430213752475

>  <Genealogy>  (11) 
[NH-]C(=O)c1cc2ccc(C(F)(F)F)cc2n1C(=O)OCOC(=O)CC[C@@H](N)C(=O)[O-] (protonated)
[NH-]C(=O)c1cc2ccc(C(F)(F)F)cc2n1C(=O)OCOC(=O)CC[C@@H](N)C(=O)[O-] (3D coordinates assigned)
[NH-]C(=O)c1cc2ccc(C(F)(F)F)cc2n1C(=O)OCOC(=O)CC[C@@H](N)C(=O)[O-] (optimized conformer: 75.56430213752475 kcal/mol)

>  <smiles>  (11) 
NC(=O)c1cc2ccc(C(F)(F)F)cc2n1C(=O)OCOC(=O)CC[C@@H](N)C(=O)O

>  <score_type>  (11) 
oracle

>  <origin>  (11) 
adg

>  <m_score__min__energy>  (11) 
-6.3899999999999997

>  <m_primary>  (11) 
energy

$$$$
11:0
     RDKit          3D

 42 43  0  0  0  0  0  0  0  0999 V2000
  149.8400  157.4970  132.2120 N   0  0  0  0  0  0  0  0  0  0  0  0
  149.2620  158.7960  132.3230 C   0  0  0  0  0  0  0  0  0  0  0  0
  149.9700  159.8080  132.0800 O   0  0  0  0  0  0  0  0  0  0  0  0
  147.8350  158.9370  132.6800 C   0  0  0  0  0  0  0  0  0  0  0  0
  147.1750  160.1640  132.7290 C   0  0  0  0  0  0  0  0  0  0  0  0
  145.9070  159.8780  133.1820 C   0  0  0  0  0  0  0  0  0  0  0  0
  144.8240  160.7240  133.4030 C   0  0  0  0  0  0  0  0  0  0  0  0
  143.6200  160.1500  133.8400 C   0  0  0  0  0  0  0  0  0  0  0  0
  143.5190  158.7510  134.0450 C   0  0  0  0  0  0  0  0  0  0  0  0
  142.2070  158.1350  134.4500 C   0  0  0  0  0  0  0  0  0  0  0  0
  141.0850  159.0360  134.1450 N   0  0  0  0  0  0  0  0  0  0  0  0
  139.7810  158.4660  134.5270 C   0  0  0  0  0  0  0  0  0  0  0  0
  138.9830  158.1100  133.2730 C   0  0  0  0  0  0  0  0  0  0  0  0
  139.3080  159.3020  131.9360 P   0  0  0  0  0  0  0  0  0  0  0  0
  140.4370  158.7970  131.0660 O   0  0  0  0  0  0  0  0  0  0  0  0
  139.7310  160.8000  132.5970 O   0  0  0  0  0  0  0  0  0  0  0  0
  137.9140  159.4780  130.9950 O   0  0  0  0  0  0  0  0  0  0  0  0
  144.6380  157.9240  133.8090 C   0  0  0  0  0  0  0  0  0  0  0  0
  145.8310  158.5250  133.3890 C   0  0  0  0  0  0  0  0  0  0  0  0
  147.0050  157.9310  133.0820 N   0  0  0  0  0  0  0  0  0  0  0  0
  147.2790  156.5220  133.1170 C   0  0  0  0  0  0  0  0  0  0  0  0
  147.2880  155.8550  132.0470 O   0  0  0  0  0  0  0  0  0  0  0  0
  147.5050  155.8920  134.3460 O   0  0  0  0  0  0  0  0  0  0  0  0
  146.6940  154.8330  134.8480 C   0  0  0  0  0  0  0  0  0  0  0  0
  147.5990  153.8830  136.1090 P   0  0  0  0  0  0  0  0  0  0  0  0
  148.5390  152.9130  135.4300 O   0  0  0  0  0  0  0  0  0  0  0  0
  148.4910  154.9450  137.0740 O   0  0  0  0  0  0  0  0  0  0  0  0
  146.5130  153.0250  137.0810 O   0  0  0  0  0  0  0  0  0  0  0  0
  149.2820  156.6910  131.8500 H   0  0  0  0  0  0  0  0  0  0  0  0
  147.5812  161.1509  132.4624 H   0  0  0  0  0  0  0  0  0  0  0  0
  144.9091  161.8086  133.2403 H   0  0  0  0  0  0  0  0  0  0  0  0
  142.7462  160.7920  134.0252 H   0  0  0  0  0  0  0  0  0  0  0  0
  142.0689  157.1907  133.9030 H   0  0  0  0  0  0  0  0  0  0  0  0
  142.2254  157.9530  135.5347 H   0  0  0  0  0  0  0  0  0  0  0  0
  141.0840  159.1870  133.1100 H   0  0  0  0  0  0  0  0  0  0  0  0
  139.9412  157.5584  135.1275 H   0  0  0  0  0  0  0  0  0  0  0  0
  139.2199  159.2065  135.1159 H   0  0  0  0  0  0  0  0  0  0  0  0
  139.2716  157.1034  132.9361 H   0  0  0  0  0  0  0  0  0  0  0  0
  137.9111  158.1405  133.5181 H   0  0  0  0  0  0  0  0  0  0  0  0
  144.5746  156.8351  133.9514 H   0  0  0  0  0  0  0  0  0  0  0  0
  145.7833  155.2558  135.2972 H   0  0  0  0  0  0  0  0  0  0  0  0
  146.4297  154.1619  134.0175 H   0  0  0  0  0  0  0  0  0  0  0  0
  1  2  1  0
  2  3  2  0
  2  4  1  0
  4  5  2  0
  5  6  1  0
  6  7  2  0
  7  8  1  0
  8  9  2  0
  9 10  1  0
 10 11  1  0
 11 12  1  0
 12 13  1  0
 13 14  1  0
 14 15  2  0
 14 16  1  0
 14 17  1  0
  9 18  1  0
 18 19  2  0
 19 20  1  0
 20 21  1  0
 21 22  2  0
 21 23  1  0
 23 24  1  0
 24 25  1  0
 25 26  2  0
 25 27  1  0
 25 28  1  0
 20  4  1  0
 19  6  1  0
  1 29  1  0
  5 30  1  0
  7 31  1  0
  8 32  1  0
 10 33  1  0
 10 34  1  0
 11 35  1  0
 12 36  1  0
 12 37  1  0
 13 38  1  0
 13 39  1  0
 18 40  1  0
 24 41  1  0
 24 42  1  0
M  CHG  5   1  -1  16  -1  17  -1  27  -1  28  -1
M  END
>  <UniqueID>  (12) 
12

>  <SMILES>  (12) 
[NH-]C(=O)c1cc2ccc(CNCCP(=O)([O-])[O-])cc2n1C(=O)OCP(=O)([O-])[O-]

>  <Energy>  (12) 
69.1806952505524

>  <Genealogy>  (12) 
[NH-]C(=O)c1cc2ccc(CNCCP(=O)([O-])[O-])cc2n1C(=O)OCP(=O)([O-])[O-] (protonated)
[NH-]C(=O)c1cc2ccc(CNCCP(=O)([O-])[O-])cc2n1C(=O)OCP(=O)([O-])[O-] (3D coordinates assigned)
[NH-]C(=O)c1cc2ccc(CNCCP(=O)([O-])[O-])cc2n1C(=O)OCP(=O)([O-])[O-] (optimized conformer: 69.1806952505524 kcal/mol)

>  <smiles>  (12) 
NC(=O)c1cc2ccc(CNCCP(=O)(O)O)cc2n1C(=O)OCP(=O)(O)O

>  <score_type>  (12) 
oracle

>  <origin>  (12) 
adg

>  <m_score__min__energy>  (12) 
-7.5499999999999998

>  <m_primary>  (12) 
energy

$$$$
12:0
     RDKit          3D

 39 40  0  0  0  0  0  0  0  0999 V2000
  145.8890  162.6770  134.6090 N   0  0  0  0  0  0  0  0  0  0  0  0
  145.2130  161.5460  134.0650 C   0  0  0  0  0  0  0  0  0  0  0  0
  143.9780  161.6190  133.8290 O   0  0  0  0  0  0  0  0  0  0  0  0
  145.9750  160.3210  133.7430 C   0  0  0  0  0  0  0  0  0  0  0  0
  147.3430  160.3160  133.4840 C   0  0  0  0  0  0  0  0  0  0  0  0
  147.6460  159.0190  133.1390 C   0  0  0  0  0  0  0  0  0  0  0  0
  148.8660  158.4470  132.7900 C   0  0  0  0  0  0  0  0  0  0  0  0
  148.8920  157.0720  132.5060 C   0  0  0  0  0  0  0  0  0  0  0  0
  147.7070  156.2950  132.5780 C   0  0  0  0  0  0  0  0  0  0  0  0
  147.7530  154.8770  132.3100 N   0  0  0  0  0  0  0  0  0  0  0  0
  148.9850  154.2640  132.8350 C   0  0  0  0  0  0  0  0  0  0  0  0
  148.7800  152.7930  133.2330 C   0  0  0  0  0  0  0  0  0  0  0  0
  147.4730  152.3880  132.9290 O   0  0  0  0  0  0  0  0  0  0  0  0
  146.4870  156.9120  132.9380 C   0  0  0  0  0  0  0  0  0  0  0  0
  146.4870  158.2880  133.1990 C   0  0  0  0  0  0  0  0  0  0  0  0
  145.4520  159.0720  133.5730 N   0  0  0  0  0  0  0  0  0  0  0  0
  144.0990  158.6430  133.7930 C   0  0  0  0  0  0  0  0  0  0  0  0
  143.1460  159.2680  133.2490 O   0  0  0  0  0  0  0  0  0  0  0  0
  143.8500  157.5550  134.6390 O   0  0  0  0  0  0  0  0  0  0  0  0
  143.8080  156.2140  134.2350 C   0  0  0  0  0  0  0  0  0  0  0  0
  143.3540  155.8830  133.1060 O   0  0  0  0  0  0  0  0  0  0  0  0
  144.3570  155.1650  135.1470 C   0  0  0  0  0  0  0  0  0  0  0  0
  145.4160  154.3810  134.4420 C   0  0  0  0  0  0  0  0  0  0  0  0
  145.1360  153.7310  133.4010 O   0  0  0  0  0  0  0  0  0  0  0  0
  146.7250  154.4070  134.9060 O   0  0  0  0  0  0  0  0  0  0  0  0
  146.9290  162.6890  134.6990 H   0  0  0  0  0  0  0  0  0  0  0  0
  148.0353  161.1688  133.5428 H   0  0  0  0  0  0  0  0  0  0  0  0
  149.7821  159.0537  132.7382 H   0  0  0  0  0  0  0  0  0  0  0  0
  149.8411  156.5923  132.2247 H   0  0  0  0  0  0  0  0  0  0  0  0
  146.9130  154.3950  132.7120 H   0  0  0  0  0  0  0  0  0  0  0  0
  147.7230  154.7290  131.2740 H   0  0  0  0  0  0  0  0  0  0  0  0
  149.7640  154.3157  132.0601 H   0  0  0  0  0  0  0  0  0  0  0  0
  149.2794  154.8194  133.7377 H   0  0  0  0  0  0  0  0  0  0  0  0
  149.4934  152.1640  132.6803 H   0  0  0  0  0  0  0  0  0  0  0  0
  148.9466  152.6869  134.3151 H   0  0  0  0  0  0  0  0  0  0  0  0
  146.9190  152.5930  133.7260 H   0  0  0  0  0  0  0  0  0  0  0  0
  145.5595  156.3251  133.0114 H   0  0  0  0  0  0  0  0  0  0  0  0
  144.7904  155.6456  136.0365 H   0  0  0  0  0  0  0  0  0  0  0  0
  143.5452  154.4869  135.4488 H   0  0  0  0  0  0  0  0  0  0  0  0
  1  2  1  0
  2  3  2  0
  2  4  1  0
  4  5  2  0
  5  6  1  0
  6  7  2  0
  7  8  1  0
  8  9  2  0
  9 10  1  0
 10 11  1  0
 11 12  1  0
 12 13  1  0
  9 14  1  0
 14 15  2  0
 15 16  1  0
 16 17  1  0
 17 18  2  0
 17 19  1  0
 19 20  1  0
 20 21  2  0
 20 22  1  0
 22 23  1  0
 23 24  2  0
 23 25  1  0
 16  4  1  0
 15  6  1  0
  1 26  1  0
  5 27  1  0
  7 28  1  0
  8 29  1  0
 10 30  1  0
 10 31  1  0
 11 32  1  0
 11 33  1  0
 12 34  1  0
 12 35  1  0
 13 36  1  0
 14 37  1  0
 22 38  1  0
 22 39  1  0
M  CHG  3   1  -1  10   1  25  -1
M  END
>  <UniqueID>  (13) 
13

>  <SMILES>  (13) 
[NH-]C(=O)c1cc2ccc([NH2+]CCO)cc2n1C(=O)OC(=O)CC(=O)[O-]

>  <Energy>  (13) 
75.35836695439289

>  <Genealogy>  (13) 
[NH-]C(=O)c1cc2ccc([NH2+]CCO)cc2n1C(=O)OC(=O)CC(=O)[O-] (protonated)
[NH-]C(=O)c1cc2ccc([NH2+]CCO)cc2n1C(=O)OC(=O)CC(=O)[O-] (3D coordinates assigned)
[NH-]C(=O)c1cc2ccc([NH2+]CCO)cc2n1C(=O)OC(=O)CC(=O)[O-] (optimized conformer: 75.35836695439289 kcal/mol)

>  <smiles>  (13) 
NC(=O)c1cc2ccc(NCCO)cc2n1C(=O)OC(=O)CC(=O)O

>  <score_type>  (13) 
oracle

>  <origin>  (13) 
adg

>  <m_score__min__energy>  (13) 
-4.9900000000000002

>  <m_primary>  (13) 
energy

$$$$
13:0
     RDKit          3D

 45 46  0  0  0  0  0  0  0  0999 V2000
  142.4730  160.1020  132.9840 N   0  0  0  0  0  0  0  0  0  0  0  0
  143.7810  160.3680  133.4910 C   0  0  0  0  0  0  0  0  0  0  0  0
  144.0040  161.4560  134.0860 O   0  0  0  0  0  0  0  0  0  0  0  0
  144.8600  159.3640  133.3920 C   0  0  0  0  0  0  0  0  0  0  0  0
  146.2130  159.6940  133.3840 C   0  0  0  0  0  0  0  0  0  0  0  0
  146.8780  158.4900  133.3440 C   0  0  0  0  0  0  0  0  0  0  0  0
  148.2440  158.2250  133.3150 C   0  0  0  0  0  0  0  0  0  0  0  0
  148.6540  156.8840  133.2410 C   0  0  0  0  0  0  0  0  0  0  0  0
  147.6990  155.8360  133.1650 C   0  0  0  0  0  0  0  0  0  0  0  0
  148.1530  154.3990  133.1150 C   0  0  0  0  0  0  0  0  0  0  0  0
  147.1510  153.5880  132.6090 F   0  0  0  0  0  0  0  0  0  0  0  0
  149.2640  154.3020  132.3000 F   0  0  0  0  0  0  0  0  0  0  0  0
  148.4800  153.9440  134.3790 F   0  0  0  0  0  0  0  0  0  0  0  0
  146.3200  156.1450  133.2220 C   0  0  0  0  0  0  0  0  0  0  0  0
  145.9400  157.4910  133.3180 C   0  0  0  0  0  0  0  0  0  0  0  0
  144.6930  158.0130  133.3480 N   0  0  0  0  0  0  0  0  0  0  0  0
  143.4550  157.2940  133.2150 C   0  0  0  0  0  0  0  0  0  0  0  0
  142.9080  157.1850  132.0840 O   0  0  0  0  0  0  0  0  0  0  0  0
  142.8620  156.7160  134.3410 O   0  0  0  0  0  0  0  0  0  0  0  0
  142.5210  155.3360  134.4120 C   0  0  0  0  0  0  0  0  0  0  0  0
  141.1050  155.1980  134.3720 O   0  0  0  0  0  0  0  0  0  0  0  0
  140.2710  156.1240  133.7390 C   0  0  0  0  0  0  0  0  0  0  0  0
  139.8490  155.9150  132.5690 O   0  0  0  0  0  0  0  0  0  0  0  0
  139.8830  157.3810  134.4610 C   0  0  1  0  0  0  0  0  0  0  0  0
  140.9450  158.3770  134.2910 N   0  0  0  0  0  0  0  0  0  0  0  0
  138.5180  157.8880  133.9420 C   0  0  0  0  0  0  0  0  0  0  0  0
  138.5640  158.2770  132.4570 C   0  0  0  0  0  0  0  0  0  0  0  0
  139.6990  159.2120  132.1720 C   0  0  0  0  0  0  0  0  0  0  0  0
  140.6930  158.8150  131.5080 O   0  0  0  0  0  0  0  0  0  0  0  0
  139.6360  160.5380  132.5850 O   0  0  0  0  0  0  0  0  0  0  0  0
  141.7310  160.8340  133.0470 H   0  0  0  0  0  0  0  0  0  0  0  0
  142.2090  159.1520  132.6430 H   0  0  0  0  0  0  0  0  0  0  0  0
  146.6551  160.7010  133.4051 H   0  0  0  0  0  0  0  0  0  0  0  0
  148.9803  159.0415  133.3490 H   0  0  0  0  0  0  0  0  0  0  0  0
  149.7272  156.6427  133.2419 H   0  0  0  0  0  0  0  0  0  0  0  0
  145.5630  155.3475  133.1917 H   0  0  0  0  0  0  0  0  0  0  0  0
  142.9662  154.8032  133.5588 H   0  0  0  0  0  0  0  0  0  0  0  0
  142.9061  154.9094  135.3499 H   0  0  0  0  0  0  0  0  0  0  0  0
  139.7676  157.1851  135.5372 H   0  0  0  0  0  0  0  0  0  0  0  0
  141.5040  158.1560  133.4350 H   0  0  0  0  0  0  0  0  0  0  0  0
  140.5140  159.3190  134.1580 H   0  0  0  0  0  0  0  0  0  0  0  0
  137.7713  157.0914  134.0755 H   0  0  0  0  0  0  0  0  0  0  0  0
  138.2542  158.7882  134.5165 H   0  0  0  0  0  0  0  0  0  0  0  0
  138.6896  157.3667  131.8523 H   0  0  0  0  0  0  0  0  0  0  0  0
  137.6230  158.7872  132.2034 H   0  0  0  0  0  0  0  0  0  0  0  0
  1  2  1  0
  2  3  2  0
  2  4  1  0
  4  5  2  0
  5  6  1  0
  6  7  2  0
  7  8  1  0
  8  9  2  0
  9 10  1  0
 10 11  1  0
 10 12  1  0
 10 13  1  0
  9 14  1  0
 14 15  2  0
 15 16  1  0
 16 17  1  0
 17 18  2  0
 17 19  1  0
 19 20  1  0
 20 21  1  0
 21 22  1  0
 22 23  2  0
 22 24  1  0
 24 25  1  0
 24 26  1  0
 26 27  1  0
 27 28  1  0
 28 29  2  0
 28 30  1  0
 16  4  1  0
 15  6  1  0
  1 31  1  0
  1 32  1  0
  5 33  1  0
  7 34  1  0
  8 35  1  0
 14 36  1  0
 20 37  1  0
 20 38  1  0
 24 39  1  1
 25 40  1  0
 25 41  1  0
 26 42  1  0
 26 43  1  0
 27 44  1  0
 27 45  1  0
M  CHG  1  30  -1
M  END
>  <UniqueID>  (14) 
14

>  <SMILES>  (14) 
NC(=O)c1cc2ccc(C(F)(F)F)cc2n1C(=O)OCOC(=O)[C@@H](N)CCC(=O)[O-]

>  <Energy>  (14) 
76.7382721319735

>  <Genealogy>  (14) 
NC(=O)c1cc2ccc(C(F)(F)F)cc2n1C(=O)OCOC(=O)[C@@H](N)CCC(=O)[O-] (protonated)
NC(=O)c1cc2ccc(C(F)(F)F)cc2n1C(=O)OCOC(=O)[C@@H](N)CCC(=O)[O-] (3D coordinates assigned)
NC(=O)c1cc2ccc(C(F)(F)F)cc2n1C(=O)OCOC(=O)[C@@H](N)CCC(=O)[O-] (optimized conformer: 76.7382721319735 kcal/mol)

>  <smiles>  (14) 
NC(=O)c1cc2ccc(C(F)(F)F)cc2n1C(=O)OCOC(=O)[C@@H](N)CCC(=O)O

>  <score_type>  (14) 
oracle

>  <origin>  (14) 
adg

>  <m_score__min__energy>  (14) 
-6.1699999999999999

>  <m_primary>  (14) 
energy

$$$$
14:0
     RDKit          3D

 46 47  0  0  0  0  0  0  0  0999 V2000
  147.6000  154.9050  134.2150 N   0  0  0  0  0  0  0  0  0  0  0  0
  147.7650  156.1230  133.4940 C   0  0  0  0  0  0  0  0  0  0  0  0
  148.7520  156.2550  132.7230 O   0  0  0  0  0  0  0  0  0  0  0  0
  146.7680  157.2090  133.5990 C   0  0  0  0  0  0  0  0  0  0  0  0
  147.1000  158.5620  133.6010 C   0  0  0  0  0  0  0  0  0  0  0  0
  145.8990  159.2320  133.6570 C   0  0  0  0  0  0  0  0  0  0  0  0
  145.6360  160.5970  133.7280 C   0  0  0  0  0  0  0  0  0  0  0  0
  144.2970  161.0050  133.8510 C   0  0  0  0  0  0  0  0  0  0  0  0
  143.2520  160.0480  133.9070 C   0  0  0  0  0  0  0  0  0  0  0  0
  141.8230  160.4950  134.0800 C   0  0  0  0  0  0  0  0  0  0  0  0
  141.0220  159.6220  135.0640 C   0  0  0  0  0  0  0  0  0  0  0  0
  140.5710  158.2620  134.4890 C   0  0  0  0  0  0  0  0  0  0  0  0
  141.1890  157.0110  135.1540 C   0  0  0  0  0  0  0  0  0  0  0  0
  141.6130  155.9770  134.1990 N   0  0  0  0  0  0  0  0  0  0  0  0
  141.5140  156.4550  132.9260 O   0  0  0  0  0  0  0  0  0  0  0  0
  143.5570  158.6720  133.8020 C   0  0  0  0  0  0  0  0  0  0  0  0
  144.8980  158.2960  133.6810 C   0  0  0  0  0  0  0  0  0  0  0  0
  145.4160  157.0490  133.6490 N   0  0  0  0  0  0  0  0  0  0  0  0
  144.6830  155.8260  133.8160 C   0  0  0  0  0  0  0  0  0  0  0  0
  144.7080  155.2250  134.9250 O   0  0  0  0  0  0  0  0  0  0  0  0
  143.9740  155.2920  132.7350 O   0  0  0  0  0  0  0  0  0  0  0  0
  144.2700  154.0230  132.1550 C   0  0  0  0  0  0  0  0  0  0  0  0
  143.5950  152.9040  132.9490 C   0  0  0  0  0  0  0  0  0  0  0  0
  142.3080  153.3830  133.5410 C   0  0  0  0  0  0  0  0  0  0  0  0
  141.3460  153.7000  132.7940 O   0  0  0  0  0  0  0  0  0  0  0  0
  142.1870  153.5270  134.9180 O   0  0  0  0  0  0  0  0  0  0  0  0
  146.8210  154.7890  134.9020 H   0  0  0  0  0  0  0  0  0  0  0  0
  148.1078  159.0014  133.5654 H   0  0  0  0  0  0  0  0  0  0  0  0
  146.4517  161.3340  133.6890 H   0  0  0  0  0  0  0  0  0  0  0  0
  144.0571  162.0772  133.9044 H   0  0  0  0  0  0  0  0  0  0  0  0
  141.8244  161.5295  134.4538 H   0  0  0  0  0  0  0  0  0  0  0  0
  141.3350  160.4074  133.0981 H   0  0  0  0  0  0  0  0  0  0  0  0
  141.6517  159.4310  135.9455 H   0  0  0  0  0  0  0  0  0  0  0  0
  140.1054  160.1805  135.3045 H   0  0  0  0  0  0  0  0  0  0  0  0
  139.4783  158.1960  134.5965 H   0  0  0  0  0  0  0  0  0  0  0  0
  140.9202  158.2486  133.4460 H   0  0  0  0  0  0  0  0  0  0  0  0
  142.0677  157.3264  135.7358 H   0  0  0  0  0  0  0  0  0  0  0  0
  140.4050  156.5632  135.7824 H   0  0  0  0  0  0  0  0  0  0  0  0
  140.9570  155.1670  134.2780 H   0  0  0  0  0  0  0  0  0  0  0  0
  142.5780  155.6230  134.4050 H   0  0  0  0  0  0  0  0  0  0  0  0
  141.8890  155.7600  132.3220 H   0  0  0  0  0  0  0  0  0  0  0  0
  142.7587  157.9153  133.8152 H   0  0  0  0  0  0  0  0  0  0  0  0
  143.9032  154.0039  131.1181 H   0  0  0  0  0  0  0  0  0  0  0  0
  145.3588  153.8672  132.1735 H   0  0  0  0  0  0  0  0  0  0  0  0
  143.3913  152.0565  132.2781 H   0  0  0  0  0  0  0  0  0  0  0  0
  144.2658  152.5915  133.7629 H   0  0  0  0  0  0  0  0  0  0  0  0
  1  2  1  0
  2  3  2  0
  2  4  1  0
  4  5  2  0
  5  6  1  0
  6  7  2  0
  7  8  1  0
  8  9  2  0
  9 10  1  0
 10 11  1  0
 11 12  1  0
 12 13  1  0
 13 14  1  0
 14 15  1  0
  9 16  1  0
 16 17  2  0
 17 18  1  0
 18 19  1  0
 19 20  2  0
 19 21  1  0
 21 22  1  0
 22 23  1  0
 23 24  1  0
 24 25  2  0
 24 26  1  0
 18  4  1  0
 17  6  1  0
  1 27  1  0
  5 28  1  0
  7 29  1  0
  8 30  1  0
 10 31  1  0
 10 32  1  0
 11 33  1  0
 11 34  1  0
 12 35  1  0
 12 36  1  0
 13 37  1  0
 13 38  1  0
 14 39  1  0
 14 40  1  0
 15 41  1  0
 16 42  1  0
 22 43  1  0
 22 44  1  0
 23 45  1  0
 23 46  1  0
M  CHG  3   1  -1  14   1  26  -1
M  END
>  <UniqueID>  (15) 
15

>  <SMILES>  (15) 
[NH-]C(=O)c1cc2ccc(CCCC[NH2+]O)cc2n1C(=O)OCCC(=O)[O-]

>  <Energy>  (15) 
78.45365754302726

>  <Genealogy>  (15) 
[NH-]C(=O)c1cc2ccc(CCCC[NH2+]O)cc2n1C(=O)OCCC(=O)[O-] (protonated)
[NH-]C(=O)c1cc2ccc(CCCC[NH2+]O)cc2n1C(=O)OCCC(=O)[O-] (3D coordinates assigned)
[NH-]C(=O)c1cc2ccc(CCCC[NH2+]O)cc2n1C(=O)OCCC(=O)[O-] (optimized conformer: 78.45365754302726 kcal/mol)

>  <smiles>  (15) 
NC(=O)c1cc2ccc(CCCCNO)cc2n1C(=O)OCCC(=O)O

>  <score_type>  (15) 
oracle

>  <origin>  (15) 
adg

>  <m_score__min__energy>  (15) 
-6.29

>  <m_primary>  (15) 
energy

$$$$
15:0
     RDKit          3D

 38 39  0  0  0  0  0  0  0  0999 V2000
  142.7987  149.9204  132.9805 H   0  0  0  0  0  0  0  0  0  0  0  0
  142.4240  150.9540  133.0160 C   0  0  0  0  0  0  0  0  0  0  0  0
  141.0270  151.1990  132.9300 C   0  0  0  0  0  0  0  0  0  0  0  0
  140.0830  150.1220  132.7850 N   0  0  0  0  0  0  0  0  0  0  0  0
  139.0970  150.2680  133.1020 H   0  0  0  0  0  0  0  0  0  0  0  0
  140.4230  148.8220  132.2150 C   0  0  0  0  0  0  0  0  0  0  0  0
  140.6109  148.1036  133.0265 H   0  0  0  0  0  0  0  0  0  0  0  0
  139.5883  148.4641  131.5944 H   0  0  0  0  0  0  0  0  0  0  0  0
  141.3261  148.9186  131.5944 H   0  0  0  0  0  0  0  0  0  0  0  0
  140.5490  152.5270  132.9830 C   0  0  0  0  0  0  0  0  0  0  0  0
  139.4723  152.7401  132.9097 H   0  0  0  0  0  0  0  0  0  0  0  0
  141.4760  153.5670  133.1310 C   0  0  0  0  0  0  0  0  0  0  0  0
  142.8200  153.3120  133.1940 C   0  0  0  0  0  0  0  0  0  0  0  0
  143.3320  152.0190  133.1460 C   0  0  0  0  0  0  0  0  0  0  0  0
  144.4149  151.8358  133.2079 H   0  0  0  0  0  0  0  0  0  0  0  0
  143.4740  154.5190  133.2930 C   0  0  0  0  0  0  0  0  0  0  0  0
  144.5590  154.6862  133.3621 H   0  0  0  0  0  0  0  0  0  0  0  0
  142.4690  155.4840  133.2870 C   0  0  0  0  0  0  0  0  0  0  0  0
  142.7130  156.9320  133.4680 C   0  0  0  0  0  0  0  0  0  0  0  0
  143.3250  157.3490  134.4860 O   0  0  0  0  0  0  0  0  0  0  0  0
  142.2910  157.8730  132.4780 N   0  0  0  0  0  0  0  0  0  0  0  0
  142.5020  158.8880  132.5960 H   0  0  0  0  0  0  0  0  0  0  0  0
  141.7340  157.5730  131.6480 H   0  0  0  0  0  0  0  0  0  0  0  0
  141.2430  154.8960  133.1860 N   0  0  0  0  0  0  0  0  0  0  0  0
  139.9670  155.5490  133.0780 C   0  0  0  0  0  0  0  0  0  0  0  0
  138.9190  154.9080  133.3560 O   0  0  0  0  0  0  0  0  0  0  0  0
  139.9080  156.9020  132.5920 N   0  0  0  0  0  0  0  0  0  0  0  0
  139.3850  157.9660  133.1410 C   0  0  0  0  0  0  0  0  0  0  0  0
  139.4180  159.2250  132.3710 C   0  0  0  0  0  0  0  0  0  0  0  0
  138.3660  159.9010  132.2160 O   0  0  0  0  0  0  0  0  0  0  0  0
  140.6070  159.6850  131.8150 O   0  0  0  0  0  0  0  0  0  0  0  0
  138.7330  157.9590  134.5060 C   0  0  0  0  0  0  0  0  0  0  0  0
  138.1273  157.0468  134.6105 H   0  0  0  0  0  0  0  0  0  0  0  0
  138.1005  158.8544  134.5966 H   0  0  0  0  0  0  0  0  0  0  0  0
  139.7820  157.9910  135.6140 C   0  0  0  0  0  0  0  0  0  0  0  0
  139.2814  157.9757  136.5934 H   0  0  0  0  0  0  0  0  0  0  0  0
  140.4377  157.1124  135.5236 H   0  0  0  0  0  0  0  0  0  0  0  0
  140.3829  158.9079  135.5236 H   0  0  0  0  0  0  0  0  0  0  0  0
  1  2  1  0
  2  3  2  0
  3  4  1  0
  4  5  1  0
  4  6  1  0
  6  7  1  0
  6  8  1  0
  6  9  1  0
  3 10  1  0
 10 11  1  0
 10 12  2  0
 12 13  1  0
 13 14  2  0
 14 15  1  0
 13 16  1  0
 16 17  1  0
 16 18  2  0
 18 19  1  0
 19 20  2  0
 19 21  1  0
 21 22  1  0
 21 23  1  0
 18 24  1  0
 24 25  1  0
 25 26  2  0
 25 27  1  0
 27 28  2  0
 28 29  1  0
 29 30  2  0
 29 31  1  0
 28 32  1  0
 32 33  1  0
 32 34  1  0
 32 35  1  0
 35 36  1  0
 35 37  1  0
 35 38  1  0
 14  2  1  0
 24 12  1  0
M  CHG  1  31  -1
M  END
>  <UniqueID>  (16) 
16

>  <SMILES>  (16) 
CC/C(=N\C(=O)n1c(C(N)=O)cc2ccc(NC)cc21)C(=O)[O-]

>  <Energy>  (16) 
76.81118929499111

>  <Genealogy>  (16) 
CC/C(=N\C(=O)n1c(C(N)=O)cc2ccc(NC)cc21)C(=O)[O-] (protonated)
CC/C(=N\C(=O)n1c(C(N)=O)cc2ccc(NC)cc21)C(=O)[O-] (cis-trans isomerization)
CC/C(=N\C(=O)n1c(C(N)=O)cc2ccc(NC)cc21)C(=O)[O-] (3D coordinates assigned)
CC/C(=N\C(=O)n1c(C(N)=O)cc2ccc(NC)cc21)C(=O)[O-] (optimized conformer: 76.81118929499111 kcal/mol)

>  <smiles>  (16) 
CC/C(=N\C(=O)n1c(C(N)=O)cc2ccc(NC)cc21)C(=O)O

>  <score_type>  (16) 
oracle

>  <origin>  (16) 
adg

>  <m_score__min__energy>  (16) 
-7.1100000000000003

>  <m_primary>  (16) 
energy

$$$$
16:0
     RDKit          3D

 46 47  0  0  0  0  0  0  0  0999 V2000
  140.9870  158.3120  136.0920 C   0  0  0  0  0  0  0  0  0  0  0  0
  141.3950  158.7090  134.7340 N   0  0  0  0  0  0  0  0  0  0  0  0
  140.4540  158.1570  133.7350 C   0  0  0  0  0  0  0  0  0  0  0  0
  140.7890  156.6930  133.4320 C   0  0  0  0  0  0  0  0  0  0  0  0
  142.1280  156.4260  133.7480 O   0  0  0  0  0  0  0  0  0  0  0  0
  141.5270  160.1840  134.6280 C   0  0  0  0  0  0  0  0  0  0  0  0
  142.6430  160.5520  133.6440 C   0  0  0  0  0  0  0  0  0  0  0  0
  143.9940  160.7680  134.3310 C   0  0  0  0  0  0  0  0  0  0  0  0
  145.0590  160.3720  133.4710 O   0  0  0  0  0  0  0  0  0  0  0  0
  145.1750  159.0680  132.9810 C   0  0  0  0  0  0  0  0  0  0  0  0
  144.1460  158.4420  132.6070 O   0  0  0  0  0  0  0  0  0  0  0  0
  146.4640  158.4320  132.9130 N   0  0  0  0  0  0  0  0  0  0  0  0
  146.8020  157.1960  133.3830 C   0  0  0  0  0  0  0  0  0  0  0  0
  145.9360  156.3200  134.2030 C   0  0  0  0  0  0  0  0  0  0  0  0
  144.5780  156.0830  133.8300 N   0  0  0  0  0  0  0  0  0  0  0  0
  146.4010  155.7450  135.2230 O   0  0  0  0  0  0  0  0  0  0  0  0
  148.1280  156.9000  133.0770 C   0  0  0  0  0  0  0  0  0  0  0  0
  148.6010  158.0020  132.4060 C   0  0  0  0  0  0  0  0  0  0  0  0
  149.8620  158.2440  131.8660 C   0  0  0  0  0  0  0  0  0  0  0  0
  150.0700  159.4650  131.2040 C   0  0  0  0  0  0  0  0  0  0  0  0
  149.0230  160.4090  131.0890 C   0  0  0  0  0  0  0  0  0  0  0  0
  149.2480  161.6390  130.3970 N   0  0  0  0  0  0  0  0  0  0  0  0
  147.7570  160.1320  131.6490 C   0  0  0  0  0  0  0  0  0  0  0  0
  147.5800  158.9140  132.3170 C   0  0  0  0  0  0  0  0  0  0  0  0
  141.5709  158.8801  136.8311 H   0  0  0  0  0  0  0  0  0  0  0  0
  139.9163  158.5233  136.2297 H   0  0  0  0  0  0  0  0  0  0  0  0
  141.1690  157.2359  136.2297 H   0  0  0  0  0  0  0  0  0  0  0  0
  139.4293  158.2193  134.1301 H   0  0  0  0  0  0  0  0  0  0  0  0
  140.5392  158.7404  132.8064 H   0  0  0  0  0  0  0  0  0  0  0  0
  140.1374  156.0399  134.0311 H   0  0  0  0  0  0  0  0  0  0  0  0
  140.6291  156.5033  132.3604 H   0  0  0  0  0  0  0  0  0  0  0  0
  142.6160  157.2860  133.6670 H   0  0  0  0  0  0  0  0  0  0  0  0
  140.5763  160.6082  134.2728 H   0  0  0  0  0  0  0  0  0  0  0  0
  141.7765  160.5917  135.6187 H   0  0  0  0  0  0  0  0  0  0  0  0
  142.7477  159.7382  132.9113 H   0  0  0  0  0  0  0  0  0  0  0  0
  142.3609  161.5006  133.1637 H   0  0  0  0  0  0  0  0  0  0  0  0
  144.1071  161.8333  134.5807 H   0  0  0  0  0  0  0  0  0  0  0  0
  144.0298  160.1587  135.2461 H   0  0  0  0  0  0  0  0  0  0  0  0
  144.1420  156.5810  133.0220 H   0  0  0  0  0  0  0  0  0  0  0  0
  143.9860  155.4320  134.3930 H   0  0  0  0  0  0  0  0  0  0  0  0
  148.6794  155.9799  133.3206 H   0  0  0  0  0  0  0  0  0  0  0  0
  150.6693  157.5022  131.9552 H   0  0  0  0  0  0  0  0  0  0  0  0
  151.0560  159.6892  130.7710 H   0  0  0  0  0  0  0  0  0  0  0  0
  148.4750  162.1120  129.8790 H   0  0  0  0  0  0  0  0  0  0  0  0
  150.1890  162.0900  130.4020 H   0  0  0  0  0  0  0  0  0  0  0  0
  146.9314  160.8538  131.5629 H   0  0  0  0  0  0  0  0  0  0  0  0
  1  2  1  0
  2  3  1  0
  3  4  1  0
  4  5  1  0
  2  6  1  0
  6  7  1  0
  7  8  1  0
  8  9  1  0
  9 10  1  0
 10 11  2  0
 10 12  1  0
 12 13  1  0
 13 14  1  0
 14 15  1  0
 14 16  2  0
 13 17  2  0
 17 18  1  0
 18 19  2  0
 19 20  1  0
 20 21  2  0
 21 22  1  0
 21 23  1  0
 23 24  2  0
 24 12  1  0
 24 18  1  0
  1 25  1  0
  1 26  1  0
  1 27  1  0
  3 28  1  0
  3 29  1  0
  4 30  1  0
  4 31  1  0
  5 32  1  0
  6 33  1  0
  6 34  1  0
  7 35  1  0
  7 36  1  0
  8 37  1  0
  8 38  1  0
 15 39  1  0
 15 40  1  0
 17 41  1  0
 19 42  1  0
 20 43  1  0
 22 44  1  0
 22 45  1  0
 23 46  1  0
M  END
>  <UniqueID>  (17) 
17

>  <SMILES>  (17) 
CN(CCO)CCCOC(=O)n1c(C(N)=O)cc2ccc(N)cc21

>  <Energy>  (17) 
77.41178655267484

>  <Genealogy>  (17) 
CN(CCO)CCCOC(=O)n1c(C(N)=O)cc2ccc(N)cc21 (3D coordinates assigned)
CN(CCO)CCCOC(=O)n1c(C(N)=O)cc2ccc(N)cc21 (optimized conformer: 77.41178655267484 kcal/mol)

>  <smiles>  (17) 
CN(CCO)CCCOC(=O)n1c(C(N)=O)cc2ccc(N)cc21

>  <score_type>  (17) 
oracle

>  <origin>  (17) 
adg

>  <m_score__min__energy>  (17) 
-5.8399999999999999

>  <m_primary>  (17) 
energy

$$$$
17:0
     RDKit          3D

 39 40  0  0  0  0  0  0  0  0999 V2000
  142.6480  160.4200  133.7400 N   0  0  0  0  0  0  0  0  0  0  0  0
  144.0200  160.8070  133.6770 C   0  0  0  0  0  0  0  0  0  0  0  0
  144.3160  162.0310  133.7350 O   0  0  0  0  0  0  0  0  0  0  0  0
  145.1060  159.8070  133.5870 C   0  0  0  0  0  0  0  0  0  0  0  0
  146.4490  160.1440  133.4330 C   0  0  0  0  0  0  0  0  0  0  0  0
  147.1100  158.9470  133.2810 C   0  0  0  0  0  0  0  0  0  0  0  0
  148.4570  158.6920  133.0440 C   0  0  0  0  0  0  0  0  0  0  0  0
  148.8500  157.3570  132.8500 C   0  0  0  0  0  0  0  0  0  0  0  0
  147.8950  156.3120  132.8760 C   0  0  0  0  0  0  0  0  0  0  0  0
  148.3310  154.8950  132.6290 C   0  0  0  0  0  0  0  0  0  0  0  0
  149.6760  154.8730  132.3070 F   0  0  0  0  0  0  0  0  0  0  0  0
  148.1200  154.1360  133.7660 F   0  0  0  0  0  0  0  0  0  0  0  0
  146.5330  156.6110  133.1080 C   0  0  0  0  0  0  0  0  0  0  0  0
  146.1770  157.9440  133.3330 C   0  0  0  0  0  0  0  0  0  0  0  0
  144.9450  158.4560  133.5420 N   0  0  0  0  0  0  0  0  0  0  0  0
  143.7130  157.7220  133.5270 C   0  0  0  0  0  0  0  0  0  0  0  0
  142.9200  157.8590  132.5580 O   0  0  0  0  0  0  0  0  0  0  0  0
  143.3570  156.8020  134.6610 C   0  0  0  0  0  0  0  0  0  0  0  0
  141.8470  156.6810  134.8460 C   0  0  0  0  0  0  0  0  0  0  0  0
  141.3120  157.9650  135.0950 O   0  0  0  0  0  0  0  0  0  0  0  0
  139.8970  157.9350  135.0370 C   0  0  0  0  0  0  0  0  0  0  0  0
  139.4100  158.6010  133.7480 C   0  0  0  0  0  0  0  0  0  0  0  0
  140.3650  159.5150  133.2820 O   0  0  0  0  0  0  0  0  0  0  0  0
  141.9000  161.1490  133.7150 H   0  0  0  0  0  0  0  0  0  0  0  0
  142.3720  159.4390  133.9490 H   0  0  0  0  0  0  0  0  0  0  0  0
  146.8877  161.1527  133.4329 H   0  0  0  0  0  0  0  0  0  0  0  0
  149.1915  159.5101  133.0096 H   0  0  0  0  0  0  0  0  0  0  0  0
  149.9103  157.1214  132.6762 H   0  0  0  0  0  0  0  0  0  0  0  0
  147.7457  154.4772  131.7966 H   0  0  0  0  0  0  0  0  0  0  0  0
  145.7732  155.8156  133.1114 H   0  0  0  0  0  0  0  0  0  0  0  0
  143.7704  155.8043  134.4521 H   0  0  0  0  0  0  0  0  0  0  0  0
  143.7801  157.2222  135.5853 H   0  0  0  0  0  0  0  0  0  0  0  0
  141.3955  156.2634  133.9340 H   0  0  0  0  0  0  0  0  0  0  0  0
  141.6275  156.0150  135.6935 H   0  0  0  0  0  0  0  0  0  0  0  0
  139.5539  156.8901  135.0589 H   0  0  0  0  0  0  0  0  0  0  0  0
  139.4893  158.4806  135.9008 H   0  0  0  0  0  0  0  0  0  0  0  0
  139.2419  157.8296  132.9821 H   0  0  0  0  0  0  0  0  0  0  0  0
  138.4722  159.1374  133.9546 H   0  0  0  0  0  0  0  0  0  0  0  0
  141.2180  159.0140  133.1930 H   0  0  0  0  0  0  0  0  0  0  0  0
  1  2  1  0
  2  3  2  0
  2  4  1  0
  4  5  2  0
  5  6  1  0
  6  7  2  0
  7  8  1  0
  8  9  2  0
  9 10  1  0
 10 11  1  0
 10 12  1  0
  9 13  1  0
 13 14  2  0
 14 15  1  0
 15 16  1  0
 16 17  2  0
 16 18  1  0
 18 19  1  0
 19 20  1  0
 20 21  1  0
 21 22  1  0
 22 23  1  0
 15  4  1  0
 14  6  1  0
  1 24  1  0
  1 25  1  0
  5 26  1  0
  7 27  1  0
  8 28  1  0
 10 29  1  0
 13 30  1  0
 18 31  1  0
 18 32  1  0
 19 33  1  0
 19 34  1  0
 21 35  1  0
 21 36  1  0
 22 37  1  0
 22 38  1  0
 23 39  1  0
M  END
>  <UniqueID>  (18) 
18

>  <SMILES>  (18) 
NC(=O)c1cc2ccc(C(F)F)cc2n1C(=O)CCOCCO

>  <Energy>  (18) 
78.60740869613802

>  <Genealogy>  (18) 
NC(=O)c1cc2ccc(C(F)F)cc2n1C(=O)CCOCCO (3D coordinates assigned)
NC(=O)c1cc2ccc(C(F)F)cc2n1C(=O)CCOCCO (optimized conformer: 78.60740869613802 kcal/mol)

>  <smiles>  (18) 
NC(=O)c1cc2ccc(C(F)F)cc2n1C(=O)CCOCCO

>  <score_type>  (18) 
oracle

>  <origin>  (18) 
adg

>  <m_score__min__energy>  (18) 
-5.0899999999999999

>  <m_primary>  (18) 
energy

$$$$
18:0
     RDKit          3D

 39 40  0  0  0  0  0  0  0  0999 V2000
  149.2440  154.4630  132.6000 C   0  0  0  0  0  0  0  0  0  0  0  0
  147.7680  154.8420  132.6780 C   0  0  0  0  0  0  0  0  0  0  0  0
  147.6100  156.3260  132.8690 C   0  0  0  0  0  0  0  0  0  0  0  0
  148.7330  157.1820  132.7550 C   0  0  0  0  0  0  0  0  0  0  0  0
  148.5940  158.5700  132.9140 C   0  0  0  0  0  0  0  0  0  0  0  0
  147.3210  159.0740  133.1680 C   0  0  0  0  0  0  0  0  0  0  0  0
  146.9090  160.3680  133.3890 C   0  0  0  0  0  0  0  0  0  0  0  0
  145.5340  160.2870  133.6010 C   0  0  0  0  0  0  0  0  0  0  0  0
  144.6680  161.4670  133.8060 C   0  0  0  0  0  0  0  0  0  0  0  0
  143.2540  161.3380  133.6870 N   0  0  0  0  0  0  0  0  0  0  0  0
  145.1630  162.5820  134.1190 O   0  0  0  0  0  0  0  0  0  0  0  0
  145.1130  158.9920  133.5160 N   0  0  0  0  0  0  0  0  0  0  0  0
  143.7930  158.4810  133.7540 C   0  0  0  0  0  0  0  0  0  0  0  0
  143.2470  158.6550  134.8770 O   0  0  0  0  0  0  0  0  0  0  0  0
  143.1110  157.8210  132.7250 O   0  0  0  0  0  0  0  0  0  0  0  0
  141.7470  157.4050  132.8140 C   0  0  0  0  0  0  0  0  0  0  0  0
  140.7820  158.6060  132.8750 C   0  0  2  0  0  0  0  0  0  0  0  0
  141.3310  159.7400  132.2500 O   0  0  0  0  0  0  0  0  0  0  0  0
  140.2920  158.9340  134.2990 C   0  0  0  0  0  0  0  0  0  0  0  0
  140.9700  160.0370  134.8410 O   0  0  0  0  0  0  0  0  0  0  0  0
  146.2190  158.2620  133.2510 C   0  0  0  0  0  0  0  0  0  0  0  0
  146.3310  156.8740  133.1150 C   0  0  0  0  0  0  0  0  0  0  0  0
  149.6500  154.3587  133.6170 H   0  0  0  0  0  0  0  0  0  0  0  0
  149.3496  153.5086  132.0634 H   0  0  0  0  0  0  0  0  0  0  0  0
  149.7964  155.2484  132.0634 H   0  0  0  0  0  0  0  0  0  0  0  0
  147.2684  154.5427  131.7448 H   0  0  0  0  0  0  0  0  0  0  0  0
  147.3146  154.3244  133.5362 H   0  0  0  0  0  0  0  0  0  0  0  0
  149.7236  156.7550  132.5398 H   0  0  0  0  0  0  0  0  0  0  0  0
  149.4641  159.2389  132.8402 H   0  0  0  0  0  0  0  0  0  0  0  0
  147.5326  161.2741  133.3967 H   0  0  0  0  0  0  0  0  0  0  0  0
  142.8010  160.3980  133.6540 H   0  0  0  0  0  0  0  0  0  0  0  0
  141.5024  156.7969  131.9306 H   0  0  0  0  0  0  0  0  0  0  0  0
  141.6276  156.8245  133.7407 H   0  0  0  0  0  0  0  0  0  0  0  0
  139.8884  158.2986  132.3120 H   0  0  0  0  0  0  0  0  0  0  0  0
  142.2820  159.8110  132.5230 H   0  0  0  0  0  0  0  0  0  0  0  0
  139.2161  159.1599  134.2624 H   0  0  0  0  0  0  0  0  0  0  0  0
  140.4905  158.0616  134.9390 H   0  0  0  0  0  0  0  0  0  0  0  0
  141.8000  160.1560  134.3110 H   0  0  0  0  0  0  0  0  0  0  0  0
  145.4460  156.2259  133.1975 H   0  0  0  0  0  0  0  0  0  0  0  0
  1  2  1  0
  2  3  1  0
  3  4  2  0
  4  5  1  0
  5  6  2  0
  6  7  1  0
  7  8  2  0
  8  9  1  0
  9 10  1  0
  9 11  2  0
  8 12  1  0
 12 13  1  0
 13 14  2  0
 13 15  1  0
 15 16  1  0
 16 17  1  0
 17 18  1  0
 17 19  1  0
 19 20  1  0
 12 21  1  0
 21 22  2  0
 22  3  1  0
 21  6  1  0
  1 23  1  0
  1 24  1  0
  1 25  1  0
  2 26  1  0
  2 27  1  0
  4 28  1  0
  5 29  1  0
  7 30  1  0
 10 31  1  0
 16 32  1  0
 16 33  1  0
 17 34  1  6
 18 35  1  0
 19 36  1  0
 19 37  1  0
 20 38  1  0
 22 39  1  0
M  CHG  1  10  -1
M  END
>  <UniqueID>  (19) 
19

>  <SMILES>  (19) 
CCc1ccc2cc(C([NH-])=O)n(C(=O)OC[C@H](O)CO)c2c1

>  <Energy>  (19) 
72.88949699822773

>  <Genealogy>  (19) 
CCc1ccc2cc(C([NH-])=O)n(C(=O)OCC(O)CO)c2c1 (protonated)
CCc1ccc2cc(C([NH-])=O)n(C(=O)OC[C@H](O)CO)c2c1 (chirality)
CCc1ccc2cc(C([NH-])=O)n(C(=O)OC[C@H](O)CO)c2c1 (3D coordinates assigned)
CCc1ccc2cc(C([NH-])=O)n(C(=O)OC[C@H](O)CO)c2c1 (optimized conformer: 72.88949699822773 kcal/mol)

>  <smiles>  (19) 
CCc1ccc2cc(C(N)=O)n(C(=O)OCC(O)CO)c2c1

>  <score_type>  (19) 
oracle

>  <origin>  (19) 
adg

>  <m_score__min__energy>  (19) 
-5.8899999999999997

>  <m_primary>  (19) 
energy

$$$$
19:0
     RDKit          3D

 39 40  0  0  0  0  0  0  0  0999 V2000
  140.1810  160.0740  132.5530 C   0  0  0  0  0  0  0  0  0  0  0  0
  140.8660  159.0380  133.3440 N   0  0  0  0  0  0  0  0  0  0  0  0
  140.2880  158.9860  134.6960 C   0  0  0  0  0  0  0  0  0  0  0  0
  140.7760  157.7170  132.6840 C   0  0  0  0  0  0  0  0  0  0  0  0
  142.0130  156.8640  132.9910 C   0  0  0  0  0  0  0  0  0  0  0  0
  143.2030  157.6370  132.8460 O   0  0  0  0  0  0  0  0  0  0  0  0
  143.7870  158.3560  133.8950 C   0  0  0  0  0  0  0  0  0  0  0  0
  143.2130  158.4370  135.0160 O   0  0  0  0  0  0  0  0  0  0  0  0
  145.0670  158.9720  133.7060 N   0  0  0  0  0  0  0  0  0  0  0  0
  145.3480  160.2990  133.5850 C   0  0  0  0  0  0  0  0  0  0  0  0
  144.3940  161.4100  133.7920 C   0  0  0  0  0  0  0  0  0  0  0  0
  142.9880  161.1880  133.7400 N   0  0  0  0  0  0  0  0  0  0  0  0
  144.8280  162.5620  134.0580 O   0  0  0  0  0  0  0  0  0  0  0  0
  146.6980  160.4860  133.2940 C   0  0  0  0  0  0  0  0  0  0  0  0
  147.2380  159.2200  133.2370 C   0  0  0  0  0  0  0  0  0  0  0  0
  148.5400  158.8110  132.9650 C   0  0  0  0  0  0  0  0  0  0  0  0
  148.8040  157.4310  132.9330 C   0  0  0  0  0  0  0  0  0  0  0  0
  147.7640  156.4870  133.1450 C   0  0  0  0  0  0  0  0  0  0  0  0
  148.0640  155.0100  133.1380 C   0  0  0  0  0  0  0  0  0  0  0  0
  148.0970  154.5090  134.4270 F   0  0  0  0  0  0  0  0  0  0  0  0
  147.0800  154.3510  132.4240 F   0  0  0  0  0  0  0  0  0  0  0  0
  149.2920  154.7650  132.5460 F   0  0  0  0  0  0  0  0  0  0  0  0
  146.4590  156.9450  133.4430 C   0  0  0  0  0  0  0  0  0  0  0  0
  146.2320  158.3250  133.4870 C   0  0  0  0  0  0  0  0  0  0  0  0
  139.7032  160.7967  133.2308 H   0  0  0  0  0  0  0  0  0  0  0  0
  140.9132  160.5950  131.9186 H   0  0  0  0  0  0  0  0  0  0  0  0
  139.4149  159.6043  131.9186 H   0  0  0  0  0  0  0  0  0  0  0  0
  141.0931  159.0584  135.4420 H   0  0  0  0  0  0  0  0  0  0  0  0
  139.5889  159.8249  134.8284 H   0  0  0  0  0  0  0  0  0  0  0  0
  139.7498  158.0358  134.8284 H   0  0  0  0  0  0  0  0  0  0  0  0
  139.8791  157.1938  133.0471 H   0  0  0  0  0  0  0  0  0  0  0  0
  140.7180  157.8717  131.5965 H   0  0  0  0  0  0  0  0  0  0  0  0
  141.9478  156.4906  134.0236 H   0  0  0  0  0  0  0  0  0  0  0  0
  142.0481  156.0219  132.2841 H   0  0  0  0  0  0  0  0  0  0  0  0
  142.5860  160.2400  133.9090 H   0  0  0  0  0  0  0  0  0  0  0  0
  147.2212  161.4416  133.1421 H   0  0  0  0  0  0  0  0  0  0  0  0
  149.3380  159.5453  132.7807 H   0  0  0  0  0  0  0  0  0  0  0  0
  149.8280  157.0778  132.7415 H   0  0  0  0  0  0  0  0  0  0  0  0
  145.6425  156.2334  133.6354 H   0  0  0  0  0  0  0  0  0  0  0  0
  1  2  1  0
  2  3  1  0
  2  4  1  0
  4  5  1  0
  5  6  1  0
  6  7  1  0
  7  8  2  0
  7  9  1  0
  9 10  1  0
 10 11  1  0
 11 12  1  0
 11 13  2  0
 10 14  2  0
 14 15  1  0
 15 16  2  0
 16 17  1  0
 17 18  2  0
 18 19  1  0
 19 20  1  0
 19 21  1  0
 19 22  1  0
 18 23  1  0
 23 24  2  0
 24  9  1  0
 24 15  1  0
  1 25  1  0
  1 26  1  0
  1 27  1  0
  3 28  1  0
  3 29  1  0
  3 30  1  0
  4 31  1  0
  4 32  1  0
  5 33  1  0
  5 34  1  0
 12 35  1  0
 14 36  1  0
 16 37  1  0
 17 38  1  0
 23 39  1  0
M  CHG  1  12  -1
M  END
>  <UniqueID>  (20) 
20

>  <SMILES>  (20) 
CN(C)CCOC(=O)n1c(C([NH-])=O)cc2ccc(C(F)(F)F)cc21

>  <Energy>  (20) 
76.05859370574484

>  <Genealogy>  (20) 
CN(C)CCOC(=O)n1c(C([NH-])=O)cc2ccc(C(F)(F)F)cc21 (protonated)
CN(C)CCOC(=O)n1c(C([NH-])=O)cc2ccc(C(F)(F)F)cc21 (3D coordinates assigned)
CN(C)CCOC(=O)n1c(C([NH-])=O)cc2ccc(C(F)(F)F)cc21 (optimized conformer: 76.05859370574484 kcal/mol)

>  <smiles>  (20) 
CN(C)CCOC(=O)n1c(C(N)=O)cc2ccc(C(F)(F)F)cc21

>  <score_type>  (20) 
oracle

>  <origin>  (20) 
adg

>  <m_score__min__energy>  (20) 
-6.0599999999999996

>  <m_primary>  (20) 
energy

$$$$
20:0
     RDKit          3D

 39 40  0  0  0  0  0  0  0  0999 V2000
  137.9330  160.1090  129.8470 C   0  0  0  0  0  0  0  0  0  0  0  0
  138.6280  159.7840  130.7780 C   0  0  0  0  0  0  0  0  0  0  0  0
  139.4570  159.3950  131.8880 C   0  0  0  0  0  0  0  0  0  0  0  0
  140.1720  160.3770  132.6100 C   0  0  0  0  0  0  0  0  0  0  0  0
  140.9660  160.0130  133.7090 C   0  0  0  0  0  0  0  0  0  0  0  0
  141.0300  158.6650  134.0510 C   0  0  0  0  0  0  0  0  0  0  0  0
  141.6950  158.0520  135.0840 C   0  0  0  0  0  0  0  0  0  0  0  0
  141.3790  156.7040  134.9740 C   0  0  0  0  0  0  0  0  0  0  0  0
  141.8660  155.6900  135.9230 C   0  0  0  0  0  0  0  0  0  0  0  0
  142.6910  154.6140  135.4780 N   0  0  0  0  0  0  0  0  0  0  0  0
  141.4900  155.7310  137.1240 O   0  0  0  0  0  0  0  0  0  0  0  0
  140.5760  156.4740  133.8940 N   0  0  0  0  0  0  0  0  0  0  0  0
  140.1590  155.1960  133.3670 C   0  0  0  0  0  0  0  0  0  0  0  0
  139.1220  155.1090  132.6540 O   0  0  0  0  0  0  0  0  0  0  0  0
  140.8850  154.0400  133.6690 O   0  0  0  0  0  0  0  0  0  0  0  0
  141.7370  153.3950  132.7290 C   0  0  0  0  0  0  0  0  0  0  0  0
  142.6570  152.5480  133.4090 O   0  0  0  0  0  0  0  0  0  0  0  0
  144.0040  152.8820  133.5850 C   0  0  0  0  0  0  0  0  0  0  0  0
  144.4950  152.9920  134.7420 O   0  0  0  0  0  0  0  0  0  0  0  0
  144.8600  153.1450  132.3850 C   0  0  0  0  0  0  0  0  0  0  0  0
  145.1050  154.6460  132.1840 C   0  0  0  0  0  0  0  0  0  0  0  0
  144.3060  155.4770  133.1430 C   0  0  0  0  0  0  0  0  0  0  0  0
  143.1900  155.9440  132.7980 O   0  0  0  0  0  0  0  0  0  0  0  0
  144.7970  155.7380  134.4160 O   0  0  0  0  0  0  0  0  0  0  0  0
  140.3570  157.6950  133.3480 C   0  0  0  0  0  0  0  0  0  0  0  0
  139.5420  158.0380  132.2590 C   0  0  0  0  0  0  0  0  0  0  0  0
  137.2993  160.4053  128.9981 H   0  0  0  0  0  0  0  0  0  0  0  0
  140.1060  161.4330  132.3091 H   0  0  0  0  0  0  0  0  0  0  0  0
  141.5209  160.7700  134.2826 H   0  0  0  0  0  0  0  0  0  0  0  0
  142.3402  158.5270  135.8377 H   0  0  0  0  0  0  0  0  0  0  0  0
  143.0400  153.9010  136.1580 H   0  0  0  0  0  0  0  0  0  0  0  0
  142.9150  154.4960  134.4640 H   0  0  0  0  0  0  0  0  0  0  0  0
  141.1283  152.7924  132.0388 H   0  0  0  0  0  0  0  0  0  0  0  0
  142.2954  154.1566  132.1650 H   0  0  0  0  0  0  0  0  0  0  0  0
  145.8280  152.6402  132.5195 H   0  0  0  0  0  0  0  0  0  0  0  0
  144.3361  152.7601  131.4977 H   0  0  0  0  0  0  0  0  0  0  0  0
  146.1739  154.8554  132.3373 H   0  0  0  0  0  0  0  0  0  0  0  0
  144.7916  154.9085  131.1628 H   0  0  0  0  0  0  0  0  0  0  0  0
  138.9832  157.2670  131.7083 H   0  0  0  0  0  0  0  0  0  0  0  0
  1  2  3  0
  2  3  1  0
  3  4  2  0
  4  5  1  0
  5  6  2  0
  6  7  1  0
  7  8  2  0
  8  9  1  0
  9 10  1  0
  9 11  2  0
  8 12  1  0
 12 13  1  0
 13 14  2  0
 13 15  1  0
 15 16  1  0
 16 17  1  0
 17 18  1  0
 18 19  2  0
 18 20  1  0
 20 21  1  0
 21 22  1  0
 22 23  2  0
 22 24  1  0
 12 25  1  0
 25 26  2  0
 26  3  1  0
 25  6  1  0
  1 27  1  0
  4 28  1  0
  5 29  1  0
  7 30  1  0
 10 31  1  0
 10 32  1  0
 16 33  1  0
 16 34  1  0
 20 35  1  0
 20 36  1  0
 21 37  1  0
 21 38  1  0
 26 39  1  0
M  CHG  1  24  -1
M  END
>  <UniqueID>  (21) 
21

>  <SMILES>  (21) 
C#Cc1ccc2cc(C(N)=O)n(C(=O)OCOC(=O)CCC(=O)[O-])c2c1

>  <Energy>  (21) 
70.34474889155811

>  <Genealogy>  (21) 
C#Cc1ccc2cc(C(N)=O)n(C(=O)OCOC(=O)CCC(=O)[O-])c2c1 (protonated)
C#Cc1ccc2cc(C(N)=O)n(C(=O)OCOC(=O)CCC(=O)[O-])c2c1 (3D coordinates assigned)
C#Cc1ccc2cc(C(N)=O)n(C(=O)OCOC(=O)CCC(=O)[O-])c2c1 (optimized conformer: 70.34474889155811 kcal/mol)

>  <smiles>  (21) 
C#Cc1ccc2cc(C(N)=O)n(C(=O)OCOC(=O)CCC(=O)O)c2c1

>  <score_type>  (21) 
oracle

>  <origin>  (21) 
adg

>  <m_score__min__energy>  (21) 
-7.2599999999999998

>  <m_primary>  (21) 
energy

$$$$
21:0
     RDKit          3D

 40 42  0  0  0  0  0  0  0  0999 V2000
  147.9580  154.4260  133.3360 C   0  0  0  0  0  0  0  0  0  0  0  0
  147.7200  155.4120  132.2870 N   0  0  0  0  0  0  0  0  0  0  0  0
  147.6780  156.8320  132.5250 C   0  0  0  0  0  0  0  0  0  0  0  0
  148.8150  157.6560  132.3070 C   0  0  0  0  0  0  0  0  0  0  0  0
  148.7570  159.0370  132.5570 C   0  0  0  0  0  0  0  0  0  0  0  0
  147.5570  159.5700  133.0150 C   0  0  0  0  0  0  0  0  0  0  0  0
  147.2380  160.8630  133.3600 C   0  0  0  0  0  0  0  0  0  0  0  0
  145.9060  160.8190  133.7630 C   0  0  0  0  0  0  0  0  0  0  0  0
  145.1300  162.0190  134.1430 C   0  0  0  0  0  0  0  0  0  0  0  0
  143.9850  162.3920  133.3810 N   0  0  0  0  0  0  0  0  0  0  0  0
  145.4460  162.6970  135.1560 O   0  0  0  0  0  0  0  0  0  0  0  0
  145.4200  159.5470  133.6760 N   0  0  0  0  0  0  0  0  0  0  0  0
  144.1240  159.0760  134.0780 C   0  0  0  0  0  0  0  0  0  0  0  0
  143.9010  157.8360  134.1400 O   0  0  0  0  0  0  0  0  0  0  0  0
  143.1270  160.0020  134.4120 O   0  0  0  0  0  0  0  0  0  0  0  0
  141.8620  160.0820  133.8130 C   0  0  0  0  0  0  0  0  0  0  0  0
  141.4100  161.1890  133.4100 O   0  0  0  0  0  0  0  0  0  0  0  0
  141.0540  158.8520  133.6540 C   0  0  0  0  0  0  0  0  0  0  0  0
  141.0930  157.8470  134.6380 C   0  0  0  0  0  0  0  0  0  0  0  0
  140.3300  156.6850  134.4920 C   0  0  0  0  0  0  0  0  0  0  0  0
  139.5170  156.5110  133.3640 C   0  0  0  0  0  0  0  0  0  0  0  0
  138.7530  155.3570  133.2080 O   0  0  0  0  0  0  0  0  0  0  0  0
  139.4740  157.5060  132.3830 C   0  0  0  0  0  0  0  0  0  0  0  0
  140.2350  158.6700  132.5250 C   0  0  0  0  0  0  0  0  0  0  0  0
  146.4450  158.7950  133.2150 C   0  0  0  0  0  0  0  0  0  0  0  0
  146.4780  157.4130  132.9920 C   0  0  0  0  0  0  0  0  0  0  0  0
  147.8429  154.9030  134.3205 H   0  0  0  0  0  0  0  0  0  0  0  0
  147.2322  153.6051  133.2391 H   0  0  0  0  0  0  0  0  0  0  0  0
  148.9783  154.0266  133.2391 H   0  0  0  0  0  0  0  0  0  0  0  0
  147.5760  155.0590  131.3140 H   0  0  0  0  0  0  0  0  0  0  0  0
  149.7497  157.2080  131.9389 H   0  0  0  0  0  0  0  0  0  0  0  0
  149.6357  159.6786  132.3951 H   0  0  0  0  0  0  0  0  0  0  0  0
  147.8955  161.7442  133.3249 H   0  0  0  0  0  0  0  0  0  0  0  0
  143.0390  162.0140  133.6140 H   0  0  0  0  0  0  0  0  0  0  0  0
  141.7275  157.9765  135.5272 H   0  0  0  0  0  0  0  0  0  0  0  0
  140.3679  155.9040  135.2657 H   0  0  0  0  0  0  0  0  0  0  0  0
  138.0180  155.2990  132.5130 H   0  0  0  0  0  0  0  0  0  0  0  0
  138.8384  157.3724  131.4952 H   0  0  0  0  0  0  0  0  0  0  0  0
  140.1931  159.4485  131.7490 H   0  0  0  0  0  0  0  0  0  0  0  0
  145.5884  156.7929  133.1766 H   0  0  0  0  0  0  0  0  0  0  0  0
  1  2  1  0
  2  3  1  0
  3  4  2  0
  4  5  1  0
  5  6  2  0
  6  7  1  0
  7  8  2  0
  8  9  1  0
  9 10  1  0
  9 11  2  0
  8 12  1  0
 12 13  1  0
 13 14  2  0
 13 15  1  0
 15 16  1  0
 16 17  2  0
 16 18  1  0
 18 19  2  0
 19 20  1  0
 20 21  2  0
 21 22  1  0
 21 23  1  0
 23 24  2  0
 12 25  1  0
 25 26  2  0
 26  3  1  0
 25  6  1  0
 24 18  1  0
  1 27  1  0
  1 28  1  0
  1 29  1  0
  2 30  1  0
  4 31  1  0
  5 32  1  0
  7 33  1  0
 10 34  1  0
 19 35  1  0
 20 36  1  0
 22 37  1  0
 23 38  1  0
 24 39  1  0
 26 40  1  0
M  CHG  1  10  -1
M  END
>  <UniqueID>  (22) 
22

>  <SMILES>  (22) 
CNc1ccc2cc(C([NH-])=O)n(C(=O)OC(=O)c3ccc(O)cc3)c2c1

>  <Energy>  (22) 
81.10908546437017

>  <Genealogy>  (22) 
CNc1ccc2cc(C([NH-])=O)n(C(=O)OC(=O)c3ccc(O)cc3)c2c1 (protonated)
CNc1ccc2cc(C([NH-])=O)n(C(=O)OC(=O)c3ccc(O)cc3)c2c1 (3D coordinates assigned)
CNc1ccc2cc(C([NH-])=O)n(C(=O)OC(=O)c3ccc(O)cc3)c2c1 (optimized conformer: 81.10908546437017 kcal/mol)

>  <smiles>  (22) 
CNc1ccc2cc(C(N)=O)n(C(=O)OC(=O)c3ccc(O)cc3)c2c1

>  <score_type>  (22) 
oracle

>  <origin>  (22) 
adg

>  <m_score__min__energy>  (22) 
-8.2100000000000009

>  <m_primary>  (22) 
energy

$$$$
22:0
     RDKit          3D

 31 32  0  0  0  0  0  0  0  0999 V2000
  149.9530  150.7570  134.3780 C   0  0  0  0  0  0  0  0  0  0  0  0
  149.4690  151.3160  133.4250 C   0  0  0  0  0  0  0  0  0  0  0  0
  148.8780  151.9970  132.2670 C   0  0  0  0  0  0  0  0  0  0  0  0
  148.2000  153.1790  132.6810 O   0  0  0  0  0  0  0  0  0  0  0  0
  148.8270  154.4260  132.7920 C   0  0  0  0  0  0  0  0  0  0  0  0
  149.9750  154.6080  132.3020 O   0  0  0  0  0  0  0  0  0  0  0  0
  148.1490  155.5100  133.4480 N   0  0  0  0  0  0  0  0  0  0  0  0
  147.1860  155.4310  134.4090 C   0  0  0  0  0  0  0  0  0  0  0  0
  146.7430  154.1980  135.0920 C   0  0  0  0  0  0  0  0  0  0  0  0
  145.9390  153.2490  134.3940 N   0  0  0  0  0  0  0  0  0  0  0  0
  147.0330  153.9890  136.3000 O   0  0  0  0  0  0  0  0  0  0  0  0
  146.7140  156.7010  134.7350 C   0  0  0  0  0  0  0  0  0  0  0  0
  147.4290  157.5690  133.9420 C   0  0  0  0  0  0  0  0  0  0  0  0
  147.3640  158.9570  133.8490 C   0  0  0  0  0  0  0  0  0  0  0  0
  148.2060  159.5950  132.9240 C   0  0  0  0  0  0  0  0  0  0  0  0
  149.0770  158.8400  132.1010 C   0  0  0  0  0  0  0  0  0  0  0  0
  149.9860  159.5360  131.1290 C   0  0  0  0  0  0  0  0  0  0  0  0
  149.1050  160.9910  130.3750 P   0  0  0  0  0  0  0  0  0  0  0  0
  149.7820  162.3870  130.3650 O   0  0  0  0  0  0  0  0  0  0  0  0
  149.1240  157.4350  132.2300 C   0  0  0  0  0  0  0  0  0  0  0  0
  148.2870  156.8260  133.1740 C   0  0  0  0  0  0  0  0  0  0  0  0
  150.3944  150.2472  135.2471 H   0  0  0  0  0  0  0  0  0  0  0  0
  149.6752  152.2655  131.5582 H   0  0  0  0  0  0  0  0  0  0  0  0
  148.1564  151.3212  131.7847 H   0  0  0  0  0  0  0  0  0  0  0  0
  146.3710  152.5530  133.7470 H   0  0  0  0  0  0  0  0  0  0  0  0
  145.9358  156.9554  135.4696 H   0  0  0  0  0  0  0  0  0  0  0  0
  146.6742  159.5358  134.4808 H   0  0  0  0  0  0  0  0  0  0  0  0
  148.1890  160.6915  132.8377 H   0  0  0  0  0  0  0  0  0  0  0  0
  150.8852  159.8867  131.6566 H   0  0  0  0  0  0  0  0  0  0  0  0
  150.2741  158.8332  130.3334 H   0  0  0  0  0  0  0  0  0  0  0  0
  149.8007  156.8336  131.6051 H   0  0  0  0  0  0  0  0  0  0  0  0
  1  2  3  0
  2  3  1  0
  3  4  1  0
  4  5  1  0
  5  6  2  0
  5  7  1  0
  7  8  1  0
  8  9  1  0
  9 10  1  0
  9 11  2  0
  8 12  2  0
 12 13  1  0
 13 14  2  0
 14 15  1  0
 15 16  2  0
 16 17  1  0
 17 18  1  0
 18 19  2  0
 16 20  1  0
 20 21  2  0
 21  7  1  0
 21 13  1  0
  1 22  1  0
  3 23  1  0
  3 24  1  0
 10 25  1  0
 12 26  1  0
 14 27  1  0
 15 28  1  0
 17 29  1  0
 17 30  1  0
 20 31  1  0
M  CHG  1  10  -1
M  END
>  <UniqueID>  (23) 
23

>  <SMILES>  (23) 
C#CCOC(=O)n1c(C([NH-])=O)cc2ccc(CP=O)cc21

>  <Energy>  (23) 
64.0900467843169

>  <Genealogy>  (23) 
C#CCOC(=O)n1c(C([NH-])=O)cc2ccc(CP=O)cc21 (protonated)
C#CCOC(=O)n1c(C([NH-])=O)cc2ccc(CP=O)cc21 (3D coordinates assigned)
C#CCOC(=O)n1c(C([NH-])=O)cc2ccc(CP=O)cc21 (optimized conformer: 64.0900467843169 kcal/mol)

>  <smiles>  (23) 
C#CCOC(=O)n1c(C(N)=O)cc2ccc(CP=O)cc21

>  <score_type>  (23) 
oracle

>  <origin>  (23) 
adg

>  <m_score__min__energy>  (23) 
-6.8499999999999996

>  <m_primary>  (23) 
energy

$$$$
23:0
     RDKit          3D

 35 36  0  0  0  0  0  0  0  0999 V2000
  148.3050  149.6320  132.6300 C   0  0  0  0  0  0  0  0  0  0  0  0
  147.8930  150.7660  131.6970 C   0  0  0  0  0  0  0  0  0  0  0  0
  148.1140  152.0560  132.3390 N   0  0  0  0  0  0  0  0  0  0  0  0
  149.4110  152.6200  132.5550 C   0  0  0  0  0  0  0  0  0  0  0  0
  150.4190  151.8730  132.6890 O   0  0  0  0  0  0  0  0  0  0  0  0
  149.5760  154.1060  132.6060 C   0  0  0  0  0  0  0  0  0  0  0  0
  148.3150  154.7710  132.2720 N   0  0  0  0  0  0  0  0  0  0  0  0
  148.0320  156.1580  132.5420 C   0  0  0  0  0  0  0  0  0  0  0  0
  149.0800  157.1060  132.4370 C   0  0  0  0  0  0  0  0  0  0  0  0
  148.8430  158.4720  132.6660 C   0  0  0  0  0  0  0  0  0  0  0  0
  147.5510  158.8620  133.0010 C   0  0  0  0  0  0  0  0  0  0  0  0
  147.0410  160.1150  133.2490 C   0  0  0  0  0  0  0  0  0  0  0  0
  145.6900  159.9150  133.5290 C   0  0  0  0  0  0  0  0  0  0  0  0
  144.7830  161.0060  133.9450 C   0  0  0  0  0  0  0  0  0  0  0  0
  143.3760  160.9060  133.7400 N   0  0  0  0  0  0  0  0  0  0  0  0
  145.2500  162.0100  134.5450 O   0  0  0  0  0  0  0  0  0  0  0  0
  145.3730  158.5910  133.4420 N   0  0  0  0  0  0  0  0  0  0  0  0
  144.0820  157.9690  133.5400 C   0  0  0  0  0  0  0  0  0  0  0  0
  143.2280  158.0980  132.6230 O   0  0  0  0  0  0  0  0  0  0  0  0
  146.5270  157.9610  133.1280 C   0  0  0  0  0  0  0  0  0  0  0  0
  146.7330  156.5950  132.9030 C   0  0  0  0  0  0  0  0  0  0  0  0
  148.1874  149.9557  133.6747 H   0  0  0  0  0  0  0  0  0  0  0  0
  147.6682  148.7545  132.4441 H   0  0  0  0  0  0  0  0  0  0  0  0
  149.3565  149.3679  132.4441 H   0  0  0  0  0  0  0  0  0  0  0  0
  148.4907  150.7125  130.7751 H   0  0  0  0  0  0  0  0  0  0  0  0
  146.8238  150.6632  131.4599 H   0  0  0  0  0  0  0  0  0  0  0  0
  149.8845  154.4019  133.6195 H   0  0  0  0  0  0  0  0  0  0  0  0
  150.3419  154.4054  131.8754 H   0  0  0  0  0  0  0  0  0  0  0  0
  147.5590  154.1790  131.8600 H   0  0  0  0  0  0  0  0  0  0  0  0
  150.0928  156.7680  132.1726 H   0  0  0  0  0  0  0  0  0  0  0  0
  149.6544  159.2100  132.5828 H   0  0  0  0  0  0  0  0  0  0  0  0
  147.5837  161.0716  133.2304 H   0  0  0  0  0  0  0  0  0  0  0  0
  142.9800  160.2000  133.0810 H   0  0  0  0  0  0  0  0  0  0  0  0
  143.8353  157.3708  134.4295 H   0  0  0  0  0  0  0  0  0  0  0  0
  145.9057  155.8771  133.0040 H   0  0  0  0  0  0  0  0  0  0  0  0
  1  2  1  0
  2  3  1  0
  3  4  1  0
  4  5  2  0
  4  6  1  0
  6  7  1  0
  7  8  1  0
  8  9  2  0
  9 10  1  0
 10 11  2  0
 11 12  1  0
 12 13  2  0
 13 14  1  0
 14 15  1  0
 14 16  2  0
 13 17  1  0
 17 18  1  0
 18 19  2  0
 17 20  1  0
 20 21  2  0
 21  8  1  0
 20 11  1  0
  1 22  1  0
  1 23  1  0
  1 24  1  0
  2 25  1  0
  2 26  1  0
  6 27  1  0
  6 28  1  0
  7 29  1  0
  9 30  1  0
 10 31  1  0
 12 32  1  0
 15 33  1  0
 18 34  1  0
 21 35  1  0
M  CHG  2   3  -1  15  -1
M  END
>  <UniqueID>  (24) 
24

>  <SMILES>  (24) 
CC[N-]C(=O)CNc1ccc2cc(C([NH-])=O)n(C=O)c2c1

>  <Energy>  (24) 
66.54879631004701

>  <Genealogy>  (24) 
CC[N-]C(=O)CNc1ccc2cc(C([NH-])=O)n(C=O)c2c1 (protonated)
CC[N-]C(=O)CNc1ccc2cc(C([NH-])=O)n(C=O)c2c1 (3D coordinates assigned)
CC[N-]C(=O)CNc1ccc2cc(C([NH-])=O)n(C=O)c2c1 (optimized conformer: 66.54879631004701 kcal/mol)

>  <smiles>  (24) 
CCNC(=O)CNc1ccc2cc(C(N)=O)n(C=O)c2c1

>  <score_type>  (24) 
oracle

>  <origin>  (24) 
adg

>  <m_score__min__energy>  (24) 
-6.0300000000000002

>  <m_primary>  (24) 
energy

$$$$
24:0
     RDKit          3D

 44 45  0  0  0  0  0  0  0  0999 V2000
  142.1010  157.0470  134.5780 C   0  0  0  0  0  0  0  0  0  0  0  0
  142.2730  158.5040  134.5330 N   0  0  0  0  0  0  0  0  0  0  0  0
  141.1460  159.3570  134.9400 C   0  0  0  0  0  0  0  0  0  0  0  0
  140.6290  158.9480  136.2850 C   0  0  0  0  0  0  0  0  0  0  0  0
  141.1970  159.3610  137.3310 O   0  0  0  0  0  0  0  0  0  0  0  0
  139.4980  158.1490  136.3880 O   0  0  0  0  0  0  0  0  0  0  0  0
  143.5420  159.0770  134.1250 C   0  0  0  0  0  0  0  0  0  0  0  0
  143.7250  160.4890  134.1090 C   0  0  0  0  0  0  0  0  0  0  0  0
  144.9510  161.0570  133.7250 C   0  0  0  0  0  0  0  0  0  0  0  0
  145.9790  160.1990  133.3500 C   0  0  0  0  0  0  0  0  0  0  0  0
  147.2670  160.4820  132.9590 C   0  0  0  0  0  0  0  0  0  0  0  0
  147.8580  159.2430  132.7130 C   0  0  0  0  0  0  0  0  0  0  0  0
  149.2300  159.0840  132.1880 C   0  0  0  0  0  0  0  0  0  0  0  0
  149.7430  157.7800  131.9280 N   0  0  0  0  0  0  0  0  0  0  0  0
  149.9680  160.0860  131.9990 O   0  0  0  0  0  0  0  0  0  0  0  0
  146.9690  158.2370  132.9470 N   0  0  0  0  0  0  0  0  0  0  0  0
  147.2090  156.8220  132.8810 C   0  0  0  0  0  0  0  0  0  0  0  0
  147.1610  156.2330  131.7680 O   0  0  0  0  0  0  0  0  0  0  0  0
  147.4690  156.1120  134.0630 O   0  0  0  0  0  0  0  0  0  0  0  0
  147.4020  154.6890  134.2310 C   0  0  0  0  0  0  0  0  0  0  0  0
  148.4570  153.9880  133.3530 C   0  0  0  0  0  0  0  0  0  0  0  0
  147.7120  154.3930  135.7070 C   0  0  0  0  0  0  0  0  0  0  0  0
  145.9900  154.1680  133.9040 C   0  0  0  0  0  0  0  0  0  0  0  0
  145.8230  158.8400  133.3360 C   0  0  0  0  0  0  0  0  0  0  0  0
  144.6210  158.2450  133.7330 C   0  0  0  0  0  0  0  0  0  0  0  0
  142.0618  156.7146  135.6258 H   0  0  0  0  0  0  0  0  0  0  0  0
  141.1642  156.7725  134.0709 H   0  0  0  0  0  0  0  0  0  0  0  0
  142.9481  156.5619  134.0709 H   0  0  0  0  0  0  0  0  0  0  0  0
  141.4834  160.4030  134.9860 H   0  0  0  0  0  0  0  0  0  0  0  0
  140.3368  159.2482  134.2028 H   0  0  0  0  0  0  0  0  0  0  0  0
  142.8927  161.1458  134.4021 H   0  0  0  0  0  0  0  0  0  0  0  0
  145.0936  162.1477  133.7211 H   0  0  0  0  0  0  0  0  0  0  0  0
  147.7318  161.4741  132.8612 H   0  0  0  0  0  0  0  0  0  0  0  0
  149.1480  157.0470  131.4820 H   0  0  0  0  0  0  0  0  0  0  0  0
  149.2001  153.4943  133.9965 H   0  0  0  0  0  0  0  0  0  0  0  0
  147.9649  153.2366  132.7179 H   0  0  0  0  0  0  0  0  0  0  0  0
  148.9590  154.7328  132.7179 H   0  0  0  0  0  0  0  0  0  0  0  0
  147.0656  155.0102  136.3483 H   0  0  0  0  0  0  0  0  0  0  0  0
  147.5259  153.3289  135.9145 H   0  0  0  0  0  0  0  0  0  0  0  0
  148.7664  154.6281  135.9145 H   0  0  0  0  0  0  0  0  0  0  0  0
  145.4473  153.9677  134.8396 H   0  0  0  0  0  0  0  0  0  0  0  0
  145.4462  154.9247  133.3194 H   0  0  0  0  0  0  0  0  0  0  0  0
  146.0680  153.2395  133.3194 H   0  0  0  0  0  0  0  0  0  0  0  0
  144.5147  157.1502  133.7409 H   0  0  0  0  0  0  0  0  0  0  0  0
  1  2  1  0
  2  3  1  0
  3  4  1  0
  4  5  2  0
  4  6  1  0
  2  7  1  0
  7  8  2  0
  8  9  1  0
  9 10  2  0
 10 11  1  0
 11 12  2  0
 12 13  1  0
 13 14  1  0
 13 15  2  0
 12 16  1  0
 16 17  1  0
 17 18  2  0
 17 19  1  0
 19 20  1  0
 20 21  1  0
 20 22  1  0
 20 23  1  0
 16 24  1  0
 24 25  2  0
 25  7  1  0
 24 10  1  0
  1 26  1  0
  1 27  1  0
  1 28  1  0
  3 29  1  0
  3 30  1  0
  8 31  1  0
  9 32  1  0
 11 33  1  0
 14 34  1  0
 21 35  1  0
 21 36  1  0
 21 37  1  0
 22 38  1  0
 22 39  1  0
 22 40  1  0
 23 41  1  0
 23 42  1  0
 23 43  1  0
 25 44  1  0
M  CHG  2   6  -1  14  -1
M  END
>  <UniqueID>  (25) 
25

>  <SMILES>  (25) 
CN(CC(=O)[O-])c1ccc2cc(C([NH-])=O)n(C(=O)OC(C)(C)C)c2c1

>  <Energy>  (25) 
78.87092821768844

>  <Genealogy>  (25) 
CN(CC(=O)[O-])c1ccc2cc(C([NH-])=O)n(C(=O)OC(C)(C)C)c2c1 (protonated)
CN(CC(=O)[O-])c1ccc2cc(C([NH-])=O)n(C(=O)OC(C)(C)C)c2c1 (3D coordinates assigned)
CN(CC(=O)[O-])c1ccc2cc(C([NH-])=O)n(C(=O)OC(C)(C)C)c2c1 (optimized conformer: 78.87092821768844 kcal/mol)

>  <smiles>  (25) 
CN(CC(=O)O)c1ccc2cc(C(N)=O)n(C(=O)OC(C)(C)C)c2c1

>  <score_type>  (25) 
oracle

>  <origin>  (25) 
adg

>  <m_score__min__energy>  (25) 
-7.1100000000000003

>  <m_primary>  (25) 
energy

$$$$
25:0
     RDKit          3D

 36 37  0  0  0  0  0  0  0  0999 V2000
  149.3510  151.3720  132.2570 C   0  0  0  0  0  0  0  0  0  0  0  0
  148.5130  152.3510  132.5890 C   0  0  0  0  0  0  0  0  0  0  0  0
  148.9800  153.7050  132.9180 C   0  0  0  0  0  0  0  0  0  0  0  0
  149.8820  154.2330  132.2130 O   0  0  0  0  0  0  0  0  0  0  0  0
  148.4300  154.4010  134.0030 O   0  0  0  0  0  0  0  0  0  0  0  0
  147.0570  154.3060  134.3660 C   0  0  0  0  0  0  0  0  0  0  0  0
  146.4260  155.5690  134.1880 O   0  0  0  0  0  0  0  0  0  0  0  0
  146.4580  156.2690  132.9780 C   0  0  0  0  0  0  0  0  0  0  0  0
  146.4560  155.6420  131.8840 O   0  0  0  0  0  0  0  0  0  0  0  0
  146.4930  157.7060  132.9870 N   0  0  0  0  0  0  0  0  0  0  0  0
  147.5720  158.5050  132.7560 C   0  0  0  0  0  0  0  0  0  0  0  0
  148.8950  158.0560  132.2780 C   0  0  0  0  0  0  0  0  0  0  0  0
  149.2370  156.6690  132.2430 N   0  0  0  0  0  0  0  0  0  0  0  0
  149.7160  158.9040  131.8400 O   0  0  0  0  0  0  0  0  0  0  0  0
  147.2560  159.8400  132.9880 C   0  0  0  0  0  0  0  0  0  0  0  0
  145.9320  159.8410  133.3600 C   0  0  0  0  0  0  0  0  0  0  0  0
  145.1090  160.9010  133.7280 C   0  0  0  0  0  0  0  0  0  0  0  0
  143.7890  160.6080  134.1110 C   0  0  0  0  0  0  0  0  0  0  0  0
  143.3200  159.2720  134.1150 C   0  0  0  0  0  0  0  0  0  0  0  0
  141.9250  158.9690  134.5770 C   0  0  0  0  0  0  0  0  0  0  0  0
  141.3900  160.0860  135.1910 F   0  0  0  0  0  0  0  0  0  0  0  0
  144.1890  158.2190  133.7520 C   0  0  0  0  0  0  0  0  0  0  0  0
  145.4930  158.5410  133.3540 C   0  0  0  0  0  0  0  0  0  0  0  0
  148.9610  150.3717  132.0176 H   0  0  0  0  0  0  0  0  0  0  0  0
  150.4337  151.5630  132.2220 H   0  0  0  0  0  0  0  0  0  0  0  0
  147.4339  152.1395  132.6182 H   0  0  0  0  0  0  0  0  0  0  0  0
  146.5617  153.5569  133.7307 H   0  0  0  0  0  0  0  0  0  0  0  0
  146.9789  154.0049  135.4211 H   0  0  0  0  0  0  0  0  0  0  0  0
  150.1910  156.3720  131.9410 H   0  0  0  0  0  0  0  0  0  0  0  0
  148.5240  155.9320  132.4430 H   0  0  0  0  0  0  0  0  0  0  0  0
  147.9231  160.7095  132.8939 H   0  0  0  0  0  0  0  0  0  0  0  0
  145.4802  161.9364  133.7194 H   0  0  0  0  0  0  0  0  0  0  0  0
  143.1143  161.4236  134.4102 H   0  0  0  0  0  0  0  0  0  0  0  0
  141.3040  158.6933  133.7119 H   0  0  0  0  0  0  0  0  0  0  0  0
  141.9490  158.1336  135.2922 H   0  0  0  0  0  0  0  0  0  0  0  0
  143.8503  157.1728  133.7811 H   0  0  0  0  0  0  0  0  0  0  0  0
  1  2  2  0
  2  3  1  0
  3  4  2  0
  3  5  1  0
  5  6  1  0
  6  7  1  0
  7  8  1  0
  8  9  2  0
  8 10  1  0
 10 11  1  0
 11 12  1  0
 12 13  1  0
 12 14  2  0
 11 15  2  0
 15 16  1  0
 16 17  2  0
 17 18  1  0
 18 19  2  0
 19 20  1  0
 20 21  1  0
 19 22  1  0
 22 23  2  0
 23 10  1  0
 23 16  1  0
  1 24  1  0
  1 25  1  0
  2 26  1  0
  6 27  1  0
  6 28  1  0
 13 29  1  0
 13 30  1  0
 15 31  1  0
 17 32  1  0
 18 33  1  0
 20 34  1  0
 20 35  1  0
 22 36  1  0
M  END
>  <UniqueID>  (26) 
26

>  <SMILES>  (26) 
C=CC(=O)OCOC(=O)n1c(C(N)=O)cc2ccc(CF)cc21

>  <Energy>  (26) 
68.76973972801126

>  <Genealogy>  (26) 
C=CC(=O)OCOC(=O)n1c(C(N)=O)cc2ccc(CF)cc21 (3D coordinates assigned)
C=CC(=O)OCOC(=O)n1c(C(N)=O)cc2ccc(CF)cc21 (optimized conformer: 68.76973972801126 kcal/mol)

>  <smiles>  (26) 
C=CC(=O)OCOC(=O)n1c(C(N)=O)cc2ccc(CF)cc21

>  <score_type>  (26) 
oracle

>  <origin>  (26) 
adg

>  <m_score__min__energy>  (26) 
-5.71

>  <m_primary>  (26) 
energy

$$$$
26:0
     RDKit          3D

 41 42  0  0  0  0  0  0  0  0999 V2000
  139.8190  159.3170  132.7110 C   0  0  0  0  0  0  0  0  0  0  0  0
  140.4800  158.4050  133.6690 N   0  0  2  0  0  0  0  0  0  0  0  0
  141.1010  157.2470  132.9730 C   0  0  0  0  0  0  0  0  0  0  0  0
  142.6020  157.4280  132.6660 C   0  0  0  0  0  0  0  0  0  0  0  0
  143.3590  157.9920  133.8370 C   0  0  0  0  0  0  0  0  0  0  0  0
  142.9000  157.8390  135.0010 O   0  0  0  0  0  0  0  0  0  0  0  0
  144.5460  158.7770  133.6390 N   0  0  0  0  0  0  0  0  0  0  0  0
  144.6750  160.1330  133.6840 C   0  0  0  0  0  0  0  0  0  0  0  0
  143.5650  161.1050  133.7400 C   0  0  0  0  0  0  0  0  0  0  0  0
  142.2360  160.6810  134.0310 N   0  0  0  0  0  0  0  0  0  0  0  0
  143.7850  162.3190  133.4870 O   0  0  0  0  0  0  0  0  0  0  0  0
  146.0150  160.5000  133.5650 C   0  0  0  0  0  0  0  0  0  0  0  0
  146.7050  159.3180  133.4260 C   0  0  0  0  0  0  0  0  0  0  0  0
  148.0690  159.0900  133.2660 C   0  0  0  0  0  0  0  0  0  0  0  0
  148.5060  157.7590  133.1590 C   0  0  0  0  0  0  0  0  0  0  0  0
  147.5830  156.6830  133.2300 C   0  0  0  0  0  0  0  0  0  0  0  0
  148.0680  155.2650  133.0710 C   0  0  0  0  0  0  0  0  0  0  0  0
  149.3410  155.2340  132.5270 F   0  0  0  0  0  0  0  0  0  0  0  0
  147.2230  154.5590  132.2320 F   0  0  0  0  0  0  0  0  0  0  0  0
  148.0920  154.6510  134.3080 F   0  0  0  0  0  0  0  0  0  0  0  0
  146.2030  156.9590  133.3670 C   0  0  0  0  0  0  0  0  0  0  0  0
  145.7970  158.2950  133.4670 C   0  0  0  0  0  0  0  0  0  0  0  0
  139.5050  157.9110  134.6710 C   0  0  0  0  0  0  0  0  0  0  0  0
  139.9430  158.2160  136.0770 C   0  0  0  0  0  0  0  0  0  0  0  0
  139.4730  157.5620  137.0450 O   0  0  0  0  0  0  0  0  0  0  0  0
  140.8620  159.2310  136.3140 O   0  0  0  0  0  0  0  0  0  0  0  0
  139.2608  160.0872  133.2634 H   0  0  0  0  0  0  0  0  0  0  0  0
  140.5795  159.7982  132.0784 H   0  0  0  0  0  0  0  0  0  0  0  0
  139.1250  158.7441  132.0784 H   0  0  0  0  0  0  0  0  0  0  0  0
  141.2260  158.9330  134.1740 H   0  0  0  0  0  0  0  0  0  0  0  0
  140.9833  156.3577  133.6096 H   0  0  0  0  0  0  0  0  0  0  0  0
  140.5889  157.1469  132.0047 H   0  0  0  0  0  0  0  0  0  0  0  0
  143.0307  156.4489  132.4058 H   0  0  0  0  0  0  0  0  0  0  0  0
  142.6920  158.1397  131.8321 H   0  0  0  0  0  0  0  0  0  0  0  0
  142.0570  159.8140  134.5850 H   0  0  0  0  0  0  0  0  0  0  0  0
  146.4316  161.5179  133.5792 H   0  0  0  0  0  0  0  0  0  0  0  0
  148.7826  159.9261  133.2247 H   0  0  0  0  0  0  0  0  0  0  0  0
  149.5764  157.5482  133.0185 H   0  0  0  0  0  0  0  0  0  0  0  0
  145.4658  156.1431  133.3944 H   0  0  0  0  0  0  0  0  0  0  0  0
  138.5329  158.3926  134.4889 H   0  0  0  0  0  0  0  0  0  0  0  0
  139.4320  156.8185  134.5660 H   0  0  0  0  0  0  0  0  0  0  0  0
  1  2  1  0
  2  3  1  0
  3  4  1  0
  4  5  1  0
  5  6  2  0
  5  7  1  0
  7  8  1  0
  8  9  1  0
  9 10  1  0
  9 11  2  0
  8 12  2  0
 12 13  1  0
 13 14  2  0
 14 15  1  0
 15 16  2  0
 16 17  1  0
 17 18  1  0
 17 19  1  0
 17 20  1  0
 16 21  1  0
 21 22  2  0
  2 23  1  0
 23 24  1  0
 24 25  2  0
 24 26  1  0
 22  7  1  0
 22 13  1  0
  1 27  1  0
  1 28  1  0
  1 29  1  0
  2 30  1  1
  3 31  1  0
  3 32  1  0
  4 33  1  0
  4 34  1  0
 10 35  1  0
 12 36  1  0
 14 37  1  0
 15 38  1  0
 21 39  1  0
 23 40  1  0
 23 41  1  0
M  CHG  3   2   1  10  -1  26  -1
M  END
>  <UniqueID>  (27) 
27

>  <SMILES>  (27) 
C[N@H+](CCC(=O)n1c(C([NH-])=O)cc2ccc(C(F)(F)F)cc21)CC(=O)[O-]

>  <Energy>  (27) 
80.41139639150767

>  <Genealogy>  (27) 
C[NH+](CCC(=O)n1c(C([NH-])=O)cc2ccc(C(F)(F)F)cc21)CC(=O)[O-] (protonated)
C[N@H+](CCC(=O)n1c(C([NH-])=O)cc2ccc(C(F)(F)F)cc21)CC(=O)[O-] (chirality)
C[N@H+](CCC(=O)n1c(C([NH-])=O)cc2ccc(C(F)(F)F)cc21)CC(=O)[O-] (3D coordinates assigned)
C[N@H+](CCC(=O)n1c(C([NH-])=O)cc2ccc(C(F)(F)F)cc21)CC(=O)[O-] (optimized conformer: 80.41139639150767 kcal/mol)

>  <smiles>  (27) 
CN(CCC(=O)n1c(C(N)=O)cc2ccc(C(F)(F)F)cc21)CC(=O)O

>  <score_type>  (27) 
oracle

>  <origin>  (27) 
adg

>  <m_score__min__energy>  (27) 
-6.2599999999999998

>  <m_primary>  (27) 
energy

$$$$
27:0
     RDKit          3D

 44 45  0  0  0  0  0  0  0  0999 V2000
  143.6900  155.8090  135.2310 C   0  0  0  0  0  0  0  0  0  0  0  0
  142.9190  156.8080  134.4870 N   0  0  0  0  0  0  0  0  0  0  0  0
  143.5030  157.4450  133.3320 C   0  0  0  0  0  0  0  0  0  0  0  0
  142.8830  157.4740  132.2350 O   0  0  0  0  0  0  0  0  0  0  0  0
  144.7830  158.0810  133.4200 N   0  0  0  0  0  0  0  0  0  0  0  0
  145.0420  159.4070  133.5780 C   0  0  0  0  0  0  0  0  0  0  0  0
  144.0220  160.4700  133.6900 C   0  0  0  0  0  0  0  0  0  0  0  0
  142.6660  160.1950  133.3490 N   0  0  0  0  0  0  0  0  0  0  0  0
  144.3380  161.6230  134.0860 O   0  0  0  0  0  0  0  0  0  0  0  0
  146.4180  159.6320  133.6070 C   0  0  0  0  0  0  0  0  0  0  0  0
  146.9930  158.3870  133.4640 C   0  0  0  0  0  0  0  0  0  0  0  0
  148.3330  158.0160  133.4080 C   0  0  0  0  0  0  0  0  0  0  0  0
  148.6310  156.6510  133.2420 C   0  0  0  0  0  0  0  0  0  0  0  0
  147.5940  155.6860  133.1540 C   0  0  0  0  0  0  0  0  0  0  0  0
  147.9280  154.2340  132.9240 C   0  0  0  0  0  0  0  0  0  0  0  0
  148.8340  154.0990  131.8860 F   0  0  0  0  0  0  0  0  0  0  0  0
  146.7900  153.5160  132.6010 F   0  0  0  0  0  0  0  0  0  0  0  0
  148.4820  153.7070  134.0760 F   0  0  0  0  0  0  0  0  0  0  0  0
  146.2460  156.1080  133.1920 C   0  0  0  0  0  0  0  0  0  0  0  0
  145.9820  157.4700  133.3550 C   0  0  0  0  0  0  0  0  0  0  0  0
  141.6640  157.2610  135.0320 C   0  0  0  0  0  0  0  0  0  0  0  0
  141.1300  156.6100  135.9740 O   0  0  0  0  0  0  0  0  0  0  0  0
  140.9780  158.4030  134.4640 N   0  0  2  0  0  0  0  0  0  0  0  0
  140.6840  159.3830  135.5240 C   0  0  0  0  0  0  0  0  0  0  0  0
  139.7260  157.9890  133.7890 C   0  0  0  0  0  0  0  0  0  0  0  0
  139.7560  158.2450  132.2720 C   0  0  0  0  0  0  0  0  0  0  0  0
  140.5320  159.3710  131.9670 O   0  0  0  0  0  0  0  0  0  0  0  0
  143.5612  155.9759  136.3106 H   0  0  0  0  0  0  0  0  0  0  0  0
  143.3329  154.8017  134.9705 H   0  0  0  0  0  0  0  0  0  0  0  0
  144.7549  155.8992  134.9705 H   0  0  0  0  0  0  0  0  0  0  0  0
  142.4300  159.4920  132.6150 H   0  0  0  0  0  0  0  0  0  0  0  0
  146.9343  160.5967  133.7198 H   0  0  0  0  0  0  0  0  0  0  0  0
  149.1336  158.7658  133.4909 H   0  0  0  0  0  0  0  0  0  0  0  0
  149.6806  156.3278  133.1797 H   0  0  0  0  0  0  0  0  0  0  0  0
  145.4251  155.3822  133.0956 H   0  0  0  0  0  0  0  0  0  0  0  0
  141.5910  158.8750  133.7600 H   0  0  0  0  0  0  0  0  0  0  0  0
  140.8252  158.9122  136.5081 H   0  0  0  0  0  0  0  0  0  0  0  0
  141.3639  160.2423  135.4277 H   0  0  0  0  0  0  0  0  0  0  0  0
  139.6434  159.7262  135.4277 H   0  0  0  0  0  0  0  0  0  0  0  0
  139.5725  156.9135  133.9613 H   0  0  0  0  0  0  0  0  0  0  0  0
  138.9069  158.5899  134.2110 H   0  0  0  0  0  0  0  0  0  0  0  0
  140.1839  157.3661  131.7675 H   0  0  0  0  0  0  0  0  0  0  0  0
  138.7271  158.4252  131.9271 H   0  0  0  0  0  0  0  0  0  0  0  0
  141.4690  159.0550  131.8730 H   0  0  0  0  0  0  0  0  0  0  0  0
  1  2  1  0
  2  3  1  0
  3  4  2  0
  3  5  1  0
  5  6  1  0
  6  7  1  0
  7  8  1  0
  7  9  2  0
  6 10  2  0
 10 11  1  0
 11 12  2  0
 12 13  1  0
 13 14  2  0
 14 15  1  0
 15 16  1  0
 15 17  1  0
 15 18  1  0
 14 19  1  0
 19 20  2  0
  2 21  1  0
 21 22  2  0
 21 23  1  0
 23 24  1  0
 23 25  1  0
 25 26  1  0
 26 27  1  0
 20  5  1  0
 20 11  1  0
  1 28  1  0
  1 29  1  0
  1 30  1  0
  8 31  1  0
 10 32  1  0
 12 33  1  0
 13 34  1  0
 19 35  1  0
 23 36  1  6
 24 37  1  0
 24 38  1  0
 24 39  1  0
 25 40  1  0
 25 41  1  0
 26 42  1  0
 26 43  1  0
 27 44  1  0
M  CHG  2   8  -1  23   1
M  END
>  <UniqueID>  (28) 
28

>  <SMILES>  (28) 
CN(C(=O)n1c(C([NH-])=O)cc2ccc(C(F)(F)F)cc21)C(=O)[N@H+](C)CCO

>  <Energy>  (28) 
87.5919419225259

>  <Genealogy>  (28) 
CN(C(=O)n1c(C([NH-])=O)cc2ccc(C(F)(F)F)cc21)C(=O)[NH+](C)CCO (protonated)
CN(C(=O)n1c(C([NH-])=O)cc2ccc(C(F)(F)F)cc21)C(=O)[N@H+](C)CCO (chirality)
CN(C(=O)n1c(C([NH-])=O)cc2ccc(C(F)(F)F)cc21)C(=O)[N@H+](C)CCO (3D coordinates assigned)
CN(C(=O)n1c(C([NH-])=O)cc2ccc(C(F)(F)F)cc21)C(=O)[N@H+](C)CCO (optimized conformer: 87.5919419225259 kcal/mol)

>  <smiles>  (28) 
CN(CCO)C(=O)N(C)C(=O)n1c(C(N)=O)cc2ccc(C(F)(F)F)cc21

>  <score_type>  (28) 
oracle

>  <origin>  (28) 
adg

>  <m_score__min__energy>  (28) 
-5.1399999999999997

>  <m_primary>  (28) 
energy

$$$$
28:0
     RDKit          3D

 39 40  0  0  0  0  0  0  0  0999 V2000
  138.7340  158.5810  131.5470 C   0  0  0  0  0  0  0  0  0  0  0  0
  138.8150  158.1970  133.0200 C   0  0  0  0  0  0  0  0  0  0  0  0
  139.2840  156.8580  133.1660 O   0  0  0  0  0  0  0  0  0  0  0  0
  140.6390  156.5200  133.2390 C   0  0  0  0  0  0  0  0  0  0  0  0
  141.5250  157.3580  132.9140 O   0  0  0  0  0  0  0  0  0  0  0  0
  140.9870  155.2350  133.6750 O   0  0  0  0  0  0  0  0  0  0  0  0
  140.6040  154.0400  133.0520 C   0  0  0  0  0  0  0  0  0  0  0  0
  139.4260  153.8820  132.6310 O   0  0  0  0  0  0  0  0  0  0  0  0
  141.5660  152.9860  132.8880 N   0  0  0  0  0  0  0  0  0  0  0  0
  142.9000  153.0290  133.1600 C   0  0  0  0  0  0  0  0  0  0  0  0
  143.6680  154.2350  133.5340 C   0  0  0  0  0  0  0  0  0  0  0  0
  143.3420  155.5160  132.9940 N   0  0  0  0  0  0  0  0  0  0  0  0
  144.6640  154.1220  134.2980 O   0  0  0  0  0  0  0  0  0  0  0  0
  143.4790  151.7740  132.9950 C   0  0  0  0  0  0  0  0  0  0  0  0
  142.4520  150.9500  132.5950 C   0  0  0  0  0  0  0  0  0  0  0  0
  142.4590  149.5890  132.3090 C   0  0  0  0  0  0  0  0  0  0  0  0
  141.2400  148.9830  131.9620 C   0  0  0  0  0  0  0  0  0  0  0  0
  140.0450  149.7430  131.9100 C   0  0  0  0  0  0  0  0  0  0  0  0
  138.7380  149.0690  131.5830 C   0  0  0  0  0  0  0  0  0  0  0  0
  138.8040  148.3420  130.2380 C   0  0  0  0  0  0  0  0  0  0  0  0
  138.4380  146.9950  130.3830 O   0  0  0  0  0  0  0  0  0  0  0  0
  140.0750  151.1220  132.2170 C   0  0  0  0  0  0  0  0  0  0  0  0
  141.3060  151.7040  132.5390 C   0  0  0  0  0  0  0  0  0  0  0  0
  138.5076  159.6539  131.4597 H   0  0  0  0  0  0  0  0  0  0  0  0
  139.6967  158.3685  131.0592 H   0  0  0  0  0  0  0  0  0  0  0  0
  137.9391  157.9977  131.0592 H   0  0  0  0  0  0  0  0  0  0  0  0
  139.5071  158.8803  133.5339 H   0  0  0  0  0  0  0  0  0  0  0  0
  137.8098  158.2701  133.4607 H   0  0  0  0  0  0  0  0  0  0  0  0
  143.8710  156.3620  133.2990 H   0  0  0  0  0  0  0  0  0  0  0  0
  142.6370  155.6160  132.2310 H   0  0  0  0  0  0  0  0  0  0  0  0
  144.5327  151.4995  133.1510 H   0  0  0  0  0  0  0  0  0  0  0  0
  143.3902  149.0051  132.3531 H   0  0  0  0  0  0  0  0  0  0  0  0
  141.2128  147.9084  131.7285 H   0  0  0  0  0  0  0  0  0  0  0  0
  138.5044  148.3397  132.3726 H   0  0  0  0  0  0  0  0  0  0  0  0
  137.9572  149.8413  131.5204 H   0  0  0  0  0  0  0  0  0  0  0  0
  138.1166  148.8287  129.5305 H   0  0  0  0  0  0  0  0  0  0  0  0
  139.8364  148.3890  129.8612 H   0  0  0  0  0  0  0  0  0  0  0  0
  137.6250  146.9780  130.9520 H   0  0  0  0  0  0  0  0  0  0  0  0
  139.1537  151.7228  132.2032 H   0  0  0  0  0  0  0  0  0  0  0  0
  1  2  1  0
  2  3  1  0
  3  4  1  0
  4  5  2  0
  4  6  1  0
  6  7  1  0
  7  8  2  0
  7  9  1  0
  9 10  1  0
 10 11  1  0
 11 12  1  0
 11 13  2  0
 10 14  2  0
 14 15  1  0
 15 16  2  0
 16 17  1  0
 17 18  2  0
 18 19  1  0
 19 20  1  0
 20 21  1  0
 18 22  1  0
 22 23  2  0
 23  9  1  0
 23 15  1  0
  1 24  1  0
  1 25  1  0
  1 26  1  0
  2 27  1  0
  2 28  1  0
 12 29  1  0
 12 30  1  0
 14 31  1  0
 16 32  1  0
 17 33  1  0
 19 34  1  0
 19 35  1  0
 20 36  1  0
 20 37  1  0
 21 38  1  0
 22 39  1  0
M  END
>  <UniqueID>  (29) 
29

>  <SMILES>  (29) 
CCOC(=O)OC(=O)n1c(C(N)=O)cc2ccc(CCO)cc21

>  <Energy>  (29) 
72.84577383506573

>  <Genealogy>  (29) 
CCOC(=O)OC(=O)n1c(C(N)=O)cc2ccc(CCO)cc21 (3D coordinates assigned)
CCOC(=O)OC(=O)n1c(C(N)=O)cc2ccc(CCO)cc21 (optimized conformer: 72.84577383506573 kcal/mol)

>  <smiles>  (29) 
CCOC(=O)OC(=O)n1c(C(N)=O)cc2ccc(CCO)cc21

>  <score_type>  (29) 
oracle

>  <origin>  (29) 
adg

>  <m_score__min__energy>  (29) 
-6.46

>  <m_primary>  (29) 
energy

$$$$
29:0
     RDKit          3D

 40 42  0  0  0  0  0  0  0  0999 V2000
  144.0340  160.3790  134.1100 C   0  0  0  0  0  0  0  0  0  0  0  0
  145.3530  160.6370  133.5420 N   0  0  0  0  0  0  0  0  0  0  0  0
  146.3240  159.6060  133.2870 C   0  0  0  0  0  0  0  0  0  0  0  0
  147.5880  159.9020  132.7100 C   0  0  0  0  0  0  0  0  0  0  0  0
  148.5180  158.8810  132.4550 C   0  0  0  0  0  0  0  0  0  0  0  0
  148.1660  157.5780  132.7930 C   0  0  0  0  0  0  0  0  0  0  0  0
  148.8610  156.4030  132.6200 C   0  0  0  0  0  0  0  0  0  0  0  0
  148.0270  155.4070  133.1200 C   0  0  0  0  0  0  0  0  0  0  0  0
  148.4090  153.9820  133.1810 C   0  0  0  0  0  0  0  0  0  0  0  0
  147.4930  152.9900  133.6460 N   0  0  0  0  0  0  0  0  0  0  0  0
  149.5810  153.6420  132.8680 O   0  0  0  0  0  0  0  0  0  0  0  0
  146.8580  155.9400  133.5740 N   0  0  0  0  0  0  0  0  0  0  0  0
  145.7010  155.2280  134.0430 C   0  0  0  0  0  0  0  0  0  0  0  0
  145.8090  154.4000  134.9880 O   0  0  0  0  0  0  0  0  0  0  0  0
  144.4560  155.4600  133.4470 O   0  0  0  0  0  0  0  0  0  0  0  0
  143.9990  154.7600  132.2930 C   0  0  0  0  0  0  0  0  0  0  0  0
  144.3780  153.3140  132.3810 C   0  0  0  0  0  0  0  0  0  0  0  0
  145.5890  152.8510  132.1740 O   0  0  0  0  0  0  0  0  0  0  0  0
  145.5110  151.5500  132.3400 C   0  0  0  0  0  0  0  0  0  0  0  0
  146.4910  150.7710  132.2180 O   0  0  0  0  0  0  0  0  0  0  0  0
  144.2980  151.1520  132.6480 O   0  0  0  0  0  0  0  0  0  0  0  0
  143.5610  152.2370  132.6830 C   0  0  0  0  0  0  0  0  0  0  0  0
  142.1020  152.2630  132.9940 C   0  0  0  0  0  0  0  0  0  0  0  0
  146.9600  157.2730  133.3680 C   0  0  0  0  0  0  0  0  0  0  0  0
  146.0070  158.2690  133.6130 C   0  0  0  0  0  0  0  0  0  0  0  0
  144.0987  160.3917  135.2080 H   0  0  0  0  0  0  0  0  0  0  0  0
  143.3320  161.1569  133.7751 H   0  0  0  0  0  0  0  0  0  0  0  0
  143.6768  159.3940  133.7751 H   0  0  0  0  0  0  0  0  0  0  0  0
  145.5940  161.6270  133.3100 H   0  0  0  0  0  0  0  0  0  0  0  0
  147.8412  160.9429  132.4601 H   0  0  0  0  0  0  0  0  0  0  0  0
  149.4950  159.1046  132.0018 H   0  0  0  0  0  0  0  0  0  0  0  0
  149.8616  156.2776  132.1806 H   0  0  0  0  0  0  0  0  0  0  0  0
  147.7660  151.9810  133.6430 H   0  0  0  0  0  0  0  0  0  0  0  0
  146.5760  153.2570  134.0680 H   0  0  0  0  0  0  0  0  0  0  0  0
  142.9043  154.8452  132.2262 H   0  0  0  0  0  0  0  0  0  0  0  0
  144.4653  155.1993  131.3988 H   0  0  0  0  0  0  0  0  0  0  0  0
  141.9596  152.2655  134.0847 H   0  0  0  0  0  0  0  0  0  0  0  0
  141.6514  153.1693  132.5633 H   0  0  0  0  0  0  0  0  0  0  0  0
  141.6194  151.3733  132.5633 H   0  0  0  0  0  0  0  0  0  0  0  0
  145.0304  158.0151  134.0509 H   0  0  0  0  0  0  0  0  0  0  0  0
  1  2  1  0
  2  3  1  0
  3  4  2  0
  4  5  1  0
  5  6  2  0
  6  7  1  0
  7  8  2  0
  8  9  1  0
  9 10  1  0
  9 11  2  0
  8 12  1  0
 12 13  1  0
 13 14  2  0
 13 15  1  0
 15 16  1  0
 16 17  1  0
 17 18  1  0
 18 19  1  0
 19 20  2  0
 19 21  1  0
 21 22  1  0
 22 23  1  0
 12 24  1  0
 24 25  2  0
 25  3  1  0
 24  6  1  0
 22 17  2  0
  1 26  1  0
  1 27  1  0
  1 28  1  0
  2 29  1  0
  4 30  1  0
  5 31  1  0
  7 32  1  0
 10 33  1  0
 10 34  1  0
 16 35  1  0
 16 36  1  0
 23 37  1  0
 23 38  1  0
 23 39  1  0
 25 40  1  0
M  END
>  <UniqueID>  (30) 
30

>  <SMILES>  (30) 
CNc1ccc2cc(C(N)=O)n(C(=O)OCc3oc(=O)oc3C)c2c1

>  <Energy>  (30) 
109.62358429225979

>  <Genealogy>  (30) 
CNc1ccc2cc(C(N)=O)n(C(=O)OCc3oc(=O)oc3C)c2c1 (3D coordinates assigned)
CNc1ccc2cc(C(N)=O)n(C(=O)OCc3oc(=O)oc3C)c2c1 (optimized conformer: 109.62358429225979 kcal/mol)

>  <smiles>  (30) 
CNc1ccc2cc(C(N)=O)n(C(=O)OCc3oc(=O)oc3C)c2c1

>  <score_type>  (30) 
oracle

>  <origin>  (30) 
adg

>  <m_score__min__energy>  (30) 
-7.0099999999999998

>  <m_primary>  (30) 
energy

$$$$
30:0
     RDKit          3D

 35 36  0  0  0  0  0  0  0  0999 V2000
  142.7060  160.5890  133.8180 N   0  0  0  0  0  0  0  0  0  0  0  0
  144.0830  160.9550  133.7380 C   0  0  0  0  0  0  0  0  0  0  0  0
  144.4110  162.1630  133.8740 O   0  0  0  0  0  0  0  0  0  0  0  0
  145.1320  159.9330  133.5620 C   0  0  0  0  0  0  0  0  0  0  0  0
  146.4750  160.2400  133.3600 C   0  0  0  0  0  0  0  0  0  0  0  0
  147.1180  159.0270  133.2940 C   0  0  0  0  0  0  0  0  0  0  0  0
  148.4590  158.7410  133.0660 C   0  0  0  0  0  0  0  0  0  0  0  0
  148.8420  157.3920  132.9840 C   0  0  0  0  0  0  0  0  0  0  0  0
  147.8840  156.3570  133.1360 C   0  0  0  0  0  0  0  0  0  0  0  0
  148.2910  154.9150  132.9690 C   0  0  0  0  0  0  0  0  0  0  0  0
  149.4850  154.8190  132.2760 F   0  0  0  0  0  0  0  0  0  0  0  0
  148.4590  154.3100  134.2020 F   0  0  0  0  0  0  0  0  0  0  0  0
  147.3080  154.2420  132.2670 F   0  0  0  0  0  0  0  0  0  0  0  0
  146.5260  156.6900  133.3440 C   0  0  0  0  0  0  0  0  0  0  0  0
  146.1750  158.0410  133.4440 C   0  0  0  0  0  0  0  0  0  0  0  0
  144.9460  158.5830  133.6100 N   0  0  0  0  0  0  0  0  0  0  0  0
  143.6940  157.8790  133.6780 C   0  0  0  0  0  0  0  0  0  0  0  0
  142.9480  157.8360  132.6600 O   0  0  0  0  0  0  0  0  0  0  0  0
  143.3280  157.2040  134.8510 O   0  0  0  0  0  0  0  0  0  0  0  0
  142.1230  156.5040  135.0370 C   0  0  0  0  0  0  0  0  0  0  0  0
  141.0360  157.1700  135.4490 C   0  0  0  0  0  0  0  0  0  0  0  0
  141.0670  158.8930  135.7970 S   0  0  0  0  0  0  0  0  0  0  0  0
  140.2380  159.1790  137.0180 O   0  0  0  0  0  0  0  0  0  0  0  0
  142.4860  159.3150  136.0580 O   0  0  0  0  0  0  0  0  0  0  0  0
  140.4740  159.7500  134.4800 O   0  0  0  0  0  0  0  0  0  0  0  0
  142.0140  155.0580  134.7330 C   0  0  0  0  0  0  0  0  0  0  0  0
  142.8550  154.2460  135.1980 O   0  0  0  0  0  0  0  0  0  0  0  0
  141.0070  154.5820  133.9010 O   0  0  0  0  0  0  0  0  0  0  0  0
  142.4230  159.5880  133.8990 H   0  0  0  0  0  0  0  0  0  0  0  0
  141.9700  161.3260  133.8940 H   0  0  0  0  0  0  0  0  0  0  0  0
  146.9252  161.2398  133.2720 H   0  0  0  0  0  0  0  0  0  0  0  0
  149.1986  159.5474  132.9531 H   0  0  0  0  0  0  0  0  0  0  0  0
  149.8957  157.1356  132.8000 H   0  0  0  0  0  0  0  0  0  0  0  0
  145.7612  155.9036  133.4255 H   0  0  0  0  0  0  0  0  0  0  0  0
  140.0917  156.6199  135.5738 H   0  0  0  0  0  0  0  0  0  0  0  0
  1  2  1  0
  2  3  2  0
  2  4  1  0
  4  5  2  0
  5  6  1  0
  6  7  2  0
  7  8  1  0
  8  9  2  0
  9 10  1  0
 10 11  1  0
 10 12  1  0
 10 13  1  0
  9 14  1  0
 14 15  2  0
 15 16  1  0
 16 17  1  0
 17 18  2  0
 17 19  1  0
 19 20  1  0
 20 21  2  3
 21 22  1  0
 22 23  2  0
 22 24  2  0
 22 25  1  0
 20 26  1  0
 26 27  2  0
 26 28  1  0
 16  4  1  0
 15  6  1  0
  1 29  1  0
  1 30  1  0
  5 31  1  0
  7 32  1  0
  8 33  1  0
 14 34  1  0
 21 35  1  0
M  CHG  2  25  -1  28  -1
M  END
>  <UniqueID>  (31) 
31

>  <SMILES>  (31) 
NC(=O)c1cc2ccc(C(F)(F)F)cc2n1C(=O)OC(=CS(=O)(=O)[O-])C(=O)[O-]

>  <Energy>  (31) 
79.60597571117992

>  <Genealogy>  (31) 
NC(=O)c1cc2ccc(C(F)(F)F)cc2n1C(=O)OC(=CS(=O)(=O)[O-])C(=O)[O-] (protonated)
NC(=O)c1cc2ccc(C(F)(F)F)cc2n1C(=O)OC(=CS(=O)(=O)[O-])C(=O)[O-] (3D coordinates assigned)
NC(=O)c1cc2ccc(C(F)(F)F)cc2n1C(=O)OC(=CS(=O)(=O)[O-])C(=O)[O-] (optimized conformer: 79.60597571117992 kcal/mol)

>  <smiles>  (31) 
NC(=O)c1cc2ccc(C(F)(F)F)cc2n1C(=O)OC(=CS(=O)(=O)O)C(=O)O

>  <score_type>  (31) 
oracle

>  <origin>  (31) 
adg

>  <m_score__min__energy>  (31) 
-7.0899999999999999

>  <m_primary>  (31) 
energy

$$$$
31:0
     RDKit          3D

 45 46  0  0  0  0  0  0  0  0999 V2000
  146.5301  156.2307  132.4838 H   0  0  0  0  0  0  0  0  0  0  0  0
  146.8930  156.9600  133.2230 C   0  0  0  0  0  0  0  0  0  0  0  0
  147.8110  156.6320  134.0200 O   0  0  0  0  0  0  0  0  0  0  0  0
  146.3130  158.2740  133.2660 N   0  0  0  0  0  0  0  0  0  0  0  0
  146.9320  159.4760  133.0950 C   0  0  0  0  0  0  0  0  0  0  0  0
  148.3160  159.6800  132.6250 C   0  0  0  0  0  0  0  0  0  0  0  0
  148.5290  160.4270  131.6320 O   0  0  0  0  0  0  0  0  0  0  0  0
  149.4090  158.9860  133.2270 N   0  0  0  0  0  0  0  0  0  0  0  0
  149.2450  158.2410  133.9400 H   0  0  0  0  0  0  0  0  0  0  0  0
  150.3850  159.1570  132.8960 H   0  0  0  0  0  0  0  0  0  0  0  0
  146.0550  160.5240  133.3620 C   0  0  0  0  0  0  0  0  0  0  0  0
  146.2709  161.6018  133.3210 H   0  0  0  0  0  0  0  0  0  0  0  0
  144.8610  159.9240  133.6880 C   0  0  0  0  0  0  0  0  0  0  0  0
  143.6460  160.4900  134.0540 C   0  0  0  0  0  0  0  0  0  0  0  0
  143.5170  161.5818  134.0903 H   0  0  0  0  0  0  0  0  0  0  0  0
  142.5880  159.6250  134.3760 C   0  0  0  0  0  0  0  0  0  0  0  0
  141.6130  160.0460  134.6624 H   0  0  0  0  0  0  0  0  0  0  0  0
  142.7560  158.2170  134.3380 C   0  0  0  0  0  0  0  0  0  0  0  0
  141.6480  157.3800  134.7330 N   0  0  0  0  0  0  0  0  0  0  0  0
  140.8130  157.8560  135.1430 H   0  0  0  0  0  0  0  0  0  0  0  0
  141.6210  155.9090  134.7610 C   0  0  2  0  0  0  0  0  0  0  0  0
  140.5902  155.6003  134.9896 H   0  0  0  0  0  0  0  0  0  0  0  0
  142.4800  155.3300  135.8670 C   0  0  0  0  0  0  0  0  0  0  0  0
  143.3730  154.7586  135.5736 H   0  0  0  0  0  0  0  0  0  0  0  0
  142.2300  155.4640  137.1770 C   0  0  0  0  0  0  0  0  0  0  0  0
  142.9527  155.0337  137.8859 H   0  0  0  0  0  0  0  0  0  0  0  0
  141.0420  156.1550  137.7310 C   0  0  0  0  0  0  0  0  0  0  0  0
  140.7700  157.4560  137.2730 O   0  0  0  0  0  0  0  0  0  0  0  0
  141.4070  158.6410  137.7410 C   0  0  0  0  0  0  0  0  0  0  0  0
  141.4096  158.6459  138.8410 H   0  0  0  0  0  0  0  0  0  0  0  0
  142.4427  158.6709  137.3717 H   0  0  0  0  0  0  0  0  0  0  0  0
  140.8605  159.5214  137.3717 H   0  0  0  0  0  0  0  0  0  0  0  0
  140.2490  155.5410  138.6330 C   0  0  0  0  0  0  0  0  0  0  0  0
  139.3472  156.0675  138.9789 H   0  0  0  0  0  0  0  0  0  0  0  0
  140.5340  154.1760  139.1890 C   0  0  0  0  0  0  0  0  0  0  0  0
  140.5251  154.2186  140.2881 H   0  0  0  0  0  0  0  0  0  0  0  0
  139.7637  153.4710  138.8431 H   0  0  0  0  0  0  0  0  0  0  0  0
  141.5220  153.8382  138.8431 H   0  0  0  0  0  0  0  0  0  0  0  0
  142.0030  155.3460  133.3890 C   0  0  0  0  0  0  0  0  0  0  0  0
  142.6161  154.4423  133.5213 H   0  0  0  0  0  0  0  0  0  0  0  0
  141.0904  155.0913  132.8301 H   0  0  0  0  0  0  0  0  0  0  0  0
  142.5768  156.0999  132.8301 H   0  0  0  0  0  0  0  0  0  0  0  0
  144.0070  157.6810  133.9430 C   0  0  0  0  0  0  0  0  0  0  0  0
  144.1615  156.5931  133.8913 H   0  0  0  0  0  0  0  0  0  0  0  0
  145.0420  158.5670  133.6200 C   0  0  0  0  0  0  0  0  0  0  0  0
  1  2  1  0
  2  3  2  0
  2  4  1  0
  4  5  1  0
  5  6  1  0
  6  7  2  0
  6  8  1  0
  8  9  1  0
  8 10  1  0
  5 11  2  0
 11 12  1  0
 11 13  1  0
 13 14  2  0
 14 15  1  0
 14 16  1  0
 16 17  1  0
 16 18  2  0
 18 19  1  0
 19 20  1  0
 19 21  1  0
 21 22  1  1
 21 23  1  0
 23 24  1  0
 23 25  2  0
 25 26  1  0
 25 27  1  0
 27 28  1  0
 28 29  1  0
 29 30  1  0
 29 31  1  0
 29 32  1  0
 27 33  2  0
 33 34  1  0
 33 35  1  0
 35 36  1  0
 35 37  1  0
 35 38  1  0
 21 39  1  0
 39 40  1  0
 39 41  1  0
 39 42  1  0
 18 43  1  0
 43 44  1  0
 43 45  2  0
 45  4  1  0
 45 13  1  0
M  END
>  <UniqueID>  (32) 
32

>  <SMILES>  (32) 
C/C=C(\C=C/[C@H](C)Nc1ccc2cc(C(N)=O)n(C=O)c2c1)OC

>  <Energy>  (32) 
82.76593844501043

>  <Genealogy>  (32) 
C/C=C(\C=C/[C@H](C)Nc1ccc2cc(C(N)=O)n(C=O)c2c1)OC (chirality)
C/C=C(\C=C/[C@H](C)Nc1ccc2cc(C(N)=O)n(C=O)c2c1)OC (cis-trans isomerization)
C/C=C(\C=C/[C@H](C)Nc1ccc2cc(C(N)=O)n(C=O)c2c1)OC (3D coordinates assigned)
C/C=C(\C=C/[C@H](C)Nc1ccc2cc(C(N)=O)n(C=O)c2c1)OC (optimized conformer: 82.76593844501043 kcal/mol)

>  <smiles>  (32) 
C/C=C(\C=C/C(C)Nc1ccc2cc(C(N)=O)n(C=O)c2c1)OC

>  <score_type>  (32) 
oracle

>  <origin>  (32) 
adg

>  <m_score__min__energy>  (32) 
-7.6799999999999997

>  <m_primary>  (32) 
energy

$$$$
32:0
     RDKit          3D

 60 61  0  0  0  0  0  0  0  0999 V2000
  139.0900  149.4110  131.8890 C   0  0  0  0  0  0  0  0  0  0  0  0
  140.4380  150.0270  132.1200 C   0  0  0  0  0  0  0  0  0  0  0  0
  141.6080  149.2740  131.8720 C   0  0  0  0  0  0  0  0  0  0  0  0
  142.8730  149.8270  132.1150 C   0  0  0  0  0  0  0  0  0  0  0  0
  142.9360  151.1210  132.6240 C   0  0  0  0  0  0  0  0  0  0  0  0
  144.0340  151.8900  132.9460 C   0  0  0  0  0  0  0  0  0  0  0  0
  143.5150  153.0860  133.4290 C   0  0  0  0  0  0  0  0  0  0  0  0
  144.3520  154.1730  133.9760 C   0  0  0  0  0  0  0  0  0  0  0  0
  143.9360  155.5370  133.8910 N   0  0  0  0  0  0  0  0  0  0  0  0
  145.4240  153.8860  134.5770 O   0  0  0  0  0  0  0  0  0  0  0  0
  142.1510  153.0710  133.3890 N   0  0  0  0  0  0  0  0  0  0  0  0
  141.2580  154.1520  133.7160 C   0  0  0  0  0  0  0  0  0  0  0  0
  141.4550  154.8380  134.7580 O   0  0  0  0  0  0  0  0  0  0  0  0
  140.1730  154.4450  132.8810 O   0  0  0  0  0  0  0  0  0  0  0  0
  139.4700  155.6830  132.9310 C   0  0  0  0  0  0  0  0  0  0  0  0
  140.3810  156.7660  132.7660 O   0  0  0  0  0  0  0  0  0  0  0  0
  139.9520  158.0750  132.5140 C   0  0  0  0  0  0  0  0  0  0  0  0
  138.8620  158.2870  131.8980 O   0  0  0  0  0  0  0  0  0  0  0  0
  140.8220  159.2290  132.9130 C   0  0  0  0  0  0  0  0  0  0  0  0
  141.5230  158.9410  134.1720 N   0  0  0  0  0  0  0  0  0  0  0  0
  141.1910  159.6860  135.3910 C   0  0  0  0  0  0  0  0  0  0  0  0
  142.6100  157.9970  134.1890 C   0  0  0  0  0  0  0  0  0  0  0  0
  142.8050  157.2710  135.2060 O   0  0  0  0  0  0  0  0  0  0  0  0
  143.4660  157.9010  133.0860 O   0  0  0  0  0  0  0  0  0  0  0  0
  144.6860  158.6250  132.9820 C   0  0  0  0  0  0  0  0  0  0  0  0
  145.5840  158.1820  133.9930 O   0  0  0  0  0  0  0  0  0  0  0  0
  146.5830  157.2330  133.7670 C   0  0  0  0  0  0  0  0  0  0  0  0
  146.7190  156.2430  134.5380 O   0  0  0  0  0  0  0  0  0  0  0  0
  147.4850  157.3840  132.5820 C   0  0  0  0  0  0  0  0  0  0  0  0
  147.9950  158.7650  132.4740 N   0  0  0  0  0  0  0  0  0  0  0  0
  149.0830  158.8440  131.4830 C   0  0  0  0  0  0  0  0  0  0  0  0
  148.4920  159.2140  133.7860 C   0  0  0  0  0  0  0  0  0  0  0  0
  141.8110  151.8540  132.9000 C   0  0  0  0  0  0  0  0  0  0  0  0
  140.5370  151.3350  132.6460 C   0  0  0  0  0  0  0  0  0  0  0  0
  138.6152  149.1940  132.8573 H   0  0  0  0  0  0  0  0  0  0  0  0
  138.4598  150.1105  131.3202 H   0  0  0  0  0  0  0  0  0  0  0  0
  139.2064  148.4767  131.3202 H   0  0  0  0  0  0  0  0  0  0  0  0
  141.5255  148.2473  131.4858 H   0  0  0  0  0  0  0  0  0  0  0  0
  143.7896  149.2547  131.9093 H   0  0  0  0  0  0  0  0  0  0  0  0
  145.0943  151.6159  132.8428 H   0  0  0  0  0  0  0  0  0  0  0  0
  144.5700  156.3010  134.2180 H   0  0  0  0  0  0  0  0  0  0  0  0
  142.9950  155.7860  133.5180 H   0  0  0  0  0  0  0  0  0  0  0  0
  138.7217  155.7101  132.1252 H   0  0  0  0  0  0  0  0  0  0  0  0
  138.9703  155.7761  133.9065 H   0  0  0  0  0  0  0  0  0  0  0  0
  141.5631  159.4130  132.1212 H   0  0  0  0  0  0  0  0  0  0  0  0
  140.1880  160.1164  133.0566 H   0  0  0  0  0  0  0  0  0  0  0  0
  141.4588  159.0849  136.2725 H   0  0  0  0  0  0  0  0  0  0  0  0
  141.7529  160.6315  135.4074 H   0  0  0  0  0  0  0  0  0  0  0  0
  140.1122  159.9003  135.4074 H   0  0  0  0  0  0  0  0  0  0  0  0
  145.1329  158.4514  131.9920 H   0  0  0  0  0  0  0  0  0  0  0  0
  144.4886  159.6996  133.1099 H   0  0  0  0  0  0  0  0  0  0  0  0
  148.3354  156.6944  132.6878 H   0  0  0  0  0  0  0  0  0  0  0  0
  146.9096  157.1523  131.6736 H   0  0  0  0  0  0  0  0  0  0  0  0
  150.0492  158.9141  132.0041 H   0  0  0  0  0  0  0  0  0  0  0  0
  149.0710  157.9426  130.8526 H   0  0  0  0  0  0  0  0  0  0  0  0
  148.9409  159.7342  130.8526 H   0  0  0  0  0  0  0  0  0  0  0  0
  147.9303  158.7066  134.5841 H   0  0  0  0  0  0  0  0  0  0  0  0
  149.5605  158.9689  133.8768 H   0  0  0  0  0  0  0  0  0  0  0  0
  148.3563  160.3018  133.8768 H   0  0  0  0  0  0  0  0  0  0  0  0
  139.6348  151.9301  132.8506 H   0  0  0  0  0  0  0  0  0  0  0  0
  1  2  1  0
  2  3  2  0
  3  4  1  0
  4  5  2  0
  5  6  1  0
  6  7  2  0
  7  8  1  0
  8  9  1  0
  8 10  2  0
  7 11  1  0
 11 12  1  0
 12 13  2  0
 12 14  1  0
 14 15  1  0
 15 16  1  0
 16 17  1  0
 17 18  2  0
 17 19  1  0
 19 20  1  0
 20 21  1  0
 20 22  1  0
 22 23  2  0
 22 24  1  0
 24 25  1  0
 25 26  1  0
 26 27  1  0
 27 28  2  0
 27 29  1  0
 29 30  1  0
 30 31  1  0
 30 32  1  0
 11 33  1  0
 33 34  2  0
 34  2  1  0
 33  5  1  0
  1 35  1  0
  1 36  1  0
  1 37  1  0
  3 38  1  0
  4 39  1  0
  6 40  1  0
  9 41  1  0
  9 42  1  0
 15 43  1  0
 15 44  1  0
 19 45  1  0
 19 46  1  0
 21 47  1  0
 21 48  1  0
 21 49  1  0
 25 50  1  0
 25 51  1  0
 29 52  1  0
 29 53  1  0
 31 54  1  0
 31 55  1  0
 31 56  1  0
 32 57  1  0
 32 58  1  0
 32 59  1  0
 34 60  1  0
M  END
>  <UniqueID>  (33) 
33

>  <SMILES>  (33) 
Cc1ccc2cc(C(N)=O)n(C(=O)OCOC(=O)CN(C)C(=O)OCOC(=O)CN(C)C)c2c1

>  <Energy>  (33) 
86.81393911719886

>  <Genealogy>  (33) 
Cc1ccc2cc(C(N)=O)n(C(=O)OCOC(=O)CN(C)C(=O)OCOC(=O)CN(C)C)c2c1 (3D coordinates assigned)
Cc1ccc2cc(C(N)=O)n(C(=O)OCOC(=O)CN(C)C(=O)OCOC(=O)CN(C)C)c2c1 (optimized conformer: 86.81393911719886 kcal/mol)

>  <smiles>  (33) 
Cc1ccc2cc(C(N)=O)n(C(=O)OCOC(=O)CN(C)C(=O)OCOC(=O)CN(C)C)c2c1

>  <score_type>  (33) 
oracle

>  <origin>  (33) 
adg

>  <m_score__min__energy>  (33) 
-6.9400000000000004

>  <m_primary>  (33) 
energy

$$$$
33:0
     RDKit          3D

 50 51  0  0  0  0  0  0  0  0999 V2000
  146.7670  153.7550  133.7330 C   0  0  0  0  0  0  0  0  0  0  0  0
  147.6040  154.8690  133.2710 N   0  0  0  0  0  0  0  0  0  0  0  0
  148.9050  154.5720  132.6570 C   0  0  0  0  0  0  0  0  0  0  0  0
  147.1410  156.2360  133.3980 C   0  0  0  0  0  0  0  0  0  0  0  0
  148.0650  157.3020  133.5970 C   0  0  0  0  0  0  0  0  0  0  0  0
  147.6300  158.6340  133.7140 C   0  0  0  0  0  0  0  0  0  0  0  0
  146.2640  158.8810  133.6370 C   0  0  0  0  0  0  0  0  0  0  0  0
  145.5700  160.0730  133.6880 C   0  0  0  0  0  0  0  0  0  0  0  0
  144.2300  159.7240  133.5340 C   0  0  0  0  0  0  0  0  0  0  0  0
  143.1290  160.7070  133.4290 C   0  0  0  0  0  0  0  0  0  0  0  0
  141.8400  160.2870  132.9870 N   0  0  0  0  0  0  0  0  0  0  0  0
  143.3150  161.9160  133.7320 O   0  0  0  0  0  0  0  0  0  0  0  0
  144.1030  158.3740  133.4090 N   0  0  0  0  0  0  0  0  0  0  0  0
  142.9050  157.6210  133.1630 C   0  0  0  0  0  0  0  0  0  0  0  0
  142.5170  157.4710  131.9740 O   0  0  0  0  0  0  0  0  0  0  0  0
  142.1730  157.0100  134.2490 N   0  0  0  0  0  0  0  0  0  0  0  0
  142.4440  157.3880  135.6440 C   0  0  0  0  0  0  0  0  0  0  0  0
  141.5210  158.4770  136.1030 C   0  0  0  0  0  0  0  0  0  0  0  0
  141.6550  158.9930  137.2440 O   0  0  0  0  0  0  0  0  0  0  0  0
  140.5590  158.9800  135.2320 O   0  0  0  0  0  0  0  0  0  0  0  0
  141.2440  155.9020  133.9800 C   0  0  0  0  0  0  0  0  0  0  0  0
  140.0250  156.4030  133.2650 C   0  0  0  0  0  0  0  0  0  0  0  0
  139.0970  155.5970  132.9820 O   0  0  0  0  0  0  0  0  0  0  0  0
  139.9420  157.7730  132.8580 N   0  0  0  0  0  0  0  0  0  0  0  0
  138.8070  158.2730  132.0830 C   0  0  0  0  0  0  0  0  0  0  0  0
  139.2400  159.3950  131.1330 C   0  0  0  0  0  0  0  0  0  0  0  0
  140.5040  159.1190  130.5950 O   0  0  0  0  0  0  0  0  0  0  0  0
  145.3550  157.8750  133.4570 C   0  0  0  0  0  0  0  0  0  0  0  0
  145.7570  156.5420  133.3280 C   0  0  0  0  0  0  0  0  0  0  0  0
  146.7540  153.7377  134.8328 H   0  0  0  0  0  0  0  0  0  0  0  0
  145.7419  153.8858  133.3562 H   0  0  0  0  0  0  0  0  0  0  0  0
  147.1780  152.8068  133.3562 H   0  0  0  0  0  0  0  0  0  0  0  0
  149.6524  154.4014  133.4459 H   0  0  0  0  0  0  0  0  0  0  0  0
  148.8185  153.6705  132.0327 H   0  0  0  0  0  0  0  0  0  0  0  0
  149.2183  155.4217  132.0327 H   0  0  0  0  0  0  0  0  0  0  0  0
  149.1402  157.0786  133.6604 H   0  0  0  0  0  0  0  0  0  0  0  0
  148.3476  159.4545  133.8618 H   0  0  0  0  0  0  0  0  0  0  0  0
  145.9859  161.0825  133.8217 H   0  0  0  0  0  0  0  0  0  0  0  0
  141.7290  159.4900  132.3200 H   0  0  0  0  0  0  0  0  0  0  0  0
  142.3059  156.5065  136.2873 H   0  0  0  0  0  0  0  0  0  0  0  0
  143.4775  157.7590  135.7085 H   0  0  0  0  0  0  0  0  0  0  0  0
  141.7478  155.1505  133.3543 H   0  0  0  0  0  0  0  0  0  0  0  0
  140.9373  155.4537  134.9365 H   0  0  0  0  0  0  0  0  0  0  0  0
  140.7310  158.4150  133.0940 H   0  0  0  0  0  0  0  0  0  0  0  0
  138.3824  157.4469  131.4936 H   0  0  0  0  0  0  0  0  0  0  0  0
  138.0573  158.6751  132.7804 H   0  0  0  0  0  0  0  0  0  0  0  0
  138.5089  159.4801  130.3155 H   0  0  0  0  0  0  0  0  0  0  0  0
  139.2900  160.3391  131.6953 H   0  0  0  0  0  0  0  0  0  0  0  0
  141.1260  159.0430  131.3650 H   0  0  0  0  0  0  0  0  0  0  0  0
  145.0142  155.7452  133.1751 H   0  0  0  0  0  0  0  0  0  0  0  0
  1  2  1  0
  2  3  1  0
  2  4  1  0
  4  5  2  0
  5  6  1  0
  6  7  2  0
  7  8  1  0
  8  9  2  0
  9 10  1  0
 10 11  1  0
 10 12  2  0
  9 13  1  0
 13 14  1  0
 14 15  2  0
 14 16  1  0
 16 17  1  0
 17 18  1  0
 18 19  2  0
 18 20  1  0
 16 21  1  0
 21 22  1  0
 22 23  2  0
 22 24  1  0
 24 25  1  0
 25 26  1  0
 26 27  1  0
 13 28  1  0
 28 29  2  0
 29  4  1  0
 28  7  1  0
  1 30  1  0
  1 31  1  0
  1 32  1  0
  3 33  1  0
  3 34  1  0
  3 35  1  0
  5 36  1  0
  6 37  1  0
  8 38  1  0
 11 39  1  0
 17 40  1  0
 17 41  1  0
 21 42  1  0
 21 43  1  0
 24 44  1  0
 25 45  1  0
 25 46  1  0
 26 47  1  0
 26 48  1  0
 27 49  1  0
 29 50  1  0
M  CHG  2  11  -1  20  -1
M  END
>  <UniqueID>  (34) 
34

>  <SMILES>  (34) 
CN(C)c1ccc2cc(C([NH-])=O)n(C(=O)N(CC(=O)[O-])CC(=O)NCCO)c2c1

>  <Energy>  (34) 
81.80448958830837

>  <Genealogy>  (34) 
CN(C)c1ccc2cc(C([NH-])=O)n(C(=O)N(CC(=O)[O-])CC(=O)NCCO)c2c1 (protonated)
CN(C)c1ccc2cc(C([NH-])=O)n(C(=O)N(CC(=O)[O-])CC(=O)NCCO)c2c1 (3D coordinates assigned)
CN(C)c1ccc2cc(C([NH-])=O)n(C(=O)N(CC(=O)[O-])CC(=O)NCCO)c2c1 (optimized conformer: 81.80448958830837 kcal/mol)

>  <smiles>  (34) 
CN(C)c1ccc2cc(C(N)=O)n(C(=O)N(CC(=O)O)CC(=O)NCCO)c2c1

>  <score_type>  (34) 
oracle

>  <origin>  (34) 
adg

>  <m_score__min__energy>  (34) 
-6.0899999999999999

>  <m_primary>  (34) 
energy

$$$$
34:0
     RDKit          3D

 34 35  0  0  0  0  0  0  0  0999 V2000
  140.5140  157.6570  133.6160 C   0  0  0  0  0  0  0  0  0  0  0  0
  141.8280  158.3770  133.6950 C   0  0  0  0  0  0  0  0  0  0  0  0
  141.8610  159.7920  133.7080 C   0  0  0  0  0  0  0  0  0  0  0  0
  143.0870  160.4790  133.7300 C   0  0  0  0  0  0  0  0  0  0  0  0
  144.2560  159.7240  133.7370 C   0  0  0  0  0  0  0  0  0  0  0  0
  145.5700  160.1310  133.7040 C   0  0  0  0  0  0  0  0  0  0  0  0
  146.3190  158.9570  133.6880 C   0  0  0  0  0  0  0  0  0  0  0  0
  147.7960  158.9340  133.6670 C   0  0  0  0  0  0  0  0  0  0  0  0
  148.5220  157.7160  133.8490 N   0  0  0  0  0  0  0  0  0  0  0  0
  148.4300  160.0130  133.5330 O   0  0  0  0  0  0  0  0  0  0  0  0
  145.5040  157.8660  133.7050 N   0  0  0  0  0  0  0  0  0  0  0  0
  145.9010  156.4910  133.5620 C   0  0  0  0  0  0  0  0  0  0  0  0
  146.6530  156.1590  132.6050 O   0  0  0  0  0  0  0  0  0  0  0  0
  145.5390  155.4740  134.6070 C   0  0  0  0  0  0  0  0  0  0  0  0
  147.0200  154.6350  135.2590 P   0  0  2  0  0  0  0  0  0  0  0  0
  147.8230  153.7190  133.9170 C   0  0  0  0  0  0  0  0  0  0  0  0
  146.6160  153.6700  136.3500 O   0  0  0  0  0  0  0  0  0  0  0  0
  148.1070  155.7670  135.8900 O   0  0  0  0  0  0  0  0  0  0  0  0
  144.2430  158.3510  133.7300 C   0  0  0  0  0  0  0  0  0  0  0  0
  143.0350  157.6450  133.6830 C   0  0  0  0  0  0  0  0  0  0  0  0
  140.1450  157.4548  134.6323 H   0  0  0  0  0  0  0  0  0  0  0  0
  139.7852  158.2818  133.0789 H   0  0  0  0  0  0  0  0  0  0  0  0
  140.6484  156.7065  133.0789 H   0  0  0  0  0  0  0  0  0  0  0  0
  140.9185  160.3592  133.7008 H   0  0  0  0  0  0  0  0  0  0  0  0
  143.1214  161.5784  133.7413 H   0  0  0  0  0  0  0  0  0  0  0  0
  145.9483  161.1638  133.6927 H   0  0  0  0  0  0  0  0  0  0  0  0
  148.0430  156.8410  134.1520 H   0  0  0  0  0  0  0  0  0  0  0  0
  149.5640  157.7130  133.7770 H   0  0  0  0  0  0  0  0  0  0  0  0
  145.0208  155.9802  135.4348 H   0  0  0  0  0  0  0  0  0  0  0  0
  144.8883  154.7178  134.1436 H   0  0  0  0  0  0  0  0  0  0  0  0
  148.4917  152.9562  134.3426 H   0  0  0  0  0  0  0  0  0  0  0  0
  147.0570  153.2303  133.2970 H   0  0  0  0  0  0  0  0  0  0  0  0
  148.4077  154.4145  133.2970 H   0  0  0  0  0  0  0  0  0  0  0  0
  143.0266  156.5460  133.6378 H   0  0  0  0  0  0  0  0  0  0  0  0
  1  2  1  0
  2  3  2  0
  3  4  1  0
  4  5  2  0
  5  6  1  0
  6  7  2  0
  7  8  1  0
  8  9  1  0
  8 10  2  0
  7 11  1  0
 11 12  1  0
 12 13  2  0
 12 14  1  0
 14 15  1  0
 15 16  1  0
 15 17  2  0
 15 18  1  1
 11 19  1  0
 19 20  2  0
 20  2  1  0
 19  5  1  0
  1 21  1  0
  1 22  1  0
  1 23  1  0
  3 24  1  0
  4 25  1  0
  6 26  1  0
  9 27  1  0
  9 28  1  0
 14 29  1  0
 14 30  1  0
 16 31  1  0
 16 32  1  0
 16 33  1  0
 20 34  1  0
M  CHG  1  18  -1
M  END
>  <UniqueID>  (35) 
35

>  <SMILES>  (35) 
Cc1ccc2cc(C(N)=O)n(C(=O)C[P@](C)(=O)[O-])c2c1

>  <Energy>  (35) 
66.1205883733203

>  <Genealogy>  (35) 
Cc1ccc2cc(C(N)=O)n(C(=O)CP(C)(=O)[O-])c2c1 (protonated)
Cc1ccc2cc(C(N)=O)n(C(=O)C[P@](C)(=O)[O-])c2c1 (chirality)
Cc1ccc2cc(C(N)=O)n(C(=O)C[P@](C)(=O)[O-])c2c1 (3D coordinates assigned)
Cc1ccc2cc(C(N)=O)n(C(=O)C[P@](C)(=O)[O-])c2c1 (optimized conformer: 66.1205883733203 kcal/mol)

>  <smiles>  (35) 
Cc1ccc2cc(C(N)=O)n(C(=O)CP(C)(=O)O)c2c1

>  <score_type>  (35) 
oracle

>  <origin>  (35) 
adg

>  <m_score__min__energy>  (35) 
-6.7800000000000002

>  <m_primary>  (35) 
energy

$$$$
35:0
     RDKit          3D

 46 48  0  0  0  0  0  0  0  0999 V2000
  140.6450  159.3740  136.3070 C   0  0  0  0  0  0  0  0  0  0  0  0
  141.5030  158.3340  135.5610 C   0  0  0  0  0  0  0  0  0  0  0  0
  140.8320  157.9220  134.2370 C   0  0  0  0  0  0  0  0  0  0  0  0
  141.6540  157.0890  136.4500 C   0  0  0  0  0  0  0  0  0  0  0  0
  142.8210  158.8460  135.3240 O   0  0  0  0  0  0  0  0  0  0  0  0
  143.2000  159.7300  134.3020 C   0  0  0  0  0  0  0  0  0  0  0  0
  142.3450  160.4410  133.7090 O   0  0  0  0  0  0  0  0  0  0  0  0
  144.5870  159.8440  133.9540 N   0  0  0  0  0  0  0  0  0  0  0  0
  145.3630  160.9660  133.9370 C   0  0  0  0  0  0  0  0  0  0  0  0
  144.8910  162.3520  134.1360 C   0  0  0  0  0  0  0  0  0  0  0  0
  143.8260  162.8850  133.3520 N   0  0  0  0  0  0  0  0  0  0  0  0
  145.4650  163.0910  134.9800 O   0  0  0  0  0  0  0  0  0  0  0  0
  146.6790  160.6430  133.6150 C   0  0  0  0  0  0  0  0  0  0  0  0
  146.6860  159.2790  133.4240 C   0  0  0  0  0  0  0  0  0  0  0  0
  147.7330  158.4240  133.0960 C   0  0  0  0  0  0  0  0  0  0  0  0
  147.4540  157.0510  132.9890 C   0  0  0  0  0  0  0  0  0  0  0  0
  146.1410  156.5600  133.2070 C   0  0  0  0  0  0  0  0  0  0  0  0
  145.8560  155.0830  133.1190 C   0  0  0  0  0  0  0  0  0  0  0  0
  144.9590  154.6600  134.1990 N   0  0  0  0  0  0  0  0  0  0  0  0
  143.6200  154.5680  134.1060 C   0  0  0  0  0  0  0  0  0  0  0  0
  143.1370  154.0790  135.2970 C   0  0  0  0  0  0  0  0  0  0  0  0
  144.1610  153.8540  136.1420 N   0  0  0  0  0  0  0  0  0  0  0  0
  145.2600  154.2150  135.4450 C   0  0  0  0  0  0  0  0  0  0  0  0
  146.6120  154.1120  136.0260 C   0  0  0  0  0  0  0  0  0  0  0  0
  146.9500  153.1240  136.7280 O   0  0  0  0  0  0  0  0  0  0  0  0
  147.5380  155.1190  135.7870 O   0  0  0  0  0  0  0  0  0  0  0  0
  145.1100  157.4590  133.5580 C   0  0  0  0  0  0  0  0  0  0  0  0
  145.4110  158.8220  133.6340 C   0  0  0  0  0  0  0  0  0  0  0  0
  140.7604  159.2342  137.3920 H   0  0  0  0  0  0  0  0  0  0  0  0
  140.9739  160.3867  136.0308 H   0  0  0  0  0  0  0  0  0  0  0  0
  139.5883  159.2436  136.0308 H   0  0  0  0  0  0  0  0  0  0  0  0
  139.9127  157.3575  134.4520 H   0  0  0  0  0  0  0  0  0  0  0  0
  140.5821  158.8225  133.6568 H   0  0  0  0  0  0  0  0  0  0  0  0
  141.5220  157.2918  133.6568 H   0  0  0  0  0  0  0  0  0  0  0  0
  141.6178  157.3874  137.5081 H   0  0  0  0  0  0  0  0  0  0  0  0
  140.8345  156.3862  136.2390 H   0  0  0  0  0  0  0  0  0  0  0  0
  142.6177  156.6025  136.2390 H   0  0  0  0  0  0  0  0  0  0  0  0
  142.8560  162.5100  133.4390 H   0  0  0  0  0  0  0  0  0  0  0  0
  147.5325  161.3318  133.5310 H   0  0  0  0  0  0  0  0  0  0  0  0
  148.7485  158.8109  132.9255 H   0  0  0  0  0  0  0  0  0  0  0  0
  148.2620  156.3496  132.7336 H   0  0  0  0  0  0  0  0  0  0  0  0
  145.3824  154.8643  132.1505 H   0  0  0  0  0  0  0  0  0  0  0  0
  146.8049  154.5348  133.2140 H   0  0  0  0  0  0  0  0  0  0  0  0
  143.0152  154.8377  133.2277 H   0  0  0  0  0  0  0  0  0  0  0  0
  142.0760  153.8991  135.5247 H   0  0  0  0  0  0  0  0  0  0  0  0
  144.0932  157.0950  133.7668 H   0  0  0  0  0  0  0  0  0  0  0  0
  1  2  1  0
  2  3  1  0
  2  4  1  0
  2  5  1  0
  5  6  1  0
  6  7  2  0
  6  8  1  0
  8  9  1  0
  9 10  1  0
 10 11  1  0
 10 12  2  0
  9 13  2  0
 13 14  1  0
 14 15  2  0
 15 16  1  0
 16 17  2  0
 17 18  1  0
 18 19  1  0
 19 20  1  0
 20 21  2  0
 21 22  1  0
 22 23  2  0
 23 24  1  0
 24 25  2  0
 24 26  1  0
 17 27  1  0
 27 28  2  0
 28  8  1  0
 28 14  1  0
 23 19  1  0
  1 29  1  0
  1 30  1  0
  1 31  1  0
  3 32  1  0
  3 33  1  0
  3 34  1  0
  4 35  1  0
  4 36  1  0
  4 37  1  0
 11 38  1  0
 13 39  1  0
 15 40  1  0
 16 41  1  0
 18 42  1  0
 18 43  1  0
 20 44  1  0
 21 45  1  0
 27 46  1  0
M  CHG  2  11  -1  26  -1
M  END
>  <UniqueID>  (36) 
36

>  <SMILES>  (36) 
CC(C)(C)OC(=O)n1c(C([NH-])=O)cc2ccc(Cn3ccnc3C(=O)[O-])cc21

>  <Energy>  (36) 
110.0874994117735

>  <Genealogy>  (36) 
CC(C)(C)OC(=O)n1c(C([NH-])=O)cc2ccc(Cn3ccnc3C(=O)[O-])cc21 (protonated)
CC(C)(C)OC(=O)n1c(C([NH-])=O)cc2ccc(Cn3ccnc3C(=O)[O-])cc21 (3D coordinates assigned)
CC(C)(C)OC(=O)n1c(C([NH-])=O)cc2ccc(Cn3ccnc3C(=O)[O-])cc21 (optimized conformer: 110.0874994117735 kcal/mol)

>  <smiles>  (36) 
CC(C)(C)OC(=O)n1c(C(N)=O)cc2ccc(Cn3ccnc3C(=O)O)cc21

>  <score_type>  (36) 
oracle

>  <origin>  (36) 
adg

>  <m_score__min__energy>  (36) 
-7.6500000000000004

>  <m_primary>  (36) 
energy

$$$$
36:0
     RDKit          3D

 38 39  0  0  0  0  0  0  0  0999 V2000
  137.6530  159.9920  131.0650 C   0  0  0  0  0  0  0  0  0  0  0  0
  138.7550  159.5400  131.2470 C   0  0  0  0  0  0  0  0  0  0  0  0
  140.0950  158.9880  131.4720 C   0  0  0  0  0  0  0  0  0  0  0  0
  140.0240  157.8770  132.3640 O   0  0  0  0  0  0  0  0  0  0  0  0
  140.4260  157.9380  133.7040 C   0  0  0  0  0  0  0  0  0  0  0  0
  140.0190  158.8670  134.4550 O   0  0  0  0  0  0  0  0  0  0  0  0
  141.3220  156.8760  134.2590 C   0  0  1  0  0  0  0  0  0  0  0  0
  141.3460  155.7750  133.3910 O   0  0  0  0  0  0  0  0  0  0  0  0
  142.6380  157.4020  134.3910 O   0  0  0  0  0  0  0  0  0  0  0  0
  143.4600  157.7070  133.3010 C   0  0  0  0  0  0  0  0  0  0  0  0
  143.2260  157.2000  132.1710 O   0  0  0  0  0  0  0  0  0  0  0  0
  144.5770  158.5960  133.4800 N   0  0  0  0  0  0  0  0  0  0  0  0
  144.5320  159.9430  133.6840 C   0  0  0  0  0  0  0  0  0  0  0  0
  143.3130  160.7430  133.9260 C   0  0  0  0  0  0  0  0  0  0  0  0
  142.1350  160.1500  134.4760 N   0  0  0  0  0  0  0  0  0  0  0  0
  143.3300  161.9810  133.6950 O   0  0  0  0  0  0  0  0  0  0  0  0
  145.8120  160.4880  133.6760 C   0  0  0  0  0  0  0  0  0  0  0  0
  146.6580  159.4240  133.4730 C   0  0  0  0  0  0  0  0  0  0  0  0
  148.0450  159.3960  133.3570 C   0  0  0  0  0  0  0  0  0  0  0  0
  148.6610  158.1590  133.1070 C   0  0  0  0  0  0  0  0  0  0  0  0
  147.8870  156.9820  132.9800 C   0  0  0  0  0  0  0  0  0  0  0  0
  148.5560  155.6770  132.6660 C   0  0  0  0  0  0  0  0  0  0  0  0
  146.4790  157.0490  133.0830 C   0  0  0  0  0  0  0  0  0  0  0  0
  145.8900  158.2910  133.3560 C   0  0  0  0  0  0  0  0  0  0  0  0
  136.6470  160.4047  130.8989 H   0  0  0  0  0  0  0  0  0  0  0  0
  140.5182  158.6574  130.5120 H   0  0  0  0  0  0  0  0  0  0  0  0
  140.7349  159.7653  131.9152 H   0  0  0  0  0  0  0  0  0  0  0  0
  140.9466  156.5539  135.2415 H   0  0  0  0  0  0  0  0  0  0  0  0
  141.3700  156.1400  132.4680 H   0  0  0  0  0  0  0  0  0  0  0  0
  141.2680  160.7190  134.5920 H   0  0  0  0  0  0  0  0  0  0  0  0
  142.1400  159.1670  134.8250 H   0  0  0  0  0  0  0  0  0  0  0  0
  146.0881  161.5450  133.8047 H   0  0  0  0  0  0  0  0  0  0  0  0
  148.6406  160.3153  133.4581 H   0  0  0  0  0  0  0  0  0  0  0  0
  149.7553  158.1049  133.0091 H   0  0  0  0  0  0  0  0  0  0  0  0
  148.8186  155.1647  133.6033 H   0  0  0  0  0  0  0  0  0  0  0  0
  147.8708  155.0448  132.0822 H   0  0  0  0  0  0  0  0  0  0  0  0
  149.4693  155.8643  132.0822 H   0  0  0  0  0  0  0  0  0  0  0  0
  145.8608  156.1486  132.9521 H   0  0  0  0  0  0  0  0  0  0  0  0
  1  2  3  0
  2  3  1  0
  3  4  1  0
  4  5  1  0
  5  6  2  0
  5  7  1  0
  7  8  1  0
  7  9  1  0
  9 10  1  0
 10 11  2  0
 10 12  1  0
 12 13  1  0
 13 14  1  0
 14 15  1  0
 14 16  2  0
 13 17  2  0
 17 18  1  0
 18 19  2  0
 19 20  1  0
 20 21  2  0
 21 22  1  0
 21 23  1  0
 23 24  2  0
 24 12  1  0
 24 18  1  0
  1 25  1  0
  3 26  1  0
  3 27  1  0
  7 28  1  1
  8 29  1  0
 15 30  1  0
 15 31  1  0
 17 32  1  0
 19 33  1  0
 20 34  1  0
 22 35  1  0
 22 36  1  0
 22 37  1  0
 23 38  1  0
M  END
>  <UniqueID>  (37) 
37

>  <SMILES>  (37) 
C#CCOC(=O)[C@@H](O)OC(=O)n1c(C(N)=O)cc2ccc(C)cc21

>  <Energy>  (37) 
69.83481381296869

>  <Genealogy>  (37) 
C#CCOC(=O)[C@@H](O)OC(=O)n1c(C(N)=O)cc2ccc(C)cc21 (chirality)
C#CCOC(=O)[C@@H](O)OC(=O)n1c(C(N)=O)cc2ccc(C)cc21 (3D coordinates assigned)
C#CCOC(=O)[C@@H](O)OC(=O)n1c(C(N)=O)cc2ccc(C)cc21 (optimized conformer: 69.83481381296869 kcal/mol)

>  <smiles>  (37) 
C#CCOC(=O)C(O)OC(=O)n1c(C(N)=O)cc2ccc(C)cc21

>  <score_type>  (37) 
oracle

>  <origin>  (37) 
adg

>  <m_score__min__energy>  (37) 
-6.5899999999999999

>  <m_primary>  (37) 
energy

$$$$
37:0
     RDKit          3D

 49 50  0  0  0  0  0  0  0  0999 V2000
  139.4660  147.0490  130.0450 C   0  0  0  0  0  0  0  0  0  0  0  0
  138.7500  148.1110  130.8620 C   0  0  0  0  0  0  0  0  0  0  0  0
  139.6770  148.7490  131.7330 O   0  0  0  0  0  0  0  0  0  0  0  0
  140.0410  150.0900  131.5960 C   0  0  0  0  0  0  0  0  0  0  0  0
  139.8520  150.7010  130.5090 O   0  0  0  0  0  0  0  0  0  0  0  0
  140.6850  150.7960  132.7470 C   0  0  0  0  0  0  0  0  0  0  0  0
  140.8430  152.2220  132.4550 N   0  0  0  0  0  0  0  0  0  0  0  0
  141.2640  153.1860  133.4380 C   0  0  0  0  0  0  0  0  0  0  0  0
  142.3340  152.9180  134.3350 C   0  0  0  0  0  0  0  0  0  0  0  0
  142.7440  153.8810  135.2710 C   0  0  0  0  0  0  0  0  0  0  0  0
  142.0690  155.0960  135.2980 C   0  0  0  0  0  0  0  0  0  0  0  0
  142.2920  156.2160  136.0670 C   0  0  0  0  0  0  0  0  0  0  0  0
  141.3370  157.1410  135.6540 C   0  0  0  0  0  0  0  0  0  0  0  0
  141.1890  158.4820  136.2570 C   0  0  0  0  0  0  0  0  0  0  0  0
  139.9040  159.0930  136.4000 N   0  0  0  0  0  0  0  0  0  0  0  0
  142.2070  159.0760  136.7010 O   0  0  0  0  0  0  0  0  0  0  0  0
  140.5620  156.6200  134.6610 N   0  0  0  0  0  0  0  0  0  0  0  0
  139.5550  157.2940  133.8910 C   0  0  0  0  0  0  0  0  0  0  0  0
  138.4250  157.5150  134.4010 O   0  0  0  0  0  0  0  0  0  0  0  0
  139.8490  157.7030  132.5820 O   0  0  0  0  0  0  0  0  0  0  0  0
  139.5150  158.9680  131.9920 C   0  0  0  0  0  0  0  0  0  0  0  0
  140.1880  159.0170  130.6110 C   0  0  0  0  0  0  0  0  0  0  0  0
  137.9910  159.0960  131.8070 C   0  0  0  0  0  0  0  0  0  0  0  0
  140.0600  160.1260  132.8510 C   0  0  0  0  0  0  0  0  0  0  0  0
  141.0200  155.3660  134.4570 C   0  0  0  0  0  0  0  0  0  0  0  0
  140.6020  154.4310  133.5020 C   0  0  0  0  0  0  0  0  0  0  0  0
  139.9506  146.3302  130.7222 H   0  0  0  0  0  0  0  0  0  0  0  0
  138.7382  146.5218  129.4106 H   0  0  0  0  0  0  0  0  0  0  0  0
  140.2276  147.5260  129.4106 H   0  0  0  0  0  0  0  0  0  0  0  0
  138.3095  148.8582  130.1854 H   0  0  0  0  0  0  0  0  0  0  0  0
  137.9546  147.6391  131.4575 H   0  0  0  0  0  0  0  0  0  0  0  0
  140.0555  150.6779  133.6413 H   0  0  0  0  0  0  0  0  0  0  0  0
  141.6789  150.3577  132.9201 H   0  0  0  0  0  0  0  0  0  0  0  0
  140.6640  152.5590  131.4810 H   0  0  0  0  0  0  0  0  0  0  0  0
  142.8463  151.9454  134.2953 H   0  0  0  0  0  0  0  0  0  0  0  0
  143.5752  153.6799  135.9628 H   0  0  0  0  0  0  0  0  0  0  0  0
  143.0606  156.3511  136.8422 H   0  0  0  0  0  0  0  0  0  0  0  0
  139.0280  158.5600  136.2100 H   0  0  0  0  0  0  0  0  0  0  0  0
  139.8250  160.0550  136.7970 H   0  0  0  0  0  0  0  0  0  0  0  0
  141.2779  159.0963  130.7368 H   0  0  0  0  0  0  0  0  0  0  0  0
  139.9491  158.0991  130.0539 H   0  0  0  0  0  0  0  0  0  0  0  0
  139.8187  159.8906  130.0539 H   0  0  0  0  0  0  0  0  0  0  0  0
  137.5042  159.1369  132.7926 H   0  0  0  0  0  0  0  0  0  0  0  0
  137.7655  160.0162  131.2482 H   0  0  0  0  0  0  0  0  0  0  0  0
  137.6151  158.2263  131.2482 H   0  0  0  0  0  0  0  0  0  0  0  0
  139.9435  159.8785  133.9165 H   0  0  0  0  0  0  0  0  0  0  0  0
  141.1253  160.2805  132.6248 H   0  0  0  0  0  0  0  0  0  0  0  0
  139.5001  161.0454  132.6248 H   0  0  0  0  0  0  0  0  0  0  0  0
  139.7743  154.6622  132.8154 H   0  0  0  0  0  0  0  0  0  0  0  0
  1  2  1  0
  2  3  1  0
  3  4  1  0
  4  5  2  0
  4  6  1  0
  6  7  1  0
  7  8  1  0
  8  9  2  0
  9 10  1  0
 10 11  2  0
 11 12  1  0
 12 13  2  0
 13 14  1  0
 14 15  1  0
 14 16  2  0
 13 17  1  0
 17 18  1  0
 18 19  2  0
 18 20  1  0
 20 21  1  0
 21 22  1  0
 21 23  1  0
 21 24  1  0
 17 25  1  0
 25 26  2  0
 26  8  1  0
 25 11  1  0
  1 27  1  0
  1 28  1  0
  1 29  1  0
  2 30  1  0
  2 31  1  0
  6 32  1  0
  6 33  1  0
  7 34  1  0
  9 35  1  0
 10 36  1  0
 12 37  1  0
 15 38  1  0
 15 39  1  0
 22 40  1  0
 22 41  1  0
 22 42  1  0
 23 43  1  0
 23 44  1  0
 23 45  1  0
 24 46  1  0
 24 47  1  0
 24 48  1  0
 26 49  1  0
M  END
>  <UniqueID>  (38) 
38

>  <SMILES>  (38) 
CCOC(=O)CNc1ccc2cc(C(N)=O)n(C(=O)OC(C)(C)C)c2c1

>  <Energy>  (38) 
76.63031439217029

>  <Genealogy>  (38) 
CCOC(=O)CNc1ccc2cc(C(N)=O)n(C(=O)OC(C)(C)C)c2c1 (3D coordinates assigned)
CCOC(=O)CNc1ccc2cc(C(N)=O)n(C(=O)OC(C)(C)C)c2c1 (optimized conformer: 76.63031439217029 kcal/mol)

>  <smiles>  (38) 
CCOC(=O)CNc1ccc2cc(C(N)=O)n(C(=O)OC(C)(C)C)c2c1

>  <score_type>  (38) 
oracle

>  <origin>  (38) 
adg

>  <m_score__min__energy>  (38) 
-7.1500000000000004

>  <m_primary>  (38) 
energy

$$$$
38:0
     RDKit          3D

 37 38  0  0  0  0  0  0  0  0999 V2000
  143.5160  161.5770  133.7650 N   0  0  0  0  0  0  0  0  0  0  0  0
  144.9180  161.5040  134.0190 C   0  0  0  0  0  0  0  0  0  0  0  0
  145.4990  162.4820  134.5580 O   0  0  0  0  0  0  0  0  0  0  0  0
  145.6760  160.3030  133.6100 C   0  0  0  0  0  0  0  0  0  0  0  0
  147.0410  160.3150  133.3340 C   0  0  0  0  0  0  0  0  0  0  0  0
  147.3760  159.0030  133.0870 C   0  0  0  0  0  0  0  0  0  0  0  0
  148.6050  158.4400  132.7570 C   0  0  0  0  0  0  0  0  0  0  0  0
  148.6570  157.0530  132.5380 C   0  0  0  0  0  0  0  0  0  0  0  0
  147.4850  156.2600  132.6400 C   0  0  0  0  0  0  0  0  0  0  0  0
  147.5510  154.8330  132.4250 N   0  0  0  0  0  0  0  0  0  0  0  0
  148.1350  154.1430  133.5860 C   0  0  0  0  0  0  0  0  0  0  0  0
  147.0870  153.7660  134.5930 C   0  0  0  0  0  0  0  0  0  0  0  0
  147.4210  153.4100  135.7530 O   0  0  0  0  0  0  0  0  0  0  0  0
  145.7460  153.7700  134.2330 O   0  0  0  0  0  0  0  0  0  0  0  0
  146.2560  156.8690  132.9820 C   0  0  0  0  0  0  0  0  0  0  0  0
  146.2380  158.2500  133.2120 C   0  0  0  0  0  0  0  0  0  0  0  0
  145.1840  159.0330  133.5310 N   0  0  0  0  0  0  0  0  0  0  0  0
  143.8240  158.6010  133.6940 C   0  0  0  0  0  0  0  0  0  0  0  0
  143.2350  158.7770  134.7960 O   0  0  0  0  0  0  0  0  0  0  0  0
  143.1500  158.0130  132.6170 O   0  0  0  0  0  0  0  0  0  0  0  0
  141.8240  157.4970  132.7080 C   0  0  0  0  0  0  0  0  0  0  0  0
  140.8160  158.6320  132.8720 C   0  0  0  0  0  0  0  0  0  0  0  0
  141.4470  159.8570  132.6270 O   0  0  0  0  0  0  0  0  0  0  0  0
  142.8960  160.7550  133.9380 H   0  0  0  0  0  0  0  0  0  0  0  0
  147.7098  161.1881  133.3170 H   0  0  0  0  0  0  0  0  0  0  0  0
  149.5083  159.0618  132.6702 H   0  0  0  0  0  0  0  0  0  0  0  0
  149.6160  156.5773  132.2849 H   0  0  0  0  0  0  0  0  0  0  0  0
  146.5820  154.4660  132.2710 H   0  0  0  0  0  0  0  0  0  0  0  0
  148.1040  154.6140  131.5620 H   0  0  0  0  0  0  0  0  0  0  0  0
  148.6419  153.2300  133.2402 H   0  0  0  0  0  0  0  0  0  0  0  0
  148.8454  154.8288  134.0708 H   0  0  0  0  0  0  0  0  0  0  0  0
  145.3358  156.2722  133.0654 H   0  0  0  0  0  0  0  0  0  0  0  0
  141.5907  156.9359  131.7911 H   0  0  0  0  0  0  0  0  0  0  0  0
  141.7599  156.8362  133.5850 H   0  0  0  0  0  0  0  0  0  0  0  0
  139.9909  158.4954  132.1574 H   0  0  0  0  0  0  0  0  0  0  0  0
  140.4187  158.6235  133.8977 H   0  0  0  0  0  0  0  0  0  0  0  0
  142.2360  159.8850  133.2280 H   0  0  0  0  0  0  0  0  0  0  0  0
  1  2  1  0
  2  3  2  0
  2  4  1  0
  4  5  2  0
  5  6  1  0
  6  7  2  0
  7  8  1  0
  8  9  2  0
  9 10  1  0
 10 11  1  0
 11 12  1  0
 12 13  2  0
 12 14  1  0
  9 15  1  0
 15 16  2  0
 16 17  1  0
 17 18  1  0
 18 19  2  0
 18 20  1  0
 20 21  1  0
 21 22  1  0
 22 23  1  0
 17  4  1  0
 16  6  1  0
  1 24  1  0
  5 25  1  0
  7 26  1  0
  8 27  1  0
 10 28  1  0
 10 29  1  0
 11 30  1  0
 11 31  1  0
 15 32  1  0
 21 33  1  0
 21 34  1  0
 22 35  1  0
 22 36  1  0
 23 37  1  0
M  CHG  3   1  -1  10   1  14  -1
M  END
>  <UniqueID>  (39) 
39

>  <SMILES>  (39) 
[NH-]C(=O)c1cc2ccc([NH2+]CC(=O)[O-])cc2n1C(=O)OCCO

>  <Energy>  (39) 
72.19067455763276

>  <Genealogy>  (39) 
[NH-]C(=O)c1cc2ccc([NH2+]CC(=O)[O-])cc2n1C(=O)OCCO (protonated)
[NH-]C(=O)c1cc2ccc([NH2+]CC(=O)[O-])cc2n1C(=O)OCCO (3D coordinates assigned)
[NH-]C(=O)c1cc2ccc([NH2+]CC(=O)[O-])cc2n1C(=O)OCCO (optimized conformer: 72.19067455763276 kcal/mol)

>  <smiles>  (39) 
NC(=O)c1cc2ccc(NCC(=O)O)cc2n1C(=O)OCCO

>  <score_type>  (39) 
oracle

>  <origin>  (39) 
adg

>  <m_score__min__energy>  (39) 
-5.3099999999999996

>  <m_primary>  (39) 
energy

$$$$
39:0
     RDKit          3D

 49 51  0  0  0  0  0  0  0  0999 V2000
  137.9940  159.8060  131.0780 C   0  0  0  0  0  0  0  0  0  0  0  0
  138.6270  159.3170  132.2400 O   0  0  0  0  0  0  0  0  0  0  0  0
  139.8330  158.6550  131.9050 C   0  0  0  0  0  0  0  0  0  0  0  0
  140.1170  157.5340  132.9120 C   0  0  0  0  0  0  0  0  0  0  0  0
  140.8450  158.0540  134.0800 N   0  0  0  0  0  0  0  0  0  0  0  0
  140.2800  157.8060  135.4130 C   0  0  0  0  0  0  0  0  0  0  0  0
  142.1070  158.7570  133.9420 C   0  0  0  0  0  0  0  0  0  0  0  0
  142.1540  160.1800  133.9070 C   0  0  0  0  0  0  0  0  0  0  0  0
  143.3710  160.8630  133.7470 C   0  0  0  0  0  0  0  0  0  0  0  0
  144.5320  160.1110  133.6280 C   0  0  0  0  0  0  0  0  0  0  0  0
  145.8320  160.5160  133.4280 C   0  0  0  0  0  0  0  0  0  0  0  0
  146.5780  159.3410  133.3640 C   0  0  0  0  0  0  0  0  0  0  0  0
  148.0490  159.3130  133.2300 C   0  0  0  0  0  0  0  0  0  0  0  0
  148.8480  158.7900  134.2900 N   0  0  0  0  0  0  0  0  0  0  0  0
  148.6080  159.7120  132.1760 O   0  0  0  0  0  0  0  0  0  0  0  0
  145.7690  158.2540  133.5160 N   0  0  0  0  0  0  0  0  0  0  0  0
  146.1410  156.8700  133.4310 C   0  0  0  0  0  0  0  0  0  0  0  0
  145.3210  156.0290  132.9710 O   0  0  0  0  0  0  0  0  0  0  0  0
  147.4230  156.4750  133.8380 O   0  0  0  0  0  0  0  0  0  0  0  0
  148.4010  155.9170  133.0030 C   0  0  0  0  0  0  0  0  0  0  0  0
  149.2730  156.6500  132.4580 O   0  0  0  0  0  0  0  0  0  0  0  0
  148.4050  154.4580  132.7590 C   0  0  0  0  0  0  0  0  0  0  0  0
  149.6040  153.7980  132.4330 C   0  0  0  0  0  0  0  0  0  0  0  0
  149.6100  152.4210  132.1940 C   0  0  0  0  0  0  0  0  0  0  0  0
  148.4230  151.6890  132.2790 C   0  0  0  0  0  0  0  0  0  0  0  0
  147.2280  152.3330  132.6060 C   0  0  0  0  0  0  0  0  0  0  0  0
  147.2160  153.7100  132.8450 C   0  0  0  0  0  0  0  0  0  0  0  0
  144.5200  158.7430  133.6770 C   0  0  0  0  0  0  0  0  0  0  0  0
  143.3220  158.0340  133.8200 C   0  0  0  0  0  0  0  0  0  0  0  0
  137.1534  160.4553  131.3640 H   0  0  0  0  0  0  0  0  0  0  0  0
  138.7166  160.3827  130.4820 H   0  0  0  0  0  0  0  0  0  0  0  0
  137.6184  158.9612  130.4820 H   0  0  0  0  0  0  0  0  0  0  0  0
  139.7434  158.2242  130.8969 H   0  0  0  0  0  0  0  0  0  0  0  0
  140.6602  159.3796  131.9306 H   0  0  0  0  0  0  0  0  0  0  0  0
  139.1635  157.0987  133.2457 H   0  0  0  0  0  0  0  0  0  0  0  0
  140.7365  156.7683  132.4222 H   0  0  0  0  0  0  0  0  0  0  0  0
  141.0007  158.1224  136.1814 H   0  0  0  0  0  0  0  0  0  0  0  0
  139.3471  158.3774  135.5279 H   0  0  0  0  0  0  0  0  0  0  0  0
  140.0691  156.7325  135.5279 H   0  0  0  0  0  0  0  0  0  0  0  0
  141.2211  160.7542  134.0070 H   0  0  0  0  0  0  0  0  0  0  0  0
  143.4032  161.9621  133.7168 H   0  0  0  0  0  0  0  0  0  0  0  0
  146.2030  161.5476  133.3379 H   0  0  0  0  0  0  0  0  0  0  0  0
  149.1410  157.7890  134.2960 H   0  0  0  0  0  0  0  0  0  0  0  0
  150.5418  154.3689  132.3659 H   0  0  0  0  0  0  0  0  0  0  0  0
  150.5513  151.9124  131.9384 H   0  0  0  0  0  0  0  0  0  0  0  0
  148.4299  150.6057  132.0884 H   0  0  0  0  0  0  0  0  0  0  0  0
  146.2944  151.7555  132.6756 H   0  0  0  0  0  0  0  0  0  0  0  0
  146.2716  154.2121  133.1019 H   0  0  0  0  0  0  0  0  0  0  0  0
  143.3221  156.9341  133.8376 H   0  0  0  0  0  0  0  0  0  0  0  0
  1  2  1  0
  2  3  1  0
  3  4  1  0
  4  5  1  0
  5  6  1  0
  5  7  1  0
  7  8  2  0
  8  9  1  0
  9 10  2  0
 10 11  1  0
 11 12  2  0
 12 13  1  0
 13 14  1  0
 13 15  2  0
 12 16  1  0
 16 17  1  0
 17 18  2  0
 17 19  1  0
 19 20  1  0
 20 21  2  0
 20 22  1  0
 22 23  2  0
 23 24  1  0
 24 25  2  0
 25 26  1  0
 26 27  2  0
 16 28  1  0
 28 29  2  0
 29  7  1  0
 28 10  1  0
 27 22  1  0
  1 30  1  0
  1 31  1  0
  1 32  1  0
  3 33  1  0
  3 34  1  0
  4 35  1  0
  4 36  1  0
  6 37  1  0
  6 38  1  0
  6 39  1  0
  8 40  1  0
  9 41  1  0
 11 42  1  0
 14 43  1  0
 23 44  1  0
 24 45  1  0
 25 46  1  0
 26 47  1  0
 27 48  1  0
 29 49  1  0
M  CHG  1  14  -1
M  END
>  <UniqueID>  (40) 
40

>  <SMILES>  (40) 
COCCN(C)c1ccc2cc(C([NH-])=O)n(C(=O)OC(=O)c3ccccc3)c2c1

>  <Energy>  (40) 
93.96736520459052

>  <Genealogy>  (40) 
COCCN(C)c1ccc2cc(C([NH-])=O)n(C(=O)OC(=O)c3ccccc3)c2c1 (protonated)
COCCN(C)c1ccc2cc(C([NH-])=O)n(C(=O)OC(=O)c3ccccc3)c2c1 (3D coordinates assigned)
COCCN(C)c1ccc2cc(C([NH-])=O)n(C(=O)OC(=O)c3ccccc3)c2c1 (optimized conformer: 93.96736520459052 kcal/mol)

>  <smiles>  (40) 
COCCN(C)c1ccc2cc(C(N)=O)n(C(=O)OC(=O)c3ccccc3)c2c1

>  <score_type>  (40) 
oracle

>  <origin>  (40) 
adg

>  <m_score__min__energy>  (40) 
-8.2200000000000006

>  <m_primary>  (40) 
energy

$$$$
40:0
     RDKit          3D

 50 52  0  0  0  0  0  0  0  0999 V2000
  148.5890  154.0810  132.6460 C   0  0  0  0  0  0  0  0  0  0  0  0
  148.2690  155.2360  132.7570 C   0  0  0  0  0  0  0  0  0  0  0  0
  147.8870  156.6150  132.8940 C   0  0  0  0  0  0  0  0  0  0  0  0
  148.8710  157.6280  132.8280 C   0  0  0  0  0  0  0  0  0  0  0  0
  148.5110  158.9790  132.9730 C   0  0  0  0  0  0  0  0  0  0  0  0
  147.1650  159.2780  133.1800 C   0  0  0  0  0  0  0  0  0  0  0  0
  146.5440  160.4900  133.3720 C   0  0  0  0  0  0  0  0  0  0  0  0
  145.1950  160.1900  133.5520 C   0  0  0  0  0  0  0  0  0  0  0  0
  144.1460  161.2170  133.7240 C   0  0  0  0  0  0  0  0  0  0  0  0
  142.7720  160.8370  133.7490 N   0  0  0  0  0  0  0  0  0  0  0  0
  144.4490  162.4390  133.8710 O   0  0  0  0  0  0  0  0  0  0  0  0
  144.9910  158.8440  133.4720 N   0  0  0  0  0  0  0  0  0  0  0  0
  143.7540  158.1310  133.6030 C   0  0  0  0  0  0  0  0  0  0  0  0
  143.1790  157.6900  132.5700 O   0  0  0  0  0  0  0  0  0  0  0  0
  143.2110  157.9210  134.8760 O   0  0  0  0  0  0  0  0  0  0  0  0
  141.9330  158.3220  135.2800 C   0  0  0  0  0  0  0  0  0  0  0  0
  141.7600  159.4090  135.9020 O   0  0  0  0  0  0  0  0  0  0  0  0
  140.8470  157.4780  135.0060 O   0  0  0  0  0  0  0  0  0  0  0  0
  139.9710  157.6460  133.8900 C   0  0  0  0  0  0  0  0  0  0  0  0
  139.9910  156.4140  132.9810 C   0  0  0  0  0  0  0  0  0  0  0  0
  140.5390  155.1660  133.6960 C   0  0  0  0  0  0  0  0  0  0  0  0
  141.9900  155.2760  133.9900 N   0  0  0  0  0  0  0  0  0  0  0  0
  142.7620  154.4890  133.0010 C   0  0  0  0  0  0  0  0  0  0  0  0
  144.2840  154.5900  133.2750 C   0  0  0  0  0  0  0  0  0  0  0  0
  144.5770  155.1080  134.5610 O   0  0  0  0  0  0  0  0  0  0  0  0
  143.7880  154.4480  135.5330 C   0  0  0  0  0  0  0  0  0  0  0  0
  142.3050  154.8280  135.3710 C   0  0  0  0  0  0  0  0  0  0  0  0
  146.2030  158.3020  133.2390 C   0  0  0  0  0  0  0  0  0  0  0  0
  146.5340  156.9480  133.1050 C   0  0  0  0  0  0  0  0  0  0  0  0
  148.8815  153.0254  132.5445 H   0  0  0  0  0  0  0  0  0  0  0  0
  149.9242  157.3574  132.6623 H   0  0  0  0  0  0  0  0  0  0  0  0
  149.2679  159.7758  132.9247 H   0  0  0  0  0  0  0  0  0  0  0  0
  147.0127  161.4851  133.3815 H   0  0  0  0  0  0  0  0  0  0  0  0
  142.4890  159.8460  133.8970 H   0  0  0  0  0  0  0  0  0  0  0  0
  138.9466  157.8037  134.2584 H   0  0  0  0  0  0  0  0  0  0  0  0
  140.3113  158.5147  133.3073 H   0  0  0  0  0  0  0  0  0  0  0  0
  138.9644  156.2063  132.6449 H   0  0  0  0  0  0  0  0  0  0  0  0
  140.6562  156.6338  132.1329 H   0  0  0  0  0  0  0  0  0  0  0  0
  139.9953  155.0337  134.6431 H   0  0  0  0  0  0  0  0  0  0  0  0
  140.3959  154.3049  133.0266 H   0  0  0  0  0  0  0  0  0  0  0  0
  142.2720  156.2830  133.8880 H   0  0  0  0  0  0  0  0  0  0  0  0
  142.4549  153.4345  133.0621 H   0  0  0  0  0  0  0  0  0  0  0  0
  142.5595  154.8925  131.9979 H   0  0  0  0  0  0  0  0  0  0  0  0
  144.7235  153.5850  133.1924 H   0  0  0  0  0  0  0  0  0  0  0  0
  144.7087  155.2831  132.5340 H   0  0  0  0  0  0  0  0  0  0  0  0
  143.8985  153.3603  135.4115 H   0  0  0  0  0  0  0  0  0  0  0  0
  144.1266  154.7536  136.5340 H   0  0  0  0  0  0  0  0  0  0  0  0
  141.6860  153.9504  135.6089 H   0  0  0  0  0  0  0  0  0  0  0  0
  142.0930  155.6634  136.0545 H   0  0  0  0  0  0  0  0  0  0  0  0
  145.7610  156.1676  133.1627 H   0  0  0  0  0  0  0  0  0  0  0  0
  1  2  3  0
  2  3  1  0
  3  4  2  0
  4  5  1  0
  5  6  2  0
  6  7  1  0
  7  8  2  0
  8  9  1  0
  9 10  1  0
  9 11  2  0
  8 12  1  0
 12 13  1  0
 13 14  2  0
 13 15  1  0
 15 16  1  0
 16 17  2  0
 16 18  1  0
 18 19  1  0
 19 20  1  0
 20 21  1  0
 21 22  1  0
 22 23  1  0
 23 24  1  0
 24 25  1  0
 25 26  1  0
 26 27  1  0
 12 28  1  0
 28 29  2  0
 29  3  1  0
 28  6  1  0
 27 22  1  0
  1 30  1  0
  4 31  1  0
  5 32  1  0
  7 33  1  0
 10 34  1  0
 19 35  1  0
 19 36  1  0
 20 37  1  0
 20 38  1  0
 21 39  1  0
 21 40  1  0
 22 41  1  0
 23 42  1  0
 23 43  1  0
 24 44  1  0
 24 45  1  0
 26 46  1  0
 26 47  1  0
 27 48  1  0
 27 49  1  0
 29 50  1  0
M  CHG  2  10  -1  22   1
M  END
>  <UniqueID>  (41) 
41

>  <SMILES>  (41) 
C#Cc1ccc2cc(C([NH-])=O)n(C(=O)OC(=O)OCCC[NH+]3CCOCC3)c2c1

>  <Energy>  (41) 
97.651924018069

>  <Genealogy>  (41) 
C#Cc1ccc2cc(C([NH-])=O)n(C(=O)OC(=O)OCCC[NH+]3CCOCC3)c2c1 (protonated)
C#Cc1ccc2cc(C([NH-])=O)n(C(=O)OC(=O)OCCC[NH+]3CCOCC3)c2c1 (3D coordinates assigned)
C#Cc1ccc2cc(C([NH-])=O)n(C(=O)OC(=O)OCCC[NH+]3CCOCC3)c2c1 (nonaromatic ring conformer: 97.651924018069 kcal/mol)

>  <smiles>  (41) 
C#Cc1ccc2cc(C(N)=O)n(C(=O)OC(=O)OCCCN3CCOCC3)c2c1

>  <score_type>  (41) 
oracle

>  <origin>  (41) 
adg

>  <m_score__min__energy>  (41) 
-6.8499999999999996

>  <m_primary>  (41) 
energy

$$$$
41:0
     RDKit          3D

 42 43  0  0  0  0  0  0  0  0999 V2000
  144.1390  158.6020  133.3450 C   0  0  0  0  0  0  0  0  0  0  0  0
  143.2320  157.8400  132.5800 O   0  0  0  0  0  0  0  0  0  0  0  0
  141.9310  157.9780  133.1150 C   0  0  0  0  0  0  0  0  0  0  0  0
  141.7770  157.1000  134.2110 O   0  0  0  0  0  0  0  0  0  0  0  0
  140.6350  156.2870  134.0350 C   0  0  0  0  0  0  0  0  0  0  0  0
  140.9830  154.9160  134.2110 O   0  0  0  0  0  0  0  0  0  0  0  0
  140.6940  153.9330  133.2610 C   0  0  0  0  0  0  0  0  0  0  0  0
  139.6080  153.9730  132.6190 O   0  0  0  0  0  0  0  0  0  0  0  0
  141.6360  152.8770  133.0130 N   0  0  0  0  0  0  0  0  0  0  0  0
  142.9750  152.8830  133.2640 C   0  0  0  0  0  0  0  0  0  0  0  0
  143.7690  154.0510  133.6970 C   0  0  0  0  0  0  0  0  0  0  0  0
  143.3410  155.3830  133.4110 N   0  0  0  0  0  0  0  0  0  0  0  0
  144.8700  153.8680  134.2810 O   0  0  0  0  0  0  0  0  0  0  0  0
  143.5310  151.6330  133.0060 C   0  0  0  0  0  0  0  0  0  0  0  0
  142.4840  150.8540  132.5700 C   0  0  0  0  0  0  0  0  0  0  0  0
  142.4650  149.5140  132.1920 C   0  0  0  0  0  0  0  0  0  0  0  0
  141.2320  148.9520  131.8250 C   0  0  0  0  0  0  0  0  0  0  0  0
  140.0480  149.7300  131.8460 C   0  0  0  0  0  0  0  0  0  0  0  0
  138.7210  149.1050  131.4950 C   0  0  0  0  0  0  0  0  0  0  0  0
  138.5730  148.8930  129.9850 C   0  0  0  0  0  0  0  0  0  0  0  0
  138.9660  147.5050  129.5810 C   0  0  0  0  0  0  0  0  0  0  0  0
  138.7300  147.0940  128.4130 O   0  0  0  0  0  0  0  0  0  0  0  0
  139.5550  146.6520  130.5050 O   0  0  0  0  0  0  0  0  0  0  0  0
  140.1050  151.0850  132.2440 C   0  0  0  0  0  0  0  0  0  0  0  0
  141.3500  151.6260  132.5850 C   0  0  0  0  0  0  0  0  0  0  0  0
  143.9441  158.4382  134.4151 H   0  0  0  0  0  0  0  0  0  0  0  0
  145.1680  158.2934  133.1083 H   0  0  0  0  0  0  0  0  0  0  0  0
  144.0125  159.6688  133.1083 H   0  0  0  0  0  0  0  0  0  0  0  0
  141.7810  159.0144  133.4516 H   0  0  0  0  0  0  0  0  0  0  0  0
  141.1885  157.7326  132.3414 H   0  0  0  0  0  0  0  0  0  0  0  0
  139.8706  156.5670  134.7748 H   0  0  0  0  0  0  0  0  0  0  0  0
  140.2403  156.4326  133.0186 H   0  0  0  0  0  0  0  0  0  0  0  0
  143.8950  156.1970  133.7580 H   0  0  0  0  0  0  0  0  0  0  0  0
  142.5260  155.5650  132.7840 H   0  0  0  0  0  0  0  0  0  0  0  0
  144.5824  151.3324  133.1252 H   0  0  0  0  0  0  0  0  0  0  0  0
  143.3872  148.9146  132.1813 H   0  0  0  0  0  0  0  0  0  0  0  0
  141.1846  147.8968  131.5180 H   0  0  0  0  0  0  0  0  0  0  0  0
  138.6413  148.1314  132.0006 H   0  0  0  0  0  0  0  0  0  0  0  0
  137.9240  149.7881  131.8239 H   0  0  0  0  0  0  0  0  0  0  0  0
  137.5238  149.0634  129.7019 H   0  0  0  0  0  0  0  0  0  0  0  0
  139.2391  149.6020  129.4715 H   0  0  0  0  0  0  0  0  0  0  0  0
  139.1934  151.6992  132.2848 H   0  0  0  0  0  0  0  0  0  0  0  0
  1  2  1  0
  2  3  1  0
  3  4  1  0
  4  5  1  0
  5  6  1  0
  6  7  1  0
  7  8  2  0
  7  9  1  0
  9 10  1  0
 10 11  1  0
 11 12  1  0
 11 13  2  0
 10 14  2  0
 14 15  1  0
 15 16  2  0
 16 17  1  0
 17 18  2  0
 18 19  1  0
 19 20  1  0
 20 21  1  0
 21 22  2  0
 21 23  1  0
 18 24  1  0
 24 25  2  0
 25  9  1  0
 25 15  1  0
  1 26  1  0
  1 27  1  0
  1 28  1  0
  3 29  1  0
  3 30  1  0
  5 31  1  0
  5 32  1  0
 12 33  1  0
 12 34  1  0
 14 35  1  0
 16 36  1  0
 17 37  1  0
 19 38  1  0
 19 39  1  0
 20 40  1  0
 20 41  1  0
 24 42  1  0
M  CHG  1  23  -1
M  END
>  <UniqueID>  (42) 
42

>  <SMILES>  (42) 
COCOCOC(=O)n1c(C(N)=O)cc2ccc(CCC(=O)[O-])cc21

>  <Energy>  (42) 
79.08565532499848

>  <Genealogy>  (42) 
COCOCOC(=O)n1c(C(N)=O)cc2ccc(CCC(=O)[O-])cc21 (protonated)
COCOCOC(=O)n1c(C(N)=O)cc2ccc(CCC(=O)[O-])cc21 (3D coordinates assigned)
COCOCOC(=O)n1c(C(N)=O)cc2ccc(CCC(=O)[O-])cc21 (optimized conformer: 79.08565532499848 kcal/mol)

>  <smiles>  (42) 
COCOCOC(=O)n1c(C(N)=O)cc2ccc(CCC(=O)O)cc21

>  <score_type>  (42) 
oracle

>  <origin>  (42) 
adg

>  <m_score__min__energy>  (42) 
-6

>  <m_primary>  (42) 
energy

$$$$
42:0
     RDKit          3D

 42 43  0  0  0  0  0  0  0  0999 V2000
  140.9900  155.8270  135.1130 N   0  0  0  0  0  0  0  0  0  0  0  0
  141.7680  155.6110  133.9390 C   0  0  0  0  0  0  0  0  0  0  0  0
  141.3090  154.8840  133.0190 O   0  0  0  0  0  0  0  0  0  0  0  0
  143.0790  156.2670  133.7720 C   0  0  0  0  0  0  0  0  0  0  0  0
  144.2830  155.5720  133.6730 C   0  0  0  0  0  0  0  0  0  0  0  0
  145.2430  156.5350  133.4540 C   0  0  0  0  0  0  0  0  0  0  0  0
  146.6210  156.4120  133.3060 C   0  0  0  0  0  0  0  0  0  0  0  0
  147.3720  157.5870  133.1310 C   0  0  0  0  0  0  0  0  0  0  0  0
  146.7370  158.8570  133.0920 C   0  0  0  0  0  0  0  0  0  0  0  0
  147.5610  160.1130  132.9640 C   0  0  0  0  0  0  0  0  0  0  0  0
  147.6830  160.4810  131.6350 F   0  0  0  0  0  0  0  0  0  0  0  0
  148.8190  159.8870  133.4880 F   0  0  0  0  0  0  0  0  0  0  0  0
  146.9670  161.1590  133.6490 F   0  0  0  0  0  0  0  0  0  0  0  0
  145.3360  158.9390  133.2700 C   0  0  0  0  0  0  0  0  0  0  0  0
  144.6150  157.7520  133.4300 C   0  0  0  0  0  0  0  0  0  0  0  0
  143.2880  157.6050  133.6260 N   0  0  0  0  0  0  0  0  0  0  0  0
  142.3410  158.6750  133.7720 C   0  0  0  0  0  0  0  0  0  0  0  0
  142.6570  159.8280  133.3640 O   0  0  0  0  0  0  0  0  0  0  0  0
  141.1260  158.4640  134.5310 N   0  0  1  0  0  0  0  0  0  0  0  0
  140.9780  159.5450  135.5280 C   0  0  0  0  0  0  0  0  0  0  0  0
  140.8150  158.9960  136.9160 C   0  0  0  0  0  0  0  0  0  0  0  0
  140.9780  159.7440  137.9160 O   0  0  0  0  0  0  0  0  0  0  0  0
  140.5240  157.6500  137.1050 O   0  0  0  0  0  0  0  0  0  0  0  0
  139.9650  158.3890  133.6550 C   0  0  0  0  0  0  0  0  0  0  0  0
  138.9280  157.8700  134.0510 O   0  0  0  0  0  0  0  0  0  0  0  0
  140.0230  158.9020  132.2370 C   0  0  0  0  0  0  0  0  0  0  0  0
  138.6890  158.6770  131.5190 C   0  0  0  0  0  0  0  0  0  0  0  0
  138.0950  159.9830  131.0930 C   0  0  0  0  0  0  0  0  0  0  0  0
  136.8560  160.0830  130.8990 O   0  0  0  0  0  0  0  0  0  0  0  0
  138.9060  161.1030  130.9590 O   0  0  0  0  0  0  0  0  0  0  0  0
  140.3280  156.6320  135.1770 H   0  0  0  0  0  0  0  0  0  0  0  0
  144.4344  154.4854  133.7528 H   0  0  0  0  0  0  0  0  0  0  0  0
  147.1076  155.4257  133.3254 H   0  0  0  0  0  0  0  0  0  0  0  0
  148.4648  157.5224  133.0229 H   0  0  0  0  0  0  0  0  0  0  0  0
  144.8260  159.9136  133.2822 H   0  0  0  0  0  0  0  0  0  0  0  0
  141.2300  157.5620  135.0510 H   0  0  0  0  0  0  0  0  0  0  0  0
  141.8737  160.1829  135.4990 H   0  0  0  0  0  0  0  0  0  0  0  0
  140.0764  160.1235  135.2780 H   0  0  0  0  0  0  0  0  0  0  0  0
  140.2464  159.9790  132.2526 H   0  0  0  0  0  0  0  0  0  0  0  0
  140.8093  158.3541  131.6971 H   0  0  0  0  0  0  0  0  0  0  0  0
  138.8572  158.0494  130.6314 H   0  0  0  0  0  0  0  0  0  0  0  0
  137.9932  158.1788  132.2101 H   0  0  0  0  0  0  0  0  0  0  0  0
  1  2  1  0
  2  3  2  0
  2  4  1  0
  4  5  2  0
  5  6  1  0
  6  7  2  0
  7  8  1  0
  8  9  2  0
  9 10  1  0
 10 11  1  0
 10 12  1  0
 10 13  1  0
  9 14  1  0
 14 15  2  0
 15 16  1  0
 16 17  1  0
 17 18  2  0
 17 19  1  0
 19 20  1  0
 20 21  1  0
 21 22  2  0
 21 23  1  0
 19 24  1  0
 24 25  2  0
 24 26  1  0
 26 27  1  0
 27 28  1  0
 28 29  2  0
 28 30  1  0
 16  4  1  0
 15  6  1  0
  1 31  1  0
  5 32  1  0
  7 33  1  0
  8 34  1  0
 14 35  1  0
 19 36  1  1
 20 37  1  0
 20 38  1  0
 26 39  1  0
 26 40  1  0
 27 41  1  0
 27 42  1  0
M  CHG  4   1  -1  19   1  23  -1  30  -1
M  END
>  <UniqueID>  (43) 
43

>  <SMILES>  (43) 
[NH-]C(=O)c1cc2ccc(C(F)(F)F)cc2n1C(=O)[NH+](CC(=O)[O-])C(=O)CCC(=O)[O-]

>  <Energy>  (43) 
80.79978669584818

>  <Genealogy>  (43) 
[NH-]C(=O)c1cc2ccc(C(F)(F)F)cc2n1C(=O)[NH+](CC(=O)[O-])C(=O)CCC(=O)[O-] (protonated)
[NH-]C(=O)c1cc2ccc(C(F)(F)F)cc2n1C(=O)[NH+](CC(=O)[O-])C(=O)CCC(=O)[O-] (3D coordinates assigned)
[NH-]C(=O)c1cc2ccc(C(F)(F)F)cc2n1C(=O)[NH+](CC(=O)[O-])C(=O)CCC(=O)[O-] (optimized conformer: 80.79978669584818 kcal/mol)

>  <smiles>  (43) 
NC(=O)c1cc2ccc(C(F)(F)F)cc2n1C(=O)N(CC(=O)O)C(=O)CCC(=O)O

>  <score_type>  (43) 
oracle

>  <origin>  (43) 
adg

>  <m_score__min__energy>  (43) 
-6.1399999999999997

>  <m_primary>  (43) 
energy

$$$$
43:0
     RDKit          3D

 36 37  0  0  0  0  0  0  0  0999 V2000
  139.7490  158.3280  132.6010 C   0  0  0  0  0  0  0  0  0  0  0  0
  140.5330  158.4830  133.8320 N   0  0  0  0  0  0  0  0  0  0  0  0
  139.9320  158.0920  135.1120 C   0  0  0  0  0  0  0  0  0  0  0  0
  141.8830  159.0130  133.7830 C   0  0  0  0  0  0  0  0  0  0  0  0
  142.1110  160.4170  133.7580 C   0  0  0  0  0  0  0  0  0  0  0  0
  143.4130  160.9400  133.7160 C   0  0  0  0  0  0  0  0  0  0  0  0
  144.4760  160.0450  133.6910 C   0  0  0  0  0  0  0  0  0  0  0  0
  145.8300  160.2840  133.6840 C   0  0  0  0  0  0  0  0  0  0  0  0
  146.4250  159.0260  133.6800 C   0  0  0  0  0  0  0  0  0  0  0  0
  147.8860  158.8180  133.6110 C   0  0  0  0  0  0  0  0  0  0  0  0
  148.4800  157.5900  134.0310 N   0  0  0  0  0  0  0  0  0  0  0  0
  148.6160  159.7220  133.1230 O   0  0  0  0  0  0  0  0  0  0  0  0
  145.4780  158.0460  133.6970 N   0  0  0  0  0  0  0  0  0  0  0  0
  145.6970  156.6320  133.8340 C   0  0  0  0  0  0  0  0  0  0  0  0
  146.3480  156.0030  132.9550 O   0  0  0  0  0  0  0  0  0  0  0  0
  145.1810  155.9550  134.9430 O   0  0  0  0  0  0  0  0  0  0  0  0
  145.4410  154.5780  135.1920 C   0  0  0  0  0  0  0  0  0  0  0  0
  146.7490  154.4410  135.8970 C   0  0  0  0  0  0  0  0  0  0  0  0
  147.6610  155.2920  135.7170 O   0  0  0  0  0  0  0  0  0  0  0  0
  146.9750  153.3570  136.7340 O   0  0  0  0  0  0  0  0  0  0  0  0
  144.2880  158.6880  133.6990 C   0  0  0  0  0  0  0  0  0  0  0  0
  143.0010  158.1390  133.7640 C   0  0  0  0  0  0  0  0  0  0  0  0
  138.6998  158.1206  132.8582 H   0  0  0  0  0  0  0  0  0  0  0  0
  139.8056  159.2547  132.0111 H   0  0  0  0  0  0  0  0  0  0  0  0
  140.1540  157.4925  132.0111 H   0  0  0  0  0  0  0  0  0  0  0  0
  140.5402  158.4877  135.9387 H   0  0  0  0  0  0  0  0  0  0  0  0
  138.9128  158.5004  135.1785 H   0  0  0  0  0  0  0  0  0  0  0  0
  139.8924  156.9947  135.1785 H   0  0  0  0  0  0  0  0  0  0  0  0
  141.2524  161.1045  133.7718 H   0  0  0  0  0  0  0  0  0  0  0  0
  143.5868  162.0261  133.7033 H   0  0  0  0  0  0  0  0  0  0  0  0
  146.3352  161.2611  133.6820 H   0  0  0  0  0  0  0  0  0  0  0  0
  149.5180  157.4730  134.0030 H   0  0  0  0  0  0  0  0  0  0  0  0
  147.8930  156.7660  134.2850 H   0  0  0  0  0  0  0  0  0  0  0  0
  144.6400  154.1608  135.8200 H   0  0  0  0  0  0  0  0  0  0  0  0
  145.4787  154.0324  134.2376 H   0  0  0  0  0  0  0  0  0  0  0  0
  142.8592  157.0488  133.7997 H   0  0  0  0  0  0  0  0  0  0  0  0
  1  2  1  0
  2  3  1  0
  2  4  1  0
  4  5  2  0
  5  6  1  0
  6  7  2  0
  7  8  1  0
  8  9  2  0
  9 10  1  0
 10 11  1  0
 10 12  2  0
  9 13  1  0
 13 14  1  0
 14 15  2  0
 14 16  1  0
 16 17  1  0
 17 18  1  0
 18 19  2  0
 18 20  1  0
 13 21  1  0
 21 22  2  0
 22  4  1  0
 21  7  1  0
  1 23  1  0
  1 24  1  0
  1 25  1  0
  3 26  1  0
  3 27  1  0
  3 28  1  0
  5 29  1  0
  6 30  1  0
  8 31  1  0
 11 32  1  0
 11 33  1  0
 17 34  1  0
 17 35  1  0
 22 36  1  0
M  CHG  1  20  -1
M  END
>  <UniqueID>  (44) 
44

>  <SMILES>  (44) 
CN(C)c1ccc2cc(C(N)=O)n(C(=O)OCC(=O)[O-])c2c1

>  <Energy>  (44) 
73.70169350623465

>  <Genealogy>  (44) 
CN(C)c1ccc2cc(C(N)=O)n(C(=O)OCC(=O)[O-])c2c1 (protonated)
CN(C)c1ccc2cc(C(N)=O)n(C(=O)OCC(=O)[O-])c2c1 (3D coordinates assigned)
CN(C)c1ccc2cc(C(N)=O)n(C(=O)OCC(=O)[O-])c2c1 (optimized conformer: 73.70169350623465 kcal/mol)

>  <smiles>  (44) 
CN(C)c1ccc2cc(C(N)=O)n(C(=O)OCC(=O)O)c2c1

>  <score_type>  (44) 
oracle

>  <origin>  (44) 
adg

>  <m_score__min__energy>  (44) 
-6.2800000000000002

>  <m_primary>  (44) 
energy

$$$$
44:0
     RDKit          3D

 71 74  0  0  0  0  0  0  0  0999 V2000
  140.6300  154.8720  140.3760 C   0  0  0  0  0  0  0  0  0  0  0  0
  141.6480  155.6300  139.7320 O   0  0  0  0  0  0  0  0  0  0  0  0
  141.4200  156.5200  138.6700 C   0  0  0  0  0  0  0  0  0  0  0  0
  140.8360  156.1130  137.4570 C   0  0  0  0  0  0  0  0  0  0  0  0
  140.6020  157.0420  136.4400 C   0  0  0  0  0  0  0  0  0  0  0  0
  140.9510  158.3910  136.6130 C   0  0  0  0  0  0  0  0  0  0  0  0
  140.6230  159.4160  135.5550 C   0  0  0  0  0  0  0  0  0  0  0  0
  141.3340  159.1090  134.2940 N   0  0  0  0  0  0  0  0  0  0  0  0
  140.5260  158.4920  133.2190 C   0  0  0  0  0  0  0  0  0  0  0  0
  140.6110  156.9800  133.1990 C   0  0  0  0  0  0  0  0  0  0  0  0
  141.7990  156.2810  133.4870 C   0  0  0  0  0  0  0  0  0  0  0  0
  141.8120  154.8820  133.5070 C   0  0  0  0  0  0  0  0  0  0  0  0
  140.6350  154.1570  133.2470 C   0  0  0  0  0  0  0  0  0  0  0  0
  140.5930  152.7540  133.2560 O   0  0  0  0  0  0  0  0  0  0  0  0
  141.6850  151.9130  132.8950 C   0  0  0  0  0  0  0  0  0  0  0  0
  139.4540  154.8520  132.9710 C   0  0  0  0  0  0  0  0  0  0  0  0
  139.4390  156.2480  132.9510 C   0  0  0  0  0  0  0  0  0  0  0  0
  142.7330  159.4800  134.0640 C   0  0  0  0  0  0  0  0  0  0  0  0
  143.1460  160.8460  134.0010 C   0  0  0  0  0  0  0  0  0  0  0  0
  144.4800  161.1970  133.7340 C   0  0  0  0  0  0  0  0  0  0  0  0
  145.4000  160.1780  133.5450 C   0  0  0  0  0  0  0  0  0  0  0  0
  146.7470  160.2470  133.2850 C   0  0  0  0  0  0  0  0  0  0  0  0
  147.1760  158.9230  133.1970 C   0  0  0  0  0  0  0  0  0  0  0  0
  148.5520  158.5220  132.8190 C   0  0  0  0  0  0  0  0  0  0  0  0
  148.7800  157.4900  131.8550 N   0  0  0  0  0  0  0  0  0  0  0  0
  149.5430  159.0580  133.3810 O   0  0  0  0  0  0  0  0  0  0  0  0
  146.1280  158.0720  133.4010 N   0  0  0  0  0  0  0  0  0  0  0  0
  146.1610  156.6360  133.4610 C   0  0  0  0  0  0  0  0  0  0  0  0
  146.7770  155.9870  132.5730 O   0  0  0  0  0  0  0  0  0  0  0  0
  145.5080  155.9730  134.5100 O   0  0  0  0  0  0  0  0  0  0  0  0
  145.4920  154.5550  134.7440 C   0  0  0  0  0  0  0  0  0  0  0  0
  146.9220  154.1440  135.1300 C   0  0  0  0  0  0  0  0  0  0  0  0
  145.0850  153.7950  133.4660 C   0  0  0  0  0  0  0  0  0  0  0  0
  144.5430  154.2140  135.9080 C   0  0  0  0  0  0  0  0  0  0  0  0
  145.0470  158.8600  133.6080 C   0  0  0  0  0  0  0  0  0  0  0  0
  143.7290  158.4770  133.8820 C   0  0  0  0  0  0  0  0  0  0  0  0
  141.5480  158.7900  137.8190 C   0  0  0  0  0  0  0  0  0  0  0  0
  141.7840  157.8610  138.8360 C   0  0  0  0  0  0  0  0  0  0  0  0
  140.7441  154.9570  141.4668 H   0  0  0  0  0  0  0  0  0  0  0  0
  139.6431  155.2569  140.0795 H   0  0  0  0  0  0  0  0  0  0  0  0
  140.7159  153.8162  140.0795 H   0  0  0  0  0  0  0  0  0  0  0  0
  140.5621  155.0581  137.3083 H   0  0  0  0  0  0  0  0  0  0  0  0
  140.1409  156.7141  135.4967 H   0  0  0  0  0  0  0  0  0  0  0  0
  139.5388  159.4097  135.3694 H   0  0  0  0  0  0  0  0  0  0  0  0
  140.9426  160.4068  135.9101 H   0  0  0  0  0  0  0  0  0  0  0  0
  139.4744  158.7808  133.3630 H   0  0  0  0  0  0  0  0  0  0  0  0
  140.9275  158.8538  132.2609 H   0  0  0  0  0  0  0  0  0  0  0  0
  142.7234  156.8388  133.6977 H   0  0  0  0  0  0  0  0  0  0  0  0
  142.7473  154.3465  133.7272 H   0  0  0  0  0  0  0  0  0  0  0  0
  142.1742  151.5362  133.8054 H   0  0  0  0  0  0  0  0  0  0  0  0
  141.3139  151.0652  132.3005 H   0  0  0  0  0  0  0  0  0  0  0  0
  142.4100  152.4883  132.3005 H   0  0  0  0  0  0  0  0  0  0  0  0
  138.5281  154.2940  132.7677 H   0  0  0  0  0  0  0  0  0  0  0  0
  138.4996  156.7795  132.7388 H   0  0  0  0  0  0  0  0  0  0  0  0
  142.4033  161.6406  134.1652 H   0  0  0  0  0  0  0  0  0  0  0  0
  144.7859  162.2521  133.6765 H   0  0  0  0  0  0  0  0  0  0  0  0
  147.3580  161.1545  133.1705 H   0  0  0  0  0  0  0  0  0  0  0  0
  147.9890  156.9750  131.4060 H   0  0  0  0  0  0  0  0  0  0  0  0
  149.7560  157.2180  131.6010 H   0  0  0  0  0  0  0  0  0  0  0  0
  147.0128  154.1179  136.2259 H   0  0  0  0  0  0  0  0  0  0  0  0
  147.1402  153.1468  134.7202 H   0  0  0  0  0  0  0  0  0  0  0  0
  147.6363  154.8732  134.7202 H   0  0  0  0  0  0  0  0  0  0  0  0
  144.5823  152.8563  133.7420 H   0  0  0  0  0  0  0  0  0  0  0  0
  144.3994  154.4172  132.8720 H   0  0  0  0  0  0  0  0  0  0  0  0
  145.9829  153.5692  132.8720 H   0  0  0  0  0  0  0  0  0  0  0  0
  145.0547  154.3979  136.8642 H   0  0  0  0  0  0  0  0  0  0  0  0
  143.6445  154.8455  135.8456 H   0  0  0  0  0  0  0  0  0  0  0  0
  144.2519  153.1551  135.8456 H   0  0  0  0  0  0  0  0  0  0  0  0
  143.4644  157.4119  133.9562 H   0  0  0  0  0  0  0  0  0  0  0  0
  141.8325  159.8425  137.9648 H   0  0  0  0  0  0  0  0  0  0  0  0
  142.2591  158.1861  139.7733 H   0  0  0  0  0  0  0  0  0  0  0  0
  1  2  1  0
  2  3  1  0
  3  4  2  0
  4  5  1  0
  5  6  2  0
  6  7  1  0
  7  8  1  0
  8  9  1  0
  9 10  1  0
 10 11  2  0
 11 12  1  0
 12 13  2  0
 13 14  1  0
 14 15  1  0
 13 16  1  0
 16 17  2  0
  8 18  1  0
 18 19  2  0
 19 20  1  0
 20 21  2  0
 21 22  1  0
 22 23  2  0
 23 24  1  0
 24 25  1  0
 24 26  2  0
 23 27  1  0
 27 28  1  0
 28 29  2  0
 28 30  1  0
 30 31  1  0
 31 32  1  0
 31 33  1  0
 31 34  1  0
 27 35  1  0
 35 36  2  0
  6 37  1  0
 37 38  2  0
 38  3  1  0
 17 10  1  0
 36 18  1  0
 35 21  1  0
  1 39  1  0
  1 40  1  0
  1 41  1  0
  4 42  1  0
  5 43  1  0
  7 44  1  0
  7 45  1  0
  9 46  1  0
  9 47  1  0
 11 48  1  0
 12 49  1  0
 15 50  1  0
 15 51  1  0
 15 52  1  0
 16 53  1  0
 17 54  1  0
 19 55  1  0
 20 56  1  0
 22 57  1  0
 25 58  1  0
 25 59  1  0
 32 60  1  0
 32 61  1  0
 32 62  1  0
 33 63  1  0
 33 64  1  0
 33 65  1  0
 34 66  1  0
 34 67  1  0
 34 68  1  0
 36 69  1  0
 37 70  1  0
 38 71  1  0
M  END
>  <UniqueID>  (45) 
45

>  <SMILES>  (45) 
COc1ccc(CN(Cc2ccc(OC)cc2)c2ccc3cc(C(N)=O)n(C(=O)OC(C)(C)C)c3c2)cc1

>  <Energy>  (45) 
109.73298340640335

>  <Genealogy>  (45) 
COc1ccc(CN(Cc2ccc(OC)cc2)c2ccc3cc(C(N)=O)n(C(=O)OC(C)(C)C)c3c2)cc1 (3D coordinates assigned)
COc1ccc(CN(Cc2ccc(OC)cc2)c2ccc3cc(C(N)=O)n(C(=O)OC(C)(C)C)c3c2)cc1 (optimized conformer: 109.73298340640335 kcal/mol)

>  <smiles>  (45) 
COc1ccc(CN(Cc2ccc(OC)cc2)c2ccc3cc(C(N)=O)n(C(=O)OC(C)(C)C)c3c2)cc1

>  <score_type>  (45) 
oracle

>  <origin>  (45) 
adg

>  <m_score__min__energy>  (45) 
-10.57

>  <m_primary>  (45) 
energy

$$$$
45:0
     RDKit          3D

 38 39  0  0  0  0  0  0  0  0999 V2000
  140.0934  159.3176  131.7244 H   0  0  0  0  0  0  0  0  0  0  0  0
  138.9950  159.2600  131.7150 C   0  0  0  0  0  0  0  0  0  0  0  0
  138.2460  160.1370  130.8000 C   0  0  0  0  0  0  0  0  0  0  0  0
  138.8420  160.8910  129.9860 O   0  0  0  0  0  0  0  0  0  0  0  0
  136.8570  160.1320  130.8350 O   0  0  0  0  0  0  0  0  0  0  0  0
  138.3870  158.3950  132.5360 C   0  0  0  0  0  0  0  0  0  0  0  0
  137.2889  158.3326  132.5214 H   0  0  0  0  0  0  0  0  0  0  0  0
  139.1350  157.5240  133.4580 C   0  0  0  0  0  0  0  0  0  0  0  0
  139.1580  157.7640  134.6970 O   0  0  0  0  0  0  0  0  0  0  0  0
  139.8180  156.4200  132.9380 O   0  0  0  0  0  0  0  0  0  0  0  0
  141.1210  156.0500  133.3740 C   0  0  0  0  0  0  0  0  0  0  0  0
  141.4537  155.1570  132.8247 H   0  0  0  0  0  0  0  0  0  0  0  0
  141.1024  155.8261  134.4508 H   0  0  0  0  0  0  0  0  0  0  0  0
  142.0170  157.1250  133.1230 O   0  0  0  0  0  0  0  0  0  0  0  0
  143.1020  157.4150  133.9550 C   0  0  0  0  0  0  0  0  0  0  0  0
  143.4100  156.6270  134.8910 O   0  0  0  0  0  0  0  0  0  0  0  0
  143.8670  158.6140  133.7390 N   0  0  0  0  0  0  0  0  0  0  0  0
  143.4320  159.9000  133.8560 C   0  0  0  0  0  0  0  0  0  0  0  0
  142.0330  160.3240  134.0660 C   0  0  0  0  0  0  0  0  0  0  0  0
  141.6840  161.4890  133.7370 O   0  0  0  0  0  0  0  0  0  0  0  0
  141.0530  159.4170  134.5740 N   0  0  0  0  0  0  0  0  0  0  0  0
  140.0770  159.7420  134.7480 H   0  0  0  0  0  0  0  0  0  0  0  0
  141.2740  158.4050  134.7060 H   0  0  0  0  0  0  0  0  0  0  0  0
  144.4870  160.7940  133.7050 C   0  0  0  0  0  0  0  0  0  0  0  0
  144.4443  161.8919  133.7582 H   0  0  0  0  0  0  0  0  0  0  0  0
  145.5950  160.0120  133.4750 C   0  0  0  0  0  0  0  0  0  0  0  0
  146.9220  160.3810  133.2760 C   0  0  0  0  0  0  0  0  0  0  0  0
  147.2187  161.4400  133.2525 H   0  0  0  0  0  0  0  0  0  0  0  0
  147.8710  159.3590  133.1060 C   0  0  0  0  0  0  0  0  0  0  0  0
  148.9288  159.6177  132.9505 H   0  0  0  0  0  0  0  0  0  0  0  0
  147.4780  157.9990  133.1330 C   0  0  0  0  0  0  0  0  0  0  0  0
  148.5100  156.9170  133.0050 C   0  0  0  0  0  0  0  0  0  0  0  0
  148.8232  156.5886  134.0070 H   0  0  0  0  0  0  0  0  0  0  0  0
  148.0817  156.0648  132.4571 H   0  0  0  0  0  0  0  0  0  0  0  0
  149.3815  157.3045  132.4571 H   0  0  0  0  0  0  0  0  0  0  0  0
  146.1250  157.6610  133.3550 C   0  0  0  0  0  0  0  0  0  0  0  0
  145.8083  156.6091  133.4110 H   0  0  0  0  0  0  0  0  0  0  0  0
  145.1970  158.6990  133.5020 C   0  0  0  0  0  0  0  0  0  0  0  0
  1  2  1  0
  2  3  1  0
  3  4  2  0
  3  5  1  0
  2  6  2  0
  6  7  1  0
  6  8  1  0
  8  9  2  0
  8 10  1  0
 10 11  1  0
 11 12  1  0
 11 13  1  0
 11 14  1  0
 14 15  1  0
 15 16  2  0
 15 17  1  0
 17 18  1  0
 18 19  1  0
 19 20  2  0
 19 21  1  0
 21 22  1  0
 21 23  1  0
 18 24  2  0
 24 25  1  0
 24 26  1  0
 26 27  2  0
 27 28  1  0
 27 29  1  0
 29 30  1  0
 29 31  2  0
 31 32  1  0
 32 33  1  0
 32 34  1  0
 32 35  1  0
 31 36  1  0
 36 37  1  0
 36 38  2  0
 38 17  1  0
 38 26  1  0
M  CHG  1   5  -1
M  END
>  <UniqueID>  (46) 
46

>  <SMILES>  (46) 
Cc1ccc2cc(C(N)=O)n(C(=O)OCOC(=O)/C=C/C(=O)[O-])c2c1

>  <Energy>  (46) 
71.07627528549499

>  <Genealogy>  (46) 
Cc1ccc2cc(C(N)=O)n(C(=O)OCOC(=O)/C=C/C(=O)[O-])c2c1 (protonated)
Cc1ccc2cc(C(N)=O)n(C(=O)OCOC(=O)/C=C/C(=O)[O-])c2c1 (cis-trans isomerization)
Cc1ccc2cc(C(N)=O)n(C(=O)OCOC(=O)/C=C/C(=O)[O-])c2c1 (3D coordinates assigned)
Cc1ccc2cc(C(N)=O)n(C(=O)OCOC(=O)/C=C/C(=O)[O-])c2c1 (optimized conformer: 71.07627528549499 kcal/mol)

>  <smiles>  (46) 
Cc1ccc2cc(C(N)=O)n(C(=O)OCOC(=O)/C=C/C(=O)O)c2c1

>  <score_type>  (46) 
oracle

>  <origin>  (46) 
adg

>  <m_score__min__energy>  (46) 
-6.6699999999999999

>  <m_primary>  (46) 
energy

$$$$
46:0
     RDKit          3D

 46 47  0  0  0  0  0  0  0  0999 V2000
  148.8470  157.1300  132.7270 C   0  0  0  0  0  0  0  0  0  0  0  0
  147.7690  158.1340  133.0030 C   0  0  0  0  0  0  0  0  0  0  0  0
  148.1040  159.4930  133.2190 C   0  0  0  0  0  0  0  0  0  0  0  0
  147.0990  160.4510  133.4380 C   0  0  0  0  0  0  0  0  0  0  0  0
  145.7750  160.0180  133.4420 C   0  0  0  0  0  0  0  0  0  0  0  0
  144.6050  160.7330  133.5790 C   0  0  0  0  0  0  0  0  0  0  0  0
  143.5820  159.7910  133.4690 C   0  0  0  0  0  0  0  0  0  0  0  0
  142.1450  160.1320  133.5100 C   0  0  0  0  0  0  0  0  0  0  0  0
  141.2310  159.6550  132.5200 N   0  0  0  0  0  0  0  0  0  0  0  0
  141.7070  160.8340  134.4620 O   0  0  0  0  0  0  0  0  0  0  0  0
  144.1020  158.5480  133.2790 N   0  0  0  0  0  0  0  0  0  0  0  0
  143.3970  157.3300  133.0050 C   0  0  0  0  0  0  0  0  0  0  0  0
  142.8460  157.1760  131.8820 O   0  0  0  0  0  0  0  0  0  0  0  0
  143.3180  156.2890  133.9970 N   0  0  0  0  0  0  0  0  0  0  0  0
  144.5010  155.4690  134.2720 C   0  0  0  0  0  0  0  0  0  0  0  0
  142.0520  156.0030  134.6870 C   0  0  0  0  0  0  0  0  0  0  0  0
  141.1080  155.2690  133.7890 C   0  0  0  0  0  0  0  0  0  0  0  0
  141.3660  154.0790  133.4580 O   0  0  0  0  0  0  0  0  0  0  0  0
  139.9460  155.9110  133.3410 O   0  0  0  0  0  0  0  0  0  0  0  0
  139.7700  157.2980  133.2720 C   0  0  0  0  0  0  0  0  0  0  0  0
  139.8060  158.0090  134.3150 O   0  0  0  0  0  0  0  0  0  0  0  0
  139.5710  157.8880  132.0220 O   0  0  0  0  0  0  0  0  0  0  0  0
  138.4020  158.6300  131.6720 C   0  0  0  0  0  0  0  0  0  0  0  0
  138.7150  159.6650  130.5900 C   0  0  0  0  0  0  0  0  0  0  0  0
  140.0960  159.7310  130.3620 O   0  0  0  0  0  0  0  0  0  0  0  0
  145.4410  158.7050  133.2490 C   0  0  0  0  0  0  0  0  0  0  0  0
  146.4150  157.7360  132.9940 C   0  0  0  0  0  0  0  0  0  0  0  0
  149.2505  156.7542  133.6788 H   0  0  0  0  0  0  0  0  0  0  0  0
  148.4287  156.2922  132.1498 H   0  0  0  0  0  0  0  0  0  0  0  0
  149.6530  157.6067  132.1498 H   0  0  0  0  0  0  0  0  0  0  0  0
  149.1599  159.8015  133.2153 H   0  0  0  0  0  0  0  0  0  0  0  0
  147.3501  161.5095  133.6011 H   0  0  0  0  0  0  0  0  0  0  0  0
  144.5000  161.8160  133.7407 H   0  0  0  0  0  0  0  0  0  0  0  0
  140.2380  159.9830  132.5250 H   0  0  0  0  0  0  0  0  0  0  0  0
  141.4980  158.9110  131.8410 H   0  0  0  0  0  0  0  0  0  0  0  0
  144.6370  155.3747  135.3595 H   0  0  0  0  0  0  0  0  0  0  0  0
  144.3653  154.4702  133.8315 H   0  0  0  0  0  0  0  0  0  0  0  0
  145.3886  155.9465  133.8315 H   0  0  0  0  0  0  0  0  0  0  0  0
  142.2571  155.3867  135.5747 H   0  0  0  0  0  0  0  0  0  0  0  0
  141.5884  156.9566  134.9797 H   0  0  0  0  0  0  0  0  0  0  0  0
  137.6349  157.9370  131.2961 H   0  0  0  0  0  0  0  0  0  0  0  0
  138.0393  159.1566  132.5671 H   0  0  0  0  0  0  0  0  0  0  0  0
  138.2069  159.3791  129.6572 H   0  0  0  0  0  0  0  0  0  0  0  0
  138.3614  160.6508  130.9263 H   0  0  0  0  0  0  0  0  0  0  0  0
  140.4830  158.8830  130.7060 H   0  0  0  0  0  0  0  0  0  0  0  0
  146.1341  156.6918  132.7918 H   0  0  0  0  0  0  0  0  0  0  0  0
  1  2  1  0
  2  3  2  0
  3  4  1  0
  4  5  2  0
  5  6  1  0
  6  7  2  0
  7  8  1  0
  8  9  1  0
  8 10  2  0
  7 11  1  0
 11 12  1  0
 12 13  2  0
 12 14  1  0
 14 15  1  0
 14 16  1  0
 16 17  1  0
 17 18  2  0
 17 19  1  0
 19 20  1  0
 20 21  2  0
 20 22  1  0
 22 23  1  0
 23 24  1  0
 24 25  1  0
 11 26  1  0
 26 27  2  0
 27  2  1  0
 26  5  1  0
  1 28  1  0
  1 29  1  0
  1 30  1  0
  3 31  1  0
  4 32  1  0
  6 33  1  0
  9 34  1  0
  9 35  1  0
 15 36  1  0
 15 37  1  0
 15 38  1  0
 16 39  1  0
 16 40  1  0
 23 41  1  0
 23 42  1  0
 24 43  1  0
 24 44  1  0
 25 45  1  0
 27 46  1  0
M  END
>  <UniqueID>  (47) 
47

>  <SMILES>  (47) 
Cc1ccc2cc(C(N)=O)n(C(=O)N(C)CC(=O)OC(=O)OCCO)c2c1

>  <Energy>  (47) 
77.77759387256411

>  <Genealogy>  (47) 
Cc1ccc2cc(C(N)=O)n(C(=O)N(C)CC(=O)OC(=O)OCCO)c2c1 (3D coordinates assigned)
Cc1ccc2cc(C(N)=O)n(C(=O)N(C)CC(=O)OC(=O)OCCO)c2c1 (optimized conformer: 77.77759387256411 kcal/mol)

>  <smiles>  (47) 
Cc1ccc2cc(C(N)=O)n(C(=O)N(C)CC(=O)OC(=O)OCCO)c2c1

>  <score_type>  (47) 
oracle

>  <origin>  (47) 
adg

>  <m_score__min__energy>  (47) 
-5.7199999999999998

>  <m_primary>  (47) 
energy

$$$$
47:0
     RDKit          3D

 65 67  0  0  0  0  0  0  0  0999 V2000
  139.1340  159.5920  132.6050 C   0  0  0  0  0  0  0  0  0  0  0  0
  140.0280  158.4330  132.7240 N   0  0  0  0  0  0  0  0  0  0  0  0
  139.4600  157.0980  132.4790 C   0  0  0  0  0  0  0  0  0  0  0  0
  139.8270  156.1450  133.6240 C   0  0  0  0  0  0  0  0  0  0  0  0
  140.3150  154.7800  133.0930 C   0  0  0  0  0  0  0  0  0  0  0  0
  141.7420  154.4770  133.3830 N   0  0  0  0  0  0  0  0  0  0  0  0
  142.1510  153.0930  133.0220 C   0  0  0  0  0  0  0  0  0  0  0  0
  141.8520  152.0420  134.1090 C   0  0  0  0  0  0  0  0  0  0  0  0
  141.9740  152.6060  135.4550 N   0  0  0  0  0  0  0  0  0  0  0  0
  141.3390  151.9590  136.5750 C   0  0  0  0  0  0  0  0  0  0  0  0
  140.6590  150.9150  136.3900 O   0  0  0  0  0  0  0  0  0  0  0  0
  141.4720  152.5030  137.8630 O   0  0  0  0  0  0  0  0  0  0  0  0
  141.4210  151.7810  139.1020 C   0  0  0  0  0  0  0  0  0  0  0  0
  140.2230  150.8110  139.1110 C   0  0  0  0  0  0  0  0  0  0  0  0
  141.2310  152.8140  140.2230 C   0  0  0  0  0  0  0  0  0  0  0  0
  142.7400  151.0200  139.3470 C   0  0  0  0  0  0  0  0  0  0  0  0
  142.7570  153.8290  135.6210 C   0  0  0  0  0  0  0  0  0  0  0  0
  142.1740  154.9390  134.7360 C   0  0  0  0  0  0  0  0  0  0  0  0
  141.4440  158.6300  132.9900 C   0  0  0  0  0  0  0  0  0  0  0  0
  141.9580  159.9130  133.3360 C   0  0  0  0  0  0  0  0  0  0  0  0
  143.3230  160.1000  133.6060 C   0  0  0  0  0  0  0  0  0  0  0  0
  144.1620  158.9950  133.5320 C   0  0  0  0  0  0  0  0  0  0  0  0
  145.5210  158.9020  133.7260 C   0  0  0  0  0  0  0  0  0  0  0  0
  145.8330  157.5610  133.5140 C   0  0  0  0  0  0  0  0  0  0  0  0
  147.1890  157.0030  133.7060 C   0  0  0  0  0  0  0  0  0  0  0  0
  147.4400  156.0070  134.6920 N   0  0  0  0  0  0  0  0  0  0  0  0
  148.1470  157.4430  133.0140 O   0  0  0  0  0  0  0  0  0  0  0  0
  144.7110  156.8560  133.1930 N   0  0  0  0  0  0  0  0  0  0  0  0
  144.6150  155.4710  132.8250 C   0  0  0  0  0  0  0  0  0  0  0  0
  145.1160  154.5810  133.5610 O   0  0  0  0  0  0  0  0  0  0  0  0
  143.9860  155.1010  131.6420 O   0  0  0  0  0  0  0  0  0  0  0  0
  143.6970  157.7480  133.2130 C   0  0  0  0  0  0  0  0  0  0  0  0
  142.3460  157.5340  132.9200 C   0  0  0  0  0  0  0  0  0  0  0  0
  138.8595  159.9479  133.6090 H   0  0  0  0  0  0  0  0  0  0  0  0
  139.6476  160.3967  132.0584 H   0  0  0  0  0  0  0  0  0  0  0  0
  138.2253  159.2995  132.0584 H   0  0  0  0  0  0  0  0  0  0  0  0
  138.3650  157.1767  132.4092 H   0  0  0  0  0  0  0  0  0  0  0  0
  139.8700  156.7018  131.5383 H   0  0  0  0  0  0  0  0  0  0  0  0
  140.6273  156.6010  134.2253 H   0  0  0  0  0  0  0  0  0  0  0  0
  138.9265  155.9754  134.2325 H   0  0  0  0  0  0  0  0  0  0  0  0
  139.6973  153.9932  133.5506 H   0  0  0  0  0  0  0  0  0  0  0  0
  140.2212  154.8200  131.9977 H   0  0  0  0  0  0  0  0  0  0  0  0
  142.2640  155.0820  132.7030 H   0  0  0  0  0  0  0  0  0  0  0  0
  141.6161  152.8032  132.1055 H   0  0  0  0  0  0  0  0  0  0  0  0
  143.2430  153.1102  132.8908 H   0  0  0  0  0  0  0  0  0  0  0  0
  140.8269  151.6677  133.9708 H   0  0  0  0  0  0  0  0  0  0  0  0
  142.5852  151.2280  134.0102 H   0  0  0  0  0  0  0  0  0  0  0  0
  139.9427  150.5841  140.1502 H   0  0  0  0  0  0  0  0  0  0  0  0
  139.3705  151.2764  138.5946 H   0  0  0  0  0  0  0  0  0  0  0  0
  140.5009  149.8803  138.5946 H   0  0  0  0  0  0  0  0  0  0  0  0
  141.3226  152.3162  141.1997 H   0  0  0  0  0  0  0  0  0  0  0  0
  142.0005  153.5952  140.1360 H   0  0  0  0  0  0  0  0  0  0  0  0
  140.2339  153.2702  140.1360 H   0  0  0  0  0  0  0  0  0  0  0  0
  142.9109  150.9214  140.4292 H   0  0  0  0  0  0  0  0  0  0  0  0
  142.6761  150.0200  138.8933 H   0  0  0  0  0  0  0  0  0  0  0  0
  143.5738  151.5759  138.8933 H   0  0  0  0  0  0  0  0  0  0  0  0
  142.7232  154.1450  136.6741 H   0  0  0  0  0  0  0  0  0  0  0  0
  143.7995  153.6375  135.3268 H   0  0  0  0  0  0  0  0  0  0  0  0
  141.3008  155.3675  135.2497 H   0  0  0  0  0  0  0  0  0  0  0  0
  142.9774  155.6737  134.5786 H   0  0  0  0  0  0  0  0  0  0  0  0
  141.2733  160.7721  133.3926 H   0  0  0  0  0  0  0  0  0  0  0  0
  143.7169  161.0929  133.8686 H   0  0  0  0  0  0  0  0  0  0  0  0
  146.2138  159.7139  133.9920 H   0  0  0  0  0  0  0  0  0  0  0  0
  146.8210  155.1700  134.7820 H   0  0  0  0  0  0  0  0  0  0  0  0
  141.9872  156.5326  132.6397 H   0  0  0  0  0  0  0  0  0  0  0  0
  1  2  1  0
  2  3  1  0
  3  4  1  0
  4  5  1  0
  5  6  1  0
  6  7  1  0
  7  8  1  0
  8  9  1  0
  9 10  1  0
 10 11  2  0
 10 12  1  0
 12 13  1  0
 13 14  1  0
 13 15  1  0
 13 16  1  0
  9 17  1  0
 17 18  1  0
  2 19  1  0
 19 20  2  0
 20 21  1  0
 21 22  2  0
 22 23  1  0
 23 24  2  0
 24 25  1  0
 25 26  1  0
 25 27  2  0
 24 28  1  0
 28 29  1  0
 29 30  2  0
 29 31  1  0
 28 32  1  0
 32 33  2  0
 18  6  1  0
 33 19  1  0
 32 22  1  0
  1 34  1  0
  1 35  1  0
  1 36  1  0
  3 37  1  0
  3 38  1  0
  4 39  1  0
  4 40  1  0
  5 41  1  0
  5 42  1  0
  6 43  1  0
  7 44  1  0
  7 45  1  0
  8 46  1  0
  8 47  1  0
 14 48  1  0
 14 49  1  0
 14 50  1  0
 15 51  1  0
 15 52  1  0
 15 53  1  0
 16 54  1  0
 16 55  1  0
 16 56  1  0
 17 57  1  0
 17 58  1  0
 18 59  1  0
 18 60  1  0
 20 61  1  0
 21 62  1  0
 23 63  1  0
 26 64  1  0
 33 65  1  0
M  CHG  3   6   1  26  -1  31  -1
M  END
>  <UniqueID>  (48) 
48

>  <SMILES>  (48) 
CN(CCC[NH+]1CCN(C(=O)OC(C)(C)C)CC1)c1ccc2cc(C([NH-])=O)n(C(=O)[O-])c2c1

>  <Energy>  (48) 
112.30695094460515

>  <Genealogy>  (48) 
CN(CCC[NH+]1CCN(C(=O)OC(C)(C)C)CC1)c1ccc2cc(C([NH-])=O)n(C(=O)[O-])c2c1 (protonated)
CN(CCC[NH+]1CCN(C(=O)OC(C)(C)C)CC1)c1ccc2cc(C([NH-])=O)n(C(=O)[O-])c2c1 (3D coordinates assigned)
CN(CCC[NH+]1CCN(C(=O)OC(C)(C)C)CC1)c1ccc2cc(C([NH-])=O)n(C(=O)[O-])c2c1 (nonaromatic ring conformer: 112.30695094460515 kcal/mol)

>  <smiles>  (48) 
CN(CCCN1CCN(C(=O)OC(C)(C)C)CC1)c1ccc2cc(C(N)=O)n(C(=O)O)c2c1

>  <score_type>  (48) 
oracle

>  <origin>  (48) 
adg

>  <m_score__min__energy>  (48) 
-8.0999999999999996

>  <m_primary>  (48) 
energy

$$$$
48:0
     RDKit          3D

 29 30  0  0  0  0  0  0  0  0999 V2000
  144.7380  162.7020  134.1110 C   0  0  0  0  0  0  0  0  0  0  0  0
  144.3880  161.5880  133.9820 N   0  0  0  0  0  0  0  0  0  0  0  0
  143.9540  160.2790  133.8200 C   0  0  0  0  0  0  0  0  0  0  0  0
  144.8860  159.2710  133.8530 C   0  0  0  0  0  0  0  0  0  0  0  0
  144.4480  157.9750  133.6990 C   0  0  0  0  0  0  0  0  0  0  0  0
  143.1130  157.7110  133.5160 C   0  0  0  0  0  0  0  0  0  0  0  0
  142.4740  156.5200  133.3460 C   0  0  0  0  0  0  0  0  0  0  0  0
  141.0990  156.7780  133.2000 C   0  0  0  0  0  0  0  0  0  0  0  0
  140.1510  155.7190  132.9840 C   0  0  0  0  0  0  0  0  0  0  0  0
  138.7330  156.0810  132.9770 N   0  0  0  0  0  0  0  0  0  0  0  0
  140.3380  154.5110  132.8000 O   0  0  0  0  0  0  0  0  0  0  0  0
  140.9120  158.1270  133.2820 N   0  0  0  0  0  0  0  0  0  0  0  0
  139.7580  158.9070  133.2000 C   0  0  0  0  0  0  0  0  0  0  0  0
  138.7290  158.5770  133.9100 O   0  0  0  0  0  0  0  0  0  0  0  0
  139.5030  160.1170  132.3910 C   0  0  0  0  0  0  0  0  0  0  0  0
  138.4940  159.7170  131.2980 C   0  0  0  0  0  0  0  0  0  0  0  0
  138.2220  160.5160  130.3710 O   0  0  0  0  0  0  0  0  0  0  0  0
  137.8920  158.4450  131.3700 O   0  0  0  0  0  0  0  0  0  0  0  0
  142.1510  158.6830  133.4760 C   0  0  0  0  0  0  0  0  0  0  0  0
  142.6000  159.9870  133.6330 C   0  0  0  0  0  0  0  0  0  0  0  0
  145.9535  159.4931  133.9985 H   0  0  0  0  0  0  0  0  0  0  0  0
  145.1713  157.1466  133.7227 H   0  0  0  0  0  0  0  0  0  0  0  0
  142.9505  155.5288  133.3263 H   0  0  0  0  0  0  0  0  0  0  0  0
  138.4320  156.9590  132.4620 H   0  0  0  0  0  0  0  0  0  0  0  0
  138.0520  155.4830  133.4720 H   0  0  0  0  0  0  0  0  0  0  0  0
  139.0815  160.9129  133.0226 H   0  0  0  0  0  0  0  0  0  0  0  0
  140.4344  160.4989  131.9477 H   0  0  0  0  0  0  0  0  0  0  0  0
  137.4530  158.1110  132.2200 H   0  0  0  0  0  0  0  0  0  0  0  0
  141.8720  160.8113  133.6096 H   0  0  0  0  0  0  0  0  0  0  0  0
  1  2  3  0
  2  3  1  0
  3  4  2  0
  4  5  1  0
  5  6  2  0
  6  7  1  0
  7  8  2  0
  8  9  1  0
  9 10  1  0
  9 11  2  0
  8 12  1  0
 12 13  1  0
 13 14  2  0
 13 15  1  0
 15 16  1  0
 16 17  2  0
 16 18  1  0
 12 19  1  0
 19 20  2  0
 20  3  1  0
 19  6  1  0
  4 21  1  0
  5 22  1  0
  7 23  1  0
 10 24  1  0
 10 25  1  0
 15 26  1  0
 15 27  1  0
 18 28  1  0
 20 29  1  0
M  CHG  2   1  -1   2   1
M  END
>  <smiles>  (49) 
[C-]#[N+]c1ccc2cc(C(N)=O)n(C(=O)CC(=O)O)c2c1

>  <score_type>  (49) 
oracle

>  <origin>  (49) 
adg

>  <m_score__min__energy>  (49) 
-6.3799999999999999

>  <m_primary>  (49) 
energy

$$$$
49:0
     RDKit          3D

 37 38  0  0  0  0  0  0  0  0999 V2000
  140.1250  154.3950  133.0030 C   0  0  0  0  0  0  0  0  0  0  0  0
  139.3940  155.6590  132.9860 N   0  0  0  0  0  0  0  0  0  0  0  0
  140.0300  156.9460  133.0890 C   0  0  0  0  0  0  0  0  0  0  0  0
  139.2900  158.1530  132.9740 C   0  0  0  0  0  0  0  0  0  0  0  0
  139.9310  159.3990  133.0640 C   0  0  0  0  0  0  0  0  0  0  0  0
  141.3050  159.4140  133.2760 C   0  0  0  0  0  0  0  0  0  0  0  0
  142.1720  160.4770  133.3780 C   0  0  0  0  0  0  0  0  0  0  0  0
  143.4290  159.9100  133.5750 C   0  0  0  0  0  0  0  0  0  0  0  0
  144.6560  160.6940  133.8350 C   0  0  0  0  0  0  0  0  0  0  0  0
  145.8290  160.4950  133.0450 N   0  0  0  0  0  0  0  0  0  0  0  0
  144.6640  161.5730  134.7370 O   0  0  0  0  0  0  0  0  0  0  0  0
  143.3430  158.5500  133.5940 N   0  0  0  0  0  0  0  0  0  0  0  0
  144.4240  157.6070  133.6940 C   0  0  0  0  0  0  0  0  0  0  0  0
  144.2950  156.5760  134.4090 O   0  0  0  0  0  0  0  0  0  0  0  0
  145.6050  157.8220  132.9750 O   0  0  0  0  0  0  0  0  0  0  0  0
  146.8990  157.6930  133.5590 C   0  0  0  0  0  0  0  0  0  0  0  0
  147.6190  158.9170  133.4410 O   0  0  0  0  0  0  0  0  0  0  0  0
  148.2910  159.2950  132.2750 C   0  0  0  0  0  0  0  0  0  0  0  0
  149.5480  158.5920  131.8900 C   0  0  0  0  0  0  0  0  0  0  0  0
  147.8650  160.2440  131.5620 O   0  0  0  0  0  0  0  0  0  0  0  0
  142.0350  158.2620  133.4080 C   0  0  0  0  0  0  0  0  0  0  0  0
  141.4260  157.0060  133.3030 C   0  0  0  0  0  0  0  0  0  0  0  0
  140.3025  154.0881  134.0443 H   0  0  0  0  0  0  0  0  0  0  0  0
  139.5341  153.6227  132.4888 H   0  0  0  0  0  0  0  0  0  0  0  0
  141.0891  154.5220  132.4888 H   0  0  0  0  0  0  0  0  0  0  0  0
  138.3540  155.6150  132.8930 H   0  0  0  0  0  0  0  0  0  0  0  0
  138.2027  158.1111  132.8126 H   0  0  0  0  0  0  0  0  0  0  0  0
  139.3626  160.3360  132.9695 H   0  0  0  0  0  0  0  0  0  0  0  0
  141.9252  161.5472  133.3170 H   0  0  0  0  0  0  0  0  0  0  0  0
  145.8760  159.7440  132.3230 H   0  0  0  0  0  0  0  0  0  0  0  0
  146.6780  161.0810  133.2110 H   0  0  0  0  0  0  0  0  0  0  0  0
  146.7928  157.4356  134.6232 H   0  0  0  0  0  0  0  0  0  0  0  0
  147.4516  156.9006  133.0330 H   0  0  0  0  0  0  0  0  0  0  0  0
  150.0909  158.2884  132.7972 H   0  0  0  0  0  0  0  0  0  0  0  0
  149.3019  157.7006  131.2944 H   0  0  0  0  0  0  0  0  0  0  0  0
  150.1787  159.2683  131.2944 H   0  0  0  0  0  0  0  0  0  0  0  0
  142.0214  156.0848  133.3853 H   0  0  0  0  0  0  0  0  0  0  0  0
  1  2  1  0
  2  3  1  0
  3  4  2  0
  4  5  1  0
  5  6  2  0
  6  7  1  0
  7  8  2  0
  8  9  1  0
  9 10  1  0
  9 11  2  0
  8 12  1  0
 12 13  1  0
 13 14  2  0
 13 15  1  0
 15 16  1  0
 16 17  1  0
 17 18  1  0
 18 19  1  0
 18 20  2  0
 12 21  1  0
 21 22  2  0
 22  3  1  0
 21  6  1  0
  1 23  1  0
  1 24  1  0
  1 25  1  0
  2 26  1  0
  4 27  1  0
  5 28  1  0
  7 29  1  0
 10 30  1  0
 10 31  1  0
 16 32  1  0
 16 33  1  0
 19 34  1  0
 19 35  1  0
 19 36  1  0
 22 37  1  0
M  END
>  <UniqueID>  (50) 
49

>  <SMILES>  (50) 
CNc1ccc2cc(C(N)=O)n(C(=O)OCOC(C)=O)c2c1

>  <Energy>  (50) 
69.30283204584377

>  <Genealogy>  (50) 
CNc1ccc2cc(C(N)=O)n(C(=O)OCOC(C)=O)c2c1 (3D coordinates assigned)
CNc1ccc2cc(C(N)=O)n(C(=O)OCOC(C)=O)c2c1 (optimized conformer: 69.30283204584377 kcal/mol)

>  <smiles>  (50) 
CNc1ccc2cc(C(N)=O)n(C(=O)OCOC(C)=O)c2c1

>  <score_type>  (50) 
oracle

>  <origin>  (50) 
adg

>  <m_score__min__energy>  (50) 
-5.9800000000000004

>  <m_primary>  (50) 
energy

$$$$
50:0
     RDKit          3D

 43 44  0  0  0  0  0  0  0  0999 V2000
  146.3320  153.2380  133.0160 C   0  0  0  0  0  0  0  0  0  0  0  0
  147.5060  153.5240  133.8480 N   0  0  0  0  0  0  0  0  0  0  0  0
  148.8190  153.0120  133.4390 C   0  0  0  0  0  0  0  0  0  0  0  0
  149.3370  153.7790  132.2210 C   0  0  0  0  0  0  0  0  0  0  0  0
  149.6730  155.0890  132.5810 O   0  0  0  0  0  0  0  0  0  0  0  0
  147.3600  154.2310  135.1000 C   0  0  0  0  0  0  0  0  0  0  0  0
  147.1180  153.5830  136.1560 O   0  0  0  0  0  0  0  0  0  0  0  0
  147.4580  155.7350  135.1630 C   0  0  0  0  0  0  0  0  0  0  0  0
  148.0360  156.2820  133.9780 O   0  0  0  0  0  0  0  0  0  0  0  0
  147.2810  156.8300  132.9310 C   0  0  0  0  0  0  0  0  0  0  0  0
  146.9180  156.1010  131.9700 O   0  0  0  0  0  0  0  0  0  0  0  0
  146.9230  158.2240  132.9620 N   0  0  0  0  0  0  0  0  0  0  0  0
  147.7370  159.2890  132.7120 C   0  0  0  0  0  0  0  0  0  0  0  0
  149.1100  159.2190  132.1770 C   0  0  0  0  0  0  0  0  0  0  0  0
  149.9580  158.1100  132.4730 N   0  0  0  0  0  0  0  0  0  0  0  0
  149.5180  160.1220  131.3980 O   0  0  0  0  0  0  0  0  0  0  0  0
  147.0780  160.4870  132.9630 C   0  0  0  0  0  0  0  0  0  0  0  0
  145.8140  160.1270  133.3660 C   0  0  0  0  0  0  0  0  0  0  0  0
  144.7350  160.9250  133.7330 C   0  0  0  0  0  0  0  0  0  0  0  0
  143.5470  160.2890  134.1240 C   0  0  0  0  0  0  0  0  0  0  0  0
  143.4640  158.8730  134.1690 C   0  0  0  0  0  0  0  0  0  0  0  0
  142.1720  158.1920  134.5470 C   0  0  0  0  0  0  0  0  0  0  0  0
  141.5630  158.9060  135.5620 F   0  0  0  0  0  0  0  0  0  0  0  0
  142.4000  156.8970  134.9830 F   0  0  0  0  0  0  0  0  0  0  0  0
  141.3200  158.1380  133.4580 F   0  0  0  0  0  0  0  0  0  0  0  0
  144.5770  158.0960  133.7700 C   0  0  0  0  0  0  0  0  0  0  0  0
  145.7430  158.7570  133.3620 C   0  0  0  0  0  0  0  0  0  0  0  0
  145.4671  153.0273  133.6623 H   0  0  0  0  0  0  0  0  0  0  0  0
  146.1117  154.1088  132.3810 H   0  0  0  0  0  0  0  0  0  0  0  0
  146.5369  152.3635  132.3810 H   0  0  0  0  0  0  0  0  0  0  0  0
  149.5291  153.1309  134.2706 H   0  0  0  0  0  0  0  0  0  0  0  0
  148.7198  151.9489  133.1744 H   0  0  0  0  0  0  0  0  0  0  0  0
  150.2286  153.2713  131.8243 H   0  0  0  0  0  0  0  0  0  0  0  0
  148.5489  153.8088  131.4542 H   0  0  0  0  0  0  0  0  0  0  0  0
  149.0170  155.6860  132.1350 H   0  0  0  0  0  0  0  0  0  0  0  0
  146.4481  156.1519  135.2910 H   0  0  0  0  0  0  0  0  0  0  0  0
  148.1069  155.9986  136.0112 H   0  0  0  0  0  0  0  0  0  0  0  0
  149.5870  157.2740  132.9780 H   0  0  0  0  0  0  0  0  0  0  0  0
  150.9410  158.0890  132.1200 H   0  0  0  0  0  0  0  0  0  0  0  0
  147.4816  161.5052  132.8610 H   0  0  0  0  0  0  0  0  0  0  0  0
  144.8110  162.0223  133.7171 H   0  0  0  0  0  0  0  0  0  0  0  0
  142.6706  160.8944  134.3986 H   0  0  0  0  0  0  0  0  0  0  0  0
  144.5280  156.9971  133.7799 H   0  0  0  0  0  0  0  0  0  0  0  0
  1  2  1  0
  2  3  1  0
  3  4  1  0
  4  5  1  0
  2  6  1  0
  6  7  2  0
  6  8  1  0
  8  9  1  0
  9 10  1  0
 10 11  2  0
 10 12  1  0
 12 13  1  0
 13 14  1  0
 14 15  1  0
 14 16  2  0
 13 17  2  0
 17 18  1  0
 18 19  2  0
 19 20  1  0
 20 21  2  0
 21 22  1  0
 22 23  1  0
 22 24  1  0
 22 25  1  0
 21 26  1  0
 26 27  2  0
 27 12  1  0
 27 18  1  0
  1 28  1  0
  1 29  1  0
  1 30  1  0
  3 31  1  0
  3 32  1  0
  4 33  1  0
  4 34  1  0
  5 35  1  0
  8 36  1  0
  8 37  1  0
 15 38  1  0
 15 39  1  0
 17 40  1  0
 19 41  1  0
 20 42  1  0
 26 43  1  0
M  END
>  <UniqueID>  (51) 
50

>  <SMILES>  (51) 
CN(CCO)C(=O)COC(=O)n1c(C(N)=O)cc2ccc(C(F)(F)F)cc21

>  <Energy>  (51) 
77.59030098595873

>  <Genealogy>  (51) 
CN(CCO)C(=O)COC(=O)n1c(C(N)=O)cc2ccc(C(F)(F)F)cc21 (3D coordinates assigned)
CN(CCO)C(=O)COC(=O)n1c(C(N)=O)cc2ccc(C(F)(F)F)cc21 (optimized conformer: 77.59030098595873 kcal/mol)

>  <smiles>  (51) 
CN(CCO)C(=O)COC(=O)n1c(C(N)=O)cc2ccc(C(F)(F)F)cc21

>  <score_type>  (51) 
oracle

>  <origin>  (51) 
adg

>  <m_score__min__energy>  (51) 
-5.8300000000000001

>  <m_primary>  (51) 
energy

$$$$
51:0
     RDKit          3D

 37 38  0  0  0  0  0  0  0  0999 V2000
  140.9560  159.2970  133.7010 C   0  0  0  0  0  0  0  0  0  0  0  0
  141.6760  158.6670  134.9100 C   0  0  0  0  0  0  0  0  0  0  0  0
  141.3680  157.1620  134.9400 C   0  0  0  0  0  0  0  0  0  0  0  0
  141.1860  159.3020  136.2250 C   0  0  0  0  0  0  0  0  0  0  0  0
  143.0980  158.8050  134.7820 O   0  0  0  0  0  0  0  0  0  0  0  0
  143.8570  158.5800  133.6230 C   0  0  0  0  0  0  0  0  0  0  0  0
  143.3740  157.9460  132.6470 O   0  0  0  0  0  0  0  0  0  0  0  0
  145.1930  159.1000  133.5430 N   0  0  0  0  0  0  0  0  0  0  0  0
  145.5830  160.4040  133.6070 C   0  0  0  0  0  0  0  0  0  0  0  0
  144.7200  161.5530  133.9530 C   0  0  0  0  0  0  0  0  0  0  0  0
  143.3130  161.5060  133.7320 N   0  0  0  0  0  0  0  0  0  0  0  0
  145.2240  162.5700  134.4990 O   0  0  0  0  0  0  0  0  0  0  0  0
  146.9520  160.5170  133.3750 C   0  0  0  0  0  0  0  0  0  0  0  0
  147.3960  159.2310  133.1730 C   0  0  0  0  0  0  0  0  0  0  0  0
  148.6740  158.7580  132.8930 C   0  0  0  0  0  0  0  0  0  0  0  0
  148.8390  157.3760  132.7030 C   0  0  0  0  0  0  0  0  0  0  0  0
  147.7270  156.5010  132.7740 C   0  0  0  0  0  0  0  0  0  0  0  0
  147.9200  155.0250  132.5920 C   0  0  0  0  0  0  0  0  0  0  0  0
  149.2720  154.7380  132.5500 F   0  0  0  0  0  0  0  0  0  0  0  0
  146.4460  157.0140  133.0730 C   0  0  0  0  0  0  0  0  0  0  0  0
  146.3140  158.3930  133.2780 C   0  0  0  0  0  0  0  0  0  0  0  0
  140.1727  159.9824  134.0570 H   0  0  0  0  0  0  0  0  0  0  0  0
  141.6822  159.8550  133.0917 H   0  0  0  0  0  0  0  0  0  0  0  0
  140.4994  158.5031  133.0917 H   0  0  0  0  0  0  0  0  0  0  0  0
  141.2986  156.8227  135.9841 H   0  0  0  0  0  0  0  0  0  0  0  0
  140.4126  156.9730  134.4287 H   0  0  0  0  0  0  0  0  0  0  0  0
  142.1724  156.6129  134.4287 H   0  0  0  0  0  0  0  0  0  0  0  0
  141.6103  158.7522  137.0781 H   0  0  0  0  0  0  0  0  0  0  0  0
  141.5100  160.3523  136.2680 H   0  0  0  0  0  0  0  0  0  0  0  0
  140.0879  159.2550  136.2680 H   0  0  0  0  0  0  0  0  0  0  0  0
  142.8240  160.5970  133.5720 H   0  0  0  0  0  0  0  0  0  0  0  0
  147.5510  161.4394  133.3571 H   0  0  0  0  0  0  0  0  0  0  0  0
  149.5297  159.4456  132.8225 H   0  0  0  0  0  0  0  0  0  0  0  0
  149.8403  156.9696  132.4973 H   0  0  0  0  0  0  0  0  0  0  0  0
  147.4573  154.4883  133.4334 H   0  0  0  0  0  0  0  0  0  0  0  0
  147.4486  154.7072  131.6503 H   0  0  0  0  0  0  0  0  0  0  0  0
  145.5738  156.3474  133.1431 H   0  0  0  0  0  0  0  0  0  0  0  0
  1  2  1  0
  2  3  1  0
  2  4  1  0
  2  5  1  0
  5  6  1  0
  6  7  2  0
  6  8  1  0
  8  9  1  0
  9 10  1  0
 10 11  1  0
 10 12  2  0
  9 13  2  0
 13 14  1  0
 14 15  2  0
 15 16  1  0
 16 17  2  0
 17 18  1  0
 18 19  1  0
 17 20  1  0
 20 21  2  0
 21  8  1  0
 21 14  1  0
  1 22  1  0
  1 23  1  0
  1 24  1  0
  3 25  1  0
  3 26  1  0
  3 27  1  0
  4 28  1  0
  4 29  1  0
  4 30  1  0
 11 31  1  0
 13 32  1  0
 15 33  1  0
 16 34  1  0
 18 35  1  0
 18 36  1  0
 20 37  1  0
M  CHG  1  11  -1
M  END
>  <UniqueID>  (52) 
51

>  <SMILES>  (52) 
CC(C)(C)OC(=O)n1c(C([NH-])=O)cc2ccc(CF)cc21

>  <Energy>  (52) 
70.457009196148

>  <Genealogy>  (52) 
CC(C)(C)OC(=O)n1c(C([NH-])=O)cc2ccc(CF)cc21 (protonated)
CC(C)(C)OC(=O)n1c(C([NH-])=O)cc2ccc(CF)cc21 (3D coordinates assigned)
CC(C)(C)OC(=O)n1c(C([NH-])=O)cc2ccc(CF)cc21 (optimized conformer: 70.457009196148 kcal/mol)

>  <smiles>  (52) 
CC(C)(C)OC(=O)n1c(C(N)=O)cc2ccc(CF)cc21

>  <score_type>  (52) 
oracle

>  <origin>  (52) 
adg

>  <m_score__min__energy>  (52) 
-6.2800000000000002

>  <m_primary>  (52) 
energy

$$$$
52:0
     RDKit          3D

 38 40  0  0  0  0  0  0  0  0999 V2000
  143.1230  161.3290  133.7180 N   0  0  0  0  0  0  0  0  0  0  0  0
  144.5310  161.4920  133.8610 C   0  0  0  0  0  0  0  0  0  0  0  0
  144.9990  162.6410  134.0840 O   0  0  0  0  0  0  0  0  0  0  0  0
  145.4510  160.3470  133.6960 C   0  0  0  0  0  0  0  0  0  0  0  0
  146.8230  160.4900  133.4970 C   0  0  0  0  0  0  0  0  0  0  0  0
  147.2980  159.2140  133.2980 C   0  0  0  0  0  0  0  0  0  0  0  0
  148.5940  158.7690  133.0620 C   0  0  0  0  0  0  0  0  0  0  0  0
  148.8000  157.3870  132.9220 C   0  0  0  0  0  0  0  0  0  0  0  0
  147.7170  156.4750  133.0270 C   0  0  0  0  0  0  0  0  0  0  0  0
  147.9480  155.0140  132.8870 C   0  0  0  0  0  0  0  0  0  0  0  0
  149.2320  154.5160  132.6030 C   0  0  0  0  0  0  0  0  0  0  0  0
  149.4500  153.1420  132.4740 C   0  0  0  0  0  0  0  0  0  0  0  0
  148.3880  152.2330  132.6270 C   0  0  0  0  0  0  0  0  0  0  0  0
  148.6160  150.8190  132.4930 N   0  0  0  0  0  0  0  0  0  0  0  0
  149.7650  150.3450  132.6080 O   0  0  0  0  0  0  0  0  0  0  0  0
  147.5680  149.9620  132.2370 O   0  0  0  0  0  0  0  0  0  0  0  0
  147.1040  152.7300  132.9110 C   0  0  0  0  0  0  0  0  0  0  0  0
  146.8880  154.1050  133.0400 C   0  0  0  0  0  0  0  0  0  0  0  0
  146.4140  156.9700  133.2680 C   0  0  0  0  0  0  0  0  0  0  0  0
  146.2350  158.3530  133.3830 C   0  0  0  0  0  0  0  0  0  0  0  0
  145.0940  159.0330  133.6320 N   0  0  0  0  0  0  0  0  0  0  0  0
  143.7970  158.4580  133.8570 C   0  0  0  0  0  0  0  0  0  0  0  0
  143.2320  158.5950  134.9760 O   0  0  0  0  0  0  0  0  0  0  0  0
  143.1780  157.7230  132.8400 O   0  0  0  0  0  0  0  0  0  0  0  0
  141.7750  157.7620  132.6070 C   0  0  0  0  0  0  0  0  0  0  0  0
  141.2640  158.9980  133.0220 O   0  0  0  0  0  0  0  0  0  0  0  0
  142.6640  160.4150  133.9310 H   0  0  0  0  0  0  0  0  0  0  0  0
  147.4031  161.4246  133.4987 H   0  0  0  0  0  0  0  0  0  0  0  0
  149.4320  159.4776  132.9873 H   0  0  0  0  0  0  0  0  0  0  0  0
  149.8136  157.0061  132.7285 H   0  0  0  0  0  0  0  0  0  0  0  0
  150.0727  155.2148  132.4812 H   0  0  0  0  0  0  0  0  0  0  0  0
  150.4603  152.7683  132.2510 H   0  0  0  0  0  0  0  0  0  0  0  0
  146.2629  152.0316  133.0326 H   0  0  0  0  0  0  0  0  0  0  0  0
  145.8780  154.4789  133.2635 H   0  0  0  0  0  0  0  0  0  0  0  0
  145.5603  156.2829  133.3629 H   0  0  0  0  0  0  0  0  0  0  0  0
  141.5783  157.6265  131.5332 H   0  0  0  0  0  0  0  0  0  0  0  0
  141.2878  156.9559  133.1752 H   0  0  0  0  0  0  0  0  0  0  0  0
  142.0340  159.5090  133.3820 H   0  0  0  0  0  0  0  0  0  0  0  0
  1  2  1  0
  2  3  2  0
  2  4  1  0
  4  5  2  0
  5  6  1  0
  6  7  2  0
  7  8  1  0
  8  9  2  0
  9 10  1  0
 10 11  2  0
 11 12  1  0
 12 13  2  0
 13 14  1  0
 14 15  2  0
 14 16  1  0
 13 17  1  0
 17 18  2  0
  9 19  1  0
 19 20  2  0
 20 21  1  0
 21 22  1  0
 22 23  2  0
 22 24  1  0
 24 25  1  0
 25 26  1  0
 21  4  1  0
 20  6  1  0
 18 10  1  0
  1 27  1  0
  5 28  1  0
  7 29  1  0
  8 30  1  0
 11 31  1  0
 12 32  1  0
 17 33  1  0
 18 34  1  0
 19 35  1  0
 25 36  1  0
 25 37  1  0
 26 38  1  0
M  CHG  3   1  -1  14   1  16  -1
M  END
>  <UniqueID>  (53) 
52

>  <SMILES>  (53) 
[NH-]C(=O)c1cc2ccc(-c3ccc([N+](=O)[O-])cc3)cc2n1C(=O)OCO

>  <Energy>  (53) 
84.12460848523847

>  <Genealogy>  (53) 
[NH-]C(=O)c1cc2ccc(-c3ccc([N+](=O)[O-])cc3)cc2n1C(=O)OCO (protonated)
[NH-]C(=O)c1cc2ccc(-c3ccc([N+](=O)[O-])cc3)cc2n1C(=O)OCO (3D coordinates assigned)
[NH-]C(=O)c1cc2ccc(-c3ccc([N+](=O)[O-])cc3)cc2n1C(=O)OCO (optimized conformer: 84.12460848523847 kcal/mol)

>  <smiles>  (53) 
NC(=O)c1cc2ccc(-c3ccc([N+](=O)[O-])cc3)cc2n1C(=O)OCO

>  <score_type>  (53) 
oracle

>  <origin>  (53) 
adg

>  <m_score__min__energy>  (53) 
-7.5099999999999998

>  <m_primary>  (53) 
energy

$$$$
53:0
     RDKit          3D

 27 28  0  0  0  0  0  0  0  0999 V2000
  144.4820  161.0820  133.9680 C   0  0  0  0  0  0  0  0  0  0  0  0
  145.3000  160.2310  133.7240 C   0  0  0  0  0  0  0  0  0  0  0  0
  146.2770  159.2150  133.4320 C   0  0  0  0  0  0  0  0  0  0  0  0
  147.5110  159.5730  132.8390 C   0  0  0  0  0  0  0  0  0  0  0  0
  148.4650  158.5880  132.5330 C   0  0  0  0  0  0  0  0  0  0  0  0
  148.1610  157.2650  132.8450 C   0  0  0  0  0  0  0  0  0  0  0  0
  148.8760  156.1130  132.6120 C   0  0  0  0  0  0  0  0  0  0  0  0
  148.0780  155.0790  133.0960 C   0  0  0  0  0  0  0  0  0  0  0  0
  148.4670  153.6550  133.0490 C   0  0  0  0  0  0  0  0  0  0  0  0
  147.5730  152.6240  133.4750 N   0  0  0  0  0  0  0  0  0  0  0  0
  149.6260  153.3430  132.6670 O   0  0  0  0  0  0  0  0  0  0  0  0
  146.9150  155.5710  133.6080 N   0  0  0  0  0  0  0  0  0  0  0  0
  145.7820  154.8180  134.0700 C   0  0  0  0  0  0  0  0  0  0  0  0
  144.8740  154.5000  133.2550 O   0  0  0  0  0  0  0  0  0  0  0  0
  145.6820  154.3840  135.4720 C   0  0  0  0  0  0  0  0  0  0  0  0
  144.5390  154.7370  136.2480 N   0  0  0  0  0  0  0  0  0  0  0  0
  146.5940  153.6850  135.9860 O   0  0  0  0  0  0  0  0  0  0  0  0
  146.9770  156.9100  133.4410 C   0  0  0  0  0  0  0  0  0  0  0  0
  145.9970  157.8660  133.7310 C   0  0  0  0  0  0  0  0  0  0  0  0
  143.7355  161.8586  134.1907 H   0  0  0  0  0  0  0  0  0  0  0  0
  147.7246  160.6288  132.6163 H   0  0  0  0  0  0  0  0  0  0  0  0
  149.4227  158.8535  132.0615 H   0  0  0  0  0  0  0  0  0  0  0  0
  149.8673  156.0268  132.1431 H   0  0  0  0  0  0  0  0  0  0  0  0
  146.6870  152.8490  133.9770 H   0  0  0  0  0  0  0  0  0  0  0  0
  147.8480  151.6220  133.3780 H   0  0  0  0  0  0  0  0  0  0  0  0
  144.5150  154.5590  137.2760 H   0  0  0  0  0  0  0  0  0  0  0  0
  145.0360  157.5734  134.1793 H   0  0  0  0  0  0  0  0  0  0  0  0
  1  2  3  0
  2  3  1  0
  3  4  2  0
  4  5  1  0
  5  6  2  0
  6  7  1  0
  7  8  2  0
  8  9  1  0
  9 10  1  0
  9 11  2  0
  8 12  1  0
 12 13  1  0
 13 14  2  0
 13 15  1  0
 15 16  1  0
 15 17  2  0
 12 18  1  0
 18 19  2  0
 19  3  1  0
 18  6  1  0
  1 20  1  0
  4 21  1  0
  5 22  1  0
  7 23  1  0
 10 24  1  0
 10 25  1  0
 16 26  1  0
 19 27  1  0
M  CHG  1  16  -1
M  END
>  <UniqueID>  (54) 
53

>  <SMILES>  (54) 
C#Cc1ccc2cc(C(N)=O)n(C(=O)C([NH-])=O)c2c1

>  <Energy>  (54) 
65.26761331309916

>  <Genealogy>  (54) 
C#Cc1ccc2cc(C(N)=O)n(C(=O)C([NH-])=O)c2c1 (protonated)
C#Cc1ccc2cc(C(N)=O)n(C(=O)C([NH-])=O)c2c1 (3D coordinates assigned)
C#Cc1ccc2cc(C(N)=O)n(C(=O)C([NH-])=O)c2c1 (optimized conformer: 65.26761331309916 kcal/mol)

>  <smiles>  (54) 
C#Cc1ccc2cc(C(N)=O)n(C(=O)C(N)=O)c2c1

>  <score_type>  (54) 
oracle

>  <origin>  (54) 
adg

>  <m_score__min__energy>  (54) 
-6.5700000000000003

>  <m_primary>  (54) 
energy

$$$$
54:0
     RDKit          3D

 43 44  0  0  0  0  0  0  0  0999 V2000
  142.9420  161.1750  133.7040 N   0  0  0  0  0  0  0  0  0  0  0  0
  144.3570  161.3470  133.7420 C   0  0  0  0  0  0  0  0  0  0  0  0
  144.8340  162.4990  133.9130 O   0  0  0  0  0  0  0  0  0  0  0  0
  145.2430  160.1690  133.6280 C   0  0  0  0  0  0  0  0  0  0  0  0
  146.6270  160.2580  133.4970 C   0  0  0  0  0  0  0  0  0  0  0  0
  147.0620  158.9630  133.3360 C   0  0  0  0  0  0  0  0  0  0  0  0
  148.3520  158.4670  133.1700 C   0  0  0  0  0  0  0  0  0  0  0  0
  148.5120  157.0760  133.0540 C   0  0  0  0  0  0  0  0  0  0  0  0
  147.3910  156.2120  133.1190 C   0  0  0  0  0  0  0  0  0  0  0  0
  147.5710  154.7220  132.9800 C   0  0  0  0  0  0  0  0  0  0  0  0
  149.0090  154.3500  132.5930 C   0  0  0  0  0  0  0  0  0  0  0  0
  149.1360  152.8930  132.1440 C   0  0  0  0  0  0  0  0  0  0  0  0
  150.3520  152.3690  132.6000 O   0  0  0  0  0  0  0  0  0  0  0  0
  146.0960  156.7530  133.2830 C   0  0  0  0  0  0  0  0  0  0  0  0
  145.9650  158.1440  133.3770 C   0  0  0  0  0  0  0  0  0  0  0  0
  144.8390  158.8690  133.5570 N   0  0  0  0  0  0  0  0  0  0  0  0
  143.5100  158.3520  133.7240 C   0  0  0  0  0  0  0  0  0  0  0  0
  142.9150  157.8210  132.7450 O   0  0  0  0  0  0  0  0  0  0  0  0
  142.8890  158.4220  134.9760 O   0  0  0  0  0  0  0  0  0  0  0  0
  141.6390  157.8010  135.2700 C   0  0  0  0  0  0  0  0  0  0  0  0
  140.4730  158.7690  135.0160 C   0  0  1  0  0  0  0  0  0  0  0  0
  140.8880  160.0890  135.2550 O   0  0  0  0  0  0  0  0  0  0  0  0
  139.9840  158.6510  133.5700 C   0  0  0  0  0  0  0  0  0  0  0  0
  140.8000  159.4200  132.7300 O   0  0  0  0  0  0  0  0  0  0  0  0
  142.5140  160.2250  133.7920 H   0  0  0  0  0  0  0  0  0  0  0  0
  147.2415  161.1701  133.5179 H   0  0  0  0  0  0  0  0  0  0  0  0
  149.2190  159.1429  133.1309 H   0  0  0  0  0  0  0  0  0  0  0  0
  149.5176  156.6536  132.9113 H   0  0  0  0  0  0  0  0  0  0  0  0
  147.3266  154.2437  133.9399 H   0  0  0  0  0  0  0  0  0  0  0  0
  146.9025  154.3723  132.1795 H   0  0  0  0  0  0  0  0  0  0  0  0
  149.3327  155.0027  131.7689 H   0  0  0  0  0  0  0  0  0  0  0  0
  149.6399  154.4815  133.4844 H   0  0  0  0  0  0  0  0  0  0  0  0
  148.3043  152.3067  132.5616 H   0  0  0  0  0  0  0  0  0  0  0  0
  149.1039  152.8434  131.0456 H   0  0  0  0  0  0  0  0  0  0  0  0
  151.0250  152.5940  131.9080 H   0  0  0  0  0  0  0  0  0  0  0  0
  145.2135  156.0984  133.3355 H   0  0  0  0  0  0  0  0  0  0  0  0
  141.5176  156.9149  134.6296 H   0  0  0  0  0  0  0  0  0  0  0  0
  141.6311  157.5119  136.3313 H   0  0  0  0  0  0  0  0  0  0  0  0
  139.6502  158.5081  135.6978 H   0  0  0  0  0  0  0  0  0  0  0  0
  141.6680  160.2590  134.6640 H   0  0  0  0  0  0  0  0  0  0  0  0
  140.0251  157.5978  133.2552 H   0  0  0  0  0  0  0  0  0  0  0  0
  138.9485  159.0165  133.5053 H   0  0  0  0  0  0  0  0  0  0  0  0
  141.6620  159.5290  133.2090 H   0  0  0  0  0  0  0  0  0  0  0  0
  1  2  1  0
  2  3  2  0
  2  4  1  0
  4  5  2  0
  5  6  1  0
  6  7  2  0
  7  8  1  0
  8  9  2  0
  9 10  1  0
 10 11  1  0
 11 12  1  0
 12 13  1  0
  9 14  1  0
 14 15  2  0
 15 16  1  0
 16 17  1  0
 17 18  2  0
 17 19  1  0
 19 20  1  0
 20 21  1  0
 21 22  1  0
 21 23  1  0
 23 24  1  0
 16  4  1  0
 15  6  1  0
  1 25  1  0
  5 26  1  0
  7 27  1  0
  8 28  1  0
 10 29  1  0
 10 30  1  0
 11 31  1  0
 11 32  1  0
 12 33  1  0
 12 34  1  0
 13 35  1  0
 14 36  1  0
 20 37  1  0
 20 38  1  0
 21 39  1  1
 22 40  1  0
 23 41  1  0
 23 42  1  0
 24 43  1  0
M  CHG  1   1  -1
M  END
>  <UniqueID>  (55) 
54

>  <SMILES>  (55) 
[NH-]C(=O)c1cc2ccc(CCCO)cc2n1C(=O)OC[C@@H](O)CO

>  <Energy>  (55) 
70.95342347289355

>  <Genealogy>  (55) 
[NH-]C(=O)c1cc2ccc(CCCO)cc2n1C(=O)OCC(O)CO (protonated)
[NH-]C(=O)c1cc2ccc(CCCO)cc2n1C(=O)OC[C@@H](O)CO (chirality)
[NH-]C(=O)c1cc2ccc(CCCO)cc2n1C(=O)OC[C@@H](O)CO (3D coordinates assigned)
[NH-]C(=O)c1cc2ccc(CCCO)cc2n1C(=O)OC[C@@H](O)CO (optimized conformer: 70.95342347289355 kcal/mol)

>  <smiles>  (55) 
NC(=O)c1cc2ccc(CCCO)cc2n1C(=O)OCC(O)CO

>  <score_type>  (55) 
oracle

>  <origin>  (55) 
adg

>  <m_score__min__energy>  (55) 
-5.8899999999999997

>  <m_primary>  (55) 
energy

$$$$
55:0
     RDKit          3D

 31 32  0  0  0  0  0  0  0  0999 V2000
  148.4800  157.2680  133.7580 N   0  0  0  0  0  0  0  0  0  0  0  0
  147.8730  158.5590  133.6760 C   0  0  0  0  0  0  0  0  0  0  0  0
  148.6090  159.5810  133.6320 O   0  0  0  0  0  0  0  0  0  0  0  0
  146.4010  158.7040  133.6240 C   0  0  0  0  0  0  0  0  0  0  0  0
  145.7250  159.9240  133.6760 C   0  0  0  0  0  0  0  0  0  0  0  0
  144.3860  159.5990  133.6890 C   0  0  0  0  0  0  0  0  0  0  0  0
  143.2630  160.4190  133.7400 C   0  0  0  0  0  0  0  0  0  0  0  0
  141.9990  159.8060  133.7330 C   0  0  0  0  0  0  0  0  0  0  0  0
  141.8770  158.3930  133.6520 C   0  0  0  0  0  0  0  0  0  0  0  0
  140.5200  157.7370  133.6810 C   0  0  0  0  0  0  0  0  0  0  0  0
  139.8970  157.8660  132.4520 F   0  0  0  0  0  0  0  0  0  0  0  0
  140.6700  156.3950  133.9720 F   0  0  0  0  0  0  0  0  0  0  0  0
  139.7090  158.3190  134.6400 F   0  0  0  0  0  0  0  0  0  0  0  0
  143.0430  157.5950  133.6290 C   0  0  0  0  0  0  0  0  0  0  0  0
  144.2870  158.2340  133.6480 C   0  0  0  0  0  0  0  0  0  0  0  0
  145.5110  157.6730  133.6060 N   0  0  0  0  0  0  0  0  0  0  0  0
  145.7910  156.2690  133.4950 C   0  0  0  0  0  0  0  0  0  0  0  0
  146.3070  155.8190  132.4370 O   0  0  0  0  0  0  0  0  0  0  0  0
  145.5870  155.3570  134.6650 C   0  0  0  0  0  0  0  0  0  0  0  0
  147.1840  154.6850  135.2100 P   0  0  0  0  0  0  0  0  0  0  0  0
  147.9560  154.1660  134.0190 O   0  0  0  0  0  0  0  0  0  0  0  0
  148.0800  155.8970  135.9770 O   0  0  0  0  0  0  0  0  0  0  0  0
  146.9150  153.4180  136.2960 O   0  0  0  0  0  0  0  0  0  0  0  0
  149.5220  157.1800  133.7620 H   0  0  0  0  0  0  0  0  0  0  0  0
  147.9080  156.4010  133.8560 H   0  0  0  0  0  0  0  0  0  0  0  0
  146.1672  160.9309  133.7012 H   0  0  0  0  0  0  0  0  0  0  0  0
  143.3619  161.5136  133.7845 H   0  0  0  0  0  0  0  0  0  0  0  0
  141.0932  160.4274  133.7909 H   0  0  0  0  0  0  0  0  0  0  0  0
  142.9739  156.4976  133.5969 H   0  0  0  0  0  0  0  0  0  0  0  0
  145.1272  155.9200  135.4906 H   0  0  0  0  0  0  0  0  0  0  0  0
  144.9276  154.5283  134.3678 H   0  0  0  0  0  0  0  0  0  0  0  0
  1  2  1  0
  2  3  2  0
  2  4  1  0
  4  5  2  0
  5  6  1  0
  6  7  2  0
  7  8  1  0
  8  9  2  0
  9 10  1  0
 10 11  1  0
 10 12  1  0
 10 13  1  0
  9 14  1  0
 14 15  2  0
 15 16  1  0
 16 17  1  0
 17 18  2  0
 17 19  1  0
 19 20  1  0
 20 21  2  0
 20 22  1  0
 20 23  1  0
 16  4  1  0
 15  6  1  0
  1 24  1  0
  1 25  1  0
  5 26  1  0
  7 27  1  0
  8 28  1  0
 14 29  1  0
 19 30  1  0
 19 31  1  0
M  CHG  2  22  -1  23  -1
M  END
>  <UniqueID>  (56) 
55

>  <SMILES>  (56) 
NC(=O)c1cc2ccc(C(F)(F)F)cc2n1C(=O)CP(=O)([O-])[O-]

>  <Energy>  (56) 
65.87569212309559

>  <Genealogy>  (56) 
NC(=O)c1cc2ccc(C(F)(F)F)cc2n1C(=O)CP(=O)([O-])[O-] (protonated)
NC(=O)c1cc2ccc(C(F)(F)F)cc2n1C(=O)CP(=O)([O-])[O-] (3D coordinates assigned)
NC(=O)c1cc2ccc(C(F)(F)F)cc2n1C(=O)CP(=O)([O-])[O-] (optimized conformer: 65.87569212309559 kcal/mol)

>  <smiles>  (56) 
NC(=O)c1cc2ccc(C(F)(F)F)cc2n1C(=O)CP(=O)(O)O

>  <score_type>  (56) 
oracle

>  <origin>  (56) 
adg

>  <m_score__min__energy>  (56) 
-6.0499999999999998

>  <m_primary>  (56) 
energy

$$$$
56:0
     RDKit          3D

 33 34  0  0  0  0  0  0  0  0999 V2000
  141.8720  157.4530  134.1580 C   0  0  0  0  0  0  0  0  0  0  0  0
  142.0760  158.9260  134.5050 C   0  0  0  0  0  0  0  0  0  0  0  0
  141.8580  159.1070  135.8610 F   0  0  0  0  0  0  0  0  0  0  0  0
  141.1420  159.6860  133.8200 F   0  0  0  0  0  0  0  0  0  0  0  0
  143.4780  159.3600  134.1370 C   0  0  0  0  0  0  0  0  0  0  0  0
  143.8130  160.7390  134.1010 C   0  0  0  0  0  0  0  0  0  0  0  0
  145.1030  161.1550  133.7300 C   0  0  0  0  0  0  0  0  0  0  0  0
  146.0270  160.1780  133.3780 C   0  0  0  0  0  0  0  0  0  0  0  0
  147.3440  160.3030  132.9950 C   0  0  0  0  0  0  0  0  0  0  0  0
  147.7850  159.0020  132.7610 C   0  0  0  0  0  0  0  0  0  0  0  0
  149.1320  158.6790  132.2460 C   0  0  0  0  0  0  0  0  0  0  0  0
  149.5810  157.3260  132.2350 N   0  0  0  0  0  0  0  0  0  0  0  0
  149.9070  159.5880  131.8500 O   0  0  0  0  0  0  0  0  0  0  0  0
  146.7820  158.1080  132.9940 N   0  0  0  0  0  0  0  0  0  0  0  0
  146.8540  156.6750  132.9370 C   0  0  0  0  0  0  0  0  0  0  0  0
  147.2250  156.1060  131.8740 O   0  0  0  0  0  0  0  0  0  0  0  0
  146.4910  155.9150  134.0550 O   0  0  0  0  0  0  0  0  0  0  0  0
  147.3830  155.0220  134.7170 C   0  0  0  0  0  0  0  0  0  0  0  0
  146.6450  154.2010  135.7250 C   0  0  0  0  0  0  0  0  0  0  0  0
  145.3900  154.2680  135.7980 O   0  0  0  0  0  0  0  0  0  0  0  0
  147.3380  153.3400  136.5660 O   0  0  0  0  0  0  0  0  0  0  0  0
  145.7130  158.8450  133.3690 C   0  0  0  0  0  0  0  0  0  0  0  0
  144.4430  158.3990  133.7530 C   0  0  0  0  0  0  0  0  0  0  0  0
  141.7907  156.8659  135.0846 H   0  0  0  0  0  0  0  0  0  0  0  0
  140.9495  157.3392  133.5697 H   0  0  0  0  0  0  0  0  0  0  0  0
  142.7288  157.0928  133.5697 H   0  0  0  0  0  0  0  0  0  0  0  0
  143.0545  161.4902  134.3664 H   0  0  0  0  0  0  0  0  0  0  0  0
  145.3733  162.2212  133.7185 H   0  0  0  0  0  0  0  0  0  0  0  0
  147.9243  161.2321  132.8951 H   0  0  0  0  0  0  0  0  0  0  0  0
  149.2700  156.6630  131.4910 H   0  0  0  0  0  0  0  0  0  0  0  0
  147.8454  154.3549  133.9746 H   0  0  0  0  0  0  0  0  0  0  0  0
  148.1579  155.6084  135.2325 H   0  0  0  0  0  0  0  0  0  0  0  0
  144.2007  157.3260  133.7562 H   0  0  0  0  0  0  0  0  0  0  0  0
  1  2  1  0
  2  3  1  0
  2  4  1  0
  2  5  1  0
  5  6  2  0
  6  7  1  0
  7  8  2  0
  8  9  1  0
  9 10  2  0
 10 11  1  0
 11 12  1  0
 11 13  2  0
 10 14  1  0
 14 15  1  0
 15 16  2  0
 15 17  1  0
 17 18  1  0
 18 19  1  0
 19 20  2  0
 19 21  1  0
 14 22  1  0
 22 23  2  0
 23  5  1  0
 22  8  1  0
  1 24  1  0
  1 25  1  0
  1 26  1  0
  6 27  1  0
  7 28  1  0
  9 29  1  0
 12 30  1  0
 18 31  1  0
 18 32  1  0
 23 33  1  0
M  CHG  2  12  -1  21  -1
M  END
>  <UniqueID>  (57) 
56

>  <SMILES>  (57) 
CC(F)(F)c1ccc2cc(C([NH-])=O)n(C(=O)OCC(=O)[O-])c2c1

>  <Energy>  (57) 
68.01924533335766

>  <Genealogy>  (57) 
CC(F)(F)c1ccc2cc(C([NH-])=O)n(C(=O)OCC(=O)[O-])c2c1 (protonated)
CC(F)(F)c1ccc2cc(C([NH-])=O)n(C(=O)OCC(=O)[O-])c2c1 (3D coordinates assigned)
CC(F)(F)c1ccc2cc(C([NH-])=O)n(C(=O)OCC(=O)[O-])c2c1 (optimized conformer: 68.01924533335766 kcal/mol)

>  <smiles>  (57) 
CC(F)(F)c1ccc2cc(C(N)=O)n(C(=O)OCC(=O)O)c2c1

>  <score_type>  (57) 
oracle

>  <origin>  (57) 
adg

>  <m_score__min__energy>  (57) 
-5.9699999999999998

>  <m_primary>  (57) 
energy

$$$$
57:0
     RDKit          3D

 39 40  0  0  0  0  0  0  0  0999 V2000
  144.2160  159.1930  133.3650 C   0  0  0  0  0  0  0  0  0  0  0  0
  143.4100  158.1510  132.8600 O   0  0  0  0  0  0  0  0  0  0  0  0
  142.1730  158.1050  133.5490 C   0  0  0  0  0  0  0  0  0  0  0  0
  141.0430  157.6750  132.6060 C   0  0  0  0  0  0  0  0  0  0  0  0
  140.2080  156.5410  133.2000 C   0  0  0  0  0  0  0  0  0  0  0  0
  141.0260  155.3860  133.3590 O   0  0  0  0  0  0  0  0  0  0  0  0
  140.5840  154.0970  133.0470 C   0  0  0  0  0  0  0  0  0  0  0  0
  139.3650  153.8880  132.7950 O   0  0  0  0  0  0  0  0  0  0  0  0
  141.5240  153.0090  133.0100 N   0  0  0  0  0  0  0  0  0  0  0  0
  142.8710  153.0750  133.2150 C   0  0  0  0  0  0  0  0  0  0  0  0
  143.6200  154.2600  133.6830 C   0  0  0  0  0  0  0  0  0  0  0  0
  143.5370  155.5090  132.9960 N   0  0  0  0  0  0  0  0  0  0  0  0
  144.3010  154.1820  134.7410 O   0  0  0  0  0  0  0  0  0  0  0  0
  143.4700  151.8460  132.9620 C   0  0  0  0  0  0  0  0  0  0  0  0
  142.4390  151.0060  132.6070 C   0  0  0  0  0  0  0  0  0  0  0  0
  142.4710  149.6680  132.2250 C   0  0  0  0  0  0  0  0  0  0  0  0
  141.2600  149.0590  131.8610 C   0  0  0  0  0  0  0  0  0  0  0  0
  140.0480  149.7910  131.8870 C   0  0  0  0  0  0  0  0  0  0  0  0
  138.7680  149.1400  131.4510 C   0  0  0  0  0  0  0  0  0  0  0  0
  138.7800  148.9130  129.6850 Cl  0  0  0  0  0  0  0  0  0  0  0  0
  140.0560  151.1520  132.2640 C   0  0  0  0  0  0  0  0  0  0  0  0
  141.2740  151.7300  132.6410 C   0  0  0  0  0  0  0  0  0  0  0  0
  144.1983  159.1702  134.4646 H   0  0  0  0  0  0  0  0  0  0  0  0
  145.2495  159.0611  133.0121 H   0  0  0  0  0  0  0  0  0  0  0  0
  143.8286  160.1601  133.0121 H   0  0  0  0  0  0  0  0  0  0  0  0
  142.2471  157.3838  134.3762 H   0  0  0  0  0  0  0  0  0  0  0  0
  141.9469  159.1091  133.9371 H   0  0  0  0  0  0  0  0  0  0  0  0
  140.3881  158.5386  132.4182 H   0  0  0  0  0  0  0  0  0  0  0  0
  141.4968  157.3121  131.6720 H   0  0  0  0  0  0  0  0  0  0  0  0
  139.8137  156.8494  134.1795 H   0  0  0  0  0  0  0  0  0  0  0  0
  139.3704  156.3087  132.5259 H   0  0  0  0  0  0  0  0  0  0  0  0
  142.8590  155.6500  132.2150 H   0  0  0  0  0  0  0  0  0  0  0  0
  144.1030  156.3240  133.3200 H   0  0  0  0  0  0  0  0  0  0  0  0
  144.5395  151.5979  133.0309 H   0  0  0  0  0  0  0  0  0  0  0  0
  143.4160  149.1053  132.2089 H   0  0  0  0  0  0  0  0  0  0  0  0
  141.2522  148.0032  131.5526 H   0  0  0  0  0  0  0  0  0  0  0  0
  138.6688  148.1619  131.9445 H   0  0  0  0  0  0  0  0  0  0  0  0
  137.9197  149.7825  131.7295 H   0  0  0  0  0  0  0  0  0  0  0  0
  139.1283  151.7431  132.2615 H   0  0  0  0  0  0  0  0  0  0  0  0
  1  2  1  0
  2  3  1  0
  3  4  1  0
  4  5  1  0
  5  6  1  0
  6  7  1  0
  7  8  2  0
  7  9  1  0
  9 10  1  0
 10 11  1  0
 11 12  1  0
 11 13  2  0
 10 14  2  0
 14 15  1  0
 15 16  2  0
 16 17  1  0
 17 18  2  0
 18 19  1  0
 19 20  1  0
 18 21  1  0
 21 22  2  0
 22  9  1  0
 22 15  1  0
  1 23  1  0
  1 24  1  0
  1 25  1  0
  3 26  1  0
  3 27  1  0
  4 28  1  0
  4 29  1  0
  5 30  1  0
  5 31  1  0
 12 32  1  0
 12 33  1  0
 14 34  1  0
 16 35  1  0
 17 36  1  0
 19 37  1  0
 19 38  1  0
 21 39  1  0
M  END
>  <UniqueID>  (58) 
57

>  <SMILES>  (58) 
COCCCOC(=O)n1c(C(N)=O)cc2ccc(CCl)cc21

>  <Energy>  (58) 
73.07555791505521

>  <Genealogy>  (58) 
COCCCOC(=O)n1c(C(N)=O)cc2ccc(CCl)cc21 (3D coordinates assigned)
COCCCOC(=O)n1c(C(N)=O)cc2ccc(CCl)cc21 (optimized conformer: 73.07555791505521 kcal/mol)

>  <smiles>  (58) 
COCCCOC(=O)n1c(C(N)=O)cc2ccc(CCl)cc21

>  <score_type>  (58) 
oracle

>  <origin>  (58) 
adg

>  <m_score__min__energy>  (58) 
-7.0499999999999998

>  <m_primary>  (58) 
energy

$$$$
58:0
     RDKit          3D

 37 38  0  0  0  0  0  0  0  0999 V2000
  138.3660  158.4920  131.0820 C   0  0  0  0  0  0  0  0  0  0  0  0
  139.0830  159.0200  132.0800 C   0  0  0  0  0  0  0  0  0  0  0  0
  139.3650  160.4980  132.0980 C   0  0  0  0  0  0  0  0  0  0  0  0
  139.5540  158.1830  133.2050 C   0  0  0  0  0  0  0  0  0  0  0  0
  138.9860  158.2450  134.3310 O   0  0  0  0  0  0  0  0  0  0  0  0
  140.6410  157.3210  133.0140 O   0  0  0  0  0  0  0  0  0  0  0  0
  141.2500  156.5950  134.0770 C   0  0  0  0  0  0  0  0  0  0  0  0
  142.5440  157.1220  134.3540 O   0  0  0  0  0  0  0  0  0  0  0  0
  143.4310  157.5220  133.3480 C   0  0  0  0  0  0  0  0  0  0  0  0
  143.5750  156.8210  132.3100 O   0  0  0  0  0  0  0  0  0  0  0  0
  144.1990  158.7250  133.5110 N   0  0  0  0  0  0  0  0  0  0  0  0
  143.7410  159.9850  133.7640 C   0  0  0  0  0  0  0  0  0  0  0  0
  142.3480  160.3540  134.0880 C   0  0  0  0  0  0  0  0  0  0  0  0
  141.5740  159.5770  134.9990 N   0  0  0  0  0  0  0  0  0  0  0  0
  141.8480  161.3980  133.5890 O   0  0  0  0  0  0  0  0  0  0  0  0
  144.7950  160.8970  133.7550 C   0  0  0  0  0  0  0  0  0  0  0  0
  145.9220  160.1520  133.4940 C   0  0  0  0  0  0  0  0  0  0  0  0
  147.2480  160.5510  133.3590 C   0  0  0  0  0  0  0  0  0  0  0  0
  148.2040  159.5660  133.0530 C   0  0  0  0  0  0  0  0  0  0  0  0
  147.8160  158.2150  132.8850 C   0  0  0  0  0  0  0  0  0  0  0  0
  148.7960  157.2250  132.5600 N   0  0  0  0  0  0  0  0  0  0  0  0
  146.4620  157.8470  133.0300 C   0  0  0  0  0  0  0  0  0  0  0  0
  145.5350  158.8440  133.3520 C   0  0  0  0  0  0  0  0  0  0  0  0
  138.1580  157.4120  131.0657 H   0  0  0  0  0  0  0  0  0  0  0  0
  137.9843  159.1378  130.2775 H   0  0  0  0  0  0  0  0  0  0  0  0
  139.4314  160.8460  133.1394 H   0  0  0  0  0  0  0  0  0  0  0  0
  140.3171  160.6959  131.5839 H   0  0  0  0  0  0  0  0  0  0  0  0
  138.5527  161.0326  131.5839 H   0  0  0  0  0  0  0  0  0  0  0  0
  140.6241  156.6761  134.9779 H   0  0  0  0  0  0  0  0  0  0  0  0
  141.3476  155.5399  133.7816 H   0  0  0  0  0  0  0  0  0  0  0  0
  141.1000  158.7000  134.6880 H   0  0  0  0  0  0  0  0  0  0  0  0
  144.7379  161.9828  133.9214 H   0  0  0  0  0  0  0  0  0  0  0  0
  147.5395  161.6039  133.4876 H   0  0  0  0  0  0  0  0  0  0  0  0
  149.2617  159.8476  132.9433 H   0  0  0  0  0  0  0  0  0  0  0  0
  149.6200  157.0650  133.1820 H   0  0  0  0  0  0  0  0  0  0  0  0
  148.7040  156.6450  131.6960 H   0  0  0  0  0  0  0  0  0  0  0  0
  146.1433  156.8031  132.8934 H   0  0  0  0  0  0  0  0  0  0  0  0
  1  2  2  0
  2  3  1  0
  2  4  1  0
  4  5  2  0
  4  6  1  0
  6  7  1  0
  7  8  1  0
  8  9  1  0
  9 10  2  0
  9 11  1  0
 11 12  1  0
 12 13  1  0
 13 14  1  0
 13 15  2  0
 12 16  2  0
 16 17  1  0
 17 18  2  0
 18 19  1  0
 19 20  2  0
 20 21  1  0
 20 22  1  0
 22 23  2  0
 23 11  1  0
 23 17  1  0
  1 24  1  0
  1 25  1  0
  3 26  1  0
  3 27  1  0
  3 28  1  0
  7 29  1  0
  7 30  1  0
 14 31  1  0
 16 32  1  0
 18 33  1  0
 19 34  1  0
 21 35  1  0
 21 36  1  0
 22 37  1  0
M  CHG  1  14  -1
M  END
>  <UniqueID>  (59) 
58

>  <SMILES>  (59) 
C=C(C)C(=O)OCOC(=O)n1c(C([NH-])=O)cc2ccc(N)cc21

>  <Energy>  (59) 
69.99259328460927

>  <Genealogy>  (59) 
C=C(C)C(=O)OCOC(=O)n1c(C([NH-])=O)cc2ccc(N)cc21 (protonated)
C=C(C)C(=O)OCOC(=O)n1c(C([NH-])=O)cc2ccc(N)cc21 (3D coordinates assigned)
C=C(C)C(=O)OCOC(=O)n1c(C([NH-])=O)cc2ccc(N)cc21 (optimized conformer: 69.99259328460927 kcal/mol)

>  <smiles>  (59) 
C=C(C)C(=O)OCOC(=O)n1c(C(N)=O)cc2ccc(N)cc21

>  <score_type>  (59) 
oracle

>  <origin>  (59) 
adg

>  <m_score__min__energy>  (59) 
-6.71

>  <m_primary>  (59) 
energy

$$$$
59:0
     RDKit          3D

 48 51  0  0  0  0  0  0  0  0999 V2000
  143.1700  150.8330  132.6420 C   0  0  0  0  0  0  0  0  0  0  0  0
  142.7460  152.2270  132.8490 N   0  0  0  0  0  0  0  0  0  0  0  0
  143.8910  153.0720  133.2570 C   0  0  0  0  0  0  0  0  0  0  0  0
  143.4550  154.2660  134.1190 C   0  0  2  0  0  0  0  0  0  0  0  0
  142.8710  153.7460  135.4440 C   0  0  0  0  0  0  0  0  0  0  0  0
  141.9400  152.5350  135.2280 C   0  0  0  0  0  0  0  0  0  0  0  0
  141.5610  152.3190  133.7410 C   0  0  1  0  0  0  0  0  0  0  0  0
  140.6120  153.4130  133.2160 C   0  0  0  0  0  0  0  0  0  0  0  0
  141.0560  154.7840  133.5230 N   0  0  0  0  0  0  0  0  0  0  0  0
  140.0500  155.8210  133.5610 C   0  0  0  0  0  0  0  0  0  0  0  0
  138.9290  155.6390  133.0120 O   0  0  0  0  0  0  0  0  0  0  0  0
  140.3120  157.0710  134.2100 N   0  0  0  0  0  0  0  0  0  0  0  0
  140.1700  158.3210  133.6920 C   0  0  0  0  0  0  0  0  0  0  0  0
  139.8110  158.6300  132.2930 C   0  0  0  0  0  0  0  0  0  0  0  0
  138.5740  158.1660  131.7570 N   0  0  0  0  0  0  0  0  0  0  0  0
  140.5810  159.3150  131.5700 O   0  0  0  0  0  0  0  0  0  0  0  0
  140.4620  159.2820  134.6580 C   0  0  0  0  0  0  0  0  0  0  0  0
  140.7960  158.5700  135.7900 C   0  0  0  0  0  0  0  0  0  0  0  0
  141.1510  159.0140  137.0600 C   0  0  0  0  0  0  0  0  0  0  0  0
  141.4150  158.0460  138.0460 C   0  0  0  0  0  0  0  0  0  0  0  0
  141.3340  156.6610  137.7450 C   0  0  0  0  0  0  0  0  0  0  0  0
  141.5620  155.6360  138.8270 C   0  0  0  0  0  0  0  0  0  0  0  0
  142.4100  154.6370  138.3810 F   0  0  0  0  0  0  0  0  0  0  0  0
  142.1310  156.2540  139.9260 F   0  0  0  0  0  0  0  0  0  0  0  0
  140.3670  155.0520  139.2070 F   0  0  0  0  0  0  0  0  0  0  0  0
  140.9460  156.2530  136.4480 C   0  0  0  0  0  0  0  0  0  0  0  0
  140.6990  157.2370  135.4890 C   0  0  0  0  0  0  0  0  0  0  0  0
  142.4670  155.1850  133.3630 C   0  0  0  0  0  0  0  0  0  0  0  0
  143.3181  150.3461  133.6172 H   0  0  0  0  0  0  0  0  0  0  0  0
  142.3951  150.2941  132.0770 H   0  0  0  0  0  0  0  0  0  0  0  0
  144.1137  150.8168  132.0770 H   0  0  0  0  0  0  0  0  0  0  0  0
  144.5965  152.4570  133.8351 H   0  0  0  0  0  0  0  0  0  0  0  0
  144.3592  153.4687  132.3441 H   0  0  0  0  0  0  0  0  0  0  0  0
  144.3330  154.8891  134.3447 H   0  0  0  0  0  0  0  0  0  0  0  0
  143.6985  153.4449  136.1032 H   0  0  0  0  0  0  0  0  0  0  0  0
  142.2778  154.5550  135.8952 H   0  0  0  0  0  0  0  0  0  0  0  0
  142.4495  151.6316  135.5945 H   0  0  0  0  0  0  0  0  0  0  0  0
  141.0089  152.7340  135.7789 H   0  0  0  0  0  0  0  0  0  0  0  0
  141.0379  151.3516  133.7183 H   0  0  0  0  0  0  0  0  0  0  0  0
  140.5350  153.3100  132.1235 H   0  0  0  0  0  0  0  0  0  0  0  0
  139.6461  153.2686  133.7221 H   0  0  0  0  0  0  0  0  0  0  0  0
  138.0130  157.4400  132.2550 H   0  0  0  0  0  0  0  0  0  0  0  0
  140.4323  160.3755  134.5419 H   0  0  0  0  0  0  0  0  0  0  0  0
  141.2230  160.0882  137.2859 H   0  0  0  0  0  0  0  0  0  0  0  0
  141.6875  158.3661  139.0625 H   0  0  0  0  0  0  0  0  0  0  0  0
  140.8413  155.1863  136.2006 H   0  0  0  0  0  0  0  0  0  0  0  0
  142.7174  155.1605  132.2922 H   0  0  0  0  0  0  0  0  0  0  0  0
  142.5690  156.1935  133.7903 H   0  0  0  0  0  0  0  0  0  0  0  0
  1  2  1  0
  2  3  1  0
  3  4  1  0
  4  5  1  0
  5  6  1  0
  6  7  1  0
  7  8  1  0
  8  9  1  0
  9 10  1  0
 10 11  2  0
 10 12  1  0
 12 13  1  0
 13 14  1  0
 14 15  1  0
 14 16  2  0
 13 17  2  0
 17 18  1  0
 18 19  2  0
 19 20  1  0
 20 21  2  0
 21 22  1  0
 22 23  1  0
 22 24  1  0
 22 25  1  0
 21 26  1  0
 26 27  2  0
  9 28  1  0
  7  2  1  0
 27 12  1  0
 28  4  1  0
 27 18  1  0
  1 29  1  0
  1 30  1  0
  1 31  1  0
  3 32  1  0
  3 33  1  0
  4 34  1  1
  5 35  1  0
  5 36  1  0
  6 37  1  0
  6 38  1  0
  7 39  1  1
  8 40  1  0
  8 41  1  0
 15 42  1  0
 17 43  1  0
 19 44  1  0
 20 45  1  0
 26 46  1  0
 28 47  1  0
 28 48  1  0
M  CHG  1  15  -1
M  END
>  <UniqueID>  (60) 
59

>  <SMILES>  (60) 
CN1C[C@@H]2CC[C@H]1CN(C(=O)n1c(C([NH-])=O)cc3ccc(C(F)(F)F)cc31)C2

>  <Energy>  (60) 
105.30645507813627

>  <Genealogy>  (60) 
CN1CC2CCC1CN(C(=O)n1c(C([NH-])=O)cc3ccc(C(F)(F)F)cc31)C2 (protonated)
CN1C[C@@H]2CC[C@H]1CN(C(=O)n1c(C([NH-])=O)cc3ccc(C(F)(F)F)cc31)C2 (chirality)
CN1C[C@@H]2CC[C@H]1CN(C(=O)n1c(C([NH-])=O)cc3ccc(C(F)(F)F)cc31)C2 (3D coordinates assigned)
CN1C[C@@H]2CC[C@H]1CN(C(=O)n1c(C([NH-])=O)cc3ccc(C(F)(F)F)cc31)C2 (nonaromatic ring conformer: 105.30645507813627 kcal/mol)

>  <smiles>  (60) 
CN1CC2CCC1CN(C(=O)n1c(C(N)=O)cc3ccc(C(F)(F)F)cc31)C2

>  <score_type>  (60) 
oracle

>  <origin>  (60) 
adg

>  <m_score__min__energy>  (60) 
-6.3700000000000001

>  <m_primary>  (60) 
energy

$$$$
60:0
     RDKit          3D

 40 41  0  0  0  0  0  0  0  0999 V2000
  139.5060  159.8330  131.5620 C   0  0  0  0  0  0  0  0  0  0  0  0
  139.3390  159.3030  132.8570 O   0  0  0  0  0  0  0  0  0  0  0  0
  138.4070  158.2420  132.8150 C   0  0  0  0  0  0  0  0  0  0  0  0
  138.8790  157.1080  133.7210 C   0  0  0  0  0  0  0  0  0  0  0  0
  140.2200  157.3260  134.1220 O   0  0  0  0  0  0  0  0  0  0  0  0
  141.1180  156.7170  133.2190 C   0  0  0  0  0  0  0  0  0  0  0  0
  142.1430  157.6490  132.8930 O   0  0  0  0  0  0  0  0  0  0  0  0
  143.4310  157.5800  133.4330 C   0  0  0  0  0  0  0  0  0  0  0  0
  143.8730  156.4830  133.8680 O   0  0  0  0  0  0  0  0  0  0  0  0
  144.2570  158.7570  133.4680 N   0  0  0  0  0  0  0  0  0  0  0  0
  143.8630  160.0320  133.7380 C   0  0  0  0  0  0  0  0  0  0  0  0
  142.4700  160.4900  133.8870 C   0  0  0  0  0  0  0  0  0  0  0  0
  141.4730  159.6450  134.4640 N   0  0  0  0  0  0  0  0  0  0  0  0
  142.1390  161.6210  133.4380 O   0  0  0  0  0  0  0  0  0  0  0  0
  144.9590  160.8900  133.7690 C   0  0  0  0  0  0  0  0  0  0  0  0
  146.0480  160.1020  133.4820 C   0  0  0  0  0  0  0  0  0  0  0  0
  147.3940  160.4420  133.3650 C   0  0  0  0  0  0  0  0  0  0  0  0
  148.3110  159.4200  133.0620 C   0  0  0  0  0  0  0  0  0  0  0  0
  147.8690  158.0860  132.8900 C   0  0  0  0  0  0  0  0  0  0  0  0
  148.8600  156.9940  132.6210 C   0  0  0  0  0  0  0  0  0  0  0  0
  146.4970  157.7740  133.0360 C   0  0  0  0  0  0  0  0  0  0  0  0
  145.6000  158.8170  133.3090 C   0  0  0  0  0  0  0  0  0  0  0  0
  139.8359  160.8799  131.6340 H   0  0  0  0  0  0  0  0  0  0  0  0
  140.2629  159.2465  131.0206 H   0  0  0  0  0  0  0  0  0  0  0  0
  138.5496  159.7863  131.0206 H   0  0  0  0  0  0  0  0  0  0  0  0
  137.4267  158.6023  133.1603 H   0  0  0  0  0  0  0  0  0  0  0  0
  138.3213  157.8724  131.7825 H   0  0  0  0  0  0  0  0  0  0  0  0
  138.2361  157.0640  134.6125 H   0  0  0  0  0  0  0  0  0  0  0  0
  138.8204  156.1592  133.1675 H   0  0  0  0  0  0  0  0  0  0  0  0
  141.5633  155.8256  133.6850 H   0  0  0  0  0  0  0  0  0  0  0  0
  140.5832  156.4151  132.3064 H   0  0  0  0  0  0  0  0  0  0  0  0
  140.4860  159.9710  134.5410 H   0  0  0  0  0  0  0  0  0  0  0  0
  141.6960  158.6670  134.7450 H   0  0  0  0  0  0  0  0  0  0  0  0
  144.9544  161.9698  133.9787 H   0  0  0  0  0  0  0  0  0  0  0  0
  147.7297  161.4800  133.5056 H   0  0  0  0  0  0  0  0  0  0  0  0
  149.3797  159.6587  132.9578 H   0  0  0  0  0  0  0  0  0  0  0  0
  149.2275  156.5891  133.5755 H   0  0  0  0  0  0  0  0  0  0  0  0
  148.3748  156.1922  132.0451 H   0  0  0  0  0  0  0  0  0  0  0  0
  149.7050  157.3994  132.0451 H   0  0  0  0  0  0  0  0  0  0  0  0
  146.1419  156.7375  132.9377 H   0  0  0  0  0  0  0  0  0  0  0  0
  1  2  1  0
  2  3  1  0
  3  4  1  0
  4  5  1  0
  5  6  1  0
  6  7  1  0
  7  8  1  0
  8  9  2  0
  8 10  1  0
 10 11  1  0
 11 12  1  0
 12 13  1  0
 12 14  2  0
 11 15  2  0
 15 16  1  0
 16 17  2  0
 17 18  1  0
 18 19  2  0
 19 20  1  0
 19 21  1  0
 21 22  2  0
 22 10  1  0
 22 16  1  0
  1 23  1  0
  1 24  1  0
  1 25  1  0
  3 26  1  0
  3 27  1  0
  4 28  1  0
  4 29  1  0
  6 30  1  0
  6 31  1  0
 13 32  1  0
 13 33  1  0
 15 34  1  0
 17 35  1  0
 18 36  1  0
 20 37  1  0
 20 38  1  0
 20 39  1  0
 21 40  1  0
M  END
>  <UniqueID>  (61) 
60

>  <SMILES>  (61) 
COCCOCOC(=O)n1c(C(N)=O)cc2ccc(C)cc21

>  <Energy>  (61) 
78.08465290202837

>  <Genealogy>  (61) 
COCCOCOC(=O)n1c(C(N)=O)cc2ccc(C)cc21 (3D coordinates assigned)
COCCOCOC(=O)n1c(C(N)=O)cc2ccc(C)cc21 (optimized conformer: 78.08465290202837 kcal/mol)

>  <smiles>  (61) 
COCCOCOC(=O)n1c(C(N)=O)cc2ccc(C)cc21

>  <score_type>  (61) 
oracle

>  <origin>  (61) 
adg

>  <m_score__min__energy>  (61) 
-5.3600000000000003

>  <m_primary>  (61) 
energy

$$$$
62:0
     RDKit          3D

 49 50  0  0  0  0  0  0  0  0999 V2000
  145.3920  161.9550  133.3790 H   0  0  0  0  0  0  0  0  0  0  0  0
  144.6060  161.6310  133.9850 N   0  0  0  0  0  0  0  0  0  0  0  0
  143.9460  160.3940  133.7320 C   0  0  0  0  0  0  0  0  0  0  0  0
  142.6880  160.3660  133.6680 O   0  0  0  0  0  0  0  0  0  0  0  0
  144.7120  159.1380  133.6010 C   0  0  0  0  0  0  0  0  0  0  0  0
  144.1790  157.8810  133.8790 C   0  0  0  0  0  0  0  0  0  0  0  0
  143.1463  157.6461  134.1764 H   0  0  0  0  0  0  0  0  0  0  0  0
  145.2170  156.9960  133.7030 C   0  0  0  0  0  0  0  0  0  0  0  0
  145.2430  155.6100  133.8190 C   0  0  0  0  0  0  0  0  0  0  0  0
  144.3481  155.0512  134.1304 H   0  0  0  0  0  0  0  0  0  0  0  0
  146.4450  154.9450  133.5270 C   0  0  0  0  0  0  0  0  0  0  0  0
  146.4943  153.8496  133.6144 H   0  0  0  0  0  0  0  0  0  0  0  0
  147.5960  155.6670  133.1210 C   0  0  0  0  0  0  0  0  0  0  0  0
  148.7930  154.9380  132.7880 N   0  0  0  0  0  0  0  0  0  0  0  0
  149.7080  155.4350  132.8740 H   0  0  0  0  0  0  0  0  0  0  0  0
  148.7940  153.5930  132.2830 C   0  0  0  0  0  0  0  0  0  0  0  0
  147.8599  153.1494  131.9079 H   0  0  0  0  0  0  0  0  0  0  0  0
  149.9230  152.8770  132.2660 C   0  0  0  0  0  0  0  0  0  0  0  0
  150.8491  153.3408  132.6364 H   0  0  0  0  0  0  0  0  0  0  0  0
  149.9740  151.4930  131.7710 C   0  0  0  0  0  0  0  0  0  0  0  0
  149.9160  151.2470  130.5350 O   0  0  0  0  0  0  0  0  0  0  0  0
  150.0810  150.4500  132.6980 O   0  0  0  0  0  0  0  0  0  0  0  0
  149.2360  150.3220  133.8400 C   0  0  0  0  0  0  0  0  0  0  0  0
  148.9391  149.2690  133.9542 H   0  0  0  0  0  0  0  0  0  0  0  0
  148.3470  150.9538  133.6967 H   0  0  0  0  0  0  0  0  0  0  0  0
  149.9660  150.7770  135.1000 C   0  0  0  0  0  0  0  0  0  0  0  0
  149.4145  150.4333  135.9876 H   0  0  0  0  0  0  0  0  0  0  0  0
  150.9800  150.3506  135.1105 H   0  0  0  0  0  0  0  0  0  0  0  0
  150.0298  151.8751  135.1105 H   0  0  0  0  0  0  0  0  0  0  0  0
  147.5260  157.0780  133.0060 C   0  0  0  0  0  0  0  0  0  0  0  0
  148.3980  157.6591  132.6713 H   0  0  0  0  0  0  0  0  0  0  0  0
  146.3220  157.7150  133.3280 C   0  0  0  0  0  0  0  0  0  0  0  0
  146.0280  159.0340  133.2620 N   0  0  0  0  0  0  0  0  0  0  0  0
  146.9110  160.0820  132.8350 C   0  0  0  0  0  0  0  0  0  0  0  0
  147.2810  160.9600  133.6600 O   0  0  0  0  0  0  0  0  0  0  0  0
  147.3670  160.1010  131.5080 O   0  0  0  0  0  0  0  0  0  0  0  0
  148.7370  160.1280  131.0800 C   0  0  0  0  0  0  0  0  0  0  0  0
  149.1880  161.5740  130.7940 C   0  0  0  0  0  0  0  0  0  0  0  0
  149.3526  162.1016  131.7451 H   0  0  0  0  0  0  0  0  0  0  0  0
  150.1240  161.5587  130.2164 H   0  0  0  0  0  0  0  0  0  0  0  0
  148.4092  162.0935  130.2164 H   0  0  0  0  0  0  0  0  0  0  0  0
  148.9360  159.2410  129.8370 C   0  0  0  0  0  0  0  0  0  0  0  0
  149.1666  158.2130  130.1533 H   0  0  0  0  0  0  0  0  0  0  0  0
  148.0154  159.2416  129.2349 H   0  0  0  0  0  0  0  0  0  0  0  0
  149.7681  159.6348  129.2349 H   0  0  0  0  0  0  0  0  0  0  0  0
  149.5840  159.5630  132.2330 C   0  0  0  0  0  0  0  0  0  0  0  0
  149.1392  159.8597  133.1943 H   0  0  0  0  0  0  0  0  0  0  0  0
  149.6108  158.4655  132.1646 H   0  0  0  0  0  0  0  0  0  0  0  0
  150.6077  159.9598  132.1646 H   0  0  0  0  0  0  0  0  0  0  0  0
  1  2  1  0
  2  3  1  0
  3  4  2  0
  3  5  1  0
  5  6  2  0
  6  7  1  0
  6  8  1  0
  8  9  2  0
  9 10  1  0
  9 11  1  0
 11 12  1  0
 11 13  2  0
 13 14  1  0
 14 15  1  0
 14 16  1  0
 16 17  1  0
 16 18  2  0
 18 19  1  0
 18 20  1  0
 20 21  2  0
 20 22  1  0
 22 23  1  0
 23 24  1  0
 23 25  1  0
 23 26  1  0
 26 27  1  0
 26 28  1  0
 26 29  1  0
 13 30  1  0
 30 31  1  0
 30 32  2  0
 32 33  1  0
 33 34  1  0
 34 35  2  0
 34 36  1  0
 36 37  1  0
 37 38  1  0
 38 39  1  0
 38 40  1  0
 38 41  1  0
 37 42  1  0
 42 43  1  0
 42 44  1  0
 42 45  1  0
 37 46  1  0
 46 47  1  0
 46 48  1  0
 46 49  1  0
 33  5  1  0
 32  8  1  0
M  CHG  1   2  -1
M  END
>  <UniqueID>  (62) 
61

>  <SMILES>  (62) 
CCOC(=O)/C=C/Nc1ccc2cc(C([NH-])=O)n(C(=O)OC(C)(C)C)c2c1

>  <Energy>  (62) 
78.61350699791329

>  <Genealogy>  (62) 
CCOC(=O)/C=C/Nc1ccc2cc(C([NH-])=O)n(C(=O)OC(C)(C)C)c2c1 (protonated)
CCOC(=O)/C=C/Nc1ccc2cc(C([NH-])=O)n(C(=O)OC(C)(C)C)c2c1 (cis-trans isomerization)
CCOC(=O)/C=C/Nc1ccc2cc(C([NH-])=O)n(C(=O)OC(C)(C)C)c2c1 (3D coordinates assigned)
CCOC(=O)/C=C/Nc1ccc2cc(C([NH-])=O)n(C(=O)OC(C)(C)C)c2c1 (optimized conformer: 78.61350699791329 kcal/mol)

>  <smiles>  (62) 
CCOC(=O)/C=C/Nc1ccc2cc(C(N)=O)n(C(=O)OC(C)(C)C)c2c1

>  <score_type>  (62) 
oracle

>  <origin>  (62) 
adg

>  <m_score__min__energy>  (62) 
-8.2799999999999994

>  <m_primary>  (62) 
energy

$$$$
63:0
     RDKit          3D

 38 39  0  0  0  0  0  0  0  0999 V2000
  142.1930  160.5390  133.7350 C   0  0  0  0  0  0  0  0  0  0  0  0
  143.2260  159.4170  133.7600 C   0  0  0  0  0  0  0  0  0  0  0  0
  144.5940  159.9620  133.7630 N   0  0  0  0  0  0  0  0  0  0  0  0
  144.8070  161.3740  134.1030 C   0  0  0  0  0  0  0  0  0  0  0  0
  145.7340  159.1250  133.4520 C   0  0  0  0  0  0  0  0  0  0  0  0
  146.9220  159.6970  132.9220 C   0  0  0  0  0  0  0  0  0  0  0  0
  148.0330  158.8970  132.6090 C   0  0  0  0  0  0  0  0  0  0  0  0
  147.9380  157.5310  132.8410 C   0  0  0  0  0  0  0  0  0  0  0  0
  148.8510  156.5280  132.6050 C   0  0  0  0  0  0  0  0  0  0  0  0
  148.2230  155.3530  133.0120 C   0  0  0  0  0  0  0  0  0  0  0  0
  148.8850  154.0320  133.0090 C   0  0  0  0  0  0  0  0  0  0  0  0
  148.4420  153.0150  133.9050 N   0  0  0  0  0  0  0  0  0  0  0  0
  149.8140  153.7780  132.1970 O   0  0  0  0  0  0  0  0  0  0  0  0
  146.9680  155.6190  133.4750 N   0  0  0  0  0  0  0  0  0  0  0  0
  145.9780  154.6770  133.9180 C   0  0  0  0  0  0  0  0  0  0  0  0
  145.8030  153.6030  133.2790 O   0  0  0  0  0  0  0  0  0  0  0  0
  145.2290  154.9450  135.0700 O   0  0  0  0  0  0  0  0  0  0  0  0
  145.2970  154.1490  136.2510 C   0  0  0  0  0  0  0  0  0  0  0  0
  146.7120  153.7570  136.5340 C   0  0  0  0  0  0  0  0  0  0  0  0
  146.9600  152.6680  137.1150 O   0  0  0  0  0  0  0  0  0  0  0  0
  147.7540  154.6060  136.1840 O   0  0  0  0  0  0  0  0  0  0  0  0
  146.8110  156.9570  133.3650 C   0  0  0  0  0  0  0  0  0  0  0  0
  145.6810  157.7250  133.6680 C   0  0  0  0  0  0  0  0  0  0  0  0
  141.9332  160.8212  134.7659 H   0  0  0  0  0  0  0  0  0  0  0  0
  142.6112  161.4108  133.2105 H   0  0  0  0  0  0  0  0  0  0  0  0
  141.2897  160.1941  133.2105 H   0  0  0  0  0  0  0  0  0  0  0  0
  143.0777  158.8111  134.6660 H   0  0  0  0  0  0  0  0  0  0  0  0
  143.0958  158.7994  132.8591 H   0  0  0  0  0  0  0  0  0  0  0  0
  144.8244  161.4892  135.1968 H   0  0  0  0  0  0  0  0  0  0  0  0
  145.7662  161.7115  133.6835 H   0  0  0  0  0  0  0  0  0  0  0  0
  143.9900  161.9794  133.6835 H   0  0  0  0  0  0  0  0  0  0  0  0
  146.9722  160.7830  132.7543 H   0  0  0  0  0  0  0  0  0  0  0  0
  148.9504  159.3388  132.1928 H   0  0  0  0  0  0  0  0  0  0  0  0
  149.8620  156.6323  132.1843 H   0  0  0  0  0  0  0  0  0  0  0  0
  147.5920  153.1540  134.4960 H   0  0  0  0  0  0  0  0  0  0  0  0
  144.9040  154.7266  137.1007 H   0  0  0  0  0  0  0  0  0  0  0  0
  144.6971  153.2389  136.1032 H   0  0  0  0  0  0  0  0  0  0  0  0
  144.7708  157.2522  134.0654 H   0  0  0  0  0  0  0  0  0  0  0  0
  1  2  1  0
  2  3  1  0
  3  4  1  0
  3  5  1  0
  5  6  2  0
  6  7  1  0
  7  8  2  0
  8  9  1  0
  9 10  2  0
 10 11  1  0
 11 12  1  0
 11 13  2  0
 10 14  1  0
 14 15  1  0
 15 16  2  0
 15 17  1  0
 17 18  1  0
 18 19  1  0
 19 20  2  0
 19 21  1  0
 14 22  1  0
 22 23  2  0
 23  5  1  0
 22  8  1  0
  1 24  1  0
  1 25  1  0
  1 26  1  0
  2 27  1  0
  2 28  1  0
  4 29  1  0
  4 30  1  0
  4 31  1  0
  6 32  1  0
  7 33  1  0
  9 34  1  0
 12 35  1  0
 18 36  1  0
 18 37  1  0
 23 38  1  0
M  CHG  2  12  -1  21  -1
M  END
>  <UniqueID>  (63) 
62

>  <SMILES>  (63) 
CCN(C)c1ccc2cc(C([NH-])=O)n(C(=O)OCC(=O)[O-])c2c1

>  <Energy>  (63) 
74.19587432302063

>  <Genealogy>  (63) 
CCN(C)c1ccc2cc(C([NH-])=O)n(C(=O)OCC(=O)[O-])c2c1 (protonated)
CCN(C)c1ccc2cc(C([NH-])=O)n(C(=O)OCC(=O)[O-])c2c1 (3D coordinates assigned)
CCN(C)c1ccc2cc(C([NH-])=O)n(C(=O)OCC(=O)[O-])c2c1 (optimized conformer: 74.19587432302063 kcal/mol)

>  <smiles>  (63) 
CCN(C)c1ccc2cc(C(N)=O)n(C(=O)OCC(=O)O)c2c1

>  <score_type>  (63) 
oracle

>  <origin>  (63) 
adg

>  <m_score__min__energy>  (63) 
-6.1399999999999997

>  <m_primary>  (63) 
energy

$$$$
64:0
     RDKit          3D

 38 39  0  0  0  0  0  0  0  0999 V2000
  145.3550  154.5150  134.8380 C   0  0  0  0  0  0  0  0  0  0  0  0
  146.8780  154.5980  134.8200 C   0  0  1  0  0  0  0  0  0  0  0  0
  147.2700  155.9410  134.5440 O   0  0  0  0  0  0  0  0  0  0  0  0
  147.1130  156.5510  133.2940 C   0  0  0  0  0  0  0  0  0  0  0  0
  147.2230  155.8730  132.2370 O   0  0  0  0  0  0  0  0  0  0  0  0
  146.8520  157.9610  133.2190 N   0  0  0  0  0  0  0  0  0  0  0  0
  147.7170  158.9590  132.8820 C   0  0  0  0  0  0  0  0  0  0  0  0
  149.0990  158.7820  132.3880 C   0  0  0  0  0  0  0  0  0  0  0  0
  149.6310  157.4680  132.2290 N   0  0  0  0  0  0  0  0  0  0  0  0
  149.8290  159.7770  132.1400 O   0  0  0  0  0  0  0  0  0  0  0  0
  147.0940  160.2010  132.9850 C   0  0  0  0  0  0  0  0  0  0  0  0
  145.8070  159.9300  133.3920 C   0  0  0  0  0  0  0  0  0  0  0  0
  144.7530  160.7940  133.6590 C   0  0  0  0  0  0  0  0  0  0  0  0
  143.5360  160.2400  134.0910 C   0  0  0  0  0  0  0  0  0  0  0  0
  143.3860  158.8340  134.2570 C   0  0  0  0  0  0  0  0  0  0  0  0
  142.1280  158.2700  134.7130 N   0  0  0  0  0  0  0  0  0  0  0  0
  141.5770  157.0650  134.0780 C   0  0  0  0  0  0  0  0  0  0  0  0
  141.3850  158.8930  135.8150 C   0  0  0  0  0  0  0  0  0  0  0  0
  144.4940  157.9920  133.9720 C   0  0  0  0  0  0  0  0  0  0  0  0
  145.6860  158.5720  133.5250 C   0  0  0  0  0  0  0  0  0  0  0  0
  147.4330  154.1520  136.1420 C   0  0  0  0  0  0  0  0  0  0  0  0
  148.3090  154.8390  136.7300 O   0  0  0  0  0  0  0  0  0  0  0  0
  146.9530  152.9940  136.7410 O   0  0  0  0  0  0  0  0  0  0  0  0
  145.0011  154.4957  135.8793 H   0  0  0  0  0  0  0  0  0  0  0  0
  144.9339  155.3915  134.3238 H   0  0  0  0  0  0  0  0  0  0  0  0
  145.0317  153.5979  134.3238 H   0  0  0  0  0  0  0  0  0  0  0  0
  147.2750  153.9359  134.0364 H   0  0  0  0  0  0  0  0  0  0  0  0
  149.1130  156.7420  131.6860 H   0  0  0  0  0  0  0  0  0  0  0  0
  147.5362  161.1879  132.7839 H   0  0  0  0  0  0  0  0  0  0  0  0
  144.8676  161.8811  133.5358 H   0  0  0  0  0  0  0  0  0  0  0  0
  142.6851  160.9037  134.3045 H   0  0  0  0  0  0  0  0  0  0  0  0
  141.2531  156.3567  134.8548 H   0  0  0  0  0  0  0  0  0  0  0  0
  140.7159  157.3416  133.4519 H   0  0  0  0  0  0  0  0  0  0  0  0
  142.3495  156.5946  133.4519 H   0  0  0  0  0  0  0  0  0  0  0  0
  141.7960  158.5484  136.7754 H   0  0  0  0  0  0  0  0  0  0  0  0
  141.4781  159.9870  135.7477 H   0  0  0  0  0  0  0  0  0  0  0  0
  140.3240  158.6105  135.7477 H   0  0  0  0  0  0  0  0  0  0  0  0
  144.4161  156.9023  134.1006 H   0  0  0  0  0  0  0  0  0  0  0  0
  1  2  1  0
  2  3  1  0
  3  4  1  0
  4  5  2  0
  4  6  1  0
  6  7  1  0
  7  8  1  0
  8  9  1  0
  8 10  2  0
  7 11  2  0
 11 12  1  0
 12 13  2  0
 13 14  1  0
 14 15  2  0
 15 16  1  0
 16 17  1  0
 16 18  1  0
 15 19  1  0
 19 20  2  0
  2 21  1  0
 21 22  2  0
 21 23  1  0
 20  6  1  0
 20 12  1  0
  1 24  1  0
  1 25  1  0
  1 26  1  0
  2 27  1  6
  9 28  1  0
 11 29  1  0
 13 30  1  0
 14 31  1  0
 17 32  1  0
 17 33  1  0
 17 34  1  0
 18 35  1  0
 18 36  1  0
 18 37  1  0
 19 38  1  0
M  CHG  2   9  -1  23  -1
M  END
>  <UniqueID>  (64) 
63

>  <SMILES>  (64) 
C[C@@H](OC(=O)n1c(C([NH-])=O)cc2ccc(N(C)C)cc21)C(=O)[O-]

>  <Energy>  (64) 
73.1574312224856

>  <Genealogy>  (64) 
CC(OC(=O)n1c(C([NH-])=O)cc2ccc(N(C)C)cc21)C(=O)[O-] (protonated)
C[C@@H](OC(=O)n1c(C([NH-])=O)cc2ccc(N(C)C)cc21)C(=O)[O-] (chirality)
C[C@@H](OC(=O)n1c(C([NH-])=O)cc2ccc(N(C)C)cc21)C(=O)[O-] (3D coordinates assigned)
C[C@@H](OC(=O)n1c(C([NH-])=O)cc2ccc(N(C)C)cc21)C(=O)[O-] (optimized conformer: 73.1574312224856 kcal/mol)

>  <smiles>  (64) 
CC(OC(=O)n1c(C(N)=O)cc2ccc(N(C)C)cc21)C(=O)O

>  <score_type>  (64) 
oracle

>  <origin>  (64) 
adg

>  <m_score__min__energy>  (64) 
-6.3700000000000001

>  <m_primary>  (64) 
energy

$$$$
65:0
     RDKit          3D

 37 38  0  0  0  0  0  0  0  0999 V2000
  141.2730  156.3550  133.3680 N   0  0  0  0  0  0  0  0  0  0  0  0
  141.6330  157.5800  134.0010 C   0  0  0  0  0  0  0  0  0  0  0  0
  140.7530  158.2320  134.6250 O   0  0  0  0  0  0  0  0  0  0  0  0
  143.0030  158.1220  133.8890 C   0  0  0  0  0  0  0  0  0  0  0  0
  143.2890  159.4860  133.8960 C   0  0  0  0  0  0  0  0  0  0  0  0
  144.6450  159.5750  133.6720 C   0  0  0  0  0  0  0  0  0  0  0  0
  145.4650  160.6950  133.5740 C   0  0  0  0  0  0  0  0  0  0  0  0
  146.8370  160.4900  133.3510 C   0  0  0  0  0  0  0  0  0  0  0  0
  147.3610  159.1780  133.2420 C   0  0  0  0  0  0  0  0  0  0  0  0
  148.8320  158.9720  132.9850 C   0  0  0  0  0  0  0  0  0  0  0  0
  149.1210  158.6090  131.5220 C   0  0  0  0  0  0  0  0  0  0  0  0
  149.3110  160.0840  130.4640 P   0  0  2  0  0  0  0  0  0  0  0  0
  150.6780  160.0900  129.8200 O   0  0  0  0  0  0  0  0  0  0  0  0
  149.1210  161.4850  131.3920 O   0  0  0  0  0  0  0  0  0  0  0  0
  148.1270  160.0580  129.2550 O   0  0  0  0  0  0  0  0  0  0  0  0
  146.4980  158.0650  133.3490 C   0  0  0  0  0  0  0  0  0  0  0  0
  145.1320  158.3000  133.5470 C   0  0  0  0  0  0  0  0  0  0  0  0
  144.1380  157.3960  133.6800 N   0  0  0  0  0  0  0  0  0  0  0  0
  144.2840  155.9690  133.6620 C   0  0  0  0  0  0  0  0  0  0  0  0
  143.8990  155.3090  132.6570 O   0  0  0  0  0  0  0  0  0  0  0  0
  144.8280  155.3140  134.7730 O   0  0  0  0  0  0  0  0  0  0  0  0
  145.7330  154.2170  134.6700 C   0  0  0  0  0  0  0  0  0  0  0  0
  146.8090  154.3340  135.7000 C   0  0  0  0  0  0  0  0  0  0  0  0
  147.5700  155.3370  135.7140 O   0  0  0  0  0  0  0  0  0  0  0  0
  146.9540  153.3470  136.6660 O   0  0  0  0  0  0  0  0  0  0  0  0
  141.8390  155.9720  132.5790 H   0  0  0  0  0  0  0  0  0  0  0  0
  142.5822  160.3150  134.0480 H   0  0  0  0  0  0  0  0  0  0  0  0
  145.0516  161.7100  133.6683 H   0  0  0  0  0  0  0  0  0  0  0  0
  147.5100  161.3553  133.2603 H   0  0  0  0  0  0  0  0  0  0  0  0
  149.3679  159.9004  133.2319 H   0  0  0  0  0  0  0  0  0  0  0  0
  149.1700  158.1347  133.6132 H   0  0  0  0  0  0  0  0  0  0  0  0
  150.0506  158.0223  131.4805 H   0  0  0  0  0  0  0  0  0  0  0  0
  148.2637  158.0329  131.1436 H   0  0  0  0  0  0  0  0  0  0  0  0
  148.3210  160.8520  128.6940 H   0  0  0  0  0  0  0  0  0  0  0  0
  146.8893  157.0394  133.2785 H   0  0  0  0  0  0  0  0  0  0  0  0
  145.1830  153.2771  134.8250 H   0  0  0  0  0  0  0  0  0  0  0  0
  146.1921  154.2245  133.6704 H   0  0  0  0  0  0  0  0  0  0  0  0
  1  2  1  0
  2  3  2  0
  2  4  1  0
  4  5  2  0
  5  6  1  0
  6  7  2  0
  7  8  1  0
  8  9  2  0
  9 10  1  0
 10 11  1  0
 11 12  1  0
 12 13  2  0
 12 14  1  1
 12 15  1  0
  9 16  1  0
 16 17  2  0
 17 18  1  0
 18 19  1  0
 19 20  2  0
 19 21  1  0
 21 22  1  0
 22 23  1  0
 23 24  2  0
 23 25  1  0
 18  4  1  0
 17  6  1  0
  1 26  1  0
  5 27  1  0
  7 28  1  0
  8 29  1  0
 10 30  1  0
 10 31  1  0
 11 32  1  0
 11 33  1  0
 15 34  1  0
 16 35  1  0
 22 36  1  0
 22 37  1  0
M  CHG  3   1  -1  14  -1  25  -1
M  END
>  <UniqueID>  (65) 
64

>  <SMILES>  (65) 
[NH-]C(=O)c1cc2ccc(CC[P@](=O)([O-])O)cc2n1C(=O)OCC(=O)[O-]

>  <Energy>  (65) 
66.59624932758786

>  <Genealogy>  (65) 
[NH-]C(=O)c1cc2ccc(CCP(=O)([O-])O)cc2n1C(=O)OCC(=O)[O-] (protonated)
[NH-]C(=O)c1cc2ccc(CC[P@](=O)([O-])O)cc2n1C(=O)OCC(=O)[O-] (chirality)
[NH-]C(=O)c1cc2ccc(CC[P@](=O)([O-])O)cc2n1C(=O)OCC(=O)[O-] (3D coordinates assigned)
[NH-]C(=O)c1cc2ccc(CC[P@](=O)([O-])O)cc2n1C(=O)OCC(=O)[O-] (optimized conformer: 66.59624932758786 kcal/mol)

>  <smiles>  (65) 
NC(=O)c1cc2ccc(CCP(=O)(O)O)cc2n1C(=O)OCC(=O)O

>  <score_type>  (65) 
oracle

>  <origin>  (65) 
adg

>  <m_score__min__energy>  (65) 
-6.8399999999999999

>  <m_primary>  (65) 
energy

$$$$
66:0
     RDKit          3D

 47 48  0  0  0  0  0  0  0  0999 V2000
  149.2240  161.7030  130.3230 C   0  0  0  0  0  0  0  0  0  0  0  0
  148.9680  160.4120  131.0440 C   0  0  0  0  0  0  0  0  0  0  0  0
  149.9900  159.4360  131.1400 C   0  0  0  0  0  0  0  0  0  0  0  0
  149.7760  158.2450  131.8520 C   0  0  0  0  0  0  0  0  0  0  0  0
  148.5350  158.0610  132.4580 C   0  0  0  0  0  0  0  0  0  0  0  0
  148.0760  157.0190  133.2300 C   0  0  0  0  0  0  0  0  0  0  0  0
  146.7770  157.3690  133.5830 C   0  0  0  0  0  0  0  0  0  0  0  0
  145.8820  156.4890  134.3600 C   0  0  0  0  0  0  0  0  0  0  0  0
  144.4960  156.3720  134.0370 N   0  0  0  0  0  0  0  0  0  0  0  0
  146.3620  155.7820  135.2870 O   0  0  0  0  0  0  0  0  0  0  0  0
  146.4460  158.5870  133.0650 N   0  0  0  0  0  0  0  0  0  0  0  0
  145.2420  159.3360  133.3050 C   0  0  0  0  0  0  0  0  0  0  0  0
  145.2670  160.3490  134.0560 O   0  0  0  0  0  0  0  0  0  0  0  0
  144.0440  158.9370  132.7030 O   0  0  0  0  0  0  0  0  0  0  0  0
  142.8050  158.9000  133.4000 C   0  0  0  0  0  0  0  0  0  0  0  0
  142.1020  157.7080  133.0660 O   0  0  0  0  0  0  0  0  0  0  0  0
  141.3280  157.0050  133.9940 C   0  0  0  0  0  0  0  0  0  0  0  0
  141.0880  157.4950  135.1320 O   0  0  0  0  0  0  0  0  0  0  0  0
  140.7390  155.6790  133.6240 C   0  0  0  0  0  0  0  0  0  0  0  0
  141.8140  154.6490  133.4040 C   0  0  0  0  0  0  0  0  0  0  0  0
  142.8530  154.9970  132.7790 O   0  0  0  0  0  0  0  0  0  0  0  0
  141.6960  153.2970  133.9040 N   0  0  0  0  0  0  0  0  0  0  0  0
  141.0630  152.2480  133.0940 C   0  0  0  0  0  0  0  0  0  0  0  0
  142.2240  152.9650  135.2340 C   0  0  0  0  0  0  0  0  0  0  0  0
  143.1300  154.0510  135.7190 C   0  0  0  0  0  0  0  0  0  0  0  0
  144.3790  153.9110  135.6490 O   0  0  0  0  0  0  0  0  0  0  0  0
  142.5960  155.2100  136.2680 O   0  0  0  0  0  0  0  0  0  0  0  0
  147.5350  158.9960  132.3730 C   0  0  0  0  0  0  0  0  0  0  0  0
  147.7300  160.2010  131.6880 C   0  0  0  0  0  0  0  0  0  0  0  0
  149.3835  162.5072  131.0564 H   0  0  0  0  0  0  0  0  0  0  0  0
  150.1191  161.5994  129.6921 H   0  0  0  0  0  0  0  0  0  0  0  0
  148.3571  161.9488  129.6921 H   0  0  0  0  0  0  0  0  0  0  0  0
  150.9600  159.6127  130.6524 H   0  0  0  0  0  0  0  0  0  0  0  0
  150.5636  157.4809  131.9290 H   0  0  0  0  0  0  0  0  0  0  0  0
  148.6201  156.1044  133.5086 H   0  0  0  0  0  0  0  0  0  0  0  0
  143.8710  155.7710  134.6190 H   0  0  0  0  0  0  0  0  0  0  0  0
  144.1030  156.8180  133.1800 H   0  0  0  0  0  0  0  0  0  0  0  0
  142.9941  158.9216  134.4834 H   0  0  0  0  0  0  0  0  0  0  0  0
  142.1995  159.7725  133.1133 H   0  0  0  0  0  0  0  0  0  0  0  0
  140.0784  155.3406  134.4358 H   0  0  0  0  0  0  0  0  0  0  0  0
  140.1733  155.7978  132.6881 H   0  0  0  0  0  0  0  0  0  0  0  0
  140.6095  151.4964  133.7569 H   0  0  0  0  0  0  0  0  0  0  0  0
  140.2837  152.6950  132.4592 H   0  0  0  0  0  0  0  0  0  0  0  0
  141.8217  151.7669  132.4592 H   0  0  0  0  0  0  0  0  0  0  0  0
  141.3869  152.8494  135.9382 H   0  0  0  0  0  0  0  0  0  0  0  0
  142.7939  152.0264  135.1685 H   0  0  0  0  0  0  0  0  0  0  0  0
  146.9385  160.9641  131.6525 H   0  0  0  0  0  0  0  0  0  0  0  0
  1  2  1  0
  2  3  2  0
  3  4  1  0
  4  5  2  0
  5  6  1  0
  6  7  2  0
  7  8  1  0
  8  9  1  0
  8 10  2  0
  7 11  1  0
 11 12  1  0
 12 13  2  0
 12 14  1  0
 14 15  1  0
 15 16  1  0
 16 17  1  0
 17 18  2  0
 17 19  1  0
 19 20  1  0
 20 21  2  0
 20 22  1  0
 22 23  1  0
 22 24  1  0
 24 25  1  0
 25 26  2  0
 25 27  1  0
 11 28  1  0
 28 29  2  0
 29  2  1  0
 28  5  1  0
  1 30  1  0
  1 31  1  0
  1 32  1  0
  3 33  1  0
  4 34  1  0
  6 35  1  0
  9 36  1  0
  9 37  1  0
 15 38  1  0
 15 39  1  0
 19 40  1  0
 19 41  1  0
 23 42  1  0
 23 43  1  0
 23 44  1  0
 24 45  1  0
 24 46  1  0
 29 47  1  0
M  CHG  1  27  -1
M  END
>  <UniqueID>  (66) 
65

>  <SMILES>  (66) 
Cc1ccc2cc(C(N)=O)n(C(=O)OCOC(=O)CC(=O)N(C)CC(=O)[O-])c2c1

>  <Energy>  (66) 
75.5965414718922

>  <Genealogy>  (66) 
Cc1ccc2cc(C(N)=O)n(C(=O)OCOC(=O)CC(=O)N(C)CC(=O)[O-])c2c1 (protonated)
Cc1ccc2cc(C(N)=O)n(C(=O)OCOC(=O)CC(=O)N(C)CC(=O)[O-])c2c1 (3D coordinates assigned)
Cc1ccc2cc(C(N)=O)n(C(=O)OCOC(=O)CC(=O)N(C)CC(=O)[O-])c2c1 (optimized conformer: 75.5965414718922 kcal/mol)

>  <smiles>  (66) 
Cc1ccc2cc(C(N)=O)n(C(=O)OCOC(=O)CC(=O)N(C)CC(=O)O)c2c1

>  <score_type>  (66) 
oracle

>  <origin>  (66) 
adg

>  <m_score__min__energy>  (66) 
-7.1799999999999997

>  <m_primary>  (66) 
energy

$$$$
67:0
     RDKit          3D

 36 37  0  0  0  0  0  0  0  0999 V2000
  139.1260  148.3990  130.0820 C   0  0  0  0  0  0  0  0  0  0  0  0
  138.3880  149.2750  131.0810 C   0  0  0  0  0  0  0  0  0  0  0  0
  139.2890  150.2330  131.6240 O   0  0  0  0  0  0  0  0  0  0  0  0
  140.3860  149.8770  132.4150 C   0  0  0  0  0  0  0  0  0  0  0  0
  140.3560  148.8400  133.1300 O   0  0  0  0  0  0  0  0  0  0  0  0
  141.6330  150.7090  132.3530 C   0  0  0  0  0  0  0  0  0  0  0  0
  141.3400  152.0970  131.9580 N   0  0  0  0  0  0  0  0  0  0  0  0
  141.5540  153.0130  133.0540 C   0  0  0  0  0  0  0  0  0  0  0  0
  142.5730  152.7590  134.0100 C   0  0  0  0  0  0  0  0  0  0  0  0
  142.8370  153.6770  135.0380 C   0  0  0  0  0  0  0  0  0  0  0  0
  142.0650  154.8330  135.0950 C   0  0  0  0  0  0  0  0  0  0  0  0
  142.1340  155.8990  135.9620 C   0  0  0  0  0  0  0  0  0  0  0  0
  141.1390  156.7800  135.5430 C   0  0  0  0  0  0  0  0  0  0  0  0
  140.8120  158.0320  136.2580 C   0  0  0  0  0  0  0  0  0  0  0  0
  139.5380  158.2160  136.8690 N   0  0  0  0  0  0  0  0  0  0  0  0
  141.6880  158.9310  136.3720 O   0  0  0  0  0  0  0  0  0  0  0  0
  140.4860  156.2820  134.4540 N   0  0  0  0  0  0  0  0  0  0  0  0
  139.4630  156.9190  133.6710 C   0  0  0  0  0  0  0  0  0  0  0  0
  139.2930  156.6000  132.4650 O   0  0  0  0  0  0  0  0  0  0  0  0
  138.6330  157.8740  134.2440 O   0  0  0  0  0  0  0  0  0  0  0  0
  141.0630  155.0880  134.1950 C   0  0  0  0  0  0  0  0  0  0  0  0
  140.7910  154.2000  133.1470 C   0  0  0  0  0  0  0  0  0  0  0  0
  139.7433  147.6664  130.6226 H   0  0  0  0  0  0  0  0  0  0  0  0
  138.3976  147.8697  129.4502 H   0  0  0  0  0  0  0  0  0  0  0  0
  139.7713  149.0270  129.4502 H   0  0  0  0  0  0  0  0  0  0  0  0
  137.5616  149.7944  130.5737 H   0  0  0  0  0  0  0  0  0  0  0  0
  137.9841  148.6496  131.8907 H   0  0  0  0  0  0  0  0  0  0  0  0
  142.1090  150.7131  133.3447 H   0  0  0  0  0  0  0  0  0  0  0  0
  142.3018  150.2704  131.5978 H   0  0  0  0  0  0  0  0  0  0  0  0
  140.3560  152.1650  131.6060 H   0  0  0  0  0  0  0  0  0  0  0  0
  141.9710  152.3600  131.1660 H   0  0  0  0  0  0  0  0  0  0  0  0
  143.1619  151.8323  133.9439 H   0  0  0  0  0  0  0  0  0  0  0  0
  143.6303  153.4883  135.7763 H   0  0  0  0  0  0  0  0  0  0  0  0
  142.8271  156.0283  136.8063 H   0  0  0  0  0  0  0  0  0  0  0  0
  138.7350  158.6080  136.3290 H   0  0  0  0  0  0  0  0  0  0  0  0
  140.0020  154.4207  132.4130 H   0  0  0  0  0  0  0  0  0  0  0  0
  1  2  1  0
  2  3  1  0
  3  4  1  0
  4  5  2  0
  4  6  1  0
  6  7  1  0
  7  8  1  0
  8  9  2  0
  9 10  1  0
 10 11  2  0
 11 12  1  0
 12 13  2  0
 13 14  1  0
 14 15  1  0
 14 16  2  0
 13 17  1  0
 17 18  1  0
 18 19  2  0
 18 20  1  0
 17 21  1  0
 21 22  2  0
 22  8  1  0
 21 11  1  0
  1 23  1  0
  1 24  1  0
  1 25  1  0
  2 26  1  0
  2 27  1  0
  6 28  1  0
  6 29  1  0
  7 30  1  0
  7 31  1  0
  9 32  1  0
 10 33  1  0
 12 34  1  0
 15 35  1  0
 22 36  1  0
M  CHG  3   7   1  15  -1  20  -1
M  END
>  <UniqueID>  (67) 
66

>  <SMILES>  (67) 
CCOC(=O)C[NH2+]c1ccc2cc(C([NH-])=O)n(C(=O)[O-])c2c1

>  <Energy>  (67) 
70.05694147824788

>  <Genealogy>  (67) 
CCOC(=O)C[NH2+]c1ccc2cc(C([NH-])=O)n(C(=O)[O-])c2c1 (protonated)
CCOC(=O)C[NH2+]c1ccc2cc(C([NH-])=O)n(C(=O)[O-])c2c1 (3D coordinates assigned)
CCOC(=O)C[NH2+]c1ccc2cc(C([NH-])=O)n(C(=O)[O-])c2c1 (optimized conformer: 70.05694147824788 kcal/mol)

>  <smiles>  (67) 
CCOC(=O)CNc1ccc2cc(C(N)=O)n(C(=O)O)c2c1

>  <score_type>  (67) 
oracle

>  <origin>  (67) 
adg

>  <m_score__min__energy>  (67) 
-6.0999999999999996

>  <m_primary>  (67) 
energy

$$$$
68:0
     RDKit          3D

 44 45  0  0  0  0  0  0  0  0999 V2000
  149.2290  152.7220  132.5180 C   0  0  0  0  0  0  0  0  0  0  0  0
  148.8380  154.0040  133.2610 C   0  0  0  0  0  0  0  0  0  0  0  0
  148.0530  153.7290  134.5500 C   0  0  0  0  0  0  0  0  0  0  0  0
  148.1520  154.9600  132.3770 N   0  0  0  0  0  0  0  0  0  0  0  0
  147.9470  156.3720  132.6000 C   0  0  0  0  0  0  0  0  0  0  0  0
  149.0120  157.3130  132.5660 C   0  0  0  0  0  0  0  0  0  0  0  0
  148.7770  158.6760  132.8160 C   0  0  0  0  0  0  0  0  0  0  0  0
  147.4750  159.0750  133.0970 C   0  0  0  0  0  0  0  0  0  0  0  0
  146.9770  160.3200  133.4070 C   0  0  0  0  0  0  0  0  0  0  0  0
  145.6130  160.1300  133.6170 C   0  0  0  0  0  0  0  0  0  0  0  0
  144.6720  161.2330  133.9000 C   0  0  0  0  0  0  0  0  0  0  0  0
  143.2770  161.0890  133.6470 N   0  0  0  0  0  0  0  0  0  0  0  0
  145.1110  162.3340  134.3260 O   0  0  0  0  0  0  0  0  0  0  0  0
  145.2830  158.8190  133.4480 N   0  0  0  0  0  0  0  0  0  0  0  0
  144.0080  158.1990  133.6710 C   0  0  0  0  0  0  0  0  0  0  0  0
  143.7100  157.7690  134.8190 O   0  0  0  0  0  0  0  0  0  0  0  0
  143.0940  158.0940  132.6150 O   0  0  0  0  0  0  0  0  0  0  0  0
  141.8180  157.4680  132.7320 C   0  0  0  0  0  0  0  0  0  0  0  0
  140.7160  158.5130  132.9660 C   0  0  2  0  0  0  0  0  0  0  0  0
  141.0570  159.7240  132.3400 O   0  0  0  0  0  0  0  0  0  0  0  0
  140.5220  158.7610  134.4660 C   0  0  0  0  0  0  0  0  0  0  0  0
  141.6360  159.4260  135.0000 O   0  0  0  0  0  0  0  0  0  0  0  0
  146.4340  158.1870  133.1290 C   0  0  0  0  0  0  0  0  0  0  0  0
  146.6420  156.8220  132.9050 C   0  0  0  0  0  0  0  0  0  0  0  0
  149.4692  151.9343  133.2473 H   0  0  0  0  0  0  0  0  0  0  0  0
  148.3901  152.3937  131.8867 H   0  0  0  0  0  0  0  0  0  0  0  0
  150.1083  152.9178  131.8867 H   0  0  0  0  0  0  0  0  0  0  0  0
  149.7771  154.4799  133.5797 H   0  0  0  0  0  0  0  0  0  0  0  0
  148.6878  153.9514  135.4204 H   0  0  0  0  0  0  0  0  0  0  0  0
  147.1572  154.3669  134.5769 H   0  0  0  0  0  0  0  0  0  0  0  0
  147.7511  152.6716  134.5769 H   0  0  0  0  0  0  0  0  0  0  0  0
  147.9390  154.6040  131.4170 H   0  0  0  0  0  0  0  0  0  0  0  0
  150.0327  156.9701  132.3412 H   0  0  0  0  0  0  0  0  0  0  0  0
  149.5994  159.4060  132.7901 H   0  0  0  0  0  0  0  0  0  0  0  0
  147.5370  161.2644  133.4746 H   0  0  0  0  0  0  0  0  0  0  0  0
  142.8740  160.1680  133.3660 H   0  0  0  0  0  0  0  0  0  0  0  0
  141.6008  156.9164  131.8054 H   0  0  0  0  0  0  0  0  0  0  0  0
  141.8401  156.7811  133.5908 H   0  0  0  0  0  0  0  0  0  0  0  0
  139.7793  158.1268  132.5378 H   0  0  0  0  0  0  0  0  0  0  0  0
  142.0450  159.8170  132.4060 H   0  0  0  0  0  0  0  0  0  0  0  0
  139.6242  159.3781  134.6182 H   0  0  0  0  0  0  0  0  0  0  0  0
  140.4062  157.7931  134.9756 H   0  0  0  0  0  0  0  0  0  0  0  0
  142.3420  159.4060  134.3030 H   0  0  0  0  0  0  0  0  0  0  0  0
  145.8047  156.1111  132.9651 H   0  0  0  0  0  0  0  0  0  0  0  0
  1  2  1  0
  2  3  1  0
  2  4  1  0
  4  5  1  0
  5  6  2  0
  6  7  1  0
  7  8  2  0
  8  9  1  0
  9 10  2  0
 10 11  1  0
 11 12  1  0
 11 13  2  0
 10 14  1  0
 14 15  1  0
 15 16  2  0
 15 17  1  0
 17 18  1  0
 18 19  1  0
 19 20  1  0
 19 21  1  0
 21 22  1  0
 14 23  1  0
 23 24  2  0
 24  5  1  0
 23  8  1  0
  1 25  1  0
  1 26  1  0
  1 27  1  0
  2 28  1  0
  3 29  1  0
  3 30  1  0
  3 31  1  0
  4 32  1  0
  6 33  1  0
  7 34  1  0
  9 35  1  0
 12 36  1  0
 18 37  1  0
 18 38  1  0
 19 39  1  6
 20 40  1  0
 21 41  1  0
 21 42  1  0
 22 43  1  0
 24 44  1  0
M  CHG  1  12  -1
M  END
>  <UniqueID>  (68) 
67

>  <SMILES>  (68) 
CC(C)Nc1ccc2cc(C([NH-])=O)n(C(=O)OC[C@H](O)CO)c2c1

>  <Energy>  (68) 
79.50004243244975

>  <Genealogy>  (68) 
CC(C)Nc1ccc2cc(C([NH-])=O)n(C(=O)OCC(O)CO)c2c1 (protonated)
CC(C)Nc1ccc2cc(C([NH-])=O)n(C(=O)OC[C@H](O)CO)c2c1 (chirality)
CC(C)Nc1ccc2cc(C([NH-])=O)n(C(=O)OC[C@H](O)CO)c2c1 (3D coordinates assigned)
CC(C)Nc1ccc2cc(C([NH-])=O)n(C(=O)OC[C@H](O)CO)c2c1 (optimized conformer: 79.50004243244975 kcal/mol)

>  <smiles>  (68) 
CC(C)Nc1ccc2cc(C(N)=O)n(C(=O)OCC(O)CO)c2c1

>  <score_type>  (68) 
oracle

>  <origin>  (68) 
adg

>  <m_score__min__energy>  (68) 
-6.1900000000000004

>  <m_primary>  (68) 
energy

$$$$
69:0
     RDKit          3D

 34 36  0  0  0  0  0  0  0  0999 V2000
  149.3420  162.3030  130.3440 C   0  0  0  0  0  0  0  0  0  0  0  0
  149.6180  160.8320  130.3250 C   0  0  0  0  0  0  0  0  0  0  0  0
  150.3550  160.3570  129.4190 O   0  0  0  0  0  0  0  0  0  0  0  0
  149.0570  159.9620  131.3210 N   0  0  0  0  0  0  0  0  0  0  0  0
  149.7200  159.1660  132.1850 C   0  0  0  0  0  0  0  0  0  0  0  0
  148.8780  158.4860  132.9850 N   0  0  0  0  0  0  0  0  0  0  0  0
  147.6360  158.8640  132.6150 C   0  0  0  0  0  0  0  0  0  0  0  0
  146.3780  158.3650  133.2250 C   0  0  0  0  0  0  0  0  0  0  0  0
  146.2880  157.0280  133.6920 C   0  0  0  0  0  0  0  0  0  0  0  0
  145.1000  156.5410  134.2600 C   0  0  0  0  0  0  0  0  0  0  0  0
  144.0200  157.4120  134.3620 C   0  0  0  0  0  0  0  0  0  0  0  0
  142.7500  157.1930  134.8420 C   0  0  0  0  0  0  0  0  0  0  0  0
  142.0840  158.4070  134.6910 C   0  0  0  0  0  0  0  0  0  0  0  0
  140.7020  158.6380  135.1640 C   0  0  0  0  0  0  0  0  0  0  0  0
  140.4380  158.9540  136.5290 N   0  0  0  0  0  0  0  0  0  0  0  0
  139.7390  158.5060  134.3640 O   0  0  0  0  0  0  0  0  0  0  0  0
  142.9060  159.3370  134.1280 N   0  0  0  0  0  0  0  0  0  0  0  0
  142.5810  160.6800  133.7310 C   0  0  0  0  0  0  0  0  0  0  0  0
  141.4110  160.9670  133.3620 O   0  0  0  0  0  0  0  0  0  0  0  0
  143.5580  161.6660  133.7260 O   0  0  0  0  0  0  0  0  0  0  0  0
  144.0900  158.7120  133.9370 C   0  0  0  0  0  0  0  0  0  0  0  0
  145.2550  159.2180  133.3470 C   0  0  0  0  0  0  0  0  0  0  0  0
  147.7470  159.7790  131.5820 C   0  0  0  0  0  0  0  0  0  0  0  0
  149.2768  162.6504  131.3857 H   0  0  0  0  0  0  0  0  0  0  0  0
  150.1559  162.8354  129.8301 H   0  0  0  0  0  0  0  0  0  0  0  0
  148.3904  162.5042  129.8301 H   0  0  0  0  0  0  0  0  0  0  0  0
  150.8159  159.0828  132.2302 H   0  0  0  0  0  0  0  0  0  0  0  0
  149.1500  157.7960  133.7180 H   0  0  0  0  0  0  0  0  0  0  0  0
  147.1610  156.3641  133.6078 H   0  0  0  0  0  0  0  0  0  0  0  0
  145.0254  155.5021  134.6137 H   0  0  0  0  0  0  0  0  0  0  0  0
  142.3460  156.2578  135.2570 H   0  0  0  0  0  0  0  0  0  0  0  0
  139.4590  159.0720  136.8720 H   0  0  0  0  0  0  0  0  0  0  0  0
  145.2965  160.2563  132.9861 H   0  0  0  0  0  0  0  0  0  0  0  0
  146.9110  160.2715  131.0638 H   0  0  0  0  0  0  0  0  0  0  0  0
  1  2  1  0
  2  3  2  0
  2  4  1  0
  4  5  1  0
  5  6  2  0
  6  7  1  0
  7  8  1  0
  8  9  2  0
  9 10  1  0
 10 11  2  0
 11 12  1  0
 12 13  2  0
 13 14  1  0
 14 15  1  0
 14 16  2  0
 13 17  1  0
 17 18  1  0
 18 19  2  0
 18 20  1  0
 17 21  1  0
 21 22  2  0
  7 23  2  0
 23  4  1  0
 22  8  1  0
 21 11  1  0
  1 24  1  0
  1 25  1  0
  1 26  1  0
  5 27  1  0
  6 28  1  0
  9 29  1  0
 10 30  1  0
 12 31  1  0
 15 32  1  0
 22 33  1  0
 23 34  1  0
M  CHG  3   6   1  15  -1  20  -1
M  END
>  <UniqueID>  (69) 
68

>  <SMILES>  (69) 
CC(=O)n1c[nH+]c(-c2ccc3cc(C([NH-])=O)n(C(=O)[O-])c3c2)c1

>  <Energy>  (69) 
108.08864640840815

>  <Genealogy>  (69) 
CC(=O)n1c[nH+]c(-c2ccc3cc(C([NH-])=O)n(C(=O)[O-])c3c2)c1 (protonated)
CC(=O)n1c[nH+]c(-c2ccc3cc(C([NH-])=O)n(C(=O)[O-])c3c2)c1 (3D coordinates assigned)
CC(=O)n1c[nH+]c(-c2ccc3cc(C([NH-])=O)n(C(=O)[O-])c3c2)c1 (optimized conformer: 108.08864640840815 kcal/mol)

>  <smiles>  (69) 
CC(=O)n1cnc(-c2ccc3cc(C(N)=O)n(C(=O)O)c3c2)c1

>  <score_type>  (69) 
oracle

>  <origin>  (69) 
adg

>  <m_score__min__energy>  (69) 
-7.1600000000000001

>  <m_primary>  (69) 
energy

$$$$
70:0
     RDKit          3D

 27 28  0  0  0  0  0  0  0  0999 V2000
  148.9700  152.2660  140.6250 N   0  0  0  0  0  0  0  0  0  0  0  0
  148.1400  151.1170  140.8020 C   0  0  0  0  0  0  0  0  0  0  0  0
  148.6580  150.0330  141.1840 O   0  0  0  0  0  0  0  0  0  0  0  0
  146.7000  151.1590  140.4800 C   0  0  0  0  0  0  0  0  0  0  0  0
  145.7530  150.3590  141.1120 C   0  0  0  0  0  0  0  0  0  0  0  0
  144.5610  150.6470  140.4880 C   0  0  0  0  0  0  0  0  0  0  0  0
  143.2830  150.1520  140.7310 C   0  0  0  0  0  0  0  0  0  0  0  0
  142.2220  150.6570  139.9620 C   0  0  0  0  0  0  0  0  0  0  0  0
  142.4560  151.6420  138.9700 C   0  0  0  0  0  0  0  0  0  0  0  0
  141.3060  152.2090  138.1860 C   0  0  0  0  0  0  0  0  0  0  0  0
  140.4850  151.1020  137.6060 C   0  0  0  0  0  0  0  0  0  0  0  0
  140.6100  150.7890  136.3920 O   0  0  0  0  0  0  0  0  0  0  0  0
  139.5470  150.4460  138.3930 O   0  0  0  0  0  0  0  0  0  0  0  0
  143.7650  152.1310  138.7600 C   0  0  0  0  0  0  0  0  0  0  0  0
  144.8070  151.5950  139.5260 C   0  0  0  0  0  0  0  0  0  0  0  0
  146.1200  151.9230  139.5120 N   0  0  0  0  0  0  0  0  0  0  0  0
  146.7420  152.9580  138.7310 C   0  0  0  0  0  0  0  0  0  0  0  0
  146.8470  152.8400  137.4820 O   0  0  0  0  0  0  0  0  0  0  0  0
  147.2300  154.1040  139.3470 O   0  0  0  0  0  0  0  0  0  0  0  0
  149.9800  152.2290  140.8910 H   0  0  0  0  0  0  0  0  0  0  0  0
  148.6090  153.1250  140.1550 H   0  0  0  0  0  0  0  0  0  0  0  0
  145.9213  149.6483  141.9346 H   0  0  0  0  0  0  0  0  0  0  0  0
  143.1092  149.3877  141.5027 H   0  0  0  0  0  0  0  0  0  0  0  0
  141.2007  150.2850  140.1309 H   0  0  0  0  0  0  0  0  0  0  0  0
  140.6770  152.8183  138.8516 H   0  0  0  0  0  0  0  0  0  0  0  0
  141.6992  152.8321  137.3692 H   0  0  0  0  0  0  0  0  0  0  0  0
  143.9606  152.9140  138.0126 H   0  0  0  0  0  0  0  0  0  0  0  0
  1  2  1  0
  2  3  2  0
  2  4  1  0
  4  5  2  0
  5  6  1  0
  6  7  2  0
  7  8  1  0
  8  9  2  0
  9 10  1  0
 10 11  1  0
 11 12  2  0
 11 13  1  0
  9 14  1  0
 14 15  2  0
 15 16  1  0
 16 17  1  0
 17 18  2  0
 17 19  1  0
 16  4  1  0
 15  6  1  0
  1 20  1  0
  1 21  1  0
  5 22  1  0
  7 23  1  0
  8 24  1  0
 10 25  1  0
 10 26  1  0
 14 27  1  0
M  CHG  2  13  -1  19  -1
M  END
>  <UniqueID>  (70) 
69

>  <SMILES>  (70) 
NC(=O)c1cc2ccc(CC(=O)[O-])cc2n1C(=O)[O-]

>  <Energy>  (70) 
65.90165910149771

>  <Genealogy>  (70) 
NC(=O)c1cc2ccc(CC(=O)[O-])cc2n1C(=O)[O-] (protonated)
NC(=O)c1cc2ccc(CC(=O)[O-])cc2n1C(=O)[O-] (3D coordinates assigned)
NC(=O)c1cc2ccc(CC(=O)[O-])cc2n1C(=O)[O-] (optimized conformer: 65.90165910149771 kcal/mol)

>  <smiles>  (70) 
NC(=O)c1cc2ccc(CC(=O)O)cc2n1C(=O)O

>  <score_type>  (70) 
oracle

>  <origin>  (70) 
adg

>  <m_score__min__energy>  (70) 
-6.6399999999999997

>  <m_primary>  (70) 
energy

$$$$
71:0
     RDKit          3D

 36 37  0  0  0  0  0  0  0  0999 V2000
  148.2850  161.0290  131.0920 N   0  0  0  0  0  0  0  0  0  0  0  0
  149.1370  159.9440  131.4530 C   0  0  0  0  0  0  0  0  0  0  0  0
  150.3400  159.9490  131.0770 O   0  0  0  0  0  0  0  0  0  0  0  0
  148.6070  158.7900  132.2050 C   0  0  0  0  0  0  0  0  0  0  0  0
  149.2280  157.5420  132.2440 C   0  0  0  0  0  0  0  0  0  0  0  0
  148.3590  156.7250  132.9350 C   0  0  0  0  0  0  0  0  0  0  0  0
  148.4670  155.3790  133.2690 C   0  0  0  0  0  0  0  0  0  0  0  0
  147.4130  154.7930  133.9920 C   0  0  0  0  0  0  0  0  0  0  0  0
  146.2870  155.5630  134.3790 C   0  0  0  0  0  0  0  0  0  0  0  0
  145.1520  154.9090  135.1190 C   0  0  0  0  0  0  0  0  0  0  0  0
  144.5610  153.9550  134.3100 F   0  0  0  0  0  0  0  0  0  0  0  0
  145.6260  154.3030  136.2710 F   0  0  0  0  0  0  0  0  0  0  0  0
  146.2140  156.9270  134.0240 C   0  0  0  0  0  0  0  0  0  0  0  0
  147.2690  157.4780  133.2870 C   0  0  0  0  0  0  0  0  0  0  0  0
  147.4110  158.7480  132.8510 N   0  0  0  0  0  0  0  0  0  0  0  0
  146.5310  159.8450  133.1370 C   0  0  0  0  0  0  0  0  0  0  0  0
  146.9780  160.8740  133.7160 O   0  0  0  0  0  0  0  0  0  0  0  0
  145.1980  159.7890  132.7170 O   0  0  0  0  0  0  0  0  0  0  0  0
  144.1720  159.1760  133.4930 C   0  0  0  0  0  0  0  0  0  0  0  0
  143.5970  160.1240  134.3640 O   0  0  0  0  0  0  0  0  0  0  0  0
  141.8960  160.1110  134.1860 P   0  0  2  0  0  0  0  0  0  0  0  0
  141.4750  158.9020  133.3750 O   0  0  0  0  0  0  0  0  0  0  0  0
  141.3910  161.5130  133.3810 O   0  0  0  0  0  0  0  0  0  0  0  0
  141.1320  160.0640  135.7070 O   0  0  0  0  0  0  0  0  0  0  0  0
  141.3290  158.4930  136.3380 P   0  0  0  0  0  0  0  0  0  0  0  0
  142.4540  157.7870  135.6110 O   0  0  0  0  0  0  0  0  0  0  0  0
  139.9020  157.5920  136.1950 O   0  0  0  0  0  0  0  0  0  0  0  0
  141.7320  158.6080  137.9750 O   0  0  0  0  0  0  0  0  0  0  0  0
  147.7350  161.5440  131.8150 H   0  0  0  0  0  0  0  0  0  0  0  0
  150.2031  157.2680  131.8150 H   0  0  0  0  0  0  0  0  0  0  0  0
  149.3496  154.7912  132.9766 H   0  0  0  0  0  0  0  0  0  0  0  0
  147.4624  153.7273  134.2599 H   0  0  0  0  0  0  0  0  0  0  0  0
  144.4110  155.6754  135.3903 H   0  0  0  0  0  0  0  0  0  0  0  0
  145.3504  157.5413  134.3188 H   0  0  0  0  0  0  0  0  0  0  0  0
  143.3957  158.7789  132.8224 H   0  0  0  0  0  0  0  0  0  0  0  0
  144.6065  158.3572  134.0852 H   0  0  0  0  0  0  0  0  0  0  0  0
  1  2  1  0
  2  3  2  0
  2  4  1  0
  4  5  2  0
  5  6  1  0
  6  7  2  0
  7  8  1  0
  8  9  2  0
  9 10  1  0
 10 11  1  0
 10 12  1  0
  9 13  1  0
 13 14  2  0
 14 15  1  0
 15 16  1  0
 16 17  2  0
 16 18  1  0
 18 19  1  0
 19 20  1  0
 20 21  1  0
 21 22  2  0
 21 23  1  6
 21 24  1  0
 24 25  1  0
 25 26  2  0
 25 27  1  0
 25 28  1  0
 15  4  1  0
 14  6  1  0
  1 29  1  0
  5 30  1  0
  7 31  1  0
  8 32  1  0
 10 33  1  0
 13 34  1  0
 19 35  1  0
 19 36  1  0
M  CHG  4   1  -1  23  -1  27  -1  28  -1
M  END
>  <UniqueID>  (71) 
70

>  <SMILES>  (71) 
[NH-]C(=O)c1cc2ccc(C(F)F)cc2n1C(=O)OCO[P@](=O)([O-])OP(=O)([O-])[O-]

>  <Energy>  (71) 
72.62469151668994

>  <Genealogy>  (71) 
[NH-]C(=O)c1cc2ccc(C(F)F)cc2n1C(=O)OCOP(=O)([O-])OP(=O)([O-])[O-] (protonated)
[NH-]C(=O)c1cc2ccc(C(F)F)cc2n1C(=O)OCO[P@](=O)([O-])OP(=O)([O-])[O-] (chirality)
[NH-]C(=O)c1cc2ccc(C(F)F)cc2n1C(=O)OCO[P@](=O)([O-])OP(=O)([O-])[O-] (3D coordinates assigned)
[NH-]C(=O)c1cc2ccc(C(F)F)cc2n1C(=O)OCO[P@](=O)([O-])OP(=O)([O-])[O-] (optimized conformer: 72.62469151668994 kcal/mol)

>  <smiles>  (71) 
NC(=O)c1cc2ccc(C(F)F)cc2n1C(=O)OCOP(=O)(O)OP(=O)(O)O

>  <score_type>  (71) 
oracle

>  <origin>  (71) 
adg

>  <m_score__min__energy>  (71) 
-7.04

>  <m_primary>  (71) 
energy

$$$$
72:0
     RDKit          3D

 51 52  0  0  0  0  0  0  0  0999 V2000
  141.6350  156.1390  138.6200 C   0  0  0  0  0  0  0  0  0  0  0  0
  141.3110  157.0360  137.4620 C   0  0  0  0  0  0  0  0  0  0  0  0
  141.2350  158.4380  137.6550 C   0  0  0  0  0  0  0  0  0  0  0  0
  140.8760  159.2870  136.5940 C   0  0  0  0  0  0  0  0  0  0  0  0
  140.6010  158.7080  135.3590 C   0  0  0  0  0  0  0  0  0  0  0  0
  140.1980  159.2880  134.1780 C   0  0  0  0  0  0  0  0  0  0  0  0
  140.0510  158.2330  133.2820 C   0  0  0  0  0  0  0  0  0  0  0  0
  139.6780  158.4140  131.8640 C   0  0  0  0  0  0  0  0  0  0  0  0
  138.7340  157.5510  131.2270 N   0  0  0  0  0  0  0  0  0  0  0  0
  140.2370  159.3200  131.1880 O   0  0  0  0  0  0  0  0  0  0  0  0
  140.3340  157.0460  133.8870 N   0  0  0  0  0  0  0  0  0  0  0  0
  140.1900  155.7200  133.3520 C   0  0  0  0  0  0  0  0  0  0  0  0
  139.1230  155.3950  132.7640 O   0  0  0  0  0  0  0  0  0  0  0  0
  141.3130  154.7260  133.4420 C   0  0  0  0  0  0  0  0  0  0  0  0
  140.9120  153.4380  132.8720 N   0  0  0  0  0  0  0  0  0  0  0  0
  141.7410  152.2600  132.9440 C   0  0  0  0  0  0  0  0  0  0  0  0
  143.3190  152.4040  133.4040 S   0  0  0  0  0  0  0  0  0  0  0  0
  141.1880  150.9590  132.6200 N   0  0  0  0  0  0  0  0  0  0  0  0
  142.0530  149.7740  132.6470 C   0  0  0  0  0  0  0  0  0  0  0  0
  139.7880  150.7940  132.2000 C   0  0  0  0  0  0  0  0  0  0  0  0
  139.7130  150.3020  130.7470 C   0  0  0  0  0  0  0  0  0  0  0  0
  139.0090  149.0030  130.6600 N   0  0  0  0  0  0  0  0  0  0  0  0
  139.8620  147.9340  131.2060 C   0  0  0  0  0  0  0  0  0  0  0  0
  138.6630  148.6800  129.2620 C   0  0  0  0  0  0  0  0  0  0  0  0
  140.6750  157.3530  135.1570 C   0  0  0  0  0  0  0  0  0  0  0  0
  141.0080  156.4810  136.1990 C   0  0  0  0  0  0  0  0  0  0  0  0
  141.4422  156.6727  139.5623 H   0  0  0  0  0  0  0  0  0  0  0  0
  141.0054  155.2382  138.5734 H   0  0  0  0  0  0  0  0  0  0  0  0
  142.6949  155.8484  138.5734 H   0  0  0  0  0  0  0  0  0  0  0  0
  141.4589  158.8653  138.6436 H   0  0  0  0  0  0  0  0  0  0  0  0
  140.8143  160.3761  136.7356 H   0  0  0  0  0  0  0  0  0  0  0  0
  140.0282  160.3573  133.9835 H   0  0  0  0  0  0  0  0  0  0  0  0
  138.3880  156.6870  131.6980 H   0  0  0  0  0  0  0  0  0  0  0  0
  138.4370  157.7360  130.2430 H   0  0  0  0  0  0  0  0  0  0  0  0
  142.1815  155.1114  132.8877 H   0  0  0  0  0  0  0  0  0  0  0  0
  141.5706  154.5788  134.5012 H   0  0  0  0  0  0  0  0  0  0  0  0
  139.9930  153.3760  132.3790 H   0  0  0  0  0  0  0  0  0  0  0  0
  142.2579  149.4933  133.6907 H   0  0  0  0  0  0  0  0  0  0  0  0
  141.5493  148.9406  132.1353 H   0  0  0  0  0  0  0  0  0  0  0  0
  143.0002  149.9997  132.1353 H   0  0  0  0  0  0  0  0  0  0  0  0
  139.2981  150.0594  132.8560 H   0  0  0  0  0  0  0  0  0  0  0  0
  139.2798  151.7669  132.2712 H   0  0  0  0  0  0  0  0  0  0  0  0
  139.1714  151.0453  130.1435 H   0  0  0  0  0  0  0  0  0  0  0  0
  140.7377  150.1700  130.3695 H   0  0  0  0  0  0  0  0  0  0  0  0
  139.8346  147.9684  132.3051 H   0  0  0  0  0  0  0  0  0  0  0  0
  139.4923  146.9574  130.8604 H   0  0  0  0  0  0  0  0  0  0  0  0
  140.8963  148.0777  130.8604 H   0  0  0  0  0  0  0  0  0  0  0  0
  137.8590  147.9294  129.2473 H   0  0  0  0  0  0  0  0  0  0  0  0
  138.3232  149.5914  128.7484 H   0  0  0  0  0  0  0  0  0  0  0  0
  139.5490  148.2784  128.7484 H   0  0  0  0  0  0  0  0  0  0  0  0
  141.0332  155.3930  136.0391 H   0  0  0  0  0  0  0  0  0  0  0  0
  1  2  1  0
  2  3  2  0
  3  4  1  0
  4  5  2  0
  5  6  1  0
  6  7  2  0
  7  8  1  0
  8  9  1  0
  8 10  2  0
  7 11  1  0
 11 12  1  0
 12 13  2  0
 12 14  1  0
 14 15  1  0
 15 16  1  0
 16 17  2  0
 16 18  1  0
 18 19  1  0
 18 20  1  0
 20 21  1  0
 21 22  1  0
 22 23  1  0
 22 24  1  0
 11 25  1  0
 25 26  2  0
 26  2  1  0
 25  5  1  0
  1 27  1  0
  1 28  1  0
  1 29  1  0
  3 30  1  0
  4 31  1  0
  6 32  1  0
  9 33  1  0
  9 34  1  0
 14 35  1  0
 14 36  1  0
 15 37  1  0
 19 38  1  0
 19 39  1  0
 19 40  1  0
 20 41  1  0
 20 42  1  0
 21 43  1  0
 21 44  1  0
 23 45  1  0
 23 46  1  0
 23 47  1  0
 24 48  1  0
 24 49  1  0
 24 50  1  0
 26 51  1  0
M  END
>  <UniqueID>  (72) 
71

>  <SMILES>  (72) 
Cc1ccc2cc(C(N)=O)n(C(=O)CNC(=S)N(C)CCN(C)C)c2c1

>  <Energy>  (72) 
88.097257927517

>  <Genealogy>  (72) 
Cc1ccc2cc(C(N)=O)n(C(=O)CNC(=S)N(C)CCN(C)C)c2c1 (3D coordinates assigned)
Cc1ccc2cc(C(N)=O)n(C(=O)CNC(=S)N(C)CCN(C)C)c2c1 (optimized conformer: 88.097257927517 kcal/mol)

>  <smiles>  (72) 
Cc1ccc2cc(C(N)=O)n(C(=O)CNC(=S)N(C)CCN(C)C)c2c1

>  <score_type>  (72) 
oracle

>  <origin>  (72) 
adg

>  <m_score__min__energy>  (72) 
-8.4600000000000009

>  <m_primary>  (72) 
energy

$$$$
73:0
     RDKit          3D

 54 56  0  0  0  0  0  0  0  0999 V2000
  142.0430  155.1710  136.0340 C   0  0  0  0  0  0  0  0  0  0  0  0
  141.7240  155.6470  134.7320 O   0  0  0  0  0  0  0  0  0  0  0  0
  141.5270  154.7920  133.6440 C   0  0  0  0  0  0  0  0  0  0  0  0
  140.3780  154.6270  133.1520 O   0  0  0  0  0  0  0  0  0  0  0  0
  142.6960  154.0950  133.0330 C   0  0  0  0  0  0  0  0  0  0  0  0
  143.8440  154.3090  133.8440 O   0  0  0  0  0  0  0  0  0  0  0  0
  145.1460  154.2750  133.3390 C   0  0  0  0  0  0  0  0  0  0  0  0
  145.6080  153.2130  132.8390 O   0  0  0  0  0  0  0  0  0  0  0  0
  145.9510  155.4640  133.3700 N   0  0  0  0  0  0  0  0  0  0  0  0
  147.3100  155.5620  133.3130 C   0  0  0  0  0  0  0  0  0  0  0  0
  148.2650  154.4340  133.3560 C   0  0  0  0  0  0  0  0  0  0  0  0
  148.0490  153.3560  134.2640 N   0  0  0  0  0  0  0  0  0  0  0  0
  149.2510  154.3940  132.5750 O   0  0  0  0  0  0  0  0  0  0  0  0
  147.7020  156.8990  133.2910 C   0  0  0  0  0  0  0  0  0  0  0  0
  146.5330  157.6240  133.3450 C   0  0  0  0  0  0  0  0  0  0  0  0
  146.3330  159.0000  133.3320 C   0  0  0  0  0  0  0  0  0  0  0  0
  145.0100  159.4720  133.3520 C   0  0  0  0  0  0  0  0  0  0  0  0
  143.9170  158.5650  133.3780 C   0  0  0  0  0  0  0  0  0  0  0  0
  142.5620  159.0390  133.3370 N   0  0  0  0  0  0  0  0  0  0  0  0
  141.6230  158.7660  134.3820 C   0  0  0  0  0  0  0  0  0  0  0  0
  142.0570  158.7980  135.7140 C   0  0  0  0  0  0  0  0  0  0  0  0
  141.1580  158.5550  136.7540 C   0  0  0  0  0  0  0  0  0  0  0  0
  139.8200  158.2710  136.4700 C   0  0  0  0  0  0  0  0  0  0  0  0
  139.3800  158.2240  135.1450 C   0  0  0  0  0  0  0  0  0  0  0  0
  140.2750  158.4640  134.0890 C   0  0  0  0  0  0  0  0  0  0  0  0
  139.7010  158.3790  132.4170 S   0  0  0  0  0  0  0  0  0  0  0  0
  140.8670  158.6110  131.4960 O   0  0  0  0  0  0  0  0  0  0  0  0
  139.1390  157.0120  132.1330 O   0  0  0  0  0  0  0  0  0  0  0  0
  138.4770  159.5950  132.1480 N   0  0  0  0  0  0  0  0  0  0  0  0
  139.1110  160.8510  131.7330 C   0  0  0  0  0  0  0  0  0  0  0  0
  137.5390  159.1310  131.1180 C   0  0  0  0  0  0  0  0  0  0  0  0
  144.1640  157.1780  133.4090 C   0  0  0  0  0  0  0  0  0  0  0  0
  145.4910  156.7340  133.3950 C   0  0  0  0  0  0  0  0  0  0  0  0
  141.5968  155.8368  136.7873 H   0  0  0  0  0  0  0  0  0  0  0  0
  141.6434  154.1540  136.1607 H   0  0  0  0  0  0  0  0  0  0  0  0
  143.1355  155.1541  136.1607 H   0  0  0  0  0  0  0  0  0  0  0  0
  142.4881  153.0169  132.9668 H   0  0  0  0  0  0  0  0  0  0  0  0
  142.8772  154.4927  132.0236 H   0  0  0  0  0  0  0  0  0  0  0  0
  147.2890  152.6610  134.1000 H   0  0  0  0  0  0  0  0  0  0  0  0
  148.7282  157.2919  133.2411 H   0  0  0  0  0  0  0  0  0  0  0  0
  147.1837  159.6968  133.3068 H   0  0  0  0  0  0  0  0  0  0  0  0
  144.8184  160.5552  133.3475 H   0  0  0  0  0  0  0  0  0  0  0  0
  142.2810  159.7270  132.6010 H   0  0  0  0  0  0  0  0  0  0  0  0
  143.1111  159.0156  135.9412 H   0  0  0  0  0  0  0  0  0  0  0  0
  141.5034  158.5872  137.7979 H   0  0  0  0  0  0  0  0  0  0  0  0
  139.1120  158.0841  137.2908 H   0  0  0  0  0  0  0  0  0  0  0  0
  138.3259  157.9976  134.9270 H   0  0  0  0  0  0  0  0  0  0  0  0
  139.4017  161.4269  132.6240 H   0  0  0  0  0  0  0  0  0  0  0  0
  140.0052  160.6293  131.1319 H   0  0  0  0  0  0  0  0  0  0  0  0
  138.4016  161.4387  131.1319 H   0  0  0  0  0  0  0  0  0  0  0  0
  136.6527  158.6926  131.5999 H   0  0  0  0  0  0  0  0  0  0  0  0
  137.2326  159.9814  130.4912 H   0  0  0  0  0  0  0  0  0  0  0  0
  138.0290  158.3714  130.4912 H   0  0  0  0  0  0  0  0  0  0  0  0
  143.3316  156.4597  133.4434 H   0  0  0  0  0  0  0  0  0  0  0  0
  1  2  1  0
  2  3  1  0
  3  4  2  0
  3  5  1  0
  5  6  1  0
  6  7  1  0
  7  8  2  0
  7  9  1  0
  9 10  1  0
 10 11  1  0
 11 12  1  0
 11 13  2  0
 10 14  2  0
 14 15  1  0
 15 16  2  0
 16 17  1  0
 17 18  2  0
 18 19  1  0
 19 20  1  0
 20 21  2  0
 21 22  1  0
 22 23  2  0
 23 24  1  0
 24 25  2  0
 25 26  1  0
 26 27  2  0
 26 28  2  0
 26 29  1  0
 29 30  1  0
 29 31  1  0
 18 32  1  0
 32 33  2  0
 33  9  1  0
 33 15  1  0
 25 20  1  0
  1 34  1  0
  1 35  1  0
  1 36  1  0
  5 37  1  0
  5 38  1  0
 12 39  1  0
 14 40  1  0
 16 41  1  0
 17 42  1  0
 19 43  1  0
 21 44  1  0
 22 45  1  0
 23 46  1  0
 24 47  1  0
 30 48  1  0
 30 49  1  0
 30 50  1  0
 31 51  1  0
 31 52  1  0
 31 53  1  0
 32 54  1  0
M  CHG  1  12  -1
M  END
>  <UniqueID>  (73) 
72

>  <SMILES>  (73) 
COC(=O)COC(=O)n1c(C([NH-])=O)cc2ccc(Nc3ccccc3S(=O)(=O)N(C)C)cc21

>  <Energy>  (73) 
92.9658874089412

>  <Genealogy>  (73) 
COC(=O)COC(=O)n1c(C([NH-])=O)cc2ccc(Nc3ccccc3S(=O)(=O)N(C)C)cc21 (protonated)
COC(=O)COC(=O)n1c(C([NH-])=O)cc2ccc(Nc3ccccc3S(=O)(=O)N(C)C)cc21 (3D coordinates assigned)
COC(=O)COC(=O)n1c(C([NH-])=O)cc2ccc(Nc3ccccc3S(=O)(=O)N(C)C)cc21 (optimized conformer: 92.9658874089412 kcal/mol)

>  <smiles>  (73) 
COC(=O)COC(=O)n1c(C(N)=O)cc2ccc(Nc3ccccc3S(=O)(=O)N(C)C)cc21

>  <score_type>  (73) 
oracle

>  <origin>  (73) 
adg

>  <m_score__min__energy>  (73) 
-8.0399999999999991

>  <m_primary>  (73) 
energy

$$$$
74:0
     RDKit          3D

 37 38  0  0  0  0  0  0  0  0999 V2000
  147.0980  153.5370  133.0080 C   0  0  0  0  0  0  0  0  0  0  0  0
  148.1440  154.5500  132.8230 N   0  0  0  0  0  0  0  0  0  0  0  0
  149.5110  154.1110  132.5180 C   0  0  0  0  0  0  0  0  0  0  0  0
  147.8320  155.9640  132.9400 C   0  0  0  0  0  0  0  0  0  0  0  0
  148.8550  156.9470  132.8120 C   0  0  0  0  0  0  0  0  0  0  0  0
  148.5660  158.3150  132.9350 C   0  0  0  0  0  0  0  0  0  0  0  0
  147.2480  158.6850  133.1770 C   0  0  0  0  0  0  0  0  0  0  0  0
  146.7000  159.9330  133.3620 C   0  0  0  0  0  0  0  0  0  0  0  0
  145.3420  159.7110  133.5770 C   0  0  0  0  0  0  0  0  0  0  0  0
  144.3550  160.8000  133.7360 C   0  0  0  0  0  0  0  0  0  0  0  0
  142.9900  160.6120  133.3710 N   0  0  0  0  0  0  0  0  0  0  0  0
  144.7320  161.9280  134.1530 O   0  0  0  0  0  0  0  0  0  0  0  0
  145.0650  158.3770  133.5370 N   0  0  0  0  0  0  0  0  0  0  0  0
  143.8060  157.7310  133.7840 C   0  0  0  0  0  0  0  0  0  0  0  0
  143.6630  157.0010  134.8020 O   0  0  0  0  0  0  0  0  0  0  0  0
  142.7570  157.8900  132.8720 O   0  0  0  0  0  0  0  0  0  0  0  0
  141.4590  157.3220  133.0510 C   0  0  0  0  0  0  0  0  0  0  0  0
  140.3710  158.3660  132.8030 C   0  0  0  0  0  0  0  0  0  0  0  0
  140.8110  159.3140  131.8720 O   0  0  0  0  0  0  0  0  0  0  0  0
  146.2420  157.7640  133.2870 C   0  0  0  0  0  0  0  0  0  0  0  0
  146.5020  156.3920  133.1890 C   0  0  0  0  0  0  0  0  0  0  0  0
  146.9306  153.3749  134.0830 H   0  0  0  0  0  0  0  0  0  0  0  0
  146.1649  153.8837  132.5398 H   0  0  0  0  0  0  0  0  0  0  0  0
  147.4146  152.5933  132.5398 H   0  0  0  0  0  0  0  0  0  0  0  0
  150.0577  153.9354  133.4563 H   0  0  0  0  0  0  0  0  0  0  0  0
  149.4753  153.1791  131.9346 H   0  0  0  0  0  0  0  0  0  0  0  0
  150.0245  154.8894  131.9346 H   0  0  0  0  0  0  0  0  0  0  0  0
  149.8890  156.6286  132.6134 H   0  0  0  0  0  0  0  0  0  0  0  0
  149.3589  159.0719  132.8426 H   0  0  0  0  0  0  0  0  0  0  0  0
  147.2230  160.9005  133.3440 H   0  0  0  0  0  0  0  0  0  0  0  0
  142.7300  160.0310  132.5430 H   0  0  0  0  0  0  0  0  0  0  0  0
  141.3286  156.4901  132.3432 H   0  0  0  0  0  0  0  0  0  0  0  0
  141.3718  156.9610  134.0864 H   0  0  0  0  0  0  0  0  0  0  0  0
  139.4708  157.8669  132.4150 H   0  0  0  0  0  0  0  0  0  0  0  0
  140.1407  158.8750  133.7506 H   0  0  0  0  0  0  0  0  0  0  0  0
  141.7900  159.4020  132.0100 H   0  0  0  0  0  0  0  0  0  0  0  0
  145.6900  155.6588  133.3029 H   0  0  0  0  0  0  0  0  0  0  0  0
  1  2  1  0
  2  3  1  0
  2  4  1  0
  4  5  2  0
  5  6  1  0
  6  7  2  0
  7  8  1  0
  8  9  2  0
  9 10  1  0
 10 11  1  0
 10 12  2  0
  9 13  1  0
 13 14  1  0
 14 15  2  0
 14 16  1  0
 16 17  1  0
 17 18  1  0
 18 19  1  0
 13 20  1  0
 20 21  2  0
 21  4  1  0
 20  7  1  0
  1 22  1  0
  1 23  1  0
  1 24  1  0
  3 25  1  0
  3 26  1  0
  3 27  1  0
  5 28  1  0
  6 29  1  0
  8 30  1  0
 11 31  1  0
 17 32  1  0
 17 33  1  0
 18 34  1  0
 18 35  1  0
 19 36  1  0
 21 37  1  0
M  CHG  1  11  -1
M  END
>  <UniqueID>  (74) 
73

>  <SMILES>  (74) 
CN(C)c1ccc2cc(C([NH-])=O)n(C(=O)OCCO)c2c1

>  <Energy>  (74) 
74.05500331833116

>  <Genealogy>  (74) 
CN(C)c1ccc2cc(C([NH-])=O)n(C(=O)OCCO)c2c1 (protonated)
CN(C)c1ccc2cc(C([NH-])=O)n(C(=O)OCCO)c2c1 (3D coordinates assigned)
CN(C)c1ccc2cc(C([NH-])=O)n(C(=O)OCCO)c2c1 (optimized conformer: 74.05500331833116 kcal/mol)

>  <smiles>  (74) 
CN(C)c1ccc2cc(C(N)=O)n(C(=O)OCCO)c2c1

>  <score_type>  (74) 
oracle

>  <origin>  (74) 
adg

>  <m_score__min__energy>  (74) 
-5.2699999999999996

>  <m_primary>  (74) 
energy

$$$$
75:0
     RDKit          3D

 36 37  0  0  0  0  0  0  0  0999 V2000
  148.0730  156.2920  135.2400 C   0  0  0  0  0  0  0  0  0  0  0  0
  147.1520  155.8120  134.4000 C   0  0  0  0  0  0  0  0  0  0  0  0
  146.8380  156.5090  133.1300 C   0  0  0  0  0  0  0  0  0  0  0  0
  147.0200  155.9180  132.0320 O   0  0  0  0  0  0  0  0  0  0  0  0
  146.3420  157.8570  133.1240 N   0  0  0  0  0  0  0  0  0  0  0  0
  147.0310  159.0000  132.8480 C   0  0  0  0  0  0  0  0  0  0  0  0
  148.4290  159.0730  132.3720 C   0  0  0  0  0  0  0  0  0  0  0  0
  148.8910  158.2370  131.3150 N   0  0  0  0  0  0  0  0  0  0  0  0
  149.2210  159.9050  132.8900 O   0  0  0  0  0  0  0  0  0  0  0  0
  146.2140  160.1150  133.0240 C   0  0  0  0  0  0  0  0  0  0  0  0
  144.9940  159.6150  133.4230 C   0  0  0  0  0  0  0  0  0  0  0  0
  143.8110  160.2770  133.7380 C   0  0  0  0  0  0  0  0  0  0  0  0
  142.7070  159.5020  134.1340 C   0  0  0  0  0  0  0  0  0  0  0  0
  142.8100  158.0910  134.2190 C   0  0  0  0  0  0  0  0  0  0  0  0
  141.6130  157.2640  134.6140 C   0  0  0  0  0  0  0  0  0  0  0  0
  141.2910  157.4090  136.1070 C   0  0  0  0  0  0  0  0  0  0  0  0
  140.2520  158.4610  136.3460 C   0  0  0  0  0  0  0  0  0  0  0  0
  139.0460  158.2410  136.0540 O   0  0  0  0  0  0  0  0  0  0  0  0
  140.6210  159.7010  136.8520 O   0  0  0  0  0  0  0  0  0  0  0  0
  144.0260  157.4540  133.8890 C   0  0  0  0  0  0  0  0  0  0  0  0
  145.1010  158.2510  133.4800 C   0  0  0  0  0  0  0  0  0  0  0  0
  146.2050  154.3580  134.8720 P   0  0  0  0  0  0  0  0  0  0  0  0
  146.1150  153.4170  133.6930 O   0  0  0  0  0  0  0  0  0  0  0  0
  144.6460  154.8050  135.3510 O   0  0  0  0  0  0  0  0  0  0  0  0
  146.9720  153.5730  136.1580 O   0  0  0  0  0  0  0  0  0  0  0  0
  148.2923  155.7606  136.1779 H   0  0  0  0  0  0  0  0  0  0  0  0
  148.6122  157.2187  134.9939 H   0  0  0  0  0  0  0  0  0  0  0  0
  148.4710  157.2950  131.1530 H   0  0  0  0  0  0  0  0  0  0  0  0
  146.4856  161.1706  132.8758 H   0  0  0  0  0  0  0  0  0  0  0  0
  143.7419  161.3732  133.6789 H   0  0  0  0  0  0  0  0  0  0  0  0
  141.7549  159.9950  134.3800 H   0  0  0  0  0  0  0  0  0  0  0  0
  140.7426  157.5940  134.0279 H   0  0  0  0  0  0  0  0  0  0  0  0
  141.8451  156.2075  134.4142 H   0  0  0  0  0  0  0  0  0  0  0  0
  140.9187  156.4463  136.4873 H   0  0  0  0  0  0  0  0  0  0  0  0
  142.2110  157.7081  136.6305 H   0  0  0  0  0  0  0  0  0  0  0  0
  144.1257  156.3603  133.9518 H   0  0  0  0  0  0  0  0  0  0  0  0
  1  2  2  0
  2  3  1  0
  3  4  2  0
  3  5  1  0
  5  6  1  0
  6  7  1  0
  7  8  1  0
  7  9  2  0
  6 10  2  0
 10 11  1  0
 11 12  2  0
 12 13  1  0
 13 14  2  0
 14 15  1  0
 15 16  1  0
 16 17  1  0
 17 18  2  0
 17 19  1  0
 14 20  1  0
 20 21  2  0
  2 22  1  0
 22 23  2  0
 22 24  1  0
 22 25  1  0
 21  5  1  0
 21 11  1  0
  1 26  1  0
  1 27  1  0
  8 28  1  0
 10 29  1  0
 12 30  1  0
 13 31  1  0
 15 32  1  0
 15 33  1  0
 16 34  1  0
 16 35  1  0
 20 36  1  0
M  CHG  4   8  -1  19  -1  24  -1  25  -1
M  END
>  <UniqueID>  (75) 
74

>  <SMILES>  (75) 
C=C(C(=O)n1c(C([NH-])=O)cc2ccc(CCC(=O)[O-])cc21)P(=O)([O-])[O-]

>  <Energy>  (75) 
69.61000773942384

>  <Genealogy>  (75) 
C=C(C(=O)n1c(C([NH-])=O)cc2ccc(CCC(=O)[O-])cc21)P(=O)([O-])[O-] (protonated)
C=C(C(=O)n1c(C([NH-])=O)cc2ccc(CCC(=O)[O-])cc21)P(=O)([O-])[O-] (3D coordinates assigned)
C=C(C(=O)n1c(C([NH-])=O)cc2ccc(CCC(=O)[O-])cc21)P(=O)([O-])[O-] (optimized conformer: 69.61000773942384 kcal/mol)

>  <smiles>  (75) 
C=C(C(=O)n1c(C(N)=O)cc2ccc(CCC(=O)O)cc21)P(=O)(O)O

>  <score_type>  (75) 
oracle

>  <origin>  (75) 
adg

>  <m_score__min__energy>  (75) 
-6.9000000000000004

>  <m_primary>  (75) 
energy

$$$$
76:0
     RDKit          3D

 42 43  0  0  0  0  0  0  0  0999 V2000
  142.9860  155.9690  135.5860 N   0  0  0  0  0  0  0  0  0  0  0  0
  144.1690  155.3690  135.0630 C   0  0  0  0  0  0  0  0  0  0  0  0
  144.3160  154.1230  135.1460 O   0  0  0  0  0  0  0  0  0  0  0  0
  145.1880  156.2100  134.4000 C   0  0  0  0  0  0  0  0  0  0  0  0
  146.5300  155.8530  134.2900 C   0  0  0  0  0  0  0  0  0  0  0  0
  147.1450  156.9240  133.6790 C   0  0  0  0  0  0  0  0  0  0  0  0
  148.4740  157.1040  133.3100 C   0  0  0  0  0  0  0  0  0  0  0  0
  148.8200  158.3010  132.6590 C   0  0  0  0  0  0  0  0  0  0  0  0
  147.8340  159.2790  132.3750 C   0  0  0  0  0  0  0  0  0  0  0  0
  148.2160  160.5610  131.6840 C   0  0  0  0  0  0  0  0  0  0  0  0
  149.2650  160.3110  130.6030 C   0  0  0  0  0  0  0  0  0  0  0  0
  149.7490  161.5120  130.1150 F   0  0  0  0  0  0  0  0  0  0  0  0
  146.5000  159.0660  132.7790 C   0  0  0  0  0  0  0  0  0  0  0  0
  146.1870  157.8750  133.4410 C   0  0  0  0  0  0  0  0  0  0  0  0
  144.9810  157.4530  133.8770 N   0  0  0  0  0  0  0  0  0  0  0  0
  143.7390  158.1590  133.7360 C   0  0  0  0  0  0  0  0  0  0  0  0
  143.1800  158.2310  132.6080 O   0  0  0  0  0  0  0  0  0  0  0  0
  143.1720  158.7900  134.8490 O   0  0  0  0  0  0  0  0  0  0  0  0
  141.8360  159.2860  134.8580 C   0  0  0  0  0  0  0  0  0  0  0  0
  140.9220  158.2180  135.0850 O   0  0  0  0  0  0  0  0  0  0  0  0
  140.3560  157.4720  134.0460 C   0  0  0  0  0  0  0  0  0  0  0  0
  140.9390  156.4470  133.5980 O   0  0  0  0  0  0  0  0  0  0  0  0
  139.0280  157.8760  133.4860 C   0  0  0  0  0  0  0  0  0  0  0  0
  139.1450  158.3080  132.0200 C   0  0  0  0  0  0  0  0  0  0  0  0
  139.2340  159.7980  131.8750 C   0  0  0  0  0  0  0  0  0  0  0  0
  140.1210  160.4450  132.4920 O   0  0  0  0  0  0  0  0  0  0  0  0
  138.3500  160.4720  131.0410 O   0  0  0  0  0  0  0  0  0  0  0  0
  142.5030  156.7400  135.0730 H   0  0  0  0  0  0  0  0  0  0  0  0
  146.9993  154.9148  134.6208 H   0  0  0  0  0  0  0  0  0  0  0  0
  149.2306  156.3339  133.5210 H   0  0  0  0  0  0  0  0  0  0  0  0
  149.8654  158.4803  132.3673 H   0  0  0  0  0  0  0  0  0  0  0  0
  147.3202  161.0002  131.2207 H   0  0  0  0  0  0  0  0  0  0  0  0
  148.6408  161.2476  132.4311 H   0  0  0  0  0  0  0  0  0  0  0  0
  150.0965  159.7322  131.0315 H   0  0  0  0  0  0  0  0  0  0  0  0
  148.8011  159.7509  129.7777 H   0  0  0  0  0  0  0  0  0  0  0  0
  145.7239  159.8191  132.5781 H   0  0  0  0  0  0  0  0  0  0  0  0
  141.7300  160.0327  135.6587 H   0  0  0  0  0  0  0  0  0  0  0  0
  141.6160  159.7491  133.8848 H   0  0  0  0  0  0  0  0  0  0  0  0
  138.3371  157.0227  133.5532 H   0  0  0  0  0  0  0  0  0  0  0  0
  138.6529  158.7302  134.0688 H   0  0  0  0  0  0  0  0  0  0  0  0
  140.0497  157.8552  131.5882 H   0  0  0  0  0  0  0  0  0  0  0  0
  138.2393  157.9706  131.4947 H   0  0  0  0  0  0  0  0  0  0  0  0
  1  2  1  0
  2  3  2  0
  2  4  1  0
  4  5  2  0
  5  6  1  0
  6  7  2  0
  7  8  1  0
  8  9  2  0
  9 10  1  0
 10 11  1  0
 11 12  1  0
  9 13  1  0
 13 14  2  0
 14 15  1  0
 15 16  1  0
 16 17  2  0
 16 18  1  0
 18 19  1  0
 19 20  1  0
 20 21  1  0
 21 22  2  0
 21 23  1  0
 23 24  1  0
 24 25  1  0
 25 26  2  0
 25 27  1  0
 15  4  1  0
 14  6  1  0
  1 28  1  0
  5 29  1  0
  7 30  1  0
  8 31  1  0
 10 32  1  0
 10 33  1  0
 11 34  1  0
 11 35  1  0
 13 36  1  0
 19 37  1  0
 19 38  1  0
 23 39  1  0
 23 40  1  0
 24 41  1  0
 24 42  1  0
M  CHG  2   1  -1  27  -1
M  END
>  <UniqueID>  (76) 
75

>  <SMILES>  (76) 
[NH-]C(=O)c1cc2ccc(CCF)cc2n1C(=O)OCOC(=O)CCC(=O)[O-]

>  <Energy>  (76) 
67.89297027228989

>  <Genealogy>  (76) 
[NH-]C(=O)c1cc2ccc(CCF)cc2n1C(=O)OCOC(=O)CCC(=O)[O-] (protonated)
[NH-]C(=O)c1cc2ccc(CCF)cc2n1C(=O)OCOC(=O)CCC(=O)[O-] (3D coordinates assigned)
[NH-]C(=O)c1cc2ccc(CCF)cc2n1C(=O)OCOC(=O)CCC(=O)[O-] (optimized conformer: 67.89297027228989 kcal/mol)

>  <smiles>  (76) 
NC(=O)c1cc2ccc(CCF)cc2n1C(=O)OCOC(=O)CCC(=O)O

>  <score_type>  (76) 
oracle

>  <origin>  (76) 
adg

>  <m_score__min__energy>  (76) 
-6.5599999999999996

>  <m_primary>  (76) 
energy

$$$$
77:0
     RDKit          3D

 43 44  0  0  0  0  0  0  0  0999 V2000
  141.3820  160.0220  133.6930 C   0  0  0  0  0  0  0  0  0  0  0  0
  141.2470  159.0640  134.8400 C   0  0  0  0  0  0  0  0  0  0  0  0
  140.9810  159.5490  136.1450 C   0  0  0  0  0  0  0  0  0  0  0  0
  140.9050  158.6660  137.2340 C   0  0  0  0  0  0  0  0  0  0  0  0
  141.1050  157.3100  136.9890 C   0  0  0  0  0  0  0  0  0  0  0  0
  141.1120  156.2410  137.8580 C   0  0  0  0  0  0  0  0  0  0  0  0
  141.3950  155.1270  137.0690 C   0  0  0  0  0  0  0  0  0  0  0  0
  141.5550  153.7620  137.6060 C   0  0  0  0  0  0  0  0  0  0  0  0
  141.7380  152.6520  136.7340 N   0  0  0  0  0  0  0  0  0  0  0  0
  141.5810  153.5800  138.8530 O   0  0  0  0  0  0  0  0  0  0  0  0
  141.5390  155.4920  135.7650 N   0  0  0  0  0  0  0  0  0  0  0  0
  141.7190  154.6380  134.6260 C   0  0  0  0  0  0  0  0  0  0  0  0
  140.8000  154.5620  133.7660 O   0  0  0  0  0  0  0  0  0  0  0  0
  142.9190  153.8380  134.5020 N   0  0  1  0  0  0  0  0  0  0  0  0
  142.6430  152.5500  133.8370 C   0  0  0  0  0  0  0  0  0  0  0  0
  144.0410  154.5870  133.8870 C   0  0  0  0  0  0  0  0  0  0  0  0
  144.7810  155.5780  134.8300 C   0  0  0  0  0  0  0  0  0  0  0  0
  145.9580  154.9550  135.4570 N   0  0  0  0  0  0  0  0  0  0  0  0
  147.3110  155.4120  135.1210 C   0  0  0  0  0  0  0  0  0  0  0  0
  145.7950  153.8090  136.3150 C   0  0  0  0  0  0  0  0  0  0  0  0
  146.8010  153.1850  136.7470 O   0  0  0  0  0  0  0  0  0  0  0  0
  144.5240  153.3730  136.6730 O   0  0  0  0  0  0  0  0  0  0  0  0
  141.3670  156.8290  135.7330 C   0  0  0  0  0  0  0  0  0  0  0  0
  141.4590  157.6840  134.6320 C   0  0  0  0  0  0  0  0  0  0  0  0
  141.5256  161.0411  134.0814 H   0  0  0  0  0  0  0  0  0  0  0  0
  142.2490  159.7383  133.0784 H   0  0  0  0  0  0  0  0  0  0  0  0
  140.4703  159.9889  133.0784 H   0  0  0  0  0  0  0  0  0  0  0  0
  140.8328  160.6270  136.3061 H   0  0  0  0  0  0  0  0  0  0  0  0
  140.6941  159.0340  138.2489 H   0  0  0  0  0  0  0  0  0  0  0  0
  140.9326  156.2620  138.9431 H   0  0  0  0  0  0  0  0  0  0  0  0
  142.6140  152.5490  136.1760 H   0  0  0  0  0  0  0  0  0  0  0  0
  143.2320  153.6030  135.4730 H   0  0  0  0  0  0  0  0  0  0  0  0
  142.4765  151.7729  134.5976 H   0  0  0  0  0  0  0  0  0  0  0  0
  141.7452  152.6466  133.2089 H   0  0  0  0  0  0  0  0  0  0  0  0
  143.5016  152.2703  133.2089 H   0  0  0  0  0  0  0  0  0  0  0  0
  144.7760  153.8555  133.5200 H   0  0  0  0  0  0  0  0  0  0  0  0
  143.5937  155.2028  133.0928 H   0  0  0  0  0  0  0  0  0  0  0  0
  145.1082  156.4502  134.2450 H   0  0  0  0  0  0  0  0  0  0  0  0
  144.0852  155.8776  135.6276 H   0  0  0  0  0  0  0  0  0  0  0  0
  147.8742  155.6022  136.0466 H   0  0  0  0  0  0  0  0  0  0  0  0
  147.8241  154.6373  134.5323 H   0  0  0  0  0  0  0  0  0  0  0  0
  147.2492  156.3391  134.5323 H   0  0  0  0  0  0  0  0  0  0  0  0
  141.6903  157.2925  133.6304 H   0  0  0  0  0  0  0  0  0  0  0  0
  1  2  1  0
  2  3  2  0
  3  4  1  0
  4  5  2  0
  5  6  1  0
  6  7  2  0
  7  8  1  0
  8  9  1  0
  8 10  2  0
  7 11  1  0
 11 12  1  0
 12 13  2  0
 12 14  1  0
 14 15  1  0
 14 16  1  0
 16 17  1  0
 17 18  1  0
 18 19  1  0
 18 20  1  0
 20 21  2  0
 20 22  1  0
 11 23  1  0
 23 24  2  0
 24  2  1  0
 23  5  1  0
  1 25  1  0
  1 26  1  0
  1 27  1  0
  3 28  1  0
  4 29  1  0
  6 30  1  0
  9 31  1  0
 14 32  1  1
 15 33  1  0
 15 34  1  0
 15 35  1  0
 16 36  1  0
 16 37  1  0
 17 38  1  0
 17 39  1  0
 19 40  1  0
 19 41  1  0
 19 42  1  0
 24 43  1  0
M  CHG  3   9  -1  14   1  22  -1
M  END
>  <UniqueID>  (77) 
76

>  <SMILES>  (77) 
Cc1ccc2cc(C([NH-])=O)n(C(=O)[N@@H+](C)CCN(C)C(=O)[O-])c2c1

>  <Energy>  (77) 
87.76775556736824

>  <Genealogy>  (77) 
Cc1ccc2cc(C([NH-])=O)n(C(=O)[NH+](C)CCN(C)C(=O)[O-])c2c1 (protonated)
Cc1ccc2cc(C([NH-])=O)n(C(=O)[N@@H+](C)CCN(C)C(=O)[O-])c2c1 (chirality)
Cc1ccc2cc(C([NH-])=O)n(C(=O)[N@@H+](C)CCN(C)C(=O)[O-])c2c1 (3D coordinates assigned)
Cc1ccc2cc(C([NH-])=O)n(C(=O)[N@@H+](C)CCN(C)C(=O)[O-])c2c1 (optimized conformer: 87.76775556736824 kcal/mol)

>  <smiles>  (77) 
Cc1ccc2cc(C(N)=O)n(C(=O)N(C)CCN(C)C(=O)O)c2c1

>  <score_type>  (77) 
oracle

>  <origin>  (77) 
adg

>  <m_score__min__energy>  (77) 
-5.9699999999999998

>  <m_primary>  (77) 
energy

$$$$
78:0
     RDKit          3D

 37 39  0  0  0  0  0  0  0  0999 V2000
  138.5260  158.2180  132.9870 C   0  0  0  0  0  0  0  0  0  0  0  0
  139.2830  157.8440  134.2170 C   0  0  0  0  0  0  0  0  0  0  0  0
  138.9660  158.2250  135.4330 O   0  0  0  0  0  0  0  0  0  0  0  0
  139.8670  157.6880  136.2240 C   0  0  0  0  0  0  0  0  0  0  0  0
  139.8800  157.8410  137.4720 O   0  0  0  0  0  0  0  0  0  0  0  0
  140.7540  156.9750  135.5680 O   0  0  0  0  0  0  0  0  0  0  0  0
  140.4140  157.0510  134.3030 C   0  0  0  0  0  0  0  0  0  0  0  0
  141.1520  156.3780  133.1870 C   0  0  0  0  0  0  0  0  0  0  0  0
  142.2270  157.2010  132.7430 O   0  0  0  0  0  0  0  0  0  0  0  0
  143.4280  157.3410  133.4490 C   0  0  0  0  0  0  0  0  0  0  0  0
  143.9450  156.3480  134.0300 O   0  0  0  0  0  0  0  0  0  0  0  0
  144.0810  158.6180  133.4940 N   0  0  0  0  0  0  0  0  0  0  0  0
  143.5270  159.8340  133.7690 C   0  0  0  0  0  0  0  0  0  0  0  0
  142.0860  160.1100  133.9490 C   0  0  0  0  0  0  0  0  0  0  0  0
  141.5010  160.0040  135.2440 N   0  0  0  0  0  0  0  0  0  0  0  0
  141.3720  160.4720  132.9770 O   0  0  0  0  0  0  0  0  0  0  0  0
  144.5060  160.8260  133.7750 C   0  0  0  0  0  0  0  0  0  0  0  0
  145.6850  160.1780  133.4840 C   0  0  0  0  0  0  0  0  0  0  0  0
  146.9780  160.6790  133.3710 C   0  0  0  0  0  0  0  0  0  0  0  0
  148.0130  159.7740  133.0850 C   0  0  0  0  0  0  0  0  0  0  0  0
  147.7410  158.3920  132.9250 C   0  0  0  0  0  0  0  0  0  0  0  0
  148.8520  157.4230  132.6380 C   0  0  0  0  0  0  0  0  0  0  0  0
  149.6230  157.8950  131.5910 F   0  0  0  0  0  0  0  0  0  0  0  0
  148.3210  156.1940  132.2970 F   0  0  0  0  0  0  0  0  0  0  0  0
  146.4150  157.9190  133.0510 C   0  0  0  0  0  0  0  0  0  0  0  0
  145.4010  158.8470  133.3190 C   0  0  0  0  0  0  0  0  0  0  0  0
  137.5734  158.6887  133.2717 H   0  0  0  0  0  0  0  0  0  0  0  0
  139.1211  158.9258  132.3912 H   0  0  0  0  0  0  0  0  0  0  0  0
  138.3254  157.3153  132.3912 H   0  0  0  0  0  0  0  0  0  0  0  0
  141.5526  155.4174  133.5432 H   0  0  0  0  0  0  0  0  0  0  0  0
  140.4597  156.2079  132.3493 H   0  0  0  0  0  0  0  0  0  0  0  0
  140.9490  159.1610  135.5170 H   0  0  0  0  0  0  0  0  0  0  0  0
  144.3661  161.8994  133.9708 H   0  0  0  0  0  0  0  0  0  0  0  0
  147.1834  161.7517  133.5018 H   0  0  0  0  0  0  0  0  0  0  0  0
  149.0450  160.1411  132.9841 H   0  0  0  0  0  0  0  0  0  0  0  0
  149.4782  157.3160  133.5360 H   0  0  0  0  0  0  0  0  0  0  0  0
  146.1853  156.8489  132.9413 H   0  0  0  0  0  0  0  0  0  0  0  0
  1  2  1  0
  2  3  1  0
  3  4  1  0
  4  5  2  0
  4  6  1  0
  6  7  1  0
  7  8  1  0
  8  9  1  0
  9 10  1  0
 10 11  2  0
 10 12  1  0
 12 13  1  0
 13 14  1  0
 14 15  1  0
 14 16  2  0
 13 17  2  0
 17 18  1  0
 18 19  2  0
 19 20  1  0
 20 21  2  0
 21 22  1  0
 22 23  1  0
 22 24  1  0
 21 25  1  0
 25 26  2  0
  7  2  2  0
 26 12  1  0
 26 18  1  0
  1 27  1  0
  1 28  1  0
  1 29  1  0
  8 30  1  0
  8 31  1  0
 15 32  1  0
 17 33  1  0
 19 34  1  0
 20 35  1  0
 22 36  1  0
 25 37  1  0
M  CHG  1  15  -1
M  END
>  <UniqueID>  (78) 
77

>  <SMILES>  (78) 
Cc1oc(=O)oc1COC(=O)n1c(C([NH-])=O)cc2ccc(C(F)F)cc21

>  <Energy>  (78) 
107.2255259603496

>  <Genealogy>  (78) 
Cc1oc(=O)oc1COC(=O)n1c(C([NH-])=O)cc2ccc(C(F)F)cc21 (protonated)
Cc1oc(=O)oc1COC(=O)n1c(C([NH-])=O)cc2ccc(C(F)F)cc21 (3D coordinates assigned)
Cc1oc(=O)oc1COC(=O)n1c(C([NH-])=O)cc2ccc(C(F)F)cc21 (optimized conformer: 107.2255259603496 kcal/mol)

>  <smiles>  (78) 
Cc1oc(=O)oc1COC(=O)n1c(C(N)=O)cc2ccc(C(F)F)cc21

>  <score_type>  (78) 
oracle

>  <origin>  (78) 
adg

>  <m_score__min__energy>  (78) 
-6.3799999999999999

>  <m_primary>  (78) 
energy

$$$$
79:0
     RDKit          3D

 35 36  0  0  0  0  0  0  0  0999 V2000
  142.6950  160.4720  133.3670 N   0  0  0  0  0  0  0  0  0  0  0  0
  144.0470  160.7700  133.7010 C   0  0  0  0  0  0  0  0  0  0  0  0
  144.3360  161.9140  134.1440 O   0  0  0  0  0  0  0  0  0  0  0  0
  145.1210  159.7760  133.4890 C   0  0  0  0  0  0  0  0  0  0  0  0
  146.4540  160.1180  133.2740 C   0  0  0  0  0  0  0  0  0  0  0  0
  147.1050  158.9270  133.0480 C   0  0  0  0  0  0  0  0  0  0  0  0
  148.4510  158.6750  132.8000 C   0  0  0  0  0  0  0  0  0  0  0  0
  148.8520  157.3370  132.6440 C   0  0  0  0  0  0  0  0  0  0  0  0
  147.9100  156.2840  132.7450 C   0  0  0  0  0  0  0  0  0  0  0  0
  148.3460  154.8540  132.5980 C   0  0  0  0  0  0  0  0  0  0  0  0
  149.6850  154.8100  132.2510 F   0  0  0  0  0  0  0  0  0  0  0  0
  148.1610  154.1830  133.7930 F   0  0  0  0  0  0  0  0  0  0  0  0
  146.5520  156.5790  133.0010 C   0  0  0  0  0  0  0  0  0  0  0  0
  146.1780  157.9200  133.1320 C   0  0  0  0  0  0  0  0  0  0  0  0
  144.9540  158.4270  133.4020 N   0  0  0  0  0  0  0  0  0  0  0  0
  143.7630  157.6690  133.6630 C   0  0  0  0  0  0  0  0  0  0  0  0
  143.6790  156.9720  134.7110 O   0  0  0  0  0  0  0  0  0  0  0  0
  142.6920  157.7350  132.7660 O   0  0  0  0  0  0  0  0  0  0  0  0
  141.4030  157.1840  133.0360 C   0  0  0  0  0  0  0  0  0  0  0  0
  140.4780  158.2190  133.6910 C   0  0  0  0  0  0  0  0  0  0  0  0
  139.7810  159.1210  132.6640 C   0  0  0  0  0  0  0  0  0  0  0  0
  140.6020  159.3450  131.5490 O   0  0  0  0  0  0  0  0  0  0  0  0
  142.4650  159.8730  132.5440 H   0  0  0  0  0  0  0  0  0  0  0  0
  146.8932  161.1265  133.2830 H   0  0  0  0  0  0  0  0  0  0  0  0
  149.1782  159.4972  132.7283 H   0  0  0  0  0  0  0  0  0  0  0  0
  149.9081  157.1052  132.4414 H   0  0  0  0  0  0  0  0  0  0  0  0
  147.7452  154.3733  131.8119 H   0  0  0  0  0  0  0  0  0  0  0  0
  145.8080  155.7742  133.0949 H   0  0  0  0  0  0  0  0  0  0  0  0
  140.9520  156.8484  132.0905 H   0  0  0  0  0  0  0  0  0  0  0  0
  141.5256  156.3402  133.7309 H   0  0  0  0  0  0  0  0  0  0  0  0
  139.7098  157.6874  134.2717 H   0  0  0  0  0  0  0  0  0  0  0  0
  141.0987  158.8620  134.3322 H   0  0  0  0  0  0  0  0  0  0  0  0
  138.8504  158.6366  132.3334 H   0  0  0  0  0  0  0  0  0  0  0  0
  139.5652  160.0894  133.1391 H   0  0  0  0  0  0  0  0  0  0  0  0
  141.5390  159.3310  131.8770 H   0  0  0  0  0  0  0  0  0  0  0  0
  1  2  1  0
  2  3  2  0
  2  4  1  0
  4  5  2  0
  5  6  1  0
  6  7  2  0
  7  8  1  0
  8  9  2  0
  9 10  1  0
 10 11  1  0
 10 12  1  0
  9 13  1  0
 13 14  2  0
 14 15  1  0
 15 16  1  0
 16 17  2  0
 16 18  1  0
 18 19  1  0
 19 20  1  0
 20 21  1  0
 21 22  1  0
 15  4  1  0
 14  6  1  0
  1 23  1  0
  5 24  1  0
  7 25  1  0
  8 26  1  0
 10 27  1  0
 13 28  1  0
 19 29  1  0
 19 30  1  0
 20 31  1  0
 20 32  1  0
 21 33  1  0
 21 34  1  0
 22 35  1  0
M  CHG  1   1  -1
M  END
>  <UniqueID>  (79) 
78

>  <SMILES>  (79) 
[NH-]C(=O)c1cc2ccc(C(F)F)cc2n1C(=O)OCCCO

>  <Energy>  (79) 
68.45005142750914

>  <Genealogy>  (79) 
[NH-]C(=O)c1cc2ccc(C(F)F)cc2n1C(=O)OCCCO (protonated)
[NH-]C(=O)c1cc2ccc(C(F)F)cc2n1C(=O)OCCCO (3D coordinates assigned)
[NH-]C(=O)c1cc2ccc(C(F)F)cc2n1C(=O)OCCCO (optimized conformer: 68.45005142750914 kcal/mol)

>  <smiles>  (79) 
NC(=O)c1cc2ccc(C(F)F)cc2n1C(=O)OCCCO

>  <score_type>  (79) 
oracle

>  <origin>  (79) 
adg

>  <m_score__min__energy>  (79) 
-5.2699999999999996

>  <m_primary>  (79) 
energy

$$$$
80:0
     RDKit          3D

 34 35  0  0  0  0  0  0  0  0999 V2000
  141.0640  157.3350  133.4640 C   0  0  0  0  0  0  0  0  0  0  0  0
  142.2790  157.3070  134.3020 N   0  0  1  0  0  0  0  0  0  0  0  0
  142.3470  156.1090  135.1740 C   0  0  0  0  0  0  0  0  0  0  0  0
  141.8410  156.3420  136.5740 C   0  0  0  0  0  0  0  0  0  0  0  0
  141.6910  157.5170  137.0040 O   0  0  0  0  0  0  0  0  0  0  0  0
  141.5320  155.2700  137.4000 O   0  0  0  0  0  0  0  0  0  0  0  0
  143.4780  157.4510  133.5030 C   0  0  0  0  0  0  0  0  0  0  0  0
  143.9060  156.4810  132.8160 O   0  0  0  0  0  0  0  0  0  0  0  0
  144.2250  158.6840  133.5170 N   0  0  0  0  0  0  0  0  0  0  0  0
  143.7670  159.9320  133.8300 C   0  0  0  0  0  0  0  0  0  0  0  0
  142.3650  160.3050  134.1140 C   0  0  0  0  0  0  0  0  0  0  0  0
  141.6570  159.7340  135.2080 N   0  0  0  0  0  0  0  0  0  0  0  0
  141.7720  161.1210  133.3580 O   0  0  0  0  0  0  0  0  0  0  0  0
  144.8100  160.8550  133.8110 C   0  0  0  0  0  0  0  0  0  0  0  0
  145.9320  160.1340  133.4850 C   0  0  0  0  0  0  0  0  0  0  0  0
  147.2540  160.5500  133.3550 C   0  0  0  0  0  0  0  0  0  0  0  0
  148.2240  159.5800  133.0520 C   0  0  0  0  0  0  0  0  0  0  0  0
  147.8560  158.2220  132.9000 C   0  0  0  0  0  0  0  0  0  0  0  0
  148.8550  157.2400  132.6090 N   0  0  0  0  0  0  0  0  0  0  0  0
  146.5080  157.8360  133.0420 C   0  0  0  0  0  0  0  0  0  0  0  0
  145.5560  158.8260  133.3180 C   0  0  0  0  0  0  0  0  0  0  0  0
  140.1737  157.3555  134.1097 H   0  0  0  0  0  0  0  0  0  0  0  0
  141.0772  158.2331  132.8290 H   0  0  0  0  0  0  0  0  0  0  0  0
  141.0358  156.4373  132.8290 H   0  0  0  0  0  0  0  0  0  0  0  0
  142.2200  158.1310  134.9460 H   0  0  0  0  0  0  0  0  0  0  0  0
  141.7425  155.3125  134.7156 H   0  0  0  0  0  0  0  0  0  0  0  0
  143.4094  155.8373  135.2601 H   0  0  0  0  0  0  0  0  0  0  0  0
  142.1340  159.0910  135.8800 H   0  0  0  0  0  0  0  0  0  0  0  0
  144.7478  161.9342  134.0144 H   0  0  0  0  0  0  0  0  0  0  0  0
  147.5309  161.6065  133.4856 H   0  0  0  0  0  0  0  0  0  0  0  0
  149.2761  159.8779  132.9322 H   0  0  0  0  0  0  0  0  0  0  0  0
  149.5990  157.0120  133.3060 H   0  0  0  0  0  0  0  0  0  0  0  0
  148.8580  156.7360  131.6940 H   0  0  0  0  0  0  0  0  0  0  0  0
  146.2104  156.7821  132.9386 H   0  0  0  0  0  0  0  0  0  0  0  0
  1  2  1  0
  2  3  1  0
  3  4  1  0
  4  5  2  0
  4  6  1  0
  2  7  1  0
  7  8  2  0
  7  9  1  0
  9 10  1  0
 10 11  1  0
 11 12  1  0
 11 13  2  0
 10 14  2  0
 14 15  1  0
 15 16  2  0
 16 17  1  0
 17 18  2  0
 18 19  1  0
 18 20  1  0
 20 21  2  0
 21  9  1  0
 21 15  1  0
  1 22  1  0
  1 23  1  0
  1 24  1  0
  2 25  1  1
  3 26  1  0
  3 27  1  0
 12 28  1  0
 14 29  1  0
 16 30  1  0
 17 31  1  0
 19 32  1  0
 19 33  1  0
 20 34  1  0
M  CHG  3   2   1   6  -1  12  -1
M  END
>  <UniqueID>  (80) 
79

>  <SMILES>  (80) 
C[N@@H+](CC(=O)[O-])C(=O)n1c(C([NH-])=O)cc2ccc(N)cc21

>  <Energy>  (80) 
77.88793521568056

>  <Genealogy>  (80) 
C[NH+](CC(=O)[O-])C(=O)n1c(C([NH-])=O)cc2ccc(N)cc21 (protonated)
C[N@@H+](CC(=O)[O-])C(=O)n1c(C([NH-])=O)cc2ccc(N)cc21 (chirality)
C[N@@H+](CC(=O)[O-])C(=O)n1c(C([NH-])=O)cc2ccc(N)cc21 (3D coordinates assigned)
C[N@@H+](CC(=O)[O-])C(=O)n1c(C([NH-])=O)cc2ccc(N)cc21 (optimized conformer: 77.88793521568056 kcal/mol)

>  <smiles>  (80) 
CN(CC(=O)O)C(=O)n1c(C(N)=O)cc2ccc(N)cc21

>  <score_type>  (80) 
oracle

>  <origin>  (80) 
adg

>  <m_score__min__energy>  (80) 
-5.3600000000000003

>  <m_primary>  (80) 
energy

$$$$
81:0
     RDKit          3D

 39 40  0  0  0  0  0  0  0  0999 V2000
  145.4460  157.2440  134.1460 N   0  0  0  0  0  0  0  0  0  0  0  0
  144.8950  156.1510  133.3990 C   0  0  0  0  0  0  0  0  0  0  0  0
  143.7180  156.2500  132.9510 O   0  0  0  0  0  0  0  0  0  0  0  0
  145.6890  154.9240  133.1300 C   0  0  0  0  0  0  0  0  0  0  0  0
  145.1580  153.7000  132.7200 C   0  0  0  0  0  0  0  0  0  0  0  0
  146.2360  152.8460  132.6230 C   0  0  0  0  0  0  0  0  0  0  0  0
  146.2960  151.5110  132.2310 C   0  0  0  0  0  0  0  0  0  0  0  0
  147.5590  150.8870  132.2000 C   0  0  0  0  0  0  0  0  0  0  0  0
  148.7260  151.6010  132.5680 C   0  0  0  0  0  0  0  0  0  0  0  0
  150.0710  150.9330  132.5140 C   0  0  0  0  0  0  0  0  0  0  0  0
  150.3930  150.3610  130.8580 Cl  0  0  0  0  0  0  0  0  0  0  0  0
  148.6270  152.9570  132.9500 C   0  0  0  0  0  0  0  0  0  0  0  0
  147.3570  153.5480  132.9720 C   0  0  0  0  0  0  0  0  0  0  0  0
  147.0380  154.8190  133.2820 N   0  0  0  0  0  0  0  0  0  0  0  0
  147.9640  155.8440  133.6630 C   0  0  0  0  0  0  0  0  0  0  0  0
  148.0280  156.2070  134.8680 O   0  0  0  0  0  0  0  0  0  0  0  0
  148.8560  156.4730  132.6360 C   0  0  0  0  0  0  0  0  0  0  0  0
  148.5490  157.9330  132.5050 C   0  0  0  0  0  0  0  0  0  0  0  0
  149.0450  158.5940  131.5520 O   0  0  0  0  0  0  0  0  0  0  0  0
  147.6810  158.5370  133.4210 O   0  0  0  0  0  0  0  0  0  0  0  0
  147.2580  159.8940  133.3210 C   0  0  0  0  0  0  0  0  0  0  0  0
  145.8650  159.9780  132.6960 C   0  0  0  0  0  0  0  0  0  0  0  0
  144.8690  160.4630  133.7020 C   0  0  0  0  0  0  0  0  0  0  0  0
  143.9400  159.7030  134.0890 O   0  0  0  0  0  0  0  0  0  0  0  0
  144.9370  161.7720  134.1770 O   0  0  0  0  0  0  0  0  0  0  0  0
  144.9030  158.1270  134.2440 H   0  0  0  0  0  0  0  0  0  0  0  0
  146.4060  157.2100  134.5630 H   0  0  0  0  0  0  0  0  0  0  0  0
  144.1025  153.4662  132.5171 H   0  0  0  0  0  0  0  0  0  0  0  0
  145.3850  150.9603  131.9540 H   0  0  0  0  0  0  0  0  0  0  0  0
  147.6396  149.8355  131.8871 H   0  0  0  0  0  0  0  0  0  0  0  0
  150.8486  151.6527  132.8097 H   0  0  0  0  0  0  0  0  0  0  0  0
  150.0792  150.0756  133.2030 H   0  0  0  0  0  0  0  0  0  0  0  0
  149.5231  153.5337  133.2229 H   0  0  0  0  0  0  0  0  0  0  0  0
  149.9053  156.3489  132.9418 H   0  0  0  0  0  0  0  0  0  0  0  0
  148.6857  155.9831  131.6659 H   0  0  0  0  0  0  0  0  0  0  0  0
  147.2307  160.3393  134.3264 H   0  0  0  0  0  0  0  0  0  0  0  0
  147.9672  160.4407  132.6822 H   0  0  0  0  0  0  0  0  0  0  0  0
  145.8908  160.6760  131.8462 H   0  0  0  0  0  0  0  0  0  0  0  0
  145.5669  158.9759  132.3540 H   0  0  0  0  0  0  0  0  0  0  0  0
  1  2  1  0
  2  3  2  0
  2  4  1  0
  4  5  2  0
  5  6  1  0
  6  7  2  0
  7  8  1  0
  8  9  2  0
  9 10  1  0
 10 11  1  0
  9 12  1  0
 12 13  2  0
 13 14  1  0
 14 15  1  0
 15 16  2  0
 15 17  1  0
 17 18  1  0
 18 19  2  0
 18 20  1  0
 20 21  1  0
 21 22  1  0
 22 23  1  0
 23 24  2  0
 23 25  1  0
 14  4  1  0
 13  6  1  0
  1 26  1  0
  1 27  1  0
  5 28  1  0
  7 29  1  0
  8 30  1  0
 10 31  1  0
 10 32  1  0
 12 33  1  0
 17 34  1  0
 17 35  1  0
 21 36  1  0
 21 37  1  0
 22 38  1  0
 22 39  1  0
M  CHG  1  25  -1
M  END
>  <UniqueID>  (81) 
80

>  <SMILES>  (81) 
NC(=O)c1cc2ccc(CCl)cc2n1C(=O)CC(=O)OCCC(=O)[O-]

>  <Energy>  (81) 
71.63837320941245

>  <Genealogy>  (81) 
NC(=O)c1cc2ccc(CCl)cc2n1C(=O)CC(=O)OCCC(=O)[O-] (protonated)
NC(=O)c1cc2ccc(CCl)cc2n1C(=O)CC(=O)OCCC(=O)[O-] (3D coordinates assigned)
NC(=O)c1cc2ccc(CCl)cc2n1C(=O)CC(=O)OCCC(=O)[O-] (optimized conformer: 71.63837320941245 kcal/mol)

>  <smiles>  (81) 
NC(=O)c1cc2ccc(CCl)cc2n1C(=O)CC(=O)OCCC(=O)O

>  <score_type>  (81) 
oracle

>  <origin>  (81) 
adg

>  <m_score__min__energy>  (81) 
-7.0800000000000001

>  <m_primary>  (81) 
energy

$$$$
82:0
     RDKit          3D

 36 37  0  0  0  0  0  0  0  0999 V2000
  143.8710  162.0990  133.3880 N   0  0  0  0  0  0  0  0  0  0  0  0
  145.0480  161.7290  134.1020 C   0  0  0  0  0  0  0  0  0  0  0  0
  145.4780  162.4820  135.0150 O   0  0  0  0  0  0  0  0  0  0  0  0
  145.8020  160.5090  133.7440 C   0  0  0  0  0  0  0  0  0  0  0  0
  147.1390  160.5260  133.3520 C   0  0  0  0  0  0  0  0  0  0  0  0
  147.4340  159.2270  133.0060 C   0  0  0  0  0  0  0  0  0  0  0  0
  148.6210  158.6750  132.5330 C   0  0  0  0  0  0  0  0  0  0  0  0
  148.6440  157.2960  132.2620 C   0  0  0  0  0  0  0  0  0  0  0  0
  147.4950  156.4950  132.4850 C   0  0  0  0  0  0  0  0  0  0  0  0
  147.5230  155.0830  132.1830 N   0  0  0  0  0  0  0  0  0  0  0  0
  147.9630  154.2970  133.3460 C   0  0  0  0  0  0  0  0  0  0  0  0
  149.0340  153.3050  132.9820 C   0  0  0  0  0  0  0  0  0  0  0  0
  149.5860  153.3600  131.8940 O   0  0  0  0  0  0  0  0  0  0  0  0
  146.3090  157.0940  132.9680 C   0  0  0  0  0  0  0  0  0  0  0  0
  146.3060  158.4740  133.2020 C   0  0  0  0  0  0  0  0  0  0  0  0
  145.2940  159.2460  133.6580 N   0  0  0  0  0  0  0  0  0  0  0  0
  143.9800  158.7930  134.0210 C   0  0  0  0  0  0  0  0  0  0  0  0
  143.0260  159.6150  134.0940 O   0  0  0  0  0  0  0  0  0  0  0  0
  143.7710  157.4440  134.3210 O   0  0  0  0  0  0  0  0  0  0  0  0
  143.1190  156.5460  133.4300 C   0  0  0  0  0  0  0  0  0  0  0  0
  143.8340  155.3160  133.3820 O   0  0  0  0  0  0  0  0  0  0  0  0
  143.9610  154.5570  132.2140 C   0  0  0  0  0  0  0  0  0  0  0  0
  144.9720  154.6720  131.4700 O   0  0  0  0  0  0  0  0  0  0  0  0
  143.2360  161.3730  132.9870 H   0  0  0  0  0  0  0  0  0  0  0  0
  147.8150  161.3933  133.3249 H   0  0  0  0  0  0  0  0  0  0  0  0
  149.5134  159.2987  132.3762 H   0  0  0  0  0  0  0  0  0  0  0  0
  149.5629  156.8331  131.8728 H   0  0  0  0  0  0  0  0  0  0  0  0
  146.5600  154.7710  131.9130 H   0  0  0  0  0  0  0  0  0  0  0  0
  148.1460  154.8960  131.3620 H   0  0  0  0  0  0  0  0  0  0  0  0
  148.3587  154.9830  134.1094 H   0  0  0  0  0  0  0  0  0  0  0  0
  147.0957  153.7372  133.7261 H   0  0  0  0  0  0  0  0  0  0  0  0
  149.3220  152.5242  133.7013 H   0  0  0  0  0  0  0  0  0  0  0  0
  145.4093  156.4895  133.1556 H   0  0  0  0  0  0  0  0  0  0  0  0
  142.0940  156.3599  133.7832 H   0  0  0  0  0  0  0  0  0  0  0  0
  143.0875  156.9892  132.4237 H   0  0  0  0  0  0  0  0  0  0  0  0
  143.1656  153.8482  131.9402 H   0  0  0  0  0  0  0  0  0  0  0  0
  1  2  1  0
  2  3  2  0
  2  4  1  0
  4  5  2  0
  5  6  1  0
  6  7  2  0
  7  8  1  0
  8  9  2  0
  9 10  1  0
 10 11  1  0
 11 12  1  0
 12 13  2  0
  9 14  1  0
 14 15  2  0
 15 16  1  0
 16 17  1  0
 17 18  2  0
 17 19  1  0
 19 20  1  0
 20 21  1  0
 21 22  1  0
 22 23  2  0
 16  4  1  0
 15  6  1  0
  1 24  1  0
  5 25  1  0
  7 26  1  0
  8 27  1  0
 10 28  1  0
 10 29  1  0
 11 30  1  0
 11 31  1  0
 12 32  1  0
 14 33  1  0
 20 34  1  0
 20 35  1  0
 22 36  1  0
M  CHG  2   1  -1  10   1
M  END
>  <UniqueID>  (82) 
81

>  <SMILES>  (82) 
[NH-]C(=O)c1cc2ccc([NH2+]CC=O)cc2n1C(=O)OCOC=O

>  <Energy>  (82) 
71.30593882592572

>  <Genealogy>  (82) 
[NH-]C(=O)c1cc2ccc([NH2+]CC=O)cc2n1C(=O)OCOC=O (protonated)
[NH-]C(=O)c1cc2ccc([NH2+]CC=O)cc2n1C(=O)OCOC=O (3D coordinates assigned)
[NH-]C(=O)c1cc2ccc([NH2+]CC=O)cc2n1C(=O)OCOC=O (optimized conformer: 71.30593882592572 kcal/mol)

>  <smiles>  (82) 
NC(=O)c1cc2ccc(NCC=O)cc2n1C(=O)OCOC=O

>  <score_type>  (82) 
oracle

>  <origin>  (82) 
adg

>  <m_score__min__energy>  (82) 
-4.9100000000000001

>  <m_primary>  (82) 
energy

$$$$
83:0
     RDKit          3D

 40 41  0  0  0  0  0  0  0  0999 V2000
  148.4900  155.1530  132.6400 C   0  0  0  0  0  0  0  0  0  0  0  0
  148.1090  156.5960  132.7900 C   0  0  0  0  0  0  0  0  0  0  0  0
  149.0740  157.6150  132.6030 C   0  0  0  0  0  0  0  0  0  0  0  0
  148.7250  158.9680  132.7510 C   0  0  0  0  0  0  0  0  0  0  0  0
  147.4130  159.2670  133.1060 C   0  0  0  0  0  0  0  0  0  0  0  0
  146.7990  160.4870  133.2710 C   0  0  0  0  0  0  0  0  0  0  0  0
  145.4780  160.1930  133.5970 C   0  0  0  0  0  0  0  0  0  0  0  0
  144.4660  161.2280  133.9040 C   0  0  0  0  0  0  0  0  0  0  0  0
  143.0760  160.9940  133.6840 N   0  0  0  0  0  0  0  0  0  0  0  0
  144.8340  162.3170  134.4210 O   0  0  0  0  0  0  0  0  0  0  0  0
  145.2760  158.8460  133.6210 N   0  0  0  0  0  0  0  0  0  0  0  0
  144.0190  158.1600  133.7550 C   0  0  0  0  0  0  0  0  0  0  0  0
  143.6800  157.2880  132.9100 O   0  0  0  0  0  0  0  0  0  0  0  0
  143.1710  158.4740  134.8220 O   0  0  0  0  0  0  0  0  0  0  0  0
  141.7530  158.4240  134.7240 C   0  0  0  0  0  0  0  0  0  0  0  0
  141.3720  158.3590  133.3550 O   0  0  0  0  0  0  0  0  0  0  0  0
  140.6500  159.3770  132.7240 C   0  0  0  0  0  0  0  0  0  0  0  0
  140.6290  160.5440  133.2030 O   0  0  0  0  0  0  0  0  0  0  0  0
  139.8540  159.0660  131.4970 C   0  0  0  0  0  0  0  0  0  0  0  0
  138.3560  159.1940  131.7870 C   0  0  0  0  0  0  0  0  0  0  0  0
  137.6760  160.0710  130.7810 C   0  0  0  0  0  0  0  0  0  0  0  0
  136.4200  160.0630  130.6850 O   0  0  0  0  0  0  0  0  0  0  0  0
  138.4230  160.8550  129.9110 O   0  0  0  0  0  0  0  0  0  0  0  0
  146.4740  158.2900  133.3210 C   0  0  0  0  0  0  0  0  0  0  0  0
  146.7900  156.9360  133.1600 C   0  0  0  0  0  0  0  0  0  0  0  0
  148.6096  154.7000  133.6352 H   0  0  0  0  0  0  0  0  0  0  0  0
  147.7015  154.6211  132.0874 H   0  0  0  0  0  0  0  0  0  0  0  0
  149.4383  155.0797  132.0874 H   0  0  0  0  0  0  0  0  0  0  0  0
  150.1072  157.3448  132.3392 H   0  0  0  0  0  0  0  0  0  0  0  0
  149.4654  159.7657  132.5913 H   0  0  0  0  0  0  0  0  0  0  0  0
  147.2548  161.4827  133.1674 H   0  0  0  0  0  0  0  0  0  0  0  0
  142.3830  161.7530  133.8620 H   0  0  0  0  0  0  0  0  0  0  0  0
  142.7230  160.0480  133.4190 H   0  0  0  0  0  0  0  0  0  0  0  0
  141.3807  157.5328  135.2505 H   0  0  0  0  0  0  0  0  0  0  0  0
  141.3229  159.3275  135.1807 H   0  0  0  0  0  0  0  0  0  0  0  0
  140.1300  159.7695  130.6977 H   0  0  0  0  0  0  0  0  0  0  0  0
  140.0702  158.0342  131.1830 H   0  0  0  0  0  0  0  0  0  0  0  0
  137.8991  158.1939  131.7564 H   0  0  0  0  0  0  0  0  0  0  0  0
  138.2342  159.6494  132.7808 H   0  0  0  0  0  0  0  0  0  0  0  0
  146.0298  156.1568  133.3178 H   0  0  0  0  0  0  0  0  0  0  0  0
  1  2  1  0
  2  3  2  0
  3  4  1  0
  4  5  2  0
  5  6  1  0
  6  7  2  0
  7  8  1  0
  8  9  1  0
  8 10  2  0
  7 11  1  0
 11 12  1  0
 12 13  2  0
 12 14  1  0
 14 15  1  0
 15 16  1  0
 16 17  1  0
 17 18  2  0
 17 19  1  0
 19 20  1  0
 20 21  1  0
 21 22  2  0
 21 23  1  0
 11 24  1  0
 24 25  2  0
 25  2  1  0
 24  5  1  0
  1 26  1  0
  1 27  1  0
  1 28  1  0
  3 29  1  0
  4 30  1  0
  6 31  1  0
  9 32  1  0
  9 33  1  0
 15 34  1  0
 15 35  1  0
 19 36  1  0
 19 37  1  0
 20 38  1  0
 20 39  1  0
 25 40  1  0
M  CHG  1  23  -1
M  END
>  <UniqueID>  (83) 
82

>  <SMILES>  (83) 
Cc1ccc2cc(C(N)=O)n(C(=O)OCOC(=O)CCC(=O)[O-])c2c1

>  <Energy>  (83) 
70.95567036226295

>  <Genealogy>  (83) 
Cc1ccc2cc(C(N)=O)n(C(=O)OCOC(=O)CCC(=O)[O-])c2c1 (protonated)
Cc1ccc2cc(C(N)=O)n(C(=O)OCOC(=O)CCC(=O)[O-])c2c1 (3D coordinates assigned)
Cc1ccc2cc(C(N)=O)n(C(=O)OCOC(=O)CCC(=O)[O-])c2c1 (optimized conformer: 70.95567036226295 kcal/mol)

>  <smiles>  (83) 
Cc1ccc2cc(C(N)=O)n(C(=O)OCOC(=O)CCC(=O)O)c2c1

>  <score_type>  (83) 
oracle

>  <origin>  (83) 
adg

>  <m_score__min__energy>  (83) 
-7.1100000000000003

>  <m_primary>  (83) 
energy

$$$$
84:0
     RDKit          3D

 46 47  0  0  0  0  0  0  0  0999 V2000
  138.6240  160.5260  129.9970 C   0  0  0  0  0  0  0  0  0  0  0  0
  138.2110  160.3480  131.3340 O   0  0  0  0  0  0  0  0  0  0  0  0
  137.9480  158.9800  131.5630 C   0  0  0  0  0  0  0  0  0  0  0  0
  139.2510  158.2730  131.9410 C   0  0  0  0  0  0  0  0  0  0  0  0
  139.8480  158.8980  133.0610 O   0  0  0  0  0  0  0  0  0  0  0  0
  141.2240  159.1510  132.8450 C   0  0  0  0  0  0  0  0  0  0  0  0
  141.9800  157.8770  133.0300 C   0  0  0  0  0  0  0  0  0  0  0  0
  142.9080  157.5690  132.2340 O   0  0  0  0  0  0  0  0  0  0  0  0
  141.6360  157.0320  134.0890 O   0  0  0  0  0  0  0  0  0  0  0  0
  140.4920  156.1870  134.0650 C   0  0  0  0  0  0  0  0  0  0  0  0
  140.9010  154.8310  134.2010 O   0  0  0  0  0  0  0  0  0  0  0  0
  140.5980  153.8490  133.2500 C   0  0  0  0  0  0  0  0  0  0  0  0
  139.5030  153.8840  132.6260 O   0  0  0  0  0  0  0  0  0  0  0  0
  141.5410  152.7970  132.9870 N   0  0  0  0  0  0  0  0  0  0  0  0
  142.8820  152.8140  133.2270 C   0  0  0  0  0  0  0  0  0  0  0  0
  143.6700  153.9900  133.6450 C   0  0  0  0  0  0  0  0  0  0  0  0
  143.2410  155.3160  133.3330 N   0  0  0  0  0  0  0  0  0  0  0  0
  144.7670  153.8200  134.2400 O   0  0  0  0  0  0  0  0  0  0  0  0
  143.4450  151.5680  132.9650 C   0  0  0  0  0  0  0  0  0  0  0  0
  142.4000  150.7800  132.5390 C   0  0  0  0  0  0  0  0  0  0  0  0
  142.3850  149.4390  132.1630 C   0  0  0  0  0  0  0  0  0  0  0  0
  141.1530  148.8680  131.8050 C   0  0  0  0  0  0  0  0  0  0  0  0
  139.9670  149.6420  131.8280 C   0  0  0  0  0  0  0  0  0  0  0  0
  138.6490  149.0060  131.4970 C   0  0  0  0  0  0  0  0  0  0  0  0
  138.8660  147.8320  130.7990 F   0  0  0  0  0  0  0  0  0  0  0  0
  140.0150  150.9940  132.2310 C   0  0  0  0  0  0  0  0  0  0  0  0
  141.2600  151.5440  132.5620 C   0  0  0  0  0  0  0  0  0  0  0  0
  139.6340  160.9613  129.9801 H   0  0  0  0  0  0  0  0  0  0  0  0
  138.6355  159.5529  129.4841 H   0  0  0  0  0  0  0  0  0  0  0  0
  137.9245  161.2025  129.4841 H   0  0  0  0  0  0  0  0  0  0  0  0
  137.2224  158.8773  132.3834 H   0  0  0  0  0  0  0  0  0  0  0  0
  137.5326  158.5261  130.6512 H   0  0  0  0  0  0  0  0  0  0  0  0
  139.0349  157.2225  132.1854 H   0  0  0  0  0  0  0  0  0  0  0  0
  139.9458  158.3297  131.0901 H   0  0  0  0  0  0  0  0  0  0  0  0
  141.3752  159.5259  131.8220 H   0  0  0  0  0  0  0  0  0  0  0  0
  141.5827  159.9066  133.5594 H   0  0  0  0  0  0  0  0  0  0  0  0
  139.8222  156.4530  134.8960 H   0  0  0  0  0  0  0  0  0  0  0  0
  139.9610  156.3158  133.1103 H   0  0  0  0  0  0  0  0  0  0  0  0
  143.7880  156.1390  133.6690 H   0  0  0  0  0  0  0  0  0  0  0  0
  142.4260  155.4810  132.7040 H   0  0  0  0  0  0  0  0  0  0  0  0
  144.4997  151.2757  133.0749 H   0  0  0  0  0  0  0  0  0  0  0  0
  143.3106  148.8449  132.1469 H   0  0  0  0  0  0  0  0  0  0  0  0
  141.1087  147.8109  131.5042 H   0  0  0  0  0  0  0  0  0  0  0  0
  138.1050  148.7844  132.4270 H   0  0  0  0  0  0  0  0  0  0  0  0
  138.0542  149.6951  130.8795 H   0  0  0  0  0  0  0  0  0  0  0  0
  139.0985  151.5999  132.2837 H   0  0  0  0  0  0  0  0  0  0  0  0
  1  2  1  0
  2  3  1  0
  3  4  1  0
  4  5  1  0
  5  6  1  0
  6  7  1  0
  7  8  2  0
  7  9  1  0
  9 10  1  0
 10 11  1  0
 11 12  1  0
 12 13  2  0
 12 14  1  0
 14 15  1  0
 15 16  1  0
 16 17  1  0
 16 18  2  0
 15 19  2  0
 19 20  1  0
 20 21  2  0
 21 22  1  0
 22 23  2  0
 23 24  1  0
 24 25  1  0
 23 26  1  0
 26 27  2  0
 27 14  1  0
 27 20  1  0
  1 28  1  0
  1 29  1  0
  1 30  1  0
  3 31  1  0
  3 32  1  0
  4 33  1  0
  4 34  1  0
  6 35  1  0
  6 36  1  0
 10 37  1  0
 10 38  1  0
 17 39  1  0
 17 40  1  0
 19 41  1  0
 21 42  1  0
 22 43  1  0
 24 44  1  0
 24 45  1  0
 26 46  1  0
M  END
>  <UniqueID>  (84) 
83

>  <SMILES>  (84) 
COCCOCC(=O)OCOC(=O)n1c(C(N)=O)cc2ccc(CF)cc21

>  <Energy>  (84) 
79.77030495640689

>  <Genealogy>  (84) 
COCCOCC(=O)OCOC(=O)n1c(C(N)=O)cc2ccc(CF)cc21 (3D coordinates assigned)
COCCOCC(=O)OCOC(=O)n1c(C(N)=O)cc2ccc(CF)cc21 (optimized conformer: 79.77030495640689 kcal/mol)

>  <smiles>  (84) 
COCCOCC(=O)OCOC(=O)n1c(C(N)=O)cc2ccc(CF)cc21

>  <score_type>  (84) 
oracle

>  <origin>  (84) 
adg

>  <m_score__min__energy>  (84) 
-5.3399999999999999

>  <m_primary>  (84) 
energy

$$$$
85:0
     RDKit          3D

 35 36  0  0  0  0  0  0  0  0999 V2000
  144.1830  154.9200  135.6700 C   0  0  0  0  0  0  0  0  0  0  0  0
  144.9790  154.9870  134.4410 N   0  0  0  0  0  0  0  0  0  0  0  0
  146.2440  154.2460  134.3390 C   0  0  0  0  0  0  0  0  0  0  0  0
  147.0100  154.3430  135.6210 C   0  0  0  0  0  0  0  0  0  0  0  0
  146.9850  153.3960  136.4490 O   0  0  0  0  0  0  0  0  0  0  0  0
  147.7380  155.4910  135.9090 O   0  0  0  0  0  0  0  0  0  0  0  0
  144.5270  155.8250  133.3570 C   0  0  0  0  0  0  0  0  0  0  0  0
  144.1450  155.3070  132.2730 O   0  0  0  0  0  0  0  0  0  0  0  0
  144.4800  157.2510  133.5000 N   0  0  0  0  0  0  0  0  0  0  0  0
  143.4050  158.0240  133.8080 C   0  0  0  0  0  0  0  0  0  0  0  0
  142.0430  157.5250  134.0890 C   0  0  0  0  0  0  0  0  0  0  0  0
  141.5190  156.4290  133.3410 N   0  0  0  0  0  0  0  0  0  0  0  0
  141.3330  158.0600  134.9810 O   0  0  0  0  0  0  0  0  0  0  0  0
  143.7710  159.3690  133.8530 C   0  0  0  0  0  0  0  0  0  0  0  0
  145.1180  159.3890  133.5650 C   0  0  0  0  0  0  0  0  0  0  0  0
  146.0030  160.4600  133.4710 C   0  0  0  0  0  0  0  0  0  0  0  0
  147.3440  160.1790  133.1500 C   0  0  0  0  0  0  0  0  0  0  0  0
  147.7680  158.8460  132.9190 C   0  0  0  0  0  0  0  0  0  0  0  0
  149.2070  158.5580  132.5980 C   0  0  0  0  0  0  0  0  0  0  0  0
  149.6360  159.3690  131.4530 C   0  0  0  0  0  0  0  0  0  0  0  0
  149.9750  160.0080  130.5510 N   0  0  0  0  0  0  0  0  0  0  0  0
  146.8430  157.7850  133.0360 C   0  0  0  0  0  0  0  0  0  0  0  0
  145.5210  158.0960  133.3620 C   0  0  0  0  0  0  0  0  0  0  0  0
  144.8504  154.9762  136.5426 H   0  0  0  0  0  0  0  0  0  0  0  0
  143.4753  155.7618  135.6948 H   0  0  0  0  0  0  0  0  0  0  0  0
  143.6260  153.9718  135.6948 H   0  0  0  0  0  0  0  0  0  0  0  0
  146.0286  153.1888  134.1246 H   0  0  0  0  0  0  0  0  0  0  0  0
  146.8478  154.6805  133.5287 H   0  0  0  0  0  0  0  0  0  0  0  0
  142.0940  155.9580  132.6070 H   0  0  0  0  0  0  0  0  0  0  0  0
  143.1225  160.2301  134.0718 H   0  0  0  0  0  0  0  0  0  0  0  0
  145.6647  161.4926  133.6422 H   0  0  0  0  0  0  0  0  0  0  0  0
  148.0705  161.0018  133.0776 H   0  0  0  0  0  0  0  0  0  0  0  0
  149.8309  158.8007  133.4709 H   0  0  0  0  0  0  0  0  0  0  0  0
  149.3156  157.4924  132.3476 H   0  0  0  0  0  0  0  0  0  0  0  0
  147.1552  156.7426  132.8748 H   0  0  0  0  0  0  0  0  0  0  0  0
  1  2  1  0
  2  3  1  0
  3  4  1  0
  4  5  2  0
  4  6  1  0
  2  7  1  0
  7  8  2  0
  7  9  1  0
  9 10  1  0
 10 11  1  0
 11 12  1  0
 11 13  2  0
 10 14  2  0
 14 15  1  0
 15 16  2  0
 16 17  1  0
 17 18  2  0
 18 19  1  0
 19 20  1  0
 20 21  3  0
 18 22  1  0
 22 23  2  0
 23  9  1  0
 23 15  1  0
  1 24  1  0
  1 25  1  0
  1 26  1  0
  3 27  1  0
  3 28  1  0
 12 29  1  0
 14 30  1  0
 16 31  1  0
 17 32  1  0
 19 33  1  0
 19 34  1  0
 22 35  1  0
M  CHG  2   6  -1  12  -1
M  END
>  <UniqueID>  (85) 
84

>  <SMILES>  (85) 
CN(CC(=O)[O-])C(=O)n1c(C([NH-])=O)cc2ccc(CC#N)cc21

>  <Energy>  (85) 
69.03353697447135

>  <Genealogy>  (85) 
CN(CC(=O)[O-])C(=O)n1c(C([NH-])=O)cc2ccc(CC#N)cc21 (protonated)
CN(CC(=O)[O-])C(=O)n1c(C([NH-])=O)cc2ccc(CC#N)cc21 (3D coordinates assigned)
CN(CC(=O)[O-])C(=O)n1c(C([NH-])=O)cc2ccc(CC#N)cc21 (optimized conformer: 69.03353697447135 kcal/mol)

>  <smiles>  (85) 
CN(CC(=O)O)C(=O)n1c(C(N)=O)cc2ccc(CC#N)cc21

>  <score_type>  (85) 
oracle

>  <origin>  (85) 
adg

>  <m_score__min__energy>  (85) 
-6.75

>  <m_primary>  (85) 
energy

$$$$
86:0
     RDKit          3D

 37 38  0  0  0  0  0  0  0  0999 V2000
  140.9320  159.1460  131.8320 N   0  0  0  0  0  0  0  0  0  0  0  0
  139.8820  158.5050  132.6130 C   0  0  0  0  0  0  0  0  0  0  0  0
  140.1950  158.6140  134.0690 C   0  0  0  0  0  0  0  0  0  0  0  0
  139.3450  158.2360  134.9220 O   0  0  0  0  0  0  0  0  0  0  0  0
  141.4070  159.1800  134.4710 O   0  0  0  0  0  0  0  0  0  0  0  0
  142.2440  158.5940  135.4620 C   0  0  0  0  0  0  0  0  0  0  0  0
  143.2900  157.8630  134.8300 O   0  0  0  0  0  0  0  0  0  0  0  0
  143.7510  158.1550  133.5440 C   0  0  0  0  0  0  0  0  0  0  0  0
  143.0480  157.8610  132.5380 O   0  0  0  0  0  0  0  0  0  0  0  0
  145.0280  158.7940  133.3710 N   0  0  0  0  0  0  0  0  0  0  0  0
  145.3110  160.1180  133.5240 C   0  0  0  0  0  0  0  0  0  0  0  0
  144.3230  161.1970  133.7310 C   0  0  0  0  0  0  0  0  0  0  0  0
  142.9420  161.0050  133.4250 N   0  0  0  0  0  0  0  0  0  0  0  0
  144.7150  162.3240  134.1330 O   0  0  0  0  0  0  0  0  0  0  0  0
  146.6790  160.3460  133.4120 C   0  0  0  0  0  0  0  0  0  0  0  0
  147.2340  159.1110  133.1710 C   0  0  0  0  0  0  0  0  0  0  0  0
  148.5670  158.7510  132.9940 C   0  0  0  0  0  0  0  0  0  0  0  0
  148.8610  157.3920  132.8010 C   0  0  0  0  0  0  0  0  0  0  0  0
  147.8280  156.4220  132.7980 C   0  0  0  0  0  0  0  0  0  0  0  0
  148.1690  154.9710  132.6100 C   0  0  0  0  0  0  0  0  0  0  0  0
  147.7100  154.2430  133.6920 F   0  0  0  0  0  0  0  0  0  0  0  0
  149.5390  154.8220  132.5060 F   0  0  0  0  0  0  0  0  0  0  0  0
  146.4870  156.8250  132.9850 C   0  0  0  0  0  0  0  0  0  0  0  0
  146.2180  158.1890  133.1530 C   0  0  0  0  0  0  0  0  0  0  0  0
  141.6650  159.4960  132.4920 H   0  0  0  0  0  0  0  0  0  0  0  0
  141.3890  158.4080  131.2470 H   0  0  0  0  0  0  0  0  0  0  0  0
  138.9211  158.9998  132.4082 H   0  0  0  0  0  0  0  0  0  0  0  0
  139.8195  157.4428  132.3340 H   0  0  0  0  0  0  0  0  0  0  0  0
  142.6781  159.3860  136.0900 H   0  0  0  0  0  0  0  0  0  0  0  0
  141.6485  157.9135  136.0884 H   0  0  0  0  0  0  0  0  0  0  0  0
  142.6130  160.1400  132.9400 H   0  0  0  0  0  0  0  0  0  0  0  0
  142.2520  161.7630  133.6170 H   0  0  0  0  0  0  0  0  0  0  0  0
  147.2044  161.3086  133.4979 H   0  0  0  0  0  0  0  0  0  0  0  0
  149.3651  159.5079  133.0050 H   0  0  0  0  0  0  0  0  0  0  0  0
  149.9041  157.0768  132.6505 H   0  0  0  0  0  0  0  0  0  0  0  0
  147.6910  154.6045  131.6896 H   0  0  0  0  0  0  0  0  0  0  0  0
  145.6733  156.0849  132.9983 H   0  0  0  0  0  0  0  0  0  0  0  0
  1  2  1  0
  2  3  1  0
  3  4  2  0
  3  5  1  0
  5  6  1  0
  6  7  1  0
  7  8  1  0
  8  9  2  0
  8 10  1  0
 10 11  1  0
 11 12  1  0
 12 13  1  0
 12 14  2  0
 11 15  2  0
 15 16  1  0
 16 17  2  0
 17 18  1  0
 18 19  2  0
 19 20  1  0
 20 21  1  0
 20 22  1  0
 19 23  1  0
 23 24  2  0
 24 10  1  0
 24 16  1  0
  1 25  1  0
  1 26  1  0
  2 27  1  0
  2 28  1  0
  6 29  1  0
  6 30  1  0
 13 31  1  0
 13 32  1  0
 15 33  1  0
 17 34  1  0
 18 35  1  0
 20 36  1  0
 23 37  1  0
M  END
>  <UniqueID>  (86) 
85

>  <SMILES>  (86) 
NCC(=O)OCOC(=O)n1c(C(N)=O)cc2ccc(C(F)F)cc21

>  <Energy>  (86) 
69.50485625573509

>  <Genealogy>  (86) 
NCC(=O)OCOC(=O)n1c(C(N)=O)cc2ccc(C(F)F)cc21 (3D coordinates assigned)
NCC(=O)OCOC(=O)n1c(C(N)=O)cc2ccc(C(F)F)cc21 (optimized conformer: 69.50485625573509 kcal/mol)

>  <smiles>  (86) 
NCC(=O)OCOC(=O)n1c(C(N)=O)cc2ccc(C(F)F)cc21

>  <score_type>  (86) 
oracle

>  <origin>  (86) 
adg

>  <m_score__min__energy>  (86) 
-5.3799999999999999

>  <m_primary>  (86) 
energy

$$$$
87:0
     RDKit          3D

 40 41  0  0  0  0  0  0  0  0999 V2000
  145.2090  155.3500  134.9910 C   0  0  0  0  0  0  0  0  0  0  0  0
  146.4440  155.5650  134.2300 N   0  0  0  0  0  0  0  0  0  0  0  0
  147.7020  154.9470  134.6710 C   0  0  0  0  0  0  0  0  0  0  0  0
  147.8170  153.5250  134.1100 C   0  0  0  0  0  0  0  0  0  0  0  0
  148.7950  153.4560  132.9360 C   0  0  0  0  0  0  0  0  0  0  0  0
  148.7690  154.6590  132.2190 O   0  0  0  0  0  0  0  0  0  0  0  0
  146.4380  156.4590  133.0970 C   0  0  0  0  0  0  0  0  0  0  0  0
  146.5110  155.9980  131.9260 O   0  0  0  0  0  0  0  0  0  0  0  0
  146.3570  157.8790  133.2840 N   0  0  0  0  0  0  0  0  0  0  0  0
  147.3100  158.8070  132.9970 C   0  0  0  0  0  0  0  0  0  0  0  0
  148.6920  158.5190  132.5610 C   0  0  0  0  0  0  0  0  0  0  0  0
  149.0190  157.3210  131.8550 N   0  0  0  0  0  0  0  0  0  0  0  0
  149.6130  159.3290  132.8530 O   0  0  0  0  0  0  0  0  0  0  0  0
  146.7950  160.0940  133.1380 C   0  0  0  0  0  0  0  0  0  0  0  0
  145.4810  159.9210  133.5140 C   0  0  0  0  0  0  0  0  0  0  0  0
  144.4800  160.8610  133.7440 C   0  0  0  0  0  0  0  0  0  0  0  0
  143.1910  160.3900  134.0480 C   0  0  0  0  0  0  0  0  0  0  0  0
  142.9240  158.9990  134.1050 C   0  0  0  0  0  0  0  0  0  0  0  0
  141.5420  158.4980  134.4120 C   0  0  0  0  0  0  0  0  0  0  0  0
  140.7000  158.7780  133.3520 F   0  0  0  0  0  0  0  0  0  0  0  0
  141.0640  159.1190  135.5520 F   0  0  0  0  0  0  0  0  0  0  0  0
  143.9650  158.0760  133.8640 C   0  0  0  0  0  0  0  0  0  0  0  0
  145.2410  158.5730  133.5860 C   0  0  0  0  0  0  0  0  0  0  0  0
  145.4304  155.3886  136.0678 H   0  0  0  0  0  0  0  0  0  0  0  0
  144.4811  156.1349  134.7380 H   0  0  0  0  0  0  0  0  0  0  0  0
  144.7891  154.3653  134.7380 H   0  0  0  0  0  0  0  0  0  0  0  0
  148.5489  155.5495  134.3109 H   0  0  0  0  0  0  0  0  0  0  0  0
  147.7144  154.9019  135.7700 H   0  0  0  0  0  0  0  0  0  0  0  0
  148.1701  152.8548  134.9076 H   0  0  0  0  0  0  0  0  0  0  0  0
  146.8247  153.2187  133.7474 H   0  0  0  0  0  0  0  0  0  0  0  0
  149.8115  153.2819  133.3186 H   0  0  0  0  0  0  0  0  0  0  0  0
  148.5009  152.6320  132.2692 H   0  0  0  0  0  0  0  0  0  0  0  0
  148.0800  154.5450  131.5130 H   0  0  0  0  0  0  0  0  0  0  0  0
  149.9850  157.1780  131.4890 H   0  0  0  0  0  0  0  0  0  0  0  0
  148.3430  156.5300  131.7850 H   0  0  0  0  0  0  0  0  0  0  0  0
  147.3247  161.0454  132.9823 H   0  0  0  0  0  0  0  0  0  0  0  0
  144.6914  161.9391  133.6895 H   0  0  0  0  0  0  0  0  0  0  0  0
  142.3811  161.1082  134.2437 H   0  0  0  0  0  0  0  0  0  0  0  0
  141.5799  157.4107  134.5744 H   0  0  0  0  0  0  0  0  0  0  0  0
  143.7762  156.9928  133.8943 H   0  0  0  0  0  0  0  0  0  0  0  0
  1  2  1  0
  2  3  1  0
  3  4  1  0
  4  5  1  0
  5  6  1  0
  2  7  1  0
  7  8  2  0
  7  9  1  0
  9 10  1  0
 10 11  1  0
 11 12  1  0
 11 13  2  0
 10 14  2  0
 14 15  1  0
 15 16  2  0
 16 17  1  0
 17 18  2  0
 18 19  1  0
 19 20  1  0
 19 21  1  0
 18 22  1  0
 22 23  2  0
 23  9  1  0
 23 15  1  0
  1 24  1  0
  1 25  1  0
  1 26  1  0
  3 27  1  0
  3 28  1  0
  4 29  1  0
  4 30  1  0
  5 31  1  0
  5 32  1  0
  6 33  1  0
 12 34  1  0
 12 35  1  0
 14 36  1  0
 16 37  1  0
 17 38  1  0
 19 39  1  0
 22 40  1  0
M  END
>  <UniqueID>  (87) 
86

>  <SMILES>  (87) 
CN(CCCO)C(=O)n1c(C(N)=O)cc2ccc(C(F)F)cc21

>  <Energy>  (87) 
72.74903531770731

>  <Genealogy>  (87) 
CN(CCCO)C(=O)n1c(C(N)=O)cc2ccc(C(F)F)cc21 (3D coordinates assigned)
CN(CCCO)C(=O)n1c(C(N)=O)cc2ccc(C(F)F)cc21 (optimized conformer: 72.74903531770731 kcal/mol)

>  <smiles>  (87) 
CN(CCCO)C(=O)n1c(C(N)=O)cc2ccc(C(F)F)cc21

>  <score_type>  (87) 
oracle

>  <origin>  (87) 
adg

>  <m_score__min__energy>  (87) 
-5.54

>  <m_primary>  (87) 
energy

$$$$
88:0
     RDKit          3D

 48 50  0  0  0  0  0  0  0  0999 V2000
  149.9820  151.4530  131.4450 C   0  0  0  0  0  0  0  0  0  0  0  0
  148.9940  151.9950  132.4930 C   0  0  1  0  0  0  0  0  0  0  0  0
  148.8570  153.5350  132.3110 C   0  0  0  0  0  0  0  0  0  0  0  0
  147.6200  154.0920  132.8860 N   0  0  0  0  0  0  0  0  0  0  0  0
  147.4600  155.5230  132.9340 C   0  0  0  0  0  0  0  0  0  0  0  0
  148.5730  156.3720  132.7000 C   0  0  0  0  0  0  0  0  0  0  0  0
  148.4340  157.7690  132.7460 C   0  0  0  0  0  0  0  0  0  0  0  0
  147.1750  158.2880  133.0420 C   0  0  0  0  0  0  0  0  0  0  0  0
  146.7610  159.5970  133.1400 C   0  0  0  0  0  0  0  0  0  0  0  0
  145.4050  159.5320  133.4650 C   0  0  0  0  0  0  0  0  0  0  0  0
  144.5820  160.7210  133.7700 C   0  0  0  0  0  0  0  0  0  0  0  0
  143.2110  160.7550  133.3830 N   0  0  0  0  0  0  0  0  0  0  0  0
  145.0860  161.7280  134.3340 O   0  0  0  0  0  0  0  0  0  0  0  0
  144.9970  158.2330  133.5600 N   0  0  0  0  0  0  0  0  0  0  0  0
  143.6680  157.7460  133.7960 C   0  0  0  0  0  0  0  0  0  0  0  0
  143.4360  157.0060  134.7940 O   0  0  0  0  0  0  0  0  0  0  0  0
  142.6440  158.0490  132.8910 O   0  0  0  0  0  0  0  0  0  0  0  0
  141.3470  157.4570  132.9730 C   0  0  0  0  0  0  0  0  0  0  0  0
  140.2770  158.4860  132.6180 C   0  0  0  0  0  0  0  0  0  0  0  0
  140.8610  159.6770  132.1570 O   0  0  0  0  0  0  0  0  0  0  0  0
  146.0930  157.4830  133.2990 C   0  0  0  0  0  0  0  0  0  0  0  0
  146.1970  156.0880  133.2400 C   0  0  0  0  0  0  0  0  0  0  0  0
  146.4920  153.2190  133.2270 C   0  0  0  0  0  0  0  0  0  0  0  0
  146.4530  152.0520  132.2520 C   0  0  0  0  0  0  0  0  0  0  0  0
  147.7010  151.2850  132.3950 N   0  0  0  0  0  0  0  0  0  0  0  0
  147.6400  149.8490  132.5350 C   0  0  0  0  0  0  0  0  0  0  0  0
  148.4770  149.2380  133.2640 O   0  0  0  0  0  0  0  0  0  0  0  0
  146.6500  149.1240  131.8840 O   0  0  0  0  0  0  0  0  0  0  0  0
  150.8366  150.9842  131.9547 H   0  0  0  0  0  0  0  0  0  0  0  0
  149.4758  150.7063  130.8156 H   0  0  0  0  0  0  0  0  0  0  0  0
  150.3398  152.2811  130.8156 H   0  0  0  0  0  0  0  0  0  0  0  0
  149.3712  151.8105  133.5097 H   0  0  0  0  0  0  0  0  0  0  0  0
  149.7156  154.0200  132.7985 H   0  0  0  0  0  0  0  0  0  0  0  0
  148.8240  153.7290  131.2287 H   0  0  0  0  0  0  0  0  0  0  0  0
  149.5563  155.9307  132.4800 H   0  0  0  0  0  0  0  0  0  0  0  0
  149.2909  158.4317  132.5546 H   0  0  0  0  0  0  0  0  0  0  0  0
  147.3692  160.5018  132.9934 H   0  0  0  0  0  0  0  0  0  0  0  0
  142.8620  160.1800  132.5860 H   0  0  0  0  0  0  0  0  0  0  0  0
  141.2873  156.6129  132.2702 H   0  0  0  0  0  0  0  0  0  0  0  0
  141.1779  157.1017  134.0002 H   0  0  0  0  0  0  0  0  0  0  0  0
  139.6286  158.0744  131.8305 H   0  0  0  0  0  0  0  0  0  0  0  0
  139.6900  158.7088  133.5212 H   0  0  0  0  0  0  0  0  0  0  0  0
  141.8470  159.5340  132.1740 H   0  0  0  0  0  0  0  0  0  0  0  0
  145.3220  155.4479  133.4262 H   0  0  0  0  0  0  0  0  0  0  0  0
  146.6171  152.8389  134.2516 H   0  0  0  0  0  0  0  0  0  0  0  0
  145.5519  153.7865  133.1634 H   0  0  0  0  0  0  0  0  0  0  0  0
  145.5920  151.4063  132.4797 H   0  0  0  0  0  0  0  0  0  0  0  0
  146.3539  152.4238  131.2215 H   0  0  0  0  0  0  0  0  0  0  0  0
  1  2  1  0
  2  3  1  0
  3  4  1  0
  4  5  1  0
  5  6  2  0
  6  7  1  0
  7  8  2  0
  8  9  1  0
  9 10  2  0
 10 11  1  0
 11 12  1  0
 11 13  2  0
 10 14  1  0
 14 15  1  0
 15 16  2  0
 15 17  1  0
 17 18  1  0
 18 19  1  0
 19 20  1  0
 14 21  1  0
 21 22  2  0
  4 23  1  0
 23 24  1  0
 24 25  1  0
 25 26  1  0
 26 27  2  0
 26 28  1  0
 25  2  1  0
 22  5  1  0
 21  8  1  0
  1 29  1  0
  1 30  1  0
  1 31  1  0
  2 32  1  1
  3 33  1  0
  3 34  1  0
  6 35  1  0
  7 36  1  0
  9 37  1  0
 12 38  1  0
 18 39  1  0
 18 40  1  0
 19 41  1  0
 19 42  1  0
 20 43  1  0
 22 44  1  0
 23 45  1  0
 23 46  1  0
 24 47  1  0
 24 48  1  0
M  CHG  2  12  -1  28  -1
M  END
>  <UniqueID>  (88) 
87

>  <SMILES>  (88) 
C[C@H]1CN(c2ccc3cc(C([NH-])=O)n(C(=O)OCCO)c3c2)CCN1C(=O)[O-]

>  <Energy>  (88) 
91.11365608832583

>  <Genealogy>  (88) 
C[C@H]1CN(c2ccc3cc(C([NH-])=O)n(C(=O)OCCO)c3c2)CCN1C(=O)[O-] (protonated)
C[C@H]1CN(c2ccc3cc(C([NH-])=O)n(C(=O)OCCO)c3c2)CCN1C(=O)[O-] (3D coordinates assigned)
C[C@H]1CN(c2ccc3cc(C([NH-])=O)n(C(=O)OCCO)c3c2)CCN1C(=O)[O-] (nonaromatic ring conformer: 91.11365608832583 kcal/mol)

>  <smiles>  (88) 
C[C@H]1CN(c2ccc3cc(C(N)=O)n(C(=O)OCCO)c3c2)CCN1C(=O)O

>  <score_type>  (88) 
oracle

>  <origin>  (88) 
adg

>  <m_score__min__energy>  (88) 
-6.71

>  <m_primary>  (88) 
energy

$$$$
89:0
     RDKit          3D

 34 35  0  0  0  0  0  0  0  0999 V2000
  148.7454  153.0228  134.9581 H   0  0  0  0  0  0  0  0  0  0  0  0
  148.8640  152.6820  133.9190 C   0  0  0  0  0  0  0  0  0  0  0  0
  148.4360  153.6180  132.8540 C   0  0  0  0  0  0  0  0  0  0  0  0
  149.1690  153.8510  131.8560 O   0  0  0  0  0  0  0  0  0  0  0  0
  147.1880  154.3160  132.9800 N   0  0  0  0  0  0  0  0  0  0  0  0
  145.9360  153.8040  132.8170 C   0  0  0  0  0  0  0  0  0  0  0  0
  145.6260  152.3770  132.5690 C   0  0  0  0  0  0  0  0  0  0  0  0
  144.5580  151.8770  133.0110 O   0  0  0  0  0  0  0  0  0  0  0  0
  146.5180  151.5490  131.8180 N   0  0  0  0  0  0  0  0  0  0  0  0
  147.4450  151.8990  131.4900 H   0  0  0  0  0  0  0  0  0  0  0  0
  146.2670  150.5550  131.6230 H   0  0  0  0  0  0  0  0  0  0  0  0
  144.9800  154.8090  132.9680 C   0  0  0  0  0  0  0  0  0  0  0  0
  143.8871  154.7044  132.8994 H   0  0  0  0  0  0  0  0  0  0  0  0
  145.6930  155.9590  133.2210 C   0  0  0  0  0  0  0  0  0  0  0  0
  145.2510  157.2620  133.4180 C   0  0  0  0  0  0  0  0  0  0  0  0
  144.1775  157.5019  133.4197 H   0  0  0  0  0  0  0  0  0  0  0  0
  146.2170  158.2640  133.6150 C   0  0  0  0  0  0  0  0  0  0  0  0
  145.8971  159.3052  133.7685 H   0  0  0  0  0  0  0  0  0  0  0  0
  147.6010  157.9470  133.6180 C   0  0  0  0  0  0  0  0  0  0  0  0
  148.6290  159.0400  133.7640 C   0  0  0  0  0  0  0  0  0  0  0  0
  149.2140  158.9950  135.0180 F   0  0  0  0  0  0  0  0  0  0  0  0
  149.6080  158.8760  132.8030 F   0  0  0  0  0  0  0  0  0  0  0  0
  148.0450  160.2850  133.6050 F   0  0  0  0  0  0  0  0  0  0  0  0
  148.0100  156.6130  133.3880 C   0  0  0  0  0  0  0  0  0  0  0  0
  149.0774  156.3509  133.3437 H   0  0  0  0  0  0  0  0  0  0  0  0
  147.0240  155.6340  133.2180 C   0  0  0  0  0  0  0  0  0  0  0  0
  149.3860  151.4500  133.7360 C   0  0  0  0  0  0  0  0  0  0  0  0
  149.4550  150.7740  132.4210 C   0  0  0  0  0  0  0  0  0  0  0  0
  150.4380  150.9490  131.6550 O   0  0  0  0  0  0  0  0  0  0  0  0
  148.3850  150.0020  131.9850 O   0  0  0  0  0  0  0  0  0  0  0  0
  149.9460  150.7250  134.9290 C   0  0  0  0  0  0  0  0  0  0  0  0
  149.5797  151.1993  135.8514 H   0  0  0  0  0  0  0  0  0  0  0  0
  149.6231  149.6738  134.9040 H   0  0  0  0  0  0  0  0  0  0  0  0
  151.0447  150.7718  134.9040 H   0  0  0  0  0  0  0  0  0  0  0  0
  1  2  1  0
  2  3  1  0
  3  4  2  0
  3  5  1  0
  5  6  1  0
  6  7  1  0
  7  8  2  0
  7  9  1  0
  9 10  1  0
  9 11  1  0
  6 12  2  0
 12 13  1  0
 12 14  1  0
 14 15  2  0
 15 16  1  0
 15 17  1  0
 17 18  1  0
 17 19  2  0
 19 20  1  0
 20 21  1  0
 20 22  1  0
 20 23  1  0
 19 24  1  0
 24 25  1  0
 24 26  2  0
  2 27  2  0
 27 28  1  0
 28 29  2  0
 28 30  1  0
 27 31  1  0
 31 32  1  0
 31 33  1  0
 31 34  1  0
 26  5  1  0
 26 14  1  0
M  CHG  1  30  -1
M  END
>  <UniqueID>  (89) 
88

>  <SMILES>  (89) 
C/C(=C/C(=O)n1c(C(N)=O)cc2ccc(C(F)(F)F)cc21)C(=O)[O-]

>  <Energy>  (89) 
80.97129797634669

>  <Genealogy>  (89) 
CC(=CC(=O)n1c(C(N)=O)cc2ccc(C(F)(F)F)cc21)C(=O)[O-] (protonated)
C/C(=C/C(=O)n1c(C(N)=O)cc2ccc(C(F)(F)F)cc21)C(=O)[O-] (cis-trans isomerization)
C/C(=C/C(=O)n1c(C(N)=O)cc2ccc(C(F)(F)F)cc21)C(=O)[O-] (3D coordinates assigned)
C/C(=C/C(=O)n1c(C(N)=O)cc2ccc(C(F)(F)F)cc21)C(=O)[O-] (optimized conformer: 80.97129797634669 kcal/mol)

>  <smiles>  (89) 
CC(=CC(=O)n1c(C(N)=O)cc2ccc(C(F)(F)F)cc21)C(=O)O

>  <score_type>  (89) 
oracle

>  <origin>  (89) 
adg

>  <m_score__min__energy>  (89) 
-6.9000000000000004

>  <m_primary>  (89) 
energy

$$$$
90:0
     RDKit          3D

 34 35  0  0  0  0  0  0  0  0999 V2000
  148.0160  154.0530  133.5050 C   0  0  0  0  0  0  0  0  0  0  0  0
  147.7900  155.0420  132.4570 N   0  0  0  0  0  0  0  0  0  0  0  0
  147.6990  156.4580  132.7060 C   0  0  0  0  0  0  0  0  0  0  0  0
  148.8440  157.2980  132.6440 C   0  0  0  0  0  0  0  0  0  0  0  0
  148.7330  158.6790  132.8790 C   0  0  0  0  0  0  0  0  0  0  0  0
  147.4760  159.1920  133.1770 C   0  0  0  0  0  0  0  0  0  0  0  0
  147.0840  160.4890  133.4200 C   0  0  0  0  0  0  0  0  0  0  0  0
  145.7110  160.4240  133.6470 C   0  0  0  0  0  0  0  0  0  0  0  0
  144.8920  161.5930  134.0290 C   0  0  0  0  0  0  0  0  0  0  0  0
  143.4990  161.6110  133.7310 N   0  0  0  0  0  0  0  0  0  0  0  0
  145.4170  162.5940  134.5840 O   0  0  0  0  0  0  0  0  0  0  0  0
  145.2710  159.1380  133.5440 N   0  0  0  0  0  0  0  0  0  0  0  0
  143.9180  158.6630  133.6320 C   0  0  0  0  0  0  0  0  0  0  0  0
  143.3870  158.0960  132.6380 O   0  0  0  0  0  0  0  0  0  0  0  0
  143.1940  158.8430  134.8160 O   0  0  0  0  0  0  0  0  0  0  0  0
  141.9000  158.2880  135.0440 C   0  0  0  0  0  0  0  0  0  0  0  0
  140.9160  158.7380  133.9620 C   0  0  0  0  0  0  0  0  0  0  0  0
  141.2960  159.9740  133.4200 O   0  0  0  0  0  0  0  0  0  0  0  0
  146.3640  158.3960  133.2570 C   0  0  0  0  0  0  0  0  0  0  0  0
  146.4410  157.0210  133.0110 C   0  0  0  0  0  0  0  0  0  0  0  0
  147.9068  154.5308  134.4898 H   0  0  0  0  0  0  0  0  0  0  0  0
  147.2803  153.2411  133.4078 H   0  0  0  0  0  0  0  0  0  0  0  0
  149.0314  153.6413  133.4078 H   0  0  0  0  0  0  0  0  0  0  0  0
  147.6890  154.6940  131.4760 H   0  0  0  0  0  0  0  0  0  0  0  0
  149.8267  156.8627  132.4097 H   0  0  0  0  0  0  0  0  0  0  0  0
  149.6148  159.3347  132.8286 H   0  0  0  0  0  0  0  0  0  0  0  0
  147.7200  161.3864  133.4323 H   0  0  0  0  0  0  0  0  0  0  0  0
  142.8880  160.7980  133.9670 H   0  0  0  0  0  0  0  0  0  0  0  0
  141.9714  157.1904  135.0322 H   0  0  0  0  0  0  0  0  0  0  0  0
  141.5339  158.6380  136.0204 H   0  0  0  0  0  0  0  0  0  0  0  0
  140.8939  157.9852  133.1603 H   0  0  0  0  0  0  0  0  0  0  0  0
  139.9203  158.8460  134.4168 H   0  0  0  0  0  0  0  0  0  0  0  0
  142.2560  159.8960  133.1840 H   0  0  0  0  0  0  0  0  0  0  0  0
  145.5399  156.3916  133.0544 H   0  0  0  0  0  0  0  0  0  0  0  0
  1  2  1  0
  2  3  1  0
  3  4  2  0
  4  5  1  0
  5  6  2  0
  6  7  1  0
  7  8  2  0
  8  9  1  0
  9 10  1  0
  9 11  2  0
  8 12  1  0
 12 13  1  0
 13 14  2  0
 13 15  1  0
 15 16  1  0
 16 17  1  0
 17 18  1  0
 12 19  1  0
 19 20  2  0
 20  3  1  0
 19  6  1  0
  1 21  1  0
  1 22  1  0
  1 23  1  0
  2 24  1  0
  4 25  1  0
  5 26  1  0
  7 27  1  0
 10 28  1  0
 16 29  1  0
 16 30  1  0
 17 31  1  0
 17 32  1  0
 18 33  1  0
 20 34  1  0
M  CHG  1  10  -1
M  END
>  <UniqueID>  (90) 
89

>  <SMILES>  (90) 
CNc1ccc2cc(C([NH-])=O)n(C(=O)OCCO)c2c1

>  <Energy>  (90) 
68.55040916975146

>  <Genealogy>  (90) 
CNc1ccc2cc(C([NH-])=O)n(C(=O)OCCO)c2c1 (protonated)
CNc1ccc2cc(C([NH-])=O)n(C(=O)OCCO)c2c1 (3D coordinates assigned)
CNc1ccc2cc(C([NH-])=O)n(C(=O)OCCO)c2c1 (optimized conformer: 68.55040916975146 kcal/mol)

>  <smiles>  (90) 
CNc1ccc2cc(C(N)=O)n(C(=O)OCCO)c2c1

>  <score_type>  (90) 
oracle

>  <origin>  (90) 
adg

>  <m_score__min__energy>  (90) 
-5.6299999999999999

>  <m_primary>  (90) 
energy

$$$$
91:0
     RDKit          3D

 42 43  0  0  0  0  0  0  0  0999 V2000
  147.3870  160.0490  132.2310 C   0  0  0  0  0  0  0  0  0  0  0  0
  146.8660  159.6090  133.5960 C   0  0  0  0  0  0  0  0  0  0  0  0
  145.3630  159.6610  133.6330 C   0  0  0  0  0  0  0  0  0  0  0  0
  144.6970  160.9080  133.7440 C   0  0  0  0  0  0  0  0  0  0  0  0
  143.2940  160.9730  133.7330 C   0  0  0  0  0  0  0  0  0  0  0  0
  142.5870  159.7810  133.6100 C   0  0  0  0  0  0  0  0  0  0  0  0
  141.2300  159.5620  133.5440 C   0  0  0  0  0  0  0  0  0  0  0  0
  141.0850  158.1830  133.4040 C   0  0  0  0  0  0  0  0  0  0  0  0
  139.7770  157.4910  133.3820 C   0  0  0  0  0  0  0  0  0  0  0  0
  139.6420  156.2030  132.7770 N   0  0  0  0  0  0  0  0  0  0  0  0
  138.7580  158.0460  133.8720 O   0  0  0  0  0  0  0  0  0  0  0  0
  142.3050  157.5730  133.3820 N   0  0  0  0  0  0  0  0  0  0  0  0
  142.5860  156.1760  133.1980 C   0  0  0  0  0  0  0  0  0  0  0  0
  143.4560  155.8140  132.3590 O   0  0  0  0  0  0  0  0  0  0  0  0
  141.9060  155.2220  133.9650 O   0  0  0  0  0  0  0  0  0  0  0  0
  142.1270  153.8190  133.8490 C   0  0  0  0  0  0  0  0  0  0  0  0
  141.0720  153.1970  132.9920 C   0  0  0  0  0  0  0  0  0  0  0  0
  139.9310  153.7280  132.9250 O   0  0  0  0  0  0  0  0  0  0  0  0
  141.3750  152.0470  132.2550 O   0  0  0  0  0  0  0  0  0  0  0  0
  141.2850  150.7240  132.7810 C   0  0  0  0  0  0  0  0  0  0  0  0
  139.9590  150.0730  132.3940 C   0  0  0  0  0  0  0  0  0  0  0  0
  139.0830  151.0310  131.8700 O   0  0  0  0  0  0  0  0  0  0  0  0
  143.2130  158.5650  133.5100 C   0  0  0  0  0  0  0  0  0  0  0  0
  144.6110  158.4730  133.4970 C   0  0  0  0  0  0  0  0  0  0  0  0
  148.2210  160.7533  132.3665 H   0  0  0  0  0  0  0  0  0  0  0  0
  147.7373  159.1692  131.6712 H   0  0  0  0  0  0  0  0  0  0  0  0
  146.5783  160.5416  131.6712 H   0  0  0  0  0  0  0  0  0  0  0  0
  147.1967  158.5787  133.7938 H   0  0  0  0  0  0  0  0  0  0  0  0
  147.2626  160.2908  134.3627 H   0  0  0  0  0  0  0  0  0  0  0  0
  145.2846  161.8330  133.8396 H   0  0  0  0  0  0  0  0  0  0  0  0
  142.7704  161.9365  133.8190 H   0  0  0  0  0  0  0  0  0  0  0  0
  140.4298  160.3153  133.5916 H   0  0  0  0  0  0  0  0  0  0  0  0
  138.7070  155.7410  132.7330 H   0  0  0  0  0  0  0  0  0  0  0  0
  140.4710  155.6870  132.4110 H   0  0  0  0  0  0  0  0  0  0  0  0
  143.1135  153.6433  133.3951 H   0  0  0  0  0  0  0  0  0  0  0  0
  142.0872  153.3664  134.8508 H   0  0  0  0  0  0  0  0  0  0  0  0
  142.1129  150.1203  132.3810 H   0  0  0  0  0  0  0  0  0  0  0  0
  141.3435  150.7772  133.8782 H   0  0  0  0  0  0  0  0  0  0  0  0
  140.1431  149.2967  131.6368 H   0  0  0  0  0  0  0  0  0  0  0  0
  139.5051  149.6247  133.2901 H   0  0  0  0  0  0  0  0  0  0  0  0
  139.5950  151.8790  131.8240 H   0  0  0  0  0  0  0  0  0  0  0  0
  145.1107  157.4996  133.3837 H   0  0  0  0  0  0  0  0  0  0  0  0
  1  2  1  0
  2  3  1  0
  3  4  2  0
  4  5  1  0
  5  6  2  0
  6  7  1  0
  7  8  2  0
  8  9  1  0
  9 10  1  0
  9 11  2  0
  8 12  1  0
 12 13  1  0
 13 14  2  0
 13 15  1  0
 15 16  1  0
 16 17  1  0
 17 18  2  0
 17 19  1  0
 19 20  1  0
 20 21  1  0
 21 22  1  0
 12 23  1  0
 23 24  2  0
 24  3  1  0
 23  6  1  0
  1 25  1  0
  1 26  1  0
  1 27  1  0
  2 28  1  0
  2 29  1  0
  4 30  1  0
  5 31  1  0
  7 32  1  0
 10 33  1  0
 10 34  1  0
 16 35  1  0
 16 36  1  0
 20 37  1  0
 20 38  1  0
 21 39  1  0
 21 40  1  0
 22 41  1  0
 24 42  1  0
M  END
>  <UniqueID>  (91) 
90

>  <SMILES>  (91) 
CCc1ccc2cc(C(N)=O)n(C(=O)OCC(=O)OCCO)c2c1

>  <Energy>  (91) 
70.16691651860933

>  <Genealogy>  (91) 
CCc1ccc2cc(C(N)=O)n(C(=O)OCC(=O)OCCO)c2c1 (3D coordinates assigned)
CCc1ccc2cc(C(N)=O)n(C(=O)OCC(=O)OCCO)c2c1 (optimized conformer: 70.16691651860933 kcal/mol)

>  <smiles>  (91) 
CCc1ccc2cc(C(N)=O)n(C(=O)OCC(=O)OCCO)c2c1

>  <score_type>  (91) 
oracle

>  <origin>  (91) 
adg

>  <m_score__min__energy>  (91) 
-5.9699999999999998

>  <m_primary>  (91) 
energy

$$$$
92:0
     RDKit          3D

 31 32  0  0  0  0  0  0  0  0999 V2000
  148.5880  156.9580  133.4910 N   0  0  0  0  0  0  0  0  0  0  0  0
  148.0720  158.2630  133.2120 C   0  0  0  0  0  0  0  0  0  0  0  0
  148.8650  159.1610  132.8190 O   0  0  0  0  0  0  0  0  0  0  0  0
  146.6330  158.5730  133.3940 C   0  0  0  0  0  0  0  0  0  0  0  0
  146.1010  159.8610  133.4860 C   0  0  0  0  0  0  0  0  0  0  0  0
  144.7380  159.6890  133.5980 C   0  0  0  0  0  0  0  0  0  0  0  0
  143.7220  160.6270  133.7550 C   0  0  0  0  0  0  0  0  0  0  0  0
  142.4040  160.1580  133.8910 C   0  0  0  0  0  0  0  0  0  0  0  0
  142.1290  158.7660  133.8880 C   0  0  0  0  0  0  0  0  0  0  0  0
  140.7250  158.2650  134.0740 C   0  0  0  0  0  0  0  0  0  0  0  0
  140.2230  158.7250  135.2760 F   0  0  0  0  0  0  0  0  0  0  0  0
  139.9260  158.7190  133.0400 F   0  0  0  0  0  0  0  0  0  0  0  0
  143.1850  157.8450  133.7070 C   0  0  0  0  0  0  0  0  0  0  0  0
  144.4840  158.3440  133.5650 C   0  0  0  0  0  0  0  0  0  0  0  0
  145.6330  157.6480  133.4430 N   0  0  0  0  0  0  0  0  0  0  0  0
  145.7510  156.2190  133.4370 C   0  0  0  0  0  0  0  0  0  0  0  0
  145.9810  155.6170  132.3530 O   0  0  0  0  0  0  0  0  0  0  0  0
  145.5130  155.4300  134.6890 C   0  0  0  0  0  0  0  0  0  0  0  0
  147.0620  154.6340  135.2230 P   0  0  0  0  0  0  0  0  0  0  0  0
  147.7510  154.0070  134.0280 O   0  0  0  0  0  0  0  0  0  0  0  0
  146.7230  153.4390  136.3690 O   0  0  0  0  0  0  0  0  0  0  0  0
  148.0800  155.7960  135.9120 O   0  0  0  0  0  0  0  0  0  0  0  0
  149.6050  156.7590  133.3550 H   0  0  0  0  0  0  0  0  0  0  0  0
  147.9600  156.1610  133.7350 H   0  0  0  0  0  0  0  0  0  0  0  0
  146.6533  160.8122  133.4720 H   0  0  0  0  0  0  0  0  0  0  0  0
  143.9440  161.7042  133.7722 H   0  0  0  0  0  0  0  0  0  0  0  0
  141.5784  160.8765  134.0008 H   0  0  0  0  0  0  0  0  0  0  0  0
  140.7321  157.1650  134.0753 H   0  0  0  0  0  0  0  0  0  0  0  0
  142.9905  156.7627  133.6785 H   0  0  0  0  0  0  0  0  0  0  0  0
  145.1564  156.1033  135.4824 H   0  0  0  0  0  0  0  0  0  0  0  0
  144.7570  154.6558  134.4913 H   0  0  0  0  0  0  0  0  0  0  0  0
  1  2  1  0
  2  3  2  0
  2  4  1  0
  4  5  2  0
  5  6  1  0
  6  7  2  0
  7  8  1  0
  8  9  2  0
  9 10  1  0
 10 11  1  0
 10 12  1  0
  9 13  1  0
 13 14  2  0
 14 15  1  0
 15 16  1  0
 16 17  2  0
 16 18  1  0
 18 19  1  0
 19 20  2  0
 19 21  1  0
 19 22  1  0
 15  4  1  0
 14  6  1  0
  1 23  1  0
  1 24  1  0
  5 25  1  0
  7 26  1  0
  8 27  1  0
 10 28  1  0
 13 29  1  0
 18 30  1  0
 18 31  1  0
M  CHG  2  21  -1  22  -1
M  END
>  <UniqueID>  (92) 
91

>  <SMILES>  (92) 
NC(=O)c1cc2ccc(C(F)F)cc2n1C(=O)CP(=O)([O-])[O-]

>  <Energy>  (92) 
65.21798798395784

>  <Genealogy>  (92) 
NC(=O)c1cc2ccc(C(F)F)cc2n1C(=O)CP(=O)([O-])[O-] (protonated)
NC(=O)c1cc2ccc(C(F)F)cc2n1C(=O)CP(=O)([O-])[O-] (3D coordinates assigned)
NC(=O)c1cc2ccc(C(F)F)cc2n1C(=O)CP(=O)([O-])[O-] (optimized conformer: 65.21798798395784 kcal/mol)

>  <smiles>  (92) 
NC(=O)c1cc2ccc(C(F)F)cc2n1C(=O)CP(=O)(O)O

>  <score_type>  (92) 
oracle

>  <origin>  (92) 
adg

>  <m_score__min__energy>  (92) 
-5.6799999999999997

>  <m_primary>  (92) 
energy

$$$$
93:0
     RDKit          3D

 33 34  0  0  0  0  0  0  0  0999 V2000
  148.4820  154.3660  133.2520 C   0  0  0  0  0  0  0  0  0  0  0  0
  147.6830  155.0510  132.2330 N   0  0  0  0  0  0  0  0  0  0  0  0
  147.6340  156.4650  132.5070 C   0  0  0  0  0  0  0  0  0  0  0  0
  148.8200  157.2430  132.4580 C   0  0  0  0  0  0  0  0  0  0  0  0
  148.7870  158.6190  132.7410 C   0  0  0  0  0  0  0  0  0  0  0  0
  147.5630  159.1850  133.0850 C   0  0  0  0  0  0  0  0  0  0  0  0
  147.2460  160.4900  133.3860 C   0  0  0  0  0  0  0  0  0  0  0  0
  145.8780  160.4860  133.6500 C   0  0  0  0  0  0  0  0  0  0  0  0
  145.1350  161.6790  134.1070 C   0  0  0  0  0  0  0  0  0  0  0  0
  143.7910  161.9100  133.6920 N   0  0  0  0  0  0  0  0  0  0  0  0
  145.6780  162.4820  134.9130 O   0  0  0  0  0  0  0  0  0  0  0  0
  145.3680  159.2290  133.5090 N   0  0  0  0  0  0  0  0  0  0  0  0
  143.9980  158.8170  133.6160 C   0  0  0  0  0  0  0  0  0  0  0  0
  143.2590  159.3130  134.5110 O   0  0  0  0  0  0  0  0  0  0  0  0
  143.4810  157.8810  132.7110 O   0  0  0  0  0  0  0  0  0  0  0  0
  142.8610  156.6630  133.1130 C   0  0  0  0  0  0  0  0  0  0  0  0
  143.8860  155.7080  133.6360 C   0  0  0  0  0  0  0  0  0  0  0  0
  144.1280  155.6490  134.8700 O   0  0  0  0  0  0  0  0  0  0  0  0
  144.5940  154.9000  132.7560 O   0  0  0  0  0  0  0  0  0  0  0  0
  146.4130  158.4440  133.1660 C   0  0  0  0  0  0  0  0  0  0  0  0
  146.4120  157.0760  132.8720 C   0  0  0  0  0  0  0  0  0  0  0  0
  148.1343  154.6641  134.2521 H   0  0  0  0  0  0  0  0  0  0  0  0
  148.3712  153.2779  133.1345 H   0  0  0  0  0  0  0  0  0  0  0  0
  149.5404  154.6416  133.1345 H   0  0  0  0  0  0  0  0  0  0  0  0
  148.1070  154.8810  131.2910 H   0  0  0  0  0  0  0  0  0  0  0  0
  146.7150  154.6510  132.2280 H   0  0  0  0  0  0  0  0  0  0  0  0
  149.7749  156.7639  132.1958 H   0  0  0  0  0  0  0  0  0  0  0  0
  149.7004  159.2300  132.6921 H   0  0  0  0  0  0  0  0  0  0  0  0
  147.9278  161.3528  133.4125 H   0  0  0  0  0  0  0  0  0  0  0  0
  143.1870  161.1220  133.3680 H   0  0  0  0  0  0  0  0  0  0  0  0
  142.1248  156.8737  133.9027 H   0  0  0  0  0  0  0  0  0  0  0  0
  142.3612  156.2113  132.2434 H   0  0  0  0  0  0  0  0  0  0  0  0
  145.4827  156.4897  132.9235 H   0  0  0  0  0  0  0  0  0  0  0  0
  1  2  1  0
  2  3  1  0
  3  4  2  0
  4  5  1  0
  5  6  2  0
  6  7  1  0
  7  8  2  0
  8  9  1  0
  9 10  1  0
  9 11  2  0
  8 12  1  0
 12 13  1  0
 13 14  2  0
 13 15  1  0
 15 16  1  0
 16 17  1  0
 17 18  2  0
 17 19  1  0
 12 20  1  0
 20 21  2  0
 21  3  1  0
 20  6  1  0
  1 22  1  0
  1 23  1  0
  1 24  1  0
  2 25  1  0
  2 26  1  0
  4 27  1  0
  5 28  1  0
  7 29  1  0
 10 30  1  0
 16 31  1  0
 16 32  1  0
 21 33  1  0
M  CHG  3   2   1  10  -1  19  -1
M  END
>  <UniqueID>  (93) 
92

>  <SMILES>  (93) 
C[NH2+]c1ccc2cc(C([NH-])=O)n(C(=O)OCC(=O)[O-])c2c1

>  <Energy>  (93) 
69.98270547070223

>  <Genealogy>  (93) 
C[NH2+]c1ccc2cc(C([NH-])=O)n(C(=O)OCC(=O)[O-])c2c1 (protonated)
C[NH2+]c1ccc2cc(C([NH-])=O)n(C(=O)OCC(=O)[O-])c2c1 (3D coordinates assigned)
C[NH2+]c1ccc2cc(C([NH-])=O)n(C(=O)OCC(=O)[O-])c2c1 (optimized conformer: 69.98270547070223 kcal/mol)

>  <smiles>  (93) 
CNc1ccc2cc(C(N)=O)n(C(=O)OCC(=O)O)c2c1

>  <score_type>  (93) 
oracle

>  <origin>  (93) 
adg

>  <m_score__min__energy>  (93) 
-5.6900000000000004

>  <m_primary>  (93) 
energy

$$$$
