0:0
     RDKit          3D

 32 33  0  0  0  0  0  0  0  0999 V2000
  141.4350  159.4800  134.2570 N   0  0  0  0  0  0  0  0  0  0  0  0
  142.4290  160.4320  133.8780 C   0  0  0  0  0  0  0  0  0  0  0  0
  142.0940  161.6340  133.6960 O   0  0  0  0  0  0  0  0  0  0  0  0
  143.8300  160.0290  133.6450 C   0  0  0  0  0  0  0  0  0  0  0  0
  144.9070  160.9120  133.6930 C   0  0  0  0  0  0  0  0  0  0  0  0
  146.0190  160.1460  133.4200 C   0  0  0  0  0  0  0  0  0  0  0  0
  147.3630  160.5040  133.3710 C   0  0  0  0  0  0  0  0  0  0  0  0
  148.3050  159.4900  133.1240 C   0  0  0  0  0  0  0  0  0  0  0  0
  147.8890  158.1480  132.9490 C   0  0  0  0  0  0  0  0  0  0  0  0
  148.8580  157.1230  132.7180 N   0  0  0  0  0  0  0  0  0  0  0  0
  146.5180  157.8210  133.0090 C   0  0  0  0  0  0  0  0  0  0  0  0
  145.6000  158.8540  133.2290 C   0  0  0  0  0  0  0  0  0  0  0  0
  144.2580  158.7690  133.3560 N   0  0  0  0  0  0  0  0  0  0  0  0
  143.4770  157.5640  133.3590 C   0  0  0  0  0  0  0  0  0  0  0  0
  142.8600  157.2180  132.3150 O   0  0  0  0  0  0  0  0  0  0  0  0
  143.4120  156.7090  134.5510 C   0  0  0  0  0  0  0  0  0  0  0  0
  144.0990  155.6510  134.6060 O   0  0  0  0  0  0  0  0  0  0  0  0
  142.5700  157.0660  135.6120 O   0  0  0  0  0  0  0  0  0  0  0  0
  141.3390  156.4050  135.8930 C   0  0  0  0  0  0  0  0  0  0  0  0
  140.2200  157.3950  135.9560 C   0  0  0  0  0  0  0  0  0  0  0  0
  139.8450  157.8560  137.0650 O   0  0  0  0  0  0  0  0  0  0  0  0
  139.6180  157.8420  134.7860 O   0  0  0  0  0  0  0  0  0  0  0  0
  140.4640  159.7970  134.4760 H   0  0  0  0  0  0  0  0  0  0  0  0
  141.6300  158.4560  134.2360 H   0  0  0  0  0  0  0  0  0  0  0  0
  144.8759  161.9911  133.9040 H   0  0  0  0  0  0  0  0  0  0  0  0
  147.6782  161.5472  133.5208 H   0  0  0  0  0  0  0  0  0  0  0  0
  149.3743  159.7414  133.0662 H   0  0  0  0  0  0  0  0  0  0  0  0
  148.8120  156.5280  131.8620 H   0  0  0  0  0  0  0  0  0  0  0  0
  149.6340  156.9560  133.3980 H   0  0  0  0  0  0  0  0  0  0  0  0
  146.1796  156.7816  132.8861 H   0  0  0  0  0  0  0  0  0  0  0  0
  141.1311  155.6726  135.0991 H   0  0  0  0  0  0  0  0  0  0  0  0
  141.4205  155.8954  136.8644 H   0  0  0  0  0  0  0  0  0  0  0  0
  1  2  1  0
  2  3  2  0
  2  4  1  0
  4  5  2  0
  5  6  1  0
  6  7  2  0
  7  8  1  0
  8  9  2  0
  9 10  1  0
  9 11  1  0
 11 12  2  0
 12 13  1  0
 13 14  1  0
 14 15  2  0
 14 16  1  0
 16 17  2  0
 16 18  1  0
 18 19  1  0
 19 20  1  0
 20 21  2  0
 20 22  1  0
 13  4  1  0
 12  6  1  0
  1 23  1  0
  1 24  1  0
  5 25  1  0
  7 26  1  0
  8 27  1  0
 10 28  1  0
 10 29  1  0
 11 30  1  0
 19 31  1  0
 19 32  1  0
M  CHG  1  22  -1
M  END
>  <UniqueID>  (1) 
1

>  <SMILES>  (1) 
NC(=O)c1cc2ccc(N)cc2n1C(=O)C(=O)OCC(=O)[O-]

>  <Energy>  (1) 
69.18725998771453

>  <Genealogy>  (1) 
NC(=O)c1cc2ccc(N)cc2n1C(=O)C(=O)OCC(=O)[O-] (protonated)
NC(=O)c1cc2ccc(N)cc2n1C(=O)C(=O)OCC(=O)[O-] (3D coordinates assigned)
NC(=O)c1cc2ccc(N)cc2n1C(=O)C(=O)OCC(=O)[O-] (optimized conformer: 69.18725998771453 kcal/mol)

>  <smiles>  (1) 
NC(=O)c1cc2ccc(N)cc2n1C(=O)C(=O)OCC(=O)O

>  <score_type>  (1) 
oracle

>  <origin>  (1) 
adg

>  <m_score__min__energy>  (1) 
-5.8399999999999999

>  <m_primary>  (1) 
energy

$$$$
1:0
     RDKit          3D

 65 67  0  0  0  0  0  0  0  0999 V2000
  149.4550  153.6500  132.2860 C   0  0  0  0  0  0  0  0  0  0  0  0
  148.7480  154.6330  133.0040 O   0  0  0  0  0  0  0  0  0  0  0  0
  147.7740  154.0130  133.8140 C   0  0  0  0  0  0  0  0  0  0  0  0
  147.3280  154.9750  134.9150 C   0  0  0  0  0  0  0  0  0  0  0  0
  146.1880  155.7250  134.4970 O   0  0  0  0  0  0  0  0  0  0  0  0
  146.1270  156.4390  133.2940 C   0  0  0  0  0  0  0  0  0  0  0  0
  146.0400  155.8280  132.1940 O   0  0  0  0  0  0  0  0  0  0  0  0
  146.1410  157.8750  133.3170 N   0  0  0  0  0  0  0  0  0  0  0  0
  147.1860  158.6990  133.0180 C   0  0  0  0  0  0  0  0  0  0  0  0
  148.5720  158.2620  132.7380 C   0  0  0  0  0  0  0  0  0  0  0  0
  148.8260  157.0140  132.0900 N   0  0  0  0  0  0  0  0  0  0  0  0
  149.5420  159.0050  133.0410 O   0  0  0  0  0  0  0  0  0  0  0  0
  146.7960  160.0340  133.1140 C   0  0  0  0  0  0  0  0  0  0  0  0
  145.4720  160.0000  133.4880 C   0  0  0  0  0  0  0  0  0  0  0  0
  144.5880  161.0430  133.7350 C   0  0  0  0  0  0  0  0  0  0  0  0
  143.2700  160.7180  134.0960 C   0  0  0  0  0  0  0  0  0  0  0  0
  142.8510  159.3640  134.1860 C   0  0  0  0  0  0  0  0  0  0  0  0
  141.4810  159.0420  134.5140 N   0  0  0  0  0  0  0  0  0  0  0  0
  140.9140  159.4980  135.7980 C   0  0  0  0  0  0  0  0  0  0  0  0
  140.8650  158.3880  136.8610 C   0  0  0  0  0  0  0  0  0  0  0  0
  140.2150  157.0990  136.3370 C   0  0  0  0  0  0  0  0  0  0  0  0
  140.9650  156.4990  135.2180 N   0  0  0  0  0  0  0  0  0  0  0  0
  142.0920  155.6370  135.4850 C   0  0  0  0  0  0  0  0  0  0  0  0
  143.0840  156.0780  136.1260 O   0  0  0  0  0  0  0  0  0  0  0  0
  142.0700  154.3040  135.0440 O   0  0  0  0  0  0  0  0  0  0  0  0
  142.4830  153.8310  133.7540 C   0  0  0  0  0  0  0  0  0  0  0  0
  141.2130  153.4080  133.0000 C   0  0  0  0  0  0  0  0  0  0  0  0
  143.4080  152.6080  133.9000 C   0  0  0  0  0  0  0  0  0  0  0  0
  143.1810  154.9520  132.9600 C   0  0  0  0  0  0  0  0  0  0  0  0
  140.5740  156.8080  133.8310 C   0  0  0  0  0  0  0  0  0  0  0  0
  140.6360  158.3250  133.5430 C   0  0  0  0  0  0  0  0  0  0  0  0
  143.7870  158.3330  133.9330 C   0  0  0  0  0  0  0  0  0  0  0  0
  145.0990  158.6860  133.6010 C   0  0  0  0  0  0  0  0  0  0  0  0
  149.9480  152.9645  132.9910 H   0  0  0  0  0  0  0  0  0  0  0  0
  148.7556  153.0842  131.6530 H   0  0  0  0  0  0  0  0  0  0  0  0
  150.2139  154.1331  131.6530 H   0  0  0  0  0  0  0  0  0  0  0  0
  146.9066  153.7376  133.1961 H   0  0  0  0  0  0  0  0  0  0  0  0
  148.2038  153.1102  134.2725 H   0  0  0  0  0  0  0  0  0  0  0  0
  147.0708  154.3987  135.8159 H   0  0  0  0  0  0  0  0  0  0  0  0
  148.1510  155.6723  135.1306 H   0  0  0  0  0  0  0  0  0  0  0  0
  149.8060  156.7340  131.8600 H   0  0  0  0  0  0  0  0  0  0  0  0
  148.0530  156.3490  131.8710 H   0  0  0  0  0  0  0  0  0  0  0  0
  147.4147  160.9247  132.9300 H   0  0  0  0  0  0  0  0  0  0  0  0
  144.9104  162.0913  133.6504 H   0  0  0  0  0  0  0  0  0  0  0  0
  142.5525  161.5233  134.3120 H   0  0  0  0  0  0  0  0  0  0  0  0
  141.5325  160.3231  136.1810 H   0  0  0  0  0  0  0  0  0  0  0  0
  139.8786  159.8159  135.6061 H   0  0  0  0  0  0  0  0  0  0  0  0
  141.8926  158.1601  137.1804 H   0  0  0  0  0  0  0  0  0  0  0  0
  140.2526  158.7543  137.6982 H   0  0  0  0  0  0  0  0  0  0  0  0
  140.1661  156.3699  137.1592 H   0  0  0  0  0  0  0  0  0  0  0  0
  139.2132  157.3591  135.9646 H   0  0  0  0  0  0  0  0  0  0  0  0
  140.4270  153.1462  133.7237 H   0  0  0  0  0  0  0  0  0  0  0  0
  140.8675  154.2396  132.3682 H   0  0  0  0  0  0  0  0  0  0  0  0
  141.4352  152.5353  132.3682 H   0  0  0  0  0  0  0  0  0  0  0  0
  143.5689  152.3953  134.9672 H   0  0  0  0  0  0  0  0  0  0  0  0
  142.9415  151.7359  133.4185 H   0  0  0  0  0  0  0  0  0  0  0  0
  144.3742  152.8195  133.4185 H   0  0  0  0  0  0  0  0  0  0  0  0
  143.6296  155.6724  133.6599 H   0  0  0  0  0  0  0  0  0  0  0  0
  143.9683  154.5172  132.3267 H   0  0  0  0  0  0  0  0  0  0  0  0
  142.4434  155.4667  132.3267 H   0  0  0  0  0  0  0  0  0  0  0  0
  141.2567  156.2867  133.1438 H   0  0  0  0  0  0  0  0  0  0  0  0
  139.5362  156.4739  133.6853 H   0  0  0  0  0  0  0  0  0  0  0  0
  141.0479  158.4775  132.5345 H   0  0  0  0  0  0  0  0  0  0  0  0
  139.6148  158.7259  133.6234 H   0  0  0  0  0  0  0  0  0  0  0  0
  143.4888  157.2761  133.9962 H   0  0  0  0  0  0  0  0  0  0  0  0
  1  2  1  0
  2  3  1  0
  3  4  1  0
  4  5  1  0
  5  6  1  0
  6  7  2  0
  6  8  1  0
  8  9  1  0
  9 10  1  0
 10 11  1  0
 10 12  2  0
  9 13  2  0
 13 14  1  0
 14 15  2  0
 15 16  1  0
 16 17  2  0
 17 18  1  0
 18 19  1  0
 19 20  1  0
 20 21  1  0
 21 22  1  0
 22 23  1  0
 23 24  2  0
 23 25  1  0
 25 26  1  0
 26 27  1  0
 26 28  1  0
 26 29  1  0
 22 30  1  0
 30 31  1  0
 17 32  1  0
 32 33  2  0
 33  8  1  0
 33 14  1  0
 31 18  1  0
  1 34  1  0
  1 35  1  0
  1 36  1  0
  3 37  1  0
  3 38  1  0
  4 39  1  0
  4 40  1  0
 11 41  1  0
 11 42  1  0
 13 43  1  0
 15 44  1  0
 16 45  1  0
 19 46  1  0
 19 47  1  0
 20 48  1  0
 20 49  1  0
 21 50  1  0
 21 51  1  0
 27 52  1  0
 27 53  1  0
 27 54  1  0
 28 55  1  0
 28 56  1  0
 28 57  1  0
 29 58  1  0
 29 59  1  0
 29 60  1  0
 30 61  1  0
 30 62  1  0
 31 63  1  0
 31 64  1  0
 32 65  1  0
M  END
>  <UniqueID>  (2) 
2

>  <SMILES>  (2) 
COCCOC(=O)n1c(C(N)=O)cc2ccc(N3CCCN(C(=O)OC(C)(C)C)CC3)cc21

>  <Energy>  (2) 
103.99160121711465

>  <Genealogy>  (2) 
COCCOC(=O)n1c(C(N)=O)cc2ccc(N3CCCN(C(=O)OC(C)(C)C)CC3)cc21 (3D coordinates assigned)
COCCOC(=O)n1c(C(N)=O)cc2ccc(N3CCCN(C(=O)OC(C)(C)C)CC3)cc21 (nonaromatic ring conformer: 103.99160121711465 kcal/mol)

>  <smiles>  (2) 
COCCOC(=O)n1c(C(N)=O)cc2ccc(N3CCCN(C(=O)OC(C)(C)C)CC3)cc21

>  <score_type>  (2) 
oracle

>  <origin>  (2) 
adg

>  <m_score__min__energy>  (2) 
-6.6799999999999997

>  <m_primary>  (2) 
energy

$$$$
2:0
     RDKit          3D

 37 39  0  0  0  0  0  0  0  0999 V2000
  149.2380  153.6080  132.5330 C   0  0  0  0  0  0  0  0  0  0  0  0
  148.8320  154.7380  132.6360 C   0  0  0  0  0  0  0  0  0  0  0  0
  148.3470  156.0880  132.7600 C   0  0  0  0  0  0  0  0  0  0  0  0
  149.2370  157.1740  132.5980 C   0  0  0  0  0  0  0  0  0  0  0  0
  148.7740  158.4960  132.7040 C   0  0  0  0  0  0  0  0  0  0  0  0
  147.4230  158.6930  132.9790 C   0  0  0  0  0  0  0  0  0  0  0  0
  146.7080  159.8630  133.1050 C   0  0  0  0  0  0  0  0  0  0  0  0
  145.4000  159.4660  133.3700 C   0  0  0  0  0  0  0  0  0  0  0  0
  144.3020  160.4130  133.6480 C   0  0  0  0  0  0  0  0  0  0  0  0
  142.9940  160.2110  133.1100 N   0  0  0  0  0  0  0  0  0  0  0  0
  144.5080  161.3900  134.4180 O   0  0  0  0  0  0  0  0  0  0  0  0
  145.3040  158.1060  133.3910 N   0  0  0  0  0  0  0  0  0  0  0  0
  144.1130  157.3180  133.5330 C   0  0  0  0  0  0  0  0  0  0  0  0
  143.2960  157.2320  132.5760 O   0  0  0  0  0  0  0  0  0  0  0  0
  143.8560  156.6580  134.7400 O   0  0  0  0  0  0  0  0  0  0  0  0
  142.5440  156.4810  135.2710 C   0  0  0  0  0  0  0  0  0  0  0  0
  141.7380  157.7330  135.1020 C   0  0  0  0  0  0  0  0  0  0  0  0
  141.3970  158.2530  133.9470 O   0  0  0  0  0  0  0  0  0  0  0  0
  140.7100  159.3350  134.2280 C   0  0  0  0  0  0  0  0  0  0  0  0
  140.2200  160.0980  133.3550 O   0  0  0  0  0  0  0  0  0  0  0  0
  140.5910  159.5380  135.5210 O   0  0  0  0  0  0  0  0  0  0  0  0
  141.2220  158.5430  136.0990 C   0  0  0  0  0  0  0  0  0  0  0  0
  141.3710  158.3720  137.5740 C   0  0  0  0  0  0  0  0  0  0  0  0
  146.5520  157.6470  133.1560 C   0  0  0  0  0  0  0  0  0  0  0  0
  146.9840  156.3200  133.0360 C   0  0  0  0  0  0  0  0  0  0  0  0
  149.6086  152.5766  132.4390 H   0  0  0  0  0  0  0  0  0  0  0  0
  150.2996  156.9826  132.3875 H   0  0  0  0  0  0  0  0  0  0  0  0
  149.4568  159.3486  132.5739 H   0  0  0  0  0  0  0  0  0  0  0  0
  147.0886  160.8912  133.0155 H   0  0  0  0  0  0  0  0  0  0  0  0
  142.2420  160.9140  133.2820 H   0  0  0  0  0  0  0  0  0  0  0  0
  142.7440  159.3260  132.6170 H   0  0  0  0  0  0  0  0  0  0  0  0
  142.0467  155.6556  134.7405 H   0  0  0  0  0  0  0  0  0  0  0  0
  142.6217  156.2491  136.3435 H   0  0  0  0  0  0  0  0  0  0  0  0
  140.7342  159.1028  138.0940 H   0  0  0  0  0  0  0  0  0  0  0  0
  141.0672  157.3535  137.8576 H   0  0  0  0  0  0  0  0  0  0  0  0
  142.4215  158.5336  137.8576 H   0  0  0  0  0  0  0  0  0  0  0  0
  146.2801  155.4830  133.1537 H   0  0  0  0  0  0  0  0  0  0  0  0
  1  2  3  0
  2  3  1  0
  3  4  2  0
  4  5  1  0
  5  6  2  0
  6  7  1  0
  7  8  2  0
  8  9  1  0
  9 10  1  0
  9 11  2  0
  8 12  1  0
 12 13  1  0
 13 14  2  0
 13 15  1  0
 15 16  1  0
 16 17  1  0
 17 18  1  0
 18 19  1  0
 19 20  2  0
 19 21  1  0
 21 22  1  0
 22 23  1  0
 12 24  1  0
 24 25  2  0
 25  3  1  0
 24  6  1  0
 22 17  2  0
  1 26  1  0
  4 27  1  0
  5 28  1  0
  7 29  1  0
 10 30  1  0
 10 31  1  0
 16 32  1  0
 16 33  1  0
 23 34  1  0
 23 35  1  0
 23 36  1  0
 25 37  1  0
M  END
>  <UniqueID>  (3) 
3

>  <SMILES>  (3) 
C#Cc1ccc2cc(C(N)=O)n(C(=O)OCc3oc(=O)oc3C)c2c1

>  <Energy>  (3) 
105.58309728634835

>  <Genealogy>  (3) 
C#Cc1ccc2cc(C(N)=O)n(C(=O)OCc3oc(=O)oc3C)c2c1 (3D coordinates assigned)
C#Cc1ccc2cc(C(N)=O)n(C(=O)OCc3oc(=O)oc3C)c2c1 (optimized conformer: 105.58309728634835 kcal/mol)

>  <smiles>  (3) 
C#Cc1ccc2cc(C(N)=O)n(C(=O)OCc3oc(=O)oc3C)c2c1

>  <score_type>  (3) 
oracle

>  <origin>  (3) 
adg

>  <m_score__min__energy>  (3) 
-7.3099999999999996

>  <m_primary>  (3) 
energy

$$$$
3:0
     RDKit          3D

 33 34  0  0  0  0  0  0  0  0999 V2000
  148.8540  160.1950  131.0000 C   0  0  0  0  0  0  0  0  0  0  0  0
  149.4160  159.6840  132.2030 O   0  0  0  0  0  0  0  0  0  0  0  0
  148.6430  159.0810  133.1990 C   0  0  0  0  0  0  0  0  0  0  0  0
  148.8590  159.3350  134.4160 O   0  0  0  0  0  0  0  0  0  0  0  0
  147.5130  158.1710  132.7980 C   0  0  1  0  0  0  0  0  0  0  0  0
  147.7170  156.7400  133.3120 C   0  0  0  0  0  0  0  0  0  0  0  0
  146.1850  158.7360  133.2580 C   0  0  0  0  0  0  0  0  0  0  0  0
  145.9990  160.1410  133.3200 C   0  0  0  0  0  0  0  0  0  0  0  0
  144.7710  160.6860  133.7300 C   0  0  0  0  0  0  0  0  0  0  0  0
  143.7480  159.8090  134.0760 C   0  0  0  0  0  0  0  0  0  0  0  0
  142.4590  160.0680  134.4780 C   0  0  0  0  0  0  0  0  0  0  0  0
  141.8780  158.8180  134.6800 C   0  0  0  0  0  0  0  0  0  0  0  0
  140.5090  158.6350  135.2070 C   0  0  0  0  0  0  0  0  0  0  0  0
  140.2710  158.5340  136.6080 N   0  0  0  0  0  0  0  0  0  0  0  0
  139.5310  158.6200  134.4120 O   0  0  0  0  0  0  0  0  0  0  0  0
  142.7690  157.8240  134.4030 N   0  0  0  0  0  0  0  0  0  0  0  0
  142.5310  156.4080  134.3960 C   0  0  0  0  0  0  0  0  0  0  0  0
  141.5670  155.9270  133.7440 O   0  0  0  0  0  0  0  0  0  0  0  0
  143.3450  155.5550  135.1330 O   0  0  0  0  0  0  0  0  0  0  0  0
  143.9110  158.4480  134.0370 C   0  0  0  0  0  0  0  0  0  0  0  0
  145.1170  157.8770  133.6160 C   0  0  0  0  0  0  0  0  0  0  0  0
  148.0604  160.9166  131.2437 H   0  0  0  0  0  0  0  0  0  0  0  0
  149.6378  160.6963  130.4131 H   0  0  0  0  0  0  0  0  0  0  0  0
  148.4294  159.3672  130.4131 H   0  0  0  0  0  0  0  0  0  0  0  0
  147.5046  158.1167  131.6994 H   0  0  0  0  0  0  0  0  0  0  0  0
  147.7167  156.7420  134.4120 H   0  0  0  0  0  0  0  0  0  0  0  0
  146.9011  156.0992  132.9463 H   0  0  0  0  0  0  0  0  0  0  0  0
  148.6794  156.3527  132.9463 H   0  0  0  0  0  0  0  0  0  0  0  0
  146.8261  160.8115  133.0438 H   0  0  0  0  0  0  0  0  0  0  0  0
  144.6225  161.7750  133.7761 H   0  0  0  0  0  0  0  0  0  0  0  0
  141.9869  161.0525  134.6117 H   0  0  0  0  0  0  0  0  0  0  0  0
  139.4550  159.0140  137.0500 H   0  0  0  0  0  0  0  0  0  0  0  0
  145.2333  156.7844  133.5641 H   0  0  0  0  0  0  0  0  0  0  0  0
  1  2  1  0
  2  3  1  0
  3  4  2  0
  3  5  1  0
  5  6  1  0
  5  7  1  0
  7  8  2  0
  8  9  1  0
  9 10  2  0
 10 11  1  0
 11 12  2  0
 12 13  1  0
 13 14  1  0
 13 15  2  0
 12 16  1  0
 16 17  1  0
 17 18  2  0
 17 19  1  0
 16 20  1  0
 20 21  2  0
 21  7  1  0
 20 10  1  0
  1 22  1  0
  1 23  1  0
  1 24  1  0
  5 25  1  6
  6 26  1  0
  6 27  1  0
  6 28  1  0
  8 29  1  0
  9 30  1  0
 11 31  1  0
 14 32  1  0
 21 33  1  0
M  CHG  2  14  -1  19  -1
M  END
>  <UniqueID>  (4) 
4

>  <SMILES>  (4) 
COC(=O)[C@@H](C)c1ccc2cc(C([NH-])=O)n(C(=O)[O-])c2c1

>  <Energy>  (4) 
69.30478645324786

>  <Genealogy>  (4) 
COC(=O)C(C)c1ccc2cc(C([NH-])=O)n(C(=O)[O-])c2c1 (protonated)
COC(=O)[C@@H](C)c1ccc2cc(C([NH-])=O)n(C(=O)[O-])c2c1 (chirality)
COC(=O)[C@@H](C)c1ccc2cc(C([NH-])=O)n(C(=O)[O-])c2c1 (3D coordinates assigned)
COC(=O)[C@@H](C)c1ccc2cc(C([NH-])=O)n(C(=O)[O-])c2c1 (optimized conformer: 69.30478645324786 kcal/mol)

>  <smiles>  (4) 
COC(=O)C(C)c1ccc2cc(C(N)=O)n(C(=O)O)c2c1

>  <score_type>  (4) 
oracle

>  <origin>  (4) 
adg

>  <m_score__min__energy>  (4) 
-6.2599999999999998

>  <m_primary>  (4) 
energy

$$$$
4:0
     RDKit          3D

 34 35  0  0  0  0  0  0  0  0999 V2000
  146.1530  162.1140  134.3990 N   0  0  0  0  0  0  0  0  0  0  0  0
  145.0880  161.3130  133.8890 C   0  0  0  0  0  0  0  0  0  0  0  0
  143.9690  161.8450  133.6700 O   0  0  0  0  0  0  0  0  0  0  0  0
  145.2980  159.8670  133.6660 C   0  0  0  0  0  0  0  0  0  0  0  0
  144.2820  158.9200  133.7660 C   0  0  0  0  0  0  0  0  0  0  0  0
  144.8580  157.7250  133.4000 C   0  0  0  0  0  0  0  0  0  0  0  0
  144.3040  156.4510  133.3210 C   0  0  0  0  0  0  0  0  0  0  0  0
  145.1400  155.3920  132.9320 C   0  0  0  0  0  0  0  0  0  0  0  0
  146.5110  155.6180  132.6480 C   0  0  0  0  0  0  0  0  0  0  0  0
  147.3560  154.5250  132.2320 N   0  0  0  0  0  0  0  0  0  0  0  0
  148.1300  154.0260  133.3780 C   0  0  0  0  0  0  0  0  0  0  0  0
  149.2890  153.1300  132.9260 C   0  0  0  0  0  0  0  0  0  0  0  0
  149.5760  153.3390  131.5690 O   0  0  0  0  0  0  0  0  0  0  0  0
  147.0350  156.9300  132.7290 C   0  0  0  0  0  0  0  0  0  0  0  0
  146.1730  157.9690  133.1000 C   0  0  0  0  0  0  0  0  0  0  0  0
  146.4610  159.2800  133.2610 N   0  0  0  0  0  0  0  0  0  0  0  0
  147.7490  159.8930  133.0900 C   0  0  0  0  0  0  0  0  0  0  0  0
  148.4850  160.0900  134.0950 O   0  0  0  0  0  0  0  0  0  0  0  0
  148.1810  160.2440  131.8040 O   0  0  0  0  0  0  0  0  0  0  0  0
  149.2360  159.6330  131.1150 C   0  0  0  0  0  0  0  0  0  0  0  0
  149.8340  160.2210  130.1750 O   0  0  0  0  0  0  0  0  0  0  0  0
  149.6290  158.3520  131.4750 O   0  0  0  0  0  0  0  0  0  0  0  0
  147.1220  161.7340  134.4750 H   0  0  0  0  0  0  0  0  0  0  0  0
  143.2395  159.0910  134.0727 H   0  0  0  0  0  0  0  0  0  0  0  0
  143.2433  156.2787  133.5561 H   0  0  0  0  0  0  0  0  0  0  0  0
  144.7270  154.3760  132.8466 H   0  0  0  0  0  0  0  0  0  0  0  0
  148.0040  154.8540  131.4790 H   0  0  0  0  0  0  0  0  0  0  0  0
  146.7650  153.7550  131.8390 H   0  0  0  0  0  0  0  0  0  0  0  0
  148.5369  154.8830  133.9349 H   0  0  0  0  0  0  0  0  0  0  0  0
  147.4596  153.4287  134.0134 H   0  0  0  0  0  0  0  0  0  0  0  0
  150.1817  153.3647  133.5244 H   0  0  0  0  0  0  0  0  0  0  0  0
  149.0000  152.0783  133.0689 H   0  0  0  0  0  0  0  0  0  0  0  0
  150.5640  153.3170  131.4770 H   0  0  0  0  0  0  0  0  0  0  0  0
  148.0937  157.1287  132.5059 H   0  0  0  0  0  0  0  0  0  0  0  0
  1  2  1  0
  2  3  2  0
  2  4  1  0
  4  5  2  0
  5  6  1  0
  6  7  2  0
  7  8  1  0
  8  9  2  0
  9 10  1  0
 10 11  1  0
 11 12  1  0
 12 13  1  0
  9 14  1  0
 14 15  2  0
 15 16  1  0
 16 17  1  0
 17 18  2  0
 17 19  1  0
 19 20  1  0
 20 21  2  0
 20 22  1  0
 16  4  1  0
 15  6  1  0
  1 23  1  0
  5 24  1  0
  7 25  1  0
  8 26  1  0
 10 27  1  0
 10 28  1  0
 11 29  1  0
 11 30  1  0
 12 31  1  0
 12 32  1  0
 13 33  1  0
 14 34  1  0
M  CHG  3   1  -1  10   1  22  -1
M  END
>  <UniqueID>  (5) 
5

>  <SMILES>  (5) 
[NH-]C(=O)c1cc2ccc([NH2+]CCO)cc2n1C(=O)OC(=O)[O-]

>  <Energy>  (5) 
72.80656353792008

>  <Genealogy>  (5) 
[NH-]C(=O)c1cc2ccc([NH2+]CCO)cc2n1C(=O)OC(=O)[O-] (protonated)
[NH-]C(=O)c1cc2ccc([NH2+]CCO)cc2n1C(=O)OC(=O)[O-] (3D coordinates assigned)
[NH-]C(=O)c1cc2ccc([NH2+]CCO)cc2n1C(=O)OC(=O)[O-] (optimized conformer: 72.80656353792008 kcal/mol)

>  <smiles>  (5) 
NC(=O)c1cc2ccc(NCCO)cc2n1C(=O)OC(=O)O

>  <score_type>  (5) 
oracle

>  <origin>  (5) 
adg

>  <m_score__min__energy>  (5) 
-6.0800000000000001

>  <m_primary>  (5) 
energy

$$$$
5:0
     RDKit          3D

 47 48  0  0  0  0  0  0  0  0999 V2000
  139.1800  158.6840  131.8810 C   0  0  0  0  0  0  0  0  0  0  0  0
  139.4310  157.6510  132.6900 C   0  0  0  0  0  0  0  0  0  0  0  0
  140.2630  157.8140  133.9250 C   0  0  0  0  0  0  0  0  0  0  0  0
  140.4740  156.5410  134.5280 O   0  0  0  0  0  0  0  0  0  0  0  0
  141.2140  155.5280  133.9160 C   0  0  0  0  0  0  0  0  0  0  0  0
  140.6800  154.7630  133.0660 O   0  0  0  0  0  0  0  0  0  0  0  0
  142.6700  155.3660  134.2580 C   0  0  1  0  0  0  0  0  0  0  0  0
  143.3960  154.5660  133.1690 C   0  0  0  0  0  0  0  0  0  0  0  0
  144.2890  153.5150  133.7570 C   0  0  0  0  0  0  0  0  0  0  0  0
  145.0200  153.7860  134.7460 O   0  0  0  0  0  0  0  0  0  0  0  0
  144.3420  152.2500  133.1880 O   0  0  0  0  0  0  0  0  0  0  0  0
  143.2870  156.6490  134.3720 O   0  0  0  0  0  0  0  0  0  0  0  0
  143.6630  157.4270  133.2710 C   0  0  0  0  0  0  0  0  0  0  0  0
  142.9180  157.4900  132.2530 O   0  0  0  0  0  0  0  0  0  0  0  0
  144.8850  158.1800  133.3120 N   0  0  0  0  0  0  0  0  0  0  0  0
  145.0280  159.5330  133.4210 C   0  0  0  0  0  0  0  0  0  0  0  0
  143.9450  160.5020  133.6860 C   0  0  0  0  0  0  0  0  0  0  0  0
  142.5990  160.1660  133.3620 N   0  0  0  0  0  0  0  0  0  0  0  0
  144.2000  161.6410  134.1580 O   0  0  0  0  0  0  0  0  0  0  0  0
  146.3710  159.8910  133.3360 C   0  0  0  0  0  0  0  0  0  0  0  0
  147.0550  158.7080  133.1730 C   0  0  0  0  0  0  0  0  0  0  0  0
  148.4200  158.4760  133.0280 C   0  0  0  0  0  0  0  0  0  0  0  0
  148.8480  157.1500  132.8520 C   0  0  0  0  0  0  0  0  0  0  0  0
  147.9100  156.0890  132.8070 C   0  0  0  0  0  0  0  0  0  0  0  0
  148.3840  154.6700  132.6360 C   0  0  0  0  0  0  0  0  0  0  0  0
  147.8320  153.7640  133.7370 C   0  0  0  0  0  0  0  0  0  0  0  0
  147.2050  152.6460  133.1720 O   0  0  0  0  0  0  0  0  0  0  0  0
  146.5330  156.3620  132.9680 C   0  0  0  0  0  0  0  0  0  0  0  0
  146.1360  157.6910  133.1610 C   0  0  0  0  0  0  0  0  0  0  0  0
  138.5663  158.5401  130.9795 H   0  0  0  0  0  0  0  0  0  0  0  0
  139.5870  159.6785  132.1163 H   0  0  0  0  0  0  0  0  0  0  0  0
  139.0186  156.6612  132.4444 H   0  0  0  0  0  0  0  0  0  0  0  0
  141.2331  158.2580  133.6573 H   0  0  0  0  0  0  0  0  0  0  0  0
  139.7407  158.4730  134.6341 H   0  0  0  0  0  0  0  0  0  0  0  0
  142.7397  154.8260  135.2138 H   0  0  0  0  0  0  0  0  0  0  0  0
  142.6482  154.0794  132.5255 H   0  0  0  0  0  0  0  0  0  0  0  0
  144.0203  155.2623  132.5899 H   0  0  0  0  0  0  0  0  0  0  0  0
  142.3790  159.5590  132.5410 H   0  0  0  0  0  0  0  0  0  0  0  0
  146.7953  160.9046  133.3881 H   0  0  0  0  0  0  0  0  0  0  0  0
  149.1414  159.3061  133.0506 H   0  0  0  0  0  0  0  0  0  0  0  0
  149.9214  156.9331  132.7481 H   0  0  0  0  0  0  0  0  0  0  0  0
  148.0453  154.2942  131.6592 H   0  0  0  0  0  0  0  0  0  0  0  0
  149.4823  154.6609  132.6966 H   0  0  0  0  0  0  0  0  0  0  0  0
  148.6584  153.4304  134.3819 H   0  0  0  0  0  0  0  0  0  0  0  0
  147.0969  154.3268  134.3311 H   0  0  0  0  0  0  0  0  0  0  0  0
  146.3990  152.4750  133.7250 H   0  0  0  0  0  0  0  0  0  0  0  0
  145.7910  155.5504  132.9424 H   0  0  0  0  0  0  0  0  0  0  0  0
  1  2  2  0
  2  3  1  0
  3  4  1  0
  4  5  1  0
  5  6  2  0
  5  7  1  0
  7  8  1  0
  8  9  1  0
  9 10  2  0
  9 11  1  0
  7 12  1  0
 12 13  1  0
 13 14  2  0
 13 15  1  0
 15 16  1  0
 16 17  1  0
 17 18  1  0
 17 19  2  0
 16 20  2  0
 20 21  1  0
 21 22  2  0
 22 23  1  0
 23 24  2  0
 24 25  1  0
 25 26  1  0
 26 27  1  0
 24 28  1  0
 28 29  2  0
 29 15  1  0
 29 21  1  0
  1 30  1  0
  1 31  1  0
  2 32  1  0
  3 33  1  0
  3 34  1  0
  7 35  1  1
  8 36  1  0
  8 37  1  0
 18 38  1  0
 20 39  1  0
 22 40  1  0
 23 41  1  0
 25 42  1  0
 25 43  1  0
 26 44  1  0
 26 45  1  0
 27 46  1  0
 28 47  1  0
M  CHG  2  11  -1  18  -1
M  END
>  <UniqueID>  (6) 
6

>  <SMILES>  (6) 
C=CCOC(=O)[C@@H](CC(=O)[O-])OC(=O)n1c(C([NH-])=O)cc2ccc(CCO)cc21

>  <Energy>  (6) 
71.6810567589221

>  <Genealogy>  (6) 
C=CCOC(=O)C(CC(=O)[O-])OC(=O)n1c(C([NH-])=O)cc2ccc(CCO)cc21 (protonated)
C=CCOC(=O)[C@@H](CC(=O)[O-])OC(=O)n1c(C([NH-])=O)cc2ccc(CCO)cc21 (chirality)
C=CCOC(=O)[C@@H](CC(=O)[O-])OC(=O)n1c(C([NH-])=O)cc2ccc(CCO)cc21 (3D coordinates assigned)
C=CCOC(=O)[C@@H](CC(=O)[O-])OC(=O)n1c(C([NH-])=O)cc2ccc(CCO)cc21 (optimized conformer: 71.6810567589221 kcal/mol)

>  <smiles>  (6) 
C=CCOC(=O)C(CC(=O)O)OC(=O)n1c(C(N)=O)cc2ccc(CCO)cc21

>  <score_type>  (6) 
oracle

>  <origin>  (6) 
adg

>  <m_score__min__energy>  (6) 
-7.3899999999999997

>  <m_primary>  (6) 
energy

$$$$
6:0
     RDKit          3D

 40 42  0  0  0  0  0  0  0  0999 V2000
  143.7460  163.2140  133.3580 C   0  0  0  0  0  0  0  0  0  0  0  0
  144.7900  162.4110  134.0050 N   0  0  0  0  0  0  0  0  0  0  0  0
  145.8050  163.0910  134.8190 C   0  0  0  0  0  0  0  0  0  0  0  0
  144.8180  160.9670  133.8440 C   0  0  0  0  0  0  0  0  0  0  0  0
  143.6090  160.2160  133.8010 C   0  0  0  0  0  0  0  0  0  0  0  0
  143.6250  158.8220  133.6360 C   0  0  0  0  0  0  0  0  0  0  0  0
  144.8580  158.1910  133.5250 C   0  0  0  0  0  0  0  0  0  0  0  0
  145.1570  156.8630  133.3290 C   0  0  0  0  0  0  0  0  0  0  0  0
  146.5470  156.8020  133.2780 C   0  0  0  0  0  0  0  0  0  0  0  0
  147.3010  155.5370  133.1600 C   0  0  0  0  0  0  0  0  0  0  0  0
  148.6170  155.5190  132.6110 N   0  0  0  0  0  0  0  0  0  0  0  0
  146.7970  154.4670  133.5930 O   0  0  0  0  0  0  0  0  0  0  0  0
  147.0860  158.0440  133.4280 N   0  0  0  0  0  0  0  0  0  0  0  0
  148.4700  158.4150  133.3330 C   0  0  0  0  0  0  0  0  0  0  0  0
  149.0370  158.9860  134.3050 O   0  0  0  0  0  0  0  0  0  0  0  0
  149.1740  158.1700  132.1480 O   0  0  0  0  0  0  0  0  0  0  0  0
  149.9810  159.1490  131.4980 C   0  0  0  0  0  0  0  0  0  0  0  0
  149.2420  160.4910  131.4380 C   0  0  0  0  0  0  0  0  0  0  0  0
  148.1320  160.5720  130.4020 C   0  0  0  0  0  0  0  0  0  0  0  0
  149.4500  161.2930  130.1640 C   0  0  0  0  0  0  0  0  0  0  0  0
  146.0370  158.8840  133.5810 C   0  0  0  0  0  0  0  0  0  0  0  0
  146.0530  160.2760  133.7240 C   0  0  0  0  0  0  0  0  0  0  0  0
  143.1227  163.6934  134.1272 H   0  0  0  0  0  0  0  0  0  0  0  0
  144.2139  163.9872  132.7309 H   0  0  0  0  0  0  0  0  0  0  0  0
  143.1188  162.5633  132.7309 H   0  0  0  0  0  0  0  0  0  0  0  0
  145.5808  162.9408  135.8854 H   0  0  0  0  0  0  0  0  0  0  0  0
  146.7973  162.6747  134.5908 H   0  0  0  0  0  0  0  0  0  0  0  0
  145.7975  164.1670  134.5908 H   0  0  0  0  0  0  0  0  0  0  0  0
  142.6454  160.7374  133.8988 H   0  0  0  0  0  0  0  0  0  0  0  0
  142.6887  158.2460  133.5958 H   0  0  0  0  0  0  0  0  0  0  0  0
  144.4487  156.0269  133.2330 H   0  0  0  0  0  0  0  0  0  0  0  0
  148.8850  156.1680  131.8390 H   0  0  0  0  0  0  0  0  0  0  0  0
  150.9194  159.2759  132.0578 H   0  0  0  0  0  0  0  0  0  0  0  0
  150.1969  158.8126  130.4732 H   0  0  0  0  0  0  0  0  0  0  0  0
  149.3228  160.7049  132.5140 H   0  0  0  0  0  0  0  0  0  0  0  0
  147.8732  159.6867  129.8026 H   0  0  0  0  0  0  0  0  0  0  0  0
  147.0734  160.8707  130.4175 H   0  0  0  0  0  0  0  0  0  0  0  0
  150.1444  160.9292  129.3923 H   0  0  0  0  0  0  0  0  0  0  0  0
  149.7395  162.3294  129.9359 H   0  0  0  0  0  0  0  0  0  0  0  0
  147.0057  160.8255  133.7431 H   0  0  0  0  0  0  0  0  0  0  0  0
  1  2  1  0
  2  3  1  0
  2  4  1  0
  4  5  2  0
  5  6  1  0
  6  7  2  0
  7  8  1  0
  8  9  2  0
  9 10  1  0
 10 11  1  0
 10 12  2  0
  9 13  1  0
 13 14  1  0
 14 15  2  0
 14 16  1  0
 16 17  1  0
 17 18  1  0
 18 19  1  0
 19 20  1  0
 13 21  1  0
 21 22  2  0
 22  4  1  0
 21  7  1  0
 20 18  1  0
  1 23  1  0
  1 24  1  0
  1 25  1  0
  3 26  1  0
  3 27  1  0
  3 28  1  0
  5 29  1  0
  6 30  1  0
  8 31  1  0
 11 32  1  0
 17 33  1  0
 17 34  1  0
 18 35  1  0
 19 36  1  0
 19 37  1  0
 20 38  1  0
 20 39  1  0
 22 40  1  0
M  CHG  1  11  -1
M  END
>  <UniqueID>  (7) 
7

>  <SMILES>  (7) 
CN(C)c1ccc2cc(C([NH-])=O)n(C(=O)OCC3CC3)c2c1

>  <Energy>  (7) 
342.5529073323171

>  <Genealogy>  (7) 
CN(C)c1ccc2cc(C([NH-])=O)n(C(=O)OCC3CC3)c2c1 (protonated)
CN(C)c1ccc2cc(C([NH-])=O)n(C(=O)OCC3CC3)c2c1 (3D coordinates assigned)
CN(C)c1ccc2cc(C([NH-])=O)n(C(=O)OCC3CC3)c2c1 (nonaromatic ring conformer: 342.5529073323171 kcal/mol)

>  <smiles>  (7) 
CN(C)c1ccc2cc(C(N)=O)n(C(=O)OCC3CC3)c2c1

>  <score_type>  (7) 
oracle

>  <origin>  (7) 
adg

>  <m_score__min__energy>  (7) 
-6.5300000000000002

>  <m_primary>  (7) 
energy

$$$$
7:0
     RDKit          3D

 34 36  0  0  0  0  0  0  0  0999 V2000
  149.7170  157.5320  131.9550 N   0  0  0  0  0  0  0  0  0  0  0  0
  149.2220  158.8440  132.2070 C   0  0  0  0  0  0  0  0  0  0  0  0
  149.9590  159.8370  131.9660 O   0  0  0  0  0  0  0  0  0  0  0  0
  147.8500  159.0570  132.7150 C   0  0  0  0  0  0  0  0  0  0  0  0
  147.2810  160.3160  132.9030 C   0  0  0  0  0  0  0  0  0  0  0  0
  145.9960  160.0740  133.3400 C   0  0  0  0  0  0  0  0  0  0  0  0
  144.9910  160.9650  133.7030 C   0  0  0  0  0  0  0  0  0  0  0  0
  143.7720  160.4310  134.1550 C   0  0  0  0  0  0  0  0  0  0  0  0
  143.5790  159.0280  134.2430 C   0  0  0  0  0  0  0  0  0  0  0  0
  142.2860  158.5000  134.7310 C   0  0  0  0  0  0  0  0  0  0  0  0
  141.6690  157.3110  134.3930 C   0  0  0  0  0  0  0  0  0  0  0  0
  140.5040  157.2200  135.0610 N   0  0  0  0  0  0  0  0  0  0  0  0
  140.4580  158.3590  135.7830 C   0  0  0  0  0  0  0  0  0  0  0  0
  141.5110  159.1190  135.5880 O   0  0  0  0  0  0  0  0  0  0  0  0
  144.6300  158.1570  133.8680 C   0  0  0  0  0  0  0  0  0  0  0  0
  145.8250  158.7170  133.4060 C   0  0  0  0  0  0  0  0  0  0  0  0
  146.9510  158.0790  133.0210 N   0  0  0  0  0  0  0  0  0  0  0  0
  147.1710  156.6610  133.0390 C   0  0  0  0  0  0  0  0  0  0  0  0
  147.0120  155.9970  131.9800 O   0  0  0  0  0  0  0  0  0  0  0  0
  147.5750  155.9800  134.2840 C   0  0  0  0  0  0  0  0  0  0  0  0
  148.0510  156.6560  135.2360 O   0  0  0  0  0  0  0  0  0  0  0  0
  147.3730  154.5040  134.4640 C   0  0  0  0  0  0  0  0  0  0  0  0
  146.5370  154.2430  135.6740 C   0  0  0  0  0  0  0  0  0  0  0  0
  145.4440  154.8480  135.8330 O   0  0  0  0  0  0  0  0  0  0  0  0
  146.9850  153.3630  136.6520 O   0  0  0  0  0  0  0  0  0  0  0  0
  149.0630  156.7390  131.7670 H   0  0  0  0  0  0  0  0  0  0  0  0
  147.7563  161.2942  132.7378 H   0  0  0  0  0  0  0  0  0  0  0  0
  145.1454  162.0522  133.6383 H   0  0  0  0  0  0  0  0  0  0  0  0
  142.9564  161.1100  134.4445 H   0  0  0  0  0  0  0  0  0  0  0  0
  142.0651  156.5612  133.6924 H   0  0  0  0  0  0  0  0  0  0  0  0
  139.6310  158.6215  136.4592 H   0  0  0  0  0  0  0  0  0  0  0  0
  144.5095  157.0659  133.9384 H   0  0  0  0  0  0  0  0  0  0  0  0
  146.8665  154.0955  133.5771 H   0  0  0  0  0  0  0  0  0  0  0  0
  148.3525  154.0201  134.5925 H   0  0  0  0  0  0  0  0  0  0  0  0
  1  2  1  0
  2  3  2  0
  2  4  1  0
  4  5  2  0
  5  6  1  0
  6  7  2  0
  7  8  1  0
  8  9  2  0
  9 10  1  0
 10 11  2  0
 11 12  1  0
 12 13  2  0
 13 14  1  0
  9 15  1  0
 15 16  2  0
 16 17  1  0
 17 18  1  0
 18 19  2  0
 18 20  1  0
 20 21  2  0
 20 22  1  0
 22 23  1  0
 23 24  2  0
 23 25  1  0
 17  4  1  0
 16  6  1  0
 14 10  1  0
  1 26  1  0
  5 27  1  0
  7 28  1  0
  8 29  1  0
 11 30  1  0
 13 31  1  0
 15 32  1  0
 22 33  1  0
 22 34  1  0
M  CHG  2   1  -1  25  -1
M  END
>  <UniqueID>  (8) 
8

>  <SMILES>  (8) 
[NH-]C(=O)c1cc2ccc(-c3cnco3)cc2n1C(=O)C(=O)CC(=O)[O-]

>  <Energy>  (8) 
104.37856881700424

>  <Genealogy>  (8) 
[NH-]C(=O)c1cc2ccc(-c3cnco3)cc2n1C(=O)C(=O)CC(=O)[O-] (protonated)
[NH-]C(=O)c1cc2ccc(-c3cnco3)cc2n1C(=O)C(=O)CC(=O)[O-] (3D coordinates assigned)
[NH-]C(=O)c1cc2ccc(-c3cnco3)cc2n1C(=O)C(=O)CC(=O)[O-] (optimized conformer: 104.37856881700424 kcal/mol)

>  <smiles>  (8) 
NC(=O)c1cc2ccc(-c3cnco3)cc2n1C(=O)C(=O)CC(=O)O

>  <score_type>  (8) 
oracle

>  <origin>  (8) 
adg

>  <m_score__min__energy>  (8) 
-6.9699999999999998

>  <m_primary>  (8) 
energy

$$$$
8:0
     RDKit          3D

 37 38  0  0  0  0  0  0  0  0999 V2000
  148.2820  154.9590  132.6360 C   0  0  0  0  0  0  0  0  0  0  0  0
  147.1490  155.6230  132.8820 C   0  0  0  0  0  0  0  0  0  0  0  0
  145.8650  155.1390  132.2650 C   0  0  0  0  0  0  0  0  0  0  0  0
  147.1470  156.8010  133.7850 C   0  0  0  0  0  0  0  0  0  0  0  0
  147.8300  156.7870  134.8450 O   0  0  0  0  0  0  0  0  0  0  0  0
  146.3940  157.9790  133.4560 N   0  0  0  0  0  0  0  0  0  0  0  0
  146.8740  159.1620  132.9850 C   0  0  0  0  0  0  0  0  0  0  0  0
  148.2680  159.4230  132.5710 C   0  0  0  0  0  0  0  0  0  0  0  0
  149.3740  158.9180  133.3210 N   0  0  0  0  0  0  0  0  0  0  0  0
  148.4880  160.0680  131.5110 O   0  0  0  0  0  0  0  0  0  0  0  0
  145.8630  160.1190  132.9410 C   0  0  0  0  0  0  0  0  0  0  0  0
  144.7350  159.4780  133.4060 C   0  0  0  0  0  0  0  0  0  0  0  0
  143.4480  159.9650  133.6110 C   0  0  0  0  0  0  0  0  0  0  0  0
  142.4940  159.0930  134.1620 C   0  0  0  0  0  0  0  0  0  0  0  0
  142.8440  157.7610  134.5010 C   0  0  0  0  0  0  0  0  0  0  0  0
  141.8260  156.8520  135.1390 C   0  0  0  0  0  0  0  0  0  0  0  0
  141.4270  157.3390  136.5370 C   0  0  0  0  0  0  0  0  0  0  0  0
  140.3720  158.4010  136.4740 C   0  0  0  0  0  0  0  0  0  0  0  0
  140.6370  159.5790  136.8310 O   0  0  0  0  0  0  0  0  0  0  0  0
  139.1100  158.1010  135.9780 O   0  0  0  0  0  0  0  0  0  0  0  0
  144.1650  157.3070  134.2900 C   0  0  0  0  0  0  0  0  0  0  0  0
  145.0850  158.1900  133.7160 C   0  0  0  0  0  0  0  0  0  0  0  0
  149.2280  155.3018  133.0806 H   0  0  0  0  0  0  0  0  0  0  0  0
  148.2688  154.0696  131.9889 H   0  0  0  0  0  0  0  0  0  0  0  0
  145.1541  154.8710  133.0605 H   0  0  0  0  0  0  0  0  0  0  0  0
  145.4343  155.9365  131.6417 H   0  0  0  0  0  0  0  0  0  0  0  0
  146.0679  154.2556  131.6417 H   0  0  0  0  0  0  0  0  0  0  0  0
  149.2390  158.2180  134.0820 H   0  0  0  0  0  0  0  0  0  0  0  0
  150.3500  159.1660  133.0430 H   0  0  0  0  0  0  0  0  0  0  0  0
  145.9469  161.1635  132.6065 H   0  0  0  0  0  0  0  0  0  0  0  0
  143.1854  161.0008  133.3497 H   0  0  0  0  0  0  0  0  0  0  0  0
  141.4663  159.4466  134.3320 H   0  0  0  0  0  0  0  0  0  0  0  0
  140.9289  156.8199  134.5033 H   0  0  0  0  0  0  0  0  0  0  0  0
  142.2744  155.8526  135.2394 H   0  0  0  0  0  0  0  0  0  0  0  0
  141.0404  156.4864  137.1146 H   0  0  0  0  0  0  0  0  0  0  0  0
  142.3181  157.7692  137.0174 H   0  0  0  0  0  0  0  0  0  0  0  0
  144.4622  156.2856  134.5699 H   0  0  0  0  0  0  0  0  0  0  0  0
  1  2  2  0
  2  3  1  0
  2  4  1  0
  4  5  2  0
  4  6  1  0
  6  7  1  0
  7  8  1  0
  8  9  1  0
  8 10  2  0
  7 11  2  0
 11 12  1  0
 12 13  2  0
 13 14  1  0
 14 15  2  0
 15 16  1  0
 16 17  1  0
 17 18  1  0
 18 19  2  0
 18 20  1  0
 15 21  1  0
 21 22  2  0
 22  6  1  0
 22 12  1  0
  1 23  1  0
  1 24  1  0
  3 25  1  0
  3 26  1  0
  3 27  1  0
  9 28  1  0
  9 29  1  0
 11 30  1  0
 13 31  1  0
 14 32  1  0
 16 33  1  0
 16 34  1  0
 17 35  1  0
 17 36  1  0
 21 37  1  0
M  CHG  1  20  -1
M  END
>  <UniqueID>  (9) 
9

>  <SMILES>  (9) 
C=C(C)C(=O)n1c(C(N)=O)cc2ccc(CCC(=O)[O-])cc21

>  <Energy>  (9) 
72.53261050420959

>  <Genealogy>  (9) 
C=C(C)C(=O)n1c(C(N)=O)cc2ccc(CCC(=O)[O-])cc21 (protonated)
C=C(C)C(=O)n1c(C(N)=O)cc2ccc(CCC(=O)[O-])cc21 (3D coordinates assigned)
C=C(C)C(=O)n1c(C(N)=O)cc2ccc(CCC(=O)[O-])cc21 (optimized conformer: 72.53261050420959 kcal/mol)

>  <smiles>  (9) 
C=C(C)C(=O)n1c(C(N)=O)cc2ccc(CCC(=O)O)cc21

>  <score_type>  (9) 
oracle

>  <origin>  (9) 
adg

>  <m_score__min__energy>  (9) 
-7.2800000000000002

>  <m_primary>  (9) 
energy

$$$$
9:0
     RDKit          3D

 33 34  0  0  0  0  0  0  0  0999 V2000
  150.3060  160.7110  131.2120 N   0  0  0  0  0  0  0  0  0  0  0  0
  148.9360  160.3150  131.2960 C   0  0  0  0  0  0  0  0  0  0  0  0
  148.0560  161.0150  130.7280 O   0  0  0  0  0  0  0  0  0  0  0  0
  148.5400  159.0670  131.9780 C   0  0  0  0  0  0  0  0  0  0  0  0
  149.2480  157.8740  131.8610 C   0  0  0  0  0  0  0  0  0  0  0  0
  148.5960  156.9840  132.6850 C   0  0  0  0  0  0  0  0  0  0  0  0
  148.8580  155.6400  132.9300 C   0  0  0  0  0  0  0  0  0  0  0  0
  147.9930  154.9470  133.7910 C   0  0  0  0  0  0  0  0  0  0  0  0
  146.8920  155.6030  134.3970 C   0  0  0  0  0  0  0  0  0  0  0  0
  145.9330  154.8310  135.2680 C   0  0  0  0  0  0  0  0  0  0  0  0
  144.8150  155.5940  135.5590 F   0  0  0  0  0  0  0  0  0  0  0  0
  146.5650  154.4880  136.4480 F   0  0  0  0  0  0  0  0  0  0  0  0
  145.5150  153.6770  134.6280 F   0  0  0  0  0  0  0  0  0  0  0  0
  146.6430  156.9640  134.1010 C   0  0  0  0  0  0  0  0  0  0  0  0
  147.5350  157.6380  133.2560 C   0  0  0  0  0  0  0  0  0  0  0  0
  147.4850  158.9210  132.8280 N   0  0  0  0  0  0  0  0  0  0  0  0
  146.4570  159.8860  133.1080 C   0  0  0  0  0  0  0  0  0  0  0  0
  146.7380  160.9520  133.7210 O   0  0  0  0  0  0  0  0  0  0  0  0
  145.1440  159.6380  132.6950 O   0  0  0  0  0  0  0  0  0  0  0  0
  144.0820  159.3870  133.6090 C   0  0  0  0  0  0  0  0  0  0  0  0
  143.3530  160.6890  133.9230 C   0  0  0  0  0  0  0  0  0  0  0  0
  144.2000  161.7880  133.7190 O   0  0  0  0  0  0  0  0  0  0  0  0
  151.0710  160.0740  131.5260 H   0  0  0  0  0  0  0  0  0  0  0  0
  150.5630  161.6180  130.7650 H   0  0  0  0  0  0  0  0  0  0  0  0
  150.1376  157.6832  131.2428 H   0  0  0  0  0  0  0  0  0  0  0  0
  149.7169  155.1357  132.4632 H   0  0  0  0  0  0  0  0  0  0  0  0
  148.1716  153.8816  133.9982 H   0  0  0  0  0  0  0  0  0  0  0  0
  145.7694  157.4812  134.5244 H   0  0  0  0  0  0  0  0  0  0  0  0
  143.3761  158.6719  133.1613 H   0  0  0  0  0  0  0  0  0  0  0  0
  144.4941  158.9678  134.5388 H   0  0  0  0  0  0  0  0  0  0  0  0
  142.4763  160.7807  133.2650 H   0  0  0  0  0  0  0  0  0  0  0  0
  143.0368  160.6744  134.9765 H   0  0  0  0  0  0  0  0  0  0  0  0
  144.8120  161.5430  132.9780 H   0  0  0  0  0  0  0  0  0  0  0  0
  1  2  1  0
  2  3  2  0
  2  4  1  0
  4  5  2  0
  5  6  1  0
  6  7  2  0
  7  8  1  0
  8  9  2  0
  9 10  1  0
 10 11  1  0
 10 12  1  0
 10 13  1  0
  9 14  1  0
 14 15  2  0
 15 16  1  0
 16 17  1  0
 17 18  2  0
 17 19  1  0
 19 20  1  0
 20 21  1  0
 21 22  1  0
 16  4  1  0
 15  6  1  0
  1 23  1  0
  1 24  1  0
  5 25  1  0
  7 26  1  0
  8 27  1  0
 14 28  1  0
 20 29  1  0
 20 30  1  0
 21 31  1  0
 21 32  1  0
 22 33  1  0
M  END
>  <UniqueID>  (10) 
10

>  <SMILES>  (10) 
NC(=O)c1cc2ccc(C(F)(F)F)cc2n1C(=O)OCCO

>  <Energy>  (10) 
68.36320045557544

>  <Genealogy>  (10) 
NC(=O)c1cc2ccc(C(F)(F)F)cc2n1C(=O)OCCO (3D coordinates assigned)
NC(=O)c1cc2ccc(C(F)(F)F)cc2n1C(=O)OCCO (optimized conformer: 68.36320045557544 kcal/mol)

>  <smiles>  (10) 
NC(=O)c1cc2ccc(C(F)(F)F)cc2n1C(=O)OCCO

>  <score_type>  (10) 
oracle

>  <origin>  (10) 
adg

>  <m_score__min__energy>  (10) 
-5.7199999999999998

>  <m_primary>  (10) 
energy

$$$$
10:0
     RDKit          3D

 36 37  0  0  0  0  0  0  0  0999 V2000
  147.6780  154.0010  136.6820 C   0  0  0  0  0  0  0  0  0  0  0  0
  146.4700  153.5130  136.1120 O   0  0  0  0  0  0  0  0  0  0  0  0
  145.5730  154.3370  135.4260 C   0  0  0  0  0  0  0  0  0  0  0  0
  144.5790  154.8350  136.0220 O   0  0  0  0  0  0  0  0  0  0  0  0
  145.8060  154.6360  134.0070 C   0  0  0  0  0  0  0  0  0  0  0  0
  145.0560  154.1210  133.1350 O   0  0  0  0  0  0  0  0  0  0  0  0
  146.8900  155.4850  133.5980 N   0  0  0  0  0  0  0  0  0  0  0  0
  148.1010  155.0960  133.1100 C   0  0  0  0  0  0  0  0  0  0  0  0
  148.6020  153.7080  133.0430 C   0  0  0  0  0  0  0  0  0  0  0  0
  147.8320  152.6140  133.5450 N   0  0  0  0  0  0  0  0  0  0  0  0
  149.7480  153.4860  132.5710 O   0  0  0  0  0  0  0  0  0  0  0  0
  148.8270  156.2000  132.6650 C   0  0  0  0  0  0  0  0  0  0  0  0
  148.0140  157.2870  132.9000 C   0  0  0  0  0  0  0  0  0  0  0  0
  148.2180  158.6310  132.6160 C   0  0  0  0  0  0  0  0  0  0  0  0
  147.1820  159.5320  132.9140 C   0  0  0  0  0  0  0  0  0  0  0  0
  145.9520  159.0810  133.4730 C   0  0  0  0  0  0  0  0  0  0  0  0
  144.8840  160.0180  133.7640 N   0  0  0  0  0  0  0  0  0  0  0  0
  143.4810  159.5870  133.7170 C   0  0  0  0  0  0  0  0  0  0  0  0
  145.1890  161.4080  134.1190 C   0  0  0  0  0  0  0  0  0  0  0  0
  145.7900  157.6970  133.7340 C   0  0  0  0  0  0  0  0  0  0  0  0
  146.8500  156.8290  133.4560 C   0  0  0  0  0  0  0  0  0  0  0  0
  147.6040  153.9711  137.7791 H   0  0  0  0  0  0  0  0  0  0  0  0
  148.5186  153.3719  136.3539 H   0  0  0  0  0  0  0  0  0  0  0  0
  147.8458  155.0374  136.3539 H   0  0  0  0  0  0  0  0  0  0  0  0
  146.9680  152.7720  134.1110 H   0  0  0  0  0  0  0  0  0  0  0  0
  148.1830  151.6370  133.4400 H   0  0  0  0  0  0  0  0  0  0  0  0
  149.8335  156.2025  132.2212 H   0  0  0  0  0  0  0  0  0  0  0  0
  149.1618  158.9795  132.1713 H   0  0  0  0  0  0  0  0  0  0  0  0
  147.3232  160.6041  132.7122 H   0  0  0  0  0  0  0  0  0  0  0  0
  143.0989  159.4696  134.7418 H   0  0  0  0  0  0  0  0  0  0  0  0
  142.8828  160.3428  133.1870 H   0  0  0  0  0  0  0  0  0  0  0  0
  143.4103  158.6257  133.1870 H   0  0  0  0  0  0  0  0  0  0  0  0
  145.2114  161.5103  135.2140 H   0  0  0  0  0  0  0  0  0  0  0  0
  146.1694  161.6856  133.7046 H   0  0  0  0  0  0  0  0  0  0  0  0
  144.4149  162.0706  133.7046 H   0  0  0  0  0  0  0  0  0  0  0  0
  144.8462  157.3127  134.1482 H   0  0  0  0  0  0  0  0  0  0  0  0
  1  2  1  0
  2  3  1  0
  3  4  2  0
  3  5  1  0
  5  6  2  0
  5  7  1  0
  7  8  1  0
  8  9  1  0
  9 10  1  0
  9 11  2  0
  8 12  2  0
 12 13  1  0
 13 14  2  0
 14 15  1  0
 15 16  2  0
 16 17  1  0
 17 18  1  0
 17 19  1  0
 16 20  1  0
 20 21  2  0
 21  7  1  0
 21 13  1  0
  1 22  1  0
  1 23  1  0
  1 24  1  0
 10 25  1  0
 10 26  1  0
 12 27  1  0
 14 28  1  0
 15 29  1  0
 18 30  1  0
 18 31  1  0
 18 32  1  0
 19 33  1  0
 19 34  1  0
 19 35  1  0
 20 36  1  0
M  END
>  <UniqueID>  (11) 
11

>  <SMILES>  (11) 
COC(=O)C(=O)n1c(C(N)=O)cc2ccc(N(C)C)cc21

>  <Energy>  (11) 
74.98478826736326

>  <Genealogy>  (11) 
COC(=O)C(=O)n1c(C(N)=O)cc2ccc(N(C)C)cc21 (3D coordinates assigned)
COC(=O)C(=O)n1c(C(N)=O)cc2ccc(N(C)C)cc21 (optimized conformer: 74.98478826736326 kcal/mol)

>  <smiles>  (11) 
COC(=O)C(=O)n1c(C(N)=O)cc2ccc(N(C)C)cc21

>  <score_type>  (11) 
oracle

>  <origin>  (11) 
adg

>  <m_score__min__energy>  (11) 
-6.1200000000000001

>  <m_primary>  (11) 
energy

$$$$
11:0
     RDKit          3D

 31 32  0  0  0  0  0  0  0  0999 V2000
  142.1570  159.9100  132.9770 N   0  0  0  0  0  0  0  0  0  0  0  0
  143.4240  160.2290  133.5550 C   0  0  0  0  0  0  0  0  0  0  0  0
  143.5920  161.3550  134.0930 O   0  0  0  0  0  0  0  0  0  0  0  0
  144.5600  159.2880  133.4740 C   0  0  0  0  0  0  0  0  0  0  0  0
  145.8790  159.6940  133.2940 C   0  0  0  0  0  0  0  0  0  0  0  0
  146.6080  158.5310  133.2070 C   0  0  0  0  0  0  0  0  0  0  0  0
  147.9760  158.3480  133.0300 C   0  0  0  0  0  0  0  0  0  0  0  0
  148.4660  157.0310  133.0070 C   0  0  0  0  0  0  0  0  0  0  0  0
  147.5930  155.9290  133.1910 C   0  0  0  0  0  0  0  0  0  0  0  0
  148.1270  154.5200  133.1290 C   0  0  0  0  0  0  0  0  0  0  0  0
  147.1810  153.6630  132.5930 F   0  0  0  0  0  0  0  0  0  0  0  0
  148.4450  154.0970  134.4060 F   0  0  0  0  0  0  0  0  0  0  0  0
  149.2610  154.4600  132.3370 F   0  0  0  0  0  0  0  0  0  0  0  0
  146.2050  156.1570  133.3480 C   0  0  0  0  0  0  0  0  0  0  0  0
  145.7410  157.4790  133.3440 C   0  0  0  0  0  0  0  0  0  0  0  0
  144.4750  157.9280  133.5110 N   0  0  0  0  0  0  0  0  0  0  0  0
  143.3090  157.1380  133.7990 C   0  0  0  0  0  0  0  0  0  0  0  0
  143.2110  156.5450  134.9070 O   0  0  0  0  0  0  0  0  0  0  0  0
  142.2900  157.0390  132.8410 O   0  0  0  0  0  0  0  0  0  0  0  0
  140.9180  157.0190  133.1210 C   0  0  0  0  0  0  0  0  0  0  0  0
  140.2860  155.9280  133.1780 O   0  0  0  0  0  0  0  0  0  0  0  0
  140.2640  158.2400  133.3320 O   0  0  0  0  0  0  0  0  0  0  0  0
  139.5100  158.9240  132.3700 C   0  0  0  0  0  0  0  0  0  0  0  0
  138.2540  158.8340  132.3320 O   0  0  0  0  0  0  0  0  0  0  0  0
  140.1630  159.7190  131.4380 O   0  0  0  0  0  0  0  0  0  0  0  0
  142.0320  159.0610  132.3830 H   0  0  0  0  0  0  0  0  0  0  0  0
  141.3540  160.5710  133.0790 H   0  0  0  0  0  0  0  0  0  0  0  0
  146.2576  160.7250  133.2341 H   0  0  0  0  0  0  0  0  0  0  0  0
  148.6526  159.2072  132.9118 H   0  0  0  0  0  0  0  0  0  0  0  0
  149.5393  156.8531  132.8444 H   0  0  0  0  0  0  0  0  0  0  0  0
  145.5068  155.3158  133.4703 H   0  0  0  0  0  0  0  0  0  0  0  0
  1  2  1  0
  2  3  2  0
  2  4  1  0
  4  5  2  0
  5  6  1  0
  6  7  2  0
  7  8  1  0
  8  9  2  0
  9 10  1  0
 10 11  1  0
 10 12  1  0
 10 13  1  0
  9 14  1  0
 14 15  2  0
 15 16  1  0
 16 17  1  0
 17 18  2  0
 17 19  1  0
 19 20  1  0
 20 21  2  0
 20 22  1  0
 22 23  1  0
 23 24  2  0
 23 25  1  0
 16  4  1  0
 15  6  1  0
  1 26  1  0
  1 27  1  0
  5 28  1  0
  7 29  1  0
  8 30  1  0
 14 31  1  0
M  CHG  1  25  -1
M  END
>  <UniqueID>  (12) 
12

>  <SMILES>  (12) 
NC(=O)c1cc2ccc(C(F)(F)F)cc2n1C(=O)OC(=O)OC(=O)[O-]

>  <Energy>  (12) 
73.7036428027736

>  <Genealogy>  (12) 
NC(=O)c1cc2ccc(C(F)(F)F)cc2n1C(=O)OC(=O)OC(=O)[O-] (protonated)
NC(=O)c1cc2ccc(C(F)(F)F)cc2n1C(=O)OC(=O)OC(=O)[O-] (3D coordinates assigned)
NC(=O)c1cc2ccc(C(F)(F)F)cc2n1C(=O)OC(=O)OC(=O)[O-] (optimized conformer: 73.7036428027736 kcal/mol)

>  <smiles>  (12) 
NC(=O)c1cc2ccc(C(F)(F)F)cc2n1C(=O)OC(=O)OC(=O)O

>  <score_type>  (12) 
oracle

>  <origin>  (12) 
adg

>  <m_score__min__energy>  (12) 
-5.7199999999999998

>  <m_primary>  (12) 
energy

$$$$
12:0
     RDKit          3D

 35 36  0  0  0  0  0  0  0  0999 V2000
  143.0980  153.5200  132.6220 C   0  0  0  0  0  0  0  0  0  0  0  0
  141.8850  153.0760  133.3350 N   0  0  2  0  0  0  0  0  0  0  0  0
  141.3560  151.7970  132.8100 C   0  0  0  0  0  0  0  0  0  0  0  0
  141.1080  150.7610  133.8740 C   0  0  0  0  0  0  0  0  0  0  0  0
  140.8410  149.5730  133.5580 O   0  0  0  0  0  0  0  0  0  0  0  0
  141.1810  151.1120  135.2170 O   0  0  0  0  0  0  0  0  0  0  0  0
  140.8590  154.1000  133.3490 C   0  0  0  0  0  0  0  0  0  0  0  0
  139.7830  153.9370  132.7100 O   0  0  0  0  0  0  0  0  0  0  0  0
  140.9990  155.2520  134.2000 N   0  0  0  0  0  0  0  0  0  0  0  0
  141.4420  155.2990  135.4880 C   0  0  0  0  0  0  0  0  0  0  0  0
  142.0840  154.1920  136.2230 C   0  0  0  0  0  0  0  0  0  0  0  0
  143.1070  153.4100  135.6150 N   0  0  0  0  0  0  0  0  0  0  0  0
  141.7580  153.9620  137.4180 O   0  0  0  0  0  0  0  0  0  0  0  0
  141.2980  156.5840  136.0080 C   0  0  0  0  0  0  0  0  0  0  0  0
  140.7630  157.3320  134.9850 C   0  0  0  0  0  0  0  0  0  0  0  0
  140.4020  158.6760  134.9520 C   0  0  0  0  0  0  0  0  0  0  0  0
  139.8500  159.1800  133.7630 C   0  0  0  0  0  0  0  0  0  0  0  0
  139.6870  158.3450  132.6270 C   0  0  0  0  0  0  0  0  0  0  0  0
  139.0440  158.8840  131.3750 C   0  0  0  0  0  0  0  0  0  0  0  0
  140.0270  159.3590  130.5270 F   0  0  0  0  0  0  0  0  0  0  0  0
  138.3280  157.8930  130.7260 F   0  0  0  0  0  0  0  0  0  0  0  0
  138.1730  159.9170  131.6780 F   0  0  0  0  0  0  0  0  0  0  0  0
  140.0470  156.9800  132.7100 C   0  0  0  0  0  0  0  0  0  0  0  0
  140.5980  156.5070  133.9040 C   0  0  0  0  0  0  0  0  0  0  0  0
  143.8701  153.8026  133.3528 H   0  0  0  0  0  0  0  0  0  0  0  0
  143.4729  152.7008  131.9908 H   0  0  0  0  0  0  0  0  0  0  0  0
  142.8554  154.3876  131.9908 H   0  0  0  0  0  0  0  0  0  0  0  0
  142.1710  152.8920  134.3240 H   0  0  0  0  0  0  0  0  0  0  0  0
  140.4055  151.9999  132.2949 H   0  0  0  0  0  0  0  0  0  0  0  0
  142.1209  151.3865  132.1344 H   0  0  0  0  0  0  0  0  0  0  0  0
  142.9210  152.4310  135.3000 H   0  0  0  0  0  0  0  0  0  0  0  0
  141.5570  156.9270  137.0206 H   0  0  0  0  0  0  0  0  0  0  0  0
  140.5446  159.3232  135.8299 H   0  0  0  0  0  0  0  0  0  0  0  0
  139.5404  160.2343  133.7116 H   0  0  0  0  0  0  0  0  0  0  0  0
  139.8967  156.3057  131.8540 H   0  0  0  0  0  0  0  0  0  0  0  0
  1  2  1  0
  2  3  1  0
  3  4  1  0
  4  5  2  0
  4  6  1  0
  2  7  1  0
  7  8  2  0
  7  9  1  0
  9 10  1  0
 10 11  1  0
 11 12  1  0
 11 13  2  0
 10 14  2  0
 14 15  1  0
 15 16  2  0
 16 17  1  0
 17 18  2  0
 18 19  1  0
 19 20  1  0
 19 21  1  0
 19 22  1  0
 18 23  1  0
 23 24  2  0
 24  9  1  0
 24 15  1  0
  1 25  1  0
  1 26  1  0
  1 27  1  0
  2 28  1  1
  3 29  1  0
  3 30  1  0
 12 31  1  0
 14 32  1  0
 16 33  1  0
 17 34  1  0
 23 35  1  0
M  CHG  3   2   1   6  -1  12  -1
M  END
>  <UniqueID>  (13) 
13

>  <SMILES>  (13) 
C[N@H+](CC(=O)[O-])C(=O)n1c(C([NH-])=O)cc2ccc(C(F)(F)F)cc21

>  <Energy>  (13) 
79.55424018970854

>  <Genealogy>  (13) 
C[NH+](CC(=O)[O-])C(=O)n1c(C([NH-])=O)cc2ccc(C(F)(F)F)cc21 (protonated)
C[N@H+](CC(=O)[O-])C(=O)n1c(C([NH-])=O)cc2ccc(C(F)(F)F)cc21 (chirality)
C[N@H+](CC(=O)[O-])C(=O)n1c(C([NH-])=O)cc2ccc(C(F)(F)F)cc21 (3D coordinates assigned)
C[N@H+](CC(=O)[O-])C(=O)n1c(C([NH-])=O)cc2ccc(C(F)(F)F)cc21 (optimized conformer: 79.55424018970854 kcal/mol)

>  <smiles>  (13) 
CN(CC(=O)O)C(=O)n1c(C(N)=O)cc2ccc(C(F)(F)F)cc21

>  <score_type>  (13) 
oracle

>  <origin>  (13) 
adg

>  <m_score__min__energy>  (13) 
-6.0199999999999996

>  <m_primary>  (13) 
energy

$$$$
13:0
     RDKit          3D

 49 50  0  0  0  0  0  0  0  0999 V2000
  141.3850  156.3260  136.7260 C   0  0  0  0  0  0  0  0  0  0  0  0
  140.2230  157.0680  137.3790 C   0  0  0  0  0  0  0  0  0  0  0  0
  139.7440  158.0870  136.5230 O   0  0  0  0  0  0  0  0  0  0  0  0
  140.6360  159.1810  136.5060 C   0  0  0  0  0  0  0  0  0  0  0  0
  141.0200  159.5480  135.0570 C   0  0  0  0  0  0  0  0  0  0  0  0
  140.2770  158.8220  133.9920 N   0  0  1  0  0  0  0  0  0  0  0  0
  139.8660  159.7100  132.8860 C   0  0  0  0  0  0  0  0  0  0  0  0
  140.9950  157.6520  133.5170 C   0  0  0  0  0  0  0  0  0  0  0  0
  142.2390  157.7090  133.3050 O   0  0  0  0  0  0  0  0  0  0  0  0
  140.3020  156.3560  133.3570 C   0  0  0  0  0  0  0  0  0  0  0  0
  139.0690  156.2750  133.6110 O   0  0  0  0  0  0  0  0  0  0  0  0
  141.0380  155.1890  132.9560 N   0  0  0  0  0  0  0  0  0  0  0  0
  140.4970  153.8610  132.9800 C   0  0  0  0  0  0  0  0  0  0  0  0
  139.2500  153.6760  132.9820 O   0  0  0  0  0  0  0  0  0  0  0  0
  141.3840  152.7320  133.0220 N   0  0  0  0  0  0  0  0  0  0  0  0
  142.6530  152.6790  133.5140 C   0  0  0  0  0  0  0  0  0  0  0  0
  143.3520  153.7720  134.2260 C   0  0  0  0  0  0  0  0  0  0  0  0
  143.7310  154.9500  133.5190 N   0  0  0  0  0  0  0  0  0  0  0  0
  143.6400  153.6650  135.4470 O   0  0  0  0  0  0  0  0  0  0  0  0
  143.2000  151.4130  133.3160 C   0  0  0  0  0  0  0  0  0  0  0  0
  142.2180  150.6860  132.6820 C   0  0  0  0  0  0  0  0  0  0  0  0
  142.2240  149.3670  132.2420 C   0  0  0  0  0  0  0  0  0  0  0  0
  141.0740  148.8830  131.5930 C   0  0  0  0  0  0  0  0  0  0  0  0
  139.9540  149.7270  131.3750 C   0  0  0  0  0  0  0  0  0  0  0  0
  138.7190  149.1770  130.7090 C   0  0  0  0  0  0  0  0  0  0  0  0
  138.7370  147.7920  130.6920 F   0  0  0  0  0  0  0  0  0  0  0  0
  137.5850  149.5870  131.3870 F   0  0  0  0  0  0  0  0  0  0  0  0
  138.6590  149.6410  129.4080 F   0  0  0  0  0  0  0  0  0  0  0  0
  139.9810  151.0570  131.8560 C   0  0  0  0  0  0  0  0  0  0  0  0
  141.1330  151.5040  132.5150 C   0  0  0  0  0  0  0  0  0  0  0  0
  142.0384  155.9087  137.5063 H   0  0  0  0  0  0  0  0  0  0  0  0
  140.9938  155.5101  136.1004 H   0  0  0  0  0  0  0  0  0  0  0  0
  141.9606  157.0241  136.1004 H   0  0  0  0  0  0  0  0  0  0  0  0
  139.4097  156.3569  137.5861 H   0  0  0  0  0  0  0  0  0  0  0  0
  140.5737  157.5253  138.3159 H   0  0  0  0  0  0  0  0  0  0  0  0
  140.1542  160.0474  136.9825 H   0  0  0  0  0  0  0  0  0  0  0  0
  141.5481  158.9027  137.0543 H   0  0  0  0  0  0  0  0  0  0  0  0
  140.8400  160.6247  134.9215 H   0  0  0  0  0  0  0  0  0  0  0  0
  142.0741  159.2555  134.9416 H   0  0  0  0  0  0  0  0  0  0  0  0
  139.3840  158.4840  134.4210 H   0  0  0  0  0  0  0  0  0  0  0  0
  139.4377  160.6354  133.2986 H   0  0  0  0  0  0  0  0  0  0  0  0
  140.7422  159.9553  132.2678 H   0  0  0  0  0  0  0  0  0  0  0  0
  139.1120  159.2008  132.2678 H   0  0  0  0  0  0  0  0  0  0  0  0
  142.0550  155.2860  132.7390 H   0  0  0  0  0  0  0  0  0  0  0  0
  143.1520  155.8170  133.5730 H   0  0  0  0  0  0  0  0  0  0  0  0
  144.2036  151.0677  133.6050 H   0  0  0  0  0  0  0  0  0  0  0  0
  143.1014  148.7218  132.3968 H   0  0  0  0  0  0  0  0  0  0  0  0
  141.0422  147.8382  131.2504 H   0  0  0  0  0  0  0  0  0  0  0  0
  139.1178  151.7242  131.7158 H   0  0  0  0  0  0  0  0  0  0  0  0
  1  2  1  0
  2  3  1  0
  3  4  1  0
  4  5  1  0
  5  6  1  0
  6  7  1  0
  6  8  1  0
  8  9  2  0
  8 10  1  0
 10 11  2  0
 10 12  1  0
 12 13  1  0
 13 14  2  0
 13 15  1  0
 15 16  1  0
 16 17  1  0
 17 18  1  0
 17 19  2  0
 16 20  2  0
 20 21  1  0
 21 22  2  0
 22 23  1  0
 23 24  2  0
 24 25  1  0
 25 26  1  0
 25 27  1  0
 25 28  1  0
 24 29  1  0
 29 30  2  0
 30 15  1  0
 30 21  1  0
  1 31  1  0
  1 32  1  0
  1 33  1  0
  2 34  1  0
  2 35  1  0
  4 36  1  0
  4 37  1  0
  5 38  1  0
  5 39  1  0
  6 40  1  1
  7 41  1  0
  7 42  1  0
  7 43  1  0
 12 44  1  0
 18 45  1  0
 20 46  1  0
 22 47  1  0
 23 48  1  0
 29 49  1  0
M  CHG  2   6   1  18  -1
M  END
>  <UniqueID>  (14) 
14

>  <SMILES>  (14) 
CCOCC[N@@H+](C)C(=O)C(=O)NC(=O)n1c(C([NH-])=O)cc2ccc(C(F)(F)F)cc21

>  <Energy>  (14) 
91.22970428310336

>  <Genealogy>  (14) 
CCOCC[NH+](C)C(=O)C(=O)NC(=O)n1c(C([NH-])=O)cc2ccc(C(F)(F)F)cc21 (protonated)
CCOCC[N@@H+](C)C(=O)C(=O)NC(=O)n1c(C([NH-])=O)cc2ccc(C(F)(F)F)cc21 (chirality)
CCOCC[N@@H+](C)C(=O)C(=O)NC(=O)n1c(C([NH-])=O)cc2ccc(C(F)(F)F)cc21 (3D coordinates assigned)
CCOCC[N@@H+](C)C(=O)C(=O)NC(=O)n1c(C([NH-])=O)cc2ccc(C(F)(F)F)cc21 (optimized conformer: 91.22970428310336 kcal/mol)

>  <smiles>  (14) 
CCOCCN(C)C(=O)C(=O)NC(=O)n1c(C(N)=O)cc2ccc(C(F)(F)F)cc21

>  <score_type>  (14) 
oracle

>  <origin>  (14) 
adg

>  <m_score__min__energy>  (14) 
-6.46

>  <m_primary>  (14) 
energy

$$$$
14:0
     RDKit          3D

 38 39  0  0  0  0  0  0  0  0999 V2000
  143.5100  155.2570  134.8930 C   0  0  0  0  0  0  0  0  0  0  0  0
  143.9030  155.6430  133.7110 C   0  0  0  0  0  0  0  0  0  0  0  0
  142.9200  156.5800  132.9960 C   0  0  0  0  0  0  0  0  0  0  0  0
  142.8410  157.7850  133.4920 O   0  0  0  0  0  0  0  0  0  0  0  0
  142.7650  158.9700  133.9790 C   0  0  0  0  0  0  0  0  0  0  0  0
  143.2170  159.2100  135.1530 O   0  0  0  0  0  0  0  0  0  0  0  0
  142.2020  160.1310  133.3330 N   0  0  0  0  0  0  0  0  0  0  0  0
  140.7830  160.1380  133.0060 C   0  0  0  0  0  0  0  0  0  0  0  0
  145.1110  155.3780  132.9960 C   0  0  0  0  0  0  0  0  0  0  0  0
  144.9970  154.4020  132.1280 O   0  0  0  0  0  0  0  0  0  0  0  0
  146.3990  155.9380  133.0370 N   0  0  0  0  0  0  0  0  0  0  0  0
  147.6200  155.4680  132.8260 C   0  0  0  0  0  0  0  0  0  0  0  0
  148.1070  154.0750  132.8540 C   0  0  0  0  0  0  0  0  0  0  0  0
  147.1800  152.9880  132.7110 N   0  0  0  0  0  0  0  0  0  0  0  0
  149.3030  153.7560  133.0000 O   0  0  0  0  0  0  0  0  0  0  0  0
  148.5720  156.4930  132.7490 C   0  0  0  0  0  0  0  0  0  0  0  0
  147.8810  157.6470  132.9310 C   0  0  0  0  0  0  0  0  0  0  0  0
  148.3440  158.9510  132.9470 C   0  0  0  0  0  0  0  0  0  0  0  0
  147.4600  159.9830  133.1470 C   0  0  0  0  0  0  0  0  0  0  0  0
  146.1460  159.6760  133.3250 C   0  0  0  0  0  0  0  0  0  0  0  0
  145.2270  160.7600  133.5350 N   0  0  0  0  0  0  0  0  0  0  0  0
  145.6920  158.3660  133.3080 C   0  0  0  0  0  0  0  0  0  0  0  0
  146.5670  157.3040  133.1060 C   0  0  0  0  0  0  0  0  0  0  0  0
  144.1422  154.5833  135.4900 H   0  0  0  0  0  0  0  0  0  0  0  0
  142.5463  155.6051  135.2930 H   0  0  0  0  0  0  0  0  0  0  0  0
  143.2333  156.6643  131.9450 H   0  0  0  0  0  0  0  0  0  0  0  0
  141.9235  156.1316  133.1224 H   0  0  0  0  0  0  0  0  0  0  0  0
  140.1928  160.1409  133.9343 H   0  0  0  0  0  0  0  0  0  0  0  0
  140.5466  161.0373  132.4184 H   0  0  0  0  0  0  0  0  0  0  0  0
  140.5377  159.2411  132.4184 H   0  0  0  0  0  0  0  0  0  0  0  0
  147.1460  152.2750  133.4860 H   0  0  0  0  0  0  0  0  0  0  0  0
  146.6030  152.9670  131.8600 H   0  0  0  0  0  0  0  0  0  0  0  0
  149.6531  156.3851  132.5770 H   0  0  0  0  0  0  0  0  0  0  0  0
  149.4140  159.1598  132.8004 H   0  0  0  0  0  0  0  0  0  0  0  0
  147.8041  161.0277  133.1629 H   0  0  0  0  0  0  0  0  0  0  0  0
  144.2690  160.6300  133.8800 H   0  0  0  0  0  0  0  0  0  0  0  0
  145.5230  161.7540  133.3320 H   0  0  0  0  0  0  0  0  0  0  0  0
  144.6212  158.1632  133.4569 H   0  0  0  0  0  0  0  0  0  0  0  0
  1  2  2  0
  2  3  1  0
  3  4  1  0
  4  5  1  0
  5  6  2  0
  5  7  1  0
  7  8  1  0
  2  9  1  0
  9 10  2  0
  9 11  1  0
 11 12  1  0
 12 13  1  0
 13 14  1  0
 13 15  2  0
 12 16  2  0
 16 17  1  0
 17 18  2  0
 18 19  1  0
 19 20  2  0
 20 21  1  0
 20 22  1  0
 22 23  2  0
 23 11  1  0
 23 17  1  0
  1 24  1  0
  1 25  1  0
  3 26  1  0
  3 27  1  0
  8 28  1  0
  8 29  1  0
  8 30  1  0
 14 31  1  0
 14 32  1  0
 16 33  1  0
 18 34  1  0
 19 35  1  0
 21 36  1  0
 21 37  1  0
 22 38  1  0
M  CHG  1   7  -1
M  END
>  <UniqueID>  (15) 
15

>  <SMILES>  (15) 
C=C(COC(=O)[N-]C)C(=O)n1c(C(N)=O)cc2ccc(N)cc21

>  <Energy>  (15) 
223.5159735538967

>  <Genealogy>  (15) 
C=C(COC(=O)[N-]C)C(=O)n1c(C(N)=O)cc2ccc(N)cc21 (protonated)
C=C(COC(=O)[N-]C)C(=O)n1c(C(N)=O)cc2ccc(N)cc21 (3D coordinates assigned)
C=C(COC(=O)[N-]C)C(=O)n1c(C(N)=O)cc2ccc(N)cc21 (optimized conformer: 223.5159735538967 kcal/mol)

>  <smiles>  (15) 
C=C(COC(=O)NC)C(=O)n1c(C(N)=O)cc2ccc(N)cc21

>  <score_type>  (15) 
oracle

>  <origin>  (15) 
adg

>  <m_score__min__energy>  (15) 
-7.0099999999999998

>  <m_primary>  (15) 
energy

$$$$
15:0
     RDKit          3D

 44 45  0  0  0  0  0  0  0  0999 V2000
  139.6650  158.1760  135.6950 C   0  0  0  0  0  0  0  0  0  0  0  0
  140.8360  158.7900  135.8960 C   0  0  0  0  0  0  0  0  0  0  0  0
  141.3500  158.9770  137.2980 C   0  0  0  0  0  0  0  0  0  0  0  0
  141.6640  159.2260  134.7500 C   0  0  0  0  0  0  0  0  0  0  0  0
  141.1250  159.8480  133.7940 O   0  0  0  0  0  0  0  0  0  0  0  0
  143.0380  158.9490  134.7380 O   0  0  0  0  0  0  0  0  0  0  0  0
  143.7900  158.6260  133.6000 C   0  0  0  0  0  0  0  0  0  0  0  0
  143.2600  158.0190  132.6280 O   0  0  0  0  0  0  0  0  0  0  0  0
  145.1730  159.0050  133.5350 N   0  0  0  0  0  0  0  0  0  0  0  0
  145.6980  160.2580  133.6600 C   0  0  0  0  0  0  0  0  0  0  0  0
  144.9610  161.4710  134.0710 C   0  0  0  0  0  0  0  0  0  0  0  0
  143.5860  161.6420  133.7370 N   0  0  0  0  0  0  0  0  0  0  0  0
  145.5400  162.3450  134.7690 O   0  0  0  0  0  0  0  0  0  0  0  0
  147.0690  160.2400  133.4190 C   0  0  0  0  0  0  0  0  0  0  0  0
  147.3750  158.9250  133.1470 C   0  0  0  0  0  0  0  0  0  0  0  0
  148.5940  158.3420  132.8180 C   0  0  0  0  0  0  0  0  0  0  0  0
  148.6120  156.9640  132.5490 C   0  0  0  0  0  0  0  0  0  0  0  0
  147.4190  156.1970  132.6060 C   0  0  0  0  0  0  0  0  0  0  0  0
  147.4470  154.7870  132.2950 N   0  0  0  0  0  0  0  0  0  0  0  0
  147.6500  153.9690  133.5030 C   0  0  0  0  0  0  0  0  0  0  0  0
  148.8290  152.9940  133.3580 C   0  0  0  0  0  0  0  0  0  0  0  0
  149.3470  153.0520  132.0420 O   0  0  0  0  0  0  0  0  0  0  0  0
  149.5610  151.7520  131.5370 C   0  0  0  0  0  0  0  0  0  0  0  0
  146.2000  156.8300  132.9430 C   0  0  0  0  0  0  0  0  0  0  0  0
  146.2140  158.2010  133.2240 C   0  0  0  0  0  0  0  0  0  0  0  0
  139.2853  158.0370  134.6720 H   0  0  0  0  0  0  0  0  0  0  0  0
  139.0816  157.8099  136.5527 H   0  0  0  0  0  0  0  0  0  0  0  0
  140.5673  158.6922  138.0165 H   0  0  0  0  0  0  0  0  0  0  0  0
  142.2363  158.3437  137.4511 H   0  0  0  0  0  0  0  0  0  0  0  0
  141.6221  160.0318  137.4511 H   0  0  0  0  0  0  0  0  0  0  0  0
  142.9570  160.8190  133.6160 H   0  0  0  0  0  0  0  0  0  0  0  0
  147.7611  161.0947  133.4411 H   0  0  0  0  0  0  0  0  0  0  0  0
  149.5150  158.9415  132.7700 H   0  0  0  0  0  0  0  0  0  0  0  0
  149.5619  156.4730  132.2910 H   0  0  0  0  0  0  0  0  0  0  0  0
  148.1940  154.5790  131.5910 H   0  0  0  0  0  0  0  0  0  0  0  0
  146.5340  154.5200  131.8610 H   0  0  0  0  0  0  0  0  0  0  0  0
  147.8471  154.6379  134.3537 H   0  0  0  0  0  0  0  0  0  0  0  0
  146.7391  153.3731  133.6619 H   0  0  0  0  0  0  0  0  0  0  0  0
  149.6188  153.2688  134.0727 H   0  0  0  0  0  0  0  0  0  0  0  0
  148.4790  151.9716  133.5632 H   0  0  0  0  0  0  0  0  0  0  0  0
  149.6769  151.0479  132.3742 H   0  0  0  0  0  0  0  0  0  0  0  0
  148.7003  151.4514  130.9216 H   0  0  0  0  0  0  0  0  0  0  0  0
  150.4727  151.7432  130.9216 H   0  0  0  0  0  0  0  0  0  0  0  0
  145.2616  156.2574  132.9833 H   0  0  0  0  0  0  0  0  0  0  0  0
  1  2  2  0
  2  3  1  0
  2  4  1  0
  4  5  2  0
  4  6  1  0
  6  7  1  0
  7  8  2  0
  7  9  1  0
  9 10  1  0
 10 11  1  0
 11 12  1  0
 11 13  2  0
 10 14  2  0
 14 15  1  0
 15 16  2  0
 16 17  1  0
 17 18  2  0
 18 19  1  0
 19 20  1  0
 20 21  1  0
 21 22  1  0
 22 23  1  0
 18 24  1  0
 24 25  2  0
 25  9  1  0
 25 15  1  0
  1 26  1  0
  1 27  1  0
  3 28  1  0
  3 29  1  0
  3 30  1  0
 12 31  1  0
 14 32  1  0
 16 33  1  0
 17 34  1  0
 19 35  1  0
 19 36  1  0
 20 37  1  0
 20 38  1  0
 21 39  1  0
 21 40  1  0
 23 41  1  0
 23 42  1  0
 23 43  1  0
 24 44  1  0
M  CHG  2  12  -1  19   1
M  END
>  <UniqueID>  (16) 
16

>  <SMILES>  (16) 
C=C(C)C(=O)OC(=O)n1c(C([NH-])=O)cc2ccc([NH2+]CCOC)cc21

>  <Energy>  (16) 
83.54720524299589

>  <Genealogy>  (16) 
C=C(C)C(=O)OC(=O)n1c(C([NH-])=O)cc2ccc([NH2+]CCOC)cc21 (protonated)
C=C(C)C(=O)OC(=O)n1c(C([NH-])=O)cc2ccc([NH2+]CCOC)cc21 (3D coordinates assigned)
C=C(C)C(=O)OC(=O)n1c(C([NH-])=O)cc2ccc([NH2+]CCOC)cc21 (optimized conformer: 83.54720524299589 kcal/mol)

>  <smiles>  (16) 
C=C(C)C(=O)OC(=O)n1c(C(N)=O)cc2ccc(NCCOC)cc21

>  <score_type>  (16) 
oracle

>  <origin>  (16) 
adg

>  <m_score__min__energy>  (16) 
-6.9299999999999997

>  <m_primary>  (16) 
energy

$$$$
16:0
     RDKit          3D

 35 36  0  0  0  0  0  0  0  0999 V2000
  148.8510  154.9020  132.6050 C   0  0  0  0  0  0  0  0  0  0  0  0
  148.3380  156.3030  132.7470 C   0  0  0  0  0  0  0  0  0  0  0  0
  149.2040  157.4010  132.5250 C   0  0  0  0  0  0  0  0  0  0  0  0
  148.7300  158.7200  132.6360 C   0  0  0  0  0  0  0  0  0  0  0  0
  147.3860  158.9060  132.9450 C   0  0  0  0  0  0  0  0  0  0  0  0
  146.6790  160.0680  133.1560 C   0  0  0  0  0  0  0  0  0  0  0  0
  145.3820  159.6590  133.4590 C   0  0  0  0  0  0  0  0  0  0  0  0
  144.2760  160.5970  133.7400 C   0  0  0  0  0  0  0  0  0  0  0  0
  142.9460  160.3320  133.2890 N   0  0  0  0  0  0  0  0  0  0  0  0
  144.5170  161.6740  134.3480 O   0  0  0  0  0  0  0  0  0  0  0  0
  145.2890  158.3000  133.4400 N   0  0  0  0  0  0  0  0  0  0  0  0
  144.1650  157.5000  133.8410 C   0  0  0  0  0  0  0  0  0  0  0  0
  144.2700  156.7520  134.8480 O   0  0  0  0  0  0  0  0  0  0  0  0
  142.8800  157.6000  133.1170 C   0  0  0  0  0  0  0  0  0  0  0  0
  142.8850  157.4820  131.8640 O   0  0  0  0  0  0  0  0  0  0  0  0
  141.6280  157.8420  133.7750 N   0  0  0  0  0  0  0  0  0  0  0  0
  140.2860  157.6250  133.2360 C   0  0  0  0  0  0  0  0  0  0  0  0
  139.7290  158.9020  132.6090 C   0  0  0  0  0  0  0  0  0  0  0  0
  140.7720  159.7490  132.2150 O   0  0  0  0  0  0  0  0  0  0  0  0
  146.5260  157.8530  133.1290 C   0  0  0  0  0  0  0  0  0  0  0  0
  146.9770  156.5300  133.0470 C   0  0  0  0  0  0  0  0  0  0  0  0
  149.0103  154.4670  133.6027 H   0  0  0  0  0  0  0  0  0  0  0  0
  148.1162  154.2965  132.0540 H   0  0  0  0  0  0  0  0  0  0  0  0
  149.8030  154.9142  132.0540 H   0  0  0  0  0  0  0  0  0  0  0  0
  150.2571  157.2204  132.2633 H   0  0  0  0  0  0  0  0  0  0  0  0
  149.4008  159.5783  132.4833 H   0  0  0  0  0  0  0  0  0  0  0  0
  147.0572  161.0993  133.0978 H   0  0  0  0  0  0  0  0  0  0  0  0
  142.1700  160.9830  133.5420 H   0  0  0  0  0  0  0  0  0  0  0  0
  142.7440  159.5500  132.6280 H   0  0  0  0  0  0  0  0  0  0  0  0
  140.3305  156.8383  132.4684 H   0  0  0  0  0  0  0  0  0  0  0  0
  139.6236  157.3247  134.0613 H   0  0  0  0  0  0  0  0  0  0  0  0
  139.1238  158.6392  131.7289 H   0  0  0  0  0  0  0  0  0  0  0  0
  139.1088  159.4230  133.3532 H   0  0  0  0  0  0  0  0  0  0  0  0
  141.5440  159.1590  132.0100 H   0  0  0  0  0  0  0  0  0  0  0  0
  146.2882  155.6884  133.2122 H   0  0  0  0  0  0  0  0  0  0  0  0
  1  2  1  0
  2  3  2  0
  3  4  1  0
  4  5  2  0
  5  6  1  0
  6  7  2  0
  7  8  1  0
  8  9  1  0
  8 10  2  0
  7 11  1  0
 11 12  1  0
 12 13  2  0
 12 14  1  0
 14 15  2  0
 14 16  1  0
 16 17  1  0
 17 18  1  0
 18 19  1  0
 11 20  1  0
 20 21  2  0
 21  2  1  0
 20  5  1  0
  1 22  1  0
  1 23  1  0
  1 24  1  0
  3 25  1  0
  4 26  1  0
  6 27  1  0
  9 28  1  0
  9 29  1  0
 17 30  1  0
 17 31  1  0
 18 32  1  0
 18 33  1  0
 19 34  1  0
 21 35  1  0
M  CHG  1  16  -1
M  END
>  <UniqueID>  (17) 
17

>  <SMILES>  (17) 
Cc1ccc2cc(C(N)=O)n(C(=O)C(=O)[N-]CCO)c2c1

>  <Energy>  (17) 
73.34851519460081

>  <Genealogy>  (17) 
Cc1ccc2cc(C(N)=O)n(C(=O)C(=O)[N-]CCO)c2c1 (protonated)
Cc1ccc2cc(C(N)=O)n(C(=O)C(=O)[N-]CCO)c2c1 (3D coordinates assigned)
Cc1ccc2cc(C(N)=O)n(C(=O)C(=O)[N-]CCO)c2c1 (optimized conformer: 73.34851519460081 kcal/mol)

>  <smiles>  (17) 
Cc1ccc2cc(C(N)=O)n(C(=O)C(=O)NCCO)c2c1

>  <score_type>  (17) 
oracle

>  <origin>  (17) 
adg

>  <m_score__min__energy>  (17) 
-6.4500000000000002

>  <m_primary>  (17) 
energy

$$$$
17:0
     RDKit          3D

 42 43  0  0  0  0  0  0  0  0999 V2000
  141.2550  152.8100  133.3560 C   0  0  0  0  0  0  0  0  0  0  0  0
  142.0390  154.0740  133.5450 C   0  0  0  0  0  0  0  0  0  0  0  0
  143.4110  154.0260  133.8940 C   0  0  0  0  0  0  0  0  0  0  0  0
  144.1450  155.2110  134.0750 C   0  0  0  0  0  0  0  0  0  0  0  0
  143.4850  156.4220  133.8890 C   0  0  0  0  0  0  0  0  0  0  0  0
  143.9430  157.7130  134.0280 C   0  0  0  0  0  0  0  0  0  0  0  0
  142.8480  158.5270  133.7410 C   0  0  0  0  0  0  0  0  0  0  0  0
  142.9070  160.0050  133.7310 C   0  0  0  0  0  0  0  0  0  0  0  0
  141.7250  160.7890  133.8700 N   0  0  0  0  0  0  0  0  0  0  0  0
  144.0150  160.5840  133.5710 O   0  0  0  0  0  0  0  0  0  0  0  0
  141.7600  157.7690  133.4320 N   0  0  0  0  0  0  0  0  0  0  0  0
  140.4250  158.2200  133.1560 C   0  0  0  0  0  0  0  0  0  0  0  0
  140.2420  159.1530  132.3280 O   0  0  0  0  0  0  0  0  0  0  0  0
  139.2690  157.6120  133.8260 C   0  0  0  0  0  0  0  0  0  0  0  0
  138.7510  156.5610  133.3570 O   0  0  0  0  0  0  0  0  0  0  0  0
  138.7450  158.2120  134.9750 O   0  0  0  0  0  0  0  0  0  0  0  0
  139.1440  157.8560  136.2970 C   0  0  0  0  0  0  0  0  0  0  0  0
  140.5290  158.3690  136.5890 C   0  0  0  0  0  0  0  0  0  0  0  0
  140.8680  159.4830  136.1050 O   0  0  0  0  0  0  0  0  0  0  0  0
  141.4570  157.6310  137.4180 N   0  0  0  0  0  0  0  0  0  0  0  0
  141.8370  158.1300  138.7450 C   0  0  0  0  0  0  0  0  0  0  0  0
  142.0490  156.3840  136.9140 C   0  0  0  0  0  0  0  0  0  0  0  0
  141.3250  155.2050  137.4800 C   0  0  0  0  0  0  0  0  0  0  0  0
  141.6880  154.0360  137.1800 O   0  0  0  0  0  0  0  0  0  0  0  0
  140.2410  155.3930  138.3270 O   0  0  0  0  0  0  0  0  0  0  0  0
  142.1620  156.4830  133.5320 C   0  0  0  0  0  0  0  0  0  0  0  0
  141.4020  155.3200  133.3650 C   0  0  0  0  0  0  0  0  0  0  0  0
  140.9944  152.3898  134.3386 H   0  0  0  0  0  0  0  0  0  0  0  0
  140.3345  153.0298  132.7954 H   0  0  0  0  0  0  0  0  0  0  0  0
  141.8610  152.0830  132.7954 H   0  0  0  0  0  0  0  0  0  0  0  0
  143.9065  153.0526  134.0245 H   0  0  0  0  0  0  0  0  0  0  0  0
  145.2084  155.1820  134.3550 H   0  0  0  0  0  0  0  0  0  0  0  0
  144.9576  158.0341  134.3064 H   0  0  0  0  0  0  0  0  0  0  0  0
  140.8080  160.3430  134.0980 H   0  0  0  0  0  0  0  0  0  0  0  0
  138.4373  158.2929  137.0179 H   0  0  0  0  0  0  0  0  0  0  0  0
  139.1466  156.7594  136.3833 H   0  0  0  0  0  0  0  0  0  0  0  0
  141.3639  157.5087  139.5197 H   0  0  0  0  0  0  0  0  0  0  0  0
  142.9305  158.0835  138.8549 H   0  0  0  0  0  0  0  0  0  0  0  0
  141.5014  159.1718  138.8549 H   0  0  0  0  0  0  0  0  0  0  0  0
  141.9749  156.3638  135.8167 H   0  0  0  0  0  0  0  0  0  0  0  0
  143.1048  156.3381  137.2192 H   0  0  0  0  0  0  0  0  0  0  0  0
  140.3358  155.3757  133.1003 H   0  0  0  0  0  0  0  0  0  0  0  0
  1  2  1  0
  2  3  2  0
  3  4  1  0
  4  5  2  0
  5  6  1  0
  6  7  2  0
  7  8  1  0
  8  9  1  0
  8 10  2  0
  7 11  1  0
 11 12  1  0
 12 13  2  0
 12 14  1  0
 14 15  2  0
 14 16  1  0
 16 17  1  0
 17 18  1  0
 18 19  2  0
 18 20  1  0
 20 21  1  0
 20 22  1  0
 22 23  1  0
 23 24  2  0
 23 25  1  0
 11 26  1  0
 26 27  2  0
 27  2  1  0
 26  5  1  0
  1 28  1  0
  1 29  1  0
  1 30  1  0
  3 31  1  0
  4 32  1  0
  6 33  1  0
  9 34  1  0
 17 35  1  0
 17 36  1  0
 21 37  1  0
 21 38  1  0
 21 39  1  0
 22 40  1  0
 22 41  1  0
 27 42  1  0
M  CHG  2   9  -1  25  -1
M  END
>  <UniqueID>  (18) 
18

>  <SMILES>  (18) 
Cc1ccc2cc(C([NH-])=O)n(C(=O)C(=O)OCC(=O)N(C)CC(=O)[O-])c2c1

>  <Energy>  (18) 
74.04724607119722

>  <Genealogy>  (18) 
Cc1ccc2cc(C([NH-])=O)n(C(=O)C(=O)OCC(=O)N(C)CC(=O)[O-])c2c1 (protonated)
Cc1ccc2cc(C([NH-])=O)n(C(=O)C(=O)OCC(=O)N(C)CC(=O)[O-])c2c1 (3D coordinates assigned)
Cc1ccc2cc(C([NH-])=O)n(C(=O)C(=O)OCC(=O)N(C)CC(=O)[O-])c2c1 (optimized conformer: 74.04724607119722 kcal/mol)

>  <smiles>  (18) 
Cc1ccc2cc(C(N)=O)n(C(=O)C(=O)OCC(=O)N(C)CC(=O)O)c2c1

>  <score_type>  (18) 
oracle

>  <origin>  (18) 
adg

>  <m_score__min__energy>  (18) 
-6.75

>  <m_primary>  (18) 
energy

$$$$
18:0
     RDKit          3D

 42 43  0  0  0  0  0  0  0  0999 V2000
  149.5840  152.0740  132.0100 C   0  0  0  0  0  0  0  0  0  0  0  0
  149.3840  153.1110  132.9630 O   0  0  0  0  0  0  0  0  0  0  0  0
  148.8410  154.3530  132.6210 C   0  0  0  0  0  0  0  0  0  0  0  0
  149.5870  155.3200  132.3020 O   0  0  0  0  0  0  0  0  0  0  0  0
  147.3580  154.5140  132.6060 C   0  0  0  0  0  0  0  0  0  0  0  0
  147.0210  155.8970  132.6740 O   0  0  0  0  0  0  0  0  0  0  0  0
  146.0750  156.4220  133.5630 C   0  0  0  0  0  0  0  0  0  0  0  0
  145.3310  155.6540  134.2290 O   0  0  0  0  0  0  0  0  0  0  0  0
  145.9300  157.8460  133.6820 N   0  0  0  0  0  0  0  0  0  0  0  0
  146.9200  158.7800  133.6160 C   0  0  0  0  0  0  0  0  0  0  0  0
  148.3700  158.5040  133.6050 C   0  0  0  0  0  0  0  0  0  0  0  0
  148.9520  157.6480  132.6220 N   0  0  0  0  0  0  0  0  0  0  0  0
  149.0990  158.9840  134.5140 O   0  0  0  0  0  0  0  0  0  0  0  0
  146.3830  160.0640  133.6120 C   0  0  0  0  0  0  0  0  0  0  0  0
  145.0200  159.8870  133.6840 C   0  0  0  0  0  0  0  0  0  0  0  0
  144.0010  160.8290  133.6970 C   0  0  0  0  0  0  0  0  0  0  0  0
  142.6750  160.3660  133.7290 C   0  0  0  0  0  0  0  0  0  0  0  0
  142.3770  158.9710  133.7330 C   0  0  0  0  0  0  0  0  0  0  0  0
  140.9110  158.5190  133.7970 C   0  0  0  0  0  0  0  0  0  0  0  0
  140.2910  158.6310  135.2070 C   0  0  0  0  0  0  0  0  0  0  0  0
  140.0780  159.3670  132.8190 C   0  0  0  0  0  0  0  0  0  0  0  0
  140.8200  157.0990  133.3930 C   0  0  0  0  0  0  0  0  0  0  0  0
  140.7500  155.9880  133.0790 N   0  0  0  0  0  0  0  0  0  0  0  0
  143.4610  158.0480  133.7440 C   0  0  0  0  0  0  0  0  0  0  0  0
  144.7710  158.5410  133.7210 C   0  0  0  0  0  0  0  0  0  0  0  0
  149.7671  151.1245  132.5343 H   0  0  0  0  0  0  0  0  0  0  0  0
  148.6879  151.9777  131.3794 H   0  0  0  0  0  0  0  0  0  0  0  0
  150.4517  152.3179  131.3794 H   0  0  0  0  0  0  0  0  0  0  0  0
  146.9536  154.0850  131.6773 H   0  0  0  0  0  0  0  0  0  0  0  0
  146.9277  153.9926  133.4738 H   0  0  0  0  0  0  0  0  0  0  0  0
  149.9850  157.4990  132.6050 H   0  0  0  0  0  0  0  0  0  0  0  0
  148.3560  157.0890  131.9750 H   0  0  0  0  0  0  0  0  0  0  0  0
  146.9308  161.0166  133.5620 H   0  0  0  0  0  0  0  0  0  0  0  0
  144.2248  161.9059  133.6827 H   0  0  0  0  0  0  0  0  0  0  0  0
  141.8503  161.0936  133.7514 H   0  0  0  0  0  0  0  0  0  0  0  0
  141.0756  158.4893  135.9649 H   0  0  0  0  0  0  0  0  0  0  0  0
  139.8376  159.6256  135.3302 H   0  0  0  0  0  0  0  0  0  0  0  0
  139.5182  157.8579  135.3302 H   0  0  0  0  0  0  0  0  0  0  0  0
  139.4178  160.0391  133.3869 H   0  0  0  0  0  0  0  0  0  0  0  0
  140.7512  159.9634  132.1856 H   0  0  0  0  0  0  0  0  0  0  0  0
  139.4697  158.7046  132.1856 H   0  0  0  0  0  0  0  0  0  0  0  0
  143.2721  156.9647  133.7702 H   0  0  0  0  0  0  0  0  0  0  0  0
  1  2  1  0
  2  3  1  0
  3  4  2  0
  3  5  1  0
  5  6  1  0
  6  7  1  0
  7  8  2  0
  7  9  1  0
  9 10  1  0
 10 11  1  0
 11 12  1  0
 11 13  2  0
 10 14  2  0
 14 15  1  0
 15 16  2  0
 16 17  1  0
 17 18  2  0
 18 19  1  0
 19 20  1  0
 19 21  1  0
 19 22  1  0
 22 23  3  0
 18 24  1  0
 24 25  2  0
 25  9  1  0
 25 15  1  0
  1 26  1  0
  1 27  1  0
  1 28  1  0
  5 29  1  0
  5 30  1  0
 12 31  1  0
 12 32  1  0
 14 33  1  0
 16 34  1  0
 17 35  1  0
 20 36  1  0
 20 37  1  0
 20 38  1  0
 21 39  1  0
 21 40  1  0
 21 41  1  0
 24 42  1  0
M  END
>  <UniqueID>  (19) 
19

>  <SMILES>  (19) 
COC(=O)COC(=O)n1c(C(N)=O)cc2ccc(C(C)(C)C#N)cc21

>  <Energy>  (19) 
77.71150021971535

>  <Genealogy>  (19) 
COC(=O)COC(=O)n1c(C(N)=O)cc2ccc(C(C)(C)C#N)cc21 (3D coordinates assigned)
COC(=O)COC(=O)n1c(C(N)=O)cc2ccc(C(C)(C)C#N)cc21 (optimized conformer: 77.71150021971535 kcal/mol)

>  <smiles>  (19) 
COC(=O)COC(=O)n1c(C(N)=O)cc2ccc(C(C)(C)C#N)cc21

>  <score_type>  (19) 
oracle

>  <origin>  (19) 
adg

>  <m_score__min__energy>  (19) 
-7.2599999999999998

>  <m_primary>  (19) 
energy

$$$$
19:0
     RDKit          3D

 42 44  0  0  0  0  0  0  0  0999 V2000
  136.9570  160.1140  130.7260 C   0  0  0  0  0  0  0  0  0  0  0  0
  137.8520  159.5070  131.6320 O   0  0  0  0  0  0  0  0  0  0  0  0
  139.0810  160.1980  131.6020 C   0  0  0  0  0  0  0  0  0  0  0  0
  140.1540  159.2610  131.6410 O   0  0  0  0  0  0  0  0  0  0  0  0
  141.0700  159.1970  132.6950 C   0  0  0  0  0  0  0  0  0  0  0  0
  141.4320  160.2530  133.2770 O   0  0  0  0  0  0  0  0  0  0  0  0
  141.6170  157.9270  133.0940 N   0  0  0  0  0  0  0  0  0  0  0  0
  140.9260  156.7930  133.4060 C   0  0  0  0  0  0  0  0  0  0  0  0
  139.4760  156.5720  133.2160 C   0  0  0  0  0  0  0  0  0  0  0  0
  138.5530  157.6650  133.2230 N   0  0  0  0  0  0  0  0  0  0  0  0
  139.0550  155.4070  132.9680 O   0  0  0  0  0  0  0  0  0  0  0  0
  141.7900  155.7980  133.8550 C   0  0  0  0  0  0  0  0  0  0  0  0
  143.0460  156.3480  133.7880 C   0  0  0  0  0  0  0  0  0  0  0  0
  144.2830  155.7870  134.0910 C   0  0  0  0  0  0  0  0  0  0  0  0
  145.4270  156.5810  133.9130 C   0  0  0  0  0  0  0  0  0  0  0  0
  145.3120  157.9120  133.4510 C   0  0  0  0  0  0  0  0  0  0  0  0
  146.4860  158.6990  133.2480 N   0  0  0  0  0  0  0  0  0  0  0  0
  146.8160  160.1120  132.9800 C   0  0  0  0  0  0  0  0  0  0  0  0
  148.3030  159.9360  133.0190 C   0  0  0  0  0  0  0  0  0  0  0  0
  149.0000  160.1780  131.6770 C   0  0  0  0  0  0  0  0  0  0  0  0
  147.9480  158.5050  133.2820 C   0  0  0  0  0  0  0  0  0  0  0  0
  144.0430  158.4560  133.1660 C   0  0  0  0  0  0  0  0  0  0  0  0
  142.9190  157.6350  133.3280 C   0  0  0  0  0  0  0  0  0  0  0  0
  136.1732  160.6456  131.2855 H   0  0  0  0  0  0  0  0  0  0  0  0
  137.5041  160.8282  130.0930 H   0  0  0  0  0  0  0  0  0  0  0  0
  136.4959  159.3415  130.0930 H   0  0  0  0  0  0  0  0  0  0  0  0
  139.1456  160.7912  130.6779 H   0  0  0  0  0  0  0  0  0  0  0  0
  139.1467  160.8671  132.4726 H   0  0  0  0  0  0  0  0  0  0  0  0
  138.8860  158.6520  133.2980 H   0  0  0  0  0  0  0  0  0  0  0  0
  137.5520  157.5070  132.9800 H   0  0  0  0  0  0  0  0  0  0  0  0
  141.5228  154.7856  134.1921 H   0  0  0  0  0  0  0  0  0  0  0  0
  144.3619  154.7533  134.4587 H   0  0  0  0  0  0  0  0  0  0  0  0
  146.4205  156.1642  134.1347 H   0  0  0  0  0  0  0  0  0  0  0  0
  146.4542  160.4542  131.9992 H   0  0  0  0  0  0  0  0  0  0  0  0
  146.3821  160.8651  133.6542 H   0  0  0  0  0  0  0  0  0  0  0  0
  148.9786  160.5291  133.6528 H   0  0  0  0  0  0  0  0  0  0  0  0
  150.0254  160.5340  131.8553 H   0  0  0  0  0  0  0  0  0  0  0  0
  149.0322  159.2384  131.1059 H   0  0  0  0  0  0  0  0  0  0  0  0
  148.4430  160.9354  131.1059 H   0  0  0  0  0  0  0  0  0  0  0  0
  148.3050  157.8268  132.4929 H   0  0  0  0  0  0  0  0  0  0  0  0
  148.3714  158.0411  134.1851 H   0  0  0  0  0  0  0  0  0  0  0  0
  143.9380  159.4967  132.8257 H   0  0  0  0  0  0  0  0  0  0  0  0
  1  2  1  0
  2  3  1  0
  3  4  1  0
  4  5  1  0
  5  6  2  0
  5  7  1  0
  7  8  1  0
  8  9  1  0
  9 10  1  0
  9 11  2  0
  8 12  2  0
 12 13  1  0
 13 14  2  0
 14 15  1  0
 15 16  2  0
 16 17  1  0
 17 18  1  0
 18 19  1  0
 19 20  1  0
 19 21  1  0
 16 22  1  0
 22 23  2  0
 23  7  1  0
 23 13  1  0
 21 17  1  0
  1 24  1  0
  1 25  1  0
  1 26  1  0
  3 27  1  0
  3 28  1  0
 10 29  1  0
 10 30  1  0
 12 31  1  0
 14 32  1  0
 15 33  1  0
 18 34  1  0
 18 35  1  0
 19 36  1  0
 20 37  1  0
 20 38  1  0
 20 39  1  0
 21 40  1  0
 21 41  1  0
 22 42  1  0
M  END
>  <UniqueID>  (20) 
20

>  <SMILES>  (20) 
COCOC(=O)n1c(C(N)=O)cc2ccc(N3CC(C)C3)cc21

>  <Energy>  (20) 
124.25908999710988

>  <Genealogy>  (20) 
COCOC(=O)n1c(C(N)=O)cc2ccc(N3CC(C)C3)cc21 (3D coordinates assigned)
COCOC(=O)n1c(C(N)=O)cc2ccc(N3CC(C)C3)cc21 (nonaromatic ring conformer: 124.25908999710988 kcal/mol)

>  <smiles>  (20) 
COCOC(=O)n1c(C(N)=O)cc2ccc(N3CC(C)C3)cc21

>  <score_type>  (20) 
oracle

>  <origin>  (20) 
adg

>  <m_score__min__energy>  (20) 
-6.9900000000000002

>  <m_primary>  (20) 
energy

$$$$
20:0
     RDKit          3D

 41 42  0  0  0  0  0  0  0  0999 V2000
  144.2630  155.6020  132.2530 C   0  0  0  0  0  0  0  0  0  0  0  0
  145.0020  155.4010  133.5030 N   0  0  0  0  0  0  0  0  0  0  0  0
  145.1370  154.0600  134.0790 C   0  0  0  0  0  0  0  0  0  0  0  0
  145.6760  156.5090  134.1290 C   0  0  0  0  0  0  0  0  0  0  0  0
  146.5900  156.2980  134.9720 O   0  0  0  0  0  0  0  0  0  0  0  0
  145.3310  157.8620  133.7960 N   0  0  0  0  0  0  0  0  0  0  0  0
  146.1780  158.8830  133.4930 C   0  0  0  0  0  0  0  0  0  0  0  0
  147.6390  158.7670  133.3040 C   0  0  0  0  0  0  0  0  0  0  0  0
  148.4630  158.0760  134.2450 N   0  0  0  0  0  0  0  0  0  0  0  0
  148.1680  159.2550  132.2690 O   0  0  0  0  0  0  0  0  0  0  0  0
  145.4790  160.0830  133.3970 C   0  0  0  0  0  0  0  0  0  0  0  0
  144.1640  159.7610  133.6570 C   0  0  0  0  0  0  0  0  0  0  0  0
  143.0370  160.5700  133.7200 C   0  0  0  0  0  0  0  0  0  0  0  0
  141.8120  159.9730  134.0590 C   0  0  0  0  0  0  0  0  0  0  0  0
  141.7280  158.5810  134.3630 C   0  0  0  0  0  0  0  0  0  0  0  0
  140.4000  157.8860  134.7100 C   0  0  0  0  0  0  0  0  0  0  0  0
  140.6030  156.3620  134.5690 C   0  0  0  0  0  0  0  0  0  0  0  0
  139.2320  158.3050  133.7900 C   0  0  0  0  0  0  0  0  0  0  0  0
  139.9960  158.2400  136.1300 C   0  0  0  0  0  0  0  0  0  0  0  0
  139.1090  157.5660  136.7200 O   0  0  0  0  0  0  0  0  0  0  0  0
  140.6270  159.2730  136.8180 O   0  0  0  0  0  0  0  0  0  0  0  0
  142.9100  157.8000  134.2770 C   0  0  0  0  0  0  0  0  0  0  0  0
  144.1060  158.4180  133.9060 C   0  0  0  0  0  0  0  0  0  0  0  0
  143.2249  155.8844  132.4822 H   0  0  0  0  0  0  0  0  0  0  0  0
  144.7405  156.4029  131.6695 H   0  0  0  0  0  0  0  0  0  0  0  0
  144.2691  154.6696  131.6695 H   0  0  0  0  0  0  0  0  0  0  0  0
  145.1299  154.1300  135.1767 H   0  0  0  0  0  0  0  0  0  0  0  0
  144.2975  153.4318  133.7463 H   0  0  0  0  0  0  0  0  0  0  0  0
  146.0848  153.6117  133.7463 H   0  0  0  0  0  0  0  0  0  0  0  0
  149.4990  158.0640  134.1210 H   0  0  0  0  0  0  0  0  0  0  0  0
  148.0490  157.4890  135.0020 H   0  0  0  0  0  0  0  0  0  0  0  0
  145.8888  161.0767  133.1634 H   0  0  0  0  0  0  0  0  0  0  0  0
  143.1021  161.6479  133.5103 H   0  0  0  0  0  0  0  0  0  0  0  0
  140.9012  160.5890  134.0908 H   0  0  0  0  0  0  0  0  0  0  0  0
  140.6637  155.9062  135.5683 H   0  0  0  0  0  0  0  0  0  0  0  0
  139.7547  155.9284  134.0191 H   0  0  0  0  0  0  0  0  0  0  0  0
  141.5352  156.1656  134.0191 H   0  0  0  0  0  0  0  0  0  0  0  0
  138.3734  158.6130  134.4047 H   0  0  0  0  0  0  0  0  0  0  0  0
  139.5487  159.1456  133.1551 H   0  0  0  0  0  0  0  0  0  0  0  0
  138.9422  157.4548  133.1551 H   0  0  0  0  0  0  0  0  0  0  0  0
  142.8843  156.7230  134.4994 H   0  0  0  0  0  0  0  0  0  0  0  0
  1  2  1  0
  2  3  1  0
  2  4  1  0
  4  5  2  0
  4  6  1  0
  6  7  1  0
  7  8  1  0
  8  9  1  0
  8 10  2  0
  7 11  2  0
 11 12  1  0
 12 13  2  0
 13 14  1  0
 14 15  2  0
 15 16  1  0
 16 17  1  0
 16 18  1  0
 16 19  1  0
 19 20  2  0
 19 21  1  0
 15 22  1  0
 22 23  2  0
 23  6  1  0
 23 12  1  0
  1 24  1  0
  1 25  1  0
  1 26  1  0
  3 27  1  0
  3 28  1  0
  3 29  1  0
  9 30  1  0
  9 31  1  0
 11 32  1  0
 13 33  1  0
 14 34  1  0
 17 35  1  0
 17 36  1  0
 17 37  1  0
 18 38  1  0
 18 39  1  0
 18 40  1  0
 22 41  1  0
M  CHG  1  21  -1
M  END
>  <UniqueID>  (21) 
21

>  <SMILES>  (21) 
CN(C)C(=O)n1c(C(N)=O)cc2ccc(C(C)(C)C(=O)[O-])cc21

>  <Energy>  (21) 
81.59407696033124

>  <Genealogy>  (21) 
CN(C)C(=O)n1c(C(N)=O)cc2ccc(C(C)(C)C(=O)[O-])cc21 (protonated)
CN(C)C(=O)n1c(C(N)=O)cc2ccc(C(C)(C)C(=O)[O-])cc21 (3D coordinates assigned)
CN(C)C(=O)n1c(C(N)=O)cc2ccc(C(C)(C)C(=O)[O-])cc21 (optimized conformer: 81.59407696033124 kcal/mol)

>  <smiles>  (21) 
CN(C)C(=O)n1c(C(N)=O)cc2ccc(C(C)(C)C(=O)O)cc21

>  <score_type>  (21) 
oracle

>  <origin>  (21) 
adg

>  <m_score__min__energy>  (21) 
-7.0499999999999998

>  <m_primary>  (21) 
energy

$$$$
21:0
     RDKit          3D

 75 79  0  0  0  0  0  0  0  0999 V2000
  150.0120  150.5490  129.2150 C   0  0  0  0  0  0  0  0  0  0  0  0
  149.8440  150.8190  130.3790 C   0  0  0  0  0  0  0  0  0  0  0  0
  149.6380  151.1410  131.7670 C   0  0  0  0  0  0  0  0  0  0  0  0
  150.2220  150.3360  132.7730 C   0  0  0  0  0  0  0  0  0  0  0  0
  150.0220  150.6380  134.1320 C   0  0  0  0  0  0  0  0  0  0  0  0
  149.2350  151.7440  134.4470 C   0  0  0  0  0  0  0  0  0  0  0  0
  148.8970  152.2750  135.6730 C   0  0  0  0  0  0  0  0  0  0  0  0
  148.1080  153.3890  135.3880 C   0  0  0  0  0  0  0  0  0  0  0  0
  147.4730  154.2340  136.4210 C   0  0  0  0  0  0  0  0  0  0  0  0
  146.1110  154.0150  136.7830 N   0  0  0  0  0  0  0  0  0  0  0  0
  148.1160  155.1630  136.9770 O   0  0  0  0  0  0  0  0  0  0  0  0
  147.9650  153.5390  134.0420 N   0  0  0  0  0  0  0  0  0  0  0  0
  147.2980  154.6030  133.3420 C   0  0  0  0  0  0  0  0  0  0  0  0
  147.9470  155.2900  132.5020 O   0  0  0  0  0  0  0  0  0  0  0  0
  145.8580  154.8760  133.5620 C   0  0  0  0  0  0  0  0  0  0  0  0
  144.8810  154.0200  133.0290 C   0  0  0  0  0  0  0  0  0  0  0  0
  143.5260  154.2420  133.2830 C   0  0  0  0  0  0  0  0  0  0  0  0
  143.1170  155.3360  134.0680 C   0  0  0  0  0  0  0  0  0  0  0  0
  141.7270  155.5290  134.4020 N   0  0  0  0  0  0  0  0  0  0  0  0
  140.8330  156.1500  133.4160 C   0  0  0  0  0  0  0  0  0  0  0  0
  139.6010  156.7890  134.0790 C   0  0  0  0  0  0  0  0  0  0  0  0
  139.8680  157.4650  135.4660 C   0  0  0  0  0  0  0  0  0  0  0  0
  140.1870  158.9310  135.3550 N   0  0  0  0  0  0  0  0  0  0  0  0
  140.2120  159.5070  133.9720 C   0  0  0  0  0  0  0  0  0  0  0  0
  141.6100  159.7460  133.3540 C   0  0  0  0  0  0  0  0  0  0  0  0
  142.5480  160.2860  134.3440 N   0  0  0  0  0  0  0  0  0  0  0  0
  143.8510  160.6890  133.7700 C   0  0  0  0  0  0  0  0  0  0  0  0
  144.7300  159.5450  133.3390 C   0  0  0  0  0  0  0  0  0  0  0  0
  144.2550  158.5890  132.6670 O   0  0  0  0  0  0  0  0  0  0  0  0
  146.0650  159.5160  133.7640 O   0  0  0  0  0  0  0  0  0  0  0  0
  147.1190  159.0220  132.9450 C   0  0  0  0  0  0  0  0  0  0  0  0
  148.1010  158.2390  133.8050 C   0  0  0  0  0  0  0  0  0  0  0  0
  142.6630  159.3730  135.4870 C   0  0  0  0  0  0  0  0  0  0  0  0
  141.3260  159.3520  136.2170 C   0  0  0  0  0  0  0  0  0  0  0  0
  140.8390  156.6540  136.3740 C   0  0  0  0  0  0  0  0  0  0  0  0
  141.2320  155.3090  135.7670 C   0  0  0  0  0  0  0  0  0  0  0  0
  144.0940  156.2060  134.5800 C   0  0  0  0  0  0  0  0  0  0  0  0
  145.4490  155.9810  134.3260 C   0  0  0  0  0  0  0  0  0  0  0  0
  148.6610  152.5260  133.4790 C   0  0  0  0  0  0  0  0  0  0  0  0
  148.8550  152.2560  132.1190 C   0  0  0  0  0  0  0  0  0  0  0  0
  150.1651  150.3029  128.1539 H   0  0  0  0  0  0  0  0  0  0  0  0
  150.8364  149.4684  132.4906 H   0  0  0  0  0  0  0  0  0  0  0  0
  150.4731  150.0199  134.9222 H   0  0  0  0  0  0  0  0  0  0  0  0
  149.1877  151.8999  136.6654 H   0  0  0  0  0  0  0  0  0  0  0  0
  145.5100  154.8040  137.1150 H   0  0  0  0  0  0  0  0  0  0  0  0
  145.1858  153.1665  132.4055 H   0  0  0  0  0  0  0  0  0  0  0  0
  142.7729  153.5569  132.8665 H   0  0  0  0  0  0  0  0  0  0  0  0
  141.3887  156.9290  132.8734 H   0  0  0  0  0  0  0  0  0  0  0  0
  140.4817  155.3633  132.7322 H   0  0  0  0  0  0  0  0  0  0  0  0
  139.2063  157.5561  133.3965 H   0  0  0  0  0  0  0  0  0  0  0  0
  138.8953  155.9671  134.2699 H   0  0  0  0  0  0  0  0  0  0  0  0
  138.9111  157.4334  136.0076 H   0  0  0  0  0  0  0  0  0  0  0  0
  139.3700  159.4010  135.8150 H   0  0  0  0  0  0  0  0  0  0  0  0
  139.6672  158.8164  133.3115 H   0  0  0  0  0  0  0  0  0  0  0  0
  139.7566  160.5043  134.0615 H   0  0  0  0  0  0  0  0  0  0  0  0
  142.0013  158.7907  132.9741 H   0  0  0  0  0  0  0  0  0  0  0  0
  141.5076  160.4778  132.5392 H   0  0  0  0  0  0  0  0  0  0  0  0
  143.6572  161.3220  132.8915 H   0  0  0  0  0  0  0  0  0  0  0  0
  144.3939  161.2133  134.5702 H   0  0  0  0  0  0  0  0  0  0  0  0
  146.7030  158.3623  132.1693 H   0  0  0  0  0  0  0  0  0  0  0  0
  147.6394  159.8649  132.4668 H   0  0  0  0  0  0  0  0  0  0  0  0
  147.8794  158.4157  134.8679 H   0  0  0  0  0  0  0  0  0  0  0  0
  148.0067  157.1655  133.5843 H   0  0  0  0  0  0  0  0  0  0  0  0
  149.1265  158.5700  133.5843 H   0  0  0  0  0  0  0  0  0  0  0  0
  142.9092  158.3614  135.1320 H   0  0  0  0  0  0  0  0  0  0  0  0
  143.4603  159.7119  136.1648 H   0  0  0  0  0  0  0  0  0  0  0  0
  141.4012  158.6516  137.0618 H   0  0  0  0  0  0  0  0  0  0  0  0
  141.1202  160.3811  136.5465 H   0  0  0  0  0  0  0  0  0  0  0  0
  141.7511  157.2482  136.5321 H   0  0  0  0  0  0  0  0  0  0  0  0
  140.3157  156.4503  137.3199 H   0  0  0  0  0  0  0  0  0  0  0  0
  142.0223  154.8459  136.3761 H   0  0  0  0  0  0  0  0  0  0  0  0
  140.3580  154.6415  135.7432 H   0  0  0  0  0  0  0  0  0  0  0  0
  143.7893  157.0719  135.1862 H   0  0  0  0  0  0  0  0  0  0  0  0
  146.2019  156.6751  134.7278 H   0  0  0  0  0  0  0  0  0  0  0  0
  148.4073  152.8983  131.3463 H   0  0  0  0  0  0  0  0  0  0  0  0
  1  2  3  0
  2  3  1  0
  3  4  2  0
  4  5  1  0
  5  6  2  0
  6  7  1  0
  7  8  2  0
  8  9  1  0
  9 10  1  0
  9 11  2  0
  8 12  1  0
 12 13  1  0
 13 14  2  0
 13 15  1  0
 15 16  2  0
 16 17  1  0
 17 18  2  0
 18 19  1  0
 19 20  1  0
 20 21  1  0
 21 22  1  0
 22 23  1  0
 23 24  1  0
 24 25  1  0
 25 26  1  0
 26 27  1  0
 27 28  1  0
 28 29  2  0
 28 30  1  0
 30 31  1  0
 31 32  1  0
 26 33  1  0
 33 34  1  0
 22 35  1  0
 35 36  1  0
 18 37  1  0
 37 38  2  0
 12 39  1  0
 39 40  2  0
 40  3  1  0
 39  6  1  0
 38 15  1  0
 36 19  1  0
 34 23  1  0
  1 41  1  0
  4 42  1  0
  5 43  1  0
  7 44  1  0
 10 45  1  0
 16 46  1  0
 17 47  1  0
 20 48  1  0
 20 49  1  0
 21 50  1  0
 21 51  1  0
 22 52  1  0
 23 53  1  0
 24 54  1  0
 24 55  1  0
 25 56  1  0
 25 57  1  0
 27 58  1  0
 27 59  1  0
 31 60  1  0
 31 61  1  0
 32 62  1  0
 32 63  1  0
 32 64  1  0
 33 65  1  0
 33 66  1  0
 34 67  1  0
 34 68  1  0
 35 69  1  0
 35 70  1  0
 36 71  1  0
 36 72  1  0
 37 73  1  0
 38 74  1  0
 40 75  1  0
M  CHG  2  10  -1  23   1
M  END
>  <UniqueID>  (22) 
22

>  <SMILES>  (22) 
C#Cc1ccc2cc(C([NH-])=O)n(C(=O)c3ccc(N4CCC([NH+]5CCN(CC(=O)OCC)CC5)CC4)cc3)c2c1

>  <Energy>  (22) 
143.6291812073167

>  <Genealogy>  (22) 
C#Cc1ccc2cc(C([NH-])=O)n(C(=O)c3ccc(N4CCC([NH+]5CCN(CC(=O)OCC)CC5)CC4)cc3)c2c1 (protonated)
C#Cc1ccc2cc(C([NH-])=O)n(C(=O)c3ccc(N4CCC([NH+]5CCN(CC(=O)OCC)CC5)CC4)cc3)c2c1 (3D coordinates assigned)
C#Cc1ccc2cc(C([NH-])=O)n(C(=O)c3ccc(N4CCC([NH+]5CCN(CC(=O)OCC)CC5)CC4)cc3)c2c1 (nonaromatic ring conformer: 143.6291812073167 kcal/mol)

>  <smiles>  (22) 
C#Cc1ccc2cc(C(N)=O)n(C(=O)c3ccc(N4CCC(N5CCN(CC(=O)OCC)CC5)CC4)cc3)c2c1

>  <score_type>  (22) 
oracle

>  <origin>  (22) 
adg

>  <m_score__min__energy>  (22) 
-9.1300000000000008

>  <m_primary>  (22) 
energy

$$$$
22:0
     RDKit          3D

 39 40  0  0  0  0  0  0  0  0999 V2000
  147.4470  155.8280  135.3120 C   0  0  0  0  0  0  0  0  0  0  0  0
  147.0310  156.3010  133.9870 N   0  0  0  0  0  0  0  0  0  0  0  0
  147.8800  156.0450  132.8510 C   0  0  0  0  0  0  0  0  0  0  0  0
  147.4910  155.0670  131.8810 N   0  0  0  0  0  0  0  0  0  0  0  0
  148.9820  156.7130  132.6890 N   0  0  0  0  0  0  0  0  0  0  0  0
  145.6980  156.8200  133.7810 C   0  0  0  0  0  0  0  0  0  0  0  0
  145.5050  158.2070  133.5450 C   0  0  0  0  0  0  0  0  0  0  0  0
  144.2180  158.7350  133.3530 C   0  0  0  0  0  0  0  0  0  0  0  0
  143.1400  157.8580  133.3970 C   0  0  0  0  0  0  0  0  0  0  0  0
  141.7930  158.1060  133.2650 C   0  0  0  0  0  0  0  0  0  0  0  0
  141.1730  156.8660  133.4010 C   0  0  0  0  0  0  0  0  0  0  0  0
  139.7190  156.6480  133.2340 C   0  0  0  0  0  0  0  0  0  0  0  0
  139.2190  155.3920  132.7720 N   0  0  0  0  0  0  0  0  0  0  0  0
  138.9040  157.5620  133.5270 O   0  0  0  0  0  0  0  0  0  0  0  0
  142.1020  155.8890  133.6110 N   0  0  0  0  0  0  0  0  0  0  0  0
  141.8690  154.4920  133.8550 C   0  0  0  0  0  0  0  0  0  0  0  0
  141.8270  154.0610  135.0390 O   0  0  0  0  0  0  0  0  0  0  0  0
  141.7020  153.6210  132.7690 O   0  0  0  0  0  0  0  0  0  0  0  0
  140.9360  152.4470  132.7870 C   0  0  0  0  0  0  0  0  0  0  0  0
  139.6890  152.4800  132.6110 O   0  0  0  0  0  0  0  0  0  0  0  0
  141.6050  151.1450  133.0830 C   0  0  0  0  0  0  0  0  0  0  0  0
  141.3660  150.2450  132.0610 F   0  0  0  0  0  0  0  0  0  0  0  0
  142.9700  151.3310  133.2070 F   0  0  0  0  0  0  0  0  0  0  0  0
  141.1070  150.6340  134.2670 F   0  0  0  0  0  0  0  0  0  0  0  0
  143.3020  156.5140  133.6070 C   0  0  0  0  0  0  0  0  0  0  0  0
  144.5710  155.9630  133.8200 C   0  0  0  0  0  0  0  0  0  0  0  0
  146.9324  156.4131  136.0884 H   0  0  0  0  0  0  0  0  0  0  0  0
  147.1858  154.7650  135.4205 H   0  0  0  0  0  0  0  0  0  0  0  0
  148.5347  155.9513  135.4205 H   0  0  0  0  0  0  0  0  0  0  0  0
  146.6230  154.5030  132.0150 H   0  0  0  0  0  0  0  0  0  0  0  0
  148.0780  154.8870  131.0350 H   0  0  0  0  0  0  0  0  0  0  0  0
  149.2610  157.4650  133.3570 H   0  0  0  0  0  0  0  0  0  0  0  0
  149.5990  156.5350  131.8660 H   0  0  0  0  0  0  0  0  0  0  0  0
  146.3764  158.8776  133.5121 H   0  0  0  0  0  0  0  0  0  0  0  0
  144.0673  159.8097  133.1733 H   0  0  0  0  0  0  0  0  0  0  0  0
  141.3084  159.0777  133.0893 H   0  0  0  0  0  0  0  0  0  0  0  0
  139.8620  154.6300  132.4660 H   0  0  0  0  0  0  0  0  0  0  0  0
  138.1890  155.2350  132.6950 H   0  0  0  0  0  0  0  0  0  0  0  0
  144.6905  154.8868  134.0137 H   0  0  0  0  0  0  0  0  0  0  0  0
  1  2  1  0
  2  3  1  0
  3  4  1  0
  3  5  2  0
  2  6  1  0
  6  7  2  0
  7  8  1  0
  8  9  2  0
  9 10  1  0
 10 11  2  0
 11 12  1  0
 12 13  1  0
 12 14  2  0
 11 15  1  0
 15 16  1  0
 16 17  2  0
 16 18  1  0
 18 19  1  0
 19 20  2  0
 19 21  1  0
 21 22  1  0
 21 23  1  0
 21 24  1  0
 15 25  1  0
 25 26  2  0
 26  6  1  0
 25  9  1  0
  1 27  1  0
  1 28  1  0
  1 29  1  0
  4 30  1  0
  4 31  1  0
  5 32  1  0
  5 33  1  0
  7 34  1  0
  8 35  1  0
 10 36  1  0
 13 37  1  0
 13 38  1  0
 26 39  1  0
M  CHG  1   5   1
M  END
>  <UniqueID>  (23) 
23

>  <SMILES>  (23) 
CN(C(N)=[NH2+])c1ccc2cc(C(N)=O)n(C(=O)OC(=O)C(F)(F)F)c2c1

>  <Energy>  (23) 
82.72680640820354

>  <Genealogy>  (23) 
CN(C(N)=[NH2+])c1ccc2cc(C(N)=O)n(C(=O)OC(=O)C(F)(F)F)c2c1 (protonated)
CN(C(N)=[NH2+])c1ccc2cc(C(N)=O)n(C(=O)OC(=O)C(F)(F)F)c2c1 (3D coordinates assigned)
CN(C(N)=[NH2+])c1ccc2cc(C(N)=O)n(C(=O)OC(=O)C(F)(F)F)c2c1 (optimized conformer: 82.72680640820354 kcal/mol)

>  <smiles>  (23) 
CN(C(=N)N)c1ccc2cc(C(N)=O)n(C(=O)OC(=O)C(F)(F)F)c2c1

>  <score_type>  (23) 
oracle

>  <origin>  (23) 
adg

>  <m_score__min__energy>  (23) 
-6.9900000000000002

>  <m_primary>  (23) 
energy

$$$$
23:0
     RDKit          3D

 41 42  0  0  0  0  0  0  0  0999 V2000
  148.6240  157.6060  132.4430 C   0  0  0  0  0  0  0  0  0  0  0  0
  148.7320  158.9750  131.9270 N   0  0  0  0  0  0  0  0  0  0  0  0
  149.9280  159.3580  131.1580 C   0  0  0  0  0  0  0  0  0  0  0  0
  149.5640  160.1570  129.9030 C   0  0  0  0  0  0  0  0  0  0  0  0
  149.2210  161.4760  130.2320 O   0  0  0  0  0  0  0  0  0  0  0  0
  147.6050  159.8640  132.0960 C   0  0  0  0  0  0  0  0  0  0  0  0
  146.9740  160.2630  131.0790 O   0  0  0  0  0  0  0  0  0  0  0  0
  147.1180  160.3150  133.4490 C   0  0  0  0  0  0  0  0  0  0  0  0
  145.6230  160.1620  133.5370 C   0  0  0  0  0  0  0  0  0  0  0  0
  144.7940  161.2930  133.7460 C   0  0  0  0  0  0  0  0  0  0  0  0
  143.3970  161.1550  133.8170 C   0  0  0  0  0  0  0  0  0  0  0  0
  142.8590  159.8810  133.6590 C   0  0  0  0  0  0  0  0  0  0  0  0
  141.5490  159.4590  133.7010 C   0  0  0  0  0  0  0  0  0  0  0  0
  141.5960  158.0810  133.4920 C   0  0  0  0  0  0  0  0  0  0  0  0
  140.4050  157.2040  133.4060 C   0  0  0  0  0  0  0  0  0  0  0  0
  140.5200  155.8500  132.9620 N   0  0  0  0  0  0  0  0  0  0  0  0
  139.2730  157.6420  133.7430 O   0  0  0  0  0  0  0  0  0  0  0  0
  142.8840  157.6720  133.3150 N   0  0  0  0  0  0  0  0  0  0  0  0
  143.3560  156.3270  133.1340 C   0  0  0  0  0  0  0  0  0  0  0  0
  143.8050  155.9680  132.0130 O   0  0  0  0  0  0  0  0  0  0  0  0
  143.3370  155.3610  134.2400 C   0  0  0  0  0  0  0  0  0  0  0  0
  142.3860  154.5450  134.3670 O   0  0  0  0  0  0  0  0  0  0  0  0
  143.6440  158.7820  133.4310 C   0  0  0  0  0  0  0  0  0  0  0  0
  145.0380  158.8850  133.3830 C   0  0  0  0  0  0  0  0  0  0  0  0
  148.6257  157.6275  133.5428 H   0  0  0  0  0  0  0  0  0  0  0  0
  147.6873  157.1526  132.0866 H   0  0  0  0  0  0  0  0  0  0  0  0
  149.4780  157.0114  132.0866 H   0  0  0  0  0  0  0  0  0  0  0  0
  150.5796  159.9735  131.7957 H   0  0  0  0  0  0  0  0  0  0  0  0
  150.4407  158.4378  130.8414 H   0  0  0  0  0  0  0  0  0  0  0  0
  150.4267  160.1687  129.2206 H   0  0  0  0  0  0  0  0  0  0  0  0
  148.6990  159.6787  129.4203 H   0  0  0  0  0  0  0  0  0  0  0  0
  148.2710  161.5990  129.9690 H   0  0  0  0  0  0  0  0  0  0  0  0
  147.5931  159.7027  134.2296 H   0  0  0  0  0  0  0  0  0  0  0  0
  147.3811  161.3734  133.5924 H   0  0  0  0  0  0  0  0  0  0  0  0
  145.2488  162.2888  133.8537 H   0  0  0  0  0  0  0  0  0  0  0  0
  142.7491  162.0266  133.9920 H   0  0  0  0  0  0  0  0  0  0  0  0
  140.6545  160.0779  133.8648 H   0  0  0  0  0  0  0  0  0  0  0  0
  141.4240  155.4650  132.6110 H   0  0  0  0  0  0  0  0  0  0  0  0
  139.6780  155.2330  132.9430 H   0  0  0  0  0  0  0  0  0  0  0  0
  144.1632  155.3500  134.9662 H   0  0  0  0  0  0  0  0  0  0  0  0
  145.6638  157.9935  133.2291 H   0  0  0  0  0  0  0  0  0  0  0  0
  1  2  1  0
  2  3  1  0
  3  4  1  0
  4  5  1  0
  2  6  1  0
  6  7  2  0
  6  8  1  0
  8  9  1  0
  9 10  2  0
 10 11  1  0
 11 12  2  0
 12 13  1  0
 13 14  2  0
 14 15  1  0
 15 16  1  0
 15 17  2  0
 14 18  1  0
 18 19  1  0
 19 20  2  0
 19 21  1  0
 21 22  2  0
 18 23  1  0
 23 24  2  0
 24  9  1  0
 23 12  1  0
  1 25  1  0
  1 26  1  0
  1 27  1  0
  3 28  1  0
  3 29  1  0
  4 30  1  0
  4 31  1  0
  5 32  1  0
  8 33  1  0
  8 34  1  0
 10 35  1  0
 11 36  1  0
 13 37  1  0
 16 38  1  0
 16 39  1  0
 21 40  1  0
 24 41  1  0
M  END
>  <UniqueID>  (24) 
24

>  <SMILES>  (24) 
CN(CCO)C(=O)Cc1ccc2cc(C(N)=O)n(C(=O)C=O)c2c1

>  <Energy>  (24) 
75.96422166972638

>  <Genealogy>  (24) 
CN(CCO)C(=O)Cc1ccc2cc(C(N)=O)n(C(=O)C=O)c2c1 (3D coordinates assigned)
CN(CCO)C(=O)Cc1ccc2cc(C(N)=O)n(C(=O)C=O)c2c1 (optimized conformer: 75.96422166972638 kcal/mol)

>  <smiles>  (24) 
CN(CCO)C(=O)Cc1ccc2cc(C(N)=O)n(C(=O)C=O)c2c1

>  <score_type>  (24) 
oracle

>  <origin>  (24) 
adg

>  <m_score__min__energy>  (24) 
-6.54

>  <m_primary>  (24) 
energy

$$$$
24:0
     RDKit          3D

 35 36  0  0  0  0  0  0  0  0999 V2000
  146.9620  151.4220  132.2230 C   0  0  0  0  0  0  0  0  0  0  0  0
  146.4470  152.5960  132.9450 N   0  0  0  0  0  0  0  0  0  0  0  0
  145.2920  153.1740  132.2440 C   0  0  0  0  0  0  0  0  0  0  0  0
  147.4830  153.5960  133.0910 C   0  0  0  0  0  0  0  0  0  0  0  0
  148.4640  153.6110  132.2950 O   0  0  0  0  0  0  0  0  0  0  0  0
  147.3930  154.6470  134.1280 C   0  0  0  0  0  0  0  0  0  0  0  0
  148.1090  154.5770  135.1630 O   0  0  0  0  0  0  0  0  0  0  0  0
  146.4870  155.7490  133.9700 N   0  0  0  0  0  0  0  0  0  0  0  0
  145.2120  155.8520  134.4350 C   0  0  0  0  0  0  0  0  0  0  0  0
  144.4430  154.7790  135.1020 C   0  0  0  0  0  0  0  0  0  0  0  0
  145.0090  153.4870  135.3040 N   0  0  0  0  0  0  0  0  0  0  0  0
  143.2590  154.9990  135.4740 O   0  0  0  0  0  0  0  0  0  0  0  0
  144.6890  157.1120  134.1450 C   0  0  0  0  0  0  0  0  0  0  0  0
  145.6960  157.7820  133.4860 C   0  0  0  0  0  0  0  0  0  0  0  0
  145.7260  159.0740  132.9710 C   0  0  0  0  0  0  0  0  0  0  0  0
  146.9120  159.5110  132.3570 C   0  0  0  0  0  0  0  0  0  0  0  0
  148.0490  158.6650  132.2910 C   0  0  0  0  0  0  0  0  0  0  0  0
  149.3030  159.1310  131.5940 C   0  0  0  0  0  0  0  0  0  0  0  0
  150.3580  158.2780  131.8650 F   0  0  0  0  0  0  0  0  0  0  0  0
  149.1160  159.1670  130.2230 F   0  0  0  0  0  0  0  0  0  0  0  0
  149.6240  160.4000  132.0380 F   0  0  0  0  0  0  0  0  0  0  0  0
  147.9710  157.3510  132.8070 C   0  0  0  0  0  0  0  0  0  0  0  0
  146.7710  156.9380  133.3970 C   0  0  0  0  0  0  0  0  0  0  0  0
  147.2948  150.6634  132.9467 H   0  0  0  0  0  0  0  0  0  0  0  0
  146.1656  151.0016  131.5913 H   0  0  0  0  0  0  0  0  0  0  0  0
  147.8106  151.7233  131.5913 H   0  0  0  0  0  0  0  0  0  0  0  0
  146.1270  152.2680  133.8860 H   0  0  0  0  0  0  0  0  0  0  0  0
  144.5614  153.5396  132.9806 H   0  0  0  0  0  0  0  0  0  0  0  0
  145.6270  154.0107  131.6133 H   0  0  0  0  0  0  0  0  0  0  0  0
  144.8231  152.4043  131.6133 H   0  0  0  0  0  0  0  0  0  0  0  0
  146.0430  153.3470  135.3000 H   0  0  0  0  0  0  0  0  0  0  0  0
  143.6856  157.4903  134.3904 H   0  0  0  0  0  0  0  0  0  0  0  0
  144.8483  159.7332  133.0422 H   0  0  0  0  0  0  0  0  0  0  0  0
  146.9594  160.5205  131.9226 H   0  0  0  0  0  0  0  0  0  0  0  0
  148.8326  156.6698  132.7462 H   0  0  0  0  0  0  0  0  0  0  0  0
  1  2  1  0
  2  3  1  0
  2  4  1  0
  4  5  2  0
  4  6  1  0
  6  7  2  0
  6  8  1  0
  8  9  1  0
  9 10  1  0
 10 11  1  0
 10 12  2  0
  9 13  2  0
 13 14  1  0
 14 15  2  0
 15 16  1  0
 16 17  2  0
 17 18  1  0
 18 19  1  0
 18 20  1  0
 18 21  1  0
 17 22  1  0
 22 23  2  0
 23  8  1  0
 23 14  1  0
  1 24  1  0
  1 25  1  0
  1 26  1  0
  2 27  1  0
  3 28  1  0
  3 29  1  0
  3 30  1  0
 11 31  1  0
 13 32  1  0
 15 33  1  0
 16 34  1  0
 22 35  1  0
M  CHG  2   2   1  11  -1
M  END
>  <UniqueID>  (25) 
25

>  <SMILES>  (25) 
C[NH+](C)C(=O)C(=O)n1c(C([NH-])=O)cc2ccc(C(F)(F)F)cc21

>  <Energy>  (25) 
76.09516843094902

>  <Genealogy>  (25) 
C[NH+](C)C(=O)C(=O)n1c(C([NH-])=O)cc2ccc(C(F)(F)F)cc21 (protonated)
C[NH+](C)C(=O)C(=O)n1c(C([NH-])=O)cc2ccc(C(F)(F)F)cc21 (3D coordinates assigned)
C[NH+](C)C(=O)C(=O)n1c(C([NH-])=O)cc2ccc(C(F)(F)F)cc21 (optimized conformer: 76.09516843094902 kcal/mol)

>  <smiles>  (25) 
CN(C)C(=O)C(=O)n1c(C(N)=O)cc2ccc(C(F)(F)F)cc21

>  <score_type>  (25) 
oracle

>  <origin>  (25) 
adg

>  <m_score__min__energy>  (25) 
-5.3499999999999996

>  <m_primary>  (25) 
energy

$$$$
25:0
     RDKit          3D

 54 57  0  0  0  0  0  0  0  0999 V2000
  147.5060  154.9720  135.3040 C   0  0  0  0  0  0  0  0  0  0  0  0
  147.7710  154.9640  133.9950 C   0  0  0  0  0  0  0  0  0  0  0  0
  148.2030  153.6940  133.3210 C   0  0  0  0  0  0  0  0  0  0  0  0
  147.6860  156.2040  133.2040 C   0  0  0  0  0  0  0  0  0  0  0  0
  148.6910  156.5980  132.5510 O   0  0  0  0  0  0  0  0  0  0  0  0
  146.5210  157.0400  133.2920 N   0  0  0  0  0  0  0  0  0  0  0  0
  146.4860  158.3990  133.3330 C   0  0  0  0  0  0  0  0  0  0  0  0
  147.6660  159.2910  133.2990 C   0  0  0  0  0  0  0  0  0  0  0  0
  148.8100  158.9900  134.0990 N   0  0  0  0  0  0  0  0  0  0  0  0
  147.6800  160.3100  132.5600 O   0  0  0  0  0  0  0  0  0  0  0  0
  145.1720  158.8530  133.4030 C   0  0  0  0  0  0  0  0  0  0  0  0
  144.3920  157.7180  133.3750 C   0  0  0  0  0  0  0  0  0  0  0  0
  143.0070  157.5770  133.3860 C   0  0  0  0  0  0  0  0  0  0  0  0
  142.4750  156.2800  133.3160 C   0  0  0  0  0  0  0  0  0  0  0  0
  143.3310  155.1550  133.2210 C   0  0  0  0  0  0  0  0  0  0  0  0
  142.7760  153.8370  133.1680 N   0  0  0  0  0  0  0  0  0  0  0  0
  141.4490  153.2130  133.3390 C   0  0  0  0  0  0  0  0  0  0  0  0
  141.9270  151.7900  133.1980 C   0  0  0  0  0  0  0  0  0  0  0  0
  141.4050  151.0240  132.0220 N   0  0  2  0  0  0  0  0  0  0  0  0
  139.9170  151.1190  131.9470 C   0  0  0  0  0  0  0  0  0  0  0  0
  139.1910  149.8440  132.4080 C   0  0  0  0  0  0  0  0  0  0  0  0
  139.6470  148.5920  131.6290 C   0  0  1  0  0  0  0  0  0  0  0  0
  138.7120  148.2700  130.6320 O   0  0  0  0  0  0  0  0  0  0  0  0
  141.0250  148.7790  130.9740 C   0  0  0  0  0  0  0  0  0  0  0  0
  141.9350  149.6370  131.8590 C   0  0  0  0  0  0  0  0  0  0  0  0
  143.2680  152.4480  133.0480 C   0  0  0  0  0  0  0  0  0  0  0  0
  144.7310  155.3350  133.2040 C   0  0  0  0  0  0  0  0  0  0  0  0
  145.2320  156.6350  133.2940 C   0  0  0  0  0  0  0  0  0  0  0  0
  147.1896  155.9039  135.7954 H   0  0  0  0  0  0  0  0  0  0  0  0
  147.6041  154.0467  135.8907 H   0  0  0  0  0  0  0  0  0  0  0  0
  148.4585  152.9430  134.0831 H   0  0  0  0  0  0  0  0  0  0  0  0
  147.3832  153.3150  132.6930 H   0  0  0  0  0  0  0  0  0  0  0  0
  149.0838  153.8935  132.6930 H   0  0  0  0  0  0  0  0  0  0  0  0
  149.2670  158.0520  134.0500 H   0  0  0  0  0  0  0  0  0  0  0  0
  144.8294  159.8963  133.4671 H   0  0  0  0  0  0  0  0  0  0  0  0
  142.3489  158.4563  133.4477 H   0  0  0  0  0  0  0  0  0  0  0  0
  141.3847  156.1358  133.3350 H   0  0  0  0  0  0  0  0  0  0  0  0
  141.0069  153.4174  134.3253 H   0  0  0  0  0  0  0  0  0  0  0  0
  140.6473  153.5433  132.6621 H   0  0  0  0  0  0  0  0  0  0  0  0
  141.7181  150.9910  133.9246 H   0  0  0  0  0  0  0  0  0  0  0  0
  141.7590  151.5560  131.1900 H   0  0  0  0  0  0  0  0  0  0  0  0
  139.5900  151.9541  132.5839 H   0  0  0  0  0  0  0  0  0  0  0  0
  139.6580  151.2710  130.8888 H   0  0  0  0  0  0  0  0  0  0  0  0
  139.3955  149.6883  133.4776 H   0  0  0  0  0  0  0  0  0  0  0  0
  138.1164  149.9834  132.2188 H   0  0  0  0  0  0  0  0  0  0  0  0
  139.7223  147.7753  132.3620 H   0  0  0  0  0  0  0  0  0  0  0  0
  137.9160  147.8920  131.0970 H   0  0  0  0  0  0  0  0  0  0  0  0
  141.4908  147.7936  130.8258 H   0  0  0  0  0  0  0  0  0  0  0  0
  140.8906  149.2876  130.0080 H   0  0  0  0  0  0  0  0  0  0  0  0
  142.0129  149.1670  132.8505 H   0  0  0  0  0  0  0  0  0  0  0  0
  142.9198  149.7028  131.3734 H   0  0  0  0  0  0  0  0  0  0  0  0
  143.9674  152.1744  133.8518 H   0  0  0  0  0  0  0  0  0  0  0  0
  143.8503  152.1989  132.1486 H   0  0  0  0  0  0  0  0  0  0  0  0
  145.4097  154.4732  133.1219 H   0  0  0  0  0  0  0  0  0  0  0  0
  1  2  2  0
  2  3  1  0
  2  4  1  0
  4  5  2  0
  4  6  1  0
  6  7  1  0
  7  8  1  0
  8  9  1  0
  8 10  2  0
  7 11  2  0
 11 12  1  0
 12 13  2  0
 13 14  1  0
 14 15  2  0
 15 16  1  0
 16 17  1  0
 17 18  1  0
 18 19  1  0
 19 20  1  0
 20 21  1  0
 21 22  1  0
 22 23  1  0
 22 24  1  0
 24 25  1  0
 18 26  1  0
 15 27  1  0
 27 28  2  0
 28  6  1  0
 28 12  1  0
 26 16  1  0
 25 19  1  0
  1 29  1  0
  1 30  1  0
  3 31  1  0
  3 32  1  0
  3 33  1  0
  9 34  1  0
 11 35  1  0
 13 36  1  0
 14 37  1  0
 17 38  1  0
 17 39  1  0
 18 40  1  0
 19 41  1  6
 20 42  1  0
 20 43  1  0
 21 44  1  0
 21 45  1  0
 22 46  1  1
 23 47  1  0
 24 48  1  0
 24 49  1  0
 25 50  1  0
 25 51  1  0
 26 52  1  0
 26 53  1  0
 27 54  1  0
M  CHG  2   9  -1  19   1
M  END
>  <UniqueID>  (26) 
26

>  <SMILES>  (26) 
C=C(C)C(=O)n1c(C([NH-])=O)cc2ccc(N3CC([NH+]4CCC(O)CC4)C3)cc21

>  <Energy>  (26) 
163.04669823840655

>  <Genealogy>  (26) 
C=C(C)C(=O)n1c(C([NH-])=O)cc2ccc(N3CC([NH+]4CCC(O)CC4)C3)cc21 (protonated)
C=C(C)C(=O)n1c(C([NH-])=O)cc2ccc(N3CC([NH+]4CCC(O)CC4)C3)cc21 (3D coordinates assigned)
C=C(C)C(=O)n1c(C([NH-])=O)cc2ccc(N3CC([NH+]4CCC(O)CC4)C3)cc21 (nonaromatic ring conformer: 163.04669823840655 kcal/mol)

>  <smiles>  (26) 
C=C(C)C(=O)n1c(C(N)=O)cc2ccc(N3CC(N4CCC(O)CC4)C3)cc21

>  <score_type>  (26) 
oracle

>  <origin>  (26) 
adg

>  <m_score__min__energy>  (26) 
-8.7899999999999991

>  <m_primary>  (26) 
energy

$$$$
26:0
     RDKit          3D

 37 38  0  0  0  0  0  0  0  0999 V2000
  148.4940  152.2530  133.3720 C   0  0  0  0  0  0  0  0  0  0  0  0
  147.8090  153.9820  133.5400 Si  0  0  0  0  0  4  0  0  0  0  0  0
  147.7440  154.4430  135.3510 C   0  0  0  0  0  0  0  0  0  0  0  0
  146.2230  154.0230  132.8870 O   0  0  0  0  0  0  0  0  0  0  0  0
  148.8930  155.1940  132.6040 C   0  0  0  0  0  0  0  0  0  0  0  0
  148.3590  156.5940  132.7270 C   0  0  0  0  0  0  0  0  0  0  0  0
  149.2340  157.7030  132.6100 C   0  0  0  0  0  0  0  0  0  0  0  0
  148.7510  159.0140  132.7500 C   0  0  0  0  0  0  0  0  0  0  0  0
  147.3970  159.1840  133.0210 C   0  0  0  0  0  0  0  0  0  0  0  0
  146.6660  160.3380  133.1870 C   0  0  0  0  0  0  0  0  0  0  0  0
  145.3610  159.9170  133.4350 C   0  0  0  0  0  0  0  0  0  0  0  0
  144.2550  160.8420  133.7610 C   0  0  0  0  0  0  0  0  0  0  0  0
  142.9230  160.5190  133.3650 N   0  0  0  0  0  0  0  0  0  0  0  0
  144.4770  161.9310  134.3510 O   0  0  0  0  0  0  0  0  0  0  0  0
  145.2850  158.5550  133.4150 N   0  0  0  0  0  0  0  0  0  0  0  0
  144.1130  157.7380  133.5560 C   0  0  0  0  0  0  0  0  0  0  0  0
  143.1930  157.8130  132.6970 O   0  0  0  0  0  0  0  0  0  0  0  0
  143.9950  156.8840  134.6610 O   0  0  0  0  0  0  0  0  0  0  0  0
  144.1130  155.4900  134.6160 C   0  0  0  0  0  0  0  0  0  0  0  0
  143.5460  154.8110  133.7180 O   0  0  0  0  0  0  0  0  0  0  0  0
  144.8720  154.8420  135.5800 O   0  0  0  0  0  0  0  0  0  0  0  0
  146.5410  158.1230  133.1600 C   0  0  0  0  0  0  0  0  0  0  0  0
  146.9910  156.8070  133.0050 C   0  0  0  0  0  0  0  0  0  0  0  0
  148.6629  151.8268  134.3719 H   0  0  0  0  0  0  0  0  0  0  0  0
  147.7763  151.6261  132.8226 H   0  0  0  0  0  0  0  0  0  0  0  0
  149.4463  152.2877  132.8226 H   0  0  0  0  0  0  0  0  0  0  0  0
  147.8715  153.5388  135.9643 H   0  0  0  0  0  0  0  0  0  0  0  0
  148.5505  155.1561  135.5770 H   0  0  0  0  0  0  0  0  0  0  0  0
  146.7718  154.9053  135.5770 H   0  0  0  0  0  0  0  0  0  0  0  0
  145.6380  154.2360  133.6580 H   0  0  0  0  0  0  0  0  0  0  0  0
  149.9121  155.1593  133.0167 H   0  0  0  0  0  0  0  0  0  0  0  0
  148.9003  154.9118  131.5408 H   0  0  0  0  0  0  0  0  0  0  0  0
  150.3020  157.5349  132.4075 H   0  0  0  0  0  0  0  0  0  0  0  0
  149.4222  159.8796  132.6486 H   0  0  0  0  0  0  0  0  0  0  0  0
  147.0339  161.3734  133.1350 H   0  0  0  0  0  0  0  0  0  0  0  0
  142.7420  159.9090  132.5370 H   0  0  0  0  0  0  0  0  0  0  0  0
  146.2961  155.9593  133.0975 H   0  0  0  0  0  0  0  0  0  0  0  0
  1  2  1  0
  2  3  1  0
  2  4  1  0
  2  5  1  0
  5  6  1  0
  6  7  2  0
  7  8  1  0
  8  9  2  0
  9 10  1  0
 10 11  2  0
 11 12  1  0
 12 13  1  0
 12 14  2  0
 11 15  1  0
 15 16  1  0
 16 17  2  0
 16 18  1  0
 18 19  1  0
 19 20  2  0
 19 21  1  0
 15 22  1  0
 22 23  2  0
 23  6  1  0
 22  9  1  0
  1 24  1  0
  1 25  1  0
  1 26  1  0
  3 27  1  0
  3 28  1  0
  3 29  1  0
  4 30  1  0
  5 31  1  0
  5 32  1  0
  7 33  1  0
  8 34  1  0
 10 35  1  0
 13 36  1  0
 23 37  1  0
M  CHG  2  13  -1  21  -1
M  END
>  <UniqueID>  (27) 
27

>  <SMILES>  (27) 
C[Si](C)(O)Cc1ccc2cc(C([NH-])=O)n(C(=O)OC(=O)[O-])c2c1

>  <Energy>  (27) 
62.45000229308325

>  <Genealogy>  (27) 
C[Si](C)(O)Cc1ccc2cc(C([NH-])=O)n(C(=O)OC(=O)[O-])c2c1 (protonated)
C[Si](C)(O)Cc1ccc2cc(C([NH-])=O)n(C(=O)OC(=O)[O-])c2c1 (3D coordinates assigned)
C[Si](C)(O)Cc1ccc2cc(C([NH-])=O)n(C(=O)OC(=O)[O-])c2c1 (optimized conformer: 62.45000229308325 kcal/mol)

>  <smiles>  (27) 
C[Si](C)(O)Cc1ccc2cc(C(N)=O)n(C(=O)OC(=O)O)c2c1

>  <score_type>  (27) 
oracle

>  <origin>  (27) 
adg

>  <m_score__min__energy>  (27) 
-6.7400000000000002

>  <m_primary>  (27) 
energy

$$$$
27:0
     RDKit          3D

 41 42  0  0  0  0  0  0  0  0999 V2000
  148.7630  161.2380  130.8830 C   0  0  0  0  0  0  0  0  0  0  0  0
  148.3980  160.2800  131.5180 C   0  0  0  0  0  0  0  0  0  0  0  0
  147.9600  159.1400  132.2770 C   0  0  0  0  0  0  0  0  0  0  0  0
  148.8940  158.1560  132.6760 C   0  0  0  0  0  0  0  0  0  0  0  0
  148.4770  157.0320  133.4100 C   0  0  0  0  0  0  0  0  0  0  0  0
  147.1250  156.9260  133.7290 C   0  0  0  0  0  0  0  0  0  0  0  0
  146.4400  155.9290  134.3900 C   0  0  0  0  0  0  0  0  0  0  0  0
  145.1050  156.3310  134.3780 C   0  0  0  0  0  0  0  0  0  0  0  0
  144.0060  155.5810  135.0190 C   0  0  0  0  0  0  0  0  0  0  0  0
  142.6980  155.6160  134.4540 N   0  0  0  0  0  0  0  0  0  0  0  0
  144.2120  154.9070  136.0630 O   0  0  0  0  0  0  0  0  0  0  0  0
  144.9740  157.5260  133.7380 N   0  0  0  0  0  0  0  0  0  0  0  0
  143.7690  158.2580  133.4770 C   0  0  0  0  0  0  0  0  0  0  0  0
  142.9950  157.8580  132.5650 O   0  0  0  0  0  0  0  0  0  0  0  0
  143.4270  159.4270  134.2530 N   0  0  0  0  0  0  0  0  0  0  0  0
  144.1890  160.6620  134.0350 C   0  0  0  0  0  0  0  0  0  0  0  0
  142.3850  159.3850  135.2940 C   0  0  0  0  0  0  0  0  0  0  0  0
  141.2220  158.5060  134.9020 C   0  0  0  0  0  0  0  0  0  0  0  0
  140.9990  157.4750  135.5960 O   0  0  0  0  0  0  0  0  0  0  0  0
  140.3510  158.8210  133.7940 N   0  0  0  0  0  0  0  0  0  0  0  0
  139.2090  157.9420  133.5190 C   0  0  0  0  0  0  0  0  0  0  0  0
  140.5840  159.9970  132.9500 C   0  0  0  0  0  0  0  0  0  0  0  0
  146.2160  157.8800  133.3510 C   0  0  0  0  0  0  0  0  0  0  0  0
  146.5990  159.0050  132.6130 C   0  0  0  0  0  0  0  0  0  0  0  0
  149.0959  162.1119  130.3038 H   0  0  0  0  0  0  0  0  0  0  0  0
  149.9551  158.2711  132.4099 H   0  0  0  0  0  0  0  0  0  0  0  0
  149.1957  156.2602  133.7227 H   0  0  0  0  0  0  0  0  0  0  0  0
  146.8573  155.0124  134.8323 H   0  0  0  0  0  0  0  0  0  0  0  0
  142.2740  156.5160  134.1370 H   0  0  0  0  0  0  0  0  0  0  0  0
  144.4603  161.1017  135.0061 H   0  0  0  0  0  0  0  0  0  0  0  0
  145.1033  160.4334  133.4677 H   0  0  0  0  0  0  0  0  0  0  0  0
  143.5746  161.3766  133.4677 H   0  0  0  0  0  0  0  0  0  0  0  0
  142.8272  158.9942  136.2223 H   0  0  0  0  0  0  0  0  0  0  0  0
  142.0039  160.4076  135.4316 H   0  0  0  0  0  0  0  0  0  0  0  0
  138.7695  157.6037  134.4690 H   0  0  0  0  0  0  0  0  0  0  0  0
  138.4528  158.4933  132.9409 H   0  0  0  0  0  0  0  0  0  0  0  0
  139.5484  157.0699  132.9409 H   0  0  0  0  0  0  0  0  0  0  0  0
  140.7583  160.8767  133.5869 H   0  0  0  0  0  0  0  0  0  0  0  0
  141.4653  159.8237  132.3149 H   0  0  0  0  0  0  0  0  0  0  0  0
  139.7032  160.1728  132.3149 H   0  0  0  0  0  0  0  0  0  0  0  0
  145.8607  159.7601  132.3050 H   0  0  0  0  0  0  0  0  0  0  0  0
  1  2  3  0
  2  3  1  0
  3  4  2  0
  4  5  1  0
  5  6  2  0
  6  7  1  0
  7  8  2  0
  8  9  1  0
  9 10  1  0
  9 11  2  0
  8 12  1  0
 12 13  1  0
 13 14  2  0
 13 15  1  0
 15 16  1  0
 15 17  1  0
 17 18  1  0
 18 19  2  0
 18 20  1  0
 20 21  1  0
 20 22  1  0
 12 23  1  0
 23 24  2  0
 24  3  1  0
 23  6  1  0
  1 25  1  0
  4 26  1  0
  5 27  1  0
  7 28  1  0
 10 29  1  0
 16 30  1  0
 16 31  1  0
 16 32  1  0
 17 33  1  0
 17 34  1  0
 21 35  1  0
 21 36  1  0
 21 37  1  0
 22 38  1  0
 22 39  1  0
 22 40  1  0
 24 41  1  0
M  CHG  1  10  -1
M  END
>  <UniqueID>  (28) 
28

>  <SMILES>  (28) 
C#Cc1ccc2cc(C([NH-])=O)n(C(=O)N(C)CC(=O)N(C)C)c2c1

>  <Energy>  (28) 
71.82848940102835

>  <Genealogy>  (28) 
C#Cc1ccc2cc(C([NH-])=O)n(C(=O)N(C)CC(=O)N(C)C)c2c1 (protonated)
C#Cc1ccc2cc(C([NH-])=O)n(C(=O)N(C)CC(=O)N(C)C)c2c1 (3D coordinates assigned)
C#Cc1ccc2cc(C([NH-])=O)n(C(=O)N(C)CC(=O)N(C)C)c2c1 (optimized conformer: 71.82848940102835 kcal/mol)

>  <smiles>  (28) 
C#Cc1ccc2cc(C(N)=O)n(C(=O)N(C)CC(=O)N(C)C)c2c1

>  <score_type>  (28) 
oracle

>  <origin>  (28) 
adg

>  <m_score__min__energy>  (28) 
-7.3200000000000003

>  <m_primary>  (28) 
energy

$$$$
28:0
     RDKit          3D

 35 36  0  0  0  0  0  0  0  0999 V2000
  148.1170  154.7560  132.6210 C   0  0  0  0  0  0  0  0  0  0  0  0
  147.8150  156.2060  132.8590 C   0  0  0  0  0  0  0  0  0  0  0  0
  148.8560  157.1650  132.8100 C   0  0  0  0  0  0  0  0  0  0  0  0
  148.5800  158.5320  132.9820 C   0  0  0  0  0  0  0  0  0  0  0  0
  147.2560  158.9060  133.1960 C   0  0  0  0  0  0  0  0  0  0  0  0
  146.7040  160.1580  133.3600 C   0  0  0  0  0  0  0  0  0  0  0  0
  145.3330  159.9410  133.5110 C   0  0  0  0  0  0  0  0  0  0  0  0
  144.3360  161.0080  133.7650 C   0  0  0  0  0  0  0  0  0  0  0  0
  142.9490  160.7980  133.4920 N   0  0  0  0  0  0  0  0  0  0  0  0
  144.7060  162.1230  134.2170 O   0  0  0  0  0  0  0  0  0  0  0  0
  145.0570  158.6080  133.4480 N   0  0  0  0  0  0  0  0  0  0  0  0
  143.7700  157.9790  133.5350 C   0  0  0  0  0  0  0  0  0  0  0  0
  143.0620  157.8590  132.4990 O   0  0  0  0  0  0  0  0  0  0  0  0
  143.2190  157.5500  134.8610 C   0  0  0  0  0  0  0  0  0  0  0  0
  141.7900  157.8760  134.9360 N   0  0  0  0  0  0  0  0  0  0  0  0
  140.7930  156.9310  134.4300 C   0  0  0  0  0  0  0  0  0  0  0  0
  141.3570  159.1540  135.4360 C   0  0  0  0  0  0  0  0  0  0  0  0
  140.9770  160.0570  134.6440 O   0  0  0  0  0  0  0  0  0  0  0  0
  141.3510  159.4080  136.8030 O   0  0  0  0  0  0  0  0  0  0  0  0
  146.2400  157.9890  133.2490 C   0  0  0  0  0  0  0  0  0  0  0  0
  146.4830  156.6250  133.0610 C   0  0  0  0  0  0  0  0  0  0  0  0
  148.2244  154.2405  133.5868 H   0  0  0  0  0  0  0  0  0  0  0  0
  147.2948  154.2990  132.0509 H   0  0  0  0  0  0  0  0  0  0  0  0
  149.0533  154.6652  132.0509 H   0  0  0  0  0  0  0  0  0  0  0  0
  149.8912  156.8364  132.6355 H   0  0  0  0  0  0  0  0  0  0  0  0
  149.3838  159.2822  132.9487 H   0  0  0  0  0  0  0  0  0  0  0  0
  147.2314  161.1233  133.3699 H   0  0  0  0  0  0  0  0  0  0  0  0
  142.2650  161.5730  133.6430 H   0  0  0  0  0  0  0  0  0  0  0  0
  142.5850  159.8700  133.1830 H   0  0  0  0  0  0  0  0  0  0  0  0
  143.3522  156.4643  134.9776 H   0  0  0  0  0  0  0  0  0  0  0  0
  143.7540  158.0781  135.6640 H   0  0  0  0  0  0  0  0  0  0  0  0
  140.2831  156.4477  135.2764 H   0  0  0  0  0  0  0  0  0  0  0  0
  140.0555  157.4695  133.8167 H   0  0  0  0  0  0  0  0  0  0  0  0
  141.2912  156.1658  133.8167 H   0  0  0  0  0  0  0  0  0  0  0  0
  145.6576  155.8979  133.0704 H   0  0  0  0  0  0  0  0  0  0  0  0
  1  2  1  0
  2  3  2  0
  3  4  1  0
  4  5  2  0
  5  6  1  0
  6  7  2  0
  7  8  1  0
  8  9  1  0
  8 10  2  0
  7 11  1  0
 11 12  1  0
 12 13  2  0
 12 14  1  0
 14 15  1  0
 15 16  1  0
 15 17  1  0
 17 18  2  0
 17 19  1  0
 11 20  1  0
 20 21  2  0
 21  2  1  0
 20  5  1  0
  1 22  1  0
  1 23  1  0
  1 24  1  0
  3 25  1  0
  4 26  1  0
  6 27  1  0
  9 28  1  0
  9 29  1  0
 14 30  1  0
 14 31  1  0
 16 32  1  0
 16 33  1  0
 16 34  1  0
 21 35  1  0
M  CHG  1  19  -1
M  END
>  <UniqueID>  (29) 
29

>  <SMILES>  (29) 
Cc1ccc2cc(C(N)=O)n(C(=O)CN(C)C(=O)[O-])c2c1

>  <Energy>  (29) 
69.65181811100251

>  <Genealogy>  (29) 
Cc1ccc2cc(C(N)=O)n(C(=O)CN(C)C(=O)[O-])c2c1 (protonated)
Cc1ccc2cc(C(N)=O)n(C(=O)CN(C)C(=O)[O-])c2c1 (3D coordinates assigned)
Cc1ccc2cc(C(N)=O)n(C(=O)CN(C)C(=O)[O-])c2c1 (optimized conformer: 69.65181811100251 kcal/mol)

>  <smiles>  (29) 
Cc1ccc2cc(C(N)=O)n(C(=O)CN(C)C(=O)O)c2c1

>  <score_type>  (29) 
oracle

>  <origin>  (29) 
adg

>  <m_score__min__energy>  (29) 
-6.4299999999999997

>  <m_primary>  (29) 
energy

$$$$
29:0
     RDKit          3D

 37 39  0  0  0  0  0  0  0  0999 V2000
  142.9860  162.1370  133.7220 N   0  0  0  0  0  0  0  0  0  0  0  0
  144.3100  161.6380  133.8920 C   0  0  0  0  0  0  0  0  0  0  0  0
  145.2520  162.4480  134.1050 O   0  0  0  0  0  0  0  0  0  0  0  0
  144.6000  160.1920  133.7850 C   0  0  0  0  0  0  0  0  0  0  0  0
  145.8320  159.6780  133.3840 C   0  0  0  0  0  0  0  0  0  0  0  0
  145.6670  158.3100  133.3630 C   0  0  0  0  0  0  0  0  0  0  0  0
  146.5760  157.3000  133.0570 C   0  0  0  0  0  0  0  0  0  0  0  0
  146.1360  155.9700  133.1540 C   0  0  0  0  0  0  0  0  0  0  0  0
  144.8070  155.6740  133.5460 C   0  0  0  0  0  0  0  0  0  0  0  0
  144.3640  154.2460  133.6980 C   0  0  0  0  0  0  0  0  0  0  0  0
  144.0490  153.8640  135.4490 P   0  0  2  0  0  0  0  0  0  0  0  0
  145.3200  153.3640  136.1000 O   0  0  0  0  0  0  0  0  0  0  0  0
  142.8650  152.6610  135.5460 O   0  0  0  0  0  0  0  0  0  0  0  0
  143.5030  155.2480  136.2550 O   0  0  0  0  0  0  0  0  0  0  0  0
  143.9150  156.7260  133.8520 C   0  0  0  0  0  0  0  0  0  0  0  0
  144.3780  158.0390  133.7400 C   0  0  0  0  0  0  0  0  0  0  0  0
  143.7140  159.1810  134.0110 N   0  0  0  0  0  0  0  0  0  0  0  0
  142.3630  159.2730  134.4880 C   0  0  0  0  0  0  0  0  0  0  0  0
  142.1340  159.8980  135.5590 O   0  0  0  0  0  0  0  0  0  0  0  0
  141.2340  158.6630  133.7400 C   0  0  0  0  0  0  0  0  0  0  0  0
  140.9770  157.2880  133.8820 C   0  0  0  0  0  0  0  0  0  0  0  0
  139.9310  156.7010  133.1700 C   0  0  0  0  0  0  0  0  0  0  0  0
  139.1570  157.4560  132.3490 N   0  0  0  0  0  0  0  0  0  0  0  0
  139.3650  158.7900  132.1960 C   0  0  0  0  0  0  0  0  0  0  0  0
  138.0960  159.8760  130.9060 I   0  0  0  0  0  0  0  0  0  0  0  0
  140.4010  159.4240  132.8940 C   0  0  0  0  0  0  0  0  0  0  0  0
  140.5750  160.7970  132.7580 O   0  0  0  0  0  0  0  0  0  0  0  0
  142.1590  161.5900  134.0510 H   0  0  0  0  0  0  0  0  0  0  0  0
  146.7423  160.2439  133.1369 H   0  0  0  0  0  0  0  0  0  0  0  0
  147.6053  157.5365  132.7493 H   0  0  0  0  0  0  0  0  0  0  0  0
  146.8307  155.1490  132.9231 H   0  0  0  0  0  0  0  0  0  0  0  0
  143.4408  154.0893  133.1208 H   0  0  0  0  0  0  0  0  0  0  0  0
  145.1591  153.5836  133.3252 H   0  0  0  0  0  0  0  0  0  0  0  0
  143.9850  155.2490  137.1210 H   0  0  0  0  0  0  0  0  0  0  0  0
  142.8830  156.5165  134.1701 H   0  0  0  0  0  0  0  0  0  0  0  0
  141.5990  156.6769  134.5526 H   0  0  0  0  0  0  0  0  0  0  0  0
  139.7328  155.6240  133.2739 H   0  0  0  0  0  0  0  0  0  0  0  0
  1  2  1  0
  2  3  2  0
  2  4  1  0
  4  5  2  0
  5  6  1  0
  6  7  2  0
  7  8  1  0
  8  9  2  0
  9 10  1  0
 10 11  1  0
 11 12  2  0
 11 13  1  6
 11 14  1  0
  9 15  1  0
 15 16  2  0
 16 17  1  0
 17 18  1  0
 18 19  2  0
 18 20  1  0
 20 21  2  0
 21 22  1  0
 22 23  2  0
 23 24  1  0
 24 25  1  0
 24 26  2  0
 26 27  1  0
 17  4  1  0
 26 20  1  0
 16  6  1  0
  1 28  1  0
  5 29  1  0
  7 30  1  0
  8 31  1  0
 10 32  1  0
 10 33  1  0
 14 34  1  0
 15 35  1  0
 21 36  1  0
 22 37  1  0
M  CHG  3   1  -1  13  -1  27  -1
M  END
>  <UniqueID>  (30) 
30

>  <SMILES>  (30) 
[NH-]C(=O)c1cc2ccc(C[P@](=O)([O-])O)cc2n1C(=O)c1ccnc(I)c1[O-]

>  <Energy>  (30) 
77.43555909823094

>  <Genealogy>  (30) 
[NH-]C(=O)c1cc2ccc(CP(=O)([O-])O)cc2n1C(=O)c1ccnc(I)c1[O-] (protonated)
[NH-]C(=O)c1cc2ccc(C[P@](=O)([O-])O)cc2n1C(=O)c1ccnc(I)c1[O-] (chirality)
[NH-]C(=O)c1cc2ccc(C[P@](=O)([O-])O)cc2n1C(=O)c1ccnc(I)c1[O-] (3D coordinates assigned)
[NH-]C(=O)c1cc2ccc(C[P@](=O)([O-])O)cc2n1C(=O)c1ccnc(I)c1[O-] (optimized conformer: 77.43555909823094 kcal/mol)

>  <smiles>  (30) 
NC(=O)c1cc2ccc(CP(=O)(O)O)cc2n1C(=O)c1ccnc(I)c1O

>  <score_type>  (30) 
oracle

>  <origin>  (30) 
adg

>  <m_score__min__energy>  (30) 
-8.7300000000000004

>  <m_primary>  (30) 
energy

$$$$
30:0
     RDKit          3D

 37 39  0  0  0  0  0  0  0  0999 V2000
  144.3540  153.7300  137.1860 N   0  0  0  0  0  0  0  0  0  0  0  0
  144.1310  153.9940  135.8030 C   0  0  0  0  0  0  0  0  0  0  0  0
  143.2210  153.3680  135.1950 O   0  0  0  0  0  0  0  0  0  0  0  0
  144.9090  155.0290  135.0910 C   0  0  0  0  0  0  0  0  0  0  0  0
  144.3260  156.1390  134.4820 C   0  0  0  0  0  0  0  0  0  0  0  0
  145.3770  156.9020  134.0270 C   0  0  0  0  0  0  0  0  0  0  0  0
  145.3770  158.1220  133.3570 C   0  0  0  0  0  0  0  0  0  0  0  0
  146.6170  158.6790  133.0020 C   0  0  0  0  0  0  0  0  0  0  0  0
  147.8240  158.0000  133.2990 C   0  0  0  0  0  0  0  0  0  0  0  0
  149.1510  158.6120  132.9450 C   0  0  0  0  0  0  0  0  0  0  0  0
  149.0210  159.4060  131.7270 N   0  0  0  0  0  0  0  0  0  0  0  0
  149.2420  158.9950  130.4680 C   0  0  0  0  0  0  0  0  0  0  0  0
  149.0950  160.0830  129.6380 C   0  0  0  0  0  0  0  0  0  0  0  0
  148.7960  161.1760  130.3720 N   0  0  0  0  0  0  0  0  0  0  0  0
  148.7640  160.7250  131.6440 C   0  0  0  0  0  0  0  0  0  0  0  0
  147.7850  156.7660  133.9840 C   0  0  0  0  0  0  0  0  0  0  0  0
  146.5380  156.2490  134.3520 C   0  0  0  0  0  0  0  0  0  0  0  0
  146.2680  155.0970  135.0040 N   0  0  0  0  0  0  0  0  0  0  0  0
  147.2350  154.1350  135.4580 C   0  0  0  0  0  0  0  0  0  0  0  0
  148.3080  153.9750  134.8160 O   0  0  0  0  0  0  0  0  0  0  0  0
  146.9820  153.4100  136.6300 O   0  0  0  0  0  0  0  0  0  0  0  0
  147.6310  153.6030  137.8550 C   0  0  0  0  0  0  0  0  0  0  0  0
  147.0160  154.0660  138.8540 O   0  0  0  0  0  0  0  0  0  0  0  0
  149.0620  153.1940  137.9960 C   0  0  0  0  0  0  0  0  0  0  0  0
  149.2530  152.6160  139.2360 F   0  0  0  0  0  0  0  0  0  0  0  0
  149.8840  154.3010  137.8750 F   0  0  0  0  0  0  0  0  0  0  0  0
  149.3920  152.2800  137.0120 F   0  0  0  0  0  0  0  0  0  0  0  0
  145.2000  154.1020  137.6740 H   0  0  0  0  0  0  0  0  0  0  0  0
  143.2525  156.3587  134.3855 H   0  0  0  0  0  0  0  0  0  0  0  0
  144.4348  158.6345  133.1129 H   0  0  0  0  0  0  0  0  0  0  0  0
  146.6508  159.6513  132.4887 H   0  0  0  0  0  0  0  0  0  0  0  0
  149.4858  159.2595  133.7688 H   0  0  0  0  0  0  0  0  0  0  0  0
  149.8872  157.8116  132.7795 H   0  0  0  0  0  0  0  0  0  0  0  0
  149.4954  157.9712  130.1556 H   0  0  0  0  0  0  0  0  0  0  0  0
  149.2044  160.0648  128.5436 H   0  0  0  0  0  0  0  0  0  0  0  0
  148.5519  161.3632  132.5145 H   0  0  0  0  0  0  0  0  0  0  0  0
  148.7122  156.2244  134.2225 H   0  0  0  0  0  0  0  0  0  0  0  0
  1  2  1  0
  2  3  2  0
  2  4  1  0
  4  5  2  0
  5  6  1  0
  6  7  2  0
  7  8  1  0
  8  9  2  0
  9 10  1  0
 10 11  1  0
 11 12  1  0
 12 13  2  0
 13 14  1  0
 14 15  2  0
  9 16  1  0
 16 17  2  0
 17 18  1  0
 18 19  1  0
 19 20  2  0
 19 21  1  0
 21 22  1  0
 22 23  2  0
 22 24  1  0
 24 25  1  0
 24 26  1  0
 24 27  1  0
 18  4  1  0
 17  6  1  0
 15 11  1  0
  1 28  1  0
  5 29  1  0
  7 30  1  0
  8 31  1  0
 10 32  1  0
 10 33  1  0
 12 34  1  0
 13 35  1  0
 15 36  1  0
 16 37  1  0
M  CHG  1   1  -1
M  END
>  <UniqueID>  (31) 
31

>  <SMILES>  (31) 
[NH-]C(=O)c1cc2ccc(Cn3ccnc3)cc2n1C(=O)OC(=O)C(F)(F)F

>  <Energy>  (31) 
105.12586751768785

>  <Genealogy>  (31) 
[NH-]C(=O)c1cc2ccc(Cn3ccnc3)cc2n1C(=O)OC(=O)C(F)(F)F (protonated)
[NH-]C(=O)c1cc2ccc(Cn3ccnc3)cc2n1C(=O)OC(=O)C(F)(F)F (3D coordinates assigned)
[NH-]C(=O)c1cc2ccc(Cn3ccnc3)cc2n1C(=O)OC(=O)C(F)(F)F (optimized conformer: 105.12586751768785 kcal/mol)

>  <smiles>  (31) 
NC(=O)c1cc2ccc(Cn3ccnc3)cc2n1C(=O)OC(=O)C(F)(F)F

>  <score_type>  (31) 
oracle

>  <origin>  (31) 
adg

>  <m_score__min__energy>  (31) 
-6.4000000000000004

>  <m_primary>  (31) 
energy

$$$$
31:0
     RDKit          3D

 58 59  0  0  0  0  0  0  0  0999 V2000
  139.5990  159.6140  130.5110 C   0  0  0  0  0  0  0  0  0  0  0  0
  139.1120  159.1390  131.8080 N   0  0  0  0  0  0  0  0  0  0  0  0
  137.7270  158.6840  131.9610 C   0  0  0  0  0  0  0  0  0  0  0  0
  140.0100  159.1680  132.9320 C   0  0  0  0  0  0  0  0  0  0  0  0
  140.5970  160.2540  133.2080 O   0  0  0  0  0  0  0  0  0  0  0  0
  140.2720  157.9230  133.7780 C   0  0  0  0  0  0  0  0  0  0  0  0
  139.9880  156.6310  132.9760 C   0  0  0  0  0  0  0  0  0  0  0  0
  139.3220  157.9320  134.9970 C   0  0  0  0  0  0  0  0  0  0  0  0
  141.6690  157.9090  134.2420 N   0  0  0  0  0  0  0  0  0  0  0  0
  142.7890  157.6130  133.3840 C   0  0  0  0  0  0  0  0  0  0  0  0
  142.6170  157.4430  132.1470 O   0  0  0  0  0  0  0  0  0  0  0  0
  144.1530  157.5010  133.9410 C   0  0  0  0  0  0  0  0  0  0  0  0
  144.4670  156.5040  134.6470 O   0  0  0  0  0  0  0  0  0  0  0  0
  145.1390  158.5140  133.6650 N   0  0  0  0  0  0  0  0  0  0  0  0
  144.9840  159.8680  133.7170 C   0  0  0  0  0  0  0  0  0  0  0  0
  143.7550  160.5870  134.1220 C   0  0  0  0  0  0  0  0  0  0  0  0
  142.8650  160.0440  135.0930 N   0  0  0  0  0  0  0  0  0  0  0  0
  143.4970  161.7080  133.6110 O   0  0  0  0  0  0  0  0  0  0  0  0
  146.1830  160.5070  133.4070 C   0  0  0  0  0  0  0  0  0  0  0  0
  147.0820  159.4980  133.1530 C   0  0  0  0  0  0  0  0  0  0  0  0
  148.4350  159.5580  132.8330 C   0  0  0  0  0  0  0  0  0  0  0  0
  149.1230  158.3440  132.6490 C   0  0  0  0  0  0  0  0  0  0  0  0
  148.4480  157.1040  132.7690 C   0  0  0  0  0  0  0  0  0  0  0  0
  149.2010  155.8110  132.6190 C   0  0  0  0  0  0  0  0  0  0  0  0
  148.2180  154.6250  132.5960 C   0  0  0  0  0  0  0  0  0  0  0  0
  148.7740  153.3210  133.2110 C   0  0  1  0  0  0  0  0  0  0  0  0
  148.0790  152.9780  134.3880 O   0  0  0  0  0  0  0  0  0  0  0  0
  148.8180  152.1510  132.2080 C   0  0  0  0  0  0  0  0  0  0  0  0
  147.8020  151.2260  132.4920 O   0  0  0  0  0  0  0  0  0  0  0  0
  147.0770  157.0830  133.1050 C   0  0  0  0  0  0  0  0  0  0  0  0
  146.4250  158.3040  133.3080 C   0  0  0  0  0  0  0  0  0  0  0  0
  140.3784  160.3742  130.6680 H   0  0  0  0  0  0  0  0  0  0  0  0
  140.0193  158.7693  129.9454 H   0  0  0  0  0  0  0  0  0  0  0  0
  138.7651  160.0552  129.9454 H   0  0  0  0  0  0  0  0  0  0  0  0
  137.4834  158.6040  133.0307 H   0  0  0  0  0  0  0  0  0  0  0  0
  137.0488  159.4066  131.4836 H   0  0  0  0  0  0  0  0  0  0  0  0
  137.6095  157.7000  131.4836 H   0  0  0  0  0  0  0  0  0  0  0  0
  139.8053  155.7996  133.6727 H   0  0  0  0  0  0  0  0  0  0  0  0
  139.1012  156.7801  132.3425 H   0  0  0  0  0  0  0  0  0  0  0  0
  140.8556  156.3945  132.3425 H   0  0  0  0  0  0  0  0  0  0  0  0
  139.9146  157.9264  135.9237 H   0  0  0  0  0  0  0  0  0  0  0  0
  138.6961  158.8361  134.9674 H   0  0  0  0  0  0  0  0  0  0  0  0
  138.6791  157.0399  134.9674 H   0  0  0  0  0  0  0  0  0  0  0  0
  141.8670  158.1090  135.2500 H   0  0  0  0  0  0  0  0  0  0  0  0
  141.8280  160.0550  134.9420 H   0  0  0  0  0  0  0  0  0  0  0  0
  146.3707  161.5903  133.3727 H   0  0  0  0  0  0  0  0  0  0  0  0
  148.9506  160.5239  132.7272 H   0  0  0  0  0  0  0  0  0  0  0  0
  150.1965  158.3580  132.4094 H   0  0  0  0  0  0  0  0  0  0  0  0
  149.7712  155.8291  131.6785 H   0  0  0  0  0  0  0  0  0  0  0  0
  149.8871  155.6933  133.4707 H   0  0  0  0  0  0  0  0  0  0  0  0
  147.3178  154.9137  133.1584 H   0  0  0  0  0  0  0  0  0  0  0  0
  148.0123  154.4091  131.5372 H   0  0  0  0  0  0  0  0  0  0  0  0
  149.8210  153.5222  133.4820 H   0  0  0  0  0  0  0  0  0  0  0  0
  147.2450  152.5060  134.1270 H   0  0  0  0  0  0  0  0  0  0  0  0
  148.6785  152.5414  131.1891 H   0  0  0  0  0  0  0  0  0  0  0  0
  149.7925  151.6473  132.2892 H   0  0  0  0  0  0  0  0  0  0  0  0
  147.7850  151.1110  133.4770 H   0  0  0  0  0  0  0  0  0  0  0  0
  146.5352  156.1309  133.2046 H   0  0  0  0  0  0  0  0  0  0  0  0
  1  2  1  0
  2  3  1  0
  2  4  1  0
  4  5  2  0
  4  6  1  0
  6  7  1  0
  6  8  1  0
  6  9  1  0
  9 10  1  0
 10 11  2  0
 10 12  1  0
 12 13  2  0
 12 14  1  0
 14 15  1  0
 15 16  1  0
 16 17  1  0
 16 18  2  0
 15 19  2  0
 19 20  1  0
 20 21  2  0
 21 22  1  0
 22 23  2  0
 23 24  1  0
 24 25  1  0
 25 26  1  0
 26 27  1  0
 26 28  1  0
 28 29  1  0
 23 30  1  0
 30 31  2  0
 31 14  1  0
 31 20  1  0
  1 32  1  0
  1 33  1  0
  1 34  1  0
  3 35  1  0
  3 36  1  0
  3 37  1  0
  7 38  1  0
  7 39  1  0
  7 40  1  0
  8 41  1  0
  8 42  1  0
  8 43  1  0
  9 44  1  0
 17 45  1  0
 19 46  1  0
 21 47  1  0
 22 48  1  0
 24 49  1  0
 24 50  1  0
 25 51  1  0
 25 52  1  0
 26 53  1  1
 27 54  1  0
 28 55  1  0
 28 56  1  0
 29 57  1  0
 30 58  1  0
M  CHG  1  17  -1
M  END
>  <UniqueID>  (32) 
32

>  <SMILES>  (32) 
CN(C)C(=O)C(C)(C)NC(=O)C(=O)n1c(C([NH-])=O)cc2ccc(CC[C@@H](O)CO)cc21

>  <Energy>  (32) 
92.53508497709534

>  <Genealogy>  (32) 
CN(C)C(=O)C(C)(C)NC(=O)C(=O)n1c(C([NH-])=O)cc2ccc(CCC(O)CO)cc21 (protonated)
CN(C)C(=O)C(C)(C)NC(=O)C(=O)n1c(C([NH-])=O)cc2ccc(CC[C@@H](O)CO)cc21 (chirality)
CN(C)C(=O)C(C)(C)NC(=O)C(=O)n1c(C([NH-])=O)cc2ccc(CC[C@@H](O)CO)cc21 (3D coordinates assigned)
CN(C)C(=O)C(C)(C)NC(=O)C(=O)n1c(C([NH-])=O)cc2ccc(CC[C@@H](O)CO)cc21 (optimized conformer: 92.53508497709534 kcal/mol)

>  <smiles>  (32) 
CN(C)C(=O)C(C)(C)NC(=O)C(=O)n1c(C(N)=O)cc2ccc(CCC(O)CO)cc21

>  <score_type>  (32) 
oracle

>  <origin>  (32) 
adg

>  <m_score__min__energy>  (32) 
-8.4000000000000004

>  <m_primary>  (32) 
energy

$$$$
32:0
     RDKit          3D

 38 39  0  0  0  0  0  0  0  0999 V2000
  149.6090  150.4000  134.6200 C   0  0  0  0  0  0  0  0  0  0  0  0
  149.9310  151.2840  133.6780 C   0  0  0  0  0  0  0  0  0  0  0  0
  149.7730  150.9950  132.2460 C   0  0  0  0  0  0  0  0  0  0  0  0
  150.7430  150.5000  131.6120 O   0  0  0  0  0  0  0  0  0  0  0  0
  148.5670  151.2820  131.5950 O   0  0  0  0  0  0  0  0  0  0  0  0
  147.3350  150.6270  131.8830 C   0  0  0  0  0  0  0  0  0  0  0  0
  146.4160  151.5480  132.4670 O   0  0  0  0  0  0  0  0  0  0  0  0
  146.6760  152.9110  132.6420 C   0  0  0  0  0  0  0  0  0  0  0  0
  145.8280  153.7760  132.2870 O   0  0  0  0  0  0  0  0  0  0  0  0
  147.9050  153.2920  133.1960 O   0  0  0  0  0  0  0  0  0  0  0  0
  148.4990  154.5520  133.0480 C   0  0  0  0  0  0  0  0  0  0  0  0
  149.5970  154.6820  132.4420 O   0  0  0  0  0  0  0  0  0  0  0  0
  147.8340  155.7140  133.5710 N   0  0  0  0  0  0  0  0  0  0  0  0
  146.8340  155.7540  134.4970 C   0  0  0  0  0  0  0  0  0  0  0  0
  146.3280  154.6050  135.2770 C   0  0  0  0  0  0  0  0  0  0  0  0
  147.2480  153.7020  135.8860 N   0  0  0  0  0  0  0  0  0  0  0  0
  145.0920  154.3890  135.3790 O   0  0  0  0  0  0  0  0  0  0  0  0
  146.3920  157.0630  134.6820 C   0  0  0  0  0  0  0  0  0  0  0  0
  147.1620  157.8310  133.8390 C   0  0  0  0  0  0  0  0  0  0  0  0
  147.1390  159.2020  133.6080 C   0  0  0  0  0  0  0  0  0  0  0  0
  148.0310  159.7250  132.6570 C   0  0  0  0  0  0  0  0  0  0  0  0
  148.9180  158.8740  131.9550 C   0  0  0  0  0  0  0  0  0  0  0  0
  149.8520  159.4520  130.9290 C   0  0  0  0  0  0  0  0  0  0  0  0
  149.9730  160.8150  131.1250 F   0  0  0  0  0  0  0  0  0  0  0  0
  149.3540  159.2140  129.6620 F   0  0  0  0  0  0  0  0  0  0  0  0
  148.9110  157.4850  132.2130 C   0  0  0  0  0  0  0  0  0  0  0  0
  148.0240  156.9930  133.1790 C   0  0  0  0  0  0  0  0  0  0  0  0
  149.7422  150.6546  135.6818 H   0  0  0  0  0  0  0  0  0  0  0  0
  149.2098  149.4150  134.3365 H   0  0  0  0  0  0  0  0  0  0  0  0
  150.3287  152.2635  133.9819 H   0  0  0  0  0  0  0  0  0  0  0  0
  146.9081  150.2285  130.9508 H   0  0  0  0  0  0  0  0  0  0  0  0
  147.5205  149.8054  132.5905 H   0  0  0  0  0  0  0  0  0  0  0  0
  147.7320  152.9690  135.3220 H   0  0  0  0  0  0  0  0  0  0  0  0
  145.5964  157.4087  135.3584 H   0  0  0  0  0  0  0  0  0  0  0  0
  146.4436  159.8571  134.1533 H   0  0  0  0  0  0  0  0  0  0  0  0
  148.0403  160.8064  132.4559 H   0  0  0  0  0  0  0  0  0  0  0  0
  150.8394  158.9780  131.0310 H   0  0  0  0  0  0  0  0  0  0  0  0
  149.5851  156.8070  131.6690 H   0  0  0  0  0  0  0  0  0  0  0  0
  1  2  2  0
  2  3  1  0
  3  4  2  0
  3  5  1  0
  5  6  1  0
  6  7  1  0
  7  8  1  0
  8  9  2  0
  8 10  1  0
 10 11  1  0
 11 12  2  0
 11 13  1  0
 13 14  1  0
 14 15  1  0
 15 16  1  0
 15 17  2  0
 14 18  2  0
 18 19  1  0
 19 20  2  0
 20 21  1  0
 21 22  2  0
 22 23  1  0
 23 24  1  0
 23 25  1  0
 22 26  1  0
 26 27  2  0
 27 13  1  0
 27 19  1  0
  1 28  1  0
  1 29  1  0
  2 30  1  0
  6 31  1  0
  6 32  1  0
 16 33  1  0
 18 34  1  0
 20 35  1  0
 21 36  1  0
 23 37  1  0
 26 38  1  0
M  CHG  1  16  -1
M  END
>  <UniqueID>  (33) 
33

>  <SMILES>  (33) 
C=CC(=O)OCOC(=O)OC(=O)n1c(C([NH-])=O)cc2ccc(C(F)F)cc21

>  <Energy>  (33) 
74.93671388830828

>  <Genealogy>  (33) 
C=CC(=O)OCOC(=O)OC(=O)n1c(C([NH-])=O)cc2ccc(C(F)F)cc21 (protonated)
C=CC(=O)OCOC(=O)OC(=O)n1c(C([NH-])=O)cc2ccc(C(F)F)cc21 (3D coordinates assigned)
C=CC(=O)OCOC(=O)OC(=O)n1c(C([NH-])=O)cc2ccc(C(F)F)cc21 (optimized conformer: 74.93671388830828 kcal/mol)

>  <smiles>  (33) 
C=CC(=O)OCOC(=O)OC(=O)n1c(C(N)=O)cc2ccc(C(F)F)cc21

>  <score_type>  (33) 
oracle

>  <origin>  (33) 
adg

>  <m_score__min__energy>  (33) 
-5.8600000000000003

>  <m_primary>  (33) 
energy

$$$$
33:0
     RDKit          3D

 41 42  0  0  0  0  0  0  0  0999 V2000
  140.9750  155.8840  138.3830 C   0  0  0  0  0  0  0  0  0  0  0  0
  141.5190  157.2430  138.2960 N   0  0  0  0  0  0  0  0  0  0  0  0
  142.0980  157.8740  139.4840 C   0  0  0  0  0  0  0  0  0  0  0  0
  141.3630  158.0220  137.0920 C   0  0  0  0  0  0  0  0  0  0  0  0
  141.4050  159.2810  137.1520 O   0  0  0  0  0  0  0  0  0  0  0  0
  141.1380  157.3850  135.7820 C   0  0  0  0  0  0  0  0  0  0  0  0
  139.9570  157.2550  135.3610 O   0  0  0  0  0  0  0  0  0  0  0  0
  142.2400  156.9360  134.9710 N   0  0  0  0  0  0  0  0  0  0  0  0
  142.9710  155.7250  135.3500 C   0  0  0  0  0  0  0  0  0  0  0  0
  142.5290  157.5690  133.7080 C   0  0  0  0  0  0  0  0  0  0  0  0
  141.9660  157.1590  132.6560 O   0  0  0  0  0  0  0  0  0  0  0  0
  143.4040  158.7060  133.6400 N   0  0  0  0  0  0  0  0  0  0  0  0
  143.0890  160.0270  133.7600 C   0  0  0  0  0  0  0  0  0  0  0  0
  141.7290  160.5970  133.9120 C   0  0  0  0  0  0  0  0  0  0  0  0
  140.6140  159.7730  134.2370 N   0  0  0  0  0  0  0  0  0  0  0  0
  141.5480  161.8320  133.7380 O   0  0  0  0  0  0  0  0  0  0  0  0
  144.2410  160.8090  133.6760 C   0  0  0  0  0  0  0  0  0  0  0  0
  145.2790  159.9190  133.5200 C   0  0  0  0  0  0  0  0  0  0  0  0
  146.6490  160.1430  133.4260 C   0  0  0  0  0  0  0  0  0  0  0  0
  147.4960  159.0250  133.3260 C   0  0  0  0  0  0  0  0  0  0  0  0
  146.9660  157.7090  133.3300 C   0  0  0  0  0  0  0  0  0  0  0  0
  147.9090  156.5360  133.2490 C   0  0  0  0  0  0  0  0  0  0  0  0
  149.1350  156.9030  132.7220 F   0  0  0  0  0  0  0  0  0  0  0  0
  148.1100  156.0170  134.5160 F   0  0  0  0  0  0  0  0  0  0  0  0
  147.3550  155.5570  132.4430 F   0  0  0  0  0  0  0  0  0  0  0  0
  145.5640  157.5250  133.4230 C   0  0  0  0  0  0  0  0  0  0  0  0
  144.7480  158.6560  133.5080 C   0  0  0  0  0  0  0  0  0  0  0  0
  140.8618  155.6013  139.4400 H   0  0  0  0  0  0  0  0  0  0  0  0
  139.9937  155.8494  137.8871 H   0  0  0  0  0  0  0  0  0  0  0  0
  141.6614  155.1819  137.8871 H   0  0  0  0  0  0  0  0  0  0  0  0
  141.6742  157.4121  140.3879 H   0  0  0  0  0  0  0  0  0  0  0  0
  143.1891  157.7347  139.4782 H   0  0  0  0  0  0  0  0  0  0  0  0
  141.8656  158.9491  139.4782 H   0  0  0  0  0  0  0  0  0  0  0  0
  143.0153  155.6516  136.4467 H   0  0  0  0  0  0  0  0  0  0  0  0
  142.4545  154.8428  134.9440 H   0  0  0  0  0  0  0  0  0  0  0  0
  143.9923  155.7710  134.9440 H   0  0  0  0  0  0  0  0  0  0  0  0
  140.5090  159.3620  135.1900 H   0  0  0  0  0  0  0  0  0  0  0  0
  144.3061  161.9060  133.7243 H   0  0  0  0  0  0  0  0  0  0  0  0
  147.0574  161.1644  133.4298 H   0  0  0  0  0  0  0  0  0  0  0  0
  148.5829  159.1726  133.2437 H   0  0  0  0  0  0  0  0  0  0  0  0
  145.1282  156.5150  133.4282 H   0  0  0  0  0  0  0  0  0  0  0  0
  1  2  1  0
  2  3  1  0
  2  4  1  0
  4  5  2  0
  4  6  1  0
  6  7  2  0
  6  8  1  0
  8  9  1  0
  8 10  1  0
 10 11  2  0
 10 12  1  0
 12 13  1  0
 13 14  1  0
 14 15  1  0
 14 16  2  0
 13 17  2  0
 17 18  1  0
 18 19  2  0
 19 20  1  0
 20 21  2  0
 21 22  1  0
 22 23  1  0
 22 24  1  0
 22 25  1  0
 21 26  1  0
 26 27  2  0
 27 12  1  0
 27 18  1  0
  1 28  1  0
  1 29  1  0
  1 30  1  0
  3 31  1  0
  3 32  1  0
  3 33  1  0
  9 34  1  0
  9 35  1  0
  9 36  1  0
 15 37  1  0
 17 38  1  0
 19 39  1  0
 20 40  1  0
 26 41  1  0
M  CHG  1  15  -1
M  END
>  <UniqueID>  (34) 
34

>  <SMILES>  (34) 
CN(C)C(=O)C(=O)N(C)C(=O)n1c(C([NH-])=O)cc2ccc(C(F)(F)F)cc21

>  <Energy>  (34) 
82.9444670589661

>  <Genealogy>  (34) 
CN(C)C(=O)C(=O)N(C)C(=O)n1c(C([NH-])=O)cc2ccc(C(F)(F)F)cc21 (protonated)
CN(C)C(=O)C(=O)N(C)C(=O)n1c(C([NH-])=O)cc2ccc(C(F)(F)F)cc21 (3D coordinates assigned)
CN(C)C(=O)C(=O)N(C)C(=O)n1c(C([NH-])=O)cc2ccc(C(F)(F)F)cc21 (optimized conformer: 82.9444670589661 kcal/mol)

>  <smiles>  (34) 
CN(C)C(=O)C(=O)N(C)C(=O)n1c(C(N)=O)cc2ccc(C(F)(F)F)cc21

>  <score_type>  (34) 
oracle

>  <origin>  (34) 
adg

>  <m_score__min__energy>  (34) 
-6.5499999999999998

>  <m_primary>  (34) 
energy

$$$$
34:0
     RDKit          3D

 34 35  0  0  0  0  0  0  0  0999 V2000
  140.2650  157.7710  133.4840 C   0  0  0  0  0  0  0  0  0  0  0  0
  141.2520  158.0120  134.5440 N   0  0  0  0  0  0  0  0  0  0  0  0
  140.9110  157.6620  135.9330 C   0  0  0  0  0  0  0  0  0  0  0  0
  141.0230  158.8640  136.8190 C   0  0  0  0  0  0  0  0  0  0  0  0
  141.5080  158.7570  137.9760 O   0  0  0  0  0  0  0  0  0  0  0  0
  140.6080  160.1060  136.3580 O   0  0  0  0  0  0  0  0  0  0  0  0
  142.5370  158.5940  134.2110 C   0  0  0  0  0  0  0  0  0  0  0  0
  142.6690  160.0010  134.0500 C   0  0  0  0  0  0  0  0  0  0  0  0
  143.9070  160.5790  133.7220 C   0  0  0  0  0  0  0  0  0  0  0  0
  145.0000  159.7360  133.5680 C   0  0  0  0  0  0  0  0  0  0  0  0
  146.3010  160.0280  133.2270 C   0  0  0  0  0  0  0  0  0  0  0  0
  146.9610  158.8010  133.2050 C   0  0  0  0  0  0  0  0  0  0  0  0
  148.4130  158.6630  132.9670 C   0  0  0  0  0  0  0  0  0  0  0  0
  148.9060  157.9240  131.8540 N   0  0  0  0  0  0  0  0  0  0  0  0
  149.2300  159.1660  133.7840 O   0  0  0  0  0  0  0  0  0  0  0  0
  146.1000  157.7900  133.5120 N   0  0  0  0  0  0  0  0  0  0  0  0
  146.3670  156.3790  133.5060 C   0  0  0  0  0  0  0  0  0  0  0  0
  146.9070  155.8500  132.4960 O   0  0  0  0  0  0  0  0  0  0  0  0
  146.0450  155.6100  134.6330 O   0  0  0  0  0  0  0  0  0  0  0  0
  146.9750  155.0190  135.4950 C   0  0  0  0  0  0  0  0  0  0  0  0
  148.0490  155.6010  135.8040 O   0  0  0  0  0  0  0  0  0  0  0  0
  146.7100  153.7610  136.0190 O   0  0  0  0  0  0  0  0  0  0  0  0
  144.9040  158.3800  133.7340 C   0  0  0  0  0  0  0  0  0  0  0  0
  143.6810  157.7740  134.0380 C   0  0  0  0  0  0  0  0  0  0  0  0
  139.2912  157.5332  133.9369 H   0  0  0  0  0  0  0  0  0  0  0  0
  140.1692  158.6721  132.8605 H   0  0  0  0  0  0  0  0  0  0  0  0
  140.5952  156.9271  132.8605 H   0  0  0  0  0  0  0  0  0  0  0  0
  139.8795  157.2815  135.9677 H   0  0  0  0  0  0  0  0  0  0  0  0
  141.6113  156.8916  136.2881 H   0  0  0  0  0  0  0  0  0  0  0  0
  141.7885  160.6465  134.1843 H   0  0  0  0  0  0  0  0  0  0  0  0
  144.0075  161.6665  133.5911 H   0  0  0  0  0  0  0  0  0  0  0  0
  146.7289  161.0193  133.0166 H   0  0  0  0  0  0  0  0  0  0  0  0
  148.3810  157.1030  131.4780 H   0  0  0  0  0  0  0  0  0  0  0  0
  143.6077  156.6813  134.1410 H   0  0  0  0  0  0  0  0  0  0  0  0
  1  2  1  0
  2  3  1  0
  3  4  1  0
  4  5  2  0
  4  6  1  0
  2  7  1  0
  7  8  2  0
  8  9  1  0
  9 10  2  0
 10 11  1  0
 11 12  2  0
 12 13  1  0
 13 14  1  0
 13 15  2  0
 12 16  1  0
 16 17  1  0
 17 18  2  0
 17 19  1  0
 19 20  1  0
 20 21  2  0
 20 22  1  0
 16 23  1  0
 23 24  2  0
 24  7  1  0
 23 10  1  0
  1 25  1  0
  1 26  1  0
  1 27  1  0
  3 28  1  0
  3 29  1  0
  8 30  1  0
  9 31  1  0
 11 32  1  0
 14 33  1  0
 24 34  1  0
M  CHG  3   6  -1  14  -1  22  -1
M  END
>  <UniqueID>  (35) 
35

>  <SMILES>  (35) 
CN(CC(=O)[O-])c1ccc2cc(C([NH-])=O)n(C(=O)OC(=O)[O-])c2c1

>  <Energy>  (35) 
76.38627966121942

>  <Genealogy>  (35) 
CN(CC(=O)[O-])c1ccc2cc(C([NH-])=O)n(C(=O)OC(=O)[O-])c2c1 (protonated)
CN(CC(=O)[O-])c1ccc2cc(C([NH-])=O)n(C(=O)OC(=O)[O-])c2c1 (3D coordinates assigned)
CN(CC(=O)[O-])c1ccc2cc(C([NH-])=O)n(C(=O)OC(=O)[O-])c2c1 (optimized conformer: 76.38627966121942 kcal/mol)

>  <smiles>  (35) 
CN(CC(=O)O)c1ccc2cc(C(N)=O)n(C(=O)OC(=O)O)c2c1

>  <score_type>  (35) 
oracle

>  <origin>  (35) 
adg

>  <m_score__min__energy>  (35) 
-6.2400000000000002

>  <m_primary>  (35) 
energy

$$$$
35:0
     RDKit          3D

 44 46  0  0  0  0  0  0  0  0999 V2000
  139.6860  147.3070  130.0590 C   0  0  0  0  0  0  0  0  0  0  0  0
  140.1550  147.5370  131.3820 O   0  0  0  0  0  0  0  0  0  0  0  0
  140.6680  148.7690  131.8030 C   0  0  0  0  0  0  0  0  0  0  0  0
  141.9790  148.8860  132.1520 N   0  0  0  0  0  0  0  0  0  0  0  0
  142.5160  150.0650  132.5620 C   0  0  0  0  0  0  0  0  0  0  0  0
  141.7190  151.2180  132.6410 C   0  0  0  0  0  0  0  0  0  0  0  0
  142.2970  152.5110  133.0880 C   0  0  0  0  0  0  0  0  0  0  0  0
  143.6120  152.5650  133.6210 C   0  0  0  0  0  0  0  0  0  0  0  0
  144.1630  153.7830  134.0560 C   0  0  0  0  0  0  0  0  0  0  0  0
  143.3860  154.9310  133.9360 C   0  0  0  0  0  0  0  0  0  0  0  0
  143.6610  156.2300  134.3000 C   0  0  0  0  0  0  0  0  0  0  0  0
  142.5200  156.9570  133.9630 C   0  0  0  0  0  0  0  0  0  0  0  0
  142.4040  158.4220  134.1270 C   0  0  0  0  0  0  0  0  0  0  0  0
  142.5270  159.2740  132.9900 N   0  0  0  0  0  0  0  0  0  0  0  0
  142.1700  158.9280  135.2550 O   0  0  0  0  0  0  0  0  0  0  0  0
  141.5780  156.1380  133.4140 N   0  0  0  0  0  0  0  0  0  0  0  0
  140.2540  156.4850  132.9780 C   0  0  0  0  0  0  0  0  0  0  0  0
  139.3510  155.6050  132.9600 O   0  0  0  0  0  0  0  0  0  0  0  0
  139.9660  157.8220  132.5520 N   0  0  0  0  0  0  0  0  0  0  0  0
  138.6720  158.1780  131.9760 C   0  0  0  0  0  0  0  0  0  0  0  0
  138.6660  159.6090  131.5420 C   0  0  0  0  0  0  0  0  0  0  0  0
  137.6220  160.1190  131.0530 O   0  0  0  0  0  0  0  0  0  0  0  0
  139.7940  160.3970  131.7290 O   0  0  0  0  0  0  0  0  0  0  0  0
  142.1230  154.9020  133.4060 C   0  0  0  0  0  0  0  0  0  0  0  0
  141.5400  153.7010  132.9870 C   0  0  0  0  0  0  0  0  0  0  0  0
  140.3640  151.1170  132.2870 C   0  0  0  0  0  0  0  0  0  0  0  0
  139.8270  149.8930  131.8660 C   0  0  0  0  0  0  0  0  0  0  0  0
  138.3800  149.7840  131.4760 C   0  0  0  0  0  0  0  0  0  0  0  0
  138.6990  146.8230  130.0988 H   0  0  0  0  0  0  0  0  0  0  0  0
  139.6027  148.2665  129.5275 H   0  0  0  0  0  0  0  0  0  0  0  0
  140.3936  146.6537  129.5275 H   0  0  0  0  0  0  0  0  0  0  0  0
  143.5808  150.1162  132.8334 H   0  0  0  0  0  0  0  0  0  0  0  0
  144.2068  151.6426  133.6944 H   0  0  0  0  0  0  0  0  0  0  0  0
  145.1777  153.8271  134.4784 H   0  0  0  0  0  0  0  0  0  0  0  0
  144.5844  156.6128  134.7590 H   0  0  0  0  0  0  0  0  0  0  0  0
  141.7470  159.3660  132.3020 H   0  0  0  0  0  0  0  0  0  0  0  0
  140.7060  158.5530  132.6690 H   0  0  0  0  0  0  0  0  0  0  0  0
  138.4744  157.5352  131.1055 H   0  0  0  0  0  0  0  0  0  0  0  0
  137.8924  158.0350  132.7387 H   0  0  0  0  0  0  0  0  0  0  0  0
  140.5152  153.6830  132.5878 H   0  0  0  0  0  0  0  0  0  0  0  0
  139.7186  152.0061  132.3406 H   0  0  0  0  0  0  0  0  0  0  0  0
  137.7585  149.7372  132.3824 H   0  0  0  0  0  0  0  0  0  0  0  0
  138.0936  150.6631  130.8801 H   0  0  0  0  0  0  0  0  0  0  0  0
  138.2286  148.8719  130.8801 H   0  0  0  0  0  0  0  0  0  0  0  0
  1  2  1  0
  2  3  1  0
  3  4  2  0
  4  5  1  0
  5  6  2  0
  6  7  1  0
  7  8  2  0
  8  9  1  0
  9 10  2  0
 10 11  1  0
 11 12  2  0
 12 13  1  0
 13 14  1  0
 13 15  2  0
 12 16  1  0
 16 17  1  0
 17 18  2  0
 17 19  1  0
 19 20  1  0
 20 21  1  0
 21 22  2  0
 21 23  1  0
 16 24  1  0
 24 25  2  0
  6 26  1  0
 26 27  2  0
 27 28  1  0
 27  3  1  0
 25  7  1  0
 24 10  1  0
  1 29  1  0
  1 30  1  0
  1 31  1  0
  5 32  1  0
  8 33  1  0
  9 34  1  0
 11 35  1  0
 14 36  1  0
 19 37  1  0
 20 38  1  0
 20 39  1  0
 25 40  1  0
 26 41  1  0
 28 42  1  0
 28 43  1  0
 28 44  1  0
M  CHG  2  14  -1  23  -1
M  END
>  <UniqueID>  (36) 
36

>  <SMILES>  (36) 
COc1ncc(-c2ccc3cc(C([NH-])=O)n(C(=O)NCC(=O)[O-])c3c2)cc1C

>  <Energy>  (36) 
85.58381809374234

>  <Genealogy>  (36) 
COc1ncc(-c2ccc3cc(C([NH-])=O)n(C(=O)NCC(=O)[O-])c3c2)cc1C (protonated)
COc1ncc(-c2ccc3cc(C([NH-])=O)n(C(=O)NCC(=O)[O-])c3c2)cc1C (3D coordinates assigned)
COc1ncc(-c2ccc3cc(C([NH-])=O)n(C(=O)NCC(=O)[O-])c3c2)cc1C (optimized conformer: 85.58381809374234 kcal/mol)

>  <smiles>  (36) 
COc1ncc(-c2ccc3cc(C(N)=O)n(C(=O)NCC(=O)O)c3c2)cc1C

>  <score_type>  (36) 
oracle

>  <origin>  (36) 
adg

>  <m_score__min__energy>  (36) 
-7.9900000000000002

>  <m_primary>  (36) 
energy

$$$$
36:0
     RDKit          3D

 32 33  0  0  0  0  0  0  0  0999 V2000
  149.5480  150.8820  134.0040 N   0  0  0  0  0  0  0  0  0  0  0  0
  149.6120  151.8350  133.3490 C   0  0  0  0  0  0  0  0  0  0  0  0
  149.6950  153.0410  132.5200 C   0  0  0  0  0  0  0  0  0  0  0  0
  148.5370  153.9500  132.8220 C   0  0  0  0  0  0  0  0  0  0  0  0
  147.3370  153.4190  133.3560 C   0  0  0  0  0  0  0  0  0  0  0  0
  146.2630  154.2650  133.6820 C   0  0  0  0  0  0  0  0  0  0  0  0
  146.4180  155.6310  133.4630 C   0  0  0  0  0  0  0  0  0  0  0  0
  145.5560  156.6700  133.7250 C   0  0  0  0  0  0  0  0  0  0  0  0
  146.2340  157.8190  133.3280 C   0  0  0  0  0  0  0  0  0  0  0  0
  145.6410  159.1700  133.3800 C   0  0  0  0  0  0  0  0  0  0  0  0
  146.3900  160.3220  132.9880 N   0  0  0  0  0  0  0  0  0  0  0  0
  144.4360  159.3040  133.7230 O   0  0  0  0  0  0  0  0  0  0  0  0
  147.4730  157.5070  132.8530 N   0  0  0  0  0  0  0  0  0  0  0  0
  148.5120  158.4170  132.4550 C   0  0  0  0  0  0  0  0  0  0  0  0
  149.2170  158.9850  133.3330 O   0  0  0  0  0  0  0  0  0  0  0  0
  148.7310  158.6630  131.0930 O   0  0  0  0  0  0  0  0  0  0  0  0
  148.5860  159.9080  130.4640 C   0  0  0  0  0  0  0  0  0  0  0  0
  147.4620  160.4750  130.3910 O   0  0  0  0  0  0  0  0  0  0  0  0
  149.7950  160.6000  129.9240 C   0  0  0  0  0  0  0  0  0  0  0  0
  150.9170  159.8190  130.1300 F   0  0  0  0  0  0  0  0  0  0  0  0
  149.6320  160.8180  128.5700 F   0  0  0  0  0  0  0  0  0  0  0  0
  149.9680  161.8150  130.5620 F   0  0  0  0  0  0  0  0  0  0  0  0
  147.5700  156.1620  132.9390 C   0  0  0  0  0  0  0  0  0  0  0  0
  148.6630  155.3440  132.6260 C   0  0  0  0  0  0  0  0  0  0  0  0
  150.6371  153.5669  132.7345 H   0  0  0  0  0  0  0  0  0  0  0  0
  149.6627  152.7538  131.4586 H   0  0  0  0  0  0  0  0  0  0  0  0
  147.2450  152.3347  133.5169 H   0  0  0  0  0  0  0  0  0  0  0  0
  145.3285  153.8601  134.0975 H   0  0  0  0  0  0  0  0  0  0  0  0
  144.5461  156.6066  134.1563 H   0  0  0  0  0  0  0  0  0  0  0  0
  145.9670  161.2730  133.0680 H   0  0  0  0  0  0  0  0  0  0  0  0
  147.3270  160.2280  132.5390 H   0  0  0  0  0  0  0  0  0  0  0  0
  149.5968  155.7760  132.2371 H   0  0  0  0  0  0  0  0  0  0  0  0
  1  2  3  0
  2  3  1  0
  3  4  1  0
  4  5  2  0
  5  6  1  0
  6  7  2  0
  7  8  1  0
  8  9  2  0
  9 10  1  0
 10 11  1  0
 10 12  2  0
  9 13  1  0
 13 14  1  0
 14 15  2  0
 14 16  1  0
 16 17  1  0
 17 18  2  0
 17 19  1  0
 19 20  1  0
 19 21  1  0
 19 22  1  0
 13 23  1  0
 23 24  2  0
 24  4  1  0
 23  7  1  0
  3 25  1  0
  3 26  1  0
  5 27  1  0
  6 28  1  0
  8 29  1  0
 11 30  1  0
 11 31  1  0
 24 32  1  0
M  END
>  <UniqueID>  (37) 
37

>  <SMILES>  (37) 
N#CCc1ccc2cc(C(N)=O)n(C(=O)OC(=O)C(F)(F)F)c2c1

>  <Energy>  (37) 
69.51110773141157

>  <Genealogy>  (37) 
N#CCc1ccc2cc(C(N)=O)n(C(=O)OC(=O)C(F)(F)F)c2c1 (3D coordinates assigned)
N#CCc1ccc2cc(C(N)=O)n(C(=O)OC(=O)C(F)(F)F)c2c1 (optimized conformer: 69.51110773141157 kcal/mol)

>  <smiles>  (37) 
N#CCc1ccc2cc(C(N)=O)n(C(=O)OC(=O)C(F)(F)F)c2c1

>  <score_type>  (37) 
oracle

>  <origin>  (37) 
adg

>  <m_score__min__energy>  (37) 
-6.9199999999999999

>  <m_primary>  (37) 
energy

$$$$
37:0
     RDKit          3D

 37 38  0  0  0  0  0  0  0  0999 V2000
  148.1570  155.1060  132.7530 C   0  0  0  0  0  0  0  0  0  0  0  0
  147.8380  156.5570  132.9540 C   0  0  0  0  0  0  0  0  0  0  0  0
  148.8600  157.5300  132.8300 C   0  0  0  0  0  0  0  0  0  0  0  0
  148.5670  158.8960  132.9740 C   0  0  0  0  0  0  0  0  0  0  0  0
  147.2490  159.2560  133.2350 C   0  0  0  0  0  0  0  0  0  0  0  0
  146.6860  160.5040  133.3690 C   0  0  0  0  0  0  0  0  0  0  0  0
  145.3300  160.2750  133.5840 C   0  0  0  0  0  0  0  0  0  0  0  0
  144.3550  161.3560  133.8320 C   0  0  0  0  0  0  0  0  0  0  0  0
  142.9490  161.1150  133.7540 N   0  0  0  0  0  0  0  0  0  0  0  0
  144.7690  162.4950  134.1720 O   0  0  0  0  0  0  0  0  0  0  0  0
  145.0580  158.9400  133.5740 N   0  0  0  0  0  0  0  0  0  0  0  0
  143.7620  158.3180  133.6170 C   0  0  0  0  0  0  0  0  0  0  0  0
  143.3100  157.7280  132.5980 O   0  0  0  0  0  0  0  0  0  0  0  0
  143.0020  158.3830  134.7870 O   0  0  0  0  0  0  0  0  0  0  0  0
  141.6130  158.0730  134.8230 C   0  0  0  0  0  0  0  0  0  0  0  0
  140.8530  159.2580  134.6130 O   0  0  0  0  0  0  0  0  0  0  0  0
  140.4180  159.6640  133.3480 C   0  0  0  0  0  0  0  0  0  0  0  0
  140.6190  160.8430  132.9460 O   0  0  0  0  0  0  0  0  0  0  0  0
  139.6880  158.6960  132.4730 C   0  0  0  0  0  0  0  0  0  0  0  0
  139.3390  159.3130  131.2000 N   0  0  0  0  0  0  0  0  0  0  0  0
  138.1890  159.6900  130.9690 N   0  0  0  0  0  0  0  0  0  0  0  0
  137.0410  160.0640  130.7350 N   0  0  0  0  0  0  0  0  0  0  0  0
  146.2460  158.3270  133.3600 C   0  0  0  0  0  0  0  0  0  0  0  0
  146.5070  156.9610  133.2010 C   0  0  0  0  0  0  0  0  0  0  0  0
  148.2649  154.6153  133.7316 H   0  0  0  0  0  0  0  0  0  0  0  0
  147.3429  154.6262  132.1900 H   0  0  0  0  0  0  0  0  0  0  0  0
  149.0973  155.0119  132.1900 H   0  0  0  0  0  0  0  0  0  0  0  0
  149.8920  157.2130  132.6191 H   0  0  0  0  0  0  0  0  0  0  0  0
  149.3554  159.6576  132.8832 H   0  0  0  0  0  0  0  0  0  0  0  0
  147.1984  161.4760  133.3173 H   0  0  0  0  0  0  0  0  0  0  0  0
  142.5740  160.1530  133.6080 H   0  0  0  0  0  0  0  0  0  0  0  0
  142.2730  161.8950  133.9130 H   0  0  0  0  0  0  0  0  0  0  0  0
  141.3801  157.3441  134.0328 H   0  0  0  0  0  0  0  0  0  0  0  0
  141.3596  157.6461  135.8046 H   0  0  0  0  0  0  0  0  0  0  0  0
  140.3302  157.8226  132.2867 H   0  0  0  0  0  0  0  0  0  0  0  0
  138.7626  158.3883  132.9819 H   0  0  0  0  0  0  0  0  0  0  0  0
  145.6961  156.2207  133.2667 H   0  0  0  0  0  0  0  0  0  0  0  0
  1  2  1  0
  2  3  2  0
  3  4  1  0
  4  5  2  0
  5  6  1  0
  6  7  2  0
  7  8  1  0
  8  9  1  0
  8 10  2  0
  7 11  1  0
 11 12  1  0
 12 13  2  0
 12 14  1  0
 14 15  1  0
 15 16  1  0
 16 17  1  0
 17 18  2  0
 17 19  1  0
 19 20  1  0
 20 21  2  0
 21 22  2  0
 11 23  1  0
 23 24  2  0
 24  2  1  0
 23  5  1  0
  1 25  1  0
  1 26  1  0
  1 27  1  0
  3 28  1  0
  4 29  1  0
  6 30  1  0
  9 31  1  0
  9 32  1  0
 15 33  1  0
 15 34  1  0
 19 35  1  0
 19 36  1  0
 24 37  1  0
M  CHG  2  21   1  22  -1
M  END
>  <UniqueID>  (38) 
38

>  <SMILES>  (38) 
Cc1ccc2cc(C(N)=O)n(C(=O)OCOC(=O)CN=[N+]=[N-])c2c1

>  <Energy>  (38) 
69.40790566445877

>  <Genealogy>  (38) 
Cc1ccc2cc(C(N)=O)n(C(=O)OCOC(=O)CN=[N+]=[N-])c2c1 (3D coordinates assigned)
Cc1ccc2cc(C(N)=O)n(C(=O)OCOC(=O)CN=[N+]=[N-])c2c1 (optimized conformer: 69.40790566445877 kcal/mol)

>  <smiles>  (38) 
Cc1ccc2cc(C(N)=O)n(C(=O)OCOC(=O)CN=[N+]=[N-])c2c1

>  <score_type>  (38) 
oracle

>  <origin>  (38) 
adg

>  <m_score__min__energy>  (38) 
-6.7300000000000004

>  <m_primary>  (38) 
energy

$$$$
38:0
     RDKit          3D

 52 55  0  0  0  0  0  0  0  0999 V2000
  146.2690  161.6830  134.1050 N   0  0  0  0  0  0  0  0  0  0  0  0
  146.5820  160.4650  133.4340 C   0  0  0  0  0  0  0  0  0  0  0  0
  147.6510  160.3830  132.7710 O   0  0  0  0  0  0  0  0  0  0  0  0
  145.6580  159.3130  133.4740 C   0  0  0  0  0  0  0  0  0  0  0  0
  144.2760  159.4180  133.3100 C   0  0  0  0  0  0  0  0  0  0  0  0
  143.7900  158.1410  133.4910 C   0  0  0  0  0  0  0  0  0  0  0  0
  142.4850  157.6590  133.4460 C   0  0  0  0  0  0  0  0  0  0  0  0
  142.2820  156.2860  133.6750 C   0  0  0  0  0  0  0  0  0  0  0  0
  143.3780  155.4240  133.9420 C   0  0  0  0  0  0  0  0  0  0  0  0
  143.1620  154.0170  134.1660 N   0  0  0  0  0  0  0  0  0  0  0  0
  144.1500  153.0260  133.7200 C   0  0  0  0  0  0  0  0  0  0  0  0
  143.4700  151.9850  132.8220 C   0  0  0  0  0  0  0  0  0  0  0  0
  142.1790  151.5560  133.3850 N   0  0  0  0  0  0  0  0  0  0  0  0
  141.3210  150.6870  132.6190 C   0  0  0  0  0  0  0  0  0  0  0  0
  141.7570  149.4060  132.2420 C   0  0  0  0  0  0  0  0  0  0  0  0
  140.9070  148.5810  131.4990 C   0  0  0  0  0  0  0  0  0  0  0  0
  139.6710  149.0200  131.1400 N   0  0  0  0  0  0  0  0  0  0  0  0
  139.2270  150.2600  131.4800 C   0  0  0  0  0  0  0  0  0  0  0  0
  140.0420  151.1160  132.2260 C   0  0  0  0  0  0  0  0  0  0  0  0
  141.7610  152.0380  134.7090 C   0  0  0  0  0  0  0  0  0  0  0  0
  141.9000  153.5640  134.7750 C   0  0  0  0  0  0  0  0  0  0  0  0
  144.6890  155.9520  133.9670 C   0  0  0  0  0  0  0  0  0  0  0  0
  144.8560  157.3210  133.7480 C   0  0  0  0  0  0  0  0  0  0  0  0
  146.0060  158.0230  133.7340 N   0  0  0  0  0  0  0  0  0  0  0  0
  147.3160  157.4760  133.9270 C   0  0  0  0  0  0  0  0  0  0  0  0
  148.1920  158.1760  134.4970 O   0  0  0  0  0  0  0  0  0  0  0  0
  147.6120  156.0950  133.4870 C   0  0  0  0  0  0  0  0  0  0  0  0
  148.0260  155.9100  132.3120 O   0  0  0  0  0  0  0  0  0  0  0  0
  147.4240  154.9450  134.3290 N   0  0  0  0  0  0  0  0  0  0  0  0
  147.6770  154.8590  135.7650 C   0  0  0  0  0  0  0  0  0  0  0  0
  146.7240  153.9010  136.4130 C   0  0  0  0  0  0  0  0  0  0  0  0
  145.4810  154.0620  136.2930 O   0  0  0  0  0  0  0  0  0  0  0  0
  147.2090  152.8190  137.1370 O   0  0  0  0  0  0  0  0  0  0  0  0
  147.0070  162.2300  134.6000 H   0  0  0  0  0  0  0  0  0  0  0  0
  143.6979  160.3262  133.0844 H   0  0  0  0  0  0  0  0  0  0  0  0
  141.6390  158.3306  133.2379 H   0  0  0  0  0  0  0  0  0  0  0  0
  141.2619  155.8753  133.6469 H   0  0  0  0  0  0  0  0  0  0  0  0
  144.9460  153.5324  133.1544 H   0  0  0  0  0  0  0  0  0  0  0  0
  144.5825  152.5229  134.5974 H   0  0  0  0  0  0  0  0  0  0  0  0
  143.2993  152.4253  131.8285 H   0  0  0  0  0  0  0  0  0  0  0  0
  144.1271  151.1058  132.7498 H   0  0  0  0  0  0  0  0  0  0  0  0
  142.7591  149.0547  132.5290 H   0  0  0  0  0  0  0  0  0  0  0  0
  141.2389  147.5745  131.2042 H   0  0  0  0  0  0  0  0  0  0  0  0
  138.2252  150.5895  131.1674 H   0  0  0  0  0  0  0  0  0  0  0  0
  139.6846  152.1186  132.5035 H   0  0  0  0  0  0  0  0  0  0  0  0
  140.7115  151.7591  134.8844 H   0  0  0  0  0  0  0  0  0  0  0  0
  142.3999  151.5818  135.4795 H   0  0  0  0  0  0  0  0  0  0  0  0
  141.0580  154.0234  134.2365 H   0  0  0  0  0  0  0  0  0  0  0  0
  141.8990  153.8656  135.8328 H   0  0  0  0  0  0  0  0  0  0  0  0
  145.5557  155.3010  134.1542 H   0  0  0  0  0  0  0  0  0  0  0  0
  148.7073  154.5110  135.9302 H   0  0  0  0  0  0  0  0  0  0  0  0
  147.5353  155.8550  136.2099 H   0  0  0  0  0  0  0  0  0  0  0  0
  1  2  1  0
  2  3  2  0
  2  4  1  0
  4  5  2  0
  5  6  1  0
  6  7  2  0
  7  8  1  0
  8  9  2  0
  9 10  1  0
 10 11  1  0
 11 12  1  0
 12 13  1  0
 13 14  1  0
 14 15  2  0
 15 16  1  0
 16 17  2  0
 17 18  1  0
 18 19  2  0
 13 20  1  0
 20 21  1  0
  9 22  1  0
 22 23  2  0
 23 24  1  0
 24 25  1  0
 25 26  2  0
 25 27  1  0
 27 28  2  0
 27 29  1  0
 29 30  1  0
 30 31  1  0
 31 32  2  0
 31 33  1  0
 24  4  1  0
 23  6  1  0
 21 10  1  0
 19 14  1  0
  1 34  1  0
  5 35  1  0
  7 36  1  0
  8 37  1  0
 11 38  1  0
 11 39  1  0
 12 40  1  0
 12 41  1  0
 15 42  1  0
 16 43  1  0
 18 44  1  0
 19 45  1  0
 20 46  1  0
 20 47  1  0
 21 48  1  0
 21 49  1  0
 22 50  1  0
 30 51  1  0
 30 52  1  0
M  CHG  3   1  -1  29  -1  33  -1
M  END
>  <UniqueID>  (39) 
39

>  <SMILES>  (39) 
[NH-]C(=O)c1cc2ccc(N3CCN(c4ccncc4)CC3)cc2n1C(=O)C(=O)[N-]CC(=O)[O-]

>  <Energy>  (39) 
104.80510811184824

>  <Genealogy>  (39) 
[NH-]C(=O)c1cc2ccc(N3CCN(c4ccncc4)CC3)cc2n1C(=O)C(=O)[N-]CC(=O)[O-] (protonated)
[NH-]C(=O)c1cc2ccc(N3CCN(c4ccncc4)CC3)cc2n1C(=O)C(=O)[N-]CC(=O)[O-] (3D coordinates assigned)
[NH-]C(=O)c1cc2ccc(N3CCN(c4ccncc4)CC3)cc2n1C(=O)C(=O)[N-]CC(=O)[O-] (nonaromatic ring conformer: 104.80510811184824 kcal/mol)

>  <smiles>  (39) 
NC(=O)c1cc2ccc(N3CCN(c4ccncc4)CC3)cc2n1C(=O)C(=O)NCC(=O)O

>  <score_type>  (39) 
oracle

>  <origin>  (39) 
adg

>  <m_score__min__energy>  (39) 
-8.8599999999999994

>  <m_primary>  (39) 
energy

$$$$
39:0
     RDKit          3D

 33 34  0  0  0  0  0  0  0  0999 V2000
  139.5130  159.2510  131.8940 C   0  0  0  0  0  0  0  0  0  0  0  0
  139.8180  157.8660  132.0120 O   0  0  0  0  0  0  0  0  0  0  0  0
  140.4880  157.3360  133.1180 C   0  0  0  0  0  0  0  0  0  0  0  0
  139.8860  157.1640  134.2130 O   0  0  0  0  0  0  0  0  0  0  0  0
  141.9170  156.9210  132.9820 C   0  0  0  0  0  0  0  0  0  0  0  0
  142.7140  157.5010  134.1090 C   0  0  0  0  0  0  0  0  0  0  0  0
  142.5640  157.0580  135.2790 O   0  0  0  0  0  0  0  0  0  0  0  0
  143.5580  158.6370  133.8820 N   0  0  0  0  0  0  0  0  0  0  0  0
  143.2260  159.9540  133.9620 C   0  0  0  0  0  0  0  0  0  0  0  0
  141.8670  160.4840  134.2000 C   0  0  0  0  0  0  0  0  0  0  0  0
  140.9490  159.7470  135.0040 N   0  0  0  0  0  0  0  0  0  0  0  0
  141.5160  161.5920  133.7160 O   0  0  0  0  0  0  0  0  0  0  0  0
  144.3500  160.7500  133.7450 C   0  0  0  0  0  0  0  0  0  0  0  0
  145.3860  159.8670  133.5300 C   0  0  0  0  0  0  0  0  0  0  0  0
  146.7320  160.1050  133.2690 C   0  0  0  0  0  0  0  0  0  0  0  0
  147.5780  158.9930  133.1070 C   0  0  0  0  0  0  0  0  0  0  0  0
  147.0740  157.6720  133.2300 C   0  0  0  0  0  0  0  0  0  0  0  0
  147.9810  156.4870  133.0150 C   0  0  0  0  0  0  0  0  0  0  0  0
  149.2300  156.8990  132.5850 F   0  0  0  0  0  0  0  0  0  0  0  0
  147.4260  155.6580  132.0590 F   0  0  0  0  0  0  0  0  0  0  0  0
  148.1410  155.7760  134.1920 F   0  0  0  0  0  0  0  0  0  0  0  0
  145.6940  157.4740  133.4700 C   0  0  0  0  0  0  0  0  0  0  0  0
  144.8780  158.5990  133.6190 C   0  0  0  0  0  0  0  0  0  0  0  0
  139.4159  159.6918  132.8971 H   0  0  0  0  0  0  0  0  0  0  0  0
  140.3208  159.7590  131.3468 H   0  0  0  0  0  0  0  0  0  0  0  0
  138.5665  159.3727  131.3468 H   0  0  0  0  0  0  0  0  0  0  0  0
  141.9846  155.8235  133.0117 H   0  0  0  0  0  0  0  0  0  0  0  0
  142.3158  157.2868  132.0243 H   0  0  0  0  0  0  0  0  0  0  0  0
  141.0640  158.7200  135.1470 H   0  0  0  0  0  0  0  0  0  0  0  0
  144.3993  161.8489  133.7453 H   0  0  0  0  0  0  0  0  0  0  0  0
  147.1221  161.1306  133.1918 H   0  0  0  0  0  0  0  0  0  0  0  0
  148.6434  159.1492  132.8822 H   0  0  0  0  0  0  0  0  0  0  0  0
  145.2735  156.4598  133.5377 H   0  0  0  0  0  0  0  0  0  0  0  0
  1  2  1  0
  2  3  1  0
  3  4  2  0
  3  5  1  0
  5  6  1  0
  6  7  2  0
  6  8  1  0
  8  9  1  0
  9 10  1  0
 10 11  1  0
 10 12  2  0
  9 13  2  0
 13 14  1  0
 14 15  2  0
 15 16  1  0
 16 17  2  0
 17 18  1  0
 18 19  1  0
 18 20  1  0
 18 21  1  0
 17 22  1  0
 22 23  2  0
 23  8  1  0
 23 14  1  0
  1 24  1  0
  1 25  1  0
  1 26  1  0
  5 27  1  0
  5 28  1  0
 11 29  1  0
 13 30  1  0
 15 31  1  0
 16 32  1  0
 22 33  1  0
M  CHG  1  11  -1
M  END
>  <UniqueID>  (40) 
40

>  <SMILES>  (40) 
COC(=O)CC(=O)n1c(C([NH-])=O)cc2ccc(C(F)(F)F)cc21

>  <Energy>  (40) 
68.49206059100334

>  <Genealogy>  (40) 
COC(=O)CC(=O)n1c(C([NH-])=O)cc2ccc(C(F)(F)F)cc21 (protonated)
COC(=O)CC(=O)n1c(C([NH-])=O)cc2ccc(C(F)(F)F)cc21 (3D coordinates assigned)
COC(=O)CC(=O)n1c(C([NH-])=O)cc2ccc(C(F)(F)F)cc21 (optimized conformer: 68.49206059100334 kcal/mol)

>  <smiles>  (40) 
COC(=O)CC(=O)n1c(C(N)=O)cc2ccc(C(F)(F)F)cc21

>  <score_type>  (40) 
oracle

>  <origin>  (40) 
adg

>  <m_score__min__energy>  (40) 
-5.9699999999999998

>  <m_primary>  (40) 
energy

$$$$
40:0
     RDKit          3D

 51 53  0  0  0  0  0  0  0  0999 V2000
  141.8750  156.9300  139.3620 C   0  0  0  0  0  0  0  0  0  0  0  0
  141.3520  155.8910  138.3470 C   0  0  0  0  0  0  0  0  0  0  0  0
  142.4740  154.8950  138.0090 C   0  0  0  0  0  0  0  0  0  0  0  0
  140.1660  155.1360  138.9770 C   0  0  0  0  0  0  0  0  0  0  0  0
  140.9070  156.5740  137.0680 C   0  0  0  0  0  0  0  0  0  0  0  0
  139.8680  157.2930  137.0580 O   0  0  0  0  0  0  0  0  0  0  0  0
  141.6950  156.4680  135.9150 O   0  0  0  0  0  0  0  0  0  0  0  0
  141.3640  155.6130  134.8270 C   0  0  0  0  0  0  0  0  0  0  0  0
  141.4030  156.3500  133.6110 O   0  0  0  0  0  0  0  0  0  0  0  0
  142.5540  157.0020  133.1580 C   0  0  0  0  0  0  0  0  0  0  0  0
  143.4780  156.3480  132.6030 O   0  0  0  0  0  0  0  0  0  0  0  0
  142.6890  158.4200  133.3450 N   0  0  0  0  0  0  0  0  0  0  0  0
  141.6950  159.3290  133.5570 C   0  0  0  0  0  0  0  0  0  0  0  0
  140.2440  159.0680  133.4620 C   0  0  0  0  0  0  0  0  0  0  0  0
  139.5770  158.2730  134.4390 N   0  0  0  0  0  0  0  0  0  0  0  0
  139.5940  159.5110  132.4780 O   0  0  0  0  0  0  0  0  0  0  0  0
  142.2310  160.5920  133.8020 C   0  0  0  0  0  0  0  0  0  0  0  0
  143.5950  160.4300  133.7260 C   0  0  0  0  0  0  0  0  0  0  0  0
  144.6160  161.3620  133.8920 C   0  0  0  0  0  0  0  0  0  0  0  0
  145.9410  160.9110  133.7830 C   0  0  0  0  0  0  0  0  0  0  0  0
  146.2200  159.5440  133.5330 C   0  0  0  0  0  0  0  0  0  0  0  0
  147.6410  159.0800  133.3880 C   0  0  0  0  0  0  0  0  0  0  0  0
  148.2070  159.5980  132.1470 N   0  0  0  0  0  0  0  0  0  0  0  0
  148.9520  158.9060  131.2640 C   0  0  0  0  0  0  0  0  0  0  0  0
  149.3640  159.7720  130.2680 C   0  0  0  0  0  0  0  0  0  0  0  0
  148.8350  161.0000  130.6200 C   0  0  0  0  0  0  0  0  0  0  0  0
  148.1450  160.8630  131.7660 N   0  0  0  0  0  0  0  0  0  0  0  0
  145.1580  158.6310  133.3580 C   0  0  0  0  0  0  0  0  0  0  0  0
  143.8460  159.1110  133.4520 C   0  0  0  0  0  0  0  0  0  0  0  0
  141.6926  156.5677  140.3845 H   0  0  0  0  0  0  0  0  0  0  0  0
  142.9548  157.0775  139.2124 H   0  0  0  0  0  0  0  0  0  0  0  0
  141.3503  157.8851  139.2124 H   0  0  0  0  0  0  0  0  0  0  0  0
  142.9120  154.5062  138.9402 H   0  0  0  0  0  0  0  0  0  0  0  0
  142.0600  154.0615  137.4225 H   0  0  0  0  0  0  0  0  0  0  0  0
  143.2525  155.4049  137.4225 H   0  0  0  0  0  0  0  0  0  0  0  0
  140.2415  155.1841  140.0734 H   0  0  0  0  0  0  0  0  0  0  0  0
  139.2225  155.6001  138.6537 H   0  0  0  0  0  0  0  0  0  0  0  0
  140.1872  154.0848  138.6537 H   0  0  0  0  0  0  0  0  0  0  0  0
  142.0884  154.7867  134.7775 H   0  0  0  0  0  0  0  0  0  0  0  0
  140.3522  155.2079  134.9759 H   0  0  0  0  0  0  0  0  0  0  0  0
  140.0680  157.4820  134.9130 H   0  0  0  0  0  0  0  0  0  0  0  0
  141.6804  161.5209  134.0116 H   0  0  0  0  0  0  0  0  0  0  0  0
  144.3915  162.4182  134.1019 H   0  0  0  0  0  0  0  0  0  0  0  0
  146.7704  161.6252  133.8926 H   0  0  0  0  0  0  0  0  0  0  0  0
  148.2331  159.4458  134.2398 H   0  0  0  0  0  0  0  0  0  0  0  0
  147.6630  157.9805  133.3655 H   0  0  0  0  0  0  0  0  0  0  0  0
  149.1919  157.8342  131.3248 H   0  0  0  0  0  0  0  0  0  0  0  0
  149.9789  159.5354  129.3871 H   0  0  0  0  0  0  0  0  0  0  0  0
  148.9584  161.9358  130.0551 H   0  0  0  0  0  0  0  0  0  0  0  0
  147.6510  161.6230  132.2850 H   0  0  0  0  0  0  0  0  0  0  0  0
  145.3561  157.5686  133.1528 H   0  0  0  0  0  0  0  0  0  0  0  0
  1  2  1  0
  2  3  1  0
  2  4  1  0
  2  5  1  0
  5  6  2  0
  5  7  1  0
  7  8  1  0
  8  9  1  0
  9 10  1  0
 10 11  2  0
 10 12  1  0
 12 13  1  0
 13 14  1  0
 14 15  1  0
 14 16  2  0
 13 17  2  0
 17 18  1  0
 18 19  2  0
 19 20  1  0
 20 21  2  0
 21 22  1  0
 22 23  1  0
 23 24  1  0
 24 25  2  0
 25 26  1  0
 26 27  2  0
 21 28  1  0
 28 29  2  0
 29 12  1  0
 29 18  1  0
 27 23  1  0
  1 30  1  0
  1 31  1  0
  1 32  1  0
  3 33  1  0
  3 34  1  0
  3 35  1  0
  4 36  1  0
  4 37  1  0
  4 38  1  0
  8 39  1  0
  8 40  1  0
 15 41  1  0
 17 42  1  0
 19 43  1  0
 20 44  1  0
 22 45  1  0
 22 46  1  0
 24 47  1  0
 25 48  1  0
 26 49  1  0
 27 50  1  0
 28 51  1  0
M  CHG  2  15  -1  27   1
M  END
>  <UniqueID>  (41) 
41

>  <SMILES>  (41) 
CC(C)(C)C(=O)OCOC(=O)n1c(C([NH-])=O)cc2ccc(Cn3ccc[nH+]3)cc21

>  <Energy>  (41) 
111.91522616932225

>  <Genealogy>  (41) 
CC(C)(C)C(=O)OCOC(=O)n1c(C([NH-])=O)cc2ccc(Cn3ccc[nH+]3)cc21 (protonated)
CC(C)(C)C(=O)OCOC(=O)n1c(C([NH-])=O)cc2ccc(Cn3ccc[nH+]3)cc21 (3D coordinates assigned)
CC(C)(C)C(=O)OCOC(=O)n1c(C([NH-])=O)cc2ccc(Cn3ccc[nH+]3)cc21 (optimized conformer: 111.91522616932225 kcal/mol)

>  <smiles>  (41) 
CC(C)(C)C(=O)OCOC(=O)n1c(C(N)=O)cc2ccc(Cn3cccn3)cc21

>  <score_type>  (41) 
oracle

>  <origin>  (41) 
adg

>  <m_score__min__energy>  (41) 
-7.6100000000000003

>  <m_primary>  (41) 
energy

$$$$
41:0
     RDKit          3D

 40 41  0  0  0  0  0  0  0  0999 V2000
  149.0690  159.0340  129.9920 C   0  0  0  0  0  0  0  0  0  0  0  0
  149.6400  159.9290  131.0150 N   0  0  0  0  0  0  0  0  0  0  0  0
  149.2220  161.3130  130.7390 C   0  0  0  0  0  0  0  0  0  0  0  0
  149.2060  159.5270  132.3720 C   0  0  0  0  0  0  0  0  0  0  0  0
  147.9620  158.6300  132.3000 C   0  0  0  0  0  0  0  0  0  0  0  0
  146.8480  159.2250  133.0540 N   0  0  0  0  0  0  0  0  0  0  0  0
  146.9020  160.6500  133.3920 C   0  0  0  0  0  0  0  0  0  0  0  0
  145.6490  158.4640  133.3190 C   0  0  0  0  0  0  0  0  0  0  0  0
  145.6370  157.0570  133.1380 C   0  0  0  0  0  0  0  0  0  0  0  0
  144.4680  156.3130  133.3650 C   0  0  0  0  0  0  0  0  0  0  0  0
  143.3300  156.9970  133.7770 C   0  0  0  0  0  0  0  0  0  0  0  0
  142.0620  156.5280  134.0350 C   0  0  0  0  0  0  0  0  0  0  0  0
  141.3180  157.6510  134.3910 C   0  0  0  0  0  0  0  0  0  0  0  0
  139.9100  157.5850  134.8360 C   0  0  0  0  0  0  0  0  0  0  0  0
  139.5300  158.0340  136.1340 N   0  0  0  0  0  0  0  0  0  0  0  0
  139.0400  157.0790  134.0780 O   0  0  0  0  0  0  0  0  0  0  0  0
  142.0940  158.7720  134.3470 N   0  0  0  0  0  0  0  0  0  0  0  0
  141.6800  160.1330  134.5470 C   0  0  0  0  0  0  0  0  0  0  0  0
  141.9230  161.0060  133.6730 O   0  0  0  0  0  0  0  0  0  0  0  0
  140.9820  160.4940  135.6930 O   0  0  0  0  0  0  0  0  0  0  0  0
  143.3230  158.3530  133.9730 C   0  0  0  0  0  0  0  0  0  0  0  0
  144.4690  159.1210  133.7390 C   0  0  0  0  0  0  0  0  0  0  0  0
  148.5399  158.2047  130.4844 H   0  0  0  0  0  0  0  0  0  0  0  0
  148.3633  159.5978  129.3642 H   0  0  0  0  0  0  0  0  0  0  0  0
  149.8777  158.6317  129.3642 H   0  0  0  0  0  0  0  0  0  0  0  0
  149.0616  161.8439  131.6889 H   0  0  0  0  0  0  0  0  0  0  0  0
  150.0058  161.8244  130.1609 H   0  0  0  0  0  0  0  0  0  0  0  0
  148.2862  161.3050  130.1609 H   0  0  0  0  0  0  0  0  0  0  0  0
  150.0211  158.9753  132.8632 H   0  0  0  0  0  0  0  0  0  0  0  0
  148.9572  160.4315  132.9464 H   0  0  0  0  0  0  0  0  0  0  0  0
  147.6632  158.5107  131.2481 H   0  0  0  0  0  0  0  0  0  0  0  0
  148.2051  157.6520  132.7408 H   0  0  0  0  0  0  0  0  0  0  0  0
  146.9064  160.7675  134.4857 H   0  0  0  0  0  0  0  0  0  0  0  0
  147.8175  161.0920  132.9720 H   0  0  0  0  0  0  0  0  0  0  0  0
  146.0225  161.1600  132.9720 H   0  0  0  0  0  0  0  0  0  0  0  0
  146.5545  156.5427  132.8160 H   0  0  0  0  0  0  0  0  0  0  0  0
  144.4531  155.2225  133.2213 H   0  0  0  0  0  0  0  0  0  0  0  0
  141.7106  155.4875  133.9733 H   0  0  0  0  0  0  0  0  0  0  0  0
  139.4740  159.0520  136.3550 H   0  0  0  0  0  0  0  0  0  0  0  0
  144.4525  160.2120  133.8786 H   0  0  0  0  0  0  0  0  0  0  0  0
  1  2  1  0
  2  3  1  0
  2  4  1  0
  4  5  1  0
  5  6  1  0
  6  7  1  0
  6  8  1  0
  8  9  2  0
  9 10  1  0
 10 11  2  0
 11 12  1  0
 12 13  2  0
 13 14  1  0
 14 15  1  0
 14 16  2  0
 13 17  1  0
 17 18  1  0
 18 19  2  0
 18 20  1  0
 17 21  1  0
 21 22  2  0
 22  8  1  0
 21 11  1  0
  1 23  1  0
  1 24  1  0
  1 25  1  0
  3 26  1  0
  3 27  1  0
  3 28  1  0
  4 29  1  0
  4 30  1  0
  5 31  1  0
  5 32  1  0
  7 33  1  0
  7 34  1  0
  7 35  1  0
  9 36  1  0
 10 37  1  0
 12 38  1  0
 15 39  1  0
 22 40  1  0
M  CHG  2  15  -1  20  -1
M  END
>  <UniqueID>  (42) 
42

>  <SMILES>  (42) 
CN(C)CCN(C)c1ccc2cc(C([NH-])=O)n(C(=O)[O-])c2c1

>  <Energy>  (42) 
80.72164047317787

>  <Genealogy>  (42) 
CN(C)CCN(C)c1ccc2cc(C([NH-])=O)n(C(=O)[O-])c2c1 (protonated)
CN(C)CCN(C)c1ccc2cc(C([NH-])=O)n(C(=O)[O-])c2c1 (3D coordinates assigned)
CN(C)CCN(C)c1ccc2cc(C([NH-])=O)n(C(=O)[O-])c2c1 (optimized conformer: 80.72164047317787 kcal/mol)

>  <smiles>  (42) 
CN(C)CCN(C)c1ccc2cc(C(N)=O)n(C(=O)O)c2c1

>  <score_type>  (42) 
oracle

>  <origin>  (42) 
adg

>  <m_score__min__energy>  (42) 
-6.4800000000000004

>  <m_primary>  (42) 
energy

$$$$
42:0
     RDKit          3D

 38 39  0  0  0  0  0  0  0  0999 V2000
  138.5900  160.4860  130.6160 C   0  0  0  0  0  0  0  0  0  0  0  0
  138.5840  159.2520  131.5100 C   0  0  0  0  0  0  0  0  0  0  0  0
  139.8840  158.6700  131.5690 O   0  0  0  0  0  0  0  0  0  0  0  0
  140.7160  158.7560  132.6910 C   0  0  0  0  0  0  0  0  0  0  0  0
  140.7340  159.7960  133.4040 O   0  0  0  0  0  0  0  0  0  0  0  0
  141.5740  157.5900  133.0620 C   0  0  0  0  0  0  0  0  0  0  0  0
  142.9410  157.8670  132.7650 O   0  0  0  0  0  0  0  0  0  0  0  0
  143.9650  157.7970  133.7170 C   0  0  0  0  0  0  0  0  0  0  0  0
  143.8100  157.1170  134.7690 O   0  0  0  0  0  0  0  0  0  0  0  0
  145.2000  158.4930  133.4900 N   0  0  0  0  0  0  0  0  0  0  0  0
  145.4300  159.8340  133.5820 C   0  0  0  0  0  0  0  0  0  0  0  0
  144.3950  160.8690  133.7990 C   0  0  0  0  0  0  0  0  0  0  0  0
  143.0540  160.6660  133.3530 N   0  0  0  0  0  0  0  0  0  0  0  0
  144.6830  161.9320  134.4110 O   0  0  0  0  0  0  0  0  0  0  0  0
  146.7740  160.1150  133.3410 C   0  0  0  0  0  0  0  0  0  0  0  0
  147.3640  158.8960  133.0940 C   0  0  0  0  0  0  0  0  0  0  0  0
  148.6900  158.5860  132.8080 C   0  0  0  0  0  0  0  0  0  0  0  0
  149.0250  157.2340  132.6240 C   0  0  0  0  0  0  0  0  0  0  0  0
  148.0350  156.2250  132.7250 C   0  0  0  0  0  0  0  0  0  0  0  0
  148.4180  154.7820  132.5800 C   0  0  0  0  0  0  0  0  0  0  0  0
  149.7720  154.6890  132.3220 F   0  0  0  0  0  0  0  0  0  0  0  0
  146.7030  156.5770  133.0290 C   0  0  0  0  0  0  0  0  0  0  0  0
  146.3930  157.9330  133.1880 C   0  0  0  0  0  0  0  0  0  0  0  0
  138.5944  161.3914  131.2407 H   0  0  0  0  0  0  0  0  0  0  0  0
  139.4881  160.4743  129.9810 H   0  0  0  0  0  0  0  0  0  0  0  0
  137.6918  160.4831  129.9810 H   0  0  0  0  0  0  0  0  0  0  0  0
  138.2710  159.5415  132.5240 H   0  0  0  0  0  0  0  0  0  0  0  0
  137.8833  158.5142  131.0921 H   0  0  0  0  0  0  0  0  0  0  0  0
  141.4698  157.3908  134.1388 H   0  0  0  0  0  0  0  0  0  0  0  0
  141.2531  156.7112  132.4834 H   0  0  0  0  0  0  0  0  0  0  0  0
  142.7900  159.8290  132.7880 H   0  0  0  0  0  0  0  0  0  0  0  0
  142.3230  161.3840  133.5520 H   0  0  0  0  0  0  0  0  0  0  0  0
  147.2601  161.1018  133.3470 H   0  0  0  0  0  0  0  0  0  0  0  0
  149.4523  159.3750  132.7284 H   0  0  0  0  0  0  0  0  0  0  0  0
  150.0653  156.9561  132.3994 H   0  0  0  0  0  0  0  0  0  0  0  0
  148.1844  154.2452  133.5113 H   0  0  0  0  0  0  0  0  0  0  0  0
  147.8544  154.3347  131.7479 H   0  0  0  0  0  0  0  0  0  0  0  0
  145.9271  155.8050  133.1384 H   0  0  0  0  0  0  0  0  0  0  0  0
  1  2  1  0
  2  3  1  0
  3  4  1  0
  4  5  2  0
  4  6  1  0
  6  7  1  0
  7  8  1  0
  8  9  2  0
  8 10  1  0
 10 11  1  0
 11 12  1  0
 12 13  1  0
 12 14  2  0
 11 15  2  0
 15 16  1  0
 16 17  2  0
 17 18  1  0
 18 19  2  0
 19 20  1  0
 20 21  1  0
 19 22  1  0
 22 23  2  0
 23 10  1  0
 23 16  1  0
  1 24  1  0
  1 25  1  0
  1 26  1  0
  2 27  1  0
  2 28  1  0
  6 29  1  0
  6 30  1  0
 13 31  1  0
 13 32  1  0
 15 33  1  0
 17 34  1  0
 18 35  1  0
 20 36  1  0
 20 37  1  0
 22 38  1  0
M  END
>  <UniqueID>  (43) 
43

>  <SMILES>  (43) 
CCOC(=O)COC(=O)n1c(C(N)=O)cc2ccc(CF)cc21

>  <Energy>  (43) 
68.60126952996389

>  <Genealogy>  (43) 
CCOC(=O)COC(=O)n1c(C(N)=O)cc2ccc(CF)cc21 (3D coordinates assigned)
CCOC(=O)COC(=O)n1c(C(N)=O)cc2ccc(CF)cc21 (optimized conformer: 68.60126952996389 kcal/mol)

>  <smiles>  (43) 
CCOC(=O)COC(=O)n1c(C(N)=O)cc2ccc(CF)cc21

>  <score_type>  (43) 
oracle

>  <origin>  (43) 
adg

>  <m_score__min__energy>  (43) 
-5.6900000000000004

>  <m_primary>  (43) 
energy

$$$$
43:0
     RDKit          3D

 36 37  0  0  0  0  0  0  0  0999 V2000
  140.9720  159.3620  136.7180 C   0  0  0  0  0  0  0  0  0  0  0  0
  141.1110  158.2220  136.0330 C   0  0  0  0  0  0  0  0  0  0  0  0
  141.5450  158.1990  134.5900 C   0  0  1  0  0  0  0  0  0  0  0  0
  140.6030  159.0610  133.7340 C   0  0  0  0  0  0  0  0  0  0  0  0
  141.1270  159.2350  132.4440 O   0  0  0  0  0  0  0  0  0  0  0  0
  142.8890  158.6780  134.5000 O   0  0  0  0  0  0  0  0  0  0  0  0
  143.7490  158.4030  133.4310 C   0  0  0  0  0  0  0  0  0  0  0  0
  143.3910  157.6220  132.5070 O   0  0  0  0  0  0  0  0  0  0  0  0
  145.0370  159.0350  133.3790 N   0  0  0  0  0  0  0  0  0  0  0  0
  145.3350  160.3530  133.5680 C   0  0  0  0  0  0  0  0  0  0  0  0
  144.3590  161.4500  133.7360 C   0  0  0  0  0  0  0  0  0  0  0  0
  142.9730  161.2070  133.5040 N   0  0  0  0  0  0  0  0  0  0  0  0
  144.7280  162.5910  134.1190 O   0  0  0  0  0  0  0  0  0  0  0  0
  146.7130  160.5550  133.5010 C   0  0  0  0  0  0  0  0  0  0  0  0
  147.2530  159.3140  133.2550 C   0  0  0  0  0  0  0  0  0  0  0  0
  148.5830  158.9290  133.1110 C   0  0  0  0  0  0  0  0  0  0  0  0
  148.8550  157.5670  132.8950 C   0  0  0  0  0  0  0  0  0  0  0  0
  147.8000  156.6250  132.8210 C   0  0  0  0  0  0  0  0  0  0  0  0
  148.1060  155.1680  132.6420 C   0  0  0  0  0  0  0  0  0  0  0  0
  146.4640  157.0490  132.9890 C   0  0  0  0  0  0  0  0  0  0  0  0
  146.2210  158.4140  133.1850 C   0  0  0  0  0  0  0  0  0  0  0  0
  140.6529  159.3359  137.7704 H   0  0  0  0  0  0  0  0  0  0  0  0
  141.1767  160.3259  136.2291 H   0  0  0  0  0  0  0  0  0  0  0  0
  140.9014  157.2686  136.5400 H   0  0  0  0  0  0  0  0  0  0  0  0
  141.5005  157.1684  134.2080 H   0  0  0  0  0  0  0  0  0  0  0  0
  139.6240  158.5645  133.6624 H   0  0  0  0  0  0  0  0  0  0  0  0
  140.4961  160.0474  134.2089 H   0  0  0  0  0  0  0  0  0  0  0  0
  142.1060  159.3640  132.5450 H   0  0  0  0  0  0  0  0  0  0  0  0
  142.6480  160.3030  133.0930 H   0  0  0  0  0  0  0  0  0  0  0  0
  147.2538  161.5055  133.6197 H   0  0  0  0  0  0  0  0  0  0  0  0
  149.3961  159.6679  133.1646 H   0  0  0  0  0  0  0  0  0  0  0  0
  149.8960  157.2299  132.7825 H   0  0  0  0  0  0  0  0  0  0  0  0
  148.2063  154.6906  133.6279 H   0  0  0  0  0  0  0  0  0  0  0  0
  147.2891  154.6877  132.0834 H   0  0  0  0  0  0  0  0  0  0  0  0
  149.0471  155.0569  132.0834 H   0  0  0  0  0  0  0  0  0  0  0  0
  145.6354  156.3259  132.9665 H   0  0  0  0  0  0  0  0  0  0  0  0
  1  2  2  0
  2  3  1  0
  3  4  1  0
  4  5  1  0
  3  6  1  0
  6  7  1  0
  7  8  2  0
  7  9  1  0
  9 10  1  0
 10 11  1  0
 11 12  1  0
 11 13  2  0
 10 14  2  0
 14 15  1  0
 15 16  2  0
 16 17  1  0
 17 18  2  0
 18 19  1  0
 18 20  1  0
 20 21  2  0
 21  9  1  0
 21 15  1  0
  1 22  1  0
  1 23  1  0
  2 24  1  0
  3 25  1  6
  4 26  1  0
  4 27  1  0
  5 28  1  0
 12 29  1  0
 14 30  1  0
 16 31  1  0
 17 32  1  0
 19 33  1  0
 19 34  1  0
 19 35  1  0
 20 36  1  0
M  CHG  1  12  -1
M  END
>  <UniqueID>  (44) 
44

>  <SMILES>  (44) 
C=C[C@@H](CO)OC(=O)n1c(C([NH-])=O)cc2ccc(C)cc21

>  <Energy>  (44) 
69.0261663476009

>  <Genealogy>  (44) 
C=CC(CO)OC(=O)n1c(C([NH-])=O)cc2ccc(C)cc21 (protonated)
C=C[C@@H](CO)OC(=O)n1c(C([NH-])=O)cc2ccc(C)cc21 (chirality)
C=C[C@@H](CO)OC(=O)n1c(C([NH-])=O)cc2ccc(C)cc21 (3D coordinates assigned)
C=C[C@@H](CO)OC(=O)n1c(C([NH-])=O)cc2ccc(C)cc21 (optimized conformer: 69.0261663476009 kcal/mol)

>  <smiles>  (44) 
C=CC(CO)OC(=O)n1c(C(N)=O)cc2ccc(C)cc21

>  <score_type>  (44) 
oracle

>  <origin>  (44) 
adg

>  <m_score__min__energy>  (44) 
-6.4500000000000002

>  <m_primary>  (44) 
energy

$$$$
44:0
     RDKit          3D

 50 51  0  0  0  0  0  0  0  0999 V2000
  147.9080  153.7510  133.3270 C   0  0  0  0  0  0  0  0  0  0  0  0
  146.6880  154.3330  132.6180 C   0  0  2  0  0  0  0  0  0  0  0  0
  146.8790  155.7350  132.4220 O   0  0  0  0  0  0  0  0  0  0  0  0
  147.0810  156.6390  133.4730 C   0  0  0  0  0  0  0  0  0  0  0  0
  147.5180  156.2370  134.5860 O   0  0  0  0  0  0  0  0  0  0  0  0
  146.8080  158.0350  133.2730 N   0  0  0  0  0  0  0  0  0  0  0  0
  147.6200  158.9780  132.7160 C   0  0  0  0  0  0  0  0  0  0  0  0
  149.0310  158.7880  132.3190 C   0  0  0  0  0  0  0  0  0  0  0  0
  149.5430  157.4920  132.0260 N   0  0  0  0  0  0  0  0  0  0  0  0
  149.8070  159.7800  132.2830 O   0  0  0  0  0  0  0  0  0  0  0  0
  146.9640  160.2060  132.6470 C   0  0  0  0  0  0  0  0  0  0  0  0
  145.7210  159.9870  133.1930 C   0  0  0  0  0  0  0  0  0  0  0  0
  144.6580  160.8650  133.3800 C   0  0  0  0  0  0  0  0  0  0  0  0
  143.4820  160.3590  133.9580 C   0  0  0  0  0  0  0  0  0  0  0  0
  143.3780  158.9950  134.3300 C   0  0  0  0  0  0  0  0  0  0  0  0
  142.1440  158.5250  134.9100 N   0  0  0  0  0  0  0  0  0  0  0  0
  141.1240  159.3730  135.5300 C   0  0  0  0  0  0  0  0  0  0  0  0
  139.9960  158.5320  136.1290 C   0  0  0  0  0  0  0  0  0  0  0  0
  140.4370  157.2320  136.3970 O   0  0  0  0  0  0  0  0  0  0  0  0
  144.4810  158.1330  134.1080 C   0  0  0  0  0  0  0  0  0  0  0  0
  145.6500  158.6690  133.5590 C   0  0  0  0  0  0  0  0  0  0  0  0
  145.4400  154.0850  133.4220 C   0  0  0  0  0  0  0  0  0  0  0  0
  145.3270  153.0080  134.0680 O   0  0  0  0  0  0  0  0  0  0  0  0
  144.3860  155.0580  133.4490 N   0  0  0  0  0  0  0  0  0  0  0  0
  143.0680  154.7580  134.0180 C   0  0  1  0  0  0  0  0  0  0  0  0
  143.1520  154.6650  135.5500 C   0  0  0  0  0  0  0  0  0  0  0  0
  142.5320  155.7710  136.1490 O   0  0  0  0  0  0  0  0  0  0  0  0
  142.0860  155.8190  133.6100 C   0  0  0  0  0  0  0  0  0  0  0  0
  142.4270  156.7280  132.8060 O   0  0  0  0  0  0  0  0  0  0  0  0
  140.8040  155.8200  134.1440 O   0  0  0  0  0  0  0  0  0  0  0  0
  147.7663  153.8186  134.4157 H   0  0  0  0  0  0  0  0  0  0  0  0
  148.0318  152.6969  133.0381 H   0  0  0  0  0  0  0  0  0  0  0  0
  148.8052  154.3181  133.0381 H   0  0  0  0  0  0  0  0  0  0  0  0
  146.5704  153.8396  131.6419 H   0  0  0  0  0  0  0  0  0  0  0  0
  148.9020  156.6870  131.8500 H   0  0  0  0  0  0  0  0  0  0  0  0
  147.3572  161.1500  132.2418 H   0  0  0  0  0  0  0  0  0  0  0  0
  144.7360  161.9217  133.0847 H   0  0  0  0  0  0  0  0  0  0  0  0
  142.6280  161.0320  134.1246 H   0  0  0  0  0  0  0  0  0  0  0  0
  141.9640  157.4950  134.9130 H   0  0  0  0  0  0  0  0  0  0  0  0
  141.5898  159.9694  136.3283 H   0  0  0  0  0  0  0  0  0  0  0  0
  140.6973  160.0277  134.7558 H   0  0  0  0  0  0  0  0  0  0  0  0
  139.6563  158.9983  137.0656 H   0  0  0  0  0  0  0  0  0  0  0  0
  139.1692  158.4827  135.4052 H   0  0  0  0  0  0  0  0  0  0  0  0
  140.7640  156.8680  135.5350 H   0  0  0  0  0  0  0  0  0  0  0  0
  144.4187  157.0646  134.3623 H   0  0  0  0  0  0  0  0  0  0  0  0
  144.5450  155.9810  132.9890 H   0  0  0  0  0  0  0  0  0  0  0  0
  142.7256  153.7862  133.6328 H   0  0  0  0  0  0  0  0  0  0  0  0
  142.6499  153.7450  135.8839 H   0  0  0  0  0  0  0  0  0  0  0  0
  144.2114  154.6507  135.8456 H   0  0  0  0  0  0  0  0  0  0  0  0
  141.5750  155.7380  135.8850 H   0  0  0  0  0  0  0  0  0  0  0  0
  1  2  1  0
  2  3  1  0
  3  4  1  0
  4  5  2  0
  4  6  1  0
  6  7  1  0
  7  8  1  0
  8  9  1  0
  8 10  2  0
  7 11  2  0
 11 12  1  0
 12 13  2  0
 13 14  1  0
 14 15  2  0
 15 16  1  0
 16 17  1  0
 17 18  1  0
 18 19  1  0
 15 20  1  0
 20 21  2  0
  2 22  1  0
 22 23  2  0
 22 24  1  0
 24 25  1  0
 25 26  1  0
 26 27  1  0
 25 28  1  0
 28 29  2  0
 28 30  1  0
 21  6  1  0
 21 12  1  0
  1 31  1  0
  1 32  1  0
  1 33  1  0
  2 34  1  6
  9 35  1  0
 11 36  1  0
 13 37  1  0
 14 38  1  0
 16 39  1  0
 17 40  1  0
 17 41  1  0
 18 42  1  0
 18 43  1  0
 19 44  1  0
 20 45  1  0
 24 46  1  0
 25 47  1  6
 26 48  1  0
 26 49  1  0
 27 50  1  0
M  CHG  2   9  -1  30  -1
M  END
>  <UniqueID>  (45) 
45

>  <SMILES>  (45) 
C[C@H](OC(=O)n1c(C([NH-])=O)cc2ccc(NCCO)cc21)C(=O)N[C@@H](CO)C(=O)[O-]

>  <Energy>  (45) 
75.4553218287404

>  <Genealogy>  (45) 
CC(OC(=O)n1c(C([NH-])=O)cc2ccc(NCCO)cc21)C(=O)N[C@@H](CO)C(=O)[O-] (protonated)
C[C@H](OC(=O)n1c(C([NH-])=O)cc2ccc(NCCO)cc21)C(=O)N[C@@H](CO)C(=O)[O-] (chirality)
C[C@H](OC(=O)n1c(C([NH-])=O)cc2ccc(NCCO)cc21)C(=O)N[C@@H](CO)C(=O)[O-] (3D coordinates assigned)
C[C@H](OC(=O)n1c(C([NH-])=O)cc2ccc(NCCO)cc21)C(=O)N[C@@H](CO)C(=O)[O-] (optimized conformer: 75.4553218287404 kcal/mol)

>  <smiles>  (45) 
CC(OC(=O)n1c(C(N)=O)cc2ccc(NCCO)cc21)C(=O)N[C@@H](CO)C(=O)O

>  <score_type>  (45) 
oracle

>  <origin>  (45) 
adg

>  <m_score__min__energy>  (45) 
-6.1399999999999997

>  <m_primary>  (45) 
energy

$$$$
45:0
     RDKit          3D

 32 33  0  0  0  0  0  0  0  0999 V2000
  143.3360  161.4920  133.6480 N   0  0  0  0  0  0  0  0  0  0  0  0
  144.7400  161.5370  133.8900 C   0  0  0  0  0  0  0  0  0  0  0  0
  145.2400  162.5590  134.4340 O   0  0  0  0  0  0  0  0  0  0  0  0
  145.6050  160.3830  133.5680 C   0  0  0  0  0  0  0  0  0  0  0  0
  146.9800  160.4880  133.3690 C   0  0  0  0  0  0  0  0  0  0  0  0
  147.4210  159.1980  133.1860 C   0  0  0  0  0  0  0  0  0  0  0  0
  148.7030  158.7180  132.9330 C   0  0  0  0  0  0  0  0  0  0  0  0
  148.8650  157.3350  132.7520 C   0  0  0  0  0  0  0  0  0  0  0  0
  147.7500  156.4630  132.8180 C   0  0  0  0  0  0  0  0  0  0  0  0
  147.9250  154.9860  132.6050 C   0  0  0  0  0  0  0  0  0  0  0  0
  147.4680  154.2980  133.7140 F   0  0  0  0  0  0  0  0  0  0  0  0
  149.2630  154.6990  132.4090 F   0  0  0  0  0  0  0  0  0  0  0  0
  146.4630  156.9860  133.0720 C   0  0  0  0  0  0  0  0  0  0  0  0
  146.3340  158.3670  133.2680 C   0  0  0  0  0  0  0  0  0  0  0  0
  145.2090  159.0800  133.5000 N   0  0  0  0  0  0  0  0  0  0  0  0
  143.8680  158.5680  133.5530 C   0  0  0  0  0  0  0  0  0  0  0  0
  143.4320  157.8460  132.6150 O   0  0  0  0  0  0  0  0  0  0  0  0
  143.0440  158.8930  134.6340 O   0  0  0  0  0  0  0  0  0  0  0  0
  141.6670  158.5340  134.6960 C   0  0  1  0  0  0  0  0  0  0  0  0
  141.2430  158.5380  136.0140 F   0  0  0  0  0  0  0  0  0  0  0  0
  140.8490  159.5380  133.8940 C   0  0  0  0  0  0  0  0  0  0  0  0
  141.3810  159.6570  132.6040 O   0  0  0  0  0  0  0  0  0  0  0  0
  142.8300  160.5810  133.5880 H   0  0  0  0  0  0  0  0  0  0  0  0
  147.5844  161.4071  133.3601 H   0  0  0  0  0  0  0  0  0  0  0  0
  149.5631  159.4015  132.8766 H   0  0  0  0  0  0  0  0  0  0  0  0
  149.8668  156.9247  132.5572 H   0  0  0  0  0  0  0  0  0  0  0  0
  147.3496  154.6791  131.7191 H   0  0  0  0  0  0  0  0  0  0  0  0
  145.5842  156.3257  133.1149 H   0  0  0  0  0  0  0  0  0  0  0  0
  141.5309  157.5268  134.2752 H   0  0  0  0  0  0  0  0  0  0  0  0
  139.8068  159.1920  133.8293 H   0  0  0  0  0  0  0  0  0  0  0  0
  140.8826  160.5173  134.3937 H   0  0  0  0  0  0  0  0  0  0  0  0
  142.3620  159.7510  132.7190 H   0  0  0  0  0  0  0  0  0  0  0  0
  1  2  1  0
  2  3  2  0
  2  4  1  0
  4  5  2  0
  5  6  1  0
  6  7  2  0
  7  8  1  0
  8  9  2  0
  9 10  1  0
 10 11  1  0
 10 12  1  0
  9 13  1  0
 13 14  2  0
 14 15  1  0
 15 16  1  0
 16 17  2  0
 16 18  1  0
 18 19  1  0
 19 20  1  0
 19 21  1  0
 21 22  1  0
 15  4  1  0
 14  6  1  0
  1 23  1  0
  5 24  1  0
  7 25  1  0
  8 26  1  0
 10 27  1  0
 13 28  1  0
 19 29  1  6
 21 30  1  0
 21 31  1  0
 22 32  1  0
M  CHG  1   1  -1
M  END
>  <UniqueID>  (46) 
46

>  <SMILES>  (46) 
[NH-]C(=O)c1cc2ccc(C(F)F)cc2n1C(=O)O[C@@H](F)CO

>  <Energy>  (46) 
66.3180798301301

>  <Genealogy>  (46) 
[NH-]C(=O)c1cc2ccc(C(F)F)cc2n1C(=O)OC(F)CO (protonated)
[NH-]C(=O)c1cc2ccc(C(F)F)cc2n1C(=O)O[C@@H](F)CO (chirality)
[NH-]C(=O)c1cc2ccc(C(F)F)cc2n1C(=O)O[C@@H](F)CO (3D coordinates assigned)
[NH-]C(=O)c1cc2ccc(C(F)F)cc2n1C(=O)O[C@@H](F)CO (optimized conformer: 66.3180798301301 kcal/mol)

>  <smiles>  (46) 
NC(=O)c1cc2ccc(C(F)F)cc2n1C(=O)OC(F)CO

>  <score_type>  (46) 
oracle

>  <origin>  (46) 
adg

>  <m_score__min__energy>  (46) 
-5.3200000000000003

>  <m_primary>  (46) 
energy

$$$$
46:0
     RDKit          3D

 34 36  0  0  0  0  0  0  0  0999 V2000
  146.8350  160.6180  133.2680 N   0  0  0  0  0  0  0  0  0  0  0  0
  145.7740  159.6610  133.2970 C   0  0  0  0  0  0  0  0  0  0  0  0
  144.5800  160.0640  133.2780 O   0  0  0  0  0  0  0  0  0  0  0  0
  146.0500  158.2110  133.2850 C   0  0  0  0  0  0  0  0  0  0  0  0
  145.0540  157.2420  133.3630 C   0  0  0  0  0  0  0  0  0  0  0  0
  145.7110  156.0380  133.2570 C   0  0  0  0  0  0  0  0  0  0  0  0
  145.2080  154.7410  133.2820 C   0  0  0  0  0  0  0  0  0  0  0  0
  146.1200  153.6780  133.1860 C   0  0  0  0  0  0  0  0  0  0  0  0
  147.5170  153.9230  133.0870 C   0  0  0  0  0  0  0  0  0  0  0  0
  148.4910  152.8050  132.9920 C   0  0  0  0  0  0  0  0  0  0  0  0
  149.0720  152.2300  134.1380 C   0  0  0  0  0  0  0  0  0  0  0  0
  149.9860  151.1850  133.9950 C   0  0  0  0  0  0  0  0  0  0  0  0
  150.3210  150.7210  132.7230 C   0  0  0  0  0  0  0  0  0  0  0  0
  149.7370  151.3180  131.6050 C   0  0  0  0  0  0  0  0  0  0  0  0
  150.1440  150.7660  129.9930 Cl  0  0  0  0  0  0  0  0  0  0  0  0
  148.8480  152.3340  131.7640 N   0  0  0  0  0  0  0  0  0  0  0  0
  147.9840  155.2580  133.0580 C   0  0  0  0  0  0  0  0  0  0  0  0
  147.0510  156.2990  133.1300 C   0  0  0  0  0  0  0  0  0  0  0  0
  147.2770  157.6320  133.1480 N   0  0  0  0  0  0  0  0  0  0  0  0
  148.5570  158.2860  133.1430 C   0  0  0  0  0  0  0  0  0  0  0  0
  148.9820  158.8340  134.1960 O   0  0  0  0  0  0  0  0  0  0  0  0
  149.3190  158.3060  131.9670 O   0  0  0  0  0  0  0  0  0  0  0  0
  149.3790  159.3760  131.0660 C   0  0  0  0  0  0  0  0  0  0  0  0
  149.6140  159.1910  129.8410 O   0  0  0  0  0  0  0  0  0  0  0  0
  149.1760  160.6670  131.5320 O   0  0  0  0  0  0  0  0  0  0  0  0
  147.8230  160.3210  133.1100 H   0  0  0  0  0  0  0  0  0  0  0  0
  146.6220  161.6380  133.3180 H   0  0  0  0  0  0  0  0  0  0  0  0
  143.9727  157.4042  133.4836 H   0  0  0  0  0  0  0  0  0  0  0  0
  144.1279  154.5541  133.3742 H   0  0  0  0  0  0  0  0  0  0  0  0
  145.7490  152.6424  133.1874 H   0  0  0  0  0  0  0  0  0  0  0  0
  148.8076  152.6016  135.1390 H   0  0  0  0  0  0  0  0  0  0  0  0
  150.4421  150.7274  134.8853 H   0  0  0  0  0  0  0  0  0  0  0  0
  151.0368  149.8945  132.6026 H   0  0  0  0  0  0  0  0  0  0  0  0
  149.0598  155.4739  132.9803 H   0  0  0  0  0  0  0  0  0  0  0  0
  1  2  1  0
  2  3  2  0
  2  4  1  0
  4  5  2  0
  5  6  1  0
  6  7  2  0
  7  8  1  0
  8  9  2  0
  9 10  1  0
 10 11  2  0
 11 12  1  0
 12 13  2  0
 13 14  1  0
 14 15  1  0
 14 16  2  0
  9 17  1  0
 17 18  2  0
 18 19  1  0
 19 20  1  0
 20 21  2  0
 20 22  1  0
 22 23  1  0
 23 24  2  0
 23 25  1  0
 19  4  1  0
 18  6  1  0
 16 10  1  0
  1 26  1  0
  1 27  1  0
  5 28  1  0
  7 29  1  0
  8 30  1  0
 11 31  1  0
 12 32  1  0
 13 33  1  0
 17 34  1  0
M  CHG  1  25  -1
M  END
>  <UniqueID>  (47) 
47

>  <SMILES>  (47) 
NC(=O)c1cc2ccc(-c3cccc(Cl)n3)cc2n1C(=O)OC(=O)[O-]

>  <Energy>  (47) 
81.91306702569871

>  <Genealogy>  (47) 
NC(=O)c1cc2ccc(-c3cccc(Cl)n3)cc2n1C(=O)OC(=O)[O-] (protonated)
NC(=O)c1cc2ccc(-c3cccc(Cl)n3)cc2n1C(=O)OC(=O)[O-] (3D coordinates assigned)
NC(=O)c1cc2ccc(-c3cccc(Cl)n3)cc2n1C(=O)OC(=O)[O-] (optimized conformer: 81.91306702569871 kcal/mol)

>  <smiles>  (47) 
NC(=O)c1cc2ccc(-c3cccc(Cl)n3)cc2n1C(=O)OC(=O)O

>  <score_type>  (47) 
oracle

>  <origin>  (47) 
adg

>  <m_score__min__energy>  (47) 
-8.2599999999999998

>  <m_primary>  (47) 
energy

$$$$
47:0
     RDKit          3D

 39 40  0  0  0  0  0  0  0  0999 V2000
  144.2180  153.4360  132.8450 C   0  0  0  0  0  0  0  0  0  0  0  0
  143.7210  153.5070  134.0800 C   0  0  0  0  0  0  0  0  0  0  0  0
  144.3930  154.2460  135.1660 C   0  0  0  0  0  0  0  0  0  0  0  0
  144.0440  154.0750  136.3660 O   0  0  0  0  0  0  0  0  0  0  0  0
  145.4220  155.2000  134.8590 N   0  0  0  0  0  0  0  0  0  0  0  0
  146.7720  155.0380  134.9460 C   0  0  0  0  0  0  0  0  0  0  0  0
  147.4620  153.8710  135.5310 C   0  0  0  0  0  0  0  0  0  0  0  0
  146.9790  153.2930  136.7430 N   0  0  0  0  0  0  0  0  0  0  0  0
  148.4570  153.3560  134.9530 O   0  0  0  0  0  0  0  0  0  0  0  0
  147.4320  156.1740  134.4810 C   0  0  0  0  0  0  0  0  0  0  0  0
  146.4340  157.0500  134.1150 C   0  0  0  0  0  0  0  0  0  0  0  0
  146.5150  158.3320  133.5810 C   0  0  0  0  0  0  0  0  0  0  0  0
  145.3150  158.9990  133.2770 C   0  0  0  0  0  0  0  0  0  0  0  0
  144.0590  158.3720  133.5010 C   0  0  0  0  0  0  0  0  0  0  0  0
  142.8190  159.0340  133.1860 N   0  0  0  0  0  0  0  0  0  0  0  0
  142.0020  159.7240  134.1900 C   0  0  0  0  0  0  0  0  0  0  0  0
  140.5170  159.3670  134.0570 C   0  0  0  0  0  0  0  0  0  0  0  0
  140.0850  159.3410  132.6230 C   0  0  0  0  0  0  0  0  0  0  0  0
  140.4480  158.3930  131.8720 O   0  0  0  0  0  0  0  0  0  0  0  0
  139.2830  160.4070  132.1060 N   0  0  0  0  0  0  0  0  0  0  0  0
  138.2810  160.2100  131.0710 C   0  0  0  0  0  0  0  0  0  0  0  0
  144.0220  157.0700  134.0500 C   0  0  0  0  0  0  0  0  0  0  0  0
  145.2310  156.4380  134.3550 C   0  0  0  0  0  0  0  0  0  0  0  0
  143.6810  152.8728  132.0675 H   0  0  0  0  0  0  0  0  0  0  0  0
  145.1651  153.9406  132.6034 H   0  0  0  0  0  0  0  0  0  0  0  0
  142.7725  152.9944  134.2980 H   0  0  0  0  0  0  0  0  0  0  0  0
  145.9970  153.4560  137.0600 H   0  0  0  0  0  0  0  0  0  0  0  0
  148.5182  156.3364  134.4194 H   0  0  0  0  0  0  0  0  0  0  0  0
  147.4894  158.8100  133.4018 H   0  0  0  0  0  0  0  0  0  0  0  0
  145.3485  160.0169  132.8614 H   0  0  0  0  0  0  0  0  0  0  0  0
  142.4850  159.0040  132.1950 H   0  0  0  0  0  0  0  0  0  0  0  0
  142.3497  159.4342  135.1926 H   0  0  0  0  0  0  0  0  0  0  0  0
  142.1091  160.8074  134.0329 H   0  0  0  0  0  0  0  0  0  0  0  0
  140.3470  158.3744  134.4996 H   0  0  0  0  0  0  0  0  0  0  0  0
  139.9291  160.1352  134.5807 H   0  0  0  0  0  0  0  0  0  0  0  0
  137.3039  160.0179  131.5384 H   0  0  0  0  0  0  0  0  0  0  0  0
  138.2173  161.1128  130.4458 H   0  0  0  0  0  0  0  0  0  0  0  0
  138.5638  159.3503  130.4458 H   0  0  0  0  0  0  0  0  0  0  0  0
  143.0622  156.5648  134.2334 H   0  0  0  0  0  0  0  0  0  0  0  0
  1  2  2  0
  2  3  1  0
  3  4  2  0
  3  5  1  0
  5  6  1  0
  6  7  1  0
  7  8  1  0
  7  9  2  0
  6 10  2  0
 10 11  1  0
 11 12  2  0
 12 13  1  0
 13 14  2  0
 14 15  1  0
 15 16  1  0
 16 17  1  0
 17 18  1  0
 18 19  2  0
 18 20  1  0
 20 21  1  0
 14 22  1  0
 22 23  2  0
 23  5  1  0
 23 11  1  0
  1 24  1  0
  1 25  1  0
  2 26  1  0
  8 27  1  0
 10 28  1  0
 12 29  1  0
 13 30  1  0
 15 31  1  0
 16 32  1  0
 16 33  1  0
 17 34  1  0
 17 35  1  0
 21 36  1  0
 21 37  1  0
 21 38  1  0
 22 39  1  0
M  CHG  2   8  -1  20  -1
M  END
>  <UniqueID>  (48) 
48

>  <SMILES>  (48) 
C=CC(=O)n1c(C([NH-])=O)cc2ccc(NCCC(=O)[N-]C)cc21

>  <Energy>  (48) 
71.18357150403361

>  <Genealogy>  (48) 
C=CC(=O)n1c(C([NH-])=O)cc2ccc(NCCC(=O)[N-]C)cc21 (protonated)
C=CC(=O)n1c(C([NH-])=O)cc2ccc(NCCC(=O)[N-]C)cc21 (3D coordinates assigned)
C=CC(=O)n1c(C([NH-])=O)cc2ccc(NCCC(=O)[N-]C)cc21 (optimized conformer: 71.18357150403361 kcal/mol)

>  <smiles>  (48) 
C=CC(=O)n1c(C(N)=O)cc2ccc(NCCC(=O)NC)cc21

>  <score_type>  (48) 
oracle

>  <origin>  (48) 
adg

>  <m_score__min__energy>  (48) 
-6.8300000000000001

>  <m_primary>  (48) 
energy

$$$$
48:0
     RDKit          3D

 36 37  0  0  0  0  0  0  0  0999 V2000
  145.1120  161.6240  134.1100 C   0  0  0  0  0  0  0  0  0  0  0  0
  144.8110  160.2400  133.7240 N   0  0  0  0  0  0  0  0  0  0  0  0
  143.4090  159.8460  133.5340 C   0  0  0  0  0  0  0  0  0  0  0  0
  145.8800  159.2780  133.5320 C   0  0  0  0  0  0  0  0  0  0  0  0
  147.2240  159.7110  133.3460 C   0  0  0  0  0  0  0  0  0  0  0  0
  148.2630  158.7880  133.1480 C   0  0  0  0  0  0  0  0  0  0  0  0
  147.9440  157.4360  133.1490 C   0  0  0  0  0  0  0  0  0  0  0  0
  148.7510  156.3390  132.9480 C   0  0  0  0  0  0  0  0  0  0  0  0
  147.9030  155.2390  133.0430 C   0  0  0  0  0  0  0  0  0  0  0  0
  148.3710  153.8410  132.9500 C   0  0  0  0  0  0  0  0  0  0  0  0
  147.7730  152.8070  133.7330 N   0  0  0  0  0  0  0  0  0  0  0  0
  149.3500  153.5650  132.2070 O   0  0  0  0  0  0  0  0  0  0  0  0
  146.6220  155.6380  133.2790 N   0  0  0  0  0  0  0  0  0  0  0  0
  145.4470  154.8140  133.3360 C   0  0  0  0  0  0  0  0  0  0  0  0
  144.6620  154.7720  132.3480 O   0  0  0  0  0  0  0  0  0  0  0  0
  145.1780  154.0610  134.4850 O   0  0  0  0  0  0  0  0  0  0  0  0
  145.4270  154.5330  135.8060 C   0  0  0  0  0  0  0  0  0  0  0  0
  146.8400  154.2460  136.2020 C   0  0  0  0  0  0  0  0  0  0  0  0
  147.7210  155.1390  136.1020 O   0  0  0  0  0  0  0  0  0  0  0  0
  147.1770  152.9990  136.7100 O   0  0  0  0  0  0  0  0  0  0  0  0
  146.6650  156.9880  133.3450 C   0  0  0  0  0  0  0  0  0  0  0  0
  145.6050  157.8850  133.5210 C   0  0  0  0  0  0  0  0  0  0  0  0
  145.1292  161.7032  135.2070 H   0  0  0  0  0  0  0  0  0  0  0  0
  146.0938  161.9120  133.7061 H   0  0  0  0  0  0  0  0  0  0  0  0
  144.3385  162.2938  133.7061 H   0  0  0  0  0  0  0  0  0  0  0  0
  142.9298  159.7113  134.5149 H   0  0  0  0  0  0  0  0  0  0  0  0
  142.8806  160.6304  132.9724 H   0  0  0  0  0  0  0  0  0  0  0  0
  143.3665  158.9011  132.9724 H   0  0  0  0  0  0  0  0  0  0  0  0
  147.4518  160.7871  133.3577 H   0  0  0  0  0  0  0  0  0  0  0  0
  149.2990  159.1253  132.9965 H   0  0  0  0  0  0  0  0  0  0  0  0
  149.8337  156.3329  132.7539 H   0  0  0  0  0  0  0  0  0  0  0  0
  148.0880  151.8180  133.6220 H   0  0  0  0  0  0  0  0  0  0  0  0
  147.0810  153.0280  134.4820 H   0  0  0  0  0  0  0  0  0  0  0  0
  145.2534  155.6186  135.8422 H   0  0  0  0  0  0  0  0  0  0  0  0
  144.7487  154.0194  136.5032 H   0  0  0  0  0  0  0  0  0  0  0  0
  144.5763  157.5170  133.6486 H   0  0  0  0  0  0  0  0  0  0  0  0
  1  2  1  0
  2  3  1  0
  2  4  1  0
  4  5  2  0
  5  6  1  0
  6  7  2  0
  7  8  1  0
  8  9  2  0
  9 10  1  0
 10 11  1  0
 10 12  2  0
  9 13  1  0
 13 14  1  0
 14 15  2  0
 14 16  1  0
 16 17  1  0
 17 18  1  0
 18 19  2  0
 18 20  1  0
 13 21  1  0
 21 22  2  0
 22  4  1  0
 21  7  1  0
  1 23  1  0
  1 24  1  0
  1 25  1  0
  3 26  1  0
  3 27  1  0
  3 28  1  0
  5 29  1  0
  6 30  1  0
  8 31  1  0
 11 32  1  0
 11 33  1  0
 17 34  1  0
 17 35  1  0
 22 36  1  0
M  CHG  1  20  -1
M  END
>  <UniqueID>  (49) 
49

>  <SMILES>  (49) 
CN(C)c1ccc2cc(C(N)=O)n(C(=O)OCC(=O)[O-])c2c1

>  <Energy>  (49) 
74.5076499199145

>  <Genealogy>  (49) 
CN(C)c1ccc2cc(C(N)=O)n(C(=O)OCC(=O)[O-])c2c1 (protonated)
CN(C)c1ccc2cc(C(N)=O)n(C(=O)OCC(=O)[O-])c2c1 (3D coordinates assigned)
CN(C)c1ccc2cc(C(N)=O)n(C(=O)OCC(=O)[O-])c2c1 (optimized conformer: 74.5076499199145 kcal/mol)

>  <smiles>  (49) 
CN(C)c1ccc2cc(C(N)=O)n(C(=O)OCC(=O)O)c2c1

>  <score_type>  (49) 
oracle

>  <origin>  (49) 
adg

>  <m_score__min__energy>  (49) 
-6.2800000000000002

>  <m_primary>  (49) 
energy

$$$$
49:0
     RDKit          3D

 55 57  0  0  0  0  0  0  0  0999 V2000
  140.6740  154.3970  133.2760 C   0  0  0  0  0  0  0  0  0  0  0  0
  139.5750  155.4050  132.9760 C   0  0  0  0  0  0  0  0  0  0  0  0
  139.8580  156.6290  133.6420 O   0  0  0  0  0  0  0  0  0  0  0  0
  139.5490  157.8780  133.0980 C   0  0  0  0  0  0  0  0  0  0  0  0
  138.4010  158.3800  133.2460 O   0  0  0  0  0  0  0  0  0  0  0  0
  140.5880  158.6110  132.3100 C   0  0  0  0  0  0  0  0  0  0  0  0
  141.8720  158.4810  132.9140 O   0  0  0  0  0  0  0  0  0  0  0  0
  142.1100  158.6920  134.2780 C   0  0  0  0  0  0  0  0  0  0  0  0
  142.4080  159.8420  134.6990 O   0  0  0  0  0  0  0  0  0  0  0  0
  142.0370  157.5880  135.1950 N   0  0  0  0  0  0  0  0  0  0  0  0
  141.1980  157.4400  136.2600 C   0  0  0  0  0  0  0  0  0  0  0  0
  140.0750  158.3420  136.6000 C   0  0  0  0  0  0  0  0  0  0  0  0
  138.8240  158.2400  135.9170 N   0  0  0  0  0  0  0  0  0  0  0  0
  140.2230  159.2330  137.4760 O   0  0  0  0  0  0  0  0  0  0  0  0
  141.4830  156.2610  136.9460 C   0  0  0  0  0  0  0  0  0  0  0  0
  142.5290  155.6850  136.2630 C   0  0  0  0  0  0  0  0  0  0  0  0
  143.2160  154.5020  136.5140 C   0  0  0  0  0  0  0  0  0  0  0  0
  144.2740  154.1600  135.6560 C   0  0  0  0  0  0  0  0  0  0  0  0
  144.6290  155.0060  134.5760 C   0  0  0  0  0  0  0  0  0  0  0  0
  145.7210  154.6480  133.7130 N   0  0  0  0  0  0  0  0  0  0  0  0
  145.5620  153.5680  132.7350 C   0  0  0  0  0  0  0  0  0  0  0  0
  146.7890  152.6550  132.7650 C   0  0  0  0  0  0  0  0  0  0  0  0
  148.0470  153.4240  132.7270 N   0  0  0  0  0  0  0  0  0  0  0  0
  149.3080  152.7480  132.5210 C   0  0  0  0  0  0  0  0  0  0  0  0
  150.3440  153.4120  132.2470 O   0  0  0  0  0  0  0  0  0  0  0  0
  149.4240  151.2500  132.5920 C   0  0  0  0  0  0  0  0  0  0  0  0
  150.6840  150.8360  132.1410 O   0  0  0  0  0  0  0  0  0  0  0  0
  148.0050  154.8960  132.7590 C   0  0  0  0  0  0  0  0  0  0  0  0
  146.9860  155.3910  133.7930 C   0  0  0  0  0  0  0  0  0  0  0  0
  143.9100  156.1990  134.3540 C   0  0  0  0  0  0  0  0  0  0  0  0
  142.8460  156.5050  135.2120 C   0  0  0  0  0  0  0  0  0  0  0  0
  140.7882  154.2923  134.3650 H   0  0  0  0  0  0  0  0  0  0  0  0
  140.4072  153.4230  132.8400 H   0  0  0  0  0  0  0  0  0  0  0  0
  141.6214  154.7468  132.8400 H   0  0  0  0  0  0  0  0  0  0  0  0
  139.5254  155.5810  131.8913 H   0  0  0  0  0  0  0  0  0  0  0  0
  138.6105  155.0108  133.3287 H   0  0  0  0  0  0  0  0  0  0  0  0
  140.6258  158.1970  131.2916 H   0  0  0  0  0  0  0  0  0  0  0  0
  140.3197  159.6774  132.2823 H   0  0  0  0  0  0  0  0  0  0  0  0
  138.6500  157.4910  135.2120 H   0  0  0  0  0  0  0  0  0  0  0  0
  138.0390  158.8830  136.1620 H   0  0  0  0  0  0  0  0  0  0  0  0
  140.9786  155.8732  137.8433 H   0  0  0  0  0  0  0  0  0  0  0  0
  142.9392  153.8541  137.3587 H   0  0  0  0  0  0  0  0  0  0  0  0
  144.8321  153.2271  135.8238 H   0  0  0  0  0  0  0  0  0  0  0  0
  144.6647  152.9815  132.9816 H   0  0  0  0  0  0  0  0  0  0  0  0
  145.4573  154.0018  131.7296 H   0  0  0  0  0  0  0  0  0  0  0  0
  146.7652  152.0573  133.6881 H   0  0  0  0  0  0  0  0  0  0  0  0
  146.7563  152.0101  131.8745 H   0  0  0  0  0  0  0  0  0  0  0  0
  149.2871  150.9248  133.6339 H   0  0  0  0  0  0  0  0  0  0  0  0
  148.6505  150.8014  131.9513 H   0  0  0  0  0  0  0  0  0  0  0  0
  151.1840  151.6580  131.8970 H   0  0  0  0  0  0  0  0  0  0  0  0
  149.0017  155.2793  133.0232 H   0  0  0  0  0  0  0  0  0  0  0  0
  147.7044  155.2612  131.7659 H   0  0  0  0  0  0  0  0  0  0  0  0
  147.4103  155.2639  134.7999 H   0  0  0  0  0  0  0  0  0  0  0  0
  146.7739  156.4498  133.5835 H   0  0  0  0  0  0  0  0  0  0  0  0
  144.1784  156.8728  133.5270 H   0  0  0  0  0  0  0  0  0  0  0  0
  1  2  1  0
  2  3  1  0
  3  4  1  0
  4  5  2  0
  4  6  1  0
  6  7  1  0
  7  8  1  0
  8  9  2  0
  8 10  1  0
 10 11  1  0
 11 12  1  0
 12 13  1  0
 12 14  2  0
 11 15  2  0
 15 16  1  0
 16 17  2  0
 17 18  1  0
 18 19  2  0
 19 20  1  0
 20 21  1  0
 21 22  1  0
 22 23  1  0
 23 24  1  0
 24 25  2  0
 24 26  1  0
 26 27  1  0
 23 28  1  0
 28 29  1  0
 19 30  1  0
 30 31  2  0
 31 10  1  0
 31 16  1  0
 29 20  1  0
  1 32  1  0
  1 33  1  0
  1 34  1  0
  2 35  1  0
  2 36  1  0
  6 37  1  0
  6 38  1  0
 13 39  1  0
 13 40  1  0
 15 41  1  0
 17 42  1  0
 18 43  1  0
 21 44  1  0
 21 45  1  0
 22 46  1  0
 22 47  1  0
 26 48  1  0
 26 49  1  0
 27 50  1  0
 28 51  1  0
 28 52  1  0
 29 53  1  0
 29 54  1  0
 30 55  1  0
M  END
>  <UniqueID>  (50) 
50

>  <SMILES>  (50) 
CCOC(=O)COC(=O)n1c(C(N)=O)cc2ccc(N3CCN(C(=O)CO)CC3)cc21

>  <Energy>  (50) 
91.02827364755682

>  <Genealogy>  (50) 
CCOC(=O)COC(=O)n1c(C(N)=O)cc2ccc(N3CCN(C(=O)CO)CC3)cc21 (3D coordinates assigned)
CCOC(=O)COC(=O)n1c(C(N)=O)cc2ccc(N3CCN(C(=O)CO)CC3)cc21 (nonaromatic ring conformer: 91.02827364755682 kcal/mol)

>  <smiles>  (50) 
CCOC(=O)COC(=O)n1c(C(N)=O)cc2ccc(N3CCN(C(=O)CO)CC3)cc21

>  <score_type>  (50) 
oracle

>  <origin>  (50) 
adg

>  <m_score__min__energy>  (50) 
-7.6600000000000001

>  <m_primary>  (50) 
energy

$$$$
50:0
     RDKit          3D

 47 50  0  0  0  0  0  0  0  0999 V2000
  137.9770  157.5050  132.3690 H   0  0  0  0  0  0  0  0  0  0  0  0
  138.4910  158.2950  131.9190 N   0  0  0  0  0  0  0  0  0  0  0  0
  139.8120  158.6390  132.3310 C   0  0  0  0  0  0  0  0  0  0  0  0
  140.6030  159.1550  131.4990 O   0  0  0  0  0  0  0  0  0  0  0  0
  140.2450  158.3650  133.7180 C   0  0  0  0  0  0  0  0  0  0  0  0
  140.6190  159.3570  134.6240 C   0  0  0  0  0  0  0  0  0  0  0  0
  140.6864  160.4390  134.4376 H   0  0  0  0  0  0  0  0  0  0  0  0
  140.8860  158.6950  135.8010 C   0  0  0  0  0  0  0  0  0  0  0  0
  141.2740  159.1890  137.0440 C   0  0  0  0  0  0  0  0  0  0  0  0
  141.4354  160.2657  137.2007 H   0  0  0  0  0  0  0  0  0  0  0  0
  141.4530  158.2700  138.0920 C   0  0  0  0  0  0  0  0  0  0  0  0
  141.7396  158.6306  139.0909 H   0  0  0  0  0  0  0  0  0  0  0  0
  141.2670  156.8810  137.8720 C   0  0  0  0  0  0  0  0  0  0  0  0
  141.3920  155.9040  139.0070 C   0  0  0  0  0  0  0  0  0  0  0  0
  142.3643  156.0413  139.5027 H   0  0  0  0  0  0  0  0  0  0  0  0
  140.5818  156.0788  139.7302 H   0  0  0  0  0  0  0  0  0  0  0  0
  141.2970  154.5410  138.4930 N   0  0  0  0  0  0  0  0  0  0  0  0
  140.3250  153.7000  138.8080 N   0  0  0  0  0  0  0  0  0  0  0  0
  140.6160  152.5160  138.2380 C   0  0  0  0  0  0  0  0  0  0  0  0
  139.9946  151.6108  138.3052 H   0  0  0  0  0  0  0  0  0  0  0  0
  141.8130  152.6100  137.5560 C   0  0  0  0  0  0  0  0  0  0  0  0
  142.3256  151.8201  136.9875 H   0  0  0  0  0  0  0  0  0  0  0  0
  142.2240  153.9130  137.7450 C   0  0  0  0  0  0  0  0  0  0  0  0
  143.1487  154.3614  137.3527 H   0  0  0  0  0  0  0  0  0  0  0  0
  140.8890  156.4180  136.5950 C   0  0  0  0  0  0  0  0  0  0  0  0
  140.7595  155.3430  136.4010 H   0  0  0  0  0  0  0  0  0  0  0  0
  140.6830  157.3580  135.5820 C   0  0  0  0  0  0  0  0  0  0  0  0
  140.2770  157.1400  134.3140 N   0  0  0  0  0  0  0  0  0  0  0  0
  139.9830  155.8660  133.7180 C   0  0  0  0  0  0  0  0  0  0  0  0
  138.8670  155.6850  133.1610 O   0  0  0  0  0  0  0  0  0  0  0  0
  140.9640  154.7620  133.7200 C   0  0  0  0  0  0  0  0  0  0  0  0
  141.9856  154.9646  134.0740 H   0  0  0  0  0  0  0  0  0  0  0  0
  140.6610  153.5260  133.3090 C   0  0  0  0  0  0  0  0  0  0  0  0
  139.6487  153.3157  132.9334 H   0  0  0  0  0  0  0  0  0  0  0  0
  141.6730  152.4220  133.3500 C   0  0  0  0  0  0  0  0  0  0  0  0
  142.1639  152.4156  134.3344 H   0  0  0  0  0  0  0  0  0  0  0  0
  142.4190  152.5897  132.5592 H   0  0  0  0  0  0  0  0  0  0  0  0
  141.0250  151.1360  133.1270 N   0  0  0  0  0  0  0  0  0  0  0  0
  140.4590  150.7740  131.9840 N   0  0  0  0  0  0  0  0  0  0  0  0
  140.0450  149.5140  132.2150 C   0  0  0  0  0  0  0  0  0  0  0  0
  139.4020  148.6370  131.1950 C   0  0  0  0  0  0  0  0  0  0  0  0
  138.8244  147.8491  131.7006 H   0  0  0  0  0  0  0  0  0  0  0  0
  138.7293  149.2385  130.5659 H   0  0  0  0  0  0  0  0  0  0  0  0
  140.1779  148.1763  130.5659 H   0  0  0  0  0  0  0  0  0  0  0  0
  140.3800  149.1230  133.4580 N   0  0  0  0  0  0  0  0  0  0  0  0
  140.2180  148.1970  133.9100 H   0  0  0  0  0  0  0  0  0  0  0  0
  140.9940  150.1530  134.0130 N   0  0  0  0  0  0  0  0  0  0  0  0
  1  2  1  0
  2  3  1  0
  3  4  2  0
  3  5  1  0
  5  6  2  0
  6  7  1  0
  6  8  1  0
  8  9  2  0
  9 10  1  0
  9 11  1  0
 11 12  1  0
 11 13  2  0
 13 14  1  0
 14 15  1  0
 14 16  1  0
 14 17  1  0
 17 18  1  0
 18 19  2  0
 19 20  1  0
 19 21  1  0
 21 22  1  0
 21 23  2  0
 23 24  1  0
 13 25  1  0
 25 26  1  0
 25 27  2  0
 27 28  1  0
 28 29  1  0
 29 30  2  0
 29 31  1  0
 31 32  1  0
 31 33  2  0
 33 34  1  0
 33 35  1  0
 35 36  1  0
 35 37  1  0
 35 38  1  0
 38 39  1  0
 39 40  2  0
 40 41  1  0
 41 42  1  0
 41 43  1  0
 41 44  1  0
 40 45  1  0
 45 46  1  0
 45 47  2  0
 28  5  1  0
 47 38  1  0
 27  8  1  0
 23 17  1  0
M  CHG  2   2  -1  45   1
M  END
>  <UniqueID>  (51) 
51

>  <SMILES>  (51) 
Cc1nn(C/C=C/C(=O)n2c(C([NH-])=O)cc3ccc(Cn4cccn4)cc32)n[nH+]1

>  <Energy>  (51) 
151.0400542985812

>  <Genealogy>  (51) 
Cc1nn(C/C=C/C(=O)n2c(C([NH-])=O)cc3ccc(Cn4cccn4)cc32)n[nH+]1 (protonated)
Cc1nn(C/C=C/C(=O)n2c(C([NH-])=O)cc3ccc(Cn4cccn4)cc32)n[nH+]1 (cis-trans isomerization)
Cc1nn(C/C=C/C(=O)n2c(C([NH-])=O)cc3ccc(Cn4cccn4)cc32)n[nH+]1 (3D coordinates assigned)
Cc1nn(C/C=C/C(=O)n2c(C([NH-])=O)cc3ccc(Cn4cccn4)cc32)n[nH+]1 (optimized conformer: 151.0400542985812 kcal/mol)

>  <smiles>  (51) 
Cc1nnn(C/C=C/C(=O)n2c(C(N)=O)cc3ccc(Cn4cccn4)cc32)n1

>  <score_type>  (51) 
oracle

>  <origin>  (51) 
adg

>  <m_score__min__energy>  (51) 
-9.3499999999999996

>  <m_primary>  (51) 
energy

$$$$
51:0
     RDKit          3D

 31 32  0  0  0  0  0  0  0  0999 V2000
  144.3260  156.7760  134.0290 N   0  0  0  0  0  0  0  0  0  0  0  0
  145.7190  156.7600  134.3320 C   0  0  0  0  0  0  0  0  0  0  0  0
  146.1460  155.9820  135.2260 O   0  0  0  0  0  0  0  0  0  0  0  0
  146.6720  157.5980  133.5760 C   0  0  0  0  0  0  0  0  0  0  0  0
  147.9290  157.1540  133.1730 C   0  0  0  0  0  0  0  0  0  0  0  0
  148.4590  158.1820  132.4270 C   0  0  0  0  0  0  0  0  0  0  0  0
  149.6930  158.2830  131.7900 C   0  0  0  0  0  0  0  0  0  0  0  0
  149.9890  159.4790  131.1140 C   0  0  0  0  0  0  0  0  0  0  0  0
  149.0570  160.5440  131.0940 C   0  0  0  0  0  0  0  0  0  0  0  0
  149.3750  161.7600  130.4130 N   0  0  0  0  0  0  0  0  0  0  0  0
  147.8160  160.4080  131.7520 C   0  0  0  0  0  0  0  0  0  0  0  0
  147.5390  159.1990  132.4020 C   0  0  0  0  0  0  0  0  0  0  0  0
  146.4370  158.8570  133.1050 N   0  0  0  0  0  0  0  0  0  0  0  0
  145.3020  159.6980  133.3630 C   0  0  0  0  0  0  0  0  0  0  0  0
  145.4690  160.8290  133.8970 O   0  0  0  0  0  0  0  0  0  0  0  0
  144.0220  159.2610  132.9950 O   0  0  0  0  0  0  0  0  0  0  0  0
  142.8330  159.5970  133.6550 C   0  0  0  0  0  0  0  0  0  0  0  0
  141.8610  160.0940  133.0220 O   0  0  0  0  0  0  0  0  0  0  0  0
  142.7510  159.3670  135.0330 O   0  0  0  0  0  0  0  0  0  0  0  0
  141.8620  158.4730  135.6490 C   0  0  0  0  0  0  0  0  0  0  0  0
  142.1100  157.2380  135.7030 O   0  0  0  0  0  0  0  0  0  0  0  0
  140.6230  158.9850  136.2390 C   0  0  0  0  0  0  0  0  0  0  0  0
  140.6070  160.1120  136.7990 O   0  0  0  0  0  0  0  0  0  0  0  0
  139.4570  158.2290  136.1840 O   0  0  0  0  0  0  0  0  0  0  0  0
  143.7230  157.5780  134.3180 H   0  0  0  0  0  0  0  0  0  0  0  0
  148.3989  156.1863  133.4024 H   0  0  0  0  0  0  0  0  0  0  0  0
  150.4138  157.4525  131.8151 H   0  0  0  0  0  0  0  0  0  0  0  0
  150.9532  159.5884  130.5960 H   0  0  0  0  0  0  0  0  0  0  0  0
  150.3540  162.1250  130.4000 H   0  0  0  0  0  0  0  0  0  0  0  0
  148.6350  162.3040  129.9170 H   0  0  0  0  0  0  0  0  0  0  0  0
  147.0853  161.2303  131.7542 H   0  0  0  0  0  0  0  0  0  0  0  0
  1  2  1  0
  2  3  2  0
  2  4  1  0
  4  5  2  0
  5  6  1  0
  6  7  2  0
  7  8  1  0
  8  9  2  0
  9 10  1  0
  9 11  1  0
 11 12  2  0
 12 13  1  0
 13 14  1  0
 14 15  2  0
 14 16  1  0
 16 17  1  0
 17 18  2  0
 17 19  1  0
 19 20  1  0
 20 21  2  0
 20 22  1  0
 22 23  2  0
 22 24  1  0
 13  4  1  0
 12  6  1  0
  1 25  1  0
  5 26  1  0
  7 27  1  0
  8 28  1  0
 10 29  1  0
 10 30  1  0
 11 31  1  0
M  CHG  2   1  -1  24  -1
M  END
>  <UniqueID>  (52) 
52

>  <SMILES>  (52) 
[NH-]C(=O)c1cc2ccc(N)cc2n1C(=O)OC(=O)OC(=O)C(=O)[O-]

>  <Energy>  (52) 
70.89370955277168

>  <Genealogy>  (52) 
[NH-]C(=O)c1cc2ccc(N)cc2n1C(=O)OC(=O)OC(=O)C(=O)[O-] (protonated)
[NH-]C(=O)c1cc2ccc(N)cc2n1C(=O)OC(=O)OC(=O)C(=O)[O-] (3D coordinates assigned)
[NH-]C(=O)c1cc2ccc(N)cc2n1C(=O)OC(=O)OC(=O)C(=O)[O-] (optimized conformer: 70.89370955277168 kcal/mol)

>  <smiles>  (52) 
NC(=O)c1cc2ccc(N)cc2n1C(=O)OC(=O)OC(=O)C(=O)O

>  <score_type>  (52) 
oracle

>  <origin>  (52) 
adg

>  <m_score__min__energy>  (52) 
-6.25

>  <m_primary>  (52) 
energy

$$$$
52:0
     RDKit          3D

 45 46  0  0  0  0  0  0  0  0999 V2000
  141.3340  159.5520  135.4740 C   0  0  0  0  0  0  0  0  0  0  0  0
  141.8760  159.7710  134.1280 N   0  0  0  0  0  0  0  0  0  0  0  0
  140.9470  160.0580  133.0270 C   0  0  0  0  0  0  0  0  0  0  0  0
  143.3070  159.7010  133.8860 C   0  0  0  0  0  0  0  0  0  0  0  0
  144.1130  160.8730  133.9570 C   0  0  0  0  0  0  0  0  0  0  0  0
  145.4990  160.8140  133.7360 C   0  0  0  0  0  0  0  0  0  0  0  0
  146.0610  159.5800  133.4370 C   0  0  0  0  0  0  0  0  0  0  0  0
  147.3740  159.2390  133.2070 C   0  0  0  0  0  0  0  0  0  0  0  0
  147.3630  157.8660  132.9720 C   0  0  0  0  0  0  0  0  0  0  0  0
  148.5660  157.0940  132.5960 C   0  0  0  0  0  0  0  0  0  0  0  0
  148.5610  155.6700  132.6210 N   0  0  0  0  0  0  0  0  0  0  0  0
  149.5960  157.7010  132.1990 O   0  0  0  0  0  0  0  0  0  0  0  0
  146.0940  157.3770  133.0620 N   0  0  0  0  0  0  0  0  0  0  0  0
  145.6760  156.0060  132.9840 C   0  0  0  0  0  0  0  0  0  0  0  0
  145.9250  155.3300  131.9490 O   0  0  0  0  0  0  0  0  0  0  0  0
  144.9720  155.4330  134.0480 O   0  0  0  0  0  0  0  0  0  0  0  0
  145.6130  154.8810  135.1920 C   0  0  0  0  0  0  0  0  0  0  0  0
  146.1840  153.6200  134.8580 O   0  0  0  0  0  0  0  0  0  0  0  0
  147.3680  153.4970  134.1270 C   0  0  0  0  0  0  0  0  0  0  0  0
  148.4810  153.7580  134.6680 O   0  0  0  0  0  0  0  0  0  0  0  0
  147.3090  153.0790  132.7480 N   0  0  0  0  0  0  0  0  0  0  0  0
  148.4720  152.2410  132.4190 C   0  0  0  0  0  0  0  0  0  0  0  0
  146.0520  152.3630  132.4820 C   0  0  0  0  0  0  0  0  0  0  0  0
  145.3090  158.4410  133.3460 C   0  0  0  0  0  0  0  0  0  0  0  0
  143.9290  158.4630  133.5810 C   0  0  0  0  0  0  0  0  0  0  0  0
  142.0806  159.8536  136.2234 H   0  0  0  0  0  0  0  0  0  0  0  0
  140.4211  160.1518  135.6037 H   0  0  0  0  0  0  0  0  0  0  0  0
  141.0940  158.4864  135.6037 H   0  0  0  0  0  0  0  0  0  0  0  0
  139.9724  160.3591  133.4387 H   0  0  0  0  0  0  0  0  0  0  0  0
  141.3516  160.8730  132.4089 H   0  0  0  0  0  0  0  0  0  0  0  0
  140.8214  159.1568  132.4089 H   0  0  0  0  0  0  0  0  0  0  0  0
  143.6427  161.8400  134.1886 H   0  0  0  0  0  0  0  0  0  0  0  0
  146.1210  161.7191  133.7980 H   0  0  0  0  0  0  0  0  0  0  0  0
  148.2469  159.9084  133.2084 H   0  0  0  0  0  0  0  0  0  0  0  0
  147.7800  155.1440  133.0740 H   0  0  0  0  0  0  0  0  0  0  0  0
  146.4059  155.5633  135.5322 H   0  0  0  0  0  0  0  0  0  0  0  0
  144.8737  154.7459  135.9952 H   0  0  0  0  0  0  0  0  0  0  0  0
  147.3360  153.9300  132.1370 H   0  0  0  0  0  0  0  0  0  0  0  0
  148.9502  151.8965  133.3478 H   0  0  0  0  0  0  0  0  0  0  0  0
  148.1428  151.3712  131.8316 H   0  0  0  0  0  0  0  0  0  0  0  0
  149.1929  152.8286  131.8316 H   0  0  0  0  0  0  0  0  0  0  0  0
  145.5757  152.0917  133.4357 H   0  0  0  0  0  0  0  0  0  0  0  0
  145.3756  153.0114  131.9057 H   0  0  0  0  0  0  0  0  0  0  0  0
  146.2647  151.4505  131.9057 H   0  0  0  0  0  0  0  0  0  0  0  0
  143.3376  157.5369  133.5300 H   0  0  0  0  0  0  0  0  0  0  0  0
  1  2  1  0
  2  3  1  0
  2  4  1  0
  4  5  2  0
  5  6  1  0
  6  7  2  0
  7  8  1  0
  8  9  2  0
  9 10  1  0
 10 11  1  0
 10 12  2  0
  9 13  1  0
 13 14  1  0
 14 15  2  0
 14 16  1  0
 16 17  1  0
 17 18  1  0
 18 19  1  0
 19 20  2  0
 19 21  1  0
 21 22  1  0
 21 23  1  0
 13 24  1  0
 24 25  2  0
 25  4  1  0
 24  7  1  0
  1 26  1  0
  1 27  1  0
  1 28  1  0
  3 29  1  0
  3 30  1  0
  3 31  1  0
  5 32  1  0
  6 33  1  0
  8 34  1  0
 11 35  1  0
 17 36  1  0
 17 37  1  0
 21 38  1  0
 22 39  1  0
 22 40  1  0
 22 41  1  0
 23 42  1  0
 23 43  1  0
 23 44  1  0
 25 45  1  0
M  CHG  2  11  -1  21   1
M  END
>  <UniqueID>  (53) 
53

>  <SMILES>  (53) 
CN(C)c1ccc2cc(C([NH-])=O)n(C(=O)OCOC(=O)[NH+](C)C)c2c1

>  <Energy>  (53) 
82.0409977614647

>  <Genealogy>  (53) 
CN(C)c1ccc2cc(C([NH-])=O)n(C(=O)OCOC(=O)[NH+](C)C)c2c1 (protonated)
CN(C)c1ccc2cc(C([NH-])=O)n(C(=O)OCOC(=O)[NH+](C)C)c2c1 (3D coordinates assigned)
CN(C)c1ccc2cc(C([NH-])=O)n(C(=O)OCOC(=O)[NH+](C)C)c2c1 (optimized conformer: 82.0409977614647 kcal/mol)

>  <smiles>  (53) 
CN(C)C(=O)OCOC(=O)n1c(C(N)=O)cc2ccc(N(C)C)cc21

>  <score_type>  (53) 
oracle

>  <origin>  (53) 
adg

>  <m_score__min__energy>  (53) 
-5.4699999999999998

>  <m_primary>  (53) 
energy

$$$$
53:0
     RDKit          3D

 36 37  0  0  0  0  0  0  0  0999 V2000
  144.7580  153.7390  132.4610 C   0  0  0  0  0  0  0  0  0  0  0  0
  146.1700  153.8190  132.3310 O   0  0  0  0  0  0  0  0  0  0  0  0
  146.8050  152.7160  132.8630 N   0  0  1  0  0  0  0  0  0  0  0  0
  146.4150  151.4500  132.2090 C   0  0  0  0  0  0  0  0  0  0  0  0
  148.2380  152.9170  132.9660 C   0  0  0  0  0  0  0  0  0  0  0  0
  149.0260  151.9300  132.9990 O   0  0  0  0  0  0  0  0  0  0  0  0
  148.8000  154.2820  132.9870 C   0  0  0  0  0  0  0  0  0  0  0  0
  149.9010  154.5160  132.4210 O   0  0  0  0  0  0  0  0  0  0  0  0
  148.1090  155.3470  133.6580 N   0  0  0  0  0  0  0  0  0  0  0  0
  147.3690  155.2680  134.7990 C   0  0  0  0  0  0  0  0  0  0  0  0
  147.0470  154.0240  135.5310 C   0  0  0  0  0  0  0  0  0  0  0  0
  145.8000  153.3710  135.3050 N   0  0  0  0  0  0  0  0  0  0  0  0
  147.8690  153.5210  136.3410 O   0  0  0  0  0  0  0  0  0  0  0  0
  146.9020  156.5290  135.1640 C   0  0  0  0  0  0  0  0  0  0  0  0
  147.3890  157.3900  134.2060 C   0  0  0  0  0  0  0  0  0  0  0  0
  147.2360  158.7660  134.0760 C   0  0  0  0  0  0  0  0  0  0  0  0
  147.8690  159.4000  132.9920 C   0  0  0  0  0  0  0  0  0  0  0  0
  148.6590  158.6560  132.0760 C   0  0  0  0  0  0  0  0  0  0  0  0
  149.2990  159.3410  130.8960 C   0  0  0  0  0  0  0  0  0  0  0  0
  148.8070  160.6290  130.7960 F   0  0  0  0  0  0  0  0  0  0  0  0
  149.0190  158.6590  129.7240 F   0  0  0  0  0  0  0  0  0  0  0  0
  150.6740  159.3930  131.0460 F   0  0  0  0  0  0  0  0  0  0  0  0
  148.7710  157.2550  132.2320 C   0  0  0  0  0  0  0  0  0  0  0  0
  148.1170  156.6510  133.3110 C   0  0  0  0  0  0  0  0  0  0  0  0
  144.4882  153.7237  133.5273 H   0  0  0  0  0  0  0  0  0  0  0  0
  144.2953  154.6124  131.9782 H   0  0  0  0  0  0  0  0  0  0  0  0
  144.3969  152.8190  131.9782 H   0  0  0  0  0  0  0  0  0  0  0  0
  146.4510  152.6390  133.8460 H   0  0  0  0  0  0  0  0  0  0  0  0
  146.1830  150.6970  132.9766 H   0  0  0  0  0  0  0  0  0  0  0  0
  145.5274  151.6196  131.5817 H   0  0  0  0  0  0  0  0  0  0  0  0
  147.2441  151.0907  131.5817 H   0  0  0  0  0  0  0  0  0  0  0  0
  145.4480  153.2100  134.3350 H   0  0  0  0  0  0  0  0  0  0  0  0
  146.2770  156.7828  136.0329 H   0  0  0  0  0  0  0  0  0  0  0  0
  146.6383  159.3408  134.7987 H   0  0  0  0  0  0  0  0  0  0  0  0
  147.7509  160.4846  132.8520 H   0  0  0  0  0  0  0  0  0  0  0  0
  149.3584  156.6545  131.5218 H   0  0  0  0  0  0  0  0  0  0  0  0
  1  2  1  0
  2  3  1  0
  3  4  1  0
  3  5  1  0
  5  6  2  0
  5  7  1  0
  7  8  2  0
  7  9  1  0
  9 10  1  0
 10 11  1  0
 11 12  1  0
 11 13  2  0
 10 14  2  0
 14 15  1  0
 15 16  2  0
 16 17  1  0
 17 18  2  0
 18 19  1  0
 19 20  1  0
 19 21  1  0
 19 22  1  0
 18 23  1  0
 23 24  2  0
 24  9  1  0
 24 15  1  0
  1 25  1  0
  1 26  1  0
  1 27  1  0
  3 28  1  1
  4 29  1  0
  4 30  1  0
  4 31  1  0
 12 32  1  0
 14 33  1  0
 16 34  1  0
 17 35  1  0
 23 36  1  0
M  CHG  2   3   1  12  -1
M  END
>  <UniqueID>  (54) 
54

>  <SMILES>  (54) 
CO[N@@H+](C)C(=O)C(=O)n1c(C([NH-])=O)cc2ccc(C(F)(F)F)cc21

>  <Energy>  (54) 
88.96059923006025

>  <Genealogy>  (54) 
CO[NH+](C)C(=O)C(=O)n1c(C([NH-])=O)cc2ccc(C(F)(F)F)cc21 (protonated)
CO[N@@H+](C)C(=O)C(=O)n1c(C([NH-])=O)cc2ccc(C(F)(F)F)cc21 (chirality)
CO[N@@H+](C)C(=O)C(=O)n1c(C([NH-])=O)cc2ccc(C(F)(F)F)cc21 (3D coordinates assigned)
CO[N@@H+](C)C(=O)C(=O)n1c(C([NH-])=O)cc2ccc(C(F)(F)F)cc21 (optimized conformer: 88.96059923006025 kcal/mol)

>  <smiles>  (54) 
CON(C)C(=O)C(=O)n1c(C(N)=O)cc2ccc(C(F)(F)F)cc21

>  <score_type>  (54) 
oracle

>  <origin>  (54) 
adg

>  <m_score__min__energy>  (54) 
-5.8300000000000001

>  <m_primary>  (54) 
energy

$$$$
54:0
     RDKit          3D

 38 39  0  0  0  0  0  0  0  0999 V2000
  139.0750  160.2120  130.7230 C   0  0  0  0  0  0  0  0  0  0  0  0
  139.8580  159.1030  131.1020 O   0  0  0  0  0  0  0  0  0  0  0  0
  139.0800  158.2330  131.8980 C   0  0  0  0  0  0  0  0  0  0  0  0
  139.9490  157.6420  133.0070 C   0  0  0  0  0  0  0  0  0  0  0  0
  141.3730  157.7680  132.6930 N   0  0  0  0  0  0  0  0  0  0  0  0
  142.3710  157.1140  133.4890 C   0  0  0  0  0  0  0  0  0  0  0  0
  142.0260  156.4080  134.4750 O   0  0  0  0  0  0  0  0  0  0  0  0
  143.8030  157.2700  133.1750 C   0  0  0  0  0  0  0  0  0  0  0  0
  144.4500  156.3020  132.6940 O   0  0  0  0  0  0  0  0  0  0  0  0
  144.4720  158.5190  133.4050 N   0  0  0  0  0  0  0  0  0  0  0  0
  143.9060  159.7180  133.7200 C   0  0  0  0  0  0  0  0  0  0  0  0
  142.4740  159.9430  134.0110 C   0  0  0  0  0  0  0  0  0  0  0  0
  141.5860  160.3150  132.9590 N   0  0  0  0  0  0  0  0  0  0  0  0
  142.0300  159.8330  135.1840 O   0  0  0  0  0  0  0  0  0  0  0  0
  144.8780  160.7160  133.7770 C   0  0  0  0  0  0  0  0  0  0  0  0
  146.0660  160.0860  133.4800 C   0  0  0  0  0  0  0  0  0  0  0  0
  147.3530  160.6060  133.3670 C   0  0  0  0  0  0  0  0  0  0  0  0
  148.3880  159.7250  133.0070 C   0  0  0  0  0  0  0  0  0  0  0  0
  148.1210  158.3530  132.7730 C   0  0  0  0  0  0  0  0  0  0  0  0
  149.2240  157.4320  132.3450 C   0  0  0  0  0  0  0  0  0  0  0  0
  146.8000  157.8660  132.8800 C   0  0  0  0  0  0  0  0  0  0  0  0
  145.7930  158.7610  133.2570 C   0  0  0  0  0  0  0  0  0  0  0  0
  138.7105  160.7283  131.6233 H   0  0  0  0  0  0  0  0  0  0  0  0
  139.6854  160.9046  130.1250 H   0  0  0  0  0  0  0  0  0  0  0  0
  138.2180  159.8686  130.1250 H   0  0  0  0  0  0  0  0  0  0  0  0
  138.2457  158.7932  132.3454 H   0  0  0  0  0  0  0  0  0  0  0  0
  138.6827  157.4206  131.2718 H   0  0  0  0  0  0  0  0  0  0  0  0
  139.7411  158.1744  133.9469 H   0  0  0  0  0  0  0  0  0  0  0  0
  139.7086  156.5729  133.1031 H   0  0  0  0  0  0  0  0  0  0  0  0
  141.6730  158.3350  131.8680 H   0  0  0  0  0  0  0  0  0  0  0  0
  141.6730  159.8890  132.0090 H   0  0  0  0  0  0  0  0  0  0  0  0
  144.7278  161.7805  134.0098 H   0  0  0  0  0  0  0  0  0  0  0  0
  147.5533  161.6714  133.5534 H   0  0  0  0  0  0  0  0  0  0  0  0
  149.4155  160.1046  132.9060 H   0  0  0  0  0  0  0  0  0  0  0  0
  149.7210  157.0170  133.2343 H   0  0  0  0  0  0  0  0  0  0  0  0
  148.8045  156.6122  131.7434 H   0  0  0  0  0  0  0  0  0  0  0  0
  149.9558  157.9911  131.7434 H   0  0  0  0  0  0  0  0  0  0  0  0
  146.5688  156.8108  132.6724 H   0  0  0  0  0  0  0  0  0  0  0  0
  1  2  1  0
  2  3  1  0
  3  4  1  0
  4  5  1  0
  5  6  1  0
  6  7  2  0
  6  8  1  0
  8  9  2  0
  8 10  1  0
 10 11  1  0
 11 12  1  0
 12 13  1  0
 12 14  2  0
 11 15  2  0
 15 16  1  0
 16 17  2  0
 17 18  1  0
 18 19  2  0
 19 20  1  0
 19 21  1  0
 21 22  2  0
 22 10  1  0
 22 16  1  0
  1 23  1  0
  1 24  1  0
  1 25  1  0
  3 26  1  0
  3 27  1  0
  4 28  1  0
  4 29  1  0
  5 30  1  0
 13 31  1  0
 15 32  1  0
 17 33  1  0
 18 34  1  0
 20 35  1  0
 20 36  1  0
 20 37  1  0
 21 38  1  0
M  CHG  1  13  -1
M  END
>  <UniqueID>  (55) 
55

>  <SMILES>  (55) 
COCCNC(=O)C(=O)n1c(C([NH-])=O)cc2ccc(C)cc21

>  <Energy>  (55) 
72.56603138316505

>  <Genealogy>  (55) 
COCCNC(=O)C(=O)n1c(C([NH-])=O)cc2ccc(C)cc21 (protonated)
COCCNC(=O)C(=O)n1c(C([NH-])=O)cc2ccc(C)cc21 (3D coordinates assigned)
COCCNC(=O)C(=O)n1c(C([NH-])=O)cc2ccc(C)cc21 (optimized conformer: 72.56603138316505 kcal/mol)

>  <smiles>  (55) 
COCCNC(=O)C(=O)n1c(C(N)=O)cc2ccc(C)cc21

>  <score_type>  (55) 
oracle

>  <origin>  (55) 
adg

>  <m_score__min__energy>  (55) 
-6.5099999999999998

>  <m_primary>  (55) 
energy

$$$$
55:0
     RDKit          3D

 33 34  0  0  0  0  0  0  0  0999 V2000
  144.2270  160.2490  133.9820 C   0  0  0  0  0  0  0  0  0  0  0  0
  145.5030  160.4870  133.3150 N   0  0  0  0  0  0  0  0  0  0  0  0
  146.4890  159.4620  133.0940 C   0  0  0  0  0  0  0  0  0  0  0  0
  147.8100  159.7800  132.6770 C   0  0  0  0  0  0  0  0  0  0  0  0
  148.7630  158.7670  132.4800 C   0  0  0  0  0  0  0  0  0  0  0  0
  148.3710  157.4500  132.6940 C   0  0  0  0  0  0  0  0  0  0  0  0
  149.1010  156.2870  132.6090 C   0  0  0  0  0  0  0  0  0  0  0  0
  148.2120  155.2710  132.9430 C   0  0  0  0  0  0  0  0  0  0  0  0
  148.5710  153.8380  132.9230 C   0  0  0  0  0  0  0  0  0  0  0  0
  147.8260  152.8770  133.6710 N   0  0  0  0  0  0  0  0  0  0  0  0
  149.5180  153.4480  132.1880 O   0  0  0  0  0  0  0  0  0  0  0  0
  146.9840  155.7810  133.2380 N   0  0  0  0  0  0  0  0  0  0  0  0
  145.8430  155.0650  133.7430 C   0  0  0  0  0  0  0  0  0  0  0  0
  145.3140  154.1510  133.0550 O   0  0  0  0  0  0  0  0  0  0  0  0
  145.3260  155.3870  135.0020 O   0  0  0  0  0  0  0  0  0  0  0  0
  145.1980  154.4320  136.0480 C   0  0  0  0  0  0  0  0  0  0  0  0
  146.5330  153.8330  136.3330 C   0  0  0  0  0  0  0  0  0  0  0  0
  147.5750  154.3590  135.8590 O   0  0  0  0  0  0  0  0  0  0  0  0
  146.6380  152.7280  137.1660 O   0  0  0  0  0  0  0  0  0  0  0  0
  147.0960  157.1200  133.0780 C   0  0  0  0  0  0  0  0  0  0  0  0
  146.1330  158.1110  133.3030 C   0  0  0  0  0  0  0  0  0  0  0  0
  144.3724  160.2761  135.0720 H   0  0  0  0  0  0  0  0  0  0  0  0
  143.5087  161.0287  133.6884 H   0  0  0  0  0  0  0  0  0  0  0  0
  143.8381  159.2628  133.6884 H   0  0  0  0  0  0  0  0  0  0  0  0
  145.7010  161.4580  132.9820 H   0  0  0  0  0  0  0  0  0  0  0  0
  148.0890  160.8303  132.5068 H   0  0  0  0  0  0  0  0  0  0  0  0
  149.7891  159.0084  132.1657 H   0  0  0  0  0  0  0  0  0  0  0  0
  150.1613  156.1830  132.3353 H   0  0  0  0  0  0  0  0  0  0  0  0
  146.9390  153.1410  134.1560 H   0  0  0  0  0  0  0  0  0  0  0  0
  148.1210  151.8760  133.6790 H   0  0  0  0  0  0  0  0  0  0  0  0
  144.8164  154.9271  136.9531 H   0  0  0  0  0  0  0  0  0  0  0  0
  144.4967  153.6416  135.7422 H   0  0  0  0  0  0  0  0  0  0  0  0
  145.1194  157.8430  133.6359 H   0  0  0  0  0  0  0  0  0  0  0  0
  1  2  1  0
  2  3  1  0
  3  4  2  0
  4  5  1  0
  5  6  2  0
  6  7  1  0
  7  8  2  0
  8  9  1  0
  9 10  1  0
  9 11  2  0
  8 12  1  0
 12 13  1  0
 13 14  2  0
 13 15  1  0
 15 16  1  0
 16 17  1  0
 17 18  2  0
 17 19  1  0
 12 20  1  0
 20 21  2  0
 21  3  1  0
 20  6  1  0
  1 22  1  0
  1 23  1  0
  1 24  1  0
  2 25  1  0
  4 26  1  0
  5 27  1  0
  7 28  1  0
 10 29  1  0
 10 30  1  0
 16 31  1  0
 16 32  1  0
 21 33  1  0
M  CHG  1  19  -1
M  END
>  <UniqueID>  (56) 
56

>  <SMILES>  (56) 
CNc1ccc2cc(C(N)=O)n(C(=O)OCC(=O)[O-])c2c1

>  <Energy>  (56) 
67.86984053409611

>  <Genealogy>  (56) 
CNc1ccc2cc(C(N)=O)n(C(=O)OCC(=O)[O-])c2c1 (protonated)
CNc1ccc2cc(C(N)=O)n(C(=O)OCC(=O)[O-])c2c1 (3D coordinates assigned)
CNc1ccc2cc(C(N)=O)n(C(=O)OCC(=O)[O-])c2c1 (optimized conformer: 67.86984053409611 kcal/mol)

>  <smiles>  (56) 
CNc1ccc2cc(C(N)=O)n(C(=O)OCC(=O)O)c2c1

>  <score_type>  (56) 
oracle

>  <origin>  (56) 
adg

>  <m_score__min__energy>  (56) 
-6.4199999999999999

>  <m_primary>  (56) 
energy

$$$$
56:0
     RDKit          3D

 38 39  0  0  0  0  0  0  0  0999 V2000
  141.0260  155.7080  134.4670 C   0  0  0  0  0  0  0  0  0  0  0  0
  141.9130  156.6380  135.1720 N   0  0  0  0  0  0  0  0  0  0  0  0
  141.4890  157.2040  136.4610 C   0  0  0  0  0  0  0  0  0  0  0  0
  141.4130  158.7030  136.4020 C   0  0  0  0  0  0  0  0  0  0  0  0
  141.6710  159.4060  135.1850 N   0  0  0  0  0  0  0  0  0  0  0  0
  141.1440  159.3520  137.4480 O   0  0  0  0  0  0  0  0  0  0  0  0
  143.2740  156.7700  134.7120 C   0  0  0  0  0  0  0  0  0  0  0  0
  144.1790  156.0900  135.2680 O   0  0  0  0  0  0  0  0  0  0  0  0
  143.6410  157.6540  133.5840 C   0  0  0  0  0  0  0  0  0  0  0  0
  142.8270  157.8670  132.6460 O   0  0  0  0  0  0  0  0  0  0  0  0
  144.9410  158.2630  133.5340 N   0  0  0  0  0  0  0  0  0  0  0  0
  145.2380  159.5920  133.5490 C   0  0  0  0  0  0  0  0  0  0  0  0
  144.2720  160.6940  133.7410 C   0  0  0  0  0  0  0  0  0  0  0  0
  142.9060  160.5510  133.3570 N   0  0  0  0  0  0  0  0  0  0  0  0
  144.6490  161.7670  134.2820 O   0  0  0  0  0  0  0  0  0  0  0  0
  146.6120  159.7840  133.4030 C   0  0  0  0  0  0  0  0  0  0  0  0
  147.1470  158.5200  133.2930 C   0  0  0  0  0  0  0  0  0  0  0  0
  148.4650  158.1190  133.1020 C   0  0  0  0  0  0  0  0  0  0  0  0
  148.7260  156.7420  132.9900 C   0  0  0  0  0  0  0  0  0  0  0  0
  147.6730  155.7940  133.0790 C   0  0  0  0  0  0  0  0  0  0  0  0
  147.9570  154.3250  132.9070 C   0  0  0  0  0  0  0  0  0  0  0  0
  148.4730  153.7880  134.0730 F   0  0  0  0  0  0  0  0  0  0  0  0
  146.7830  153.6670  132.5910 F   0  0  0  0  0  0  0  0  0  0  0  0
  148.8760  154.1200  131.8930 F   0  0  0  0  0  0  0  0  0  0  0  0
  146.3420  156.2460  133.2400 C   0  0  0  0  0  0  0  0  0  0  0  0
  146.1170  157.6210  133.3720 C   0  0  0  0  0  0  0  0  0  0  0  0
  140.4599  155.1144  135.1999 H   0  0  0  0  0  0  0  0  0  0  0  0
  140.3263  156.2757  133.8360 H   0  0  0  0  0  0  0  0  0  0  0  0
  141.6262  155.0360  133.8360 H   0  0  0  0  0  0  0  0  0  0  0  0
  140.4967  156.8050  136.7182 H   0  0  0  0  0  0  0  0  0  0  0  0
  142.2312  156.9244  137.2232 H   0  0  0  0  0  0  0  0  0  0  0  0
  141.8690  158.8940  134.2980 H   0  0  0  0  0  0  0  0  0  0  0  0
  141.6480  160.4510  135.1690 H   0  0  0  0  0  0  0  0  0  0  0  0
  142.6400  160.0040  132.5100 H   0  0  0  0  0  0  0  0  0  0  0  0
  147.1530  160.7415  133.3805 H   0  0  0  0  0  0  0  0  0  0  0  0
  149.2785  158.8568  133.0404 H   0  0  0  0  0  0  0  0  0  0  0  0
  149.7578  156.3953  132.8316 H   0  0  0  0  0  0  0  0  0  0  0  0
  145.5040  155.5337  133.2609 H   0  0  0  0  0  0  0  0  0  0  0  0
  1  2  1  0
  2  3  1  0
  3  4  1  0
  4  5  1  0
  4  6  2  0
  2  7  1  0
  7  8  2  0
  7  9  1  0
  9 10  2  0
  9 11  1  0
 11 12  1  0
 12 13  1  0
 13 14  1  0
 13 15  2  0
 12 16  2  0
 16 17  1  0
 17 18  2  0
 18 19  1  0
 19 20  2  0
 20 21  1  0
 21 22  1  0
 21 23  1  0
 21 24  1  0
 20 25  1  0
 25 26  2  0
 26 11  1  0
 26 17  1  0
  1 27  1  0
  1 28  1  0
  1 29  1  0
  3 30  1  0
  3 31  1  0
  5 32  1  0
  5 33  1  0
 14 34  1  0
 16 35  1  0
 18 36  1  0
 19 37  1  0
 25 38  1  0
M  CHG  1  14  -1
M  END
>  <UniqueID>  (57) 
57

>  <SMILES>  (57) 
CN(CC(N)=O)C(=O)C(=O)n1c(C([NH-])=O)cc2ccc(C(F)(F)F)cc21

>  <Energy>  (57) 
78.67467694544389

>  <Genealogy>  (57) 
CN(CC(N)=O)C(=O)C(=O)n1c(C([NH-])=O)cc2ccc(C(F)(F)F)cc21 (protonated)
CN(CC(N)=O)C(=O)C(=O)n1c(C([NH-])=O)cc2ccc(C(F)(F)F)cc21 (3D coordinates assigned)
CN(CC(N)=O)C(=O)C(=O)n1c(C([NH-])=O)cc2ccc(C(F)(F)F)cc21 (optimized conformer: 78.67467694544389 kcal/mol)

>  <smiles>  (57) 
CN(CC(N)=O)C(=O)C(=O)n1c(C(N)=O)cc2ccc(C(F)(F)F)cc21

>  <score_type>  (57) 
oracle

>  <origin>  (57) 
adg

>  <m_score__min__energy>  (57) 
-5.9900000000000002

>  <m_primary>  (57) 
energy

$$$$
57:0
     RDKit          3D

 31 32  0  0  0  0  0  0  0  0999 V2000
  145.6630  160.4840  132.9180 N   0  0  0  0  0  0  0  0  0  0  0  0
  145.0590  159.3370  133.5200 C   0  0  0  0  0  0  0  0  0  0  0  0
  143.9930  159.4790  134.1760 O   0  0  0  0  0  0  0  0  0  0  0  0
  145.6530  157.9930  133.3470 C   0  0  0  0  0  0  0  0  0  0  0  0
  144.9360  156.8050  133.4780 C   0  0  0  0  0  0  0  0  0  0  0  0
  145.8660  155.8010  133.3380 C   0  0  0  0  0  0  0  0  0  0  0  0
  145.7010  154.4200  133.3690 C   0  0  0  0  0  0  0  0  0  0  0  0
  146.8350  153.6160  133.1670 C   0  0  0  0  0  0  0  0  0  0  0  0
  148.1040  154.2030  132.9340 C   0  0  0  0  0  0  0  0  0  0  0  0
  149.3010  153.3240  132.7020 C   0  0  0  0  0  0  0  0  0  0  0  0
  150.3520  154.0870  132.2270 F   0  0  0  0  0  0  0  0  0  0  0  0
  148.9890  152.3470  131.7750 F   0  0  0  0  0  0  0  0  0  0  0  0
  148.2330  155.6100  132.9070 C   0  0  0  0  0  0  0  0  0  0  0  0
  147.0890  156.3870  133.1300 C   0  0  0  0  0  0  0  0  0  0  0  0
  146.9740  157.7340  133.1320 N   0  0  0  0  0  0  0  0  0  0  0  0
  148.0190  158.6860  132.8770 C   0  0  0  0  0  0  0  0  0  0  0  0
  148.1860  159.6640  133.6560 O   0  0  0  0  0  0  0  0  0  0  0  0
  148.8540  158.5200  131.7690 O   0  0  0  0  0  0  0  0  0  0  0  0
  149.7360  159.5380  131.3080 C   0  0  0  0  0  0  0  0  0  0  0  0
  148.9350  160.6800  130.7810 C   0  0  0  0  0  0  0  0  0  0  0  0
  147.6970  160.5490  130.5900 O   0  0  0  0  0  0  0  0  0  0  0  0
  149.5610  161.8730  130.4470 O   0  0  0  0  0  0  0  0  0  0  0  0
  146.5730  160.4160  132.4140 H   0  0  0  0  0  0  0  0  0  0  0  0
  145.2150  161.4220  133.0150 H   0  0  0  0  0  0  0  0  0  0  0  0
  143.8561  156.6938  133.6556 H   0  0  0  0  0  0  0  0  0  0  0  0
  144.7125  153.9712  133.5463 H   0  0  0  0  0  0  0  0  0  0  0  0
  146.7373  152.5206  133.1899 H   0  0  0  0  0  0  0  0  0  0  0  0
  149.5903  152.8494  133.6512 H   0  0  0  0  0  0  0  0  0  0  0  0
  149.2074  156.0832  132.7156 H   0  0  0  0  0  0  0  0  0  0  0  0
  150.3658  159.8839  132.1409 H   0  0  0  0  0  0  0  0  0  0  0  0
  150.3773  159.1371  130.5093 H   0  0  0  0  0  0  0  0  0  0  0  0
  1  2  1  0
  2  3  2  0
  2  4  1  0
  4  5  2  0
  5  6  1  0
  6  7  2  0
  7  8  1  0
  8  9  2  0
  9 10  1  0
 10 11  1  0
 10 12  1  0
  9 13  1  0
 13 14  2  0
 14 15  1  0
 15 16  1  0
 16 17  2  0
 16 18  1  0
 18 19  1  0
 19 20  1  0
 20 21  2  0
 20 22  1  0
 15  4  1  0
 14  6  1  0
  1 23  1  0
  1 24  1  0
  5 25  1  0
  7 26  1  0
  8 27  1  0
 10 28  1  0
 13 29  1  0
 19 30  1  0
 19 31  1  0
M  CHG  1  22  -1
M  END
>  <UniqueID>  (58) 
58

>  <SMILES>  (58) 
NC(=O)c1cc2ccc(C(F)F)cc2n1C(=O)OCC(=O)[O-]

>  <Energy>  (58) 
66.35775508031853

>  <Genealogy>  (58) 
NC(=O)c1cc2ccc(C(F)F)cc2n1C(=O)OCC(=O)[O-] (protonated)
NC(=O)c1cc2ccc(C(F)F)cc2n1C(=O)OCC(=O)[O-] (3D coordinates assigned)
NC(=O)c1cc2ccc(C(F)F)cc2n1C(=O)OCC(=O)[O-] (optimized conformer: 66.35775508031853 kcal/mol)

>  <smiles>  (58) 
NC(=O)c1cc2ccc(C(F)F)cc2n1C(=O)OCC(=O)O

>  <score_type>  (58) 
oracle

>  <origin>  (58) 
adg

>  <m_score__min__energy>  (58) 
-5.8399999999999999

>  <m_primary>  (58) 
energy

$$$$
58:0
     RDKit          3D

 41 42  0  0  0  0  0  0  0  0999 V2000
  136.5470  160.1190  130.3570 N   0  0  0  0  0  0  0  0  0  0  0  0
  137.5780  159.8050  130.7790 C   0  0  0  0  0  0  0  0  0  0  0  0
  138.8860  159.4060  131.3150 C   0  0  0  0  0  0  0  0  0  0  0  0
  138.7490  158.7150  132.6790 C   0  0  0  0  0  0  0  0  0  0  0  0
  139.7260  157.5430  132.8650 C   0  0  0  0  0  0  0  0  0  0  0  0
  140.6520  157.7800  133.9760 N   0  0  0  0  0  0  0  0  0  0  0  0
  141.8600  158.5520  133.8450 C   0  0  0  0  0  0  0  0  0  0  0  0
  141.8410  159.9730  133.8470 C   0  0  0  0  0  0  0  0  0  0  0  0
  143.0330  160.7080  133.7320 C   0  0  0  0  0  0  0  0  0  0  0  0
  144.2250  160.0030  133.6050 C   0  0  0  0  0  0  0  0  0  0  0  0
  145.5190  160.4650  133.5120 C   0  0  0  0  0  0  0  0  0  0  0  0
  146.3090  159.3230  133.4210 C   0  0  0  0  0  0  0  0  0  0  0  0
  147.7740  159.3610  133.2440 C   0  0  0  0  0  0  0  0  0  0  0  0
  148.6060  158.3020  133.7220 N   0  0  0  0  0  0  0  0  0  0  0  0
  148.2970  160.3170  132.6110 O   0  0  0  0  0  0  0  0  0  0  0  0
  145.5400  158.1980  133.4690 N   0  0  0  0  0  0  0  0  0  0  0  0
  145.9870  156.8340  133.5150 C   0  0  0  0  0  0  0  0  0  0  0  0
  145.4870  156.0390  134.3570 O   0  0  0  0  0  0  0  0  0  0  0  0
  146.9700  156.3940  132.6190 O   0  0  0  0  0  0  0  0  0  0  0  0
  148.0760  155.5600  132.9730 C   0  0  0  0  0  0  0  0  0  0  0  0
  147.9920  154.3420  132.2740 O   0  0  0  0  0  0  0  0  0  0  0  0
  149.2540  156.2290  132.6070 O   0  0  0  0  0  0  0  0  0  0  0  0
  148.0800  155.3440  134.3660 O   0  0  0  0  0  0  0  0  0  0  0  0
  144.2640  158.6320  133.5790 C   0  0  0  0  0  0  0  0  0  0  0  0
  143.0940  157.8760  133.7150 C   0  0  0  0  0  0  0  0  0  0  0  0
  139.3646  158.7113  130.6090 H   0  0  0  0  0  0  0  0  0  0  0  0
  139.4954  160.3122  131.4473 H   0  0  0  0  0  0  0  0  0  0  0  0
  138.9396  159.4576  133.4678 H   0  0  0  0  0  0  0  0  0  0  0  0
  137.7304  158.3036  132.7361 H   0  0  0  0  0  0  0  0  0  0  0  0
  139.1504  156.6282  133.0697 H   0  0  0  0  0  0  0  0  0  0  0  0
  140.3165  157.4393  131.9428 H   0  0  0  0  0  0  0  0  0  0  0  0
  140.4380  157.3620  134.9110 H   0  0  0  0  0  0  0  0  0  0  0  0
  140.8820  160.5037  133.9397 H   0  0  0  0  0  0  0  0  0  0  0  0
  143.0236  161.8079  133.7421 H   0  0  0  0  0  0  0  0  0  0  0  0
  145.8559  161.5121  133.5100 H   0  0  0  0  0  0  0  0  0  0  0  0
  149.6440  158.3670  133.6240 H   0  0  0  0  0  0  0  0  0  0  0  0
  148.1950  157.4190  134.0940 H   0  0  0  0  0  0  0  0  0  0  0  0
  147.8120  154.5620  131.3220 H   0  0  0  0  0  0  0  0  0  0  0  0
  149.0790  156.6800  131.7400 H   0  0  0  0  0  0  0  0  0  0  0  0
  147.2550  154.8410  134.5920 H   0  0  0  0  0  0  0  0  0  0  0  0
  143.1343  156.7768  133.7206 H   0  0  0  0  0  0  0  0  0  0  0  0
  1  2  3  0
  2  3  1  0
  3  4  1  0
  4  5  1  0
  5  6  1  0
  6  7  1  0
  7  8  2  0
  8  9  1  0
  9 10  2  0
 10 11  1  0
 11 12  2  0
 12 13  1  0
 13 14  1  0
 13 15  2  0
 12 16  1  0
 16 17  1  0
 17 18  2  0
 17 19  1  0
 19 20  1  0
 20 21  1  0
 20 22  1  0
 20 23  1  0
 16 24  1  0
 24 25  2  0
 25  7  1  0
 24 10  1  0
  3 26  1  0
  3 27  1  0
  4 28  1  0
  4 29  1  0
  5 30  1  0
  5 31  1  0
  6 32  1  0
  8 33  1  0
  9 34  1  0
 11 35  1  0
 14 36  1  0
 14 37  1  0
 21 38  1  0
 22 39  1  0
 23 40  1  0
 25 41  1  0
M  END
>  <UniqueID>  (59) 
59

>  <SMILES>  (59) 
N#CCCCNc1ccc2cc(C(N)=O)n(C(=O)OC(O)(O)O)c2c1

>  <Energy>  (59) 
76.47398969349392

>  <Genealogy>  (59) 
N#CCCCNc1ccc2cc(C(N)=O)n(C(=O)OC(O)(O)O)c2c1 (3D coordinates assigned)
N#CCCCNc1ccc2cc(C(N)=O)n(C(=O)OC(O)(O)O)c2c1 (optimized conformer: 76.47398969349392 kcal/mol)

>  <smiles>  (59) 
N#CCCCNc1ccc2cc(C(N)=O)n(C(=O)OC(O)(O)O)c2c1

>  <score_type>  (59) 
oracle

>  <origin>  (59) 
adg

>  <m_score__min__energy>  (59) 
-8.0399999999999991

>  <m_primary>  (59) 
energy

$$$$
59:0
     RDKit          3D

 49 51  0  0  0  0  0  0  0  0999 V2000
  145.4090  154.0790  134.0130 C   0  0  0  0  0  0  0  0  0  0  0  0
  146.7930  153.9680  133.4530 C   0  0  0  0  0  0  0  0  0  0  0  0
  147.4110  152.7930  133.2280 N   0  0  0  0  0  0  0  0  0  0  0  0
  148.6020  153.0370  132.7060 N   0  0  0  0  0  0  0  0  0  0  0  0
  149.5900  152.0110  132.3960 C   0  0  0  0  0  0  0  0  0  0  0  0
  148.7850  154.3670  132.6060 C   0  0  0  0  0  0  0  0  0  0  0  0
  147.6490  155.0030  133.0810 C   0  0  0  0  0  0  0  0  0  0  0  0
  147.4320  156.4660  133.1530 C   0  0  0  0  0  0  0  0  0  0  0  0
  148.5370  157.3470  133.0330 C   0  0  0  0  0  0  0  0  0  0  0  0
  148.3600  158.7370  133.1190 C   0  0  0  0  0  0  0  0  0  0  0  0
  147.0710  159.2200  133.3240 C   0  0  0  0  0  0  0  0  0  0  0  0
  146.6240  160.5120  133.4790 C   0  0  0  0  0  0  0  0  0  0  0  0
  145.2500  160.4050  133.6820 C   0  0  0  0  0  0  0  0  0  0  0  0
  144.3550  161.5740  133.8170 C   0  0  0  0  0  0  0  0  0  0  0  0
  142.9460  161.4070  133.6820 N   0  0  0  0  0  0  0  0  0  0  0  0
  144.8180  162.7130  134.0880 O   0  0  0  0  0  0  0  0  0  0  0  0
  144.8630  159.0980  133.6580 N   0  0  0  0  0  0  0  0  0  0  0  0
  143.5510  158.5640  133.9010 C   0  0  0  0  0  0  0  0  0  0  0  0
  142.9800  157.8830  133.0080 O   0  0  0  0  0  0  0  0  0  0  0  0
  142.9340  158.7850  135.1420 O   0  0  0  0  0  0  0  0  0  0  0  0
  141.6890  158.2230  135.5840 C   0  0  0  0  0  0  0  0  0  0  0  0
  141.2930  158.9560  136.8770 C   0  0  0  0  0  0  0  0  0  0  0  0
  141.8650  156.7270  135.9060 C   0  0  0  0  0  0  0  0  0  0  0  0
  140.5800  158.4160  134.5210 C   0  0  0  0  0  0  0  0  0  0  0  0
  140.7840  159.5970  133.7900 O   0  0  0  0  0  0  0  0  0  0  0  0
  145.9900  158.3860  133.4370 C   0  0  0  0  0  0  0  0  0  0  0  0
  146.1400  156.9950  133.3770 C   0  0  0  0  0  0  0  0  0  0  0  0
  145.4567  154.0752  135.1120 H   0  0  0  0  0  0  0  0  0  0  0  0
  144.9485  155.0170  133.6692 H   0  0  0  0  0  0  0  0  0  0  0  0
  144.8049  153.2264  133.6692 H   0  0  0  0  0  0  0  0  0  0  0  0
  147.0290  151.8420  133.4280 H   0  0  0  0  0  0  0  0  0  0  0  0
  149.9915  151.5941  133.3314 H   0  0  0  0  0  0  0  0  0  0  0  0
  149.1151  151.2094  131.8113 H   0  0  0  0  0  0  0  0  0  0  0  0
  150.4090  152.4553  131.8113 H   0  0  0  0  0  0  0  0  0  0  0  0
  149.6841  154.8647  132.2137 H   0  0  0  0  0  0  0  0  0  0  0  0
  149.5445  156.9363  132.8707 H   0  0  0  0  0  0  0  0  0  0  0  0
  149.2144  159.4237  133.0271 H   0  0  0  0  0  0  0  0  0  0  0  0
  147.2240  161.4335  133.4490 H   0  0  0  0  0  0  0  0  0  0  0  0
  142.4500  160.6280  134.1680 H   0  0  0  0  0  0  0  0  0  0  0  0
  141.6130  158.3637  137.7469 H   0  0  0  0  0  0  0  0  0  0  0  0
  141.7816  159.9411  136.9044 H   0  0  0  0  0  0  0  0  0  0  0  0
  140.2012  159.0873  136.9044 H   0  0  0  0  0  0  0  0  0  0  0  0
  141.8816  156.5862  136.9968 H   0  0  0  0  0  0  0  0  0  0  0  0
  141.0276  156.1583  135.4756 H   0  0  0  0  0  0  0  0  0  0  0  0
  142.8116  156.3682  135.4756 H   0  0  0  0  0  0  0  0  0  0  0  0
  140.5902  157.5595  133.8309 H   0  0  0  0  0  0  0  0  0  0  0  0
  139.6100  158.4851  135.0351 H   0  0  0  0  0  0  0  0  0  0  0  0
  141.7460  159.6260  133.5470 H   0  0  0  0  0  0  0  0  0  0  0  0
  145.2730  156.3295  133.5012 H   0  0  0  0  0  0  0  0  0  0  0  0
  1  2  1  0
  2  3  2  0
  3  4  1  0
  4  5  1  0
  4  6  1  0
  6  7  2  0
  7  8  1  0
  8  9  2  0
  9 10  1  0
 10 11  2  0
 11 12  1  0
 12 13  2  0
 13 14  1  0
 14 15  1  0
 14 16  2  0
 13 17  1  0
 17 18  1  0
 18 19  2  0
 18 20  1  0
 20 21  1  0
 21 22  1  0
 21 23  1  0
 21 24  1  0
 24 25  1  0
 17 26  1  0
 26 27  2  0
  7  2  1  0
 27  8  1  0
 26 11  1  0
  1 28  1  0
  1 29  1  0
  1 30  1  0
  3 31  1  0
  5 32  1  0
  5 33  1  0
  5 34  1  0
  6 35  1  0
  9 36  1  0
 10 37  1  0
 12 38  1  0
 15 39  1  0
 22 40  1  0
 22 41  1  0
 22 42  1  0
 23 43  1  0
 23 44  1  0
 23 45  1  0
 24 46  1  0
 24 47  1  0
 25 48  1  0
 27 49  1  0
M  CHG  2   3   1  15  -1
M  END
>  <UniqueID>  (60) 
60

>  <SMILES>  (60) 
Cc1[nH+]n(C)cc1-c1ccc2cc(C([NH-])=O)n(C(=O)OC(C)(C)CO)c2c1

>  <Energy>  (60) 
118.28746136134123

>  <Genealogy>  (60) 
Cc1[nH+]n(C)cc1-c1ccc2cc(C([NH-])=O)n(C(=O)OC(C)(C)CO)c2c1 (protonated)
Cc1[nH+]n(C)cc1-c1ccc2cc(C([NH-])=O)n(C(=O)OC(C)(C)CO)c2c1 (3D coordinates assigned)
Cc1[nH+]n(C)cc1-c1ccc2cc(C([NH-])=O)n(C(=O)OC(C)(C)CO)c2c1 (optimized conformer: 118.28746136134123 kcal/mol)

>  <smiles>  (60) 
Cc1nn(C)cc1-c1ccc2cc(C(N)=O)n(C(=O)OC(C)(C)CO)c2c1

>  <score_type>  (60) 
oracle

>  <origin>  (60) 
adg

>  <m_score__min__energy>  (60) 
-8.0600000000000005

>  <m_primary>  (60) 
energy

$$$$
60:0
     RDKit          3D

 50 51  0  0  0  0  0  0  0  0999 V2000
  142.7680  155.5090  136.5520 C   0  0  0  0  0  0  0  0  0  0  0  0
  141.3690  155.6580  135.9410 C   0  0  1  0  0  0  0  0  0  0  0  0
  140.8070  157.0490  136.0840 C   0  0  0  0  0  0  0  0  0  0  0  0
  141.5470  158.0250  136.3810 O   0  0  0  0  0  0  0  0  0  0  0  0
  139.4540  157.2650  135.8570 O   0  0  0  0  0  0  0  0  0  0  0  0
  141.3610  155.2350  134.5250 N   0  0  0  0  0  0  0  0  0  0  0  0
  141.8620  153.9260  134.1930 C   0  0  0  0  0  0  0  0  0  0  0  0
  141.7370  152.9780  135.0150 O   0  0  0  0  0  0  0  0  0  0  0  0
  142.4900  153.7200  132.9540 O   0  0  0  0  0  0  0  0  0  0  0  0
  143.8890  153.4880  132.7380 C   0  0  0  0  0  0  0  0  0  0  0  0
  144.1770  151.9800  132.6030 C   0  0  0  0  0  0  0  0  0  0  0  0
  144.3760  154.2490  131.4900 C   0  0  0  0  0  0  0  0  0  0  0  0
  144.6320  154.0270  133.9690 C   0  0  0  0  0  0  0  0  0  0  0  0
  140.8170  156.0870  133.4870 C   0  0  0  0  0  0  0  0  0  0  0  0
  139.9780  155.6270  132.6650 O   0  0  0  0  0  0  0  0  0  0  0  0
  141.2300  157.4580  133.3580 N   0  0  0  0  0  0  0  0  0  0  0  0
  140.4480  158.5560  133.1610 C   0  0  0  0  0  0  0  0  0  0  0  0
  138.9880  158.5340  132.9250 C   0  0  0  0  0  0  0  0  0  0  0  0
  138.1750  157.4880  133.4620 N   0  0  0  0  0  0  0  0  0  0  0  0
  138.4440  159.4510  132.2570 O   0  0  0  0  0  0  0  0  0  0  0  0
  141.2290  159.7120  133.1410 C   0  0  0  0  0  0  0  0  0  0  0  0
  142.5240  159.2800  133.3280 C   0  0  0  0  0  0  0  0  0  0  0  0
  143.7110  160.0020  133.3870 C   0  0  0  0  0  0  0  0  0  0  0  0
  144.9050  159.2910  133.5990 C   0  0  0  0  0  0  0  0  0  0  0  0
  144.8910  157.8820  133.7690 C   0  0  0  0  0  0  0  0  0  0  0  0
  146.1820  157.1270  133.9550 C   0  0  0  0  0  0  0  0  0  0  0  0
  146.4280  156.3040  132.8690 F   0  0  0  0  0  0  0  0  0  0  0  0
  147.2220  158.0290  134.0820 F   0  0  0  0  0  0  0  0  0  0  0  0
  146.1270  156.3380  135.0910 F   0  0  0  0  0  0  0  0  0  0  0  0
  143.6660  157.1820  133.6770 C   0  0  0  0  0  0  0  0  0  0  0  0
  142.4960  157.9160  133.4530 C   0  0  0  0  0  0  0  0  0  0  0  0
  142.6916  155.5171  137.6493 H   0  0  0  0  0  0  0  0  0  0  0  0
  143.2127  154.5584  136.2224 H   0  0  0  0  0  0  0  0  0  0  0  0
  143.4030  156.3446  136.2224 H   0  0  0  0  0  0  0  0  0  0  0  0
  140.7094  154.9911  136.5156 H   0  0  0  0  0  0  0  0  0  0  0  0
  144.2626  151.5320  133.6040 H   0  0  0  0  0  0  0  0  0  0  0  0
  143.3548  151.4974  132.0543 H   0  0  0  0  0  0  0  0  0  0  0  0
  145.1192  151.8343  132.0543 H   0  0  0  0  0  0  0  0  0  0  0  0
  144.9447  155.1377  131.8012 H   0  0  0  0  0  0  0  0  0  0  0  0
  145.0220  153.5922  130.8889 H   0  0  0  0  0  0  0  0  0  0  0  0
  143.5090  154.5604  130.8889 H   0  0  0  0  0  0  0  0  0  0  0  0
  144.1364  153.6675  134.8829 H   0  0  0  0  0  0  0  0  0  0  0  0
  145.6733  153.6728  133.9530 H   0  0  0  0  0  0  0  0  0  0  0  0
  144.6185  155.1268  133.9530 H   0  0  0  0  0  0  0  0  0  0  0  0
  138.5950  156.6720  133.9580 H   0  0  0  0  0  0  0  0  0  0  0  0
  137.1410  157.5030  133.3130 H   0  0  0  0  0  0  0  0  0  0  0  0
  140.8843  160.7477  133.0049 H   0  0  0  0  0  0  0  0  0  0  0  0
  143.7155  161.0959  133.2713 H   0  0  0  0  0  0  0  0  0  0  0  0
  145.8615  159.8331  133.6336 H   0  0  0  0  0  0  0  0  0  0  0  0
  143.6335  156.0872  133.7790 H   0  0  0  0  0  0  0  0  0  0  0  0
  1  2  1  0
  2  3  1  0
  3  4  2  0
  3  5  1  0
  2  6  1  0
  6  7  1  0
  7  8  2  0
  7  9  1  0
  9 10  1  0
 10 11  1  0
 10 12  1  0
 10 13  1  0
  6 14  1  0
 14 15  2  0
 14 16  1  0
 16 17  1  0
 17 18  1  0
 18 19  1  0
 18 20  2  0
 17 21  2  0
 21 22  1  0
 22 23  2  0
 23 24  1  0
 24 25  2  0
 25 26  1  0
 26 27  1  0
 26 28  1  0
 26 29  1  0
 25 30  1  0
 30 31  2  0
 31 16  1  0
 31 22  1  0
  1 32  1  0
  1 33  1  0
  1 34  1  0
  2 35  1  1
 11 36  1  0
 11 37  1  0
 11 38  1  0
 12 39  1  0
 12 40  1  0
 12 41  1  0
 13 42  1  0
 13 43  1  0
 13 44  1  0
 19 45  1  0
 19 46  1  0
 21 47  1  0
 23 48  1  0
 24 49  1  0
 30 50  1  0
M  CHG  1   5  -1
M  END
>  <UniqueID>  (61) 
61

>  <SMILES>  (61) 
C[C@@H](C(=O)[O-])N(C(=O)OC(C)(C)C)C(=O)n1c(C(N)=O)cc2ccc(C(F)(F)F)cc21

>  <Energy>  (61) 
85.98432947153256

>  <Genealogy>  (61) 
CC(C(=O)[O-])N(C(=O)OC(C)(C)C)C(=O)n1c(C(N)=O)cc2ccc(C(F)(F)F)cc21 (protonated)
C[C@@H](C(=O)[O-])N(C(=O)OC(C)(C)C)C(=O)n1c(C(N)=O)cc2ccc(C(F)(F)F)cc21 (chirality)
C[C@@H](C(=O)[O-])N(C(=O)OC(C)(C)C)C(=O)n1c(C(N)=O)cc2ccc(C(F)(F)F)cc21 (3D coordinates assigned)
C[C@@H](C(=O)[O-])N(C(=O)OC(C)(C)C)C(=O)n1c(C(N)=O)cc2ccc(C(F)(F)F)cc21 (optimized conformer: 85.98432947153256 kcal/mol)

>  <smiles>  (61) 
CC(C(=O)O)N(C(=O)OC(C)(C)C)C(=O)n1c(C(N)=O)cc2ccc(C(F)(F)F)cc21

>  <score_type>  (61) 
oracle

>  <origin>  (61) 
adg

>  <m_score__min__energy>  (61) 
-7.25

>  <m_primary>  (61) 
energy

$$$$
61:0
     RDKit          3D

 58 59  0  0  0  0  0  0  0  0999 V2000
  149.5860  159.7340  130.7210 C   0  0  0  0  0  0  0  0  0  0  0  0
  148.4120  160.3920  131.4400 C   0  0  0  0  0  0  0  0  0  0  0  0
  148.2020  159.7970  132.7240 O   0  0  0  0  0  0  0  0  0  0  0  0
  147.3790  158.6830  132.9290 C   0  0  0  0  0  0  0  0  0  0  0  0
  146.1530  158.7200  132.6330 O   0  0  0  0  0  0  0  0  0  0  0  0
  147.9640  157.4390  133.5150 C   0  0  0  0  0  0  0  0  0  0  0  0
  147.3980  156.1880  132.8290 C   0  0  0  0  0  0  0  0  0  0  0  0
  145.9190  156.2480  132.7280 N   0  0  0  0  0  0  0  0  0  0  0  0
  145.3370  154.9270  132.7380 C   0  0  0  0  0  0  0  0  0  0  0  0
  146.1670  153.7840  132.6040 C   0  0  0  0  0  0  0  0  0  0  0  0
  145.6190  152.4910  132.6450 C   0  0  0  0  0  0  0  0  0  0  0  0
  144.2420  152.3710  132.8050 C   0  0  0  0  0  0  0  0  0  0  0  0
  143.4600  151.2430  132.8870 C   0  0  0  0  0  0  0  0  0  0  0  0
  142.1560  151.7090  133.0430 C   0  0  0  0  0  0  0  0  0  0  0  0
  140.9790  150.8180  133.0740 C   0  0  0  0  0  0  0  0  0  0  0  0
  139.9750  150.9350  132.0680 N   0  0  0  0  0  0  0  0  0  0  0  0
  140.8260  149.9870  134.0100 O   0  0  0  0  0  0  0  0  0  0  0  0
  142.1290  153.0730  133.0690 N   0  0  0  0  0  0  0  0  0  0  0  0
  140.9870  153.9220  133.2940 C   0  0  0  0  0  0  0  0  0  0  0  0
  139.9340  153.7560  132.6210 O   0  0  0  0  0  0  0  0  0  0  0  0
  141.0510  154.9370  134.2540 O   0  0  0  0  0  0  0  0  0  0  0  0
  141.0940  156.3210  133.9200 C   0  0  0  0  0  0  0  0  0  0  0  0
  142.3870  156.8380  134.2120 O   0  0  0  0  0  0  0  0  0  0  0  0
  142.9440  157.9250  133.5250 C   0  0  0  0  0  0  0  0  0  0  0  0
  143.8110  157.7260  132.6300 O   0  0  0  0  0  0  0  0  0  0  0  0
  142.5590  159.3380  133.9180 C   0  0  0  0  0  0  0  0  0  0  0  0
  142.1190  159.3370  135.3920 C   0  0  0  0  0  0  0  0  0  0  0  0
  143.7520  160.3020  133.7420 C   0  0  0  0  0  0  0  0  0  0  0  0
  141.3940  159.8210  133.0310 C   0  0  0  0  0  0  0  0  0  0  0  0
  143.4180  153.4640  132.9220 C   0  0  0  0  0  0  0  0  0  0  0  0
  143.9430  154.7630  132.9190 C   0  0  0  0  0  0  0  0  0  0  0  0
  150.2944  159.3369  131.4629 H   0  0  0  0  0  0  0  0  0  0  0  0
  149.2158  158.9119  130.0908 H   0  0  0  0  0  0  0  0  0  0  0  0
  150.0941  160.4788  130.0908 H   0  0  0  0  0  0  0  0  0  0  0  0
  148.6239  161.4636  131.5698 H   0  0  0  0  0  0  0  0  0  0  0  0
  147.5047  160.2507  130.8343 H   0  0  0  0  0  0  0  0  0  0  0  0
  149.0559  157.4584  133.3832 H   0  0  0  0  0  0  0  0  0  0  0  0
  147.7051  157.3999  134.5834 H   0  0  0  0  0  0  0  0  0  0  0  0
  147.8229  156.1115  131.8173 H   0  0  0  0  0  0  0  0  0  0  0  0
  147.6682  155.3096  133.4335 H   0  0  0  0  0  0  0  0  0  0  0  0
  145.5420  156.8040  133.5280 H   0  0  0  0  0  0  0  0  0  0  0  0
  145.6060  156.7420  131.8600 H   0  0  0  0  0  0  0  0  0  0  0  0
  147.2509  153.9116  132.4666 H   0  0  0  0  0  0  0  0  0  0  0  0
  146.2588  151.6009  132.5534 H   0  0  0  0  0  0  0  0  0  0  0  0
  143.7929  150.1957  132.8395 H   0  0  0  0  0  0  0  0  0  0  0  0
  139.7760  151.8560  131.6170 H   0  0  0  0  0  0  0  0  0  0  0  0
  140.8822  156.4465  132.8479 H   0  0  0  0  0  0  0  0  0  0  0  0
  140.3398  156.8644  134.5081 H   0  0  0  0  0  0  0  0  0  0  0  0
  143.0079  159.3390  136.0400 H   0  0  0  0  0  0  0  0  0  0  0  0
  141.5152  160.2338  135.5950 H   0  0  0  0  0  0  0  0  0  0  0  0
  141.5193  158.4375  135.5950 H   0  0  0  0  0  0  0  0  0  0  0  0
  144.1273  160.6053  134.7305 H   0  0  0  0  0  0  0  0  0  0  0  0
  144.5538  159.7952  133.1850 H   0  0  0  0  0  0  0  0  0  0  0  0
  143.4249  161.1924  133.1850 H   0  0  0  0  0  0  0  0  0  0  0  0
  140.5658  160.1644  133.6684 H   0  0  0  0  0  0  0  0  0  0  0  0
  141.7365  160.6513  132.3959 H   0  0  0  0  0  0  0  0  0  0  0  0
  141.0485  158.9919  132.3959 H   0  0  0  0  0  0  0  0  0  0  0  0
  143.2867  155.6354  133.0542 H   0  0  0  0  0  0  0  0  0  0  0  0
  1  2  1  0
  2  3  1  0
  3  4  1  0
  4  5  2  0
  4  6  1  0
  6  7  1  0
  7  8  1  0
  8  9  1  0
  9 10  2  0
 10 11  1  0
 11 12  2  0
 12 13  1  0
 13 14  2  0
 14 15  1  0
 15 16  1  0
 15 17  2  0
 14 18  1  0
 18 19  1  0
 19 20  2  0
 19 21  1  0
 21 22  1  0
 22 23  1  0
 23 24  1  0
 24 25  2  0
 24 26  1  0
 26 27  1  0
 26 28  1  0
 26 29  1  0
 18 30  1  0
 30 31  2  0
 31  9  1  0
 30 12  1  0
  1 32  1  0
  1 33  1  0
  1 34  1  0
  2 35  1  0
  2 36  1  0
  6 37  1  0
  6 38  1  0
  7 39  1  0
  7 40  1  0
  8 41  1  0
  8 42  1  0
 10 43  1  0
 11 44  1  0
 13 45  1  0
 16 46  1  0
 22 47  1  0
 22 48  1  0
 27 49  1  0
 27 50  1  0
 27 51  1  0
 28 52  1  0
 28 53  1  0
 28 54  1  0
 29 55  1  0
 29 56  1  0
 29 57  1  0
 31 58  1  0
M  CHG  2   8   1  16  -1
M  END
>  <UniqueID>  (62) 
62

>  <SMILES>  (62) 
CCOC(=O)CC[NH2+]c1ccc2cc(C([NH-])=O)n(C(=O)OCOC(=O)C(C)(C)C)c2c1

>  <Energy>  (62) 
85.55502984479338

>  <Genealogy>  (62) 
CCOC(=O)CC[NH2+]c1ccc2cc(C([NH-])=O)n(C(=O)OCOC(=O)C(C)(C)C)c2c1 (protonated)
CCOC(=O)CC[NH2+]c1ccc2cc(C([NH-])=O)n(C(=O)OCOC(=O)C(C)(C)C)c2c1 (3D coordinates assigned)
CCOC(=O)CC[NH2+]c1ccc2cc(C([NH-])=O)n(C(=O)OCOC(=O)C(C)(C)C)c2c1 (optimized conformer: 85.55502984479338 kcal/mol)

>  <smiles>  (62) 
CCOC(=O)CCNc1ccc2cc(C(N)=O)n(C(=O)OCOC(=O)C(C)(C)C)c2c1

>  <score_type>  (62) 
oracle

>  <origin>  (62) 
adg

>  <m_score__min__energy>  (62) 
-7.2000000000000002

>  <m_primary>  (62) 
energy

$$$$
62:0
     RDKit          3D

 41 42  0  0  0  0  0  0  0  0999 V2000
  139.0530  149.5870  131.0870 C   0  0  0  0  0  0  0  0  0  0  0  0
  139.7560  150.5990  131.7730 O   0  0  0  0  0  0  0  0  0  0  0  0
  140.5780  150.0130  132.7590 C   0  0  0  0  0  0  0  0  0  0  0  0
  141.7800  150.9300  133.0150 C   0  0  0  0  0  0  0  0  0  0  0  0
  141.6200  152.2520  132.3850 N   0  0  0  0  0  0  0  0  0  0  0  0
  141.5150  153.3020  133.3710 C   0  0  0  0  0  0  0  0  0  0  0  0
  141.1330  154.6140  132.9860 C   0  0  0  0  0  0  0  0  0  0  0  0
  141.0430  155.6440  133.9360 C   0  0  0  0  0  0  0  0  0  0  0  0
  141.3520  155.3400  135.2590 C   0  0  0  0  0  0  0  0  0  0  0  0
  141.3390  156.1390  136.3810 C   0  0  0  0  0  0  0  0  0  0  0  0
  141.7340  155.3090  137.4290 C   0  0  0  0  0  0  0  0  0  0  0  0
  141.9170  155.7730  138.8200 C   0  0  0  0  0  0  0  0  0  0  0  0
  142.8280  155.0940  139.6830 N   0  0  0  0  0  0  0  0  0  0  0  0
  141.2620  156.7520  139.2650 O   0  0  0  0  0  0  0  0  0  0  0  0
  141.9820  154.0500  136.9710 N   0  0  0  0  0  0  0  0  0  0  0  0
  142.3790  152.8980  137.7310 C   0  0  0  0  0  0  0  0  0  0  0  0
  143.6070  152.6640  137.8990 O   0  0  0  0  0  0  0  0  0  0  0  0
  141.3890  152.0150  138.2980 N   0  0  0  0  0  0  0  0  0  0  0  0
  141.2180  151.9490  139.7520 C   0  0  0  0  0  0  0  0  0  0  0  0
  140.6110  151.1350  137.4630 C   0  0  0  0  0  0  0  0  0  0  0  0
  140.9770  150.8730  136.2860 O   0  0  0  0  0  0  0  0  0  0  0  0
  139.4520  150.5450  137.9540 O   0  0  0  0  0  0  0  0  0  0  0  0
  141.7390  154.0840  135.6440 C   0  0  0  0  0  0  0  0  0  0  0  0
  141.8150  153.0340  134.7260 C   0  0  0  0  0  0  0  0  0  0  0  0
  138.5824  148.9096  131.8148 H   0  0  0  0  0  0  0  0  0  0  0  0
  138.2765  150.0435  130.4556 H   0  0  0  0  0  0  0  0  0  0  0  0
  139.7517  149.0186  130.4556 H   0  0  0  0  0  0  0  0  0  0  0  0
  140.0053  149.8870  133.6896 H   0  0  0  0  0  0  0  0  0  0  0  0
  140.9278  149.0285  132.4148 H   0  0  0  0  0  0  0  0  0  0  0  0
  141.8952  151.0672  134.1003 H   0  0  0  0  0  0  0  0  0  0  0  0
  142.6671  150.4524  132.5735 H   0  0  0  0  0  0  0  0  0  0  0  0
  140.7450  152.2440  131.8100 H   0  0  0  0  0  0  0  0  0  0  0  0
  142.4160  152.4350  131.7300 H   0  0  0  0  0  0  0  0  0  0  0  0
  140.9048  154.8261  131.9310 H   0  0  0  0  0  0  0  0  0  0  0  0
  140.7378  156.6597  133.6440 H   0  0  0  0  0  0  0  0  0  0  0  0
  141.0735  157.2050  136.4379 H   0  0  0  0  0  0  0  0  0  0  0  0
  143.5680  154.4690  139.2950 H   0  0  0  0  0  0  0  0  0  0  0  0
  142.1352  152.3030  140.2455 H   0  0  0  0  0  0  0  0  0  0  0  0
  140.3719  152.5852  140.0509 H   0  0  0  0  0  0  0  0  0  0  0  0
  141.0186  150.9093  140.0509 H   0  0  0  0  0  0  0  0  0  0  0  0
  142.1015  152.0226  135.0499 H   0  0  0  0  0  0  0  0  0  0  0  0
  1  2  1  0
  2  3  1  0
  3  4  1  0
  4  5  1  0
  5  6  1  0
  6  7  2  0
  7  8  1  0
  8  9  2  0
  9 10  1  0
 10 11  2  0
 11 12  1  0
 12 13  1  0
 12 14  2  0
 11 15  1  0
 15 16  1  0
 16 17  2  0
 16 18  1  0
 18 19  1  0
 18 20  1  0
 20 21  2  0
 20 22  1  0
 15 23  1  0
 23 24  2  0
 24  6  1  0
 23  9  1  0
  1 25  1  0
  1 26  1  0
  1 27  1  0
  3 28  1  0
  3 29  1  0
  4 30  1  0
  4 31  1  0
  5 32  1  0
  5 33  1  0
  7 34  1  0
  8 35  1  0
 10 36  1  0
 13 37  1  0
 19 38  1  0
 19 39  1  0
 19 40  1  0
 24 41  1  0
M  CHG  3   5   1  13  -1  22  -1
M  END
>  <UniqueID>  (63) 
63

>  <SMILES>  (63) 
COCC[NH2+]c1ccc2cc(C([NH-])=O)n(C(=O)N(C)C(=O)[O-])c2c1

>  <Energy>  (63) 
80.94063842193546

>  <Genealogy>  (63) 
COCC[NH2+]c1ccc2cc(C([NH-])=O)n(C(=O)N(C)C(=O)[O-])c2c1 (protonated)
COCC[NH2+]c1ccc2cc(C([NH-])=O)n(C(=O)N(C)C(=O)[O-])c2c1 (3D coordinates assigned)
COCC[NH2+]c1ccc2cc(C([NH-])=O)n(C(=O)N(C)C(=O)[O-])c2c1 (optimized conformer: 80.94063842193546 kcal/mol)

>  <smiles>  (63) 
COCCNc1ccc2cc(C(N)=O)n(C(=O)N(C)C(=O)O)c2c1

>  <score_type>  (63) 
oracle

>  <origin>  (63) 
adg

>  <m_score__min__energy>  (63) 
-5.8899999999999997

>  <m_primary>  (63) 
energy

$$$$
63:0
     RDKit          3D

 31 32  0  0  0  0  0  0  0  0999 V2000
  149.0190  156.7760  132.2350 N   0  0  0  0  0  0  0  0  0  0  0  0
  148.7300  158.1400  132.5450 C   0  0  0  0  0  0  0  0  0  0  0  0
  149.6600  158.9880  132.5030 O   0  0  0  0  0  0  0  0  0  0  0  0
  147.3540  158.5660  132.8860 C   0  0  0  0  0  0  0  0  0  0  0  0
  146.9470  159.8970  132.9870 C   0  0  0  0  0  0  0  0  0  0  0  0
  145.6400  159.8470  133.4180 C   0  0  0  0  0  0  0  0  0  0  0  0
  144.7440  160.8780  133.6840 C   0  0  0  0  0  0  0  0  0  0  0  0
  143.4480  160.5320  134.1030 C   0  0  0  0  0  0  0  0  0  0  0  0
  143.0730  159.1720  134.2460 C   0  0  0  0  0  0  0  0  0  0  0  0
  141.6810  158.8240  134.6850 C   0  0  0  0  0  0  0  0  0  0  0  0
  141.5620  159.0100  136.0510 F   0  0  0  0  0  0  0  0  0  0  0  0
  140.7700  159.6360  134.0330 F   0  0  0  0  0  0  0  0  0  0  0  0
  144.0120  158.1530  133.9670 C   0  0  0  0  0  0  0  0  0  0  0  0
  145.2970  158.5290  133.5630 C   0  0  0  0  0  0  0  0  0  0  0  0
  146.3350  157.7310  133.2370 N   0  0  0  0  0  0  0  0  0  0  0  0
  146.3250  156.2940  133.2210 C   0  0  0  0  0  0  0  0  0  0  0  0
  146.0280  155.6830  132.1610 O   0  0  0  0  0  0  0  0  0  0  0  0
  146.7290  155.5110  134.4310 C   0  0  0  0  0  0  0  0  0  0  0  0
  148.0870  155.1050  134.2970 O   0  0  0  0  0  0  0  0  0  0  0  0
  148.4760  154.1420  133.3880 N   0  0  0  0  0  0  0  0  0  0  0  0
  147.8530  153.0660  133.2830 O   0  0  0  0  0  0  0  0  0  0  0  0
  149.5670  154.3740  132.5850 O   0  0  0  0  0  0  0  0  0  0  0  0
  148.2910  156.0320  132.3180 H   0  0  0  0  0  0  0  0  0  0  0  0
  149.9860  156.4950  131.9610 H   0  0  0  0  0  0  0  0  0  0  0  0
  147.5434  160.7952  132.7687 H   0  0  0  0  0  0  0  0  0  0  0  0
  145.0409  161.9310  133.5699 H   0  0  0  0  0  0  0  0  0  0  0  0
  142.7170  161.3242  134.3222 H   0  0  0  0  0  0  0  0  0  0  0  0
  141.4786  157.7713  134.4383 H   0  0  0  0  0  0  0  0  0  0  0  0
  143.7391  157.0919  134.0651 H   0  0  0  0  0  0  0  0  0  0  0  0
  146.6199  156.1384  135.3279 H   0  0  0  0  0  0  0  0  0  0  0  0
  146.0867  154.6231  134.5267 H   0  0  0  0  0  0  0  0  0  0  0  0
  1  2  1  0
  2  3  2  0
  2  4  1  0
  4  5  2  0
  5  6  1  0
  6  7  2  0
  7  8  1  0
  8  9  2  0
  9 10  1  0
 10 11  1  0
 10 12  1  0
  9 13  1  0
 13 14  2  0
 14 15  1  0
 15 16  1  0
 16 17  2  0
 16 18  1  0
 18 19  1  0
 19 20  1  0
 20 21  2  0
 20 22  1  0
 15  4  1  0
 14  6  1  0
  1 23  1  0
  1 24  1  0
  5 25  1  0
  7 26  1  0
  8 27  1  0
 10 28  1  0
 13 29  1  0
 18 30  1  0
 18 31  1  0
M  CHG  2  20   1  22  -1
M  END
>  <UniqueID>  (64) 
64

>  <SMILES>  (64) 
NC(=O)c1cc2ccc(C(F)F)cc2n1C(=O)CO[N+](=O)[O-]

>  <Energy>  (64) 
67.92578000221295

>  <Genealogy>  (64) 
NC(=O)c1cc2ccc(C(F)F)cc2n1C(=O)CO[N+](=O)[O-] (3D coordinates assigned)
NC(=O)c1cc2ccc(C(F)F)cc2n1C(=O)CO[N+](=O)[O-] (optimized conformer: 67.92578000221295 kcal/mol)

>  <smiles>  (64) 
NC(=O)c1cc2ccc(C(F)F)cc2n1C(=O)CO[N+](=O)[O-]

>  <score_type>  (64) 
oracle

>  <origin>  (64) 
adg

>  <m_score__min__energy>  (64) 
-6.3700000000000001

>  <m_primary>  (64) 
energy

$$$$
64:0
     RDKit          3D

 30 31  0  0  0  0  0  0  0  0999 V2000
  149.2580  162.0330  130.3560 C   0  0  0  0  0  0  0  0  0  0  0  0
  149.1030  160.7500  131.1150 C   0  0  0  0  0  0  0  0  0  0  0  0
  150.1400  159.7860  131.0960 C   0  0  0  0  0  0  0  0  0  0  0  0
  149.9880  158.5580  131.7620 C   0  0  0  0  0  0  0  0  0  0  0  0
  148.7910  158.3240  132.4330 C   0  0  0  0  0  0  0  0  0  0  0  0
  148.3690  157.2150  133.1300 C   0  0  0  0  0  0  0  0  0  0  0  0
  147.0840  157.5220  133.5730 C   0  0  0  0  0  0  0  0  0  0  0  0
  146.2910  156.6300  134.4440 C   0  0  0  0  0  0  0  0  0  0  0  0
  144.8670  156.6190  134.3800 N   0  0  0  0  0  0  0  0  0  0  0  0
  146.8760  155.9040  135.2910 O   0  0  0  0  0  0  0  0  0  0  0  0
  146.7200  158.7690  133.1560 N   0  0  0  0  0  0  0  0  0  0  0  0
  145.4550  159.4240  133.3290 C   0  0  0  0  0  0  0  0  0  0  0  0
  144.4380  159.0070  132.7080 O   0  0  0  0  0  0  0  0  0  0  0  0
  145.3600  160.5400  134.1650 O   0  0  0  0  0  0  0  0  0  0  0  0
  144.3200  161.5040  134.0480 C   0  0  0  0  0  0  0  0  0  0  0  0
  144.9090  162.8730  134.1270 C   0  0  0  0  0  0  0  0  0  0  0  0
  144.2880  163.8580  133.6490 O   0  0  0  0  0  0  0  0  0  0  0  0
  146.1190  163.0710  134.7780 O   0  0  0  0  0  0  0  0  0  0  0  0
  147.7780  159.2470  132.4630 C   0  0  0  0  0  0  0  0  0  0  0  0
  147.8950  160.4700  131.7910 C   0  0  0  0  0  0  0  0  0  0  0  0
  149.3589  162.8683  131.0646 H   0  0  0  0  0  0  0  0  0  0  0  0
  150.1561  161.9785  129.7232 H   0  0  0  0  0  0  0  0  0  0  0  0
  148.3728  162.1939  129.7232 H   0  0  0  0  0  0  0  0  0  0  0  0
  151.0733  160.0004  130.5548 H   0  0  0  0  0  0  0  0  0  0  0  0
  150.7899  157.8051  131.7534 H   0  0  0  0  0  0  0  0  0  0  0  0
  148.9279  156.2832  133.3012 H   0  0  0  0  0  0  0  0  0  0  0  0
  144.3280  157.5030  134.2480 H   0  0  0  0  0  0  0  0  0  0  0  0
  143.8089  161.3785  133.0821 H   0  0  0  0  0  0  0  0  0  0  0  0
  143.5947  161.3660  134.8634 H   0  0  0  0  0  0  0  0  0  0  0  0
  147.0671  161.1942  131.7897 H   0  0  0  0  0  0  0  0  0  0  0  0
  1  2  1  0
  2  3  2  0
  3  4  1  0
  4  5  2  0
  5  6  1  0
  6  7  2  0
  7  8  1  0
  8  9  1  0
  8 10  2  0
  7 11  1  0
 11 12  1  0
 12 13  2  0
 12 14  1  0
 14 15  1  0
 15 16  1  0
 16 17  2  0
 16 18  1  0
 11 19  1  0
 19 20  2  0
 20  2  1  0
 19  5  1  0
  1 21  1  0
  1 22  1  0
  1 23  1  0
  3 24  1  0
  4 25  1  0
  6 26  1  0
  9 27  1  0
 15 28  1  0
 15 29  1  0
 20 30  1  0
M  CHG  2   9  -1  18  -1
M  END
>  <UniqueID>  (65) 
65

>  <SMILES>  (65) 
Cc1ccc2cc(C([NH-])=O)n(C(=O)OCC(=O)[O-])c2c1

>  <Energy>  (65) 
65.72615493802319

>  <Genealogy>  (65) 
Cc1ccc2cc(C([NH-])=O)n(C(=O)OCC(=O)[O-])c2c1 (protonated)
Cc1ccc2cc(C([NH-])=O)n(C(=O)OCC(=O)[O-])c2c1 (3D coordinates assigned)
Cc1ccc2cc(C([NH-])=O)n(C(=O)OCC(=O)[O-])c2c1 (optimized conformer: 65.72615493802319 kcal/mol)

>  <smiles>  (65) 
Cc1ccc2cc(C(N)=O)n(C(=O)OCC(=O)O)c2c1

>  <score_type>  (65) 
oracle

>  <origin>  (65) 
adg

>  <m_score__min__energy>  (65) 
-6.1900000000000004

>  <m_primary>  (65) 
energy

$$$$
66:0
     RDKit          3D

 45 46  0  0  0  0  0  0  0  0999 V2000
  144.3570  154.5030  131.0030 C   0  0  0  0  0  0  0  0  0  0  0  0
  143.6710  154.7090  132.2870 N   0  0  1  0  0  0  0  0  0  0  0  0
  143.3210  153.4440  132.8890 C   0  0  0  0  0  0  0  0  0  0  0  0
  144.0800  152.9190  133.7510 O   0  0  0  0  0  0  0  0  0  0  0  0
  142.1300  152.8110  132.5010 O   0  0  0  0  0  0  0  0  0  0  0  0
  141.6370  151.5540  132.9850 C   0  0  0  0  0  0  0  0  0  0  0  0
  140.2780  151.3100  132.3120 C   0  0  0  0  0  0  0  0  0  0  0  0
  141.4340  151.6020  134.5120 C   0  0  0  0  0  0  0  0  0  0  0  0
  142.5960  150.4110  132.6010 C   0  0  0  0  0  0  0  0  0  0  0  0
  144.4990  155.4990  133.1700 C   0  0  0  0  0  0  0  0  0  0  0  0
  145.6240  155.0700  133.5510 O   0  0  0  0  0  0  0  0  0  0  0  0
  144.1220  156.8450  133.4900 N   0  0  0  0  0  0  0  0  0  0  0  0
  142.8880  157.3170  133.8190 C   0  0  0  0  0  0  0  0  0  0  0  0
  141.6910  156.4930  134.0790 C   0  0  0  0  0  0  0  0  0  0  0  0
  141.1040  155.7130  133.0420 N   0  0  0  0  0  0  0  0  0  0  0  0
  141.2040  156.4430  135.2400 O   0  0  0  0  0  0  0  0  0  0  0  0
  142.9160  158.7050  133.9470 C   0  0  0  0  0  0  0  0  0  0  0  0
  144.2180  159.0680  133.6890 C   0  0  0  0  0  0  0  0  0  0  0  0
  144.8150  160.3250  133.6780 C   0  0  0  0  0  0  0  0  0  0  0  0
  146.1820  160.4020  133.3600 C   0  0  0  0  0  0  0  0  0  0  0  0
  146.9200  159.2330  133.0370 C   0  0  0  0  0  0  0  0  0  0  0  0
  148.3950  159.3230  132.7380 C   0  0  0  0  0  0  0  0  0  0  0  0
  148.8070  158.2360  131.9860 F   0  0  0  0  0  0  0  0  0  0  0  0
  148.6820  160.4750  132.0260 F   0  0  0  0  0  0  0  0  0  0  0  0
  149.1000  159.3410  133.9260 F   0  0  0  0  0  0  0  0  0  0  0  0
  146.2810  157.9730  133.0830 C   0  0  0  0  0  0  0  0  0  0  0  0
  144.9240  157.9270  133.4150 C   0  0  0  0  0  0  0  0  0  0  0  0
  145.3955  154.1912  131.1880 H   0  0  0  0  0  0  0  0  0  0  0  0
  143.8360  153.7217  130.4302 H   0  0  0  0  0  0  0  0  0  0  0  0
  144.3527  155.4421  130.4302 H   0  0  0  0  0  0  0  0  0  0  0  0
  142.7870  155.2350  132.0940 H   0  0  0  0  0  0  0  0  0  0  0  0
  139.5063  151.1714  133.0836 H   0  0  0  0  0  0  0  0  0  0  0  0
  140.0185  152.1759  131.6852 H   0  0  0  0  0  0  0  0  0  0  0  0
  140.3359  150.4079  131.6852 H   0  0  0  0  0  0  0  0  0  0  0  0
  142.3857  151.3769  135.0156 H   0  0  0  0  0  0  0  0  0  0  0  0
  141.0924  152.6057  134.8051 H   0  0  0  0  0  0  0  0  0  0  0  0
  140.6790  150.8576  134.8051 H   0  0  0  0  0  0  0  0  0  0  0  0
  142.9904  149.9409  133.5140 H   0  0  0  0  0  0  0  0  0  0  0  0
  142.0531  149.6607  132.0074 H   0  0  0  0  0  0  0  0  0  0  0  0
  143.4292  150.8153  132.0074 H   0  0  0  0  0  0  0  0  0  0  0  0
  141.6220  154.9160  132.6100 H   0  0  0  0  0  0  0  0  0  0  0  0
  142.0761  159.3687  134.2003 H   0  0  0  0  0  0  0  0  0  0  0  0
  144.2351  161.2302  133.9109 H   0  0  0  0  0  0  0  0  0  0  0  0
  146.6860  161.3797  133.3614 H   0  0  0  0  0  0  0  0  0  0  0  0
  146.8384  157.0506  132.8627 H   0  0  0  0  0  0  0  0  0  0  0  0
  1  2  1  0
  2  3  1  0
  3  4  2  0
  3  5  1  0
  5  6  1  0
  6  7  1  0
  6  8  1  0
  6  9  1  0
  2 10  1  0
 10 11  2  0
 10 12  1  0
 12 13  1  0
 13 14  1  0
 14 15  1  0
 14 16  2  0
 13 17  2  0
 17 18  1  0
 18 19  2  0
 19 20  1  0
 20 21  2  0
 21 22  1  0
 22 23  1  0
 22 24  1  0
 22 25  1  0
 21 26  1  0
 26 27  2  0
 27 12  1  0
 27 18  1  0
  1 28  1  0
  1 29  1  0
  1 30  1  0
  2 31  1  6
  7 32  1  0
  7 33  1  0
  7 34  1  0
  8 35  1  0
  8 36  1  0
  8 37  1  0
  9 38  1  0
  9 39  1  0
  9 40  1  0
 15 41  1  0
 17 42  1  0
 19 43  1  0
 20 44  1  0
 26 45  1  0
M  CHG  2   2   1  15  -1
M  END
>  <UniqueID>  (66) 
66

>  <SMILES>  (66) 
C[NH+](C(=O)OC(C)(C)C)C(=O)n1c(C([NH-])=O)cc2ccc(C(F)(F)F)cc21

>  <Energy>  (66) 
82.46281812626856

>  <Genealogy>  (66) 
C[NH+](C(=O)OC(C)(C)C)C(=O)n1c(C([NH-])=O)cc2ccc(C(F)(F)F)cc21 (protonated)
C[NH+](C(=O)OC(C)(C)C)C(=O)n1c(C([NH-])=O)cc2ccc(C(F)(F)F)cc21 (3D coordinates assigned)
C[NH+](C(=O)OC(C)(C)C)C(=O)n1c(C([NH-])=O)cc2ccc(C(F)(F)F)cc21 (optimized conformer: 82.46281812626856 kcal/mol)

>  <smiles>  (66) 
CN(C(=O)OC(C)(C)C)C(=O)n1c(C(N)=O)cc2ccc(C(F)(F)F)cc21

>  <score_type>  (66) 
oracle

>  <origin>  (66) 
adg

>  <m_score__min__energy>  (66) 
-6.4500000000000002

>  <m_primary>  (66) 
energy

$$$$
67:0
     RDKit          3D

 40 41  0  0  0  0  0  0  0  0999 V2000
  144.7610  160.2730  133.6490 C   0  0  0  0  0  0  0  0  0  0  0  0
  145.9080  159.3300  133.4420 C   0  0  0  0  0  0  0  0  0  0  0  0
  147.1730  159.8320  133.0500 C   0  0  0  0  0  0  0  0  0  0  0  0
  148.2440  158.9570  132.8020 C   0  0  0  0  0  0  0  0  0  0  0  0
  148.0180  157.5920  132.9520 C   0  0  0  0  0  0  0  0  0  0  0  0
  148.8650  156.5290  132.7450 C   0  0  0  0  0  0  0  0  0  0  0  0
  148.1090  155.3930  133.0240 C   0  0  0  0  0  0  0  0  0  0  0  0
  148.6630  154.0240  133.0020 C   0  0  0  0  0  0  0  0  0  0  0  0
  148.0820  152.9840  133.7840 N   0  0  0  0  0  0  0  0  0  0  0  0
  149.6940  153.7800  132.3190 O   0  0  0  0  0  0  0  0  0  0  0  0
  146.8390  155.7390  133.3800 N   0  0  0  0  0  0  0  0  0  0  0  0
  145.7330  154.8610  133.6400 C   0  0  0  0  0  0  0  0  0  0  0  0
  144.8070  154.7440  132.7910 O   0  0  0  0  0  0  0  0  0  0  0  0
  145.6960  154.1230  134.8270 O   0  0  0  0  0  0  0  0  0  0  0  0
  146.4260  154.4960  135.9910 C   0  0  0  0  0  0  0  0  0  0  0  0
  146.7880  153.3300  136.7220 O   0  0  0  0  0  0  0  0  0  0  0  0
  148.0960  153.0730  137.1440 C   0  0  0  0  0  0  0  0  0  0  0  0
  148.9200  152.5080  136.3710 O   0  0  0  0  0  0  0  0  0  0  0  0
  148.5160  153.4790  138.5280 C   0  0  0  0  0  0  0  0  0  0  0  0
  148.4060  152.2940  139.4940 C   0  0  0  0  0  0  0  0  0  0  0  0
  149.9390  154.0460  138.5150 C   0  0  0  0  0  0  0  0  0  0  0  0
  146.8010  157.0900  133.3340 C   0  0  0  0  0  0  0  0  0  0  0  0
  145.7110  157.9370  133.5670 C   0  0  0  0  0  0  0  0  0  0  0  0
  144.5911  160.4127  134.7268 H   0  0  0  0  0  0  0  0  0  0  0  0
  144.9956  161.2429  133.1860 H   0  0  0  0  0  0  0  0  0  0  0  0
  143.8548  159.8553  133.1860 H   0  0  0  0  0  0  0  0  0  0  0  0
  147.3183  160.9167  132.9387 H   0  0  0  0  0  0  0  0  0  0  0  0
  149.2300  159.3388  132.4988 H   0  0  0  0  0  0  0  0  0  0  0  0
  149.9172  156.5676  132.4264 H   0  0  0  0  0  0  0  0  0  0  0  0
  147.6620  153.1860  134.7180 H   0  0  0  0  0  0  0  0  0  0  0  0
  147.3354  155.0390  135.6943 H   0  0  0  0  0  0  0  0  0  0  0  0
  145.8000  155.1433  136.6227 H   0  0  0  0  0  0  0  0  0  0  0  0
  147.8374  154.2700  138.8800 H   0  0  0  0  0  0  0  0  0  0  0  0
  148.4401  152.6613  140.5303 H   0  0  0  0  0  0  0  0  0  0  0  0
  147.4552  151.7682  139.3225 H   0  0  0  0  0  0  0  0  0  0  0  0
  149.2438  151.6021  139.3225 H   0  0  0  0  0  0  0  0  0  0  0  0
  150.2878  154.1850  139.5489 H   0  0  0  0  0  0  0  0  0  0  0  0
  150.6080  153.3457  137.9934 H   0  0  0  0  0  0  0  0  0  0  0  0
  149.9431  155.0144  137.9934 H   0  0  0  0  0  0  0  0  0  0  0  0
  144.7269  157.5284  133.8403 H   0  0  0  0  0  0  0  0  0  0  0  0
  1  2  1  0
  2  3  2  0
  3  4  1  0
  4  5  2  0
  5  6  1  0
  6  7  2  0
  7  8  1  0
  8  9  1  0
  8 10  2  0
  7 11  1  0
 11 12  1  0
 12 13  2  0
 12 14  1  0
 14 15  1  0
 15 16  1  0
 16 17  1  0
 17 18  2  0
 17 19  1  0
 19 20  1  0
 19 21  1  0
 11 22  1  0
 22 23  2  0
 23  2  1  0
 22  5  1  0
  1 24  1  0
  1 25  1  0
  1 26  1  0
  3 27  1  0
  4 28  1  0
  6 29  1  0
  9 30  1  0
 15 31  1  0
 15 32  1  0
 19 33  1  0
 20 34  1  0
 20 35  1  0
 20 36  1  0
 21 37  1  0
 21 38  1  0
 21 39  1  0
 23 40  1  0
M  CHG  1   9  -1
M  END
>  <UniqueID>  (67) 
67

>  <SMILES>  (67) 
Cc1ccc2cc(C([NH-])=O)n(C(=O)OCOC(=O)C(C)C)c2c1

>  <Energy>  (67) 
69.62818426669465

>  <Genealogy>  (67) 
Cc1ccc2cc(C([NH-])=O)n(C(=O)OCOC(=O)C(C)C)c2c1 (protonated)
Cc1ccc2cc(C([NH-])=O)n(C(=O)OCOC(=O)C(C)C)c2c1 (3D coordinates assigned)
Cc1ccc2cc(C([NH-])=O)n(C(=O)OCOC(=O)C(C)C)c2c1 (optimized conformer: 69.62818426669465 kcal/mol)

>  <smiles>  (67) 
Cc1ccc2cc(C(N)=O)n(C(=O)OCOC(=O)C(C)C)c2c1

>  <score_type>  (67) 
oracle

>  <origin>  (67) 
adg

>  <m_score__min__energy>  (67) 
-6.3600000000000003

>  <m_primary>  (67) 
energy

$$$$
68:0
     RDKit          3D

 32 33  0  0  0  0  0  0  0  0999 V2000
  140.1880  158.1770  133.4080 C   0  0  0  0  0  0  0  0  0  0  0  0
  141.2020  157.9510  134.5360 C   0  0  2  0  0  0  0  0  0  0  0  0
  140.6950  158.4820  135.8510 C   0  0  0  0  0  0  0  0  0  0  0  0
  139.5160  158.2310  136.2150 O   0  0  0  0  0  0  0  0  0  0  0  0
  141.5330  159.2010  136.6960 O   0  0  0  0  0  0  0  0  0  0  0  0
  142.5440  158.5650  134.1950 C   0  0  0  0  0  0  0  0  0  0  0  0
  142.6600  159.9730  134.0520 C   0  0  0  0  0  0  0  0  0  0  0  0
  143.8920  160.5640  133.7290 C   0  0  0  0  0  0  0  0  0  0  0  0
  144.9940  159.7300  133.5630 C   0  0  0  0  0  0  0  0  0  0  0  0
  146.2920  160.0350  133.2260 C   0  0  0  0  0  0  0  0  0  0  0  0
  146.9620  158.8130  133.1930 C   0  0  0  0  0  0  0  0  0  0  0  0
  148.4150  158.6910  132.9510 C   0  0  0  0  0  0  0  0  0  0  0  0
  148.9150  157.9250  131.8580 N   0  0  0  0  0  0  0  0  0  0  0  0
  149.2270  159.2290  133.7500 O   0  0  0  0  0  0  0  0  0  0  0  0
  146.1080  157.7920  133.4880 N   0  0  0  0  0  0  0  0  0  0  0  0
  146.3820  156.3820  133.4810 C   0  0  0  0  0  0  0  0  0  0  0  0
  146.9160  155.8540  132.4680 O   0  0  0  0  0  0  0  0  0  0  0  0
  146.0270  155.6050  134.5930 O   0  0  0  0  0  0  0  0  0  0  0  0
  146.9340  154.9930  135.4670 C   0  0  0  0  0  0  0  0  0  0  0  0
  148.0120  155.5540  135.7940 O   0  0  0  0  0  0  0  0  0  0  0  0
  146.6360  153.7390  135.9820 O   0  0  0  0  0  0  0  0  0  0  0  0
  144.9080  158.3700  133.7160 C   0  0  0  0  0  0  0  0  0  0  0  0
  143.6890  157.7520  134.0180 C   0  0  0  0  0  0  0  0  0  0  0  0
  139.2010  158.3970  133.8409 H   0  0  0  0  0  0  0  0  0  0  0  0
  140.5132  159.0247  132.7870 H   0  0  0  0  0  0  0  0  0  0  0  0
  140.1225  157.2714  132.7870 H   0  0  0  0  0  0  0  0  0  0  0  0
  141.3363  156.8643  134.6411 H   0  0  0  0  0  0  0  0  0  0  0  0
  141.7738  160.6085  134.1960 H   0  0  0  0  0  0  0  0  0  0  0  0
  143.9836  161.6538  133.6106 H   0  0  0  0  0  0  0  0  0  0  0  0
  146.7122  161.0315  133.0252 H   0  0  0  0  0  0  0  0  0  0  0  0
  148.3790  157.1130  131.4810 H   0  0  0  0  0  0  0  0  0  0  0  0
  143.6223  156.6584  134.1157 H   0  0  0  0  0  0  0  0  0  0  0  0
  1  2  1  0
  2  3  1  0
  3  4  2  0
  3  5  1  0
  2  6  1  0
  6  7  2  0
  7  8  1  0
  8  9  2  0
  9 10  1  0
 10 11  2  0
 11 12  1  0
 12 13  1  0
 12 14  2  0
 11 15  1  0
 15 16  1  0
 16 17  2  0
 16 18  1  0
 18 19  1  0
 19 20  2  0
 19 21  1  0
 15 22  1  0
 22 23  2  0
 23  6  1  0
 22  9  1  0
  1 24  1  0
  1 25  1  0
  1 26  1  0
  2 27  1  1
  7 28  1  0
  8 29  1  0
 10 30  1  0
 13 31  1  0
 23 32  1  0
M  CHG  3   5  -1  13  -1  21  -1
M  END
>  <UniqueID>  (68) 
68

>  <SMILES>  (68) 
C[C@H](C(=O)[O-])c1ccc2cc(C([NH-])=O)n(C(=O)OC(=O)[O-])c2c1

>  <Energy>  (68) 
71.27896366947962

>  <Genealogy>  (68) 
CC(C(=O)[O-])c1ccc2cc(C([NH-])=O)n(C(=O)OC(=O)[O-])c2c1 (protonated)
C[C@H](C(=O)[O-])c1ccc2cc(C([NH-])=O)n(C(=O)OC(=O)[O-])c2c1 (chirality)
C[C@H](C(=O)[O-])c1ccc2cc(C([NH-])=O)n(C(=O)OC(=O)[O-])c2c1 (3D coordinates assigned)
C[C@H](C(=O)[O-])c1ccc2cc(C([NH-])=O)n(C(=O)OC(=O)[O-])c2c1 (optimized conformer: 71.27896366947962 kcal/mol)

>  <smiles>  (68) 
CC(C(=O)O)c1ccc2cc(C(N)=O)n(C(=O)OC(=O)O)c2c1

>  <score_type>  (68) 
oracle

>  <origin>  (68) 
adg

>  <m_score__min__energy>  (68) 
-6.4800000000000004

>  <m_primary>  (68) 
energy

$$$$
70:0
     RDKit          3D

 42 44  0  0  0  0  0  0  0  0999 V2000
  138.3830  158.2810  132.9960 C   0  0  0  0  0  0  0  0  0  0  0  0
  139.1670  157.8170  134.1780 C   0  0  0  0  0  0  0  0  0  0  0  0
  138.8890  158.1250  135.4230 O   0  0  0  0  0  0  0  0  0  0  0  0
  139.8190  157.5510  136.1520 C   0  0  0  0  0  0  0  0  0  0  0  0
  139.8680  157.6300  137.4070 O   0  0  0  0  0  0  0  0  0  0  0  0
  140.6900  156.8880  135.4280 O   0  0  0  0  0  0  0  0  0  0  0  0
  140.3140  157.0400  134.1810 C   0  0  0  0  0  0  0  0  0  0  0  0
  141.0250  156.4430  133.0010 C   0  0  0  0  0  0  0  0  0  0  0  0
  142.1840  157.2030  132.6710 O   0  0  0  0  0  0  0  0  0  0  0  0
  143.2170  157.4590  133.5790 C   0  0  0  0  0  0  0  0  0  0  0  0
  143.5770  156.5770  134.4070 O   0  0  0  0  0  0  0  0  0  0  0  0
  143.8300  158.7540  133.6070 N   0  0  0  0  0  0  0  0  0  0  0  0
  143.2680  159.9370  133.9790 C   0  0  0  0  0  0  0  0  0  0  0  0
  141.8390  160.1610  134.2790 C   0  0  0  0  0  0  0  0  0  0  0  0
  141.3290  159.9870  135.5990 N   0  0  0  0  0  0  0  0  0  0  0  0
  141.0480  160.4770  133.3500 O   0  0  0  0  0  0  0  0  0  0  0  0
  144.2280  160.9480  133.9880 C   0  0  0  0  0  0  0  0  0  0  0  0
  145.4040  160.3380  133.6130 C   0  0  0  0  0  0  0  0  0  0  0  0
  146.6850  160.8620  133.4900 C   0  0  0  0  0  0  0  0  0  0  0  0
  147.7260  159.9850  133.1390 C   0  0  0  0  0  0  0  0  0  0  0  0
  147.4810  158.5990  132.9270 C   0  0  0  0  0  0  0  0  0  0  0  0
  148.5660  157.6960  132.5890 N   0  0  0  0  0  0  0  0  0  0  0  0
  149.7500  158.1880  131.8750 C   0  0  0  0  0  0  0  0  0  0  0  0
  148.4980  156.2770  132.9590 C   0  0  0  0  0  0  0  0  0  0  0  0
  146.1540  158.1130  133.0620 C   0  0  0  0  0  0  0  0  0  0  0  0
  145.1380  159.0150  133.3920 C   0  0  0  0  0  0  0  0  0  0  0  0
  137.4835  158.8134  133.3387 H   0  0  0  0  0  0  0  0  0  0  0  0
  139.0013  158.9588  132.3890 H   0  0  0  0  0  0  0  0  0  0  0  0
  138.0864  157.4129  132.3890 H   0  0  0  0  0  0  0  0  0  0  0  0
  141.3262  155.4134  133.2445 H   0  0  0  0  0  0  0  0  0  0  0  0
  140.3424  156.4484  132.1384 H   0  0  0  0  0  0  0  0  0  0  0  0
  140.8460  159.1040  135.8770 H   0  0  0  0  0  0  0  0  0  0  0  0
  144.0778  162.0079  134.2410 H   0  0  0  0  0  0  0  0  0  0  0  0
  146.8787  161.9310  133.6621 H   0  0  0  0  0  0  0  0  0  0  0  0
  148.7477  160.3767  133.0262 H   0  0  0  0  0  0  0  0  0  0  0  0
  150.5118  158.5045  132.6027 H   0  0  0  0  0  0  0  0  0  0  0  0
  150.1575  157.3847  131.2436 H   0  0  0  0  0  0  0  0  0  0  0  0
  149.4682  159.0435  131.2436 H   0  0  0  0  0  0  0  0  0  0  0  0
  148.4935  156.1837  134.0550 H   0  0  0  0  0  0  0  0  0  0  0  0
  147.5776  155.8350  132.5496 H   0  0  0  0  0  0  0  0  0  0  0  0
  149.3719  155.7490  132.5496 H   0  0  0  0  0  0  0  0  0  0  0  0
  145.9294  157.0470  132.9098 H   0  0  0  0  0  0  0  0  0  0  0  0
  1  2  1  0
  2  3  1  0
  3  4  1  0
  4  5  2  0
  4  6  1  0
  6  7  1  0
  7  8  1  0
  8  9  1  0
  9 10  1  0
 10 11  2  0
 10 12  1  0
 12 13  1  0
 13 14  1  0
 14 15  1  0
 14 16  2  0
 13 17  2  0
 17 18  1  0
 18 19  2  0
 19 20  1  0
 20 21  2  0
 21 22  1  0
 22 23  1  0
 22 24  1  0
 21 25  1  0
 25 26  2  0
  7  2  2  0
 26 12  1  0
 26 18  1  0
  1 27  1  0
  1 28  1  0
  1 29  1  0
  8 30  1  0
  8 31  1  0
 15 32  1  0
 17 33  1  0
 19 34  1  0
 20 35  1  0
 23 36  1  0
 23 37  1  0
 23 38  1  0
 24 39  1  0
 24 40  1  0
 24 41  1  0
 25 42  1  0
M  CHG  1  15  -1
M  END
>  <UniqueID>  (69) 
69

>  <SMILES>  (69) 
Cc1oc(=O)oc1COC(=O)n1c(C([NH-])=O)cc2ccc(N(C)C)cc21

>  <Energy>  (69) 
113.42167670659329

>  <Genealogy>  (69) 
Cc1oc(=O)oc1COC(=O)n1c(C([NH-])=O)cc2ccc(N(C)C)cc21 (protonated)
Cc1oc(=O)oc1COC(=O)n1c(C([NH-])=O)cc2ccc(N(C)C)cc21 (3D coordinates assigned)
Cc1oc(=O)oc1COC(=O)n1c(C([NH-])=O)cc2ccc(N(C)C)cc21 (optimized conformer: 113.42167670659329 kcal/mol)

>  <smiles>  (69) 
Cc1oc(=O)oc1COC(=O)n1c(C(N)=O)cc2ccc(N(C)C)cc21

>  <score_type>  (69) 
oracle

>  <origin>  (69) 
adg

>  <m_score__min__energy>  (69) 
-6.6299999999999999

>  <m_primary>  (69) 
energy

$$$$
71:0
     RDKit          3D

 37 38  0  0  0  0  0  0  0  0999 V2000
  141.5460  157.5720  133.6660 C   0  0  0  0  0  0  0  0  0  0  0  0
  142.2710  158.5130  134.5300 N   0  0  0  0  0  0  0  0  0  0  0  0
  141.6780  158.8980  135.8160 C   0  0  0  0  0  0  0  0  0  0  0  0
  143.5540  159.0540  134.1160 C   0  0  0  0  0  0  0  0  0  0  0  0
  143.7800  160.4610  134.1010 C   0  0  0  0  0  0  0  0  0  0  0  0
  145.0220  160.9930  133.7130 C   0  0  0  0  0  0  0  0  0  0  0  0
  146.0230  160.1070  133.3380 C   0  0  0  0  0  0  0  0  0  0  0  0
  147.3200  160.3470  132.9430 C   0  0  0  0  0  0  0  0  0  0  0  0
  147.8710  159.0880  132.7030 C   0  0  0  0  0  0  0  0  0  0  0  0
  149.2420  158.8750  132.1980 C   0  0  0  0  0  0  0  0  0  0  0  0
  149.8090  157.5690  132.1550 N   0  0  0  0  0  0  0  0  0  0  0  0
  149.9100  159.8530  131.7680 O   0  0  0  0  0  0  0  0  0  0  0  0
  146.9510  158.1150  132.9450 N   0  0  0  0  0  0  0  0  0  0  0  0
  147.1380  156.6920  132.9160 C   0  0  0  0  0  0  0  0  0  0  0  0
  146.3070  155.9780  132.2890 O   0  0  0  0  0  0  0  0  0  0  0  0
  148.1670  156.0840  133.7280 N   0  0  1  0  0  0  0  0  0  0  0  0
  147.7390  156.0510  135.1340 C   0  0  0  0  0  0  0  0  0  0  0  0
  148.4910  154.7570  133.2630 C   0  0  0  0  0  0  0  0  0  0  0  0
  147.9420  153.7400  133.7710 O   0  0  0  0  0  0  0  0  0  0  0  0
  149.4300  154.5850  132.2520 O   0  0  0  0  0  0  0  0  0  0  0  0
  145.8270  158.7540  133.3300 C   0  0  0  0  0  0  0  0  0  0  0  0
  144.6100  158.1900  133.7220 C   0  0  0  0  0  0  0  0  0  0  0  0
  140.9927  156.8539  134.2890 H   0  0  0  0  0  0  0  0  0  0  0  0
  140.8397  158.1269  133.0310 H   0  0  0  0  0  0  0  0  0  0  0  0
  142.2627  157.0306  133.0310 H   0  0  0  0  0  0  0  0  0  0  0  0
  142.2921  158.4993  136.6369 H   0  0  0  0  0  0  0  0  0  0  0  0
  141.6378  159.9949  135.8875 H   0  0  0  0  0  0  0  0  0  0  0  0
  140.6596  158.4883  135.8875 H   0  0  0  0  0  0  0  0  0  0  0  0
  142.9690  161.1422  134.3980 H   0  0  0  0  0  0  0  0  0  0  0  0
  145.1957  162.0792  133.7067 H   0  0  0  0  0  0  0  0  0  0  0  0
  147.8160  161.3233  132.8389 H   0  0  0  0  0  0  0  0  0  0  0  0
  149.2480  156.7500  131.8300 H   0  0  0  0  0  0  0  0  0  0  0  0
  149.0310  156.6720  133.6720 H   0  0  0  0  0  0  0  0  0  0  0  0
  148.6212  156.1190  135.7875 H   0  0  0  0  0  0  0  0  0  0  0  0
  147.0687  156.9001  135.3333 H   0  0  0  0  0  0  0  0  0  0  0  0
  147.2068  155.1091  135.3333 H   0  0  0  0  0  0  0  0  0  0  0  0
  144.4727  157.0986  133.7253 H   0  0  0  0  0  0  0  0  0  0  0  0
  1  2  1  0
  2  3  1  0
  2  4  1  0
  4  5  2  0
  5  6  1  0
  6  7  2  0
  7  8  1  0
  8  9  2  0
  9 10  1  0
 10 11  1  0
 10 12  2  0
  9 13  1  0
 13 14  1  0
 14 15  2  0
 14 16  1  0
 16 17  1  0
 16 18  1  0
 18 19  2  0
 18 20  1  0
 13 21  1  0
 21 22  2  0
 22  4  1  0
 21  7  1  0
  1 23  1  0
  1 24  1  0
  1 25  1  0
  3 26  1  0
  3 27  1  0
  3 28  1  0
  5 29  1  0
  6 30  1  0
  8 31  1  0
 11 32  1  0
 16 33  1  1
 17 34  1  0
 17 35  1  0
 17 36  1  0
 22 37  1  0
M  CHG  3  11  -1  16   1  20  -1
M  END
>  <UniqueID>  (70) 
70

>  <SMILES>  (70) 
CN(C)c1ccc2cc(C([NH-])=O)n(C(=O)[NH+](C)C(=O)[O-])c2c1

>  <Energy>  (70) 
81.20078771307675

>  <Genealogy>  (70) 
CN(C)c1ccc2cc(C([NH-])=O)n(C(=O)[NH+](C)C(=O)[O-])c2c1 (protonated)
CN(C)c1ccc2cc(C([NH-])=O)n(C(=O)[NH+](C)C(=O)[O-])c2c1 (3D coordinates assigned)
CN(C)c1ccc2cc(C([NH-])=O)n(C(=O)[NH+](C)C(=O)[O-])c2c1 (optimized conformer: 81.20078771307675 kcal/mol)

>  <smiles>  (70) 
CN(C(=O)O)C(=O)n1c(C(N)=O)cc2ccc(N(C)C)cc21

>  <score_type>  (70) 
oracle

>  <origin>  (70) 
adg

>  <m_score__min__energy>  (70) 
-5.46

>  <m_primary>  (70) 
energy

$$$$
72:0
     RDKit          3D

 43 44  0  0  0  0  0  0  0  0999 V2000
  139.8500  159.0060  133.3900 C   0  0  0  0  0  0  0  0  0  0  0  0
  140.8210  158.5220  134.4730 C   0  0  2  0  0  0  0  0  0  0  0  0
  140.3840  158.9880  135.8370 C   0  0  0  0  0  0  0  0  0  0  0  0
  141.2150  159.3310  136.6630 O   0  0  0  0  0  0  0  0  0  0  0  0
  142.2300  158.9880  134.1690 C   0  0  0  0  0  0  0  0  0  0  0  0
  142.5290  160.3720  134.0640 C   0  0  0  0  0  0  0  0  0  0  0  0
  143.8290  160.8040  133.7540 C   0  0  0  0  0  0  0  0  0  0  0  0
  144.8080  159.8370  133.5570 C   0  0  0  0  0  0  0  0  0  0  0  0
  146.1370  159.9780  133.2240 C   0  0  0  0  0  0  0  0  0  0  0  0
  146.6380  158.6800  133.1460 C   0  0  0  0  0  0  0  0  0  0  0  0
  148.0620  158.3580  132.9000 C   0  0  0  0  0  0  0  0  0  0  0  0
  148.4380  157.4710  131.8450 N   0  0  0  0  0  0  0  0  0  0  0  0
  148.9620  158.8890  133.6040 O   0  0  0  0  0  0  0  0  0  0  0  0
  145.6570  157.7730  133.4180 N   0  0  0  0  0  0  0  0  0  0  0  0
  145.7520  156.3400  133.3900 C   0  0  0  0  0  0  0  0  0  0  0  0
  144.8120  155.6430  133.8570 O   0  0  0  0  0  0  0  0  0  0  0  0
  146.9010  155.7370  132.8560 O   0  0  0  0  0  0  0  0  0  0  0  0
  147.5380  154.5450  133.3370 C   0  0  0  0  0  0  0  0  0  0  0  0
  147.7550  154.6240  134.8600 C   0  0  0  0  0  0  0  0  0  0  0  0
  148.9080  154.4560  132.6450 C   0  0  0  0  0  0  0  0  0  0  0  0
  146.7110  153.3000  132.9670 C   0  0  0  0  0  0  0  0  0  0  0  0
  144.5430  158.4970  133.6680 C   0  0  0  0  0  0  0  0  0  0  0  0
  143.2530  158.0360  133.9560 C   0  0  0  0  0  0  0  0  0  0  0  0
  138.9620  159.4486  133.8649 H   0  0  0  0  0  0  0  0  0  0  0  0
  140.3463  159.7622  132.7640 H   0  0  0  0  0  0  0  0  0  0  0  0
  139.5450  158.1545  132.7640 H   0  0  0  0  0  0  0  0  0  0  0  0
  140.8133  157.4220  134.4748 H   0  0  0  0  0  0  0  0  0  0  0  0
  139.3138  159.0194  136.0895 H   0  0  0  0  0  0  0  0  0  0  0  0
  141.7337  161.1142  134.2272 H   0  0  0  0  0  0  0  0  0  0  0  0
  144.0652  161.8750  133.6697 H   0  0  0  0  0  0  0  0  0  0  0  0
  146.6863  160.9160  133.0554 H   0  0  0  0  0  0  0  0  0  0  0  0
  147.7220  156.9690  131.2760 H   0  0  0  0  0  0  0  0  0  0  0  0
  149.4480  157.2820  131.6560 H   0  0  0  0  0  0  0  0  0  0  0  0
  146.8431  154.2921  135.3780 H   0  0  0  0  0  0  0  0  0  0  0  0
  148.5956  153.9742  135.1448 H   0  0  0  0  0  0  0  0  0  0  0  0
  147.9812  155.6621  135.1448 H   0  0  0  0  0  0  0  0  0  0  0  0
  149.7006  154.4045  133.4061 H   0  0  0  0  0  0  0  0  0  0  0  0
  148.9436  153.5536  132.0169 H   0  0  0  0  0  0  0  0  0  0  0  0
  149.0601  155.3462  132.0169 H   0  0  0  0  0  0  0  0  0  0  0  0
  146.3762  152.7959  133.8856 H   0  0  0  0  0  0  0  0  0  0  0  0
  145.8349  153.6043  132.3755 H   0  0  0  0  0  0  0  0  0  0  0  0
  147.3311  152.6104  132.3755 H   0  0  0  0  0  0  0  0  0  0  0  0
  143.0404  156.9584  134.0151 H   0  0  0  0  0  0  0  0  0  0  0  0
  1  2  1  0
  2  3  1  0
  3  4  2  0
  2  5  1  0
  5  6  2  0
  6  7  1  0
  7  8  2  0
  8  9  1  0
  9 10  2  0
 10 11  1  0
 11 12  1  0
 11 13  2  0
 10 14  1  0
 14 15  1  0
 15 16  2  0
 15 17  1  0
 17 18  1  0
 18 19  1  0
 18 20  1  0
 18 21  1  0
 14 22  1  0
 22 23  2  0
 23  5  1  0
 22  8  1  0
  1 24  1  0
  1 25  1  0
  1 26  1  0
  2 27  1  1
  3 28  1  0
  6 29  1  0
  7 30  1  0
  9 31  1  0
 12 32  1  0
 12 33  1  0
 19 34  1  0
 19 35  1  0
 19 36  1  0
 20 37  1  0
 20 38  1  0
 20 39  1  0
 21 40  1  0
 21 41  1  0
 21 42  1  0
 23 43  1  0
M  END
>  <UniqueID>  (71) 
71

>  <SMILES>  (71) 
C[C@H](C=O)c1ccc2cc(C(N)=O)n(C(=O)OC(C)(C)C)c2c1

>  <Energy>  (71) 
73.77298103720146

>  <Genealogy>  (71) 
C[C@H](C=O)c1ccc2cc(C(N)=O)n(C(=O)OC(C)(C)C)c2c1 (3D coordinates assigned)
C[C@H](C=O)c1ccc2cc(C(N)=O)n(C(=O)OC(C)(C)C)c2c1 (optimized conformer: 73.77298103720146 kcal/mol)

>  <smiles>  (71) 
C[C@H](C=O)c1ccc2cc(C(N)=O)n(C(=O)OC(C)(C)C)c2c1

>  <score_type>  (71) 
oracle

>  <origin>  (71) 
adg

>  <m_score__min__energy>  (71) 
-7.2699999999999996

>  <m_primary>  (71) 
energy

$$$$
73:0
     RDKit          3D

 40 41  0  0  0  0  0  0  0  0999 V2000
  139.3340  156.9160  133.3170 C   0  0  0  0  0  0  0  0  0  0  0  0
  140.2370  158.1020  132.9440 C   0  0  1  0  0  0  0  0  0  0  0  0
  139.4620  159.2720  132.3970 C   0  0  0  0  0  0  0  0  0  0  0  0
  138.3490  159.0750  131.8410 O   0  0  0  0  0  0  0  0  0  0  0  0
  139.9500  160.5700  132.5030 O   0  0  0  0  0  0  0  0  0  0  0  0
  141.0710  158.5210  134.0870 N   0  0  0  0  0  0  0  0  0  0  0  0
  140.4470  158.6270  135.4090 C   0  0  0  0  0  0  0  0  0  0  0  0
  142.4120  159.0260  133.9040 C   0  0  0  0  0  0  0  0  0  0  0  0
  142.6470  160.4240  133.9090 C   0  0  0  0  0  0  0  0  0  0  0  0
  143.9420  160.9360  133.7310 C   0  0  0  0  0  0  0  0  0  0  0  0
  144.9820  160.0300  133.5490 C   0  0  0  0  0  0  0  0  0  0  0  0
  146.3300  160.2510  133.3840 C   0  0  0  0  0  0  0  0  0  0  0  0
  146.8980  158.9860  133.2570 C   0  0  0  0  0  0  0  0  0  0  0  0
  148.3320  158.7620  132.9790 C   0  0  0  0  0  0  0  0  0  0  0  0
  148.7370  158.2350  131.7180 N   0  0  0  0  0  0  0  0  0  0  0  0
  149.2040  158.9990  133.8560 O   0  0  0  0  0  0  0  0  0  0  0  0
  145.9410  158.0200  133.3480 N   0  0  0  0  0  0  0  0  0  0  0  0
  146.1270  156.5950  133.3270 C   0  0  0  0  0  0  0  0  0  0  0  0
  145.5550  155.8770  134.1920 O   0  0  0  0  0  0  0  0  0  0  0  0
  146.9660  156.0230  132.3610 O   0  0  0  0  0  0  0  0  0  0  0  0
  148.0480  155.1770  132.6350 C   0  0  0  0  0  0  0  0  0  0  0  0
  149.2340  155.6030  132.6080 O   0  0  0  0  0  0  0  0  0  0  0  0
  147.7800  153.7630  133.0360 C   0  0  0  0  0  0  0  0  0  0  0  0
  146.4980  153.3940  132.6750 F   0  0  0  0  0  0  0  0  0  0  0  0
  147.9160  153.6320  134.4040 F   0  0  0  0  0  0  0  0  0  0  0  0
  148.6870  152.9320  132.4090 F   0  0  0  0  0  0  0  0  0  0  0  0
  144.7730  158.6750  133.5250 C   0  0  0  0  0  0  0  0  0  0  0  0
  143.4950  158.1380  133.7170 C   0  0  0  0  0  0  0  0  0  0  0  0
  139.2710  156.8333  134.4121 H   0  0  0  0  0  0  0  0  0  0  0  0
  138.3277  157.0769  132.9030 H   0  0  0  0  0  0  0  0  0  0  0  0
  139.7569  155.9888  132.9030 H   0  0  0  0  0  0  0  0  0  0  0  0
  140.8975  157.7467  132.1394 H   0  0  0  0  0  0  0  0  0  0  0  0
  141.2131  158.4969  136.1876 H   0  0  0  0  0  0  0  0  0  0  0  0
  139.9802  159.6173  135.5158 H   0  0  0  0  0  0  0  0  0  0  0  0
  139.6794  157.8464  135.5158 H   0  0  0  0  0  0  0  0  0  0  0  0
  141.8044  161.1160  134.0541 H   0  0  0  0  0  0  0  0  0  0  0  0
  144.1286  162.0200  133.7353 H   0  0  0  0  0  0  0  0  0  0  0  0
  146.8487  161.2207  133.3580 H   0  0  0  0  0  0  0  0  0  0  0  0
  148.5060  157.2530  131.4480 H   0  0  0  0  0  0  0  0  0  0  0  0
  143.3372  157.0494  133.7222 H   0  0  0  0  0  0  0  0  0  0  0  0
  1  2  1  0
  2  3  1  0
  3  4  2  0
  3  5  1  0
  2  6  1  0
  6  7  1  0
  6  8  1  0
  8  9  2  0
  9 10  1  0
 10 11  2  0
 11 12  1  0
 12 13  2  0
 13 14  1  0
 14 15  1  0
 14 16  2  0
 13 17  1  0
 17 18  1  0
 18 19  2  0
 18 20  1  0
 20 21  1  0
 21 22  2  0
 21 23  1  0
 23 24  1  0
 23 25  1  0
 23 26  1  0
 17 27  1  0
 27 28  2  0
 28  8  1  0
 27 11  1  0
  1 29  1  0
  1 30  1  0
  1 31  1  0
  2 32  1  6
  7 33  1  0
  7 34  1  0
  7 35  1  0
  9 36  1  0
 10 37  1  0
 12 38  1  0
 15 39  1  0
 28 40  1  0
M  CHG  2   5  -1  15  -1
M  END
>  <UniqueID>  (72) 
72

>  <SMILES>  (72) 
C[C@@H](C(=O)[O-])N(C)c1ccc2cc(C([NH-])=O)n(C(=O)OC(=O)C(F)(F)F)c2c1

>  <Energy>  (72) 
81.40741592784006

>  <Genealogy>  (72) 
CC(C(=O)[O-])N(C)c1ccc2cc(C([NH-])=O)n(C(=O)OC(=O)C(F)(F)F)c2c1 (protonated)
C[C@@H](C(=O)[O-])N(C)c1ccc2cc(C([NH-])=O)n(C(=O)OC(=O)C(F)(F)F)c2c1 (chirality)
C[C@@H](C(=O)[O-])N(C)c1ccc2cc(C([NH-])=O)n(C(=O)OC(=O)C(F)(F)F)c2c1 (3D coordinates assigned)
C[C@@H](C(=O)[O-])N(C)c1ccc2cc(C([NH-])=O)n(C(=O)OC(=O)C(F)(F)F)c2c1 (optimized conformer: 81.40741592784006 kcal/mol)

>  <smiles>  (72) 
CC(C(=O)O)N(C)c1ccc2cc(C(N)=O)n(C(=O)OC(=O)C(F)(F)F)c2c1

>  <score_type>  (72) 
oracle

>  <origin>  (72) 
adg

>  <m_score__min__energy>  (72) 
-6.4000000000000004

>  <m_primary>  (72) 
energy

$$$$
74:0
     RDKit          3D

 44 45  0  0  0  0  0  0  0  0999 V2000
  141.0280  158.9840  137.4860 C   0  0  0  0  0  0  0  0  0  0  0  0
  141.0100  159.7860  136.3120 O   0  0  0  0  0  0  0  0  0  0  0  0
  141.2500  159.2650  135.0390 C   0  0  0  0  0  0  0  0  0  0  0  0
  140.6410  159.7200  134.0320 O   0  0  0  0  0  0  0  0  0  0  0  0
  142.2690  158.1860  134.8640 C   0  0  0  0  0  0  0  0  0  0  0  0
  143.5260  158.7570  134.2700 C   0  0  0  0  0  0  0  0  0  0  0  0
  143.5880  160.1260  133.9060 C   0  0  0  0  0  0  0  0  0  0  0  0
  144.7620  160.6670  133.3530 C   0  0  0  0  0  0  0  0  0  0  0  0
  145.8570  159.8240  133.1960 C   0  0  0  0  0  0  0  0  0  0  0  0
  147.1020  160.0740  132.6640 C   0  0  0  0  0  0  0  0  0  0  0  0
  147.7930  158.8660  132.7530 C   0  0  0  0  0  0  0  0  0  0  0  0
  149.2070  158.7020  132.3570 C   0  0  0  0  0  0  0  0  0  0  0  0
  149.7670  157.4060  132.1510 N   0  0  0  0  0  0  0  0  0  0  0  0
  149.9420  159.7170  132.2390 O   0  0  0  0  0  0  0  0  0  0  0  0
  147.0020  157.9060  133.3110 N   0  0  0  0  0  0  0  0  0  0  0  0
  147.3110  156.5220  133.5260 C   0  0  0  0  0  0  0  0  0  0  0  0
  147.6300  156.1220  134.6780 O   0  0  0  0  0  0  0  0  0  0  0  0
  147.2630  155.6250  132.4520 O   0  0  0  0  0  0  0  0  0  0  0  0
  147.2510  154.2130  132.6290 C   0  0  0  0  0  0  0  0  0  0  0  0
  148.6560  153.6870  132.5560 C   0  0  0  0  0  0  0  0  0  0  0  0
  149.6060  154.5160  132.6130 O   0  0  0  0  0  0  0  0  0  0  0  0
  148.9440  152.2730  132.4700 N   0  0  0  0  0  0  0  0  0  0  0  0
  150.3420  151.8310  132.4760 C   0  0  0  0  0  0  0  0  0  0  0  0
  147.8620  151.2870  132.3520 C   0  0  0  0  0  0  0  0  0  0  0  0
  145.8230  158.5070  133.5760 C   0  0  0  0  0  0  0  0  0  0  0  0
  144.6630  157.9370  134.1070 C   0  0  0  0  0  0  0  0  0  0  0  0
  141.0134  159.6332  138.3738 H   0  0  0  0  0  0  0  0  0  0  0  0
  140.1443  158.3290  137.4962 H   0  0  0  0  0  0  0  0  0  0  0  0
  141.9402  158.3693  137.4962 H   0  0  0  0  0  0  0  0  0  0  0  0
  142.4988  157.7398  135.8428 H   0  0  0  0  0  0  0  0  0  0  0  0
  141.8675  157.4166  134.1881 H   0  0  0  0  0  0  0  0  0  0  0  0
  142.7097  160.7706  134.0577 H   0  0  0  0  0  0  0  0  0  0  0  0
  144.8129  161.7243  133.0538 H   0  0  0  0  0  0  0  0  0  0  0  0
  147.4732  161.0254  132.2552 H   0  0  0  0  0  0  0  0  0  0  0  0
  149.1590  156.5820  131.9490 H   0  0  0  0  0  0  0  0  0  0  0  0
  146.8192  153.9703  133.6112 H   0  0  0  0  0  0  0  0  0  0  0  0
  146.6445  153.7495  131.8370 H   0  0  0  0  0  0  0  0  0  0  0  0
  150.6876  151.7217  133.5146 H   0  0  0  0  0  0  0  0  0  0  0  0
  150.4229  150.8635  131.9590 H   0  0  0  0  0  0  0  0  0  0  0  0
  150.9644  152.5762  131.9590 H   0  0  0  0  0  0  0  0  0  0  0  0
  147.5303  150.9847  133.3563 H   0  0  0  0  0  0  0  0  0  0  0  0
  147.0177  151.7327  131.8057 H   0  0  0  0  0  0  0  0  0  0  0  0
  148.2276  150.4050  131.8057 H   0  0  0  0  0  0  0  0  0  0  0  0
  144.6366  156.8747  134.3911 H   0  0  0  0  0  0  0  0  0  0  0  0
  1  2  1  0
  2  3  1  0
  3  4  2  0
  3  5  1  0
  5  6  1  0
  6  7  2  0
  7  8  1  0
  8  9  2  0
  9 10  1  0
 10 11  2  0
 11 12  1  0
 12 13  1  0
 12 14  2  0
 11 15  1  0
 15 16  1  0
 16 17  2  0
 16 18  1  0
 18 19  1  0
 19 20  1  0
 20 21  2  0
 20 22  1  0
 22 23  1  0
 22 24  1  0
 15 25  1  0
 25 26  2  0
 26  6  1  0
 25  9  1  0
  1 27  1  0
  1 28  1  0
  1 29  1  0
  5 30  1  0
  5 31  1  0
  7 32  1  0
  8 33  1  0
 10 34  1  0
 13 35  1  0
 19 36  1  0
 19 37  1  0
 23 38  1  0
 23 39  1  0
 23 40  1  0
 24 41  1  0
 24 42  1  0
 24 43  1  0
 26 44  1  0
M  CHG  1  13  -1
M  END
>  <UniqueID>  (73) 
73

>  <SMILES>  (73) 
COC(=O)Cc1ccc2cc(C([NH-])=O)n(C(=O)OCC(=O)N(C)C)c2c1

>  <Energy>  (73) 
71.93643513222493

>  <Genealogy>  (73) 
COC(=O)Cc1ccc2cc(C([NH-])=O)n(C(=O)OCC(=O)N(C)C)c2c1 (protonated)
COC(=O)Cc1ccc2cc(C([NH-])=O)n(C(=O)OCC(=O)N(C)C)c2c1 (3D coordinates assigned)
COC(=O)Cc1ccc2cc(C([NH-])=O)n(C(=O)OCC(=O)N(C)C)c2c1 (optimized conformer: 71.93643513222493 kcal/mol)

>  <smiles>  (73) 
COC(=O)Cc1ccc2cc(C(N)=O)n(C(=O)OCC(=O)N(C)C)c2c1

>  <score_type>  (73) 
oracle

>  <origin>  (73) 
adg

>  <m_score__min__energy>  (73) 
-6.4699999999999998

>  <m_primary>  (73) 
energy

$$$$
75:0
     RDKit          3D

 48 50  0  0  0  0  0  0  0  0999 V2000
  150.9740  150.1420  130.2580 C   0  0  0  0  0  0  0  0  0  0  0  0
  149.8370  150.7610  130.8450 O   0  0  0  0  0  0  0  0  0  0  0  0
  149.8870  151.4160  132.0800 C   0  0  0  0  0  0  0  0  0  0  0  0
  150.7490  151.0860  132.9420 O   0  0  0  0  0  0  0  0  0  0  0  0
  148.9250  152.4930  132.3660 C   0  0  0  0  0  0  0  0  0  0  0  0
  147.5710  152.2260  132.6050 C   0  0  0  0  0  0  0  0  0  0  0  0
  146.7230  153.2540  132.8660 N   0  0  0  0  0  0  0  0  0  0  0  0
  147.1480  154.5470  132.9070 C   0  0  0  0  0  0  0  0  0  0  0  0
  146.1730  155.6300  133.1940 C   0  0  0  0  0  0  0  0  0  0  0  0
  144.8520  155.2960  133.5920 C   0  0  0  0  0  0  0  0  0  0  0  0
  143.9050  156.2980  133.8640 C   0  0  0  0  0  0  0  0  0  0  0  0
  144.3060  157.6230  133.7470 C   0  0  0  0  0  0  0  0  0  0  0  0
  143.5880  158.7830  133.9260 C   0  0  0  0  0  0  0  0  0  0  0  0
  144.4870  159.8170  133.6730 C   0  0  0  0  0  0  0  0  0  0  0  0
  144.1480  161.2460  133.8290 C   0  0  0  0  0  0  0  0  0  0  0  0
  145.1220  162.1860  134.2740 N   0  0  0  0  0  0  0  0  0  0  0  0
  142.9690  161.6350  133.6140 O   0  0  0  0  0  0  0  0  0  0  0  0
  145.7110  159.3150  133.3430 N   0  0  0  0  0  0  0  0  0  0  0  0
  146.8700  160.0470  132.9150 C   0  0  0  0  0  0  0  0  0  0  0  0
  147.4390  160.8380  133.7140 O   0  0  0  0  0  0  0  0  0  0  0  0
  147.3660  159.8520  131.6170 O   0  0  0  0  0  0  0  0  0  0  0  0
  148.7490  159.7890  131.2340 C   0  0  0  0  0  0  0  0  0  0  0  0
  149.5870  159.1040  132.3300 C   0  0  0  0  0  0  0  0  0  0  0  0
  149.2380  161.2360  131.0670 C   0  0  0  0  0  0  0  0  0  0  0  0
  148.9050  159.0520  129.8910 C   0  0  0  0  0  0  0  0  0  0  0  0
  145.5840  157.9710  133.3930 C   0  0  0  0  0  0  0  0  0  0  0  0
  146.5430  156.9950  133.0970 C   0  0  0  0  0  0  0  0  0  0  0  0
  148.5060  154.8120  132.6570 C   0  0  0  0  0  0  0  0  0  0  0  0
  149.3530  153.7830  132.3950 N   0  0  0  0  0  0  0  0  0  0  0  0
  151.6434  149.7775  131.0511 H   0  0  0  0  0  0  0  0  0  0  0  0
  150.6498  149.2959  129.6343 H   0  0  0  0  0  0  0  0  0  0  0  0
  151.5087  150.8735  129.6343 H   0  0  0  0  0  0  0  0  0  0  0  0
  147.1974  151.1916  132.5815 H   0  0  0  0  0  0  0  0  0  0  0  0
  144.5657  154.2383  133.6888 H   0  0  0  0  0  0  0  0  0  0  0  0
  142.8774  156.0410  134.1606 H   0  0  0  0  0  0  0  0  0  0  0  0
  142.5289  158.8746  134.2088 H   0  0  0  0  0  0  0  0  0  0  0  0
  145.9800  162.3790  133.7100 H   0  0  0  0  0  0  0  0  0  0  0  0
  149.2152  159.4080  133.3196 H   0  0  0  0  0  0  0  0  0  0  0  0
  149.5037  158.0121  132.2265 H   0  0  0  0  0  0  0  0  0  0  0  0
  150.6406  159.4028  132.2265 H   0  0  0  0  0  0  0  0  0  0  0  0
  149.3908  161.6881  132.0581 H   0  0  0  0  0  0  0  0  0  0  0  0
  150.1875  161.2404  130.5117 H   0  0  0  0  0  0  0  0  0  0  0  0
  148.4858  161.8155  130.5117 H   0  0  0  0  0  0  0  0  0  0  0  0
  149.1295  157.9916  130.0786 H   0  0  0  0  0  0  0  0  0  0  0  0
  147.9698  159.1330  129.3175 H   0  0  0  0  0  0  0  0  0  0  0  0
  149.7272  159.5050  129.3175 H   0  0  0  0  0  0  0  0  0  0  0  0
  147.5615  157.2811  132.7957 H   0  0  0  0  0  0  0  0  0  0  0  0
  148.8802  155.8463  132.6735 H   0  0  0  0  0  0  0  0  0  0  0  0
  1  2  1  0
  2  3  1  0
  3  4  2  0
  3  5  1  0
  5  6  2  0
  6  7  1  0
  7  8  2  0
  8  9  1  0
  9 10  2  0
 10 11  1  0
 11 12  2  0
 12 13  1  0
 13 14  2  0
 14 15  1  0
 15 16  1  0
 15 17  2  0
 14 18  1  0
 18 19  1  0
 19 20  2  0
 19 21  1  0
 21 22  1  0
 22 23  1  0
 22 24  1  0
 22 25  1  0
 18 26  1  0
 26 27  2  0
  8 28  1  0
 28 29  2  0
 29  5  1  0
 27  9  1  0
 26 12  1  0
  1 30  1  0
  1 31  1  0
  1 32  1  0
  6 33  1  0
 10 34  1  0
 11 35  1  0
 13 36  1  0
 16 37  1  0
 23 38  1  0
 23 39  1  0
 23 40  1  0
 24 41  1  0
 24 42  1  0
 24 43  1  0
 25 44  1  0
 25 45  1  0
 25 46  1  0
 27 47  1  0
 28 48  1  0
M  CHG  1  16  -1
M  END
>  <UniqueID>  (74) 
74

>  <SMILES>  (74) 
COC(=O)c1cnc(-c2ccc3cc(C([NH-])=O)n(C(=O)OC(C)(C)C)c3c2)cn1

>  <Energy>  (74) 
87.65210264952152

>  <Genealogy>  (74) 
COC(=O)c1cnc(-c2ccc3cc(C([NH-])=O)n(C(=O)OC(C)(C)C)c3c2)cn1 (protonated)
COC(=O)c1cnc(-c2ccc3cc(C([NH-])=O)n(C(=O)OC(C)(C)C)c3c2)cn1 (3D coordinates assigned)
COC(=O)c1cnc(-c2ccc3cc(C([NH-])=O)n(C(=O)OC(C)(C)C)c3c2)cn1 (optimized conformer: 87.65210264952152 kcal/mol)

>  <smiles>  (74) 
COC(=O)c1cnc(-c2ccc3cc(C(N)=O)n(C(=O)OC(C)(C)C)c3c2)cn1

>  <score_type>  (74) 
oracle

>  <origin>  (74) 
adg

>  <m_score__min__energy>  (74) 
-8.3300000000000001

>  <m_primary>  (74) 
energy

$$$$
76:0
     RDKit          3D

 37 39  0  0  0  0  0  0  0  0999 V2000
  149.8110  150.8160  132.9280 C   0  0  0  0  0  0  0  0  0  0  0  0
  149.2980  152.1710  132.7710 N   0  0  0  0  0  0  0  0  0  0  0  0
  149.9410  153.2200  132.2260 C   0  0  0  0  0  0  0  0  0  0  0  0
  149.2140  154.3500  132.3160 N   0  0  0  0  0  0  0  0  0  0  0  0
  148.0750  154.0020  132.9550 C   0  0  0  0  0  0  0  0  0  0  0  0
  146.9700  154.9330  133.2900 C   0  0  0  0  0  0  0  0  0  0  0  0
  145.7580  154.4440  133.8470 C   0  0  0  0  0  0  0  0  0  0  0  0
  144.7010  155.3170  134.1580 C   0  0  0  0  0  0  0  0  0  0  0  0
  144.8800  156.6730  133.9090 C   0  0  0  0  0  0  0  0  0  0  0  0
  144.0210  157.7340  134.0980 C   0  0  0  0  0  0  0  0  0  0  0  0
  144.7240  158.8580  133.6670 C   0  0  0  0  0  0  0  0  0  0  0  0
  144.1990  160.2370  133.7390 C   0  0  0  0  0  0  0  0  0  0  0  0
  145.0980  161.3320  133.9010 N   0  0  0  0  0  0  0  0  0  0  0  0
  142.9640  160.4610  133.6370 O   0  0  0  0  0  0  0  0  0  0  0  0
  145.9640  158.5030  133.2280 N   0  0  0  0  0  0  0  0  0  0  0  0
  146.9710  159.3470  132.6520 C   0  0  0  0  0  0  0  0  0  0  0  0
  146.6660  160.1400  131.7200 O   0  0  0  0  0  0  0  0  0  0  0  0
  148.3630  159.3520  133.2030 C   0  0  0  0  0  0  0  0  0  0  0  0
  149.3120  158.7830  132.1990 C   0  0  0  0  0  0  0  0  0  0  0  0
  149.8200  159.5240  131.3160 O   0  0  0  0  0  0  0  0  0  0  0  0
  149.6060  157.4240  132.2120 O   0  0  0  0  0  0  0  0  0  0  0  0
  146.0460  157.1670  133.3840 C   0  0  0  0  0  0  0  0  0  0  0  0
  147.1090  156.3230  133.0550 C   0  0  0  0  0  0  0  0  0  0  0  0
  148.1320  152.6490  133.2440 C   0  0  0  0  0  0  0  0  0  0  0  0
  149.9005  150.5796  133.9985 H   0  0  0  0  0  0  0  0  0  0  0  0
  149.1199  150.1048  132.4520 H   0  0  0  0  0  0  0  0  0  0  0  0
  150.7998  150.7408  132.4520 H   0  0  0  0  0  0  0  0  0  0  0  0
  150.9375  153.1617  131.7640 H   0  0  0  0  0  0  0  0  0  0  0  0
  149.4890  155.2890  131.9510 H   0  0  0  0  0  0  0  0  0  0  0  0
  145.6450  153.3666  134.0377 H   0  0  0  0  0  0  0  0  0  0  0  0
  143.7607  154.9387  134.5855 H   0  0  0  0  0  0  0  0  0  0  0  0
  142.9987  157.7010  134.5027 H   0  0  0  0  0  0  0  0  0  0  0  0
  145.8610  161.5080  133.2110 H   0  0  0  0  0  0  0  0  0  0  0  0
  148.6579  160.3853  133.4383 H   0  0  0  0  0  0  0  0  0  0  0  0
  148.3923  158.7387  134.1157 H   0  0  0  0  0  0  0  0  0  0  0  0
  148.0351  156.7293  132.6223 H   0  0  0  0  0  0  0  0  0  0  0  0
  147.3598  152.0669  133.7682 H   0  0  0  0  0  0  0  0  0  0  0  0
  1  2  1  0
  2  3  1  0
  3  4  2  0
  4  5  1  0
  5  6  1  0
  6  7  2  0
  7  8  1  0
  8  9  2  0
  9 10  1  0
 10 11  2  0
 11 12  1  0
 12 13  1  0
 12 14  2  0
 11 15  1  0
 15 16  1  0
 16 17  2  0
 16 18  1  0
 18 19  1  0
 19 20  2  0
 19 21  1  0
 15 22  1  0
 22 23  2  0
  5 24  2  0
 24  2  1  0
 23  6  1  0
 22  9  1  0
  1 25  1  0
  1 26  1  0
  1 27  1  0
  3 28  1  0
  4 29  1  0
  7 30  1  0
  8 31  1  0
 10 32  1  0
 13 33  1  0
 18 34  1  0
 18 35  1  0
 23 36  1  0
 24 37  1  0
M  CHG  3   4   1  13  -1  21  -1
M  END
>  <UniqueID>  (75) 
75

>  <SMILES>  (75) 
Cn1c[nH+]c(-c2ccc3cc(C([NH-])=O)n(C(=O)CC(=O)[O-])c3c2)c1

>  <Energy>  (75) 
108.50163821448399

>  <Genealogy>  (75) 
Cn1c[nH+]c(-c2ccc3cc(C([NH-])=O)n(C(=O)CC(=O)[O-])c3c2)c1 (protonated)
Cn1c[nH+]c(-c2ccc3cc(C([NH-])=O)n(C(=O)CC(=O)[O-])c3c2)c1 (3D coordinates assigned)
Cn1c[nH+]c(-c2ccc3cc(C([NH-])=O)n(C(=O)CC(=O)[O-])c3c2)c1 (optimized conformer: 108.50163821448399 kcal/mol)

>  <smiles>  (75) 
Cn1cnc(-c2ccc3cc(C(N)=O)n(C(=O)CC(=O)O)c3c2)c1

>  <score_type>  (75) 
oracle

>  <origin>  (75) 
adg

>  <m_score__min__energy>  (75) 
-6.3799999999999999

>  <m_primary>  (75) 
energy

$$$$
77:0
     RDKit          3D

 37 38  0  0  0  0  0  0  0  0999 V2000
  140.1850  158.2980  135.8210 C   0  0  0  0  0  0  0  0  0  0  0  0
  140.8300  157.8220  134.5120 C   0  0  1  0  0  0  0  0  0  0  0  0
  139.8750  157.9080  133.3520 C   0  0  0  0  0  0  0  0  0  0  0  0
  139.7410  156.9350  132.5600 O   0  0  0  0  0  0  0  0  0  0  0  0
  139.0920  159.0590  133.2020 O   0  0  0  0  0  0  0  0  0  0  0  0
  139.2470  159.9860  132.1290 C   0  0  0  0  0  0  0  0  0  0  0  0
  138.5560  159.4750  130.8630 C   0  0  0  0  0  0  0  0  0  0  0  0
  137.5450  158.5580  131.1780 O   0  0  0  0  0  0  0  0  0  0  0  0
  142.1010  158.5900  134.2140 C   0  0  0  0  0  0  0  0  0  0  0  0
  142.0510  159.9970  134.0390 C   0  0  0  0  0  0  0  0  0  0  0  0
  143.2140  160.7270  133.7490 C   0  0  0  0  0  0  0  0  0  0  0  0
  144.4140  160.0320  133.6450 C   0  0  0  0  0  0  0  0  0  0  0  0
  145.6780  160.4870  133.3490 C   0  0  0  0  0  0  0  0  0  0  0  0
  146.4920  159.3570  133.3690 C   0  0  0  0  0  0  0  0  0  0  0  0
  147.9570  159.4080  133.1870 C   0  0  0  0  0  0  0  0  0  0  0  0
  148.8400  158.9690  134.2150 N   0  0  0  0  0  0  0  0  0  0  0  0
  148.4370  159.8940  132.1280 O   0  0  0  0  0  0  0  0  0  0  0  0
  145.7590  158.2430  133.6570 N   0  0  0  0  0  0  0  0  0  0  0  0
  146.2070  156.8780  133.6770 C   0  0  0  0  0  0  0  0  0  0  0  0
  145.4680  155.9600  133.2320 O   0  0  0  0  0  0  0  0  0  0  0  0
  147.4700  156.5610  134.1610 O   0  0  0  0  0  0  0  0  0  0  0  0
  144.4880  158.6750  133.8260 C   0  0  0  0  0  0  0  0  0  0  0  0
  143.3430  157.9180  134.0980 C   0  0  0  0  0  0  0  0  0  0  0  0
  140.7425  157.8865  136.6753 H   0  0  0  0  0  0  0  0  0  0  0  0
  140.2084  159.3970  135.8629 H   0  0  0  0  0  0  0  0  0  0  0  0
  139.1418  157.9516  135.8629 H   0  0  0  0  0  0  0  0  0  0  0  0
  141.0913  156.7626  134.6510 H   0  0  0  0  0  0  0  0  0  0  0  0
  138.8023  160.9496  132.4183 H   0  0  0  0  0  0  0  0  0  0  0  0
  140.3203  160.1060  131.9200 H   0  0  0  0  0  0  0  0  0  0  0  0
  138.1141  160.3270  130.3256 H   0  0  0  0  0  0  0  0  0  0  0  0
  139.3044  158.9694  130.2351 H   0  0  0  0  0  0  0  0  0  0  0  0
  137.9410  157.9050  131.8120 H   0  0  0  0  0  0  0  0  0  0  0  0
  141.0889  160.5221  134.1318 H   0  0  0  0  0  0  0  0  0  0  0  0
  143.1774  161.8173  133.6080 H   0  0  0  0  0  0  0  0  0  0  0  0
  145.9815  161.5236  133.1407 H   0  0  0  0  0  0  0  0  0  0  0  0
  149.1710  157.9800  134.2530 H   0  0  0  0  0  0  0  0  0  0  0  0
  143.4057  156.8265  134.2190 H   0  0  0  0  0  0  0  0  0  0  0  0
  1  2  1  0
  2  3  1  0
  3  4  2  0
  3  5  1  0
  5  6  1  0
  6  7  1  0
  7  8  1  0
  2  9  1  0
  9 10  2  0
 10 11  1  0
 11 12  2  0
 12 13  1  0
 13 14  2  0
 14 15  1  0
 15 16  1  0
 15 17  2  0
 14 18  1  0
 18 19  1  0
 19 20  2  0
 19 21  1  0
 18 22  1  0
 22 23  2  0
 23  9  1  0
 22 12  1  0
  1 24  1  0
  1 25  1  0
  1 26  1  0
  2 27  1  1
  6 28  1  0
  6 29  1  0
  7 30  1  0
  7 31  1  0
  8 32  1  0
 10 33  1  0
 11 34  1  0
 13 35  1  0
 16 36  1  0
 23 37  1  0
M  CHG  2  16  -1  21  -1
M  END
>  <UniqueID>  (76) 
76

>  <SMILES>  (76) 
C[C@@H](C(=O)OCCO)c1ccc2cc(C([NH-])=O)n(C(=O)[O-])c2c1

>  <Energy>  (76) 
72.22111837807209

>  <Genealogy>  (76) 
CC(C(=O)OCCO)c1ccc2cc(C([NH-])=O)n(C(=O)[O-])c2c1 (protonated)
C[C@@H](C(=O)OCCO)c1ccc2cc(C([NH-])=O)n(C(=O)[O-])c2c1 (chirality)
C[C@@H](C(=O)OCCO)c1ccc2cc(C([NH-])=O)n(C(=O)[O-])c2c1 (3D coordinates assigned)
C[C@@H](C(=O)OCCO)c1ccc2cc(C([NH-])=O)n(C(=O)[O-])c2c1 (optimized conformer: 72.22111837807209 kcal/mol)

>  <smiles>  (76) 
CC(C(=O)OCCO)c1ccc2cc(C(N)=O)n(C(=O)O)c2c1

>  <score_type>  (76) 
oracle

>  <origin>  (76) 
adg

>  <m_score__min__energy>  (76) 
-6.2599999999999998

>  <m_primary>  (76) 
energy

$$$$
78:0
     RDKit          3D

 34 35  0  0  0  0  0  0  0  0999 V2000
  149.6160  161.1120  129.2790 C   0  0  0  0  0  0  0  0  0  0  0  0
  149.2090  161.3970  130.7210 C   0  0  0  0  0  0  0  0  0  0  0  0
  148.8800  160.1180  131.4430 C   0  0  0  0  0  0  0  0  0  0  0  0
  149.8480  159.0870  131.5410 C   0  0  0  0  0  0  0  0  0  0  0  0
  149.5450  157.8820  132.1940 C   0  0  0  0  0  0  0  0  0  0  0  0
  148.2670  157.7300  132.7250 C   0  0  0  0  0  0  0  0  0  0  0  0
  147.7190  156.6780  133.4210 C   0  0  0  0  0  0  0  0  0  0  0  0
  146.4120  157.0660  133.7090 C   0  0  0  0  0  0  0  0  0  0  0  0
  145.4210  156.1930  134.3760 C   0  0  0  0  0  0  0  0  0  0  0  0
  144.1060  156.0380  133.8370 N   0  0  0  0  0  0  0  0  0  0  0  0
  145.7180  155.6020  135.4490 O   0  0  0  0  0  0  0  0  0  0  0  0
  146.1630  158.3110  133.2120 N   0  0  0  0  0  0  0  0  0  0  0  0
  144.9620  159.0860  133.3630 C   0  0  0  0  0  0  0  0  0  0  0  0
  144.9940  160.1760  133.9960 O   0  0  0  0  0  0  0  0  0  0  0  0
  143.7610  158.6120  132.8150 O   0  0  0  0  0  0  0  0  0  0  0  0
  142.5540  158.4760  133.5130 C   0  0  0  0  0  0  0  0  0  0  0  0
  141.9850  157.3550  133.6170 O   0  0  0  0  0  0  0  0  0  0  0  0
  141.9650  159.6660  134.1970 C   0  0  0  0  0  0  0  0  0  0  0  0
  142.4230  159.7380  135.5000 F   0  0  0  0  0  0  0  0  0  0  0  0
  142.3340  160.8130  133.5190 F   0  0  0  0  0  0  0  0  0  0  0  0
  140.5850  159.5690  134.2100 F   0  0  0  0  0  0  0  0  0  0  0  0
  147.3090  158.7040  132.6120 C   0  0  0  0  0  0  0  0  0  0  0  0
  147.5890  159.9220  131.9820 C   0  0  0  0  0  0  0  0  0  0  0  0
  150.5170  160.4811  129.2702 H   0  0  0  0  0  0  0  0  0  0  0  0
  148.7971  160.5890  128.7634 H   0  0  0  0  0  0  0  0  0  0  0  0
  149.8274  162.0604  128.7634 H   0  0  0  0  0  0  0  0  0  0  0  0
  150.0394  161.9003  131.2379 H   0  0  0  0  0  0  0  0  0  0  0  0
  148.3168  162.0404  130.7163 H   0  0  0  0  0  0  0  0  0  0  0  0
  150.8457  159.2326  131.1013 H   0  0  0  0  0  0  0  0  0  0  0  0
  150.2946  157.0820  132.2835 H   0  0  0  0  0  0  0  0  0  0  0  0
  148.2086  155.7312  133.6927 H   0  0  0  0  0  0  0  0  0  0  0  0
  143.8400  156.4680  132.9250 H   0  0  0  0  0  0  0  0  0  0  0  0
  143.4030  155.4490  134.3370 H   0  0  0  0  0  0  0  0  0  0  0  0
  146.8225  160.7075  131.9083 H   0  0  0  0  0  0  0  0  0  0  0  0
  1  2  1  0
  2  3  1  0
  3  4  2  0
  4  5  1  0
  5  6  2  0
  6  7  1  0
  7  8  2  0
  8  9  1  0
  9 10  1  0
  9 11  2  0
  8 12  1  0
 12 13  1  0
 13 14  2  0
 13 15  1  0
 15 16  1  0
 16 17  2  0
 16 18  1  0
 18 19  1  0
 18 20  1  0
 18 21  1  0
 12 22  1  0
 22 23  2  0
 23  3  1  0
 22  6  1  0
  1 24  1  0
  1 25  1  0
  1 26  1  0
  2 27  1  0
  2 28  1  0
  4 29  1  0
  5 30  1  0
  7 31  1  0
 10 32  1  0
 10 33  1  0
 23 34  1  0
M  END
>  <UniqueID>  (77) 
77

>  <SMILES>  (77) 
CCc1ccc2cc(C(N)=O)n(C(=O)OC(=O)C(F)(F)F)c2c1

>  <Energy>  (77) 
69.05578714366932

>  <Genealogy>  (77) 
CCc1ccc2cc(C(N)=O)n(C(=O)OC(=O)C(F)(F)F)c2c1 (3D coordinates assigned)
CCc1ccc2cc(C(N)=O)n(C(=O)OC(=O)C(F)(F)F)c2c1 (optimized conformer: 69.05578714366932 kcal/mol)

>  <smiles>  (77) 
CCc1ccc2cc(C(N)=O)n(C(=O)OC(=O)C(F)(F)F)c2c1

>  <score_type>  (77) 
oracle

>  <origin>  (77) 
adg

>  <m_score__min__energy>  (77) 
-6.6399999999999997

>  <m_primary>  (77) 
energy

$$$$
79:0
     RDKit          3D

 40 41  0  0  0  0  0  0  0  0999 V2000
  149.2040  162.0280  130.4180 C   0  0  0  0  0  0  0  0  0  0  0  0
  148.9900  160.7020  131.0840 C   0  0  0  0  0  0  0  0  0  0  0  0
  149.9770  159.6900  130.9820 C   0  0  0  0  0  0  0  0  0  0  0  0
  149.8090  158.4590  131.6410 C   0  0  0  0  0  0  0  0  0  0  0  0
  148.6520  158.2740  132.3930 C   0  0  0  0  0  0  0  0  0  0  0  0
  148.2520  157.2000  133.1560 C   0  0  0  0  0  0  0  0  0  0  0  0
  147.0280  157.5740  133.7080 C   0  0  0  0  0  0  0  0  0  0  0  0
  146.2120  156.6920  134.5700 C   0  0  0  0  0  0  0  0  0  0  0  0
  144.8400  156.4430  134.2780 N   0  0  0  0  0  0  0  0  0  0  0  0
  146.7420  156.1270  135.5640 O   0  0  0  0  0  0  0  0  0  0  0  0
  146.6870  158.8290  133.3010 N   0  0  0  0  0  0  0  0  0  0  0  0
  145.5450  159.6010  133.7020 C   0  0  0  0  0  0  0  0  0  0  0  0
  145.7080  160.7680  134.1470 O   0  0  0  0  0  0  0  0  0  0  0  0
  144.1900  159.0420  133.6120 C   0  0  0  0  0  0  0  0  0  0  0  0
  143.8580  158.3510  132.6100 O   0  0  0  0  0  0  0  0  0  0  0  0
  143.2820  159.2690  134.6530 O   0  0  0  0  0  0  0  0  0  0  0  0
  141.8680  159.2300  134.4820 C   0  0  0  0  0  0  0  0  0  0  0  0
  141.3970  157.8150  134.2740 C   0  0  0  0  0  0  0  0  0  0  0  0
  142.0100  156.8860  134.8660 O   0  0  0  0  0  0  0  0  0  0  0  0
  140.2610  157.5050  133.4380 N   0  0  0  0  0  0  0  0  0  0  0  0
  139.8210  156.1110  133.3220 C   0  0  0  0  0  0  0  0  0  0  0  0
  139.5510  158.5620  132.7060 C   0  0  0  0  0  0  0  0  0  0  0  0
  147.6910  159.2450  132.5010 C   0  0  0  0  0  0  0  0  0  0  0  0
  147.8380  160.4860  131.8710 C   0  0  0  0  0  0  0  0  0  0  0  0
  149.3297  162.8071  131.1843 H   0  0  0  0  0  0  0  0  0  0  0  0
  150.1063  161.9818  129.7905 H   0  0  0  0  0  0  0  0  0  0  0  0
  148.3330  162.2680  129.7905 H   0  0  0  0  0  0  0  0  0  0  0  0
  150.8818  159.8688  130.3825 H   0  0  0  0  0  0  0  0  0  0  0  0
  150.5683  157.6668  131.5647 H   0  0  0  0  0  0  0  0  0  0  0  0
  148.7852  156.2487  133.2995 H   0  0  0  0  0  0  0  0  0  0  0  0
  144.1150  157.1780  134.4340 H   0  0  0  0  0  0  0  0  0  0  0  0
  141.3840  159.6437  135.3790 H   0  0  0  0  0  0  0  0  0  0  0  0
  141.6018  159.8256  133.5963 H   0  0  0  0  0  0  0  0  0  0  0  0
  139.6863  155.6842  134.3268 H   0  0  0  0  0  0  0  0  0  0  0  0
  138.8668  156.0719  132.7761 H   0  0  0  0  0  0  0  0  0  0  0  0
  140.5798  155.5312  132.7761 H   0  0  0  0  0  0  0  0  0  0  0  0
  139.0855  159.2549  133.4224 H   0  0  0  0  0  0  0  0  0  0  0  0
  140.2634  159.1121  132.0737 H   0  0  0  0  0  0  0  0  0  0  0  0
  138.7723  158.1105  132.0737 H   0  0  0  0  0  0  0  0  0  0  0  0
  147.0767  161.2717  131.9859 H   0  0  0  0  0  0  0  0  0  0  0  0
  1  2  1  0
  2  3  2  0
  3  4  1  0
  4  5  2  0
  5  6  1  0
  6  7  2  0
  7  8  1  0
  8  9  1  0
  8 10  2  0
  7 11  1  0
 11 12  1  0
 12 13  2  0
 12 14  1  0
 14 15  2  0
 14 16  1  0
 16 17  1  0
 17 18  1  0
 18 19  2  0
 18 20  1  0
 20 21  1  0
 20 22  1  0
 11 23  1  0
 23 24  2  0
 24  2  1  0
 23  5  1  0
  1 25  1  0
  1 26  1  0
  1 27  1  0
  3 28  1  0
  4 29  1  0
  6 30  1  0
  9 31  1  0
 17 32  1  0
 17 33  1  0
 21 34  1  0
 21 35  1  0
 21 36  1  0
 22 37  1  0
 22 38  1  0
 22 39  1  0
 24 40  1  0
M  CHG  1   9  -1
M  END
>  <UniqueID>  (78) 
78

>  <SMILES>  (78) 
Cc1ccc2cc(C([NH-])=O)n(C(=O)C(=O)OCC(=O)N(C)C)c2c1

>  <Energy>  (78) 
73.48318310370063

>  <Genealogy>  (78) 
Cc1ccc2cc(C([NH-])=O)n(C(=O)C(=O)OCC(=O)N(C)C)c2c1 (protonated)
Cc1ccc2cc(C([NH-])=O)n(C(=O)C(=O)OCC(=O)N(C)C)c2c1 (3D coordinates assigned)
Cc1ccc2cc(C([NH-])=O)n(C(=O)C(=O)OCC(=O)N(C)C)c2c1 (optimized conformer: 73.48318310370063 kcal/mol)

>  <smiles>  (78) 
Cc1ccc2cc(C(N)=O)n(C(=O)C(=O)OCC(=O)N(C)C)c2c1

>  <score_type>  (78) 
oracle

>  <origin>  (78) 
adg

>  <m_score__min__energy>  (78) 
-6.7199999999999998

>  <m_primary>  (78) 
energy

$$$$
80:0
     RDKit          3D

 42 44  0  0  0  0  0  0  0  0999 V2000
  143.6830  163.3130  133.3630 C   0  0  0  0  0  0  0  0  0  0  0  0
  144.6340  162.4680  134.0940 N   0  0  0  0  0  0  0  0  0  0  0  0
  145.5470  163.0970  135.0580 C   0  0  0  0  0  0  0  0  0  0  0  0
  144.6700  161.0350  133.8710 C   0  0  0  0  0  0  0  0  0  0  0  0
  145.7720  160.4290  133.2000 C   0  0  0  0  0  0  0  0  0  0  0  0
  145.8140  159.0410  132.9830 C   0  0  0  0  0  0  0  0  0  0  0  0
  144.7530  158.2750  133.4440 C   0  0  0  0  0  0  0  0  0  0  0  0
  144.5360  156.9160  133.3680 C   0  0  0  0  0  0  0  0  0  0  0  0
  143.3110  156.7030  133.9980 C   0  0  0  0  0  0  0  0  0  0  0  0
  142.6890  155.3740  134.1710 C   0  0  0  0  0  0  0  0  0  0  0  0
  141.9010  155.1030  135.3290 N   0  0  0  0  0  0  0  0  0  0  0  0
  142.8420  154.4730  133.3050 O   0  0  0  0  0  0  0  0  0  0  0  0
  142.7970  157.8810  134.4470 N   0  0  0  0  0  0  0  0  0  0  0  0
  141.5610  158.0800  135.1480 C   0  0  0  0  0  0  0  0  0  0  0  0
  141.5700  158.0680  136.4080 O   0  0  0  0  0  0  0  0  0  0  0  0
  140.2600  158.3690  134.4180 C   0  0  2  0  0  0  0  0  0  0  0  0
  139.0710  158.2260  135.3860 C   0  0  0  0  0  0  0  0  0  0  0  0
  140.0250  157.4900  133.1510 C   0  0  0  0  0  0  0  0  0  0  0  0
  139.4180  158.4190  132.0950 C   0  0  0  0  0  0  0  0  0  0  0  0
  139.7730  159.7570  132.6090 C   0  0  0  0  0  0  0  0  0  0  0  0
  139.6240  160.8220  131.9560 O   0  0  0  0  0  0  0  0  0  0  0  0
  140.2880  159.7370  133.9240 N   0  0  0  0  0  0  0  0  0  0  0  0
  143.6870  158.8320  134.0960 C   0  0  0  0  0  0  0  0  0  0  0  0
  143.6070  160.2080  134.3180 C   0  0  0  0  0  0  0  0  0  0  0  0
  143.0591  163.8674  134.0796 H   0  0  0  0  0  0  0  0  0  0  0  0
  144.2350  164.0240  132.7307 H   0  0  0  0  0  0  0  0  0  0  0  0
  143.0419  162.6812  132.7307 H   0  0  0  0  0  0  0  0  0  0  0  0
  145.2145  162.8679  136.0812 H   0  0  0  0  0  0  0  0  0  0  0  0
  146.5646  162.7074  134.9073 H   0  0  0  0  0  0  0  0  0  0  0  0
  145.5455  164.1866  134.9073 H   0  0  0  0  0  0  0  0  0  0  0  0
  146.6026  161.0576  132.8465 H   0  0  0  0  0  0  0  0  0  0  0  0
  146.6638  158.5753  132.4625 H   0  0  0  0  0  0  0  0  0  0  0  0
  145.1901  156.1605  132.9082 H   0  0  0  0  0  0  0  0  0  0  0  0
  141.5960  155.8760  135.9630 H   0  0  0  0  0  0  0  0  0  0  0  0
  139.4352  158.2698  136.4230 H   0  0  0  0  0  0  0  0  0  0  0  0
  138.3570  159.0447  135.2132 H   0  0  0  0  0  0  0  0  0  0  0  0
  138.5715  157.2613  135.2132 H   0  0  0  0  0  0  0  0  0  0  0  0
  140.9785  157.0755  132.7919 H   0  0  0  0  0  0  0  0  0  0  0  0
  139.3601  156.6412  133.3689 H   0  0  0  0  0  0  0  0  0  0  0  0
  139.8639  158.2416  131.1052 H   0  0  0  0  0  0  0  0  0  0  0  0
  138.3368  158.2754  131.9522 H   0  0  0  0  0  0  0  0  0  0  0  0
  142.7360  160.6431  134.8300 H   0  0  0  0  0  0  0  0  0  0  0  0
  1  2  1  0
  2  3  1  0
  2  4  1  0
  4  5  2  0
  5  6  1  0
  6  7  2  0
  7  8  1  0
  8  9  2  0
  9 10  1  0
 10 11  1  0
 10 12  2  0
  9 13  1  0
 13 14  1  0
 14 15  2  0
 14 16  1  0
 16 17  1  1
 16 18  1  0
 18 19  1  0
 19 20  1  0
 20 21  2  0
 20 22  1  0
 13 23  1  0
 23 24  2  0
 24  4  1  0
 23  7  1  0
 22 16  1  0
  1 25  1  0
  1 26  1  0
  1 27  1  0
  3 28  1  0
  3 29  1  0
  3 30  1  0
  5 31  1  0
  6 32  1  0
  8 33  1  0
 11 34  1  0
 17 35  1  0
 17 36  1  0
 17 37  1  0
 18 38  1  0
 18 39  1  0
 19 40  1  0
 19 41  1  0
 24 42  1  0
M  CHG  2  11  -1  22  -1
M  END
>  <UniqueID>  (79) 
79

>  <SMILES>  (79) 
CN(C)c1ccc2cc(C([NH-])=O)n(C(=O)[C@]3(C)CCC(=O)[N-]3)c2c1

>  <Energy>  (79) 
92.23724583338803

>  <Genealogy>  (79) 
CN(C)c1ccc2cc(C([NH-])=O)n(C(=O)C3(C)CCC(=O)[N-]3)c2c1 (protonated)
CN(C)c1ccc2cc(C([NH-])=O)n(C(=O)[C@]3(C)CCC(=O)[N-]3)c2c1 (chirality)
CN(C)c1ccc2cc(C([NH-])=O)n(C(=O)[C@]3(C)CCC(=O)[N-]3)c2c1 (3D coordinates assigned)
CN(C)c1ccc2cc(C([NH-])=O)n(C(=O)[C@]3(C)CCC(=O)[N-]3)c2c1 (nonaromatic ring conformer: 92.23724583338803 kcal/mol)

>  <smiles>  (79) 
CN(C)c1ccc2cc(C(N)=O)n(C(=O)C3(C)CCC(=O)N3)c2c1

>  <score_type>  (79) 
oracle

>  <origin>  (79) 
adg

>  <m_score__min__energy>  (79) 
-7.1799999999999997

>  <m_primary>  (79) 
energy

$$$$
81:0
     RDKit          3D

 35 36  0  0  0  0  0  0  0  0999 V2000
  145.5130  154.7720  132.4840 C   0  0  0  0  0  0  0  0  0  0  0  0
  145.3770  155.3090  133.8430 N   0  0  0  0  0  0  0  0  0  0  0  0
  146.3460  154.9190  134.8780 C   0  0  0  0  0  0  0  0  0  0  0  0
  147.7210  155.3570  134.4830 C   0  0  0  0  0  0  0  0  0  0  0  0
  148.3530  154.7360  133.5890 O   0  0  0  0  0  0  0  0  0  0  0  0
  148.3260  156.4200  135.1410 O   0  0  0  0  0  0  0  0  0  0  0  0
  144.2540  156.1440  134.2090 C   0  0  0  0  0  0  0  0  0  0  0  0
  143.6210  155.8890  135.2710 O   0  0  0  0  0  0  0  0  0  0  0  0
  143.8180  157.3040  133.3970 C   0  0  0  0  0  0  0  0  0  0  0  0
  142.8350  157.2150  132.6160 O   0  0  0  0  0  0  0  0  0  0  0  0
  144.5340  158.5460  133.4740 N   0  0  0  0  0  0  0  0  0  0  0  0
  144.0220  159.7920  133.6740 C   0  0  0  0  0  0  0  0  0  0  0  0
  142.6080  160.1100  133.9680 C   0  0  0  0  0  0  0  0  0  0  0  0
  141.7440  159.1420  134.5580 N   0  0  0  0  0  0  0  0  0  0  0  0
  142.1620  161.2610  133.7150 O   0  0  0  0  0  0  0  0  0  0  0  0
  145.0330  160.7490  133.6050 C   0  0  0  0  0  0  0  0  0  0  0  0
  146.1890  160.0430  133.3510 C   0  0  0  0  0  0  0  0  0  0  0  0
  147.4940  160.4920  133.1650 C   0  0  0  0  0  0  0  0  0  0  0  0
  148.4840  159.5350  132.8840 C   0  0  0  0  0  0  0  0  0  0  0  0
  148.1530  158.1620  132.7870 C   0  0  0  0  0  0  0  0  0  0  0  0
  149.1690  157.2000  132.4930 N   0  0  0  0  0  0  0  0  0  0  0  0
  146.8200  157.7440  132.9780 C   0  0  0  0  0  0  0  0  0  0  0  0
  145.8580  158.7160  133.2730 C   0  0  0  0  0  0  0  0  0  0  0  0
  145.7828  153.7069  132.5359 H   0  0  0  0  0  0  0  0  0  0  0  0
  144.5584  154.8828  131.9487 H   0  0  0  0  0  0  0  0  0  0  0  0
  146.2997  155.3238  131.9487 H   0  0  0  0  0  0  0  0  0  0  0  0
  146.0720  155.3947  135.8313 H   0  0  0  0  0  0  0  0  0  0  0  0
  146.3339  153.8248  134.9899 H   0  0  0  0  0  0  0  0  0  0  0  0
  141.8140  158.1320  134.3040 H   0  0  0  0  0  0  0  0  0  0  0  0
  144.9300  161.8373  133.7274 H   0  0  0  0  0  0  0  0  0  0  0  0
  147.7419  161.5614  133.2357 H   0  0  0  0  0  0  0  0  0  0  0  0
  149.5260  159.8558  132.7380 H   0  0  0  0  0  0  0  0  0  0  0  0
  149.5510  156.5790  133.2420 H   0  0  0  0  0  0  0  0  0  0  0  0
  149.5490  157.1030  131.5250 H   0  0  0  0  0  0  0  0  0  0  0  0
  146.5439  156.6823  132.8972 H   0  0  0  0  0  0  0  0  0  0  0  0
  1  2  1  0
  2  3  1  0
  3  4  1  0
  4  5  2  0
  4  6  1  0
  2  7  1  0
  7  8  2  0
  7  9  1  0
  9 10  2  0
  9 11  1  0
 11 12  1  0
 12 13  1  0
 13 14  1  0
 13 15  2  0
 12 16  2  0
 16 17  1  0
 17 18  2  0
 18 19  1  0
 19 20  2  0
 20 21  1  0
 20 22  1  0
 22 23  2  0
 23 11  1  0
 23 17  1  0
  1 24  1  0
  1 25  1  0
  1 26  1  0
  3 27  1  0
  3 28  1  0
 14 29  1  0
 16 30  1  0
 18 31  1  0
 19 32  1  0
 21 33  1  0
 21 34  1  0
 22 35  1  0
M  CHG  2   6  -1  14  -1
M  END
>  <UniqueID>  (80) 
80

>  <SMILES>  (80) 
CN(CC(=O)[O-])C(=O)C(=O)n1c(C([NH-])=O)cc2ccc(N)cc21

>  <Energy>  (80) 
74.4288540484432

>  <Genealogy>  (80) 
CN(CC(=O)[O-])C(=O)C(=O)n1c(C([NH-])=O)cc2ccc(N)cc21 (protonated)
CN(CC(=O)[O-])C(=O)C(=O)n1c(C([NH-])=O)cc2ccc(N)cc21 (3D coordinates assigned)
CN(CC(=O)[O-])C(=O)C(=O)n1c(C([NH-])=O)cc2ccc(N)cc21 (optimized conformer: 74.4288540484432 kcal/mol)

>  <smiles>  (80) 
CN(CC(=O)O)C(=O)C(=O)n1c(C(N)=O)cc2ccc(N)cc21

>  <score_type>  (80) 
oracle

>  <origin>  (80) 
adg

>  <m_score__min__energy>  (80) 
-6.3799999999999999

>  <m_primary>  (80) 
energy

$$$$
82:0
     RDKit          3D

 51 52  0  0  0  0  0  0  0  0999 V2000
  147.8770  160.2580  132.7000 C   0  0  0  0  0  0  0  0  0  0  0  0
  146.6970  159.2940  132.5900 C   0  0  0  0  0  0  0  0  0  0  0  0
  146.7190  158.2850  133.7420 C   0  0  0  0  0  0  0  0  0  0  0  0
  145.4820  160.0450  132.6180 O   0  0  0  0  0  0  0  0  0  0  0  0
  145.0480  160.7710  133.7320 C   0  0  0  0  0  0  0  0  0  0  0  0
  145.8040  161.6200  134.2810 O   0  0  0  0  0  0  0  0  0  0  0  0
  143.7670  160.5340  134.2340 O   0  0  0  0  0  0  0  0  0  0  0  0
  142.6110  160.5100  133.4060 C   0  0  0  0  0  0  0  0  0  0  0  0
  141.4580  160.3330  134.2200 O   0  0  0  0  0  0  0  0  0  0  0  0
  141.3550  159.3130  135.1750 C   0  0  0  0  0  0  0  0  0  0  0  0
  142.0600  159.3660  136.2190 O   0  0  0  0  0  0  0  0  0  0  0  0
  140.4400  158.2170  134.9570 N   0  0  0  0  0  0  0  0  0  0  0  0
  139.3740  158.3760  133.9630 C   0  0  0  0  0  0  0  0  0  0  0  0
  140.4700  157.0330  135.7860 C   0  0  0  0  0  0  0  0  0  0  0  0
  140.3690  157.1440  137.0390 O   0  0  0  0  0  0  0  0  0  0  0  0
  140.6020  155.7670  135.1990 O   0  0  0  0  0  0  0  0  0  0  0  0
  140.8640  155.5230  133.8440 C   0  0  0  0  0  0  0  0  0  0  0  0
  140.0050  155.7870  132.9590 O   0  0  0  0  0  0  0  0  0  0  0  0
  142.1220  154.9420  133.4650 N   0  0  0  0  0  0  0  0  0  0  0  0
  143.3060  155.5770  133.2360 C   0  0  0  0  0  0  0  0  0  0  0  0
  143.5740  157.0160  133.4420 C   0  0  0  0  0  0  0  0  0  0  0  0
  143.7860  157.5170  134.7600 N   0  0  0  0  0  0  0  0  0  0  0  0
  143.5850  157.8160  132.4700 O   0  0  0  0  0  0  0  0  0  0  0  0
  144.2850  154.6590  132.8590 C   0  0  0  0  0  0  0  0  0  0  0  0
  143.6620  153.4330  132.8720 C   0  0  0  0  0  0  0  0  0  0  0  0
  144.1670  152.1680  132.5880 C   0  0  0  0  0  0  0  0  0  0  0  0
  143.2880  151.0750  132.6700 C   0  0  0  0  0  0  0  0  0  0  0  0
  141.9220  151.2650  133.0040 C   0  0  0  0  0  0  0  0  0  0  0  0
  140.9930  150.0840  133.1230 C   0  0  0  0  0  0  0  0  0  0  0  0
  141.6210  148.9590  132.6220 F   0  0  0  0  0  0  0  0  0  0  0  0
  140.6590  149.8610  134.4480 F   0  0  0  0  0  0  0  0  0  0  0  0
  139.8240  150.3020  132.4140 F   0  0  0  0  0  0  0  0  0  0  0  0
  141.4550  152.5640  133.3070 C   0  0  0  0  0  0  0  0  0  0  0  0
  142.3570  153.6310  133.2380 C   0  0  0  0  0  0  0  0  0  0  0  0
  148.1024  160.4421  133.7608 H   0  0  0  0  0  0  0  0  0  0  0  0
  148.7574  159.8174  132.2092 H   0  0  0  0  0  0  0  0  0  0  0  0
  147.6209  161.2085  132.2092 H   0  0  0  0  0  0  0  0  0  0  0  0
  146.7684  158.7362  131.6446 H   0  0  0  0  0  0  0  0  0  0  0  0
  146.7073  158.8233  134.7012 H   0  0  0  0  0  0  0  0  0  0  0  0
  145.8348  157.6339  133.6761 H   0  0  0  0  0  0  0  0  0  0  0  0
  147.6307  157.6731  133.6761 H   0  0  0  0  0  0  0  0  0  0  0  0
  142.5317  161.4598  132.8568 H   0  0  0  0  0  0  0  0  0  0  0  0
  142.6876  159.6808  132.6873 H   0  0  0  0  0  0  0  0  0  0  0  0
  138.4120  158.5195  134.4768 H   0  0  0  0  0  0  0  0  0  0  0  0
  139.5876  159.2522  133.3332 H   0  0  0  0  0  0  0  0  0  0  0  0
  139.3226  157.4756  133.3332 H   0  0  0  0  0  0  0  0  0  0  0  0
  143.6050  158.5190  134.9890 H   0  0  0  0  0  0  0  0  0  0  0  0
  145.3341  154.8705  132.6048 H   0  0  0  0  0  0  0  0  0  0  0  0
  145.2215  152.0280  132.3080 H   0  0  0  0  0  0  0  0  0  0  0  0
  143.6632  150.0599  132.4729 H   0  0  0  0  0  0  0  0  0  0  0  0
  140.4056  152.7323  133.5908 H   0  0  0  0  0  0  0  0  0  0  0  0
  1  2  1  0
  2  3  1  0
  2  4  1  0
  4  5  1  0
  5  6  2  0
  5  7  1  0
  7  8  1  0
  8  9  1  0
  9 10  1  0
 10 11  2  0
 10 12  1  0
 12 13  1  0
 12 14  1  0
 14 15  2  0
 14 16  1  0
 16 17  1  0
 17 18  2  0
 17 19  1  0
 19 20  1  0
 20 21  1  0
 21 22  1  0
 21 23  2  0
 20 24  2  0
 24 25  1  0
 25 26  2  0
 26 27  1  0
 27 28  2  0
 28 29  1  0
 29 30  1  0
 29 31  1  0
 29 32  1  0
 28 33  1  0
 33 34  2  0
 34 19  1  0
 34 25  1  0
  1 35  1  0
  1 36  1  0
  1 37  1  0
  2 38  1  0
  3 39  1  0
  3 40  1  0
  3 41  1  0
  8 42  1  0
  8 43  1  0
 13 44  1  0
 13 45  1  0
 13 46  1  0
 22 47  1  0
 24 48  1  0
 26 49  1  0
 27 50  1  0
 33 51  1  0
M  CHG  1  22  -1
M  END
>  <UniqueID>  (81) 
81

>  <SMILES>  (81) 
CC(C)OC(=O)OCOC(=O)N(C)C(=O)OC(=O)n1c(C([NH-])=O)cc2ccc(C(F)(F)F)cc21

>  <Energy>  (81) 
82.23294308091005

>  <Genealogy>  (81) 
CC(C)OC(=O)OCOC(=O)N(C)C(=O)OC(=O)n1c(C([NH-])=O)cc2ccc(C(F)(F)F)cc21 (protonated)
CC(C)OC(=O)OCOC(=O)N(C)C(=O)OC(=O)n1c(C([NH-])=O)cc2ccc(C(F)(F)F)cc21 (3D coordinates assigned)
CC(C)OC(=O)OCOC(=O)N(C)C(=O)OC(=O)n1c(C([NH-])=O)cc2ccc(C(F)(F)F)cc21 (optimized conformer: 82.23294308091005 kcal/mol)

>  <smiles>  (81) 
CC(C)OC(=O)OCOC(=O)N(C)C(=O)OC(=O)n1c(C(N)=O)cc2ccc(C(F)(F)F)cc21

>  <score_type>  (81) 
oracle

>  <origin>  (81) 
adg

>  <m_score__min__energy>  (81) 
-6.5599999999999996

>  <m_primary>  (81) 
energy

$$$$
83:0
     RDKit          3D

 40 42  0  0  0  0  0  0  0  0999 V2000
  140.9730  159.0830  131.9650 N   0  0  0  0  0  0  0  0  0  0  0  0
  139.9960  158.9810  132.9990 C   0  0  0  0  0  0  0  0  0  0  0  0
  138.7990  159.2810  132.7470 O   0  0  0  0  0  0  0  0  0  0  0  0
  140.3870  158.4840  134.3340 C   0  0  0  0  0  0  0  0  0  0  0  0
  140.6050  159.3170  135.4270 C   0  0  0  0  0  0  0  0  0  0  0  0
  141.0240  158.4870  136.4410 C   0  0  0  0  0  0  0  0  0  0  0  0
  141.3530  158.7830  137.7600 C   0  0  0  0  0  0  0  0  0  0  0  0
  141.7110  157.7190  138.6040 C   0  0  0  0  0  0  0  0  0  0  0  0
  141.7440  156.3860  138.1190 C   0  0  0  0  0  0  0  0  0  0  0  0
  142.0670  155.2470  139.0530 C   0  0  0  0  0  0  0  0  0  0  0  0
  140.9080  154.6530  139.5200 F   0  0  0  0  0  0  0  0  0  0  0  0
  142.8160  154.3020  138.3760 F   0  0  0  0  0  0  0  0  0  0  0  0
  142.7910  155.6990  140.1430 F   0  0  0  0  0  0  0  0  0  0  0  0
  141.3770  156.1240  136.7790 C   0  0  0  0  0  0  0  0  0  0  0  0
  141.0440  157.2060  135.9540 C   0  0  0  0  0  0  0  0  0  0  0  0
  140.6540  157.1860  134.6580 N   0  0  0  0  0  0  0  0  0  0  0  0
  140.4600  156.0210  133.8390 C   0  0  0  0  0  0  0  0  0  0  0  0
  139.4140  155.9040  133.1440 O   0  0  0  0  0  0  0  0  0  0  0  0
  141.4420  155.0300  133.8040 O   0  0  0  0  0  0  0  0  0  0  0  0
  142.8370  155.3180  133.8490 C   0  0  0  0  0  0  0  0  0  0  0  0
  143.2390  156.1230  132.6170 C   0  0  0  0  0  0  0  0  0  0  0  0
  143.9290  157.3940  133.0080 C   0  0  0  0  0  0  0  0  0  0  0  0
  143.3150  158.5960  133.0770 N   0  0  0  0  0  0  0  0  0  0  0  0
  144.1410  159.5780  133.5330 C   0  0  0  0  0  0  0  0  0  0  0  0
  143.6920  160.9710  133.6900 C   0  0  0  0  0  0  0  0  0  0  0  0
  144.5040  161.8700  134.0340 O   0  0  0  0  0  0  0  0  0  0  0  0
  142.3620  161.3060  133.4620 O   0  0  0  0  0  0  0  0  0  0  0  0
  145.4330  159.1530  133.8450 C   0  0  0  0  0  0  0  0  0  0  0  0
  145.5200  157.5000  133.5380 S   0  0  0  0  0  0  0  0  0  0  0  0
  141.8040  159.7070  132.0730 H   0  0  0  0  0  0  0  0  0  0  0  0
  140.4708  160.4079  135.4710 H   0  0  0  0  0  0  0  0  0  0  0  0
  141.3333  159.8186  138.1305 H   0  0  0  0  0  0  0  0  0  0  0  0
  141.9690  157.9216  139.6540 H   0  0  0  0  0  0  0  0  0  0  0  0
  141.3535  155.0941  136.3932 H   0  0  0  0  0  0  0  0  0  0  0  0
  143.0605  155.9008  134.7548 H   0  0  0  0  0  0  0  0  0  0  0  0
  143.4021  154.3744  133.8663 H   0  0  0  0  0  0  0  0  0  0  0  0
  143.9201  155.5193  131.9993 H   0  0  0  0  0  0  0  0  0  0  0  0
  142.3298  156.3771  132.0523 H   0  0  0  0  0  0  0  0  0  0  0  0
  142.3150  158.7450  132.8170 H   0  0  0  0  0  0  0  0  0  0  0  0
  146.2493  159.7854  134.2241 H   0  0  0  0  0  0  0  0  0  0  0  0
  1  2  1  0
  2  3  2  0
  2  4  1  0
  4  5  2  0
  5  6  1  0
  6  7  2  0
  7  8  1  0
  8  9  2  0
  9 10  1  0
 10 11  1  0
 10 12  1  0
 10 13  1  0
  9 14  1  0
 14 15  2  0
 15 16  1  0
 16 17  1  0
 17 18  2  0
 17 19  1  0
 19 20  1  0
 20 21  1  0
 21 22  1  0
 22 23  2  0
 23 24  1  0
 24 25  1  0
 25 26  2  0
 25 27  1  0
 24 28  2  0
 28 29  1  0
 16  4  1  0
 29 22  1  0
 15  6  1  0
  1 30  1  0
  5 31  1  0
  7 32  1  0
  8 33  1  0
 14 34  1  0
 20 35  1  0
 20 36  1  0
 21 37  1  0
 21 38  1  0
 23 39  1  0
 28 40  1  0
M  CHG  3   1  -1  23   1  27  -1
M  END
>  <UniqueID>  (82) 
82

>  <SMILES>  (82) 
[NH-]C(=O)c1cc2ccc(C(F)(F)F)cc2n1C(=O)OCCc1[nH+]c(C(=O)[O-])cs1

>  <Energy>  (82) 
104.0067535361061

>  <Genealogy>  (82) 
[NH-]C(=O)c1cc2ccc(C(F)(F)F)cc2n1C(=O)OCCc1[nH+]c(C(=O)[O-])cs1 (protonated)
[NH-]C(=O)c1cc2ccc(C(F)(F)F)cc2n1C(=O)OCCc1[nH+]c(C(=O)[O-])cs1 (3D coordinates assigned)
[NH-]C(=O)c1cc2ccc(C(F)(F)F)cc2n1C(=O)OCCc1[nH+]c(C(=O)[O-])cs1 (optimized conformer: 104.0067535361061 kcal/mol)

>  <smiles>  (82) 
NC(=O)c1cc2ccc(C(F)(F)F)cc2n1C(=O)OCCc1nc(C(=O)O)cs1

>  <score_type>  (82) 
oracle

>  <origin>  (82) 
adg

>  <m_score__min__energy>  (82) 
-6.25

>  <m_primary>  (82) 
energy

$$$$
84:0
     RDKit          3D

 48 50  0  0  0  0  0  0  0  0999 V2000
  148.3460  154.8280  132.6290 C   0  0  0  0  0  0  0  0  0  0  0  0
  147.9140  156.2440  132.8720 C   0  0  0  0  0  0  0  0  0  0  0  0
  148.8610  157.3000  132.8710 C   0  0  0  0  0  0  0  0  0  0  0  0
  148.4470  158.6340  133.0440 C   0  0  0  0  0  0  0  0  0  0  0  0
  147.0910  158.8780  133.2420 C   0  0  0  0  0  0  0  0  0  0  0  0
  146.4040  160.0730  133.3620 C   0  0  0  0  0  0  0  0  0  0  0  0
  145.0680  159.7080  133.4980 C   0  0  0  0  0  0  0  0  0  0  0  0
  143.9630  160.6600  133.6880 C   0  0  0  0  0  0  0  0  0  0  0  0
  142.6330  160.2740  133.3560 N   0  0  0  0  0  0  0  0  0  0  0  0
  144.1910  161.8190  134.1270 O   0  0  0  0  0  0  0  0  0  0  0  0
  144.9280  158.3580  133.4600 N   0  0  0  0  0  0  0  0  0  0  0  0
  143.6940  157.6180  133.4340 C   0  0  0  0  0  0  0  0  0  0  0  0
  142.9720  157.6530  132.4000 O   0  0  0  0  0  0  0  0  0  0  0  0
  143.2930  156.7950  134.5470 N   0  0  0  0  0  0  0  0  0  0  0  0
  143.7790  155.4040  134.5470 C   0  0  0  0  0  0  0  0  0  0  0  0
  144.1670  154.9180  135.9520 C   0  0  0  0  0  0  0  0  0  0  0  0
  145.6260  154.5950  136.0350 C   0  0  0  0  0  0  0  0  0  0  0  0
  146.4840  155.4190  135.6210 O   0  0  0  0  0  0  0  0  0  0  0  0
  146.0380  153.3570  136.5080 O   0  0  0  0  0  0  0  0  0  0  0  0
  142.0720  157.1470  135.3070 C   0  0  0  0  0  0  0  0  0  0  0  0
  140.8070  156.8730  134.4560 C   0  0  0  0  0  0  0  0  0  0  0  0
  139.5880  157.7030  134.8830 C   0  0  0  0  0  0  0  0  0  0  0  0
  139.4960  157.8480  136.6990 S   0  0  0  0  0  0  0  0  0  0  0  0
  141.0070  158.8760  136.8790 C   0  0  0  0  0  0  0  0  0  0  0  0
  142.1130  158.5970  135.8360 C   0  0  0  0  0  0  0  0  0  0  0  0
  146.1690  157.8610  133.2740 C   0  0  0  0  0  0  0  0  0  0  0  0
  146.5460  156.5330  133.0560 C   0  0  0  0  0  0  0  0  0  0  0  0
  148.5006  154.3213  133.5930 H   0  0  0  0  0  0  0  0  0  0  0  0
  147.5680  154.3002  132.0579 H   0  0  0  0  0  0  0  0  0  0  0  0
  149.2861  154.8243  132.0579 H   0  0  0  0  0  0  0  0  0  0  0  0
  149.9288  157.0743  132.7338 H   0  0  0  0  0  0  0  0  0  0  0  0
  149.1737  159.4595  133.0234 H   0  0  0  0  0  0  0  0  0  0  0  0
  146.8227  161.0901  133.3521 H   0  0  0  0  0  0  0  0  0  0  0  0
  142.4350  159.7290  132.4910 H   0  0  0  0  0  0  0  0  0  0  0  0
  142.9843  154.7523  134.1550 H   0  0  0  0  0  0  0  0  0  0  0  0
  144.6805  155.3642  133.9180 H   0  0  0  0  0  0  0  0  0  0  0  0
  143.9334  155.7079  136.6810 H   0  0  0  0  0  0  0  0  0  0  0  0
  143.5971  154.0031  136.1713 H   0  0  0  0  0  0  0  0  0  0  0  0
  142.0294  156.4999  136.1955 H   0  0  0  0  0  0  0  0  0  0  0  0
  141.0367  157.1071  133.4060 H   0  0  0  0  0  0  0  0  0  0  0  0
  140.5437  155.8148  134.6005 H   0  0  0  0  0  0  0  0  0  0  0  0
  139.6675  158.7092  134.4458 H   0  0  0  0  0  0  0  0  0  0  0  0
  138.6786  157.1973  134.5263 H   0  0  0  0  0  0  0  0  0  0  0  0
  140.7137  159.9326  136.7915 H   0  0  0  0  0  0  0  0  0  0  0  0
  141.4370  158.6228  137.8593 H   0  0  0  0  0  0  0  0  0  0  0  0
  141.9811  159.2859  134.9886 H   0  0  0  0  0  0  0  0  0  0  0  0
  143.0845  158.7461  136.3298 H   0  0  0  0  0  0  0  0  0  0  0  0
  145.7930  155.7316  133.0286 H   0  0  0  0  0  0  0  0  0  0  0  0
  1  2  1  0
  2  3  2  0
  3  4  1  0
  4  5  2  0
  5  6  1  0
  6  7  2  0
  7  8  1  0
  8  9  1  0
  8 10  2  0
  7 11  1  0
 11 12  1  0
 12 13  2  0
 12 14  1  0
 14 15  1  0
 15 16  1  0
 16 17  1  0
 17 18  2  0
 17 19  1  0
 14 20  1  0
 20 21  1  0
 21 22  1  0
 22 23  1  0
 23 24  1  0
 24 25  1  0
 11 26  1  0
 26 27  2  0
 27  2  1  0
 26  5  1  0
 25 20  1  0
  1 28  1  0
  1 29  1  0
  1 30  1  0
  3 31  1  0
  4 32  1  0
  6 33  1  0
  9 34  1  0
 15 35  1  0
 15 36  1  0
 16 37  1  0
 16 38  1  0
 20 39  1  0
 21 40  1  0
 21 41  1  0
 22 42  1  0
 22 43  1  0
 24 44  1  0
 24 45  1  0
 25 46  1  0
 25 47  1  0
 27 48  1  0
M  CHG  2   9  -1  19  -1
M  END
>  <UniqueID>  (83) 
83

>  <SMILES>  (83) 
Cc1ccc2cc(C([NH-])=O)n(C(=O)N(CCC(=O)[O-])C3CCSCC3)c2c1

>  <Energy>  (83) 
94.86919303892783

>  <Genealogy>  (83) 
Cc1ccc2cc(C([NH-])=O)n(C(=O)N(CCC(=O)[O-])C3CCSCC3)c2c1 (protonated)
Cc1ccc2cc(C([NH-])=O)n(C(=O)N(CCC(=O)[O-])C3CCSCC3)c2c1 (3D coordinates assigned)
Cc1ccc2cc(C([NH-])=O)n(C(=O)N(CCC(=O)[O-])C3CCSCC3)c2c1 (nonaromatic ring conformer: 94.86919303892783 kcal/mol)

>  <smiles>  (83) 
Cc1ccc2cc(C(N)=O)n(C(=O)N(CCC(=O)O)C3CCSCC3)c2c1

>  <score_type>  (83) 
oracle

>  <origin>  (83) 
adg

>  <m_score__min__energy>  (83) 
-7.9800000000000004

>  <m_primary>  (83) 
energy

$$$$
85:0
     RDKit          3D

 64 69  0  0  0  0  0  0  0  0999 V2000
  143.2610  156.8350  132.6640 C   0  0  0  0  0  0  0  0  0  0  0  0
  144.0780  157.4890  133.4880 C   0  0  0  0  0  0  0  0  0  0  0  0
  145.1670  158.3550  132.9990 C   0  0  0  0  0  0  0  0  0  0  0  0
  144.9340  159.5500  132.6650 O   0  0  0  0  0  0  0  0  0  0  0  0
  146.5000  157.8330  132.8780 N   0  0  0  0  0  0  0  0  0  0  0  0
  147.6640  158.5350  132.8020 C   0  0  0  0  0  0  0  0  0  0  0  0
  147.7880  160.0080  132.7230 C   0  0  0  0  0  0  0  0  0  0  0  0
  147.0220  160.8570  133.5730 N   0  0  0  0  0  0  0  0  0  0  0  0
  148.5590  160.5240  131.8710 O   0  0  0  0  0  0  0  0  0  0  0  0
  148.7530  157.6680  132.7450 C   0  0  0  0  0  0  0  0  0  0  0  0
  148.2150  156.4030  132.7830 C   0  0  0  0  0  0  0  0  0  0  0  0
  148.8420  155.1610  132.7530 C   0  0  0  0  0  0  0  0  0  0  0  0
  148.0340  154.0150  132.8270 C   0  0  0  0  0  0  0  0  0  0  0  0
  146.6270  154.1280  132.9610 C   0  0  0  0  0  0  0  0  0  0  0  0
  145.7760  152.8880  133.0440 C   0  0  0  0  0  0  0  0  0  0  0  0
  144.5580  153.1550  133.8030 N   0  0  0  0  0  0  0  0  0  0  0  0
  144.4370  153.9650  134.8680 C   0  0  0  0  0  0  0  0  0  0  0  0
  143.1020  153.9360  135.2260 C   0  0  0  0  0  0  0  0  0  0  0  0
  142.4620  154.6500  136.3600 C   0  0  0  0  0  0  0  0  0  0  0  0
  142.6630  154.2140  137.6920 C   0  0  0  0  0  0  0  0  0  0  0  0
  142.0290  154.8600  138.7700 C   0  0  0  0  0  0  0  0  0  0  0  0
  141.1770  155.9480  138.5430 C   0  0  0  0  0  0  0  0  0  0  0  0
  140.9940  156.3730  137.2300 C   0  0  0  0  0  0  0  0  0  0  0  0
  141.6200  155.7630  136.1610 C   0  0  0  0  0  0  0  0  0  0  0  0
  141.2260  156.4420  134.8710 C   0  0  0  0  0  0  0  0  0  0  0  0
  140.3110  157.5040  135.2990 N   0  0  0  0  0  0  0  0  0  0  0  0
  139.6250  158.4270  134.3910 C   0  0  1  0  0  0  0  0  0  0  0  0
  140.6530  159.3290  133.6880 C   0  0  0  0  0  0  0  0  0  0  0  0
  140.8490  158.9450  132.2160 C   0  0  0  0  0  0  0  0  0  0  0  0
  139.8590  159.6690  131.3000 C   0  0  0  0  0  0  0  0  0  0  0  0
  138.4080  159.3240  131.5300 C   0  0  0  0  0  0  0  0  0  0  0  0
  137.5350  160.0770  131.0290 O   0  0  0  0  0  0  0  0  0  0  0  0
  137.9810  158.2580  132.3840 N   0  0  0  0  0  0  0  0  0  0  0  0
  138.6890  157.6590  133.4790 C   0  0  0  0  0  0  0  0  0  0  0  0
  138.6180  156.4100  133.6170 O   0  0  0  0  0  0  0  0  0  0  0  0
  140.1770  157.4400  136.7170 C   0  0  0  0  0  0  0  0  0  0  0  0
  139.4430  158.1990  137.4030 O   0  0  0  0  0  0  0  0  0  0  0  0
  142.4620  153.1140  134.3670 N   0  0  0  0  0  0  0  0  0  0  0  0
  143.3670  152.6580  133.5130 N   0  0  0  0  0  0  0  0  0  0  0  0
  146.0270  155.4070  132.9800 C   0  0  0  0  0  0  0  0  0  0  0  0
  146.8530  156.5300  132.8730 C   0  0  0  0  0  0  0  0  0  0  0  0
  142.4614  156.1994  133.0722 H   0  0  0  0  0  0  0  0  0  0  0  0
  143.3859  156.9306  131.5753 H   0  0  0  0  0  0  0  0  0  0  0  0
  143.9352  157.3791  134.5732 H   0  0  0  0  0  0  0  0  0  0  0  0
  146.1160  161.2620  133.2490 H   0  0  0  0  0  0  0  0  0  0  0  0
  149.8175  157.9380  132.6828 H   0  0  0  0  0  0  0  0  0  0  0  0
  149.9361  155.0796  132.6738 H   0  0  0  0  0  0  0  0  0  0  0  0
  148.4977  153.0186  132.7805 H   0  0  0  0  0  0  0  0  0  0  0  0
  145.5060  152.5653  132.0277 H   0  0  0  0  0  0  0  0  0  0  0  0
  146.3469  152.0976  133.5531 H   0  0  0  0  0  0  0  0  0  0  0  0
  145.2394  154.5367  135.3571 H   0  0  0  0  0  0  0  0  0  0  0  0
  143.3247  153.3573  137.8874 H   0  0  0  0  0  0  0  0  0  0  0  0
  142.2039  154.5080  139.7974 H   0  0  0  0  0  0  0  0  0  0  0  0
  140.6674  156.4519  139.3775 H   0  0  0  0  0  0  0  0  0  0  0  0
  142.1071  156.8642  134.3656 H   0  0  0  0  0  0  0  0  0  0  0  0
  140.7664  155.7502  134.1497 H   0  0  0  0  0  0  0  0  0  0  0  0
  138.9720  159.1188  134.9433 H   0  0  0  0  0  0  0  0  0  0  0  0
  140.3038  160.3708  133.7390 H   0  0  0  0  0  0  0  0  0  0  0  0
  141.6181  159.2051  134.2010 H   0  0  0  0  0  0  0  0  0  0  0  0
  141.8728  159.2096  131.9128 H   0  0  0  0  0  0  0  0  0  0  0  0
  140.6737  157.8633  132.1198 H   0  0  0  0  0  0  0  0  0  0  0  0
  139.9809  160.7514  131.4535 H   0  0  0  0  0  0  0  0  0  0  0  0
  140.0937  159.3441  130.2756 H   0  0  0  0  0  0  0  0  0  0  0  0
  144.9367  155.5166  133.0766 H   0  0  0  0  0  0  0  0  0  0  0  0
  1  2  2  0
  2  3  1  0
  3  4  2  0
  3  5  1  0
  5  6  1  0
  6  7  1  0
  7  8  1  0
  7  9  2  0
  6 10  2  0
 10 11  1  0
 11 12  2  0
 12 13  1  0
 13 14  2  0
 14 15  1  0
 15 16  1  0
 16 17  1  0
 17 18  2  0
 18 19  1  0
 19 20  2  0
 20 21  1  0
 21 22  2  0
 22 23  1  0
 23 24  2  0
 24 25  1  0
 25 26  1  0
 26 27  1  0
 27 28  1  0
 28 29  1  0
 29 30  1  0
 30 31  1  0
 31 32  2  0
 31 33  1  0
 33 34  1  0
 34 35  2  0
 26 36  1  0
 36 37  2  0
 18 38  1  0
 38 39  2  0
 14 40  1  0
 40 41  2  0
 41  5  1  0
 41 11  1  0
 39 16  1  0
 24 19  1  0
 34 27  1  0
 36 23  1  0
  1 42  1  0
  1 43  1  0
  2 44  1  0
  8 45  1  0
 10 46  1  0
 12 47  1  0
 13 48  1  0
 15 49  1  0
 15 50  1  0
 17 51  1  0
 20 52  1  0
 21 53  1  0
 22 54  1  0
 25 55  1  0
 25 56  1  0
 27 57  1  1
 28 58  1  0
 28 59  1  0
 29 60  1  0
 29 61  1  0
 30 62  1  0
 30 63  1  0
 40 64  1  0
M  CHG  2   8  -1  33  -1
M  END
>  <UniqueID>  (84) 
84

>  <SMILES>  (84) 
C=CC(=O)n1c(C([NH-])=O)cc2ccc(Cn3cc(-c4cccc5c4CN([C@H]4CCCC(=O)[N-]C4=O)C5=O)nn3)cc21

>  <Energy>  (84) 
175.67175268330075

>  <Genealogy>  (84) 
C=CC(=O)n1c(C([NH-])=O)cc2ccc(Cn3cc(-c4cccc5c4CN(C4CCCC(=O)[N-]C4=O)C5=O)nn3)cc21 (protonated)
C=CC(=O)n1c(C([NH-])=O)cc2ccc(Cn3cc(-c4cccc5c4CN([C@H]4CCCC(=O)[N-]C4=O)C5=O)nn3)cc21 (chirality)
C=CC(=O)n1c(C([NH-])=O)cc2ccc(Cn3cc(-c4cccc5c4CN([C@H]4CCCC(=O)[N-]C4=O)C5=O)nn3)cc21 (3D coordinates assigned)
C=CC(=O)n1c(C([NH-])=O)cc2ccc(Cn3cc(-c4cccc5c4CN([C@H]4CCCC(=O)[N-]C4=O)C5=O)nn3)cc21 (nonaromatic ring conformer: 175.67175268330075 kcal/mol)

>  <smiles>  (84) 
C=CC(=O)n1c(C(N)=O)cc2ccc(Cn3cc(-c4cccc5c4CN(C4CCCC(=O)NC4=O)C5=O)nn3)cc21

>  <score_type>  (84) 
oracle

>  <origin>  (84) 
adg

>  <m_score__min__energy>  (84) 
-9.75

>  <m_primary>  (84) 
energy

$$$$
86:0
     RDKit          3D

 39 40  0  0  0  0  0  0  0  0999 V2000
  142.9600  160.8270  133.8930 N   0  0  0  0  0  0  0  0  0  0  0  0
  144.3570  161.1060  133.7950 C   0  0  0  0  0  0  0  0  0  0  0  0
  144.7560  162.2990  133.8760 O   0  0  0  0  0  0  0  0  0  0  0  0
  145.3350  160.0300  133.5390 C   0  0  0  0  0  0  0  0  0  0  0  0
  146.6940  160.2590  133.3520 C   0  0  0  0  0  0  0  0  0  0  0  0
  147.2350  159.0240  133.0760 C   0  0  0  0  0  0  0  0  0  0  0  0
  148.5530  158.6630  132.8200 C   0  0  0  0  0  0  0  0  0  0  0  0
  148.8360  157.3040  132.6050 C   0  0  0  0  0  0  0  0  0  0  0  0
  147.8010  156.3300  132.6520 C   0  0  0  0  0  0  0  0  0  0  0  0
  148.0670  154.9280  132.4510 N   0  0  0  0  0  0  0  0  0  0  0  0
  148.3030  153.9610  133.5260 C   0  0  0  0  0  0  0  0  0  0  0  0
  147.0550  153.7830  134.3990 C   0  0  0  0  0  0  0  0  0  0  0  0
  147.3740  153.9820  135.8480 C   0  0  0  0  0  0  0  0  0  0  0  0
  148.0140  155.0000  136.2220 O   0  0  0  0  0  0  0  0  0  0  0  0
  147.0070  153.0200  136.7800 O   0  0  0  0  0  0  0  0  0  0  0  0
  146.4770  156.7410  132.9230 C   0  0  0  0  0  0  0  0  0  0  0  0
  146.2210  158.1040  133.1130 C   0  0  0  0  0  0  0  0  0  0  0  0
  145.0450  158.7070  133.4000 N   0  0  0  0  0  0  0  0  0  0  0  0
  143.7810  158.0600  133.6250 C   0  0  0  0  0  0  0  0  0  0  0  0
  143.5760  157.4460  134.7090 O   0  0  0  0  0  0  0  0  0  0  0  0
  142.7890  158.1060  132.6400 O   0  0  0  0  0  0  0  0  0  0  0  0
  141.4310  157.7410  132.8700 C   0  0  0  0  0  0  0  0  0  0  0  0
  140.5870  159.0160  133.8560 P   0  0  0  0  0  0  0  0  0  0  0  0
  139.1530  158.6000  134.0880 O   0  0  0  0  0  0  0  0  0  0  0  0
  141.3590  159.2030  135.3490 O   0  0  0  0  0  0  0  0  0  0  0  0
  140.6180  160.4850  133.0200 O   0  0  0  0  0  0  0  0  0  0  0  0
  142.2860  161.5920  134.1180 H   0  0  0  0  0  0  0  0  0  0  0  0
  142.5830  159.8840  133.6540 H   0  0  0  0  0  0  0  0  0  0  0  0
  147.2233  161.2214  133.4119 H   0  0  0  0  0  0  0  0  0  0  0  0
  149.3509  159.4195  132.7868 H   0  0  0  0  0  0  0  0  0  0  0  0
  149.8696  156.9898  132.3980 H   0  0  0  0  0  0  0  0  0  0  0  0
  148.1120  154.5680  131.4720 H   0  0  0  0  0  0  0  0  0  0  0  0
  148.5715  152.9908  133.0827 H   0  0  0  0  0  0  0  0  0  0  0  0
  149.1191  154.3385  134.1597 H   0  0  0  0  0  0  0  0  0  0  0  0
  146.2963  154.5190  134.0944 H   0  0  0  0  0  0  0  0  0  0  0  0
  146.6786  152.7584  134.2631 H   0  0  0  0  0  0  0  0  0  0  0  0
  145.6627  156.0040  132.9836 H   0  0  0  0  0  0  0  0  0  0  0  0
  140.9169  157.6314  131.9037 H   0  0  0  0  0  0  0  0  0  0  0  0
  141.4068  156.7900  133.4223 H   0  0  0  0  0  0  0  0  0  0  0  0
  1  2  1  0
  2  3  2  0
  2  4  1  0
  4  5  2  0
  5  6  1  0
  6  7  2  0
  7  8  1  0
  8  9  2  0
  9 10  1  0
 10 11  1  0
 11 12  1  0
 12 13  1  0
 13 14  2  0
 13 15  1  0
  9 16  1  0
 16 17  2  0
 17 18  1  0
 18 19  1  0
 19 20  2  0
 19 21  1  0
 21 22  1  0
 22 23  1  0
 23 24  2  0
 23 25  1  0
 23 26  1  0
 18  4  1  0
 17  6  1  0
  1 27  1  0
  1 28  1  0
  5 29  1  0
  7 30  1  0
  8 31  1  0
 10 32  1  0
 11 33  1  0
 11 34  1  0
 12 35  1  0
 12 36  1  0
 16 37  1  0
 22 38  1  0
 22 39  1  0
M  CHG  3  15  -1  25  -1  26  -1
M  END
>  <UniqueID>  (85) 
85

>  <SMILES>  (85) 
NC(=O)c1cc2ccc(NCCC(=O)[O-])cc2n1C(=O)OCP(=O)([O-])[O-]

>  <Energy>  (85) 
70.24839503533087

>  <Genealogy>  (85) 
NC(=O)c1cc2ccc(NCCC(=O)[O-])cc2n1C(=O)OCP(=O)([O-])[O-] (protonated)
NC(=O)c1cc2ccc(NCCC(=O)[O-])cc2n1C(=O)OCP(=O)([O-])[O-] (3D coordinates assigned)
NC(=O)c1cc2ccc(NCCC(=O)[O-])cc2n1C(=O)OCP(=O)([O-])[O-] (optimized conformer: 70.24839503533087 kcal/mol)

>  <smiles>  (85) 
NC(=O)c1cc2ccc(NCCC(=O)O)cc2n1C(=O)OCP(=O)(O)O

>  <score_type>  (85) 
oracle

>  <origin>  (85) 
adg

>  <m_score__min__energy>  (85) 
-6.7999999999999998

>  <m_primary>  (85) 
energy

$$$$
87:0
     RDKit          3D

 37 38  0  0  0  0  0  0  0  0999 V2000
  149.6100  158.5180  131.8870 C   0  0  0  0  0  0  0  0  0  0  0  0
  148.5030  157.7700  132.6220 C   0  0  0  0  0  0  0  0  0  0  0  0
  147.3810  158.7030  132.9860 C   0  0  0  0  0  0  0  0  0  0  0  0
  147.6600  160.0440  133.3510 C   0  0  0  0  0  0  0  0  0  0  0  0
  146.6240  160.9130  133.7320 C   0  0  0  0  0  0  0  0  0  0  0  0
  145.3250  160.4140  133.7430 C   0  0  0  0  0  0  0  0  0  0  0  0
  144.1440  161.0260  134.0950 C   0  0  0  0  0  0  0  0  0  0  0  0
  143.1600  160.0530  133.9330 C   0  0  0  0  0  0  0  0  0  0  0  0
  141.7180  160.3140  134.1180 C   0  0  0  0  0  0  0  0  0  0  0  0
  140.8500  160.3340  132.9870 N   0  0  0  0  0  0  0  0  0  0  0  0
  141.2360  160.4830  135.2690 O   0  0  0  0  0  0  0  0  0  0  0  0
  143.7120  158.8820  133.5040 N   0  0  0  0  0  0  0  0  0  0  0  0
  143.0530  157.6250  133.2890 C   0  0  0  0  0  0  0  0  0  0  0  0
  143.5760  156.5600  133.7150 O   0  0  0  0  0  0  0  0  0  0  0  0
  141.7850  157.5870  132.6250 N   0  0  0  0  0  0  0  0  0  0  0  0
  140.6640  156.7710  133.0740 C   0  0  0  0  0  0  0  0  0  0  0  0
  139.4600  157.6270  133.2950 C   0  0  0  0  0  0  0  0  0  0  0  0
  138.9290  158.2230  132.3180 O   0  0  0  0  0  0  0  0  0  0  0  0
  138.9090  157.7250  134.5760 O   0  0  0  0  0  0  0  0  0  0  0  0
  139.7070  157.8790  135.7430 C   0  0  0  0  0  0  0  0  0  0  0  0
  145.0370  159.1210  133.3900 C   0  0  0  0  0  0  0  0  0  0  0  0
  146.0510  158.2290  133.0190 C   0  0  0  0  0  0  0  0  0  0  0  0
  150.2904  158.9777  132.6189 H   0  0  0  0  0  0  0  0  0  0  0  0
  150.1719  157.8137  131.2559 H   0  0  0  0  0  0  0  0  0  0  0  0
  149.1662  159.3021  131.2559 H   0  0  0  0  0  0  0  0  0  0  0  0
  148.1131  156.9727  131.9721 H   0  0  0  0  0  0  0  0  0  0  0  0
  148.9193  157.3409  133.5453 H   0  0  0  0  0  0  0  0  0  0  0  0
  148.6980  160.4078  133.3358 H   0  0  0  0  0  0  0  0  0  0  0  0
  146.8332  161.9557  134.0130 H   0  0  0  0  0  0  0  0  0  0  0  0
  144.0059  162.0637  134.4328 H   0  0  0  0  0  0  0  0  0  0  0  0
  140.6990  159.4760  132.4120 H   0  0  0  0  0  0  0  0  0  0  0  0
  140.4363  156.0138  132.3093 H   0  0  0  0  0  0  0  0  0  0  0  0
  140.9338  156.2792  134.0202 H   0  0  0  0  0  0  0  0  0  0  0  0
  139.0771  157.7574  136.6366 H   0  0  0  0  0  0  0  0  0  0  0  0
  140.5007  157.1175  135.7475 H   0  0  0  0  0  0  0  0  0  0  0  0
  140.1604  158.8812  135.7475 H   0  0  0  0  0  0  0  0  0  0  0  0
  145.8175  157.1858  132.7599 H   0  0  0  0  0  0  0  0  0  0  0  0
  1  2  1  0
  2  3  1  0
  3  4  2  0
  4  5  1  0
  5  6  2  0
  6  7  1  0
  7  8  2  0
  8  9  1  0
  9 10  1  0
  9 11  2  0
  8 12  1  0
 12 13  1  0
 13 14  2  0
 13 15  1  0
 15 16  1  0
 16 17  1  0
 17 18  2  0
 17 19  1  0
 19 20  1  0
 12 21  1  0
 21 22  2  0
 22  3  1  0
 21  6  1  0
  1 23  1  0
  1 24  1  0
  1 25  1  0
  2 26  1  0
  2 27  1  0
  4 28  1  0
  5 29  1  0
  7 30  1  0
 10 31  1  0
 16 32  1  0
 16 33  1  0
 20 34  1  0
 20 35  1  0
 20 36  1  0
 22 37  1  0
M  CHG  2  10  -1  15  -1
M  END
>  <UniqueID>  (86) 
86

>  <SMILES>  (86) 
CCc1ccc2cc(C([NH-])=O)n(C(=O)[N-]CC(=O)OC)c2c1

>  <Energy>  (86) 
67.27249293886535

>  <Genealogy>  (86) 
CCc1ccc2cc(C([NH-])=O)n(C(=O)[N-]CC(=O)OC)c2c1 (protonated)
CCc1ccc2cc(C([NH-])=O)n(C(=O)[N-]CC(=O)OC)c2c1 (3D coordinates assigned)
CCc1ccc2cc(C([NH-])=O)n(C(=O)[N-]CC(=O)OC)c2c1 (optimized conformer: 67.27249293886535 kcal/mol)

>  <smiles>  (86) 
CCc1ccc2cc(C(N)=O)n(C(=O)NCC(=O)OC)c2c1

>  <score_type>  (86) 
oracle

>  <origin>  (86) 
adg

>  <m_score__min__energy>  (86) 
-5.9299999999999997

>  <m_primary>  (86) 
energy

$$$$
88:0
     RDKit          3D

 49 51  0  0  0  0  0  0  0  0999 V2000
  140.3460  158.2970  135.8840 C   0  0  0  0  0  0  0  0  0  0  0  0
  141.0300  157.4510  134.8130 C   0  0  0  0  0  0  0  0  0  0  0  0
  142.2890  158.1130  134.3260 C   0  0  0  0  0  0  0  0  0  0  0  0
  142.2680  159.4660  133.9020 C   0  0  0  0  0  0  0  0  0  0  0  0
  143.4380  160.0880  133.4310 C   0  0  0  0  0  0  0  0  0  0  0  0
  144.6130  159.3400  133.4170 C   0  0  0  0  0  0  0  0  0  0  0  0
  145.8840  159.6820  133.0000 C   0  0  0  0  0  0  0  0  0  0  0  0
  146.6640  158.5490  133.2190 C   0  0  0  0  0  0  0  0  0  0  0  0
  148.1220  158.4860  132.9950 C   0  0  0  0  0  0  0  0  0  0  0  0
  148.8510  157.2780  133.2230 N   0  0  0  0  0  0  0  0  0  0  0  0
  148.7400  159.5010  132.5790 O   0  0  0  0  0  0  0  0  0  0  0  0
  145.9030  157.5490  133.7470 N   0  0  0  0  0  0  0  0  0  0  0  0
  146.3160  156.2200  134.0980 C   0  0  0  0  0  0  0  0  0  0  0  0
  146.6870  155.9720  135.2760 O   0  0  0  0  0  0  0  0  0  0  0  0
  146.1800  155.0930  133.1180 C   0  0  0  0  0  0  0  0  0  0  0  0
  147.3290  155.0520  132.2750 O   0  0  0  0  0  0  0  0  0  0  0  0
  148.5090  154.3860  132.6260 C   0  0  0  0  0  0  0  0  0  0  0  0
  149.6150  154.9890  132.5980 O   0  0  0  0  0  0  0  0  0  0  0  0
  148.4470  152.9350  133.0180 C   0  0  0  0  0  0  0  0  0  0  0  0
  147.3280  152.2220  132.2320 C   0  0  0  0  0  0  0  0  0  0  0  0
  147.5530  150.7040  132.2330 C   0  0  0  0  0  0  0  0  0  0  0  0
  148.8260  150.3150  131.5940 N   0  0  0  0  0  0  0  0  0  0  0  0
  149.8640  151.3640  131.5920 C   0  0  0  0  0  0  0  0  0  0  0  0
  149.8170  152.2360  132.8540 C   0  0  0  0  0  0  0  0  0  0  0  0
  144.6540  158.0470  133.8630 C   0  0  0  0  0  0  0  0  0  0  0  0
  143.5060  157.3970  134.3210 C   0  0  0  0  0  0  0  0  0  0  0  0
  140.6392  157.9344  136.8803 H   0  0  0  0  0  0  0  0  0  0  0  0
  140.6514  159.3478  135.7717 H   0  0  0  0  0  0  0  0  0  0  0  0
  139.2546  158.2184  135.7717 H   0  0  0  0  0  0  0  0  0  0  0  0
  141.2816  156.4679  135.2375 H   0  0  0  0  0  0  0  0  0  0  0  0
  140.3415  157.3388  133.9625 H   0  0  0  0  0  0  0  0  0  0  0  0
  141.3272  160.0346  133.9419 H   0  0  0  0  0  0  0  0  0  0  0  0
  143.4257  161.1320  133.0847 H   0  0  0  0  0  0  0  0  0  0  0  0
  146.2115  160.6457  132.5829 H   0  0  0  0  0  0  0  0  0  0  0  0
  149.8720  157.2340  133.0080 H   0  0  0  0  0  0  0  0  0  0  0  0
  148.3930  156.4420  133.6470 H   0  0  0  0  0  0  0  0  0  0  0  0
  146.0919  154.1419  133.6636 H   0  0  0  0  0  0  0  0  0  0  0  0
  145.2811  155.2492  132.5036 H   0  0  0  0  0  0  0  0  0  0  0  0
  148.2011  152.8735  134.0884 H   0  0  0  0  0  0  0  0  0  0  0  0
  146.3581  152.4444  132.7010 H   0  0  0  0  0  0  0  0  0  0  0  0
  147.3385  152.5823  131.1927 H   0  0  0  0  0  0  0  0  0  0  0  0
  147.5598  150.3502  133.2745 H   0  0  0  0  0  0  0  0  0  0  0  0
  146.7375  150.2474  131.6529 H   0  0  0  0  0  0  0  0  0  0  0  0
  149.1980  149.4770  132.0970 H   0  0  0  0  0  0  0  0  0  0  0  0
  150.8517  150.8835  131.5312 H   0  0  0  0  0  0  0  0  0  0  0  0
  149.6793  152.0169  130.7262 H   0  0  0  0  0  0  0  0  0  0  0  0
  150.0001  151.6005  133.7330 H   0  0  0  0  0  0  0  0  0  0  0  0
  150.5891  153.0140  132.7612 H   0  0  0  0  0  0  0  0  0  0  0  0
  143.5487  156.3543  134.6688 H   0  0  0  0  0  0  0  0  0  0  0  0
  1  2  1  0
  2  3  1  0
  3  4  2  0
  4  5  1  0
  5  6  2  0
  6  7  1  0
  7  8  2  0
  8  9  1  0
  9 10  1  0
  9 11  2  0
  8 12  1  0
 12 13  1  0
 13 14  2  0
 13 15  1  0
 15 16  1  0
 16 17  1  0
 17 18  2  0
 17 19  1  0
 19 20  1  0
 20 21  1  0
 21 22  1  0
 22 23  1  0
 23 24  1  0
 12 25  1  0
 25 26  2  0
 26  3  1  0
 25  6  1  0
 24 19  1  0
  1 27  1  0
  1 28  1  0
  1 29  1  0
  2 30  1  0
  2 31  1  0
  4 32  1  0
  5 33  1  0
  7 34  1  0
 10 35  1  0
 10 36  1  0
 15 37  1  0
 15 38  1  0
 19 39  1  0
 20 40  1  0
 20 41  1  0
 21 42  1  0
 21 43  1  0
 22 44  1  0
 23 45  1  0
 23 46  1  0
 24 47  1  0
 24 48  1  0
 26 49  1  0
M  END
>  <UniqueID>  (87) 
87

>  <SMILES>  (87) 
CCc1ccc2cc(C(N)=O)n(C(=O)COC(=O)C3CCNCC3)c2c1

>  <Energy>  (87) 
86.6972548299417

>  <Genealogy>  (87) 
CCc1ccc2cc(C(N)=O)n(C(=O)COC(=O)C3CCNCC3)c2c1 (3D coordinates assigned)
CCc1ccc2cc(C(N)=O)n(C(=O)COC(=O)C3CCNCC3)c2c1 (nonaromatic ring conformer: 86.6972548299417 kcal/mol)

>  <smiles>  (87) 
CCc1ccc2cc(C(N)=O)n(C(=O)COC(=O)C3CCNCC3)c2c1

>  <score_type>  (87) 
oracle

>  <origin>  (87) 
adg

>  <m_score__min__energy>  (87) 
-8.75

>  <m_primary>  (87) 
energy

$$$$
89:0
     RDKit          3D

 43 44  0  0  0  0  0  0  0  0999 V2000
  138.7370  159.8090  131.0560 C   0  0  0  0  0  0  0  0  0  0  0  0
  139.9300  159.2690  131.6100 O   0  0  0  0  0  0  0  0  0  0  0  0
  140.3950  159.6190  132.8820 C   0  0  0  0  0  0  0  0  0  0  0  0
  140.7110  160.8160  133.1310 O   0  0  0  0  0  0  0  0  0  0  0  0
  140.5130  158.6160  133.9100 N   0  0  0  0  0  0  0  0  0  0  0  0
  140.2810  158.9860  135.3090 C   0  0  0  0  0  0  0  0  0  0  0  0
  140.9290  157.2460  133.5780 C   0  0  0  0  0  0  0  0  0  0  0  0
  142.1160  157.2640  132.6110 C   0  0  0  0  0  0  0  0  0  0  0  0
  143.3440  157.1750  133.3280 O   0  0  0  0  0  0  0  0  0  0  0  0
  143.8730  158.2270  134.0830 C   0  0  0  0  0  0  0  0  0  0  0  0
  143.2310  158.6810  135.0690 O   0  0  0  0  0  0  0  0  0  0  0  0
  145.1510  158.7920  133.7350 N   0  0  0  0  0  0  0  0  0  0  0  0
  145.4480  160.1100  133.5490 C   0  0  0  0  0  0  0  0  0  0  0  0
  144.5440  161.2500  133.8020 C   0  0  0  0  0  0  0  0  0  0  0  0
  143.1250  161.1010  133.7260 N   0  0  0  0  0  0  0  0  0  0  0  0
  145.0290  162.3580  134.1540 O   0  0  0  0  0  0  0  0  0  0  0  0
  146.7710  160.2680  133.1490 C   0  0  0  0  0  0  0  0  0  0  0  0
  147.2910  158.9960  133.1130 C   0  0  0  0  0  0  0  0  0  0  0  0
  148.5770  158.5690  132.7950 C   0  0  0  0  0  0  0  0  0  0  0  0
  148.8400  157.1900  132.8270 C   0  0  0  0  0  0  0  0  0  0  0  0
  147.8140  156.2630  133.1460 C   0  0  0  0  0  0  0  0  0  0  0  0
  148.1190  154.7880  133.2150 C   0  0  0  0  0  0  0  0  0  0  0  0
  149.3280  154.5440  132.5920 F   0  0  0  0  0  0  0  0  0  0  0  0
  148.1970  154.3680  134.5320 F   0  0  0  0  0  0  0  0  0  0  0  0
  147.1300  154.0530  132.5840 F   0  0  0  0  0  0  0  0  0  0  0  0
  146.5270  156.7390  133.4840 C   0  0  0  0  0  0  0  0  0  0  0  0
  146.2950  158.1210  133.4660 C   0  0  0  0  0  0  0  0  0  0  0  0
  138.0612  160.1149  131.8683 H   0  0  0  0  0  0  0  0  0  0  0  0
  138.9838  160.6832  130.4356 H   0  0  0  0  0  0  0  0  0  0  0  0
  138.2430  159.0467  130.4356 H   0  0  0  0  0  0  0  0  0  0  0  0
  140.7489  158.2398  135.9680 H   0  0  0  0  0  0  0  0  0  0  0  0
  140.7209  159.9751  135.5045 H   0  0  0  0  0  0  0  0  0  0  0  0
  139.1991  159.0208  135.5045 H   0  0  0  0  0  0  0  0  0  0  0  0
  141.2218  156.7233  134.5005 H   0  0  0  0  0  0  0  0  0  0  0  0
  140.0873  156.7258  133.0975 H   0  0  0  0  0  0  0  0  0  0  0  0
  142.0356  156.4095  131.9230 H   0  0  0  0  0  0  0  0  0  0  0  0
  142.1010  158.2078  132.0462 H   0  0  0  0  0  0  0  0  0  0  0  0
  142.6870  160.1630  133.5920 H   0  0  0  0  0  0  0  0  0  0  0  0
  142.5030  161.9250  133.8800 H   0  0  0  0  0  0  0  0  0  0  0  0
  147.2896  161.2088  132.9123 H   0  0  0  0  0  0  0  0  0  0  0  0
  149.3634  159.2899  132.5268 H   0  0  0  0  0  0  0  0  0  0  0  0
  149.8528  156.8242  132.6023 H   0  0  0  0  0  0  0  0  0  0  0  0
  145.7234  156.0388  133.7558 H   0  0  0  0  0  0  0  0  0  0  0  0
  1  2  1  0
  2  3  1  0
  3  4  2  0
  3  5  1  0
  5  6  1  0
  5  7  1  0
  7  8  1  0
  8  9  1  0
  9 10  1  0
 10 11  2  0
 10 12  1  0
 12 13  1  0
 13 14  1  0
 14 15  1  0
 14 16  2  0
 13 17  2  0
 17 18  1  0
 18 19  2  0
 19 20  1  0
 20 21  2  0
 21 22  1  0
 22 23  1  0
 22 24  1  0
 22 25  1  0
 21 26  1  0
 26 27  2  0
 27 12  1  0
 27 18  1  0
  1 28  1  0
  1 29  1  0
  1 30  1  0
  6 31  1  0
  6 32  1  0
  6 33  1  0
  7 34  1  0
  7 35  1  0
  8 36  1  0
  8 37  1  0
 15 38  1  0
 15 39  1  0
 17 40  1  0
 19 41  1  0
 20 42  1  0
 26 43  1  0
M  END
>  <UniqueID>  (88) 
88

>  <SMILES>  (88) 
COC(=O)N(C)CCOC(=O)n1c(C(N)=O)cc2ccc(C(F)(F)F)cc21

>  <Energy>  (88) 
72.43936262933384

>  <Genealogy>  (88) 
COC(=O)N(C)CCOC(=O)n1c(C(N)=O)cc2ccc(C(F)(F)F)cc21 (3D coordinates assigned)
COC(=O)N(C)CCOC(=O)n1c(C(N)=O)cc2ccc(C(F)(F)F)cc21 (optimized conformer: 72.43936262933384 kcal/mol)

>  <smiles>  (88) 
COC(=O)N(C)CCOC(=O)n1c(C(N)=O)cc2ccc(C(F)(F)F)cc21

>  <score_type>  (88) 
oracle

>  <origin>  (88) 
adg

>  <m_score__min__energy>  (88) 
-5.6799999999999997

>  <m_primary>  (88) 
energy

$$$$
90:0
     RDKit          3D

 46 47  0  0  0  0  0  0  0  0999 V2000
  147.9780  156.9090  132.6320 C   0  0  0  0  0  0  0  0  0  0  0  0
  146.6110  156.4320  132.4150 N   0  0  0  0  0  0  0  0  0  0  0  0
  145.6670  157.3420  133.0130 C   0  0  0  0  0  0  0  0  0  0  0  0
  145.9170  158.7390  133.0020 C   0  0  0  0  0  0  0  0  0  0  0  0
  144.9970  159.6370  133.5680 C   0  0  0  0  0  0  0  0  0  0  0  0
  143.8300  159.1150  134.1200 C   0  0  0  0  0  0  0  0  0  0  0  0
  142.7840  159.7530  134.7430 C   0  0  0  0  0  0  0  0  0  0  0  0
  141.8910  158.7420  135.0960 C   0  0  0  0  0  0  0  0  0  0  0  0
  140.5740  158.9990  135.7160 C   0  0  0  0  0  0  0  0  0  0  0  0
  139.5410  158.0220  135.6170 N   0  0  0  0  0  0  0  0  0  0  0  0
  140.3600  160.0580  136.3630 O   0  0  0  0  0  0  0  0  0  0  0  0
  142.3730  157.5260  134.7120 N   0  0  0  0  0  0  0  0  0  0  0  0
  141.7840  156.2340  134.9330 C   0  0  0  0  0  0  0  0  0  0  0  0
  141.7790  155.7340  136.0910 O   0  0  0  0  0  0  0  0  0  0  0  0
  141.2340  155.5290  133.8570 O   0  0  0  0  0  0  0  0  0  0  0  0
  140.0120  155.9050  133.2340 C   0  0  0  0  0  0  0  0  0  0  0  0
  140.1240  157.2300  132.7260 O   0  0  0  0  0  0  0  0  0  0  0  0
  139.0460  158.1220  132.6870 C   0  0  0  0  0  0  0  0  0  0  0  0
  137.9940  157.8670  133.3350 O   0  0  0  0  0  0  0  0  0  0  0  0
  139.1170  159.3500  131.8010 C   0  0  0  0  0  0  0  0  0  0  0  0
  139.8740  159.0220  130.4970 C   0  0  0  0  0  0  0  0  0  0  0  0
  139.8560  160.4920  132.5280 C   0  0  0  0  0  0  0  0  0  0  0  0
  137.6840  159.7970  131.4610 C   0  0  0  0  0  0  0  0  0  0  0  0
  143.5580  157.7710  134.1130 C   0  0  0  0  0  0  0  0  0  0  0  0
  144.4650  156.8520  133.5740 C   0  0  0  0  0  0  0  0  0  0  0  0
  148.1752  156.9778  133.7120 H   0  0  0  0  0  0  0  0  0  0  0  0
  148.6888  156.2058  132.1735 H   0  0  0  0  0  0  0  0  0  0  0  0
  148.0970  157.9018  132.1735 H   0  0  0  0  0  0  0  0  0  0  0  0
  146.4340  156.3540  131.3860 H   0  0  0  0  0  0  0  0  0  0  0  0
  146.5090  155.4780  132.8340 H   0  0  0  0  0  0  0  0  0  0  0  0
  146.8412  159.1227  132.5453 H   0  0  0  0  0  0  0  0  0  0  0  0
  145.1924  160.7195  133.5750 H   0  0  0  0  0  0  0  0  0  0  0  0
  142.6746  160.8324  134.9246 H   0  0  0  0  0  0  0  0  0  0  0  0
  139.5070  157.3570  134.8130 H   0  0  0  0  0  0  0  0  0  0  0  0
  139.7943  155.2129  132.4072 H   0  0  0  0  0  0  0  0  0  0  0  0
  139.1974  155.8639  133.9721 H   0  0  0  0  0  0  0  0  0  0  0  0
  140.8580  158.5956  130.7416 H   0  0  0  0  0  0  0  0  0  0  0  0
  139.2947  158.2942  129.9099 H   0  0  0  0  0  0  0  0  0  0  0  0
  140.0089  159.9424  129.9099 H   0  0  0  0  0  0  0  0  0  0  0  0
  139.7661  160.3531  133.6155 H   0  0  0  0  0  0  0  0  0  0  0  0
  140.9185  160.4808  132.2435 H   0  0  0  0  0  0  0  0  0  0  0  0
  139.4104  161.4566  132.2435 H   0  0  0  0  0  0  0  0  0  0  0  0
  137.1239  159.9717  132.3915 H   0  0  0  0  0  0  0  0  0  0  0  0
  137.7194  160.7268  130.8743 H   0  0  0  0  0  0  0  0  0  0  0  0
  137.1845  159.0120  130.8743 H   0  0  0  0  0  0  0  0  0  0  0  0
  144.2481  155.7737  133.5864 H   0  0  0  0  0  0  0  0  0  0  0  0
  1  2  1  0
  2  3  1  0
  3  4  2  0
  4  5  1  0
  5  6  2  0
  6  7  1  0
  7  8  2  0
  8  9  1  0
  9 10  1  0
  9 11  2  0
  8 12  1  0
 12 13  1  0
 13 14  2  0
 13 15  1  0
 15 16  1  0
 16 17  1  0
 17 18  1  0
 18 19  2  0
 18 20  1  0
 20 21  1  0
 20 22  1  0
 20 23  1  0
 12 24  1  0
 24 25  2  0
 25  3  1  0
 24  6  1  0
  1 26  1  0
  1 27  1  0
  1 28  1  0
  2 29  1  0
  2 30  1  0
  4 31  1  0
  5 32  1  0
  7 33  1  0
 10 34  1  0
 16 35  1  0
 16 36  1  0
 21 37  1  0
 21 38  1  0
 21 39  1  0
 22 40  1  0
 22 41  1  0
 22 42  1  0
 23 43  1  0
 23 44  1  0
 23 45  1  0
 25 46  1  0
M  CHG  2   2   1  10  -1
M  END
>  <UniqueID>  (89) 
89

>  <SMILES>  (89) 
C[NH2+]c1ccc2cc(C([NH-])=O)n(C(=O)OCOC(=O)C(C)(C)C)c2c1

>  <Energy>  (89) 
76.11579115667199

>  <Genealogy>  (89) 
C[NH2+]c1ccc2cc(C([NH-])=O)n(C(=O)OCOC(=O)C(C)(C)C)c2c1 (protonated)
C[NH2+]c1ccc2cc(C([NH-])=O)n(C(=O)OCOC(=O)C(C)(C)C)c2c1 (3D coordinates assigned)
C[NH2+]c1ccc2cc(C([NH-])=O)n(C(=O)OCOC(=O)C(C)(C)C)c2c1 (optimized conformer: 76.11579115667199 kcal/mol)

>  <smiles>  (89) 
CNc1ccc2cc(C(N)=O)n(C(=O)OCOC(=O)C(C)(C)C)c2c1

>  <score_type>  (89) 
oracle

>  <origin>  (89) 
adg

>  <m_score__min__energy>  (89) 
-6.6500000000000004

>  <m_primary>  (89) 
energy

$$$$
91:0
     RDKit          3D

 37 38  0  0  0  0  0  0  0  0999 V2000
  142.2440  155.3550  133.5750 C   0  0  0  0  0  0  0  0  0  0  0  0
  140.9720  154.9960  133.3690 C   0  0  0  0  0  0  0  0  0  0  0  0
  140.6550  153.5550  133.0750 C   0  0  0  0  0  0  0  0  0  0  0  0
  139.8910  156.0130  133.3790 C   0  0  0  0  0  0  0  0  0  0  0  0
  138.7330  155.7120  132.9790 O   0  0  0  0  0  0  0  0  0  0  0  0
  140.1450  157.3530  133.8300 N   0  0  0  0  0  0  0  0  0  0  0  0
  140.0120  158.5060  133.1170 C   0  0  0  0  0  0  0  0  0  0  0  0
  139.6720  158.5820  131.6770 C   0  0  0  0  0  0  0  0  0  0  0  0
  138.5490  157.8750  131.1480 N   0  0  0  0  0  0  0  0  0  0  0  0
  140.3690  159.2880  130.9010 O   0  0  0  0  0  0  0  0  0  0  0  0
  140.2980  159.6080  133.9250 C   0  0  0  0  0  0  0  0  0  0  0  0
  140.6020  159.0850  135.1620 C   0  0  0  0  0  0  0  0  0  0  0  0
  140.9480  159.7250  136.3440 C   0  0  0  0  0  0  0  0  0  0  0  0
  141.1850  158.9330  137.4800 C   0  0  0  0  0  0  0  0  0  0  0  0
  141.0670  157.5140  137.4260 C   0  0  0  0  0  0  0  0  0  0  0  0
  141.3120  156.7030  138.6040 N   0  0  0  0  0  0  0  0  0  0  0  0
  140.7820  155.3360  138.6910 C   0  0  0  0  0  0  0  0  0  0  0  0
  142.0910  157.2370  139.7270 C   0  0  0  0  0  0  0  0  0  0  0  0
  140.7050  156.9090  136.1950 C   0  0  0  0  0  0  0  0  0  0  0  0
  140.4970  157.7240  135.0790 C   0  0  0  0  0  0  0  0  0  0  0  0
  142.4911  156.4049  133.7910 H   0  0  0  0  0  0  0  0  0  0  0  0
  143.0429  154.6003  133.5284 H   0  0  0  0  0  0  0  0  0  0  0  0
  140.5342  153.0059  134.0204 H   0  0  0  0  0  0  0  0  0  0  0  0
  139.7223  153.4957  132.4948 H   0  0  0  0  0  0  0  0  0  0  0  0
  141.4767  153.1098  132.4948 H   0  0  0  0  0  0  0  0  0  0  0  0
  138.3030  157.9670  130.1370 H   0  0  0  0  0  0  0  0  0  0  0  0
  137.9830  157.2260  131.7360 H   0  0  0  0  0  0  0  0  0  0  0  0
  140.2836  160.6690  133.6350 H   0  0  0  0  0  0  0  0  0  0  0  0
  141.0342  160.8207  136.3900 H   0  0  0  0  0  0  0  0  0  0  0  0
  141.4664  159.4165  138.4271 H   0  0  0  0  0  0  0  0  0  0  0  0
  140.6719  155.0520  139.7480 H   0  0  0  0  0  0  0  0  0  0  0  0
  139.8012  155.2908  138.1951 H   0  0  0  0  0  0  0  0  0  0  0  0
  141.4760  154.6414  138.1951 H   0  0  0  0  0  0  0  0  0  0  0  0
  141.6310  156.9217  140.6751 H   0  0  0  0  0  0  0  0  0  0  0  0
  143.1208  156.8540  139.6739 H   0  0  0  0  0  0  0  0  0  0  0  0
  142.1052  158.3356  139.6739 H   0  0  0  0  0  0  0  0  0  0  0  0
  140.5901  155.8176  136.1202 H   0  0  0  0  0  0  0  0  0  0  0  0
  1  2  2  0
  2  3  1  0
  2  4  1  0
  4  5  2  0
  4  6  1  0
  6  7  1  0
  7  8  1  0
  8  9  1  0
  8 10  2  0
  7 11  2  0
 11 12  1  0
 12 13  2  0
 13 14  1  0
 14 15  2  0
 15 16  1  0
 16 17  1  0
 16 18  1  0
 15 19  1  0
 19 20  2  0
 20  6  1  0
 20 12  1  0
  1 21  1  0
  1 22  1  0
  3 23  1  0
  3 24  1  0
  3 25  1  0
  9 26  1  0
  9 27  1  0
 11 28  1  0
 13 29  1  0
 14 30  1  0
 17 31  1  0
 17 32  1  0
 17 33  1  0
 18 34  1  0
 18 35  1  0
 18 36  1  0
 19 37  1  0
M  END
>  <UniqueID>  (90) 
90

>  <SMILES>  (90) 
C=C(C)C(=O)n1c(C(N)=O)cc2ccc(N(C)C)cc21

>  <Energy>  (90) 
76.20111789429056

>  <Genealogy>  (90) 
C=C(C)C(=O)n1c(C(N)=O)cc2ccc(N(C)C)cc21 (3D coordinates assigned)
C=C(C)C(=O)n1c(C(N)=O)cc2ccc(N(C)C)cc21 (optimized conformer: 76.20111789429056 kcal/mol)

>  <smiles>  (90) 
C=C(C)C(=O)n1c(C(N)=O)cc2ccc(N(C)C)cc21

>  <score_type>  (90) 
oracle

>  <origin>  (90) 
adg

>  <m_score__min__energy>  (90) 
-7.0199999999999996

>  <m_primary>  (90) 
energy

$$$$
92:0
     RDKit          3D

 35 36  0  0  0  0  0  0  0  0999 V2000
  148.4660  149.9490  132.2640 C   0  0  0  0  0  0  0  0  0  0  0  0
  148.1520  151.3190  132.7070 N   0  0  0  0  0  0  0  0  0  0  0  0
  146.8410  151.7480  132.1880 C   0  0  0  0  0  0  0  0  0  0  0  0
  149.2280  152.2760  132.3570 C   0  0  0  0  0  0  0  0  0  0  0  0
  148.8170  153.6850  132.5040 C   0  0  0  0  0  0  0  0  0  0  0  0
  148.4740  154.8340  132.6270 C   0  0  0  0  0  0  0  0  0  0  0  0
  148.0710  156.2070  132.7720 C   0  0  0  0  0  0  0  0  0  0  0  0
  149.0280  157.2380  132.6340 C   0  0  0  0  0  0  0  0  0  0  0  0
  148.6520  158.5830  132.7860 C   0  0  0  0  0  0  0  0  0  0  0  0
  147.3160  158.8590  133.0680 C   0  0  0  0  0  0  0  0  0  0  0  0
  146.6890  160.0630  133.2870 C   0  0  0  0  0  0  0  0  0  0  0  0
  145.3550  159.7460  133.5340 C   0  0  0  0  0  0  0  0  0  0  0  0
  144.3030  160.7640  133.7400 C   0  0  0  0  0  0  0  0  0  0  0  0
  142.9580  160.4810  133.3590 N   0  0  0  0  0  0  0  0  0  0  0  0
  144.5700  161.8690  134.2830 O   0  0  0  0  0  0  0  0  0  0  0  0
  145.1650  158.3960  133.4770 N   0  0  0  0  0  0  0  0  0  0  0  0
  143.9560  157.6620  133.7330 C   0  0  0  0  0  0  0  0  0  0  0  0
  143.0290  157.6460  132.8800 O   0  0  0  0  0  0  0  0  0  0  0  0
  143.7870  156.9850  134.9340 O   0  0  0  0  0  0  0  0  0  0  0  0
  146.3750  157.8670  133.1870 C   0  0  0  0  0  0  0  0  0  0  0  0
  146.7270  156.5180  133.0590 C   0  0  0  0  0  0  0  0  0  0  0  0
  148.6138  149.3043  133.1429 H   0  0  0  0  0  0  0  0  0  0  0  0
  147.6339  149.5594  131.6592 H   0  0  0  0  0  0  0  0  0  0  0  0
  149.3848  149.9607  131.6592 H   0  0  0  0  0  0  0  0  0  0  0  0
  148.0830  151.3000  133.7520 H   0  0  0  0  0  0  0  0  0  0  0  0
  146.1677  151.9683  133.0295 H   0  0  0  0  0  0  0  0  0  0  0  0
  146.9677  152.6515  131.5736 H   0  0  0  0  0  0  0  0  0  0  0  0
  146.4091  150.9443  131.5736 H   0  0  0  0  0  0  0  0  0  0  0  0
  150.0891  152.0915  133.0161 H   0  0  0  0  0  0  0  0  0  0  0  0
  149.4792  152.1155  131.2982 H   0  0  0  0  0  0  0  0  0  0  0  0
  150.0741  156.9855  132.4061 H   0  0  0  0  0  0  0  0  0  0  0  0
  149.3895  159.3929  132.6855 H   0  0  0  0  0  0  0  0  0  0  0  0
  147.1442  161.0643  133.2707 H   0  0  0  0  0  0  0  0  0  0  0  0
  142.7470  159.7750  132.6190 H   0  0  0  0  0  0  0  0  0  0  0  0
  145.9758  155.7235  133.1791 H   0  0  0  0  0  0  0  0  0  0  0  0
  1  2  1  0
  2  3  1  0
  2  4  1  0
  4  5  1  0
  5  6  3  0
  6  7  1  0
  7  8  2  0
  8  9  1  0
  9 10  2  0
 10 11  1  0
 11 12  2  0
 12 13  1  0
 13 14  1  0
 13 15  2  0
 12 16  1  0
 16 17  1  0
 17 18  2  0
 17 19  1  0
 16 20  1  0
 20 21  2  0
 21  7  1  0
 20 10  1  0
  1 22  1  0
  1 23  1  0
  1 24  1  0
  2 25  1  0
  3 26  1  0
  3 27  1  0
  3 28  1  0
  4 29  1  0
  4 30  1  0
  8 31  1  0
  9 32  1  0
 11 33  1  0
 14 34  1  0
 21 35  1  0
M  CHG  3   2   1  14  -1  19  -1
M  END
>  <UniqueID>  (91) 
91

>  <SMILES>  (91) 
C[NH+](C)CC#Cc1ccc2cc(C([NH-])=O)n(C(=O)[O-])c2c1

>  <Energy>  (91) 
71.95025290571704

>  <Genealogy>  (91) 
C[NH+](C)CC#Cc1ccc2cc(C([NH-])=O)n(C(=O)[O-])c2c1 (protonated)
C[NH+](C)CC#Cc1ccc2cc(C([NH-])=O)n(C(=O)[O-])c2c1 (3D coordinates assigned)
C[NH+](C)CC#Cc1ccc2cc(C([NH-])=O)n(C(=O)[O-])c2c1 (optimized conformer: 71.95025290571704 kcal/mol)

>  <smiles>  (91) 
CN(C)CC#Cc1ccc2cc(C(N)=O)n(C(=O)O)c2c1

>  <score_type>  (91) 
oracle

>  <origin>  (91) 
adg

>  <m_score__min__energy>  (91) 
-6.6699999999999999

>  <m_primary>  (91) 
energy

$$$$
93:0
     RDKit          3D

 38 39  0  0  0  0  0  0  0  0999 V2000
  149.2850  161.9520  130.3870 C   0  0  0  0  0  0  0  0  0  0  0  0
  148.9720  160.6410  131.0470 C   0  0  0  0  0  0  0  0  0  0  0  0
  149.9050  159.5770  130.9880 C   0  0  0  0  0  0  0  0  0  0  0  0
  149.6310  158.3510  131.6160 C   0  0  0  0  0  0  0  0  0  0  0  0
  148.4320  158.2280  132.3110 C   0  0  0  0  0  0  0  0  0  0  0  0
  147.9060  157.1470  132.9810 C   0  0  0  0  0  0  0  0  0  0  0  0
  146.6820  157.5830  133.4780 C   0  0  0  0  0  0  0  0  0  0  0  0
  145.7980  156.7420  134.3110 C   0  0  0  0  0  0  0  0  0  0  0  0
  144.3830  156.7350  134.1150 N   0  0  0  0  0  0  0  0  0  0  0  0
  146.2960  156.0600  135.2470 O   0  0  0  0  0  0  0  0  0  0  0  0
  146.4480  158.8780  133.1230 N   0  0  0  0  0  0  0  0  0  0  0  0
  145.2470  159.6360  133.3430 C   0  0  0  0  0  0  0  0  0  0  0  0
  145.3110  160.7680  133.8930 O   0  0  0  0  0  0  0  0  0  0  0  0
  144.0140  159.1040  132.9420 O   0  0  0  0  0  0  0  0  0  0  0  0
  142.7660  159.4650  133.4690 C   0  0  0  0  0  0  0  0  0  0  0  0
  142.5120  160.6690  133.7400 O   0  0  0  0  0  0  0  0  0  0  0  0
  141.7590  158.3990  133.6830 C   0  0  0  0  0  0  0  0  0  0  0  0
  142.0410  157.5020  134.5250 O   0  0  0  0  0  0  0  0  0  0  0  0
  140.4910  158.3360  132.9840 N   0  0  0  0  0  0  0  0  0  0  0  0
  140.0430  159.3950  132.0730 C   0  0  0  0  0  0  0  0  0  0  0  0
  139.6250  157.1730  133.2170 C   0  0  0  0  0  0  0  0  0  0  0  0
  147.5320  159.2600  132.4080 C   0  0  0  0  0  0  0  0  0  0  0  0
  147.7710  160.4850  131.7730 C   0  0  0  0  0  0  0  0  0  0  0  0
  149.4674  162.7159  131.1572 H   0  0  0  0  0  0  0  0  0  0  0  0
  150.1821  161.8419  129.7600 H   0  0  0  0  0  0  0  0  0  0  0  0
  148.4349  162.2591  129.7600 H   0  0  0  0  0  0  0  0  0  0  0  0
  150.8524  159.7120  130.4456 H   0  0  0  0  0  0  0  0  0  0  0  0
  150.3424  157.5139  131.5601 H   0  0  0  0  0  0  0  0  0  0  0  0
  148.3572  156.1507  133.0985 H   0  0  0  0  0  0  0  0  0  0  0  0
  143.7800  156.0980  134.6820 H   0  0  0  0  0  0  0  0  0  0  0  0
  143.9250  157.4130  133.4670 H   0  0  0  0  0  0  0  0  0  0  0  0
  139.6801  160.2528  132.6582 H   0  0  0  0  0  0  0  0  0  0  0  0
  140.8837  159.7131  131.4389 H   0  0  0  0  0  0  0  0  0  0  0  0
  139.2293  159.0132  131.4389 H   0  0  0  0  0  0  0  0  0  0  0  0
  139.5071  157.0146  134.2991 H   0  0  0  0  0  0  0  0  0  0  0  0
  138.6393  157.3531  132.7632 H   0  0  0  0  0  0  0  0  0  0  0  0
  140.0800  156.2802  132.7632 H   0  0  0  0  0  0  0  0  0  0  0  0
  147.0412  161.3054  131.8381 H   0  0  0  0  0  0  0  0  0  0  0  0
  1  2  1  0
  2  3  2  0
  3  4  1  0
  4  5  2  0
  5  6  1  0
  6  7  2  0
  7  8  1  0
  8  9  1  0
  8 10  2  0
  7 11  1  0
 11 12  1  0
 12 13  2  0
 12 14  1  0
 14 15  1  0
 15 16  2  0
 15 17  1  0
 17 18  2  0
 17 19  1  0
 19 20  1  0
 19 21  1  0
 11 22  1  0
 22 23  2  0
 23  2  1  0
 22  5  1  0
  1 24  1  0
  1 25  1  0
  1 26  1  0
  3 27  1  0
  4 28  1  0
  6 29  1  0
  9 30  1  0
  9 31  1  0
 20 32  1  0
 20 33  1  0
 20 34  1  0
 21 35  1  0
 21 36  1  0
 21 37  1  0
 23 38  1  0
M  END
>  <UniqueID>  (92) 
92

>  <SMILES>  (92) 
Cc1ccc2cc(C(N)=O)n(C(=O)OC(=O)C(=O)N(C)C)c2c1

>  <Energy>  (92) 
77.24984852187913

>  <Genealogy>  (92) 
Cc1ccc2cc(C(N)=O)n(C(=O)OC(=O)C(=O)N(C)C)c2c1 (3D coordinates assigned)
Cc1ccc2cc(C(N)=O)n(C(=O)OC(=O)C(=O)N(C)C)c2c1 (optimized conformer: 77.24984852187913 kcal/mol)

>  <smiles>  (92) 
Cc1ccc2cc(C(N)=O)n(C(=O)OC(=O)C(=O)N(C)C)c2c1

>  <score_type>  (92) 
oracle

>  <origin>  (92) 
adg

>  <m_score__min__energy>  (92) 
-6.7599999999999998

>  <m_primary>  (92) 
energy

$$$$
94:0
     RDKit          3D

 39 40  0  0  0  0  0  0  0  0999 V2000
  148.9450  151.7930  132.8120 C   0  0  0  0  0  0  0  0  0  0  0  0
  148.1440  153.0180  132.7380 N   0  0  0  0  0  0  0  0  0  0  0  0
  146.7130  152.9170  132.6120 C   0  0  0  0  0  0  0  0  0  0  0  0
  146.1640  151.7830  132.5490 O   0  0  0  0  0  0  0  0  0  0  0  0
  145.9270  154.0740  132.5870 O   0  0  0  0  0  0  0  0  0  0  0  0
  144.7490  154.1850  131.7940 C   0  0  0  0  0  0  0  0  0  0  0  0
  143.5150  153.9450  132.6600 C   0  0  0  0  0  0  0  0  0  0  0  0
  143.6690  152.7850  133.4310 O   0  0  0  0  0  0  0  0  0  0  0  0
  148.7710  154.2990  132.9400 C   0  0  0  0  0  0  0  0  0  0  0  0
  149.9480  154.4930  132.5330 O   0  0  0  0  0  0  0  0  0  0  0  0
  148.0760  155.3600  133.6180 N   0  0  0  0  0  0  0  0  0  0  0  0
  147.3510  155.2850  134.7690 C   0  0  0  0  0  0  0  0  0  0  0  0
  147.0300  154.0480  135.5100 C   0  0  0  0  0  0  0  0  0  0  0  0
  145.7970  153.3670  135.3050 N   0  0  0  0  0  0  0  0  0  0  0  0
  147.8490  153.6000  136.3570 O   0  0  0  0  0  0  0  0  0  0  0  0
  146.8930  156.5470  135.1380 C   0  0  0  0  0  0  0  0  0  0  0  0
  147.3640  157.4030  134.1700 C   0  0  0  0  0  0  0  0  0  0  0  0
  147.2470  158.7860  134.0630 C   0  0  0  0  0  0  0  0  0  0  0  0
  147.8970  159.4220  132.9900 C   0  0  0  0  0  0  0  0  0  0  0  0
  148.6480  158.6720  132.0480 C   0  0  0  0  0  0  0  0  0  0  0  0
  149.3630  159.3980  130.9370 C   0  0  0  0  0  0  0  0  0  0  0  0
  149.0550  158.8090  129.7240 F   0  0  0  0  0  0  0  0  0  0  0  0
  148.9510  160.7170  130.9170 F   0  0  0  0  0  0  0  0  0  0  0  0
  150.7370  159.3630  131.1060 F   0  0  0  0  0  0  0  0  0  0  0  0
  148.7460  157.2680  132.1950 C   0  0  0  0  0  0  0  0  0  0  0  0
  148.0760  156.6630  133.2640 C   0  0  0  0  0  0  0  0  0  0  0  0
  149.1168  151.5303  133.8663 H   0  0  0  0  0  0  0  0  0  0  0  0
  148.4080  150.9731  132.3126 H   0  0  0  0  0  0  0  0  0  0  0  0
  149.9115  151.9561  132.3126 H   0  0  0  0  0  0  0  0  0  0  0  0
  144.6973  155.1931  131.3568 H   0  0  0  0  0  0  0  0  0  0  0  0
  144.7803  153.4329  130.9919 H   0  0  0  0  0  0  0  0  0  0  0  0
  143.3700  154.8064  133.3286 H   0  0  0  0  0  0  0  0  0  0  0  0
  142.6412  153.8200  132.0037 H   0  0  0  0  0  0  0  0  0  0  0  0
  144.6320  152.7220  133.6600 H   0  0  0  0  0  0  0  0  0  0  0  0
  145.5870  152.8970  134.3990 H   0  0  0  0  0  0  0  0  0  0  0  0
  146.2839  156.8047  136.0170 H   0  0  0  0  0  0  0  0  0  0  0  0
  146.6640  159.3638  134.7953 H   0  0  0  0  0  0  0  0  0  0  0  0
  147.8223  160.5139  132.8797 H   0  0  0  0  0  0  0  0  0  0  0  0
  149.3345  156.6670  131.4862 H   0  0  0  0  0  0  0  0  0  0  0  0
  1  2  1  0
  2  3  1  0
  3  4  2  0
  3  5  1  0
  5  6  1  0
  6  7  1  0
  7  8  1  0
  2  9  1  0
  9 10  2  0
  9 11  1  0
 11 12  1  0
 12 13  1  0
 13 14  1  0
 13 15  2  0
 12 16  2  0
 16 17  1  0
 17 18  2  0
 18 19  1  0
 19 20  2  0
 20 21  1  0
 21 22  1  0
 21 23  1  0
 21 24  1  0
 20 25  1  0
 25 26  2  0
 26 11  1  0
 26 17  1  0
  1 27  1  0
  1 28  1  0
  1 29  1  0
  6 30  1  0
  6 31  1  0
  7 32  1  0
  7 33  1  0
  8 34  1  0
 14 35  1  0
 16 36  1  0
 18 37  1  0
 19 38  1  0
 25 39  1  0
M  CHG  1  14  -1
M  END
>  <UniqueID>  (93) 
93

>  <SMILES>  (93) 
CN(C(=O)OCCO)C(=O)n1c(C([NH-])=O)cc2ccc(C(F)(F)F)cc21

>  <Energy>  (93) 
74.71154048312951

>  <Genealogy>  (93) 
CN(C(=O)OCCO)C(=O)n1c(C([NH-])=O)cc2ccc(C(F)(F)F)cc21 (protonated)
CN(C(=O)OCCO)C(=O)n1c(C([NH-])=O)cc2ccc(C(F)(F)F)cc21 (3D coordinates assigned)
CN(C(=O)OCCO)C(=O)n1c(C([NH-])=O)cc2ccc(C(F)(F)F)cc21 (optimized conformer: 74.71154048312951 kcal/mol)

>  <smiles>  (93) 
CN(C(=O)OCCO)C(=O)n1c(C(N)=O)cc2ccc(C(F)(F)F)cc21

>  <score_type>  (93) 
oracle

>  <origin>  (93) 
adg

>  <m_score__min__energy>  (93) 
-4.8600000000000003

>  <m_primary>  (93) 
energy

$$$$
95:0
     RDKit          3D

 36 37  0  0  0  0  0  0  0  0999 V2000
  141.0030  159.0180  137.3990 C   0  0  0  0  0  0  0  0  0  0  0  0
  140.9360  158.6520  135.9920 N   0  0  0  0  0  0  0  0  0  0  0  0
  141.6660  159.3570  134.9880 C   0  0  0  0  0  0  0  0  0  0  0  0
  141.0380  160.0680  134.1590 O   0  0  0  0  0  0  0  0  0  0  0  0
  143.0630  159.2530  134.9430 O   0  0  0  0  0  0  0  0  0  0  0  0
  143.8060  158.8580  133.8230 C   0  0  0  0  0  0  0  0  0  0  0  0
  143.2950  158.1210  132.9360 O   0  0  0  0  0  0  0  0  0  0  0  0
  145.1780  159.2690  133.7050 N   0  0  0  0  0  0  0  0  0  0  0  0
  145.6770  160.5380  133.7370 C   0  0  0  0  0  0  0  0  0  0  0  0
  144.9190  161.7640  134.0680 C   0  0  0  0  0  0  0  0  0  0  0  0
  143.5390  161.8860  133.7330 N   0  0  0  0  0  0  0  0  0  0  0  0
  145.4850  162.6950  134.7000 O   0  0  0  0  0  0  0  0  0  0  0  0
  147.0490  160.5300  133.5000 C   0  0  0  0  0  0  0  0  0  0  0  0
  147.3820  159.2060  133.3310 C   0  0  0  0  0  0  0  0  0  0  0  0
  148.6140  158.6230  133.0630 C   0  0  0  0  0  0  0  0  0  0  0  0
  148.6640  157.2270  132.9120 C   0  0  0  0  0  0  0  0  0  0  0  0
  147.4890  156.4320  133.0230 C   0  0  0  0  0  0  0  0  0  0  0  0
  147.5510  154.9920  132.8610 N   0  0  0  0  0  0  0  0  0  0  0  0
  146.3340  154.1780  132.9510 C   0  0  0  0  0  0  0  0  0  0  0  0
  148.8330  154.3270  132.5970 C   0  0  0  0  0  0  0  0  0  0  0  0
  146.2530  157.0760  133.2940 C   0  0  0  0  0  0  0  0  0  0  0  0
  146.2370  158.4650  133.4590 C   0  0  0  0  0  0  0  0  0  0  0  0
  140.8393  158.1240  138.0186 H   0  0  0  0  0  0  0  0  0  0  0  0
  141.9936  159.4416  137.6209 H   0  0  0  0  0  0  0  0  0  0  0  0
  140.2267  159.7651  137.6209 H   0  0  0  0  0  0  0  0  0  0  0  0
  142.9060  161.0570  133.7520 H   0  0  0  0  0  0  0  0  0  0  0  0
  147.7234  161.3980  133.4570 H   0  0  0  0  0  0  0  0  0  0  0  0
  149.5230  159.2357  132.9718 H   0  0  0  0  0  0  0  0  0  0  0  0
  149.6283  156.7401  132.7044 H   0  0  0  0  0  0  0  0  0  0  0  0
  146.0827  154.0099  134.0086 H   0  0  0  0  0  0  0  0  0  0  0  0
  145.5040  154.7034  132.4559 H   0  0  0  0  0  0  0  0  0  0  0  0
  146.5027  153.2103  132.4559 H   0  0  0  0  0  0  0  0  0  0  0  0
  149.3187  154.0750  133.5513 H   0  0  0  0  0  0  0  0  0  0  0  0
  148.6568  153.4066  132.0210 H   0  0  0  0  0  0  0  0  0  0  0  0
  149.4840  155.0011  132.0210 H   0  0  0  0  0  0  0  0  0  0  0  0
  145.3238  156.4926  133.3729 H   0  0  0  0  0  0  0  0  0  0  0  0
  1  2  1  0
  2  3  1  0
  3  4  2  0
  3  5  1  0
  5  6  1  0
  6  7  2  0
  6  8  1  0
  8  9  1  0
  9 10  1  0
 10 11  1  0
 10 12  2  0
  9 13  2  0
 13 14  1  0
 14 15  2  0
 15 16  1  0
 16 17  2  0
 17 18  1  0
 18 19  1  0
 18 20  1  0
 17 21  1  0
 21 22  2  0
 22  8  1  0
 22 14  1  0
  1 23  1  0
  1 24  1  0
  1 25  1  0
 11 26  1  0
 13 27  1  0
 15 28  1  0
 16 29  1  0
 19 30  1  0
 19 31  1  0
 19 32  1  0
 20 33  1  0
 20 34  1  0
 20 35  1  0
 21 36  1  0
M  CHG  2   2  -1  11  -1
M  END
>  <UniqueID>  (94) 
94

>  <SMILES>  (94) 
C[N-]C(=O)OC(=O)n1c(C([NH-])=O)cc2ccc(N(C)C)cc21

>  <Energy>  (94) 
73.76423119158187

>  <Genealogy>  (94) 
C[N-]C(=O)OC(=O)n1c(C([NH-])=O)cc2ccc(N(C)C)cc21 (protonated)
C[N-]C(=O)OC(=O)n1c(C([NH-])=O)cc2ccc(N(C)C)cc21 (3D coordinates assigned)
C[N-]C(=O)OC(=O)n1c(C([NH-])=O)cc2ccc(N(C)C)cc21 (optimized conformer: 73.76423119158187 kcal/mol)

>  <smiles>  (94) 
CNC(=O)OC(=O)n1c(C(N)=O)cc2ccc(N(C)C)cc21

>  <score_type>  (94) 
oracle

>  <origin>  (94) 
adg

>  <m_score__min__energy>  (94) 
-5.9800000000000004

>  <m_primary>  (94) 
energy

$$$$
96:0
     RDKit          3D

 42 44  0  0  0  0  0  0  0  0999 V2000
  142.9500  161.3280  133.6720 N   0  0  0  0  0  0  0  0  0  0  0  0
  144.3590  161.5130  133.7760 C   0  0  0  0  0  0  0  0  0  0  0  0
  144.8090  162.6370  134.1260 O   0  0  0  0  0  0  0  0  0  0  0  0
  145.2930  160.3930  133.5400 C   0  0  0  0  0  0  0  0  0  0  0  0
  146.6640  160.5650  133.3610 C   0  0  0  0  0  0  0  0  0  0  0  0
  147.1830  159.2940  133.2720 C   0  0  0  0  0  0  0  0  0  0  0  0
  148.4960  158.8760  133.0750 C   0  0  0  0  0  0  0  0  0  0  0  0
  148.7430  157.4950  132.9910 C   0  0  0  0  0  0  0  0  0  0  0  0
  147.6820  156.5600  133.1140 C   0  0  0  0  0  0  0  0  0  0  0  0
  147.9390  155.0810  132.9720 C   0  0  0  0  0  0  0  0  0  0  0  0
  149.0940  154.8630  132.2390 F   0  0  0  0  0  0  0  0  0  0  0  0
  146.8910  154.4540  132.3230 F   0  0  0  0  0  0  0  0  0  0  0  0
  148.0900  154.5230  134.2280 F   0  0  0  0  0  0  0  0  0  0  0  0
  146.3600  157.0270  133.2860 C   0  0  0  0  0  0  0  0  0  0  0  0
  146.1450  158.4070  133.3870 C   0  0  0  0  0  0  0  0  0  0  0  0
  144.9750  159.0660  133.5480 N   0  0  0  0  0  0  0  0  0  0  0  0
  143.6710  158.4690  133.6250 C   0  0  0  0  0  0  0  0  0  0  0  0
  143.2480  157.7610  132.6700 O   0  0  0  0  0  0  0  0  0  0  0  0
  142.9030  158.6450  134.7820 O   0  0  0  0  0  0  0  0  0  0  0  0
  141.5190  158.4530  134.8710 C   0  0  0  0  0  0  0  0  0  0  0  0
  141.0340  157.4170  135.4010 O   0  0  0  0  0  0  0  0  0  0  0  0
  140.6030  159.4870  134.2930 C   0  0  0  0  0  0  0  0  0  0  0  0
  140.7000  159.4940  132.8160 N   0  0  0  0  0  0  0  0  0  0  0  0
  139.8040  160.4980  132.2210 C   0  0  0  0  0  0  0  0  0  0  0  0
  138.4920  159.8100  131.8610 C   0  0  0  0  0  0  0  0  0  0  0  0
  138.7720  158.3220  131.9550 C   0  0  0  0  0  0  0  0  0  0  0  0
  140.2580  158.2120  132.2520 C   0  0  0  0  0  0  0  0  0  0  0  0
  142.5420  160.3780  133.5240 H   0  0  0  0  0  0  0  0  0  0  0  0
  147.2147  161.5155  133.3031 H   0  0  0  0  0  0  0  0  0  0  0  0
  149.3155  159.6045  132.9877 H   0  0  0  0  0  0  0  0  0  0  0  0
  149.7695  157.1348  132.8282 H   0  0  0  0  0  0  0  0  0  0  0  0
  145.5175  156.3217  133.3394 H   0  0  0  0  0  0  0  0  0  0  0  0
  139.5678  159.2594  134.5872 H   0  0  0  0  0  0  0  0  0  0  0  0
  140.8954  160.4764  134.6746 H   0  0  0  0  0  0  0  0  0  0  0  0
  139.6154  161.3046  132.9447 H   0  0  0  0  0  0  0  0  0  0  0  0
  140.2644  160.9337  131.3220 H   0  0  0  0  0  0  0  0  0  0  0  0
  137.7009  160.0973  132.5693 H   0  0  0  0  0  0  0  0  0  0  0  0
  138.1447  160.0960  130.8572 H   0  0  0  0  0  0  0  0  0  0  0  0
  138.1824  157.8694  132.7659 H   0  0  0  0  0  0  0  0  0  0  0  0
  138.4984  157.7938  131.0297 H   0  0  0  0  0  0  0  0  0  0  0  0
  140.4358  157.4035  132.9764 H   0  0  0  0  0  0  0  0  0  0  0  0
  140.8173  157.9838  131.3327 H   0  0  0  0  0  0  0  0  0  0  0  0
  1  2  1  0
  2  3  2  0
  2  4  1  0
  4  5  2  0
  5  6  1  0
  6  7  2  0
  7  8  1  0
  8  9  2  0
  9 10  1  0
 10 11  1  0
 10 12  1  0
 10 13  1  0
  9 14  1  0
 14 15  2  0
 15 16  1  0
 16 17  1  0
 17 18  2  0
 17 19  1  0
 19 20  1  0
 20 21  2  0
 20 22  1  0
 22 23  1  0
 23 24  1  0
 24 25  1  0
 25 26  1  0
 26 27  1  0
 16  4  1  0
 27 23  1  0
 15  6  1  0
  1 28  1  0
  5 29  1  0
  7 30  1  0
  8 31  1  0
 14 32  1  0
 22 33  1  0
 22 34  1  0
 24 35  1  0
 24 36  1  0
 25 37  1  0
 25 38  1  0
 26 39  1  0
 26 40  1  0
 27 41  1  0
 27 42  1  0
M  CHG  1   1  -1
M  END
>  <UniqueID>  (95) 
95

>  <SMILES>  (95) 
[NH-]C(=O)c1cc2ccc(C(F)(F)F)cc2n1C(=O)OC(=O)CN1CCCC1

>  <Energy>  (95) 
84.79228371559098

>  <Genealogy>  (95) 
[NH-]C(=O)c1cc2ccc(C(F)(F)F)cc2n1C(=O)OC(=O)CN1CCCC1 (protonated)
[NH-]C(=O)c1cc2ccc(C(F)(F)F)cc2n1C(=O)OC(=O)CN1CCCC1 (3D coordinates assigned)
[NH-]C(=O)c1cc2ccc(C(F)(F)F)cc2n1C(=O)OC(=O)CN1CCCC1 (nonaromatic ring conformer: 84.79228371559098 kcal/mol)

>  <smiles>  (95) 
NC(=O)c1cc2ccc(C(F)(F)F)cc2n1C(=O)OC(=O)CN1CCCC1

>  <score_type>  (95) 
oracle

>  <origin>  (95) 
adg

>  <m_score__min__energy>  (95) 
-7.1500000000000004

>  <m_primary>  (95) 
energy

$$$$
