0:0
     RDKit          3D

 57 60  0  0  0  0  0  0  0  0999 V2000
  139.8770  154.8170  133.0040 C   0  0  0  0  0  0  0  0  0  0  0  0
  141.2160  154.3360  133.0060 O   0  0  0  0  0  0  0  0  0  0  0  0
  141.5680  152.9820  132.9010 C   0  0  0  0  0  0  0  0  0  0  0  0
  140.6120  151.9400  132.9120 C   0  0  0  0  0  0  0  0  0  0  0  0
  141.0180  150.5990  132.7730 C   0  0  0  0  0  0  0  0  0  0  0  0
  142.3750  150.2840  132.6110 C   0  0  0  0  0  0  0  0  0  0  0  0
  143.2980  151.3270  132.6060 C   0  0  0  0  0  0  0  0  0  0  0  0
  142.9190  152.6300  132.7700 C   0  0  0  0  0  0  0  0  0  0  0  0
  144.1220  153.5170  132.7120 C   0  0  1  0  0  0  0  0  0  0  0  0
  144.3160  154.2880  134.0340 C   0  0  0  0  0  0  0  0  0  0  0  0
  144.8240  155.6840  133.7830 C   0  0  0  0  0  0  0  0  0  0  0  0
  146.1070  155.8790  133.2150 C   0  0  0  0  0  0  0  0  0  0  0  0
  146.6000  157.1760  132.9870 C   0  0  0  0  0  0  0  0  0  0  0  0
  145.7990  158.2520  133.3530 C   0  0  0  0  0  0  0  0  0  0  0  0
  146.0210  159.6050  133.2300 C   0  0  0  0  0  0  0  0  0  0  0  0
  144.8880  160.2140  133.7660 C   0  0  0  0  0  0  0  0  0  0  0  0
  144.7390  161.6760  133.9030 C   0  0  0  0  0  0  0  0  0  0  0  0
  143.4960  162.3230  133.6250 N   0  0  0  0  0  0  0  0  0  0  0  0
  145.7080  162.3590  134.3280 O   0  0  0  0  0  0  0  0  0  0  0  0
  143.9930  159.2770  134.1880 N   0  0  0  0  0  0  0  0  0  0  0  0
  142.6780  159.4940  134.7230 C   0  0  0  0  0  0  0  0  0  0  0  0
  142.4690  159.3200  135.9540 O   0  0  0  0  0  0  0  0  0  0  0  0
  141.6460  159.9000  133.8650 O   0  0  0  0  0  0  0  0  0  0  0  0
  140.6740  159.0520  133.2390 C   0  0  0  0  0  0  0  0  0  0  0  0
  139.7710  158.5010  134.3540 C   0  0  0  0  0  0  0  0  0  0  0  0
  139.8100  159.8570  132.2500 C   0  0  0  0  0  0  0  0  0  0  0  0
  141.3620  157.8710  132.5280 C   0  0  0  0  0  0  0  0  0  0  0  0
  144.5660  158.0800  133.9290 C   0  0  0  0  0  0  0  0  0  0  0  0
  144.0370  156.8020  134.1380 C   0  0  0  0  0  0  0  0  0  0  0  0
  145.2720  152.4980  132.4400 C   0  0  0  0  0  0  0  0  0  0  0  0
  144.6570  151.2110  132.4240 O   0  0  0  0  0  0  0  0  0  0  0  0
  139.5306  154.9415  134.0406 H   0  0  0  0  0  0  0  0  0  0  0  0
  139.8362  155.7860  132.4849 H   0  0  0  0  0  0  0  0  0  0  0  0
  139.2290  154.0955  132.4849 H   0  0  0  0  0  0  0  0  0  0  0  0
  139.5447  152.1786  133.0299 H   0  0  0  0  0  0  0  0  0  0  0  0
  140.2676  149.7949  132.7915 H   0  0  0  0  0  0  0  0  0  0  0  0
  142.7018  149.2405  132.4910 H   0  0  0  0  0  0  0  0  0  0  0  0
  144.0601  154.3066  131.9487 H   0  0  0  0  0  0  0  0  0  0  0  0
  143.3515  154.3466  134.5597 H   0  0  0  0  0  0  0  0  0  0  0  0
  145.0588  153.7521  134.6431 H   0  0  0  0  0  0  0  0  0  0  0  0
  146.7235  155.0075  132.9497 H   0  0  0  0  0  0  0  0  0  0  0  0
  147.5893  157.3346  132.5329 H   0  0  0  0  0  0  0  0  0  0  0  0
  146.9044  160.0999  132.8002 H   0  0  0  0  0  0  0  0  0  0  0  0
  143.4180  163.3620  133.6980 H   0  0  0  0  0  0  0  0  0  0  0  0
  142.6300  161.7710  133.4380 H   0  0  0  0  0  0  0  0  0  0  0  0
  140.1978  158.7614  135.3338 H   0  0  0  0  0  0  0  0  0  0  0  0
  138.7666  158.9403  134.2631 H   0  0  0  0  0  0  0  0  0  0  0  0
  139.7023  157.4069  134.2631 H   0  0  0  0  0  0  0  0  0  0  0  0
  139.1171  160.5025  132.8097 H   0  0  0  0  0  0  0  0  0  0  0  0
  140.4602  160.4788  131.6170 H   0  0  0  0  0  0  0  0  0  0  0  0
  139.2357  159.1645  131.6170 H   0  0  0  0  0  0  0  0  0  0  0  0
  141.7667  157.1764  133.2788 H   0  0  0  0  0  0  0  0  0  0  0  0
  140.6292  157.3446  131.8988 H   0  0  0  0  0  0  0  0  0  0  0  0
  142.1813  158.2488  131.8988 H   0  0  0  0  0  0  0  0  0  0  0  0
  143.0331  156.6709  134.5681 H   0  0  0  0  0  0  0  0  0  0  0  0
  145.7474  152.7072  131.4703 H   0  0  0  0  0  0  0  0  0  0  0  0
  146.0578  152.5610  133.2071 H   0  0  0  0  0  0  0  0  0  0  0  0
  1  2  1  0
  2  3  1  0
  3  4  2  0
  4  5  1  0
  5  6  2  0
  6  7  1  0
  7  8  2  0
  8  9  1  0
  9 10  1  0
 10 11  1  0
 11 12  2  0
 12 13  1  0
 13 14  2  0
 14 15  1  0
 15 16  2  0
 16 17  1  0
 17 18  1  0
 17 19  2  0
 16 20  1  0
 20 21  1  0
 21 22  2  0
 21 23  1  0
 23 24  1  0
 24 25  1  0
 24 26  1  0
 24 27  1  0
 20 28  1  0
 28 29  2  0
  9 30  1  0
 30 31  1  0
  8  3  1  0
 29 11  1  0
 31  7  1  0
 28 14  1  0
  1 32  1  0
  1 33  1  0
  1 34  1  0
  4 35  1  0
  5 36  1  0
  6 37  1  0
  9 38  1  6
 10 39  1  0
 10 40  1  0
 12 41  1  0
 13 42  1  0
 15 43  1  0
 18 44  1  0
 18 45  1  0
 25 46  1  0
 25 47  1  0
 25 48  1  0
 26 49  1  0
 26 50  1  0
 26 51  1  0
 27 52  1  0
 27 53  1  0
 27 54  1  0
 29 55  1  0
 30 56  1  0
 30 57  1  0
M  END
>  <UniqueID>  (1) 
1

>  <SMILES>  (1) 
COc1cccc2c1[C@@H](Cc1ccc3cc(C(N)=O)n(C(=O)OC(C)(C)C)c3c1)CO2

>  <Energy>  (1) 
107.88702479796082

>  <Genealogy>  (1) 
COc1cccc2c1[C@@H](Cc1ccc3cc(C(N)=O)n(C(=O)OC(C)(C)C)c3c1)CO2 (chirality)
COc1cccc2c1[C@@H](Cc1ccc3cc(C(N)=O)n(C(=O)OC(C)(C)C)c3c1)CO2 (3D coordinates assigned)
COc1cccc2c1[C@@H](Cc1ccc3cc(C(N)=O)n(C(=O)OC(C)(C)C)c3c1)CO2 (nonaromatic ring conformer: 107.88702479796082 kcal/mol)

>  <smiles>  (1) 
COc1cccc2c1C(Cc1ccc3cc(C(N)=O)n(C(=O)OC(C)(C)C)c3c1)CO2

>  <score_type>  (1) 
oracle

>  <origin>  (1) 
adg

>  <m_score__min__energy>  (1) 
-8.6199999999999992

>  <m_primary>  (1) 
energy

$$$$
1:0
     RDKit          3D

 55 57  0  0  0  0  0  0  0  0999 V2000
  149.6770  159.7720  130.6510 C   0  0  0  0  0  0  0  0  0  0  0  0
  149.0270  158.6040  131.1020 O   0  0  0  0  0  0  0  0  0  0  0  0
  149.2120  158.4300  132.5000 C   0  0  2  0  0  0  0  0  0  0  0  0
  148.3750  157.2150  132.9720 C   0  0  0  0  0  0  0  0  0  0  0  0
  146.9690  157.5830  133.4930 C   0  0  0  0  0  0  0  0  0  0  0  0
  146.4040  158.8240  132.7790 C   0  0  1  0  0  0  0  0  0  0  0  0
  144.9710  159.1010  133.1920 C   0  0  0  0  0  0  0  0  0  0  0  0
  144.5840  160.4150  133.5620 C   0  0  0  0  0  0  0  0  0  0  0  0
  143.2680  160.6900  133.9670 C   0  0  0  0  0  0  0  0  0  0  0  0
  142.3570  159.6380  133.9870 C   0  0  0  0  0  0  0  0  0  0  0  0
  141.0370  159.6220  134.3740 C   0  0  0  0  0  0  0  0  0  0  0  0
  140.6240  158.3030  134.2090 C   0  0  0  0  0  0  0  0  0  0  0  0
  139.2410  157.8480  134.4580 C   0  0  0  0  0  0  0  0  0  0  0  0
  138.5550  157.0210  133.5160 N   0  0  0  0  0  0  0  0  0  0  0  0
  138.6380  158.2380  135.4910 O   0  0  0  0  0  0  0  0  0  0  0  0
  141.6480  157.5300  133.7510 N   0  0  0  0  0  0  0  0  0  0  0  0
  141.6460  156.1030  133.5760 C   0  0  0  0  0  0  0  0  0  0  0  0
  140.6850  155.5450  132.9840 O   0  0  0  0  0  0  0  0  0  0  0  0
  142.7230  155.3490  134.0680 O   0  0  0  0  0  0  0  0  0  0  0  0
  143.4400  154.3250  133.3620 C   0  0  0  0  0  0  0  0  0  0  0  0
  144.5590  153.8350  134.2910 C   0  0  0  0  0  0  0  0  0  0  0  0
  142.5120  153.1400  133.0330 C   0  0  0  0  0  0  0  0  0  0  0  0
  144.0720  154.8940  132.0760 C   0  0  0  0  0  0  0  0  0  0  0  0
  142.7050  158.3640  133.6180 C   0  0  0  0  0  0  0  0  0  0  0  0
  144.0140  158.0580  133.2320 C   0  0  0  0  0  0  0  0  0  0  0  0
  147.3060  160.0670  132.9970 C   0  0  0  0  0  0  0  0  0  0  0  0
  148.7860  159.7090  133.2440 C   0  0  0  0  0  0  0  0  0  0  0  0
  150.0072  160.3653  131.5164 H   0  0  0  0  0  0  0  0  0  0  0  0
  150.5501  159.4940  130.0424 H   0  0  0  0  0  0  0  0  0  0  0  0
  148.9805  160.3675  130.0424 H   0  0  0  0  0  0  0  0  0  0  0  0
  150.2732  158.2409  132.7196 H   0  0  0  0  0  0  0  0  0  0  0  0
  148.2593  156.5245  132.1235 H   0  0  0  0  0  0  0  0  0  0  0  0
  148.9181  156.7639  133.8155 H   0  0  0  0  0  0  0  0  0  0  0  0
  146.2915  156.7336  133.3211 H   0  0  0  0  0  0  0  0  0  0  0  0
  147.0500  157.8119  134.5659 H   0  0  0  0  0  0  0  0  0  0  0  0
  146.3993  158.6055  131.7009 H   0  0  0  0  0  0  0  0  0  0  0  0
  145.3241  161.2282  133.5312 H   0  0  0  0  0  0  0  0  0  0  0  0
  142.9661  161.7065  134.2597 H   0  0  0  0  0  0  0  0  0  0  0  0
  140.4367  160.4696  134.7361 H   0  0  0  0  0  0  0  0  0  0  0  0
  138.9660  156.8200  132.5790 H   0  0  0  0  0  0  0  0  0  0  0  0
  137.5960  156.6690  133.7280 H   0  0  0  0  0  0  0  0  0  0  0  0
  144.2513  153.9698  135.3385 H   0  0  0  0  0  0  0  0  0  0  0  0
  144.7536  152.7693  134.1002 H   0  0  0  0  0  0  0  0  0  0  0  0
  145.4741  154.4148  134.1002 H   0  0  0  0  0  0  0  0  0  0  0  0
  142.1546  152.6836  133.9679 H   0  0  0  0  0  0  0  0  0  0  0  0
  141.6523  153.4989  132.4481 H   0  0  0  0  0  0  0  0  0  0  0  0
  143.0665  152.3914  132.4481 H   0  0  0  0  0  0  0  0  0  0  0  0
  144.8652  155.6081  132.3422 H   0  0  0  0  0  0  0  0  0  0  0  0
  144.5018  154.0724  131.4841 H   0  0  0  0  0  0  0  0  0  0  0  0
  143.2999  155.4074  131.4841 H   0  0  0  0  0  0  0  0  0  0  0  0
  144.2944  157.0284  132.9650 H   0  0  0  0  0  0  0  0  0  0  0  0
  147.2452  160.7041  132.1024 H   0  0  0  0  0  0  0  0  0  0  0  0
  146.9400  160.5822  133.8973 H   0  0  0  0  0  0  0  0  0  0  0  0
  149.4138  160.5440  132.8994 H   0  0  0  0  0  0  0  0  0  0  0  0
  148.9122  159.5282  134.3217 H   0  0  0  0  0  0  0  0  0  0  0  0
  1  2  1  0
  2  3  1  0
  3  4  1  0
  4  5  1  0
  5  6  1  0
  6  7  1  0
  7  8  2  0
  8  9  1  0
  9 10  2  0
 10 11  1  0
 11 12  2  0
 12 13  1  0
 13 14  1  0
 13 15  2  0
 12 16  1  0
 16 17  1  0
 17 18  2  0
 17 19  1  0
 19 20  1  0
 20 21  1  0
 20 22  1  0
 20 23  1  0
 16 24  1  0
 24 25  2  0
  6 26  1  0
 26 27  1  0
 27  3  1  0
 25  7  1  0
 24 10  1  0
  1 28  1  0
  1 29  1  0
  1 30  1  0
  3 31  1  6
  4 32  1  0
  4 33  1  0
  5 34  1  0
  5 35  1  0
  6 36  1  6
  8 37  1  0
  9 38  1  0
 11 39  1  0
 14 40  1  0
 14 41  1  0
 21 42  1  0
 21 43  1  0
 21 44  1  0
 22 45  1  0
 22 46  1  0
 22 47  1  0
 23 48  1  0
 23 49  1  0
 23 50  1  0
 25 51  1  0
 26 52  1  0
 26 53  1  0
 27 54  1  0
 27 55  1  0
M  END
>  <UniqueID>  (2) 
2

>  <SMILES>  (2) 
COC1CCC(c2ccc3cc(C(N)=O)n(C(=O)OC(C)(C)C)c3c2)CC1

>  <Energy>  (2) 
95.80619455240657

>  <Genealogy>  (2) 
COC1CCC(c2ccc3cc(C(N)=O)n(C(=O)OC(C)(C)C)c3c2)CC1 (3D coordinates assigned)
COC1CCC(c2ccc3cc(C(N)=O)n(C(=O)OC(C)(C)C)c3c2)CC1 (nonaromatic ring conformer: 95.80619455240657 kcal/mol)

>  <smiles>  (2) 
COC1CCC(c2ccc3cc(C(N)=O)n(C(=O)OC(C)(C)C)c3c2)CC1

>  <score_type>  (2) 
oracle

>  <origin>  (2) 
adg

>  <m_score__min__energy>  (2) 
-8.7100000000000009

>  <m_primary>  (2) 
energy

$$$$
2:0
     RDKit          3D

 28 30  0  0  0  0  0  0  0  0999 V2000
  148.6560  157.4910  131.8280 N   0  0  0  0  0  0  0  0  0  0  0  0
  148.3160  158.5420  132.7320 C   0  0  0  0  0  0  0  0  0  0  0  0
  149.2360  159.1980  133.2900 O   0  0  0  0  0  0  0  0  0  0  0  0
  146.9100  158.8330  133.0750 C   0  0  0  0  0  0  0  0  0  0  0  0
  146.3790  160.1180  133.1020 C   0  0  0  0  0  0  0  0  0  0  0  0
  145.0790  159.9640  133.5230 C   0  0  0  0  0  0  0  0  0  0  0  0
  144.0850  160.9180  133.7130 C   0  0  0  0  0  0  0  0  0  0  0  0
  142.8140  160.4750  134.1150 C   0  0  0  0  0  0  0  0  0  0  0  0
  142.5520  159.0940  134.3110 C   0  0  0  0  0  0  0  0  0  0  0  0
  141.1950  158.6560  134.7220 C   0  0  0  0  0  0  0  0  0  0  0  0
  140.1800  158.1950  133.9070 C   0  0  0  0  0  0  0  0  0  0  0  0
  139.1100  157.8990  134.6630 N   0  0  0  0  0  0  0  0  0  0  0  0
  139.5030  158.1880  135.9200 C   0  0  0  0  0  0  0  0  0  0  0  0
  140.7660  158.6510  135.9980 N   0  0  0  0  0  0  0  0  0  0  0  0
  143.5920  158.1540  134.1040 C   0  0  0  0  0  0  0  0  0  0  0  0
  144.8560  158.6270  133.7250 C   0  0  0  0  0  0  0  0  0  0  0  0
  145.9740  157.9160  133.4510 N   0  0  0  0  0  0  0  0  0  0  0  0
  146.1000  156.4830  133.4420 C   0  0  0  0  0  0  0  0  0  0  0  0
  145.8110  155.8140  134.4700 O   0  0  0  0  0  0  0  0  0  0  0  0
  146.5410  155.8200  132.3030 O   0  0  0  0  0  0  0  0  0  0  0  0
  147.9330  156.8230  131.4820 H   0  0  0  0  0  0  0  0  0  0  0  0
  149.6540  157.3260  131.5670 H   0  0  0  0  0  0  0  0  0  0  0  0
  146.8897  161.0569  132.8421 H   0  0  0  0  0  0  0  0  0  0  0  0
  144.2880  161.9872  133.5533 H   0  0  0  0  0  0  0  0  0  0  0  0
  142.0109  161.2084  134.2801 H   0  0  0  0  0  0  0  0  0  0  0  0
  140.2384  158.0875  132.8138 H   0  0  0  0  0  0  0  0  0  0  0  0
  138.8540  158.0581  136.7986 H   0  0  0  0  0  0  0  0  0  0  0  0
  143.4115  157.0772  134.2377 H   0  0  0  0  0  0  0  0  0  0  0  0
  1  2  1  0
  2  3  2  0
  2  4  1  0
  4  5  2  0
  5  6  1  0
  6  7  2  0
  7  8  1  0
  8  9  2  0
  9 10  1  0
 10 11  2  0
 11 12  1  0
 12 13  2  0
 13 14  1  0
  9 15  1  0
 15 16  2  0
 16 17  1  0
 17 18  1  0
 18 19  2  0
 18 20  1  0
 17  4  1  0
 16  6  1  0
 14 10  1  0
  1 21  1  0
  1 22  1  0
  5 23  1  0
  7 24  1  0
  8 25  1  0
 11 26  1  0
 13 27  1  0
 15 28  1  0
M  CHG  2  14  -1  20  -1
M  END
>  <UniqueID>  (3) 
3

>  <SMILES>  (3) 
NC(=O)c1cc2ccc(-c3cnc[n-]3)cc2n1C(=O)[O-]

>  <Energy>  (3) 
99.95861177347145

>  <Genealogy>  (3) 
NC(=O)c1cc2ccc(-c3cnc[n-]3)cc2n1C(=O)[O-] (protonated)
NC(=O)c1cc2ccc(-c3cnc[n-]3)cc2n1C(=O)[O-] (3D coordinates assigned)
NC(=O)c1cc2ccc(-c3cnc[n-]3)cc2n1C(=O)[O-] (optimized conformer: 99.95861177347145 kcal/mol)

>  <smiles>  (3) 
NC(=O)c1cc2ccc(-c3cnc[nH]3)cc2n1C(=O)O

>  <score_type>  (3) 
oracle

>  <origin>  (3) 
adg

>  <m_score__min__energy>  (3) 
-6.54

>  <m_primary>  (3) 
energy

$$$$
3:0
     RDKit          3D

 38 40  0  0  0  0  0  0  0  0999 V2000
  140.7960  160.1050  136.1800 N   0  0  0  0  0  0  0  0  0  0  0  0
  141.4560  159.8310  134.9470 C   0  0  0  0  0  0  0  0  0  0  0  0
  141.9560  160.7830  134.2900 O   0  0  0  0  0  0  0  0  0  0  0  0
  141.6100  158.4450  134.4590 C   0  0  0  0  0  0  0  0  0  0  0  0
  142.8420  157.8730  134.1490 C   0  0  0  0  0  0  0  0  0  0  0  0
  142.5670  156.5610  133.8350 C   0  0  0  0  0  0  0  0  0  0  0  0
  143.4220  155.5320  133.4590 C   0  0  0  0  0  0  0  0  0  0  0  0
  142.8610  154.2750  133.1780 C   0  0  0  0  0  0  0  0  0  0  0  0
  141.4570  154.0750  133.2530 C   0  0  0  0  0  0  0  0  0  0  0  0
  140.8690  152.7120  132.9880 C   0  0  0  0  0  0  0  0  0  0  0  0
  141.5460  152.0810  131.9590 F   0  0  0  0  0  0  0  0  0  0  0  0
  139.5400  152.8510  132.6350 F   0  0  0  0  0  0  0  0  0  0  0  0
  140.9550  151.9140  134.1150 F   0  0  0  0  0  0  0  0  0  0  0  0
  140.6230  155.1410  133.6620 C   0  0  0  0  0  0  0  0  0  0  0  0
  141.2140  156.3770  133.9530 C   0  0  0  0  0  0  0  0  0  0  0  0
  140.6120  157.5250  134.3310 N   0  0  0  0  0  0  0  0  0  0  0  0
  139.1990  157.7320  134.4880 C   0  0  0  0  0  0  0  0  0  0  0  0
  138.7300  158.0350  135.6190 O   0  0  0  0  0  0  0  0  0  0  0  0
  138.3550  157.6170  133.3780 O   0  0  0  0  0  0  0  0  0  0  0  0
  138.7400  157.9890  132.0550 C   0  0  0  0  0  0  0  0  0  0  0  0
  139.5170  159.3090  132.0540 C   0  0  0  0  0  0  0  0  0  0  0  0
  138.6660  160.4450  131.4680 C   0  0  0  0  0  0  0  0  0  0  0  0
  138.3470  160.3080  129.9870 C   0  0  0  0  0  0  0  0  0  0  0  0
  137.2640  160.0570  131.0250 C   0  0  0  0  0  0  0  0  0  0  0  0
  139.8260  159.7610  136.3580 H   0  0  0  0  0  0  0  0  0  0  0  0
  143.8257  158.3652  134.1540 H   0  0  0  0  0  0  0  0  0  0  0  0
  144.5069  155.6970  133.3836 H   0  0  0  0  0  0  0  0  0  0  0  0
  143.5160  153.4371  132.8970 H   0  0  0  0  0  0  0  0  0  0  0  0
  139.5352  155.0028  133.7496 H   0  0  0  0  0  0  0  0  0  0  0  0
  139.3760  157.1981  131.6308 H   0  0  0  0  0  0  0  0  0  0  0  0
  137.8297  158.1205  131.4516 H   0  0  0  0  0  0  0  0  0  0  0  0
  139.7956  159.5638  133.0872 H   0  0  0  0  0  0  0  0  0  0  0  0
  140.4165  159.1870  131.4326 H   0  0  0  0  0  0  0  0  0  0  0  0
  139.0857  161.2335  132.1100 H   0  0  0  0  0  0  0  0  0  0  0  0
  138.3008  161.2030  129.3492 H   0  0  0  0  0  0  0  0  0  0  0  0
  138.7704  159.7335  129.1499 H   0  0  0  0  0  0  0  0  0  0  0  0
  136.4344  160.7705  131.1378 H   0  0  0  0  0  0  0  0  0  0  0  0
  136.5796  159.2256  131.2495 H   0  0  0  0  0  0  0  0  0  0  0  0
  1  2  1  0
  2  3  2  0
  2  4  1  0
  4  5  2  0
  5  6  1  0
  6  7  2  0
  7  8  1  0
  8  9  2  0
  9 10  1  0
 10 11  1  0
 10 12  1  0
 10 13  1  0
  9 14  1  0
 14 15  2  0
 15 16  1  0
 16 17  1  0
 17 18  2  0
 17 19  1  0
 19 20  1  0
 20 21  1  0
 21 22  1  0
 22 23  1  0
 23 24  1  0
 16  4  1  0
 24 22  1  0
 15  6  1  0
  1 25  1  0
  5 26  1  0
  7 27  1  0
  8 28  1  0
 14 29  1  0
 20 30  1  0
 20 31  1  0
 21 32  1  0
 21 33  1  0
 22 34  1  0
 23 35  1  0
 23 36  1  0
 24 37  1  0
 24 38  1  0
M  CHG  1   1  -1
M  END
>  <UniqueID>  (4) 
4

>  <SMILES>  (4) 
[NH-]C(=O)c1cc2ccc(C(F)(F)F)cc2n1C(=O)OCCC1CC1

>  <Energy>  (4) 
337.97197427372424

>  <Genealogy>  (4) 
[NH-]C(=O)c1cc2ccc(C(F)(F)F)cc2n1C(=O)OCCC1CC1 (protonated)
[NH-]C(=O)c1cc2ccc(C(F)(F)F)cc2n1C(=O)OCCC1CC1 (3D coordinates assigned)
[NH-]C(=O)c1cc2ccc(C(F)(F)F)cc2n1C(=O)OCCC1CC1 (nonaromatic ring conformer: 337.97197427372424 kcal/mol)

>  <smiles>  (4) 
NC(=O)c1cc2ccc(C(F)(F)F)cc2n1C(=O)OCCC1CC1

>  <score_type>  (4) 
oracle

>  <origin>  (4) 
adg

>  <m_score__min__energy>  (4) 
-6.6600000000000001

>  <m_primary>  (4) 
energy

$$$$
4:0
     RDKit          3D

 48 50  0  0  0  0  0  0  0  0999 V2000
  148.4760  159.7720  133.6740 C   0  0  0  0  0  0  0  0  0  0  0  0
  147.8910  159.4200  132.2970 C   0  0  0  0  0  0  0  0  0  0  0  0
  148.4160  158.0340  131.8740 C   0  0  0  0  0  0  0  0  0  0  0  0
  148.3200  160.4960  131.2820 C   0  0  0  0  0  0  0  0  0  0  0  0
  146.4630  159.3980  132.4360 O   0  0  0  0  0  0  0  0  0  0  0  0
  145.7330  158.7100  133.4170 C   0  0  0  0  0  0  0  0  0  0  0  0
  146.2740  157.8090  134.1120 O   0  0  0  0  0  0  0  0  0  0  0  0
  144.3460  159.0230  133.6140 N   0  0  0  0  0  0  0  0  0  0  0  0
  143.7820  160.2570  133.7440 C   0  0  0  0  0  0  0  0  0  0  0  0
  144.5140  161.5350  133.8670 C   0  0  0  0  0  0  0  0  0  0  0  0
  145.9210  161.5270  134.1040 N   0  0  0  0  0  0  0  0  0  0  0  0
  143.9190  162.6360  133.7290 O   0  0  0  0  0  0  0  0  0  0  0  0
  142.3950  160.1550  133.8280 C   0  0  0  0  0  0  0  0  0  0  0  0
  142.1240  158.8090  133.7490 C   0  0  0  0  0  0  0  0  0  0  0  0
  140.9050  158.1390  133.7700 C   0  0  0  0  0  0  0  0  0  0  0  0
  140.9180  156.7400  133.6410 C   0  0  0  0  0  0  0  0  0  0  0  0
  142.1420  156.0360  133.4860 C   0  0  0  0  0  0  0  0  0  0  0  0
  142.1420  154.5580  133.3370 C   0  0  0  0  0  0  0  0  0  0  0  0
  140.9320  153.8440  133.2900 C   0  0  0  0  0  0  0  0  0  0  0  0
  140.9320  152.4530  133.1500 C   0  0  0  0  0  0  0  0  0  0  0  0
  142.1470  151.7480  133.0530 C   0  0  0  0  0  0  0  0  0  0  0  0
  142.2070  150.3520  132.9100 O   0  0  0  0  0  0  0  0  0  0  0  0
  141.0940  149.5040  132.6360 C   0  0  0  0  0  0  0  0  0  0  0  0
  140.2550  149.4980  133.7340 F   0  0  0  0  0  0  0  0  0  0  0  0
  140.3920  149.9760  131.5410 F   0  0  0  0  0  0  0  0  0  0  0  0
  141.5260  148.2120  132.3990 F   0  0  0  0  0  0  0  0  0  0  0  0
  143.3500  152.4590  133.1000 C   0  0  0  0  0  0  0  0  0  0  0  0
  143.3520  153.8500  133.2400 C   0  0  0  0  0  0  0  0  0  0  0  0
  143.3600  156.7560  133.4700 C   0  0  0  0  0  0  0  0  0  0  0  0
  143.3160  158.1470  133.6200 C   0  0  0  0  0  0  0  0  0  0  0  0
  147.8194  159.3769  134.4632 H   0  0  0  0  0  0  0  0  0  0  0  0
  149.4767  159.3259  133.7722 H   0  0  0  0  0  0  0  0  0  0  0  0
  148.5506  160.8651  133.7722 H   0  0  0  0  0  0  0  0  0  0  0  0
  148.6417  157.4381  132.7706 H   0  0  0  0  0  0  0  0  0  0  0  0
  147.6506  157.5192  131.2747 H   0  0  0  0  0  0  0  0  0  0  0  0
  149.3304  158.1555  131.2747 H   0  0  0  0  0  0  0  0  0  0  0  0
  148.6753  161.3870  131.8204 H   0  0  0  0  0  0  0  0  0  0  0  0
  149.1299  160.1021  130.6503 H   0  0  0  0  0  0  0  0  0  0  0  0
  147.4613  160.7674  130.6503 H   0  0  0  0  0  0  0  0  0  0  0  0
  146.5950  161.3760  133.3210 H   0  0  0  0  0  0  0  0  0  0  0  0
  141.6709  160.9762  133.9348 H   0  0  0  0  0  0  0  0  0  0  0  0
  139.9589  158.6883  133.8842 H   0  0  0  0  0  0  0  0  0  0  0  0
  139.9694  156.1834  133.6603 H   0  0  0  0  0  0  0  0  0  0  0  0
  139.9768  154.3845  133.3640 H   0  0  0  0  0  0  0  0  0  0  0  0
  139.9780  151.9065  133.1154 H   0  0  0  0  0  0  0  0  0  0  0  0
  144.3050  151.9182  133.0261 H   0  0  0  0  0  0  0  0  0  0  0  0
  144.3074  154.3941  133.2745 H   0  0  0  0  0  0  0  0  0  0  0  0
  144.3200  156.2343  133.3425 H   0  0  0  0  0  0  0  0  0  0  0  0
  1  2  1  0
  2  3  1  0
  2  4  1  0
  2  5  1  0
  5  6  1  0
  6  7  2  0
  6  8  1  0
  8  9  1  0
  9 10  1  0
 10 11  1  0
 10 12  2  0
  9 13  2  0
 13 14  1  0
 14 15  2  0
 15 16  1  0
 16 17  2  0
 17 18  1  0
 18 19  2  0
 19 20  1  0
 20 21  2  0
 21 22  1  0
 22 23  1  0
 23 24  1  0
 23 25  1  0
 23 26  1  0
 21 27  1  0
 27 28  2  0
 17 29  1  0
 29 30  2  0
 30  8  1  0
 30 14  1  0
 28 18  1  0
  1 31  1  0
  1 32  1  0
  1 33  1  0
  3 34  1  0
  3 35  1  0
  3 36  1  0
  4 37  1  0
  4 38  1  0
  4 39  1  0
 11 40  1  0
 13 41  1  0
 15 42  1  0
 16 43  1  0
 19 44  1  0
 20 45  1  0
 27 46  1  0
 28 47  1  0
 29 48  1  0
M  CHG  1  11  -1
M  END
>  <UniqueID>  (5) 
5

>  <SMILES>  (5) 
CC(C)(C)OC(=O)n1c(C([NH-])=O)cc2ccc(-c3ccc(OC(F)(F)F)cc3)cc21

>  <Energy>  (5) 
89.52907312376831

>  <Genealogy>  (5) 
CC(C)(C)OC(=O)n1c(C([NH-])=O)cc2ccc(-c3ccc(OC(F)(F)F)cc3)cc21 (protonated)
CC(C)(C)OC(=O)n1c(C([NH-])=O)cc2ccc(-c3ccc(OC(F)(F)F)cc3)cc21 (3D coordinates assigned)
CC(C)(C)OC(=O)n1c(C([NH-])=O)cc2ccc(-c3ccc(OC(F)(F)F)cc3)cc21 (optimized conformer: 89.52907312376831 kcal/mol)

>  <smiles>  (5) 
CC(C)(C)OC(=O)n1c(C(N)=O)cc2ccc(-c3ccc(OC(F)(F)F)cc3)cc21

>  <score_type>  (5) 
oracle

>  <origin>  (5) 
adg

>  <m_score__min__energy>  (5) 
-8.4700000000000006

>  <m_primary>  (5) 
energy

$$$$
5:0
     RDKit          3D

 59 63  0  0  0  0  0  0  0  0999 V2000
  140.8840  156.8470  136.8170 C   0  0  0  0  0  0  0  0  0  0  0  0
  141.7330  156.4920  138.0320 C   0  0  0  0  0  0  0  0  0  0  0  0
  141.5980  155.1090  138.3520 O   0  0  0  0  0  0  0  0  0  0  0  0
  142.5110  154.1290  137.9420 C   0  0  0  0  0  0  0  0  0  0  0  0
  143.4290  153.7500  138.7180 O   0  0  0  0  0  0  0  0  0  0  0  0
  142.4050  153.5630  136.6260 N   0  0  0  0  0  0  0  0  0  0  0  0
  141.7220  152.4420  136.2580 C   0  0  0  0  0  0  0  0  0  0  0  0
  141.0860  151.4820  137.1870 C   0  0  0  0  0  0  0  0  0  0  0  0
  141.1380  151.6890  138.5990 N   0  0  0  0  0  0  0  0  0  0  0  0
  140.4630  150.4840  136.7370 O   0  0  0  0  0  0  0  0  0  0  0  0
  141.7810  152.2680  134.8760 C   0  0  0  0  0  0  0  0  0  0  0  0
  142.5240  153.3250  134.4050 C   0  0  0  0  0  0  0  0  0  0  0  0
  142.8840  153.6550  133.1020 C   0  0  0  0  0  0  0  0  0  0  0  0
  143.6320  154.8280  132.9040 C   0  0  0  0  0  0  0  0  0  0  0  0
  143.9890  155.6480  134.0010 C   0  0  0  0  0  0  0  0  0  0  0  0
  144.7980  156.8600  133.7820 C   0  0  0  0  0  0  0  0  0  0  0  0
  146.1940  156.8980  133.6880 C   0  0  0  0  0  0  0  0  0  0  0  0
  147.0920  155.7260  133.6950 C   0  0  0  0  0  0  0  0  0  0  0  0
  147.0670  154.8190  134.7670 C   0  0  0  0  0  0  0  0  0  0  0  0
  147.9010  153.6960  134.7580 C   0  0  0  0  0  0  0  0  0  0  0  0
  148.7600  153.4700  133.6790 C   0  0  0  0  0  0  0  0  0  0  0  0
  148.7850  154.3650  132.6050 C   0  0  0  0  0  0  0  0  0  0  0  0
  147.9510  155.4880  132.6100 C   0  0  0  0  0  0  0  0  0  0  0  0
  146.5660  158.2420  133.6230 C   0  0  0  0  0  0  0  0  0  0  0  0
  147.9400  158.7870  133.6090 C   0  0  0  0  0  0  0  0  0  0  0  0
  148.7180  158.5530  134.5740 O   0  0  0  0  0  0  0  0  0  0  0  0
  148.3830  159.5440  132.5210 O   0  0  0  0  0  0  0  0  0  0  0  0
  149.2610  159.0260  131.5300 C   0  0  0  0  0  0  0  0  0  0  0  0
  145.4480  158.9940  133.6650 N   0  0  0  0  0  0  0  0  0  0  0  0
  145.3640  160.3220  133.6820 N   0  0  0  0  0  0  0  0  0  0  0  0
  144.1380  160.9050  133.7570 C   0  0  0  0  0  0  0  0  0  0  0  0
  143.0190  160.1280  133.7940 N   0  0  0  0  0  0  0  0  0  0  0  0
  143.0960  158.7670  133.7780 C   0  0  0  0  0  0  0  0  0  0  0  0
  141.8920  157.9990  133.7180 N   0  0  0  0  0  0  0  0  0  0  0  0
  144.3750  158.1880  133.7460 C   0  0  0  0  0  0  0  0  0  0  0  0
  143.6200  155.2740  135.3100 C   0  0  0  0  0  0  0  0  0  0  0  0
  142.8880  154.0930  135.4810 C   0  0  0  0  0  0  0  0  0  0  0  0
  139.9170  157.2513  137.1509 H   0  0  0  0  0  0  0  0  0  0  0  0
  141.4076  157.6016  136.2116 H   0  0  0  0  0  0  0  0  0  0  0  0
  140.7146  155.9443  136.2116 H   0  0  0  0  0  0  0  0  0  0  0  0
  142.7883  156.7108  137.8120 H   0  0  0  0  0  0  0  0  0  0  0  0
  141.3914  157.0895  138.8901 H   0  0  0  0  0  0  0  0  0  0  0  0
  140.6540  151.0260  139.2440 H   0  0  0  0  0  0  0  0  0  0  0  0
  141.6890  152.4730  139.0140 H   0  0  0  0  0  0  0  0  0  0  0  0
  141.3288  151.4566  134.2868 H   0  0  0  0  0  0  0  0  0  0  0  0
  142.5924  153.0180  132.2540 H   0  0  0  0  0  0  0  0  0  0  0  0
  143.9428  155.1114  131.8876 H   0  0  0  0  0  0  0  0  0  0  0  0
  146.3896  154.9922  135.6162 H   0  0  0  0  0  0  0  0  0  0  0  0
  147.8807  152.9899  135.6012 H   0  0  0  0  0  0  0  0  0  0  0  0
  149.4168  152.5876  133.6746 H   0  0  0  0  0  0  0  0  0  0  0  0
  149.4608  154.1859  131.7558 H   0  0  0  0  0  0  0  0  0  0  0  0
  147.9681  156.1872  131.7610 H   0  0  0  0  0  0  0  0  0  0  0  0
  150.1101  158.5251  132.0180 H   0  0  0  0  0  0  0  0  0  0  0  0
  148.7198  158.3025  130.9026 H   0  0  0  0  0  0  0  0  0  0  0  0
  149.6325  159.8496  130.9026 H   0  0  0  0  0  0  0  0  0  0  0  0
  144.0495  162.0010  133.7877 H   0  0  0  0  0  0  0  0  0  0  0  0
  141.2460  157.9250  134.5320 H   0  0  0  0  0  0  0  0  0  0  0  0
  141.7330  157.3500  132.9160 H   0  0  0  0  0  0  0  0  0  0  0  0
  143.9001  155.8943  136.1742 H   0  0  0  0  0  0  0  0  0  0  0  0
  1  2  1  0
  2  3  1  0
  3  4  1  0
  4  5  2  0
  4  6  1  0
  6  7  1  0
  7  8  1  0
  8  9  1  0
  8 10  2  0
  7 11  2  0
 11 12  1  0
 12 13  2  0
 13 14  1  0
 14 15  2  0
 15 16  1  0
 16 17  1  0
 17 18  1  0
 18 19  2  0
 19 20  1  0
 20 21  2  0
 21 22  1  0
 22 23  2  0
 17 24  2  0
 24 25  1  0
 25 26  2  0
 25 27  1  0
 27 28  1  0
 24 29  1  0
 29 30  1  0
 30 31  2  0
 31 32  1  0
 32 33  2  0
 33 34  1  0
 33 35  1  0
 15 36  1  0
 36 37  2  0
 37  6  1  0
 37 12  1  0
 35 16  2  0
 23 18  1  0
 35 29  1  0
  1 38  1  0
  1 39  1  0
  1 40  1  0
  2 41  1  0
  2 42  1  0
  9 43  1  0
  9 44  1  0
 11 45  1  0
 13 46  1  0
 14 47  1  0
 19 48  1  0
 20 49  1  0
 21 50  1  0
 22 51  1  0
 23 52  1  0
 28 53  1  0
 28 54  1  0
 28 55  1  0
 31 56  1  0
 34 57  1  0
 34 58  1  0
 36 59  1  0
M  END
>  <UniqueID>  (6) 
6

>  <SMILES>  (6) 
CCOC(=O)n1c(C(N)=O)cc2ccc(-c3c(-c4ccccc4)c(C(=O)OC)n4ncnc(N)c34)cc21

>  <Energy>  (6) 
145.83541728063588

>  <Genealogy>  (6) 
CCOC(=O)n1c(C(N)=O)cc2ccc(-c3c(-c4ccccc4)c(C(=O)OC)n4ncnc(N)c34)cc21 (3D coordinates assigned)
CCOC(=O)n1c(C(N)=O)cc2ccc(-c3c(-c4ccccc4)c(C(=O)OC)n4ncnc(N)c34)cc21 (optimized conformer: 145.83541728063588 kcal/mol)

>  <smiles>  (6) 
CCOC(=O)n1c(C(N)=O)cc2ccc(-c3c(-c4ccccc4)c(C(=O)OC)n4ncnc(N)c34)cc21

>  <score_type>  (6) 
oracle

>  <origin>  (6) 
adg

>  <m_score__min__energy>  (6) 
-9.2599999999999998

>  <m_primary>  (6) 
energy

$$$$
6:0
     RDKit          3D

 48 50  0  0  0  0  0  0  0  0999 V2000
  148.9890  154.3560  132.6220 C   0  0  0  0  0  0  0  0  0  0  0  0
  147.6020  154.5650  133.2620 C   0  0  0  0  0  0  0  0  0  0  0  0
  147.7670  154.6320  134.7890 C   0  0  0  0  0  0  0  0  0  0  0  0
  146.6590  153.3970  132.9120 C   0  0  0  0  0  0  0  0  0  0  0  0
  147.0330  155.8140  132.8440 O   0  0  0  0  0  0  0  0  0  0  0  0
  145.9710  156.4960  133.4560 C   0  0  0  0  0  0  0  0  0  0  0  0
  145.0940  155.8520  134.0890 O   0  0  0  0  0  0  0  0  0  0  0  0
  145.9100  157.9400  133.3930 N   0  0  0  0  0  0  0  0  0  0  0  0
  146.9560  158.7980  133.1940 C   0  0  0  0  0  0  0  0  0  0  0  0
  148.3330  158.4240  132.8270 C   0  0  0  0  0  0  0  0  0  0  0  0
  148.5760  157.4880  131.7770 N   0  0  0  0  0  0  0  0  0  0  0  0
  149.3040  158.9930  133.3940 O   0  0  0  0  0  0  0  0  0  0  0  0
  146.5500  160.1200  133.3260 C   0  0  0  0  0  0  0  0  0  0  0  0
  145.2020  160.0620  133.5860 C   0  0  0  0  0  0  0  0  0  0  0  0
  144.2860  161.0970  133.7570 C   0  0  0  0  0  0  0  0  0  0  0  0
  142.9400  160.7590  133.9650 C   0  0  0  0  0  0  0  0  0  0  0  0
  142.5360  159.4030  134.0050 C   0  0  0  0  0  0  0  0  0  0  0  0
  141.1510  159.0620  134.1950 N   0  0  0  0  0  0  0  0  0  0  0  0
  140.1970  159.1780  133.0890 C   0  0  0  0  0  0  0  0  0  0  0  0
  139.0900  158.1310  133.2600 C   0  0  0  0  0  0  0  0  0  0  0  0
  138.5080  158.2180  134.5500 O   0  0  0  0  0  0  0  0  0  0  0  0
  139.4690  157.8850  135.5360 C   0  0  0  0  0  0  0  0  0  0  0  0
  140.6110  158.9060  135.5510 C   0  0  0  0  0  0  0  0  0  0  0  0
  143.4920  158.3790  133.8290 C   0  0  0  0  0  0  0  0  0  0  0  0
  144.8340  158.7390  133.6220 C   0  0  0  0  0  0  0  0  0  0  0  0
  149.7446  154.2422  133.4133 H   0  0  0  0  0  0  0  0  0  0  0  0
  148.9722  153.4503  131.9980 H   0  0  0  0  0  0  0  0  0  0  0  0
  149.2398  155.2265  131.9980 H   0  0  0  0  0  0  0  0  0  0  0  0
  146.8519  154.2604  135.2733 H   0  0  0  0  0  0  0  0  0  0  0  0
  148.6215  154.0096  135.0931 H   0  0  0  0  0  0  0  0  0  0  0  0
  147.9456  155.6739  135.0931 H   0  0  0  0  0  0  0  0  0  0  0  0
  146.2868  152.9359  133.8388 H   0  0  0  0  0  0  0  0  0  0  0  0
  145.8098  153.7750  132.3237 H   0  0  0  0  0  0  0  0  0  0  0  0
  147.2075  152.6466  132.3237 H   0  0  0  0  0  0  0  0  0  0  0  0
  147.7800  157.0740  131.2360 H   0  0  0  0  0  0  0  0  0  0  0  0
  149.5560  157.2150  131.5310 H   0  0  0  0  0  0  0  0  0  0  0  0
  147.1747  161.0214  133.2406 H   0  0  0  0  0  0  0  0  0  0  0  0
  144.6081  162.1484  133.7298 H   0  0  0  0  0  0  0  0  0  0  0  0
  142.1923  161.5548  134.0981 H   0  0  0  0  0  0  0  0  0  0  0  0
  139.7536  160.1847  133.0908 H   0  0  0  0  0  0  0  0  0  0  0  0
  140.7180  159.0097  132.1349 H   0  0  0  0  0  0  0  0  0  0  0  0
  138.3120  158.3019  132.5013 H   0  0  0  0  0  0  0  0  0  0  0  0
  139.5303  157.1302  133.1392 H   0  0  0  0  0  0  0  0  0  0  0  0
  138.9834  157.8728  136.5229 H   0  0  0  0  0  0  0  0  0  0  0  0
  139.8855  156.8943  135.3013 H   0  0  0  0  0  0  0  0  0  0  0  0
  140.2310  159.8749  135.9072 H   0  0  0  0  0  0  0  0  0  0  0  0
  141.4074  158.5529  136.2226 H   0  0  0  0  0  0  0  0  0  0  0  0
  143.1921  157.3210  133.8535 H   0  0  0  0  0  0  0  0  0  0  0  0
  1  2  1  0
  2  3  1  0
  2  4  1  0
  2  5  1  0
  5  6  1  0
  6  7  2  0
  6  8  1  0
  8  9  1  0
  9 10  1  0
 10 11  1  0
 10 12  2  0
  9 13  2  0
 13 14  1  0
 14 15  2  0
 15 16  1  0
 16 17  2  0
 17 18  1  0
 18 19  1  0
 19 20  1  0
 20 21  1  0
 21 22  1  0
 22 23  1  0
 17 24  1  0
 24 25  2  0
 25  8  1  0
 25 14  1  0
 23 18  1  0
  1 26  1  0
  1 27  1  0
  1 28  1  0
  3 29  1  0
  3 30  1  0
  3 31  1  0
  4 32  1  0
  4 33  1  0
  4 34  1  0
 11 35  1  0
 11 36  1  0
 13 37  1  0
 15 38  1  0
 16 39  1  0
 19 40  1  0
 19 41  1  0
 20 42  1  0
 20 43  1  0
 22 44  1  0
 22 45  1  0
 23 46  1  0
 23 47  1  0
 24 48  1  0
M  END
>  <UniqueID>  (7) 
7

>  <SMILES>  (7) 
CC(C)(C)OC(=O)n1c(C(N)=O)cc2ccc(N3CCOCC3)cc21

>  <Energy>  (7) 
90.95364899305424

>  <Genealogy>  (7) 
CC(C)(C)OC(=O)n1c(C(N)=O)cc2ccc(N3CCOCC3)cc21 (3D coordinates assigned)
CC(C)(C)OC(=O)n1c(C(N)=O)cc2ccc(N3CCOCC3)cc21 (nonaromatic ring conformer: 90.95364899305424 kcal/mol)

>  <smiles>  (7) 
CC(C)(C)OC(=O)n1c(C(N)=O)cc2ccc(N3CCOCC3)cc21

>  <score_type>  (7) 
oracle

>  <origin>  (7) 
adg

>  <m_score__min__energy>  (7) 
-7.79

>  <m_primary>  (7) 
energy

$$$$
7:0
     RDKit          3D

 57 60  0  0  0  0  0  0  0  0999 V2000
  140.4020  156.3890  133.4430 C   0  0  0  0  0  0  0  0  0  0  0  0
  139.7880  157.6750  134.0040 C   0  0  0  0  0  0  0  0  0  0  0  0
  138.5660  158.0770  133.1700 C   0  0  0  0  0  0  0  0  0  0  0  0
  139.3820  157.4430  135.3350 O   0  0  0  0  0  0  0  0  0  0  0  0
  139.8550  158.5280  136.0680 C   0  0  0  0  0  0  0  0  0  0  0  0
  140.9580  159.1400  135.2440 C   0  0  1  0  0  0  0  0  0  0  0  0
  142.3490  158.6990  135.7210 C   0  0  0  0  0  0  0  0  0  0  0  0
  142.9060  157.7490  134.8170 O   0  0  0  0  0  0  0  0  0  0  0  0
  143.5020  158.0930  133.5980 C   0  0  0  0  0  0  0  0  0  0  0  0
  142.9130  157.8500  132.5110 O   0  0  0  0  0  0  0  0  0  0  0  0
  144.7800  158.7500  133.5960 N   0  0  0  0  0  0  0  0  0  0  0  0
  145.0410  160.0860  133.6910 C   0  0  0  0  0  0  0  0  0  0  0  0
  144.0350  161.1700  133.7300 C   0  0  0  0  0  0  0  0  0  0  0  0
  142.6710  160.8780  133.4340 N   0  0  0  0  0  0  0  0  0  0  0  0
  144.3570  162.3410  134.0600 O   0  0  0  0  0  0  0  0  0  0  0  0
  146.4130  160.3210  133.6380 C   0  0  0  0  0  0  0  0  0  0  0  0
  146.9900  159.0810  133.4890 C   0  0  0  0  0  0  0  0  0  0  0  0
  148.3300  158.7270  133.3490 C   0  0  0  0  0  0  0  0  0  0  0  0
  148.6370  157.3650  133.1880 C   0  0  0  0  0  0  0  0  0  0  0  0
  147.6100  156.3900  133.1870 C   0  0  0  0  0  0  0  0  0  0  0  0
  147.9430  154.9620  133.0200 C   0  0  0  0  0  0  0  0  0  0  0  0
  149.2220  154.6100  132.5580 C   0  0  0  0  0  0  0  0  0  0  0  0
  149.5410  153.2730  132.3090 C   0  0  0  0  0  0  0  0  0  0  0  0
  148.5860  152.2760  132.5130 C   0  0  0  0  0  0  0  0  0  0  0  0
  147.3150  152.6110  132.9870 C   0  0  0  0  0  0  0  0  0  0  0  0
  146.9910  153.9440  133.2670 C   0  0  0  0  0  0  0  0  0  0  0  0
  145.7020  154.2320  133.8190 N   0  0  0  0  0  0  0  0  0  0  0  0
  144.2250  153.9370  132.9610 S   0  0  0  0  0  0  0  0  0  0  0  0
  144.3500  154.5160  131.2800 C   0  0  0  0  0  0  0  0  0  0  0  0
  143.1140  154.6900  133.6360 O   0  0  0  0  0  0  0  0  0  0  0  0
  143.9050  152.4700  132.9690 O   0  0  0  0  0  0  0  0  0  0  0  0
  146.2660  156.7850  133.3550 C   0  0  0  0  0  0  0  0  0  0  0  0
  145.9840  158.1500  133.4720 C   0  0  0  0  0  0  0  0  0  0  0  0
  140.7490  158.7060  133.9340 O   0  0  0  0  0  0  0  0  0  0  0  0
  140.7127  155.7383  134.2737 H   0  0  0  0  0  0  0  0  0  0  0  0
  139.6567  155.8656  132.8262 H   0  0  0  0  0  0  0  0  0  0  0  0
  141.2777  156.6395  132.8262 H   0  0  0  0  0  0  0  0  0  0  0  0
  137.7378  158.3494  133.8408 H   0  0  0  0  0  0  0  0  0  0  0  0
  138.8224  158.9382  132.5354 H   0  0  0  0  0  0  0  0  0  0  0  0
  138.2610  157.2318  132.5354 H   0  0  0  0  0  0  0  0  0  0  0  0
  139.0494  159.2591  136.2307 H   0  0  0  0  0  0  0  0  0  0  0  0
  140.2188  158.2161  137.0581 H   0  0  0  0  0  0  0  0  0  0  0  0
  140.9315  160.2361  135.3324 H   0  0  0  0  0  0  0  0  0  0  0  0
  143.0088  159.5775  135.7756 H   0  0  0  0  0  0  0  0  0  0  0  0
  142.2551  158.2345  136.7137 H   0  0  0  0  0  0  0  0  0  0  0  0
  142.3740  159.9130  133.1660 H   0  0  0  0  0  0  0  0  0  0  0  0
  146.9261  161.2919  133.7018 H   0  0  0  0  0  0  0  0  0  0  0  0
  149.1228  159.4894  133.3640 H   0  0  0  0  0  0  0  0  0  0  0  0
  149.6844  157.0536  133.0616 H   0  0  0  0  0  0  0  0  0  0  0  0
  149.9772  155.3922  132.3912 H   0  0  0  0  0  0  0  0  0  0  0  0
  150.5464  153.0056  131.9516 H   0  0  0  0  0  0  0  0  0  0  0  0
  148.8341  151.2256  132.3005 H   0  0  0  0  0  0  0  0  0  0  0  0
  146.5640  151.8222  133.1412 H   0  0  0  0  0  0  0  0  0  0  0  0
  144.5821  155.5912  131.2789 H   0  0  0  0  0  0  0  0  0  0  0  0
  145.1504  153.9675  130.7618 H   0  0  0  0  0  0  0  0  0  0  0  0
  143.3946  154.3466  130.7618 H   0  0  0  0  0  0  0  0  0  0  0  0
  145.4597  156.0378  133.3930 H   0  0  0  0  0  0  0  0  0  0  0  0
  1  2  1  0
  2  3  1  0
  2  4  1  0
  4  5  1  0
  5  6  1  0
  6  7  1  0
  7  8  1  0
  8  9  1  0
  9 10  2  0
  9 11  1  0
 11 12  1  0
 12 13  1  0
 13 14  1  0
 13 15  2  0
 12 16  2  0
 16 17  1  0
 17 18  2  0
 18 19  1  0
 19 20  2  0
 20 21  1  0
 21 22  2  0
 22 23  1  0
 23 24  2  0
 24 25  1  0
 25 26  2  0
 26 27  1  0
 27 28  1  0
 28 29  1  0
 28 30  2  0
 28 31  2  0
 20 32  1  0
 32 33  2  0
  6 34  1  0
 34  2  1  0
 33 11  1  0
 33 17  1  0
 26 21  1  0
  1 35  1  0
  1 36  1  0
  1 37  1  0
  3 38  1  0
  3 39  1  0
  3 40  1  0
  5 41  1  0
  5 42  1  0
  6 43  1  6
  7 44  1  0
  7 45  1  0
 14 46  1  0
 16 47  1  0
 18 48  1  0
 19 49  1  0
 22 50  1  0
 23 51  1  0
 24 52  1  0
 25 53  1  0
 29 54  1  0
 29 55  1  0
 29 56  1  0
 32 57  1  0
M  CHG  2  14  -1  27  -1
M  END
>  <UniqueID>  (8) 
8

>  <SMILES>  (8) 
CC1(C)OC[C@@H](COC(=O)n2c(C([NH-])=O)cc3ccc(-c4ccccc4[N-]S(C)(=O)=O)cc32)O1

>  <Energy>  (8) 
97.16253623673538

>  <Genealogy>  (8) 
CC1(C)OCC(COC(=O)n2c(C([NH-])=O)cc3ccc(-c4ccccc4[N-]S(C)(=O)=O)cc32)O1 (protonated)
CC1(C)OC[C@@H](COC(=O)n2c(C([NH-])=O)cc3ccc(-c4ccccc4[N-]S(C)(=O)=O)cc32)O1 (chirality)
CC1(C)OC[C@@H](COC(=O)n2c(C([NH-])=O)cc3ccc(-c4ccccc4[N-]S(C)(=O)=O)cc32)O1 (3D coordinates assigned)
CC1(C)OC[C@@H](COC(=O)n2c(C([NH-])=O)cc3ccc(-c4ccccc4[N-]S(C)(=O)=O)cc32)O1 (nonaromatic ring conformer: 97.16253623673538 kcal/mol)

>  <smiles>  (8) 
CC1(C)OCC(COC(=O)n2c(C(N)=O)cc3ccc(-c4ccccc4NS(C)(=O)=O)cc32)O1

>  <score_type>  (8) 
oracle

>  <origin>  (8) 
adg

>  <m_score__min__energy>  (8) 
-10.300000000000001

>  <m_primary>  (8) 
energy

$$$$
8:0
     RDKit          3D

 24 25  0  0  0  0  0  0  0  0999 V2000
  142.7860  160.5320  133.3610 N   0  0  0  0  0  0  0  0  0  0  0  0
  144.1500  160.7660  133.7000 C   0  0  0  0  0  0  0  0  0  0  0  0
  144.4720  161.8500  134.2550 O   0  0  0  0  0  0  0  0  0  0  0  0
  145.1780  159.7320  133.4600 C   0  0  0  0  0  0  0  0  0  0  0  0
  146.5330  160.0170  133.3010 C   0  0  0  0  0  0  0  0  0  0  0  0
  147.1530  158.7920  133.2030 C   0  0  0  0  0  0  0  0  0  0  0  0
  148.4990  158.4790  133.0410 C   0  0  0  0  0  0  0  0  0  0  0  0
  148.8540  157.1220  132.9570 C   0  0  0  0  0  0  0  0  0  0  0  0
  147.8640  156.1070  133.0150 C   0  0  0  0  0  0  0  0  0  0  0  0
  148.2620  154.6540  132.9650 C   0  0  0  0  0  0  0  0  0  0  0  0
  147.2660  153.8940  132.3780 F   0  0  0  0  0  0  0  0  0  0  0  0
  148.4860  154.1640  134.2410 F   0  0  0  0  0  0  0  0  0  0  0  0
  149.4230  154.5260  132.2240 F   0  0  0  0  0  0  0  0  0  0  0  0
  146.5090  156.4670  133.2040 C   0  0  0  0  0  0  0  0  0  0  0  0
  146.1870  157.8250  133.2970 C   0  0  0  0  0  0  0  0  0  0  0  0
  144.9700  158.3860  133.4500 N   0  0  0  0  0  0  0  0  0  0  0  0
  143.7180  157.6850  133.4910 C   0  0  0  0  0  0  0  0  0  0  0  0
  142.8610  157.8730  132.5880 O   0  0  0  0  0  0  0  0  0  0  0  0
  143.3210  156.6000  134.8760 S   0  0  0  0  0  0  0  0  0  0  0  0
  142.5300  160.0090  132.4940 H   0  0  0  0  0  0  0  0  0  0  0  0
  147.0061  161.0093  133.2621 H   0  0  0  0  0  0  0  0  0  0  0  0
  149.2616  159.2694  132.9805 H   0  0  0  0  0  0  0  0  0  0  0  0
  149.9122  156.8431  132.8449 H   0  0  0  0  0  0  0  0  0  0  0  0
  145.7269  155.6969  133.2761 H   0  0  0  0  0  0  0  0  0  0  0  0
  1  2  1  0
  2  3  2  0
  2  4  1  0
  4  5  2  0
  5  6  1  0
  6  7  2  0
  7  8  1  0
  8  9  2  0
  9 10  1  0
 10 11  1  0
 10 12  1  0
 10 13  1  0
  9 14  1  0
 14 15  2  0
 15 16  1  0
 16 17  1  0
 17 18  2  0
 17 19  1  0
 16  4  1  0
 15  6  1  0
  1 20  1  0
  5 21  1  0
  7 22  1  0
  8 23  1  0
 14 24  1  0
M  CHG  2   1  -1  19  -1
M  END
>  <UniqueID>  (9) 
9

>  <SMILES>  (9) 
[NH-]C(=O)c1cc2ccc(C(F)(F)F)cc2n1C(=O)[S-]

>  <Energy>  (9) 
65.99026485607075

>  <Genealogy>  (9) 
[NH-]C(=O)c1cc2ccc(C(F)(F)F)cc2n1C(=O)[S-] (protonated)
[NH-]C(=O)c1cc2ccc(C(F)(F)F)cc2n1C(=O)[S-] (3D coordinates assigned)
[NH-]C(=O)c1cc2ccc(C(F)(F)F)cc2n1C(=O)[S-] (optimized conformer: 65.99026485607075 kcal/mol)

>  <smiles>  (9) 
NC(=O)c1cc2ccc(C(F)(F)F)cc2n1C(=O)S

>  <score_type>  (9) 
oracle

>  <origin>  (9) 
adg

>  <m_score__min__energy>  (9) 
-5.2800000000000002

>  <m_primary>  (9) 
energy

$$$$
9:0
     RDKit          3D

 60 63  0  0  0  0  0  0  0  0999 V2000
  145.1430  163.0580  134.4620 C   0  0  0  0  0  0  0  0  0  0  0  0
  145.7670  161.8380  134.0720 O   0  0  0  0  0  0  0  0  0  0  0  0
  145.1060  160.6060  133.9220 C   0  0  0  0  0  0  0  0  0  0  0  0
  143.7410  160.4790  134.2430 C   0  0  0  0  0  0  0  0  0  0  0  0
  143.0910  159.2540  134.1210 C   0  0  0  0  0  0  0  0  0  0  0  0
  143.7860  158.1220  133.6830 C   0  0  0  0  0  0  0  0  0  0  0  0
  143.0920  156.8130  133.5690 C   0  0  0  0  0  0  0  0  0  0  0  0
  141.6750  156.7450  133.6190 C   0  0  0  0  0  0  0  0  0  0  0  0
  141.0090  155.5130  133.5030 C   0  0  0  0  0  0  0  0  0  0  0  0
  141.7810  154.3670  133.3450 C   0  0  0  0  0  0  0  0  0  0  0  0
  141.3940  153.0560  133.1830 C   0  0  0  0  0  0  0  0  0  0  0  0
  142.5790  152.3340  133.0580 C   0  0  0  0  0  0  0  0  0  0  0  0
  142.6410  150.8590  132.9530 C   0  0  0  0  0  0  0  0  0  0  0  0
  143.7000  150.2220  132.2370 N   0  0  0  0  0  0  0  0  0  0  0  0
  141.7370  150.1500  133.4680 O   0  0  0  0  0  0  0  0  0  0  0  0
  143.6560  153.1660  133.1380 N   0  0  0  0  0  0  0  0  0  0  0  0
  145.0410  152.8170  132.9830 C   0  0  0  0  0  0  0  0  0  0  0  0
  145.4070  152.1360  131.9890 O   0  0  0  0  0  0  0  0  0  0  0  0
  145.9680  153.2310  133.9530 O   0  0  0  0  0  0  0  0  0  0  0  0
  147.1070  154.0750  133.7370 C   0  0  0  0  0  0  0  0  0  0  0  0
  148.3600  153.2290  133.4370 C   0  0  0  0  0  0  0  0  0  0  0  0
  146.8370  155.0690  132.5910 C   0  0  0  0  0  0  0  0  0  0  0  0
  147.3390  154.8650  135.0330 C   0  0  0  0  0  0  0  0  0  0  0  0
  143.1500  154.4070  133.3130 C   0  0  0  0  0  0  0  0  0  0  0  0
  143.8390  155.6220  133.4080 C   0  0  0  0  0  0  0  0  0  0  0  0
  145.1470  158.2390  133.3580 C   0  0  0  0  0  0  0  0  0  0  0  0
  145.8260  159.4750  133.4530 C   0  0  0  0  0  0  0  0  0  0  0  0
  147.3210  159.5420  133.0840 C   0  0  0  0  0  0  0  0  0  0  0  0
  147.7450  160.8310  132.7060 O   0  0  0  0  0  0  0  0  0  0  0  0
  147.7590  158.5170  132.0350 C   0  0  0  0  0  0  0  0  0  0  0  0
  148.7390  157.9110  133.0340 C   0  0  0  0  0  0  0  0  0  0  0  0
  148.2970  158.9160  134.0920 C   0  0  0  0  0  0  0  0  0  0  0  0
  145.1117  163.1192  135.5599 H   0  0  0  0  0  0  0  0  0  0  0  0
  145.7174  163.9073  134.0636 H   0  0  0  0  0  0  0  0  0  0  0  0
  144.1182  163.0894  134.0636 H   0  0  0  0  0  0  0  0  0  0  0  0
  143.1814  161.3584  134.5944 H   0  0  0  0  0  0  0  0  0  0  0  0
  142.0227  159.1757  134.3710 H   0  0  0  0  0  0  0  0  0  0  0  0
  141.0911  157.6680  133.7502 H   0  0  0  0  0  0  0  0  0  0  0  0
  139.9109  155.4568  133.5362 H   0  0  0  0  0  0  0  0  0  0  0  0
  140.3673  152.6621  133.1576 H   0  0  0  0  0  0  0  0  0  0  0  0
  143.7140  149.1830  132.1350 H   0  0  0  0  0  0  0  0  0  0  0  0
  144.4950  150.7710  131.8410 H   0  0  0  0  0  0  0  0  0  0  0  0
  148.8254  152.9148  134.3829 H   0  0  0  0  0  0  0  0  0  0  0  0
  148.0719  152.3399  132.8570 H   0  0  0  0  0  0  0  0  0  0  0  0
  149.0770  153.8286  132.8570 H   0  0  0  0  0  0  0  0  0  0  0  0
  146.5706  156.0499  133.0116 H   0  0  0  0  0  0  0  0  0  0  0  0
  147.7406  155.1688  131.9717 H   0  0  0  0  0  0  0  0  0  0  0  0
  146.0071  154.6979  131.9717 H   0  0  0  0  0  0  0  0  0  0  0  0
  147.1477  154.2138  135.8986 H   0  0  0  0  0  0  0  0  0  0  0  0
  148.3795  155.2205  135.0644 H   0  0  0  0  0  0  0  0  0  0  0  0
  146.6560  155.7267  135.0644 H   0  0  0  0  0  0  0  0  0  0  0  0
  144.9375  155.6502  133.3586 H   0  0  0  0  0  0  0  0  0  0  0  0
  145.6975  157.3481  133.0217 H   0  0  0  0  0  0  0  0  0  0  0  0
  147.0080  161.4560  132.9320 H   0  0  0  0  0  0  0  0  0  0  0  0
  146.9602  157.8308  131.7171 H   0  0  0  0  0  0  0  0  0  0  0  0
  148.1070  158.8479  131.0454 H   0  0  0  0  0  0  0  0  0  0  0  0
  148.5236  156.8640  133.2935 H   0  0  0  0  0  0  0  0  0  0  0  0
  149.8035  157.8122  132.7748 H   0  0  0  0  0  0  0  0  0  0  0  0
  147.8096  158.4622  134.9675 H   0  0  0  0  0  0  0  0  0  0  0  0
  149.0380  159.5403  134.6127 H   0  0  0  0  0  0  0  0  0  0  0  0
  1  2  1  0
  2  3  1  0
  3  4  2  0
  4  5  1  0
  5  6  2  0
  6  7  1  0
  7  8  2  0
  8  9  1  0
  9 10  2  0
 10 11  1  0
 11 12  2  0
 12 13  1  0
 13 14  1  0
 13 15  2  0
 12 16  1  0
 16 17  1  0
 17 18  2  0
 17 19  1  0
 19 20  1  0
 20 21  1  0
 20 22  1  0
 20 23  1  0
 16 24  1  0
 24 25  2  0
  6 26  1  0
 26 27  2  0
 27 28  1  0
 28 29  1  0
 28 30  1  0
 30 31  1  0
 31 32  1  0
 27  3  1  0
 32 28  1  0
 25  7  1  0
 24 10  1  0
  1 33  1  0
  1 34  1  0
  1 35  1  0
  4 36  1  0
  5 37  1  0
  8 38  1  0
  9 39  1  0
 11 40  1  0
 14 41  1  0
 14 42  1  0
 21 43  1  0
 21 44  1  0
 21 45  1  0
 22 46  1  0
 22 47  1  0
 22 48  1  0
 23 49  1  0
 23 50  1  0
 23 51  1  0
 25 52  1  0
 26 53  1  0
 29 54  1  0
 30 55  1  0
 30 56  1  0
 31 57  1  0
 31 58  1  0
 32 59  1  0
 32 60  1  0
M  END
>  <UniqueID>  (10) 
10

>  <SMILES>  (10) 
COc1ccc(-c2ccc3cc(C(N)=O)n(C(=O)OC(C)(C)C)c3c2)cc1C1(O)CCC1

>  <Energy>  (10) 
167.9910442026942

>  <Genealogy>  (10) 
COc1ccc(-c2ccc3cc(C(N)=O)n(C(=O)OC(C)(C)C)c3c2)cc1C1(O)CCC1 (3D coordinates assigned)
COc1ccc(-c2ccc3cc(C(N)=O)n(C(=O)OC(C)(C)C)c3c2)cc1C1(O)CCC1 (nonaromatic ring conformer: 167.9910442026942 kcal/mol)

>  <smiles>  (10) 
COc1ccc(-c2ccc3cc(C(N)=O)n(C(=O)OC(C)(C)C)c3c2)cc1C1(O)CCC1

>  <score_type>  (10) 
oracle

>  <origin>  (10) 
adg

>  <m_score__min__energy>  (10) 
-9.6600000000000001

>  <m_primary>  (10) 
energy

$$$$
10:0
     RDKit          3D

 33 35  0  0  0  0  0  0  0  0999 V2000
  142.9910  155.6600  132.8500 N   0  0  0  0  0  0  0  0  0  0  0  0
  141.8290  156.2450  133.4310 C   0  0  0  0  0  0  0  0  0  0  0  0
  140.8160  155.5260  133.6490 O   0  0  0  0  0  0  0  0  0  0  0  0
  141.8110  157.6400  133.7780 N   0  0  0  0  0  0  0  0  0  0  0  0
  140.7240  158.3980  134.0930 C   0  0  0  0  0  0  0  0  0  0  0  0
  139.3490  157.8980  134.2980 C   0  0  0  0  0  0  0  0  0  0  0  0
  138.7330  157.0200  133.3560 N   0  0  0  0  0  0  0  0  0  0  0  0
  138.7290  158.2070  135.3500 O   0  0  0  0  0  0  0  0  0  0  0  0
  141.0820  159.7350  134.2440 C   0  0  0  0  0  0  0  0  0  0  0  0
  142.4390  159.7740  134.0200 C   0  0  0  0  0  0  0  0  0  0  0  0
  143.3130  160.8560  134.0270 C   0  0  0  0  0  0  0  0  0  0  0  0
  144.6610  160.6150  133.7190 C   0  0  0  0  0  0  0  0  0  0  0  0
  145.1120  159.3070  133.4000 C   0  0  0  0  0  0  0  0  0  0  0  0
  146.5380  159.0690  133.0610 C   0  0  0  0  0  0  0  0  0  0  0  0
  147.1500  157.8370  133.3660 C   0  0  0  0  0  0  0  0  0  0  0  0
  148.4930  157.6150  133.0450 C   0  0  0  0  0  0  0  0  0  0  0  0
  149.2390  158.6160  132.4190 C   0  0  0  0  0  0  0  0  0  0  0  0
  148.6440  159.8420  132.1110 C   0  0  0  0  0  0  0  0  0  0  0  0
  149.3710  160.8140  131.5070 F   0  0  0  0  0  0  0  0  0  0  0  0
  147.3000  160.0680  132.4290 C   0  0  0  0  0  0  0  0  0  0  0  0
  144.1890  158.2340  133.4030 C   0  0  0  0  0  0  0  0  0  0  0  0
  142.8560  158.4990  133.7370 C   0  0  0  0  0  0  0  0  0  0  0  0
  143.2190  155.8050  131.8420 H   0  0  0  0  0  0  0  0  0  0  0  0
  137.7450  156.7100  133.4960 H   0  0  0  0  0  0  0  0  0  0  0  0
  139.2780  156.6050  132.5670 H   0  0  0  0  0  0  0  0  0  0  0  0
  140.4213  160.5794  134.4898 H   0  0  0  0  0  0  0  0  0  0  0  0
  142.9587  161.8694  134.2665 H   0  0  0  0  0  0  0  0  0  0  0  0
  145.3771  161.4500  133.7248 H   0  0  0  0  0  0  0  0  0  0  0  0
  146.5679  157.0449  133.8596 H   0  0  0  0  0  0  0  0  0  0  0  0
  148.9627  156.6500  133.2861 H   0  0  0  0  0  0  0  0  0  0  0  0
  150.2954  158.4391  132.1684 H   0  0  0  0  0  0  0  0  0  0  0  0
  146.8360  161.0345  132.1827 H   0  0  0  0  0  0  0  0  0  0  0  0
  144.5124  157.2139  133.1483 H   0  0  0  0  0  0  0  0  0  0  0  0
  1  2  1  0
  2  3  2  0
  2  4  1  0
  4  5  1  0
  5  6  1  0
  6  7  1  0
  6  8  2  0
  5  9  2  0
  9 10  1  0
 10 11  2  0
 11 12  1  0
 12 13  2  0
 13 14  1  0
 14 15  2  0
 15 16  1  0
 16 17  2  0
 17 18  1  0
 18 19  1  0
 18 20  2  0
 13 21  1  0
 21 22  2  0
 22  4  1  0
 22 10  1  0
 20 14  1  0
  1 23  1  0
  7 24  1  0
  7 25  1  0
  9 26  1  0
 11 27  1  0
 12 28  1  0
 15 29  1  0
 16 30  1  0
 17 31  1  0
 20 32  1  0
 21 33  1  0
M  CHG  1   1  -1
M  END
>  <UniqueID>  (11) 
11

>  <SMILES>  (11) 
[NH-]C(=O)n1c(C(N)=O)cc2ccc(-c3cccc(F)c3)cc21

>  <Energy>  (11) 
80.86031661906904

>  <Genealogy>  (11) 
[NH-]C(=O)n1c(C(N)=O)cc2ccc(-c3cccc(F)c3)cc21 (protonated)
[NH-]C(=O)n1c(C(N)=O)cc2ccc(-c3cccc(F)c3)cc21 (3D coordinates assigned)
[NH-]C(=O)n1c(C(N)=O)cc2ccc(-c3cccc(F)c3)cc21 (optimized conformer: 80.86031661906904 kcal/mol)

>  <smiles>  (11) 
NC(=O)c1cc2ccc(-c3cccc(F)c3)cc2n1C(N)=O

>  <score_type>  (11) 
oracle

>  <origin>  (11) 
adg

>  <m_score__min__energy>  (11) 
-7.7699999999999996

>  <m_primary>  (11) 
energy

$$$$
11:0
     RDKit          3D

 42 44  0  0  0  0  0  0  0  0999 V2000
  149.2040  158.5970  130.9740 C   0  0  0  0  0  0  0  0  0  0  0  0
  149.2800  159.4910  132.1400 N   0  0  0  0  0  0  0  0  0  0  0  0
  148.5970  160.7660  131.8590 C   0  0  0  0  0  0  0  0  0  0  0  0
  148.6980  158.8400  133.2970 C   0  0  0  0  0  0  0  0  0  0  0  0
  148.8550  159.3490  134.4440 O   0  0  0  0  0  0  0  0  0  0  0  0
  147.8860  157.5990  133.1720 C   0  0  0  0  0  0  0  0  0  0  0  0
  148.5290  156.3530  133.0750 C   0  0  0  0  0  0  0  0  0  0  0  0
  147.7880  155.1750  132.9630 C   0  0  0  0  0  0  0  0  0  0  0  0
  146.3840  155.2120  132.9530 C   0  0  0  0  0  0  0  0  0  0  0  0
  145.5950  153.9600  132.8350 C   0  0  0  0  0  0  0  0  0  0  0  0
  146.2420  152.7290  132.5520 C   0  0  0  0  0  0  0  0  0  0  0  0
  145.5070  151.5360  132.4500 C   0  0  0  0  0  0  0  0  0  0  0  0
  144.1290  151.6020  132.6270 C   0  0  0  0  0  0  0  0  0  0  0  0
  143.1860  150.6000  132.6060 C   0  0  0  0  0  0  0  0  0  0  0  0
  141.9700  151.2320  132.8540 C   0  0  0  0  0  0  0  0  0  0  0  0
  140.6700  150.5290  132.8320 C   0  0  0  0  0  0  0  0  0  0  0  0
  139.6660  150.9210  131.8980 N   0  0  0  0  0  0  0  0  0  0  0  0
  140.4210  149.6100  133.6550 O   0  0  0  0  0  0  0  0  0  0  0  0
  142.1540  152.5720  133.0290 N   0  0  0  0  0  0  0  0  0  0  0  0
  141.1650  153.5560  133.3730 C   0  0  0  0  0  0  0  0  0  0  0  0
  140.1880  153.7710  132.6080 O   0  0  0  0  0  0  0  0  0  0  0  0
  141.2910  154.3010  134.5400 O   0  0  0  0  0  0  0  0  0  0  0  0
  143.4810  152.7820  132.8830 C   0  0  0  0  0  0  0  0  0  0  0  0
  144.1900  153.9820  133.0090 C   0  0  0  0  0  0  0  0  0  0  0  0
  145.7380  156.4560  133.0640 C   0  0  0  0  0  0  0  0  0  0  0  0
  146.4800  157.6360  133.1740 C   0  0  0  0  0  0  0  0  0  0  0  0
  149.1154  157.5552  131.3159 H   0  0  0  0  0  0  0  0  0  0  0  0
  148.3249  158.8598  130.3672 H   0  0  0  0  0  0  0  0  0  0  0  0
  150.1148  158.7076  130.3672 H   0  0  0  0  0  0  0  0  0  0  0  0
  150.2850  159.7210  132.3220 H   0  0  0  0  0  0  0  0  0  0  0  0
  148.3336  161.2576  132.8071 H   0  0  0  0  0  0  0  0  0  0  0  0
  149.2654  161.4202  131.2800 H   0  0  0  0  0  0  0  0  0  0  0  0
  147.6820  160.5720  131.2800 H   0  0  0  0  0  0  0  0  0  0  0  0
  149.6279  156.3054  133.0875 H   0  0  0  0  0  0  0  0  0  0  0  0
  148.3084  154.2093  132.8819 H   0  0  0  0  0  0  0  0  0  0  0  0
  147.3327  152.7087  132.4107 H   0  0  0  0  0  0  0  0  0  0  0  0
  146.0060  150.5792  132.2367 H   0  0  0  0  0  0  0  0  0  0  0  0
  143.3565  149.5275  132.4306 H   0  0  0  0  0  0  0  0  0  0  0  0
  139.5220  151.9260  131.6570 H   0  0  0  0  0  0  0  0  0  0  0  0
  143.6670  154.9221  133.2383 H   0  0  0  0  0  0  0  0  0  0  0  0
  144.6389  156.5013  133.0643 H   0  0  0  0  0  0  0  0  0  0  0  0
  145.9598  158.6012  133.2628 H   0  0  0  0  0  0  0  0  0  0  0  0
  1  2  1  0
  2  3  1  0
  2  4  1  0
  4  5  2  0
  4  6  1  0
  6  7  2  0
  7  8  1  0
  8  9  2  0
  9 10  1  0
 10 11  2  0
 11 12  1  0
 12 13  2  0
 13 14  1  0
 14 15  2  0
 15 16  1  0
 16 17  1  0
 16 18  2  0
 15 19  1  0
 19 20  1  0
 20 21  2  0
 20 22  1  0
 19 23  1  0
 23 24  2  0
  9 25  1  0
 25 26  2  0
 26  6  1  0
 24 10  1  0
 23 13  1  0
  1 27  1  0
  1 28  1  0
  1 29  1  0
  2 30  1  0
  3 31  1  0
  3 32  1  0
  3 33  1  0
  7 34  1  0
  8 35  1  0
 11 36  1  0
 12 37  1  0
 14 38  1  0
 17 39  1  0
 24 40  1  0
 25 41  1  0
 26 42  1  0
M  CHG  3   2   1  17  -1  22  -1
M  END
>  <UniqueID>  (12) 
12

>  <SMILES>  (12) 
C[NH+](C)C(=O)c1ccc(-c2ccc3cc(C([NH-])=O)n(C(=O)[O-])c3c2)cc1

>  <Energy>  (12) 
92.86669099567342

>  <Genealogy>  (12) 
C[NH+](C)C(=O)c1ccc(-c2ccc3cc(C([NH-])=O)n(C(=O)[O-])c3c2)cc1 (protonated)
C[NH+](C)C(=O)c1ccc(-c2ccc3cc(C([NH-])=O)n(C(=O)[O-])c3c2)cc1 (3D coordinates assigned)
C[NH+](C)C(=O)c1ccc(-c2ccc3cc(C([NH-])=O)n(C(=O)[O-])c3c2)cc1 (optimized conformer: 92.86669099567342 kcal/mol)

>  <smiles>  (12) 
CN(C)C(=O)c1ccc(-c2ccc3cc(C(N)=O)n(C(=O)O)c3c2)cc1

>  <score_type>  (12) 
oracle

>  <origin>  (12) 
adg

>  <m_score__min__energy>  (12) 
-7.8899999999999997

>  <m_primary>  (12) 
energy

$$$$
12:0
     RDKit          3D

 26 27  0  0  0  0  0  0  0  0999 V2000
  145.9650  162.7520  134.7810 N   0  0  0  0  0  0  0  0  0  0  0  0
  144.9640  162.0280  134.0710 C   0  0  0  0  0  0  0  0  0  0  0  0
  143.9990  162.6590  133.5670 O   0  0  0  0  0  0  0  0  0  0  0  0
  145.0770  160.5990  133.8970 N   0  0  0  0  0  0  0  0  0  0  0  0
  144.1070  159.6630  134.1120 C   0  0  0  0  0  0  0  0  0  0  0  0
  142.7780  159.9150  134.6910 C   0  0  0  0  0  0  0  0  0  0  0  0
  141.8990  160.8780  134.1080 N   0  0  0  0  0  0  0  0  0  0  0  0
  142.4410  159.3270  135.7520 O   0  0  0  0  0  0  0  0  0  0  0  0
  144.5110  158.4130  133.6630 C   0  0  0  0  0  0  0  0  0  0  0  0
  145.7870  158.5950  133.1850 C   0  0  0  0  0  0  0  0  0  0  0  0
  146.6710  157.6740  132.6310 C   0  0  0  0  0  0  0  0  0  0  0  0
  147.9370  158.1330  132.2330 C   0  0  0  0  0  0  0  0  0  0  0  0
  148.3010  159.4900  132.4140 C   0  0  0  0  0  0  0  0  0  0  0  0
  149.6510  159.9700  131.9690 C   0  0  0  0  0  0  0  0  0  0  0  0
  149.5750  160.5050  130.1100 Br  0  0  0  0  0  0  0  0  0  0  0  0
  147.3740  160.3990  132.9680 C   0  0  0  0  0  0  0  0  0  0  0  0
  146.1090  159.9210  133.3380 C   0  0  0  0  0  0  0  0  0  0  0  0
  146.9750  162.6590  134.5300 H   0  0  0  0  0  0  0  0  0  0  0  0
  142.2130  161.4700  133.3080 H   0  0  0  0  0  0  0  0  0  0  0  0
  140.9530  161.0410  134.5170 H   0  0  0  0  0  0  0  0  0  0  0  0
  143.9335  157.4770  133.6850 H   0  0  0  0  0  0  0  0  0  0  0  0
  146.3867  156.6185  132.5086 H   0  0  0  0  0  0  0  0  0  0  0  0
  148.6522  157.4328  131.7768 H   0  0  0  0  0  0  0  0  0  0  0  0
  149.9543  160.8297  132.5845 H   0  0  0  0  0  0  0  0  0  0  0  0
  150.3823  159.1564  132.0837 H   0  0  0  0  0  0  0  0  0  0  0  0
  147.6380  161.4579  133.1062 H   0  0  0  0  0  0  0  0  0  0  0  0
  1  2  1  0
  2  3  2  0
  2  4  1  0
  4  5  1  0
  5  6  1  0
  6  7  1  0
  6  8  2  0
  5  9  2  0
  9 10  1  0
 10 11  2  0
 11 12  1  0
 12 13  2  0
 13 14  1  0
 14 15  1  0
 13 16  1  0
 16 17  2  0
 17  4  1  0
 17 10  1  0
  1 18  1  0
  7 19  1  0
  7 20  1  0
  9 21  1  0
 11 22  1  0
 12 23  1  0
 14 24  1  0
 14 25  1  0
 16 26  1  0
M  CHG  1   1  -1
M  END
>  <UniqueID>  (13) 
13

>  <SMILES>  (13) 
[NH-]C(=O)n1c(C(N)=O)cc2ccc(CBr)cc21

>  <Energy>  (13) 
67.8938167165381

>  <Genealogy>  (13) 
[NH-]C(=O)n1c(C(N)=O)cc2ccc(CBr)cc21 (protonated)
[NH-]C(=O)n1c(C(N)=O)cc2ccc(CBr)cc21 (3D coordinates assigned)
[NH-]C(=O)n1c(C(N)=O)cc2ccc(CBr)cc21 (optimized conformer: 67.8938167165381 kcal/mol)

>  <smiles>  (13) 
NC(=O)c1cc2ccc(CBr)cc2n1C(N)=O

>  <score_type>  (13) 
oracle

>  <origin>  (13) 
adg

>  <m_score__min__energy>  (13) 
-6.7400000000000002

>  <m_primary>  (13) 
energy

$$$$
13:0
     RDKit          3D

 34 36  0  0  0  0  0  0  0  0999 V2000
  149.2530  161.1330  130.3640 C   0  0  0  0  0  0  0  0  0  0  0  0
  149.6230  160.4390  131.5480 O   0  0  0  0  0  0  0  0  0  0  0  0
  148.7890  159.5040  132.1690 C   0  0  0  0  0  0  0  0  0  0  0  0
  147.4520  159.8290  132.4090 C   0  0  0  0  0  0  0  0  0  0  0  0
  146.6250  158.8810  133.0330 C   0  0  0  0  0  0  0  0  0  0  0  0
  145.1950  159.1620  133.3240 C   0  0  0  0  0  0  0  0  0  0  0  0
  144.7390  160.4860  133.5630 C   0  0  0  0  0  0  0  0  0  0  0  0
  143.3860  160.7420  133.8440 C   0  0  0  0  0  0  0  0  0  0  0  0
  142.5090  159.6650  133.8640 C   0  0  0  0  0  0  0  0  0  0  0  0
  141.1620  159.6290  134.1400 C   0  0  0  0  0  0  0  0  0  0  0  0
  140.7990  158.2910  134.0260 C   0  0  0  0  0  0  0  0  0  0  0  0
  139.4120  157.8100  134.1860 C   0  0  0  0  0  0  0  0  0  0  0  0
  138.8210  156.9250  133.2340 N   0  0  0  0  0  0  0  0  0  0  0  0
  138.7180  158.2310  135.1500 O   0  0  0  0  0  0  0  0  0  0  0  0
  141.8790  157.5230  133.7060 N   0  0  0  0  0  0  0  0  0  0  0  0
  141.9360  156.0900  133.6110 C   0  0  0  0  0  0  0  0  0  0  0  0
  142.9110  155.4590  134.0990 O   0  0  0  0  0  0  0  0  0  0  0  0
  140.9180  155.3830  132.9820 O   0  0  0  0  0  0  0  0  0  0  0  0
  142.9190  158.3820  133.6060 C   0  0  0  0  0  0  0  0  0  0  0  0
  144.2650  158.0950  133.3460 C   0  0  0  0  0  0  0  0  0  0  0  0
  147.1560  157.6810  133.3960 N   0  0  0  0  0  0  0  0  0  0  0  0
  148.4580  157.3800  133.1560 C   0  0  0  0  0  0  0  0  0  0  0  0
  149.2630  158.2860  132.5450 N   0  0  0  0  0  0  0  0  0  0  0  0
  148.7512  162.0743  130.6324 H   0  0  0  0  0  0  0  0  0  0  0  0
  150.1533  161.3534  129.7717 H   0  0  0  0  0  0  0  0  0  0  0  0
  148.5682  160.5083  129.7717 H   0  0  0  0  0  0  0  0  0  0  0  0
  147.0535  160.8110  132.1142 H   0  0  0  0  0  0  0  0  0  0  0  0
  145.4539  161.3213  133.5277 H   0  0  0  0  0  0  0  0  0  0  0  0
  143.0321  161.7645  134.0421 H   0  0  0  0  0  0  0  0  0  0  0  0
  140.5106  160.4775  134.3963 H   0  0  0  0  0  0  0  0  0  0  0  0
  137.8520  156.5650  133.3830 H   0  0  0  0  0  0  0  0  0  0  0  0
  139.3060  156.6930  132.3390 H   0  0  0  0  0  0  0  0  0  0  0  0
  144.5929  157.0612  133.1625 H   0  0  0  0  0  0  0  0  0  0  0  0
  148.8606  156.4015  133.4569 H   0  0  0  0  0  0  0  0  0  0  0  0
  1  2  1  0
  2  3  1  0
  3  4  2  0
  4  5  1  0
  5  6  1  0
  6  7  2  0
  7  8  1  0
  8  9  2  0
  9 10  1  0
 10 11  2  0
 11 12  1  0
 12 13  1  0
 12 14  2  0
 11 15  1  0
 15 16  1  0
 16 17  2  0
 16 18  1  0
 15 19  1  0
 19 20  2  0
  5 21  2  0
 21 22  1  0
 22 23  2  0
 23  3  1  0
 20  6  1  0
 19  9  1  0
  1 24  1  0
  1 25  1  0
  1 26  1  0
  4 27  1  0
  7 28  1  0
  8 29  1  0
 10 30  1  0
 13 31  1  0
 13 32  1  0
 20 33  1  0
 22 34  1  0
M  CHG  1  18  -1
M  END
>  <UniqueID>  (14) 
14

>  <SMILES>  (14) 
COc1cc(-c2ccc3cc(C(N)=O)n(C(=O)[O-])c3c2)ncn1

>  <Energy>  (14) 
79.88074681260831

>  <Genealogy>  (14) 
COc1cc(-c2ccc3cc(C(N)=O)n(C(=O)[O-])c3c2)ncn1 (protonated)
COc1cc(-c2ccc3cc(C(N)=O)n(C(=O)[O-])c3c2)ncn1 (3D coordinates assigned)
COc1cc(-c2ccc3cc(C(N)=O)n(C(=O)[O-])c3c2)ncn1 (optimized conformer: 79.88074681260831 kcal/mol)

>  <smiles>  (14) 
COc1cc(-c2ccc3cc(C(N)=O)n(C(=O)O)c3c2)ncn1

>  <score_type>  (14) 
oracle

>  <origin>  (14) 
adg

>  <m_score__min__energy>  (14) 
-6.9500000000000002

>  <m_primary>  (14) 
energy

$$$$
14:0
     RDKit          3D

 61 65  0  0  0  0  0  0  0  0999 V2000
  140.6090  159.4570  136.2960 C   0  0  0  0  0  0  0  0  0  0  0  0
  141.6080  158.6180  135.4860 C   0  0  0  0  0  0  0  0  0  0  0  0
  141.8290  157.2750  136.2070 C   0  0  0  0  0  0  0  0  0  0  0  0
  141.0370  158.3890  134.0740 C   0  0  0  0  0  0  0  0  0  0  0  0
  142.8310  159.3650  135.4190 O   0  0  0  0  0  0  0  0  0  0  0  0
  143.3130  160.0780  134.3110 C   0  0  0  0  0  0  0  0  0  0  0  0
  142.5300  160.7330  133.5730 O   0  0  0  0  0  0  0  0  0  0  0  0
  144.7220  160.0820  134.0350 N   0  0  0  0  0  0  0  0  0  0  0  0
  145.5500  161.1620  133.9520 C   0  0  0  0  0  0  0  0  0  0  0  0
  145.2020  162.5520  134.3110 C   0  0  0  0  0  0  0  0  0  0  0  0
  144.1380  163.2350  133.6510 N   0  0  0  0  0  0  0  0  0  0  0  0
  145.8180  163.1280  135.2470 O   0  0  0  0  0  0  0  0  0  0  0  0
  146.8240  160.7710  133.5480 C   0  0  0  0  0  0  0  0  0  0  0  0
  146.7550  159.4060  133.3910 C   0  0  0  0  0  0  0  0  0  0  0  0
  147.7310  158.5020  132.9850 C   0  0  0  0  0  0  0  0  0  0  0  0
  147.3710  157.1490  132.8750 C   0  0  0  0  0  0  0  0  0  0  0  0
  146.0470  156.7230  133.1630 C   0  0  0  0  0  0  0  0  0  0  0  0
  145.6730  155.2930  133.0310 C   0  0  0  0  0  0  0  0  0  0  0  0
  146.6780  154.2880  133.0060 C   0  0  0  0  0  0  0  0  0  0  0  0
  146.3360  152.9310  132.8720 C   0  0  0  0  0  0  0  0  0  0  0  0
  144.9860  152.6100  132.7760 C   0  0  0  0  0  0  0  0  0  0  0  0
  144.4360  151.3980  132.6190 N   0  0  0  0  0  0  0  0  0  0  0  0
  143.1000  151.6290  132.5690 C   0  0  0  0  0  0  0  0  0  0  0  0
  142.1440  150.5220  132.3420 C   0  0  0  0  0  0  0  0  0  0  0  0
  142.3490  149.1580  132.4940 C   0  0  0  0  0  0  0  0  0  0  0  0
  141.1660  148.5520  132.1320 C   0  0  0  0  0  0  0  0  0  0  0  0
  140.3160  149.5750  131.7770 C   0  0  0  0  0  0  0  0  0  0  0  0
  138.6670  149.3830  131.2220 Cl  0  0  0  0  0  0  0  0  0  0  0  0
  140.9220  150.7310  131.9060 O   0  0  0  0  0  0  0  0  0  0  0  0
  142.8030  152.9610  132.6790 N   0  0  0  0  0  0  0  0  0  0  0  0
  141.4990  153.6340  132.6210 C   0  0  0  0  0  0  0  0  0  0  0  0
  141.2180  154.4080  133.9140 C   0  0  0  0  0  0  0  0  0  0  0  0
  142.0780  155.4850  134.0230 F   0  0  0  0  0  0  0  0  0  0  0  0
  139.9180  154.8770  133.8950 F   0  0  0  0  0  0  0  0  0  0  0  0
  141.3870  153.5940  135.0200 F   0  0  0  0  0  0  0  0  0  0  0  0
  144.0070  153.5590  132.8090 C   0  0  0  0  0  0  0  0  0  0  0  0
  144.3120  154.9180  132.9240 C   0  0  0  0  0  0  0  0  0  0  0  0
  145.0840  157.6760  133.5720 C   0  0  0  0  0  0  0  0  0  0  0  0
  145.4760  159.0140  133.6900 C   0  0  0  0  0  0  0  0  0  0  0  0
  140.7894  159.3055  137.3705 H   0  0  0  0  0  0  0  0  0  0  0  0
  140.7386  160.5210  136.0489 H   0  0  0  0  0  0  0  0  0  0  0  0
  139.5834  159.1455  136.0489 H   0  0  0  0  0  0  0  0  0  0  0  0
  141.8028  157.4343  137.2951 H   0  0  0  0  0  0  0  0  0  0  0  0
  141.0348  156.5699  135.9204 H   0  0  0  0  0  0  0  0  0  0  0  0
  142.8072  156.8616  135.9204 H   0  0  0  0  0  0  0  0  0  0  0  0
  140.0186  157.9806  134.1521 H   0  0  0  0  0  0  0  0  0  0  0  0
  141.0080  159.3450  133.5307 H   0  0  0  0  0  0  0  0  0  0  0  0
  141.6766  157.6778  133.5307 H   0  0  0  0  0  0  0  0  0  0  0  0
  143.3400  162.7090  133.2330 H   0  0  0  0  0  0  0  0  0  0  0  0
  147.7000  161.4168  133.3882 H   0  0  0  0  0  0  0  0  0  0  0  0
  148.7538  158.8366  132.7570 H   0  0  0  0  0  0  0  0  0  0  0  0
  148.1235  156.4102  132.5620 H   0  0  0  0  0  0  0  0  0  0  0  0
  147.7362  154.5756  133.0926 H   0  0  0  0  0  0  0  0  0  0  0  0
  147.1097  152.1496  132.8440 H   0  0  0  0  0  0  0  0  0  0  0  0
  144.9300  150.4810  132.5440 H   0  0  0  0  0  0  0  0  0  0  0  0
  143.2695  148.6613  132.8345 H   0  0  0  0  0  0  0  0  0  0  0  0
  140.9462  147.4742  132.1275 H   0  0  0  0  0  0  0  0  0  0  0  0
  141.4946  154.3360  131.7742 H   0  0  0  0  0  0  0  0  0  0  0  0
  140.7175  152.8702  132.4948 H   0  0  0  0  0  0  0  0  0  0  0  0
  143.5154  155.6765  132.9312 H   0  0  0  0  0  0  0  0  0  0  0  0
  144.0502  157.3716  133.7923 H   0  0  0  0  0  0  0  0  0  0  0  0
  1  2  1  0
  2  3  1  0
  2  4  1  0
  2  5  1  0
  5  6  1  0
  6  7  2  0
  6  8  1  0
  8  9  1  0
  9 10  1  0
 10 11  1  0
 10 12  2  0
  9 13  2  0
 13 14  1  0
 14 15  2  0
 15 16  1  0
 16 17  2  0
 17 18  1  0
 18 19  2  0
 19 20  1  0
 20 21  2  0
 21 22  1  0
 22 23  2  0
 23 24  1  0
 24 25  2  0
 25 26  1  0
 26 27  2  0
 27 28  1  0
 27 29  1  0
 23 30  1  0
 30 31  1  0
 31 32  1  0
 32 33  1  0
 32 34  1  0
 32 35  1  0
 30 36  1  0
 36 37  2  0
 17 38  1  0
 38 39  2  0
 39  8  1  0
 39 14  1  0
 37 18  1  0
 36 21  1  0
 29 24  1  0
  1 40  1  0
  1 41  1  0
  1 42  1  0
  3 43  1  0
  3 44  1  0
  3 45  1  0
  4 46  1  0
  4 47  1  0
  4 48  1  0
 11 49  1  0
 13 50  1  0
 15 51  1  0
 16 52  1  0
 19 53  1  0
 20 54  1  0
 22 55  1  0
 25 56  1  0
 26 57  1  0
 31 58  1  0
 31 59  1  0
 37 60  1  0
 38 61  1  0
M  CHG  2  11  -1  22   1
M  END
>  <UniqueID>  (15) 
15

>  <SMILES>  (15) 
CC(C)(C)OC(=O)n1c(C([NH-])=O)cc2ccc(-c3ccc4[nH+]c(-c5ccc(Cl)o5)n(CC(F)(F)F)c4c3)cc21

>  <Energy>  (15) 
173.0852063638073

>  <Genealogy>  (15) 
CC(C)(C)OC(=O)n1c(C([NH-])=O)cc2ccc(-c3ccc4[nH+]c(-c5ccc(Cl)o5)n(CC(F)(F)F)c4c3)cc21 (protonated)
CC(C)(C)OC(=O)n1c(C([NH-])=O)cc2ccc(-c3ccc4[nH+]c(-c5ccc(Cl)o5)n(CC(F)(F)F)c4c3)cc21 (3D coordinates assigned)
CC(C)(C)OC(=O)n1c(C([NH-])=O)cc2ccc(-c3ccc4[nH+]c(-c5ccc(Cl)o5)n(CC(F)(F)F)c4c3)cc21 (optimized conformer: 173.0852063638073 kcal/mol)

>  <smiles>  (15) 
CC(C)(C)OC(=O)n1c(C(N)=O)cc2ccc(-c3ccc4nc(-c5ccc(Cl)o5)n(CC(F)(F)F)c4c3)cc21

>  <score_type>  (15) 
oracle

>  <origin>  (15) 
adg

>  <m_score__min__energy>  (15) 
-10.02

>  <m_primary>  (15) 
energy

$$$$
15:0
     RDKit          3D

 32 34  0  0  0  0  0  0  0  0999 V2000
  143.0040  160.6770  133.3540 N   0  0  0  0  0  0  0  0  0  0  0  0
  144.3640  160.7760  133.7650 C   0  0  0  0  0  0  0  0  0  0  0  0
  144.7350  161.7800  134.4320 O   0  0  0  0  0  0  0  0  0  0  0  0
  145.3300  159.6970  133.4690 C   0  0  0  0  0  0  0  0  0  0  0  0
  146.6690  159.9310  133.1630 C   0  0  0  0  0  0  0  0  0  0  0  0
  147.2380  158.6850  133.0390 C   0  0  0  0  0  0  0  0  0  0  0  0
  148.5440  158.3260  132.7240 C   0  0  0  0  0  0  0  0  0  0  0  0
  148.8470  156.9580  132.6280 C   0  0  0  0  0  0  0  0  0  0  0  0
  147.8440  155.9760  132.8400 C   0  0  0  0  0  0  0  0  0  0  0  0
  148.1740  154.5360  132.7140 C   0  0  0  0  0  0  0  0  0  0  0  0
  149.5140  154.1310  132.5730 C   0  0  0  0  0  0  0  0  0  0  0  0
  149.8360  152.7760  132.4470 C   0  0  0  0  0  0  0  0  0  0  0  0
  148.8260  151.8110  132.4640 C   0  0  0  0  0  0  0  0  0  0  0  0
  149.1400  150.4980  132.3420 F   0  0  0  0  0  0  0  0  0  0  0  0
  147.4910  152.2010  132.6090 C   0  0  0  0  0  0  0  0  0  0  0  0
  147.1620  153.5540  132.7350 C   0  0  0  0  0  0  0  0  0  0  0  0
  145.8610  153.8990  132.9120 F   0  0  0  0  0  0  0  0  0  0  0  0
  146.5260  156.3830  133.1500 C   0  0  0  0  0  0  0  0  0  0  0  0
  146.2580  157.7530  133.2610 C   0  0  0  0  0  0  0  0  0  0  0  0
  145.0790  158.3580  133.5250 N   0  0  0  0  0  0  0  0  0  0  0  0
  143.8150  157.7070  133.7310 C   0  0  0  0  0  0  0  0  0  0  0  0
  142.7480  157.9040  132.8070 N   0  0  0  0  0  0  0  0  0  0  0  0
  143.6380  156.9710  134.7390 O   0  0  0  0  0  0  0  0  0  0  0  0
  142.7280  160.0700  132.5490 H   0  0  0  0  0  0  0  0  0  0  0  0
  147.1656  160.9054  133.0455 H   0  0  0  0  0  0  0  0  0  0  0  0
  149.3166  159.0906  132.5551 H   0  0  0  0  0  0  0  0  0  0  0  0
  149.8730  156.6439  132.3858 H   0  0  0  0  0  0  0  0  0  0  0  0
  150.3142  154.8857  132.5618 H   0  0  0  0  0  0  0  0  0  0  0  0
  150.8864  152.4695  132.3343 H   0  0  0  0  0  0  0  0  0  0  0  0
  146.6966  151.4403  132.6240 H   0  0  0  0  0  0  0  0  0  0  0  0
  145.7289  155.6401  133.3006 H   0  0  0  0  0  0  0  0  0  0  0  0
  142.6500  158.8030  132.2840 H   0  0  0  0  0  0  0  0  0  0  0  0
  1  2  1  0
  2  3  2  0
  2  4  1  0
  4  5  2  0
  5  6  1  0
  6  7  2  0
  7  8  1  0
  8  9  2  0
  9 10  1  0
 10 11  2  0
 11 12  1  0
 12 13  2  0
 13 14  1  0
 13 15  1  0
 15 16  2  0
 16 17  1  0
  9 18  1  0
 18 19  2  0
 19 20  1  0
 20 21  1  0
 21 22  1  0
 21 23  2  0
 20  4  1  0
 19  6  1  0
 16 10  1  0
  1 24  1  0
  5 25  1  0
  7 26  1  0
  8 27  1  0
 11 28  1  0
 12 29  1  0
 15 30  1  0
 18 31  1  0
 22 32  1  0
M  CHG  2   1  -1  22  -1
M  END
>  <UniqueID>  (16) 
16

>  <SMILES>  (16) 
[NH-]C(=O)c1cc2ccc(-c3ccc(F)cc3F)cc2n1C([NH-])=O

>  <Energy>  (16) 
80.55263733177142

>  <Genealogy>  (16) 
[NH-]C(=O)c1cc2ccc(-c3ccc(F)cc3F)cc2n1C([NH-])=O (protonated)
[NH-]C(=O)c1cc2ccc(-c3ccc(F)cc3F)cc2n1C([NH-])=O (3D coordinates assigned)
[NH-]C(=O)c1cc2ccc(-c3ccc(F)cc3F)cc2n1C([NH-])=O (optimized conformer: 80.55263733177142 kcal/mol)

>  <smiles>  (16) 
NC(=O)c1cc2ccc(-c3ccc(F)cc3F)cc2n1C(N)=O

>  <score_type>  (16) 
oracle

>  <origin>  (16) 
adg

>  <m_score__min__energy>  (16) 
-7.2000000000000002

>  <m_primary>  (16) 
energy

$$$$
16:0
     RDKit          3D

 28 30  0  0  0  0  0  0  0  0999 V2000
  139.6850  158.1090  136.6120 N   0  0  0  0  0  0  0  0  0  0  0  0
  139.9870  158.0550  135.2190 C   0  0  0  0  0  0  0  0  0  0  0  0
  139.0550  158.1780  134.3820 O   0  0  0  0  0  0  0  0  0  0  0  0
  141.3890  157.9030  134.7760 C   0  0  0  0  0  0  0  0  0  0  0  0
  142.1570  156.7710  135.0410 C   0  0  0  0  0  0  0  0  0  0  0  0
  143.4090  157.0590  134.5490 C   0  0  0  0  0  0  0  0  0  0  0  0
  144.5620  156.2820  134.5330 C   0  0  0  0  0  0  0  0  0  0  0  0
  145.7120  156.8190  133.9310 C   0  0  0  0  0  0  0  0  0  0  0  0
  145.6940  158.1170  133.3530 C   0  0  0  0  0  0  0  0  0  0  0  0
  146.9170  158.6610  132.7110 C   0  0  0  0  0  0  0  0  0  0  0  0
  148.2000  158.1070  132.7490 C   0  0  0  0  0  0  0  0  0  0  0  0
  149.1550  158.8490  132.0420 C   0  0  0  0  0  0  0  0  0  0  0  0
  148.6340  159.9860  131.4450 C   0  0  0  0  0  0  0  0  0  0  0  0
  149.6080  161.2480  130.3990 Br  0  0  0  0  0  0  0  0  0  0  0  0
  146.9940  160.0740  131.7880 S   0  0  0  0  0  0  0  0  0  0  0  0
  144.4960  158.8720  133.3890 C   0  0  0  0  0  0  0  0  0  0  0  0
  143.3710  158.3180  134.0110 C   0  0  0  0  0  0  0  0  0  0  0  0
  142.1350  158.8500  134.1400 N   0  0  0  0  0  0  0  0  0  0  0  0
  141.6950  160.1210  133.6350 C   0  0  0  0  0  0  0  0  0  0  0  0
  140.5490  160.2410  133.1250 O   0  0  0  0  0  0  0  0  0  0  0  0
  142.5170  161.2360  133.7270 O   0  0  0  0  0  0  0  0  0  0  0  0
  139.4410  159.0130  137.0740 H   0  0  0  0  0  0  0  0  0  0  0  0
  141.8317  155.8449  135.5375 H   0  0  0  0  0  0  0  0  0  0  0  0
  144.5733  155.2764  134.9787 H   0  0  0  0  0  0  0  0  0  0  0  0
  146.6387  156.2269  133.9067 H   0  0  0  0  0  0  0  0  0  0  0  0
  148.4374  157.1756  133.2840 H   0  0  0  0  0  0  0  0  0  0  0  0
  150.2133  158.5581  131.9681 H   0  0  0  0  0  0  0  0  0  0  0  0
  144.4506  159.8739  132.9371 H   0  0  0  0  0  0  0  0  0  0  0  0
  1  2  1  0
  2  3  2  0
  2  4  1  0
  4  5  2  0
  5  6  1  0
  6  7  2  0
  7  8  1  0
  8  9  2  0
  9 10  1  0
 10 11  2  0
 11 12  1  0
 12 13  2  0
 13 14  1  0
 13 15  1  0
  9 16  1  0
 16 17  2  0
 17 18  1  0
 18 19  1  0
 19 20  2  0
 19 21  1  0
 18  4  1  0
 17  6  1  0
 15 10  1  0
  1 22  1  0
  5 23  1  0
  7 24  1  0
  8 25  1  0
 11 26  1  0
 12 27  1  0
 16 28  1  0
M  CHG  2   1  -1  21  -1
M  END
>  <UniqueID>  (17) 
17

>  <SMILES>  (17) 
[NH-]C(=O)c1cc2ccc(-c3ccc(Br)s3)cc2n1C(=O)[O-]

>  <Energy>  (17) 
98.84031505923105

>  <Genealogy>  (17) 
[NH-]C(=O)c1cc2ccc(-c3ccc(Br)s3)cc2n1C(=O)[O-] (protonated)
[NH-]C(=O)c1cc2ccc(-c3ccc(Br)s3)cc2n1C(=O)[O-] (3D coordinates assigned)
[NH-]C(=O)c1cc2ccc(-c3ccc(Br)s3)cc2n1C(=O)[O-] (optimized conformer: 98.84031505923105 kcal/mol)

>  <smiles>  (17) 
NC(=O)c1cc2ccc(-c3ccc(Br)s3)cc2n1C(=O)O

>  <score_type>  (17) 
oracle

>  <origin>  (17) 
adg

>  <m_score__min__energy>  (17) 
-7.6900000000000004

>  <m_primary>  (17) 
energy

$$$$
17:0
     RDKit          3D

 46 50  0  0  0  0  0  0  0  0999 V2000
  141.8670  150.2170  139.3980 N   0  0  0  0  0  0  0  0  0  0  0  0
  141.0800  151.2770  139.9350 C   0  0  0  0  0  0  0  0  0  0  0  0
  140.2240  151.0210  140.8220 O   0  0  0  0  0  0  0  0  0  0  0  0
  141.2150  152.6590  139.4250 C   0  0  0  0  0  0  0  0  0  0  0  0
  141.2250  153.7800  140.2500 C   0  0  0  0  0  0  0  0  0  0  0  0
  141.2750  154.8580  139.3970 C   0  0  0  0  0  0  0  0  0  0  0  0
  141.3170  156.2160  139.6770 C   0  0  0  0  0  0  0  0  0  0  0  0
  141.3970  157.1150  138.6010 C   0  0  0  0  0  0  0  0  0  0  0  0
  141.4450  156.6520  137.2550 C   0  0  0  0  0  0  0  0  0  0  0  0
  141.5460  157.5840  136.0390 C   0  0  2  0  0  0  0  0  0  0  0  0
  140.4790  158.7120  135.9500 C   0  0  2  0  0  0  0  0  0  0  0  0
  139.1210  158.1940  135.4180 C   0  0  0  0  0  0  0  0  0  0  0  0
  139.3130  157.5390  134.0330 C   0  0  2  0  0  0  0  0  0  0  0  0
  140.3250  156.3740  134.1190 C   0  0  0  0  0  0  0  0  0  0  0  0
  141.6830  156.8920  134.6520 C   0  0  1  0  0  0  0  0  0  0  0  0
  142.2120  157.9480  133.6450 C   0  0  0  0  0  0  0  0  0  0  0  0
  141.2090  159.1380  133.5480 C   0  0  1  0  0  0  0  0  0  0  0  0
  141.6780  160.0990  132.6350 O   0  0  0  0  0  0  0  0  0  0  0  0
  139.8490  158.5980  133.0450 C   0  0  0  0  0  0  0  0  0  0  0  0
  140.9990  159.7810  134.9520 C   0  0  0  0  0  0  0  0  0  0  0  0
  141.4010  155.2500  137.0240 C   0  0  0  0  0  0  0  0  0  0  0  0
  141.3010  154.3810  138.1160 C   0  0  0  0  0  0  0  0  0  0  0  0
  141.2670  153.0290  138.1130 N   0  0  0  0  0  0  0  0  0  0  0  0
  141.3590  152.1780  136.9600 C   0  0  0  0  0  0  0  0  0  0  0  0
  142.1050  152.4920  135.9950 O   0  0  0  0  0  0  0  0  0  0  0  0
  140.6070  151.0120  136.8870 O   0  0  0  0  0  0  0  0  0  0  0  0
  141.8150  149.9690  138.3860 H   0  0  0  0  0  0  0  0  0  0  0  0
  141.1986  153.7997  141.3495 H   0  0  0  0  0  0  0  0  0  0  0  0
  141.2884  156.5793  140.7149 H   0  0  0  0  0  0  0  0  0  0  0  0
  141.4231  158.1963  138.8014 H   0  0  0  0  0  0  0  0  0  0  0  0
  142.5117  158.0589  136.2668 H   0  0  0  0  0  0  0  0  0  0  0  0
  140.3227  159.1159  136.9612 H   0  0  0  0  0  0  0  0  0  0  0  0
  138.7143  157.4507  136.1195 H   0  0  0  0  0  0  0  0  0  0  0  0
  138.4231  159.0391  135.3247 H   0  0  0  0  0  0  0  0  0  0  0  0
  138.3452  157.1462  133.6879 H   0  0  0  0  0  0  0  0  0  0  0  0
  139.9362  155.6030  134.8004 H   0  0  0  0  0  0  0  0  0  0  0  0
  140.4697  155.9461  133.1160 H   0  0  0  0  0  0  0  0  0  0  0  0
  142.3614  156.0332  134.7625 H   0  0  0  0  0  0  0  0  0  0  0  0
  143.1886  158.3211  133.9871 H   0  0  0  0  0  0  0  0  0  0  0  0
  142.3182  157.4822  132.6542 H   0  0  0  0  0  0  0  0  0  0  0  0
  142.0700  159.6150  131.8620 H   0  0  0  0  0  0  0  0  0  0  0  0
  139.1303  159.4275  132.9724 H   0  0  0  0  0  0  0  0  0  0  0  0
  139.9829  158.1382  132.0547 H   0  0  0  0  0  0  0  0  0  0  0  0
  141.9557  160.1844  135.3153 H   0  0  0  0  0  0  0  0  0  0  0  0
  140.2600  160.5919  134.8722 H   0  0  0  0  0  0  0  0  0  0  0  0
  141.4450  154.8531  135.9990 H   0  0  0  0  0  0  0  0  0  0  0  0
  1  2  1  0
  2  3  2  0
  2  4  1  0
  4  5  2  0
  5  6  1  0
  6  7  2  0
  7  8  1  0
  8  9  2  0
  9 10  1  0
 10 11  1  0
 11 12  1  0
 12 13  1  0
 13 14  1  0
 14 15  1  0
 15 16  1  0
 16 17  1  0
 17 18  1  6
 17 19  1  0
 17 20  1  0
  9 21  1  0
 21 22  2  0
 22 23  1  0
 23 24  1  0
 24 25  2  0
 24 26  1  0
 23  4  1  0
 22  6  1  0
 15 10  1  0
 20 11  1  0
 19 13  1  0
  1 27  1  0
  5 28  1  0
  7 29  1  0
  8 30  1  0
 10 31  1  1
 11 32  1  1
 12 33  1  0
 12 34  1  0
 13 35  1  6
 14 36  1  0
 14 37  1  0
 15 38  1  1
 16 39  1  0
 16 40  1  0
 18 41  1  0
 19 42  1  0
 19 43  1  0
 20 44  1  0
 20 45  1  0
 21 46  1  0
M  CHG  2   1  -1  26  -1
M  END
>  <UniqueID>  (18) 
18

>  <SMILES>  (18) 
[NH-]C(=O)c1cc2ccc(C3[C@@H]4CC5C[C@H]3CC(O)(C5)C4)cc2n1C(=O)[O-]

>  <Energy>  (18) 
101.08278054379609

>  <Genealogy>  (18) 
[NH-]C(=O)c1cc2ccc(C3C4CC5CC3CC(O)(C5)C4)cc2n1C(=O)[O-] (protonated)
[NH-]C(=O)c1cc2ccc(C3[C@@H]4CC5C[C@H]3CC(O)(C5)C4)cc2n1C(=O)[O-] (chirality)
[NH-]C(=O)c1cc2ccc(C3[C@@H]4CC5C[C@H]3CC(O)(C5)C4)cc2n1C(=O)[O-] (3D coordinates assigned)
[NH-]C(=O)c1cc2ccc(C3[C@@H]4CC5C[C@H]3CC(O)(C5)C4)cc2n1C(=O)[O-] (nonaromatic ring conformer: 101.08278054379609 kcal/mol)

>  <smiles>  (18) 
NC(=O)c1cc2ccc(C3C4CC5CC3CC(O)(C5)C4)cc2n1C(=O)O

>  <score_type>  (18) 
oracle

>  <origin>  (18) 
adg

>  <m_score__min__energy>  (18) 
-9.0999999999999996

>  <m_primary>  (18) 
energy

$$$$
18:0
     RDKit          3D

 26 27  0  0  0  0  0  0  0  0999 V2000
  145.0640  162.8860  134.1910 C   0  0  0  0  0  0  0  0  0  0  0  0
  144.8700  161.4130  133.9810 C   0  0  0  0  0  0  0  0  0  0  0  0
  143.5770  160.8450  134.0920 C   0  0  0  0  0  0  0  0  0  0  0  0
  143.3870  159.4640  133.9200 C   0  0  0  0  0  0  0  0  0  0  0  0
  144.5060  158.6770  133.6630 C   0  0  0  0  0  0  0  0  0  0  0  0
  144.6010  157.3250  133.4310 C   0  0  0  0  0  0  0  0  0  0  0  0
  145.9560  157.0810  133.2280 C   0  0  0  0  0  0  0  0  0  0  0  0
  146.5130  155.7310  133.0110 C   0  0  0  0  0  0  0  0  0  0  0  0
  147.3670  155.4520  131.9010 N   0  0  0  0  0  0  0  0  0  0  0  0
  146.2760  154.8230  133.8520 O   0  0  0  0  0  0  0  0  0  0  0  0
  146.6740  158.2370  133.3160 N   0  0  0  0  0  0  0  0  0  0  0  0
  148.0750  158.4190  133.0500 C   0  0  0  0  0  0  0  0  0  0  0  0
  148.6060  158.1230  131.7610 N   0  0  0  0  0  0  0  0  0  0  0  0
  148.8410  158.8540  133.9510 O   0  0  0  0  0  0  0  0  0  0  0  0
  145.7700  159.2060  133.5870 C   0  0  0  0  0  0  0  0  0  0  0  0
  145.9850  160.5830  133.7330 C   0  0  0  0  0  0  0  0  0  0  0  0
  145.0924  163.1021  135.2692 H   0  0  0  0  0  0  0  0  0  0  0  0
  146.0113  163.2006  133.7289 H   0  0  0  0  0  0  0  0  0  0  0  0
  144.2304  163.4352  133.7289 H   0  0  0  0  0  0  0  0  0  0  0  0
  142.7148  161.4907  134.3147 H   0  0  0  0  0  0  0  0  0  0  0  0
  142.3838  159.0177  133.9864 H   0  0  0  0  0  0  0  0  0  0  0  0
  143.7807  156.5924  133.4103 H   0  0  0  0  0  0  0  0  0  0  0  0
  147.7230  154.4840  131.7430 H   0  0  0  0  0  0  0  0  0  0  0  0
  147.7150  156.2180  131.2830 H   0  0  0  0  0  0  0  0  0  0  0  0
  148.8450  157.1440  131.4910 H   0  0  0  0  0  0  0  0  0  0  0  0
  146.9972  161.0067  133.6563 H   0  0  0  0  0  0  0  0  0  0  0  0
  1  2  1  0
  2  3  2  0
  3  4  1  0
  4  5  2  0
  5  6  1  0
  6  7  2  0
  7  8  1  0
  8  9  1  0
  8 10  2  0
  7 11  1  0
 11 12  1  0
 12 13  1  0
 12 14  2  0
 11 15  1  0
 15 16  2  0
 16  2  1  0
 15  5  1  0
  1 17  1  0
  1 18  1  0
  1 19  1  0
  3 20  1  0
  4 21  1  0
  6 22  1  0
  9 23  1  0
  9 24  1  0
 13 25  1  0
 16 26  1  0
M  CHG  1  13  -1
M  END
>  <UniqueID>  (19) 
19

>  <SMILES>  (19) 
Cc1ccc2cc(C(N)=O)n(C([NH-])=O)c2c1

>  <Energy>  (19) 
65.32981536968944

>  <Genealogy>  (19) 
Cc1ccc2cc(C(N)=O)n(C([NH-])=O)c2c1 (protonated)
Cc1ccc2cc(C(N)=O)n(C([NH-])=O)c2c1 (3D coordinates assigned)
Cc1ccc2cc(C(N)=O)n(C([NH-])=O)c2c1 (optimized conformer: 65.32981536968944 kcal/mol)

>  <smiles>  (19) 
Cc1ccc2cc(C(N)=O)n(C(N)=O)c2c1

>  <score_type>  (19) 
oracle

>  <origin>  (19) 
adg

>  <m_score__min__energy>  (19) 
-6.1200000000000001

>  <m_primary>  (19) 
energy

$$$$
19:0
     RDKit          3D

 44 46  0  0  0  0  0  0  0  0999 V2000
  141.0130  159.4840  136.4510 C   0  0  0  0  0  0  0  0  0  0  0  0
  140.4400  158.1220  135.9880 C   0  0  0  0  0  0  0  0  0  0  0  0
  140.7920  157.0300  137.0250 C   0  0  0  0  0  0  0  0  0  0  0  0
  139.0340  158.2430  135.9390 O   0  0  0  0  0  0  0  0  0  0  0  0
  140.9070  157.6930  134.5430 C   0  0  1  0  0  0  0  0  0  0  0  0
  140.1170  158.3690  133.4290 C   0  0  0  0  0  0  0  0  0  0  0  0
  140.2700  159.7520  133.2070 C   0  0  0  0  0  0  0  0  0  0  0  0
  139.5750  160.3890  132.1750 C   0  0  0  0  0  0  0  0  0  0  0  0
  138.7250  159.6560  131.3450 C   0  0  0  0  0  0  0  0  0  0  0  0
  137.8550  160.4580  130.0490 Cl  0  0  0  0  0  0  0  0  0  0  0  0
  138.5750  158.2810  131.5410 C   0  0  0  0  0  0  0  0  0  0  0  0
  139.2680  157.6390  132.5710 C   0  0  0  0  0  0  0  0  0  0  0  0
  142.4120  157.6640  134.2420 C   0  0  0  0  0  0  0  0  0  0  0  0
  143.0350  156.4030  134.0160 C   0  0  0  0  0  0  0  0  0  0  0  0
  144.4030  156.3090  133.7150 C   0  0  0  0  0  0  0  0  0  0  0  0
  145.1310  157.4870  133.6190 C   0  0  0  0  0  0  0  0  0  0  0  0
  146.4680  157.6820  133.3600 C   0  0  0  0  0  0  0  0  0  0  0  0
  146.6510  159.0620  133.3820 C   0  0  0  0  0  0  0  0  0  0  0  0
  147.9360  159.7170  133.0620 C   0  0  0  0  0  0  0  0  0  0  0  0
  147.9950  160.8120  132.1540 N   0  0  0  0  0  0  0  0  0  0  0  0
  149.0040  159.2700  133.5600 O   0  0  0  0  0  0  0  0  0  0  0  0
  145.4750  159.6960  133.6520 N   0  0  0  0  0  0  0  0  0  0  0  0
  145.2610  161.1020  133.8520 C   0  0  0  0  0  0  0  0  0  0  0  0
  146.2310  161.8630  134.1100 O   0  0  0  0  0  0  0  0  0  0  0  0
  143.9850  161.6410  133.7370 O   0  0  0  0  0  0  0  0  0  0  0  0
  144.5530  158.7150  133.7930 C   0  0  0  0  0  0  0  0  0  0  0  0
  143.1970  158.8380  134.1140 C   0  0  0  0  0  0  0  0  0  0  0  0
  141.0284  159.5207  137.5503 H   0  0  0  0  0  0  0  0  0  0  0  0
  142.0367  159.6011  136.0658 H   0  0  0  0  0  0  0  0  0  0  0  0
  140.3809  160.2977  136.0658 H   0  0  0  0  0  0  0  0  0  0  0  0
  140.6621  157.4330  138.0403 H   0  0  0  0  0  0  0  0  0  0  0  0
  140.1273  156.1646  136.8862 H   0  0  0  0  0  0  0  0  0  0  0  0
  141.8370  156.7157  136.8862 H   0  0  0  0  0  0  0  0  0  0  0  0
  138.7400  158.8570  136.6630 H   0  0  0  0  0  0  0  0  0  0  0  0
  140.6520  156.6231  134.5605 H   0  0  0  0  0  0  0  0  0  0  0  0
  140.9429  160.3360  133.8521 H   0  0  0  0  0  0  0  0  0  0  0  0
  139.6981  161.4705  132.0165 H   0  0  0  0  0  0  0  0  0  0  0  0
  137.9099  157.7023  130.8832 H   0  0  0  0  0  0  0  0  0  0  0  0
  139.1503  156.5547  132.7139 H   0  0  0  0  0  0  0  0  0  0  0  0
  142.4323  155.4849  134.0786 H   0  0  0  0  0  0  0  0  0  0  0  0
  144.8834  155.3317  133.5599 H   0  0  0  0  0  0  0  0  0  0  0  0
  147.2306  156.9112  133.1748 H   0  0  0  0  0  0  0  0  0  0  0  0
  147.5900  161.7410  132.4050 H   0  0  0  0  0  0  0  0  0  0  0  0
  142.7466  159.8302  134.2648 H   0  0  0  0  0  0  0  0  0  0  0  0
  1  2  1  0
  2  3  1  0
  2  4  1  0
  2  5  1  0
  5  6  1  0
  6  7  2  0
  7  8  1  0
  8  9  2  0
  9 10  1  0
  9 11  1  0
 11 12  2  0
  5 13  1  0
 13 14  2  0
 14 15  1  0
 15 16  2  0
 16 17  1  0
 17 18  2  0
 18 19  1  0
 19 20  1  0
 19 21  2  0
 18 22  1  0
 22 23  1  0
 23 24  2  0
 23 25  1  0
 22 26  1  0
 26 27  2  0
 12  6  1  0
 27 13  1  0
 26 16  1  0
  1 28  1  0
  1 29  1  0
  1 30  1  0
  3 31  1  0
  3 32  1  0
  3 33  1  0
  4 34  1  0
  5 35  1  1
  7 36  1  0
  8 37  1  0
 11 38  1  0
 12 39  1  0
 14 40  1  0
 15 41  1  0
 17 42  1  0
 20 43  1  0
 27 44  1  0
M  CHG  2  20  -1  25  -1
M  END
>  <UniqueID>  (20) 
20

>  <SMILES>  (20) 
CC(C)(O)[C@@H](c1ccc(Cl)cc1)c1ccc2cc(C([NH-])=O)n(C(=O)[O-])c2c1

>  <Energy>  (20) 
95.86215011244876

>  <Genealogy>  (20) 
CC(C)(O)C(c1ccc(Cl)cc1)c1ccc2cc(C([NH-])=O)n(C(=O)[O-])c2c1 (protonated)
CC(C)(O)[C@@H](c1ccc(Cl)cc1)c1ccc2cc(C([NH-])=O)n(C(=O)[O-])c2c1 (chirality)
CC(C)(O)[C@@H](c1ccc(Cl)cc1)c1ccc2cc(C([NH-])=O)n(C(=O)[O-])c2c1 (3D coordinates assigned)
CC(C)(O)[C@@H](c1ccc(Cl)cc1)c1ccc2cc(C([NH-])=O)n(C(=O)[O-])c2c1 (optimized conformer: 95.86215011244876 kcal/mol)

>  <smiles>  (20) 
CC(C)(O)C(c1ccc(Cl)cc1)c1ccc2cc(C(N)=O)n(C(=O)O)c2c1

>  <score_type>  (20) 
oracle

>  <origin>  (20) 
adg

>  <m_score__min__energy>  (20) 
-9.4199999999999999

>  <m_primary>  (20) 
energy

$$$$
20:0
     RDKit          3D

 32 34  0  0  0  0  0  0  0  0999 V2000
  138.5450  157.0600  133.4850 N   0  0  0  0  0  0  0  0  0  0  0  0
  139.2140  157.8650  134.4570 C   0  0  0  0  0  0  0  0  0  0  0  0
  138.5860  158.2390  135.4840 O   0  0  0  0  0  0  0  0  0  0  0  0
  140.6020  158.3210  134.2490 C   0  0  0  0  0  0  0  0  0  0  0  0
  141.0060  159.6420  134.4200 C   0  0  0  0  0  0  0  0  0  0  0  0
  142.3350  159.6620  134.0670 C   0  0  0  0  0  0  0  0  0  0  0  0
  143.2410  160.7170  134.0640 C   0  0  0  0  0  0  0  0  0  0  0  0
  144.5670  160.4490  133.6890 C   0  0  0  0  0  0  0  0  0  0  0  0
  144.9690  159.1330  133.3340 C   0  0  0  0  0  0  0  0  0  0  0  0
  146.3770  158.8570  132.9510 C   0  0  0  0  0  0  0  0  0  0  0  0
  146.9750  157.6230  133.2680 C   0  0  0  0  0  0  0  0  0  0  0  0
  148.3010  157.3650  132.9070 C   0  0  0  0  0  0  0  0  0  0  0  0
  149.0450  158.3340  132.2290 C   0  0  0  0  0  0  0  0  0  0  0  0
  150.3300  158.0780  131.8820 F   0  0  0  0  0  0  0  0  0  0  0  0
  148.4630  159.5640  131.9090 C   0  0  0  0  0  0  0  0  0  0  0  0
  149.1850  160.5070  131.2550 F   0  0  0  0  0  0  0  0  0  0  0  0
  147.1360  159.8260  132.2670 C   0  0  0  0  0  0  0  0  0  0  0  0
  144.0160  158.0860  133.3520 C   0  0  0  0  0  0  0  0  0  0  0  0
  142.6970  158.3890  133.7100 C   0  0  0  0  0  0  0  0  0  0  0  0
  141.6400  157.5500  133.8200 N   0  0  0  0  0  0  0  0  0  0  0  0
  141.6500  156.1230  133.6450 C   0  0  0  0  0  0  0  0  0  0  0  0
  142.5990  155.4300  134.0950 O   0  0  0  0  0  0  0  0  0  0  0  0
  140.6050  155.4920  132.9810 O   0  0  0  0  0  0  0  0  0  0  0  0
  137.5770  156.7160  133.6660 H   0  0  0  0  0  0  0  0  0  0  0  0
  138.9780  156.8710  132.5540 H   0  0  0  0  0  0  0  0  0  0  0  0
  140.3935  160.4885  134.7638 H   0  0  0  0  0  0  0  0  0  0  0  0
  142.9275  161.7326  134.3474 H   0  0  0  0  0  0  0  0  0  0  0  0
  145.3028  161.2665  133.6697 H   0  0  0  0  0  0  0  0  0  0  0  0
  146.3954  156.8565  133.8033 H   0  0  0  0  0  0  0  0  0  0  0  0
  148.7594  156.3969  133.1573 H   0  0  0  0  0  0  0  0  0  0  0  0
  146.6827  160.7954  132.0124 H   0  0  0  0  0  0  0  0  0  0  0  0
  144.3056  157.0575  133.0905 H   0  0  0  0  0  0  0  0  0  0  0  0
  1  2  1  0
  2  3  2  0
  2  4  1  0
  4  5  2  0
  5  6  1  0
  6  7  2  0
  7  8  1  0
  8  9  2  0
  9 10  1  0
 10 11  2  0
 11 12  1  0
 12 13  2  0
 13 14  1  0
 13 15  1  0
 15 16  1  0
 15 17  2  0
  9 18  1  0
 18 19  2  0
 19 20  1  0
 20 21  1  0
 21 22  2  0
 21 23  1  0
 20  4  1  0
 19  6  1  0
 17 10  1  0
  1 24  1  0
  1 25  1  0
  5 26  1  0
  7 27  1  0
  8 28  1  0
 11 29  1  0
 12 30  1  0
 17 31  1  0
 18 32  1  0
M  CHG  1  23  -1
M  END
>  <UniqueID>  (21) 
21

>  <SMILES>  (21) 
NC(=O)c1cc2ccc(-c3ccc(F)c(F)c3)cc2n1C(=O)[O-]

>  <Energy>  (21) 
80.41737269539034

>  <Genealogy>  (21) 
NC(=O)c1cc2ccc(-c3ccc(F)c(F)c3)cc2n1C(=O)[O-] (protonated)
NC(=O)c1cc2ccc(-c3ccc(F)c(F)c3)cc2n1C(=O)[O-] (3D coordinates assigned)
NC(=O)c1cc2ccc(-c3ccc(F)c(F)c3)cc2n1C(=O)[O-] (optimized conformer: 80.41737269539034 kcal/mol)

>  <smiles>  (21) 
NC(=O)c1cc2ccc(-c3ccc(F)c(F)c3)cc2n1C(=O)O

>  <score_type>  (21) 
oracle

>  <origin>  (21) 
adg

>  <m_score__min__energy>  (21) 
-7.2800000000000002

>  <m_primary>  (21) 
energy

$$$$
21:0
     RDKit          3D

 34 35  0  0  0  0  0  0  0  0999 V2000
  149.6250  151.4170  133.5930 C   0  0  0  0  0  0  0  0  0  0  0  0
  148.9610  152.0410  132.3710 C   0  0  0  0  0  0  0  0  0  0  0  0
  148.2580  153.2270  132.7310 O   0  0  0  0  0  0  0  0  0  0  0  0
  148.8570  154.4910  132.7930 C   0  0  0  0  0  0  0  0  0  0  0  0
  149.9940  154.6840  132.2840 O   0  0  0  0  0  0  0  0  0  0  0  0
  148.1630  155.5770  133.4260 N   0  0  0  0  0  0  0  0  0  0  0  0
  147.1650  155.5010  134.3520 C   0  0  0  0  0  0  0  0  0  0  0  0
  146.7080  154.2740  135.0370 C   0  0  0  0  0  0  0  0  0  0  0  0
  145.9390  153.2930  134.3450 N   0  0  0  0  0  0  0  0  0  0  0  0
  147.0430  154.0650  136.2330 O   0  0  0  0  0  0  0  0  0  0  0  0
  146.6690  156.7700  134.6410 C   0  0  0  0  0  0  0  0  0  0  0  0
  147.4040  157.6360  133.8640 C   0  0  0  0  0  0  0  0  0  0  0  0
  147.3190  159.0190  133.7380 C   0  0  0  0  0  0  0  0  0  0  0  0
  148.1800  159.6520  132.8270 C   0  0  0  0  0  0  0  0  0  0  0  0
  149.1070  158.8970  132.0650 C   0  0  0  0  0  0  0  0  0  0  0  0
  149.9910  159.5810  131.0580 C   0  0  0  0  0  0  0  0  0  0  0  0
  149.2560  160.7400  130.3940 C   0  0  0  0  0  0  0  0  0  0  0  0
  149.1570  157.4930  132.2120 C   0  0  0  0  0  0  0  0  0  0  0  0
  148.2980  156.8910  133.1390 C   0  0  0  0  0  0  0  0  0  0  0  0
  149.1789  151.8363  134.5069 H   0  0  0  0  0  0  0  0  0  0  0  0
  149.4726  150.3277  133.5770 H   0  0  0  0  0  0  0  0  0  0  0  0
  150.7027  151.6367  133.5770 H   0  0  0  0  0  0  0  0  0  0  0  0
  149.7331  152.2902  131.6282 H   0  0  0  0  0  0  0  0  0  0  0  0
  148.2454  151.3195  131.9499 H   0  0  0  0  0  0  0  0  0  0  0  0
  146.3990  152.5880  133.7280 H   0  0  0  0  0  0  0  0  0  0  0  0
  145.8608  157.0259  135.3420 H   0  0  0  0  0  0  0  0  0  0  0  0
  146.5991  159.5991  134.3340 H   0  0  0  0  0  0  0  0  0  0  0  0
  148.1348  160.7441  132.7034 H   0  0  0  0  0  0  0  0  0  0  0  0
  150.8871  159.9659  131.5668 H   0  0  0  0  0  0  0  0  0  0  0  0
  150.2745  158.8525  130.2841 H   0  0  0  0  0  0  0  0  0  0  0  0
  148.8373  161.4002  131.1679 H   0  0  0  0  0  0  0  0  0  0  0  0
  149.9587  161.3090  129.7675 H   0  0  0  0  0  0  0  0  0  0  0  0
  148.4417  160.3470  129.7675 H   0  0  0  0  0  0  0  0  0  0  0  0
  149.8535  156.8879  131.6131 H   0  0  0  0  0  0  0  0  0  0  0  0
  1  2  1  0
  2  3  1  0
  3  4  1  0
  4  5  2  0
  4  6  1  0
  6  7  1  0
  7  8  1  0
  8  9  1  0
  8 10  2  0
  7 11  2  0
 11 12  1  0
 12 13  2  0
 13 14  1  0
 14 15  2  0
 15 16  1  0
 16 17  1  0
 15 18  1  0
 18 19  2  0
 19  6  1  0
 19 12  1  0
  1 20  1  0
  1 21  1  0
  1 22  1  0
  2 23  1  0
  2 24  1  0
  9 25  1  0
 11 26  1  0
 13 27  1  0
 14 28  1  0
 16 29  1  0
 16 30  1  0
 17 31  1  0
 17 32  1  0
 17 33  1  0
 18 34  1  0
M  CHG  1   9  -1
M  END
>  <UniqueID>  (22) 
22

>  <SMILES>  (22) 
CCOC(=O)n1c(C([NH-])=O)cc2ccc(CC)cc21

>  <Energy>  (22) 
65.92462188403937

>  <Genealogy>  (22) 
CCOC(=O)n1c(C([NH-])=O)cc2ccc(CC)cc21 (protonated)
CCOC(=O)n1c(C([NH-])=O)cc2ccc(CC)cc21 (3D coordinates assigned)
CCOC(=O)n1c(C([NH-])=O)cc2ccc(CC)cc21 (optimized conformer: 65.92462188403937 kcal/mol)

>  <smiles>  (22) 
CCOC(=O)n1c(C(N)=O)cc2ccc(CC)cc21

>  <score_type>  (22) 
oracle

>  <origin>  (22) 
adg

>  <m_score__min__energy>  (22) 
-6.2000000000000002

>  <m_primary>  (22) 
energy

$$$$
22:0
     RDKit          3D

 45 47  0  0  0  0  0  0  0  0999 V2000
  140.9340  155.8970  133.1580 N   0  0  0  0  0  0  0  0  0  0  0  0
  141.1570  156.9520  134.0940 C   0  0  0  0  0  0  0  0  0  0  0  0
  140.3020  157.1710  134.9920 O   0  0  0  0  0  0  0  0  0  0  0  0
  142.3400  157.8300  133.9890 C   0  0  0  0  0  0  0  0  0  0  0  0
  142.3090  159.1940  134.2680 C   0  0  0  0  0  0  0  0  0  0  0  0
  143.5760  159.6500  133.9870 C   0  0  0  0  0  0  0  0  0  0  0  0
  144.1100  160.9300  134.0970 C   0  0  0  0  0  0  0  0  0  0  0  0
  145.4640  161.1100  133.7710 C   0  0  0  0  0  0  0  0  0  0  0  0
  146.2640  160.0150  133.3560 C   0  0  0  0  0  0  0  0  0  0  0  0
  147.7260  160.2310  133.0110 C   0  0  0  0  0  0  0  0  0  0  0  0
  147.8980  160.4770  131.4950 C   0  0  0  0  0  0  0  0  0  0  0  0
  149.3740  160.3930  131.0980 C   0  0  0  0  0  0  0  0  0  0  0  0
  149.9810  159.0050  131.3910 C   0  0  0  0  0  0  0  0  0  0  0  0
  149.1950  158.1920  132.4360 C   0  0  0  0  0  0  0  0  0  0  0  0
  148.6320  159.0860  133.5500 C   0  0  0  0  0  0  0  0  0  0  0  0
  145.6810  158.7280  133.2560 C   0  0  0  0  0  0  0  0  0  0  0  0
  144.3240  158.5810  133.5650 C   0  0  0  0  0  0  0  0  0  0  0  0
  143.5780  157.4530  133.5630 N   0  0  0  0  0  0  0  0  0  0  0  0
  144.0400  156.1210  133.2850 C   0  0  0  0  0  0  0  0  0  0  0  0
  143.6670  155.5340  132.2320 O   0  0  0  0  0  0  0  0  0  0  0  0
  144.8900  155.4750  134.1900 O   0  0  0  0  0  0  0  0  0  0  0  0
  146.0110  154.6830  133.8000 C   0  0  0  0  0  0  0  0  0  0  0  0
  147.2090  155.5650  133.4530 C   0  0  0  0  0  0  0  0  0  0  0  0
  148.3390  154.7780  133.3300 F   0  0  0  0  0  0  0  0  0  0  0  0
  146.9910  156.2270  132.2600 F   0  0  0  0  0  0  0  0  0  0  0  0
  147.4140  156.4940  134.4590 F   0  0  0  0  0  0  0  0  0  0  0  0
  140.1160  155.2600  133.2720 H   0  0  0  0  0  0  0  0  0  0  0  0
  141.5270  155.8010  132.3040 H   0  0  0  0  0  0  0  0  0  0  0  0
  141.4542  159.7812  134.6347 H   0  0  0  0  0  0  0  0  0  0  0  0
  143.4901  161.7757  134.4294 H   0  0  0  0  0  0  0  0  0  0  0  0
  145.9099  162.1133  133.8384 H   0  0  0  0  0  0  0  0  0  0  0  0
  148.0676  161.1407  133.5265 H   0  0  0  0  0  0  0  0  0  0  0  0
  147.3305  159.7162  130.9389 H   0  0  0  0  0  0  0  0  0  0  0  0
  147.5236  161.4831  131.2549 H   0  0  0  0  0  0  0  0  0  0  0  0
  149.4628  160.5977  130.0209 H   0  0  0  0  0  0  0  0  0  0  0  0
  149.9257  161.1344  131.6946 H   0  0  0  0  0  0  0  0  0  0  0  0
  150.0056  158.4319  130.4524 H   0  0  0  0  0  0  0  0  0  0  0  0
  150.9853  159.1753  131.8062 H   0  0  0  0  0  0  0  0  0  0  0  0
  148.3604  157.6803  131.9344 H   0  0  0  0  0  0  0  0  0  0  0  0
  149.8848  157.4684  132.8949 H   0  0  0  0  0  0  0  0  0  0  0  0
  148.0384  158.4618  134.2341 H   0  0  0  0  0  0  0  0  0  0  0  0
  149.4868  159.5548  134.0594 H   0  0  0  0  0  0  0  0  0  0  0  0
  146.2823  157.8621  132.9420 H   0  0  0  0  0  0  0  0  0  0  0  0
  146.2848  154.0139  134.6291 H   0  0  0  0  0  0  0  0  0  0  0  0
  145.7354  154.0993  132.9093 H   0  0  0  0  0  0  0  0  0  0  0  0
  1  2  1  0
  2  3  2  0
  2  4  1  0
  4  5  2  0
  5  6  1  0
  6  7  2  0
  7  8  1  0
  8  9  2  0
  9 10  1  0
 10 11  1  0
 11 12  1  0
 12 13  1  0
 13 14  1  0
 14 15  1  0
  9 16  1  0
 16 17  2  0
 17 18  1  0
 18 19  1  0
 19 20  2  0
 19 21  1  0
 21 22  1  0
 22 23  1  0
 23 24  1  0
 23 25  1  0
 23 26  1  0
 18  4  1  0
 17  6  1  0
 15 10  1  0
  1 27  1  0
  1 28  1  0
  5 29  1  0
  7 30  1  0
  8 31  1  0
 10 32  1  0
 11 33  1  0
 11 34  1  0
 12 35  1  0
 12 36  1  0
 13 37  1  0
 13 38  1  0
 14 39  1  0
 14 40  1  0
 15 41  1  0
 15 42  1  0
 16 43  1  0
 22 44  1  0
 22 45  1  0
M  END
>  <UniqueID>  (23) 
23

>  <SMILES>  (23) 
NC(=O)c1cc2ccc(C3CCCCC3)cc2n1C(=O)OCC(F)(F)F

>  <Energy>  (23) 
84.87657490233224

>  <Genealogy>  (23) 
NC(=O)c1cc2ccc(C3CCCCC3)cc2n1C(=O)OCC(F)(F)F (3D coordinates assigned)
NC(=O)c1cc2ccc(C3CCCCC3)cc2n1C(=O)OCC(F)(F)F (nonaromatic ring conformer: 84.87657490233224 kcal/mol)

>  <smiles>  (23) 
NC(=O)c1cc2ccc(C3CCCCC3)cc2n1C(=O)OCC(F)(F)F

>  <score_type>  (23) 
oracle

>  <origin>  (23) 
adg

>  <m_score__min__energy>  (23) 
-8.3000000000000007

>  <m_primary>  (23) 
energy

$$$$
23:0
     RDKit          3D

 68 71  0  0  0  0  0  0  0  0999 V2000
  137.2870  160.0970  130.4700 C   0  0  0  0  0  0  0  0  0  0  0  0
  138.7440  160.5510  130.4770 C   0  0  0  0  0  0  0  0  0  0  0  0
  139.6940  159.3520  130.6400 C   0  0  0  0  0  0  0  0  0  0  0  0
  140.0010  159.0360  132.0510 N   0  0  0  0  0  0  0  0  0  0  0  0
  138.8740  159.1840  132.9990 C   0  0  0  0  0  0  0  0  0  0  0  0
  138.1400  157.8640  133.3120 C   0  0  0  0  0  0  0  0  0  0  0  0
  139.0480  156.6250  133.3170 C   0  0  0  0  0  0  0  0  0  0  0  0
  140.5300  156.9990  133.4480 C   0  0  1  0  0  0  0  0  0  0  0  0
  141.3980  155.7230  133.5350 C   0  0  0  0  0  0  0  0  0  0  0  0
  142.0680  155.5290  134.9150 C   0  0  0  0  0  0  0  0  0  0  0  0
  142.3910  156.8540  135.6250 C   0  0  0  0  0  0  0  0  0  0  0  0
  143.3540  157.7000  134.8320 C   0  0  0  0  0  0  0  0  0  0  0  0
  143.0080  159.0260  134.4600 C   0  0  0  0  0  0  0  0  0  0  0  0
  143.9020  159.8200  133.7210 C   0  0  0  0  0  0  0  0  0  0  0  0
  145.1270  159.2630  133.3640 C   0  0  0  0  0  0  0  0  0  0  0  0
  146.1740  159.7970  132.6410 C   0  0  0  0  0  0  0  0  0  0  0  0
  147.1390  158.7890  132.5840 C   0  0  0  0  0  0  0  0  0  0  0  0
  148.4490  158.8980  131.8960 C   0  0  0  0  0  0  0  0  0  0  0  0
  149.6610  158.5090  132.5480 N   0  0  0  0  0  0  0  0  0  0  0  0
  148.5050  159.3440  130.7190 O   0  0  0  0  0  0  0  0  0  0  0  0
  146.6990  157.6840  133.2470 N   0  0  0  0  0  0  0  0  0  0  0  0
  147.3590  156.4190  133.3850 C   0  0  0  0  0  0  0  0  0  0  0  0
  148.5310  156.3890  133.8460 O   0  0  0  0  0  0  0  0  0  0  0  0
  146.6780  155.1930  133.0440 N   0  0  0  0  0  0  0  0  0  0  0  0
  147.1740  153.9260  133.5940 C   0  0  0  0  0  0  0  0  0  0  0  0
  146.6090  152.7300  132.8260 C   0  0  0  0  0  0  0  0  0  0  0  0
  145.2090  152.8440  132.6950 O   0  0  0  0  0  0  0  0  0  0  0  0
  144.9140  153.9230  131.8330 C   0  0  0  0  0  0  0  0  0  0  0  0
  145.3290  155.2610  132.4570 C   0  0  0  0  0  0  0  0  0  0  0  0
  145.4740  157.9860  133.7160 C   0  0  0  0  0  0  0  0  0  0  0  0
  144.6080  157.1710  134.4500 C   0  0  0  0  0  0  0  0  0  0  0  0
  140.9150  157.8850  132.2450 C   0  0  0  0  0  0  0  0  0  0  0  0
  136.9324  159.9865  131.5054 H   0  0  0  0  0  0  0  0  0  0  0  0
  136.6720  160.8461  129.9498 H   0  0  0  0  0  0  0  0  0  0  0  0
  137.2064  159.1311  129.9498 H   0  0  0  0  0  0  0  0  0  0  0  0
  138.9668  161.0601  129.5277 H   0  0  0  0  0  0  0  0  0  0  0  0
  138.8940  161.2350  131.3254 H   0  0  0  0  0  0  0  0  0  0  0  0
  139.2253  158.4702  130.1789 H   0  0  0  0  0  0  0  0  0  0  0  0
  140.6430  159.6200  130.1526 H   0  0  0  0  0  0  0  0  0  0  0  0
  139.2663  159.5935  133.9415 H   0  0  0  0  0  0  0  0  0  0  0  0
  138.1409  159.8500  132.5204 H   0  0  0  0  0  0  0  0  0  0  0  0
  137.6748  157.9549  134.3046 H   0  0  0  0  0  0  0  0  0  0  0  0
  137.4038  157.7133  132.5087 H   0  0  0  0  0  0  0  0  0  0  0  0
  138.7676  155.9826  134.1648 H   0  0  0  0  0  0  0  0  0  0  0  0
  138.9132  156.1012  132.3592 H   0  0  0  0  0  0  0  0  0  0  0  0
  140.7074  157.5657  134.3739 H   0  0  0  0  0  0  0  0  0  0  0  0
  140.7581  154.8515  133.3325 H   0  0  0  0  0  0  0  0  0  0  0  0
  142.2045  155.8278  132.7943 H   0  0  0  0  0  0  0  0  0  0  0  0
  141.3883  154.9467  135.5545 H   0  0  0  0  0  0  0  0  0  0  0  0
  143.0224  155.0095  134.7440 H   0  0  0  0  0  0  0  0  0  0  0  0
  141.4571  157.4176  135.7670 H   0  0  0  0  0  0  0  0  0  0  0  0
  142.8630  156.6160  136.5897 H   0  0  0  0  0  0  0  0  0  0  0  0
  142.0303  159.4360  134.7532 H   0  0  0  0  0  0  0  0  0  0  0  0
  143.6418  160.8494  133.4337 H   0  0  0  0  0  0  0  0  0  0  0  0
  146.2356  160.8038  132.2023 H   0  0  0  0  0  0  0  0  0  0  0  0
  149.6740  158.2060  133.5470 H   0  0  0  0  0  0  0  0  0  0  0  0
  150.5720  158.5800  132.0420 H   0  0  0  0  0  0  0  0  0  0  0  0
  148.2717  153.9104  133.5251 H   0  0  0  0  0  0  0  0  0  0  0  0
  146.8497  153.8510  134.6424 H   0  0  0  0  0  0  0  0  0  0  0  0
  147.0645  152.6943  131.8254 H   0  0  0  0  0  0  0  0  0  0  0  0
  146.8407  151.8090  133.3811 H   0  0  0  0  0  0  0  0  0  0  0  0
  145.4570  153.7848  130.8864 H   0  0  0  0  0  0  0  0  0  0  0  0
  143.8282  153.9422  131.6581 H   0  0  0  0  0  0  0  0  0  0  0  0
  145.3182  156.0367  131.6771 H   0  0  0  0  0  0  0  0  0  0  0  0
  144.6169  155.5002  133.2606 H   0  0  0  0  0  0  0  0  0  0  0  0
  144.8946  156.1448  134.7233 H   0  0  0  0  0  0  0  0  0  0  0  0
  141.9327  158.2700  132.4060 H   0  0  0  0  0  0  0  0  0  0  0  0
  140.8479  157.2588  131.3432 H   0  0  0  0  0  0  0  0  0  0  0  0
  1  2  1  0
  2  3  1  0
  3  4  1  0
  4  5  1  0
  5  6  1  0
  6  7  1  0
  7  8  1  0
  8  9  1  0
  9 10  1  0
 10 11  1  0
 11 12  1  0
 12 13  2  0
 13 14  1  0
 14 15  2  0
 15 16  1  0
 16 17  2  0
 17 18  1  0
 18 19  1  0
 18 20  2  0
 17 21  1  0
 21 22  1  0
 22 23  2  0
 22 24  1  0
 24 25  1  0
 25 26  1  0
 26 27  1  0
 27 28  1  0
 28 29  1  0
 21 30  1  0
 30 31  2  0
  8 32  1  0
 32  4  1  0
 31 12  1  0
 30 15  1  0
 29 24  1  0
  1 33  1  0
  1 34  1  0
  1 35  1  0
  2 36  1  0
  2 37  1  0
  3 38  1  0
  3 39  1  0
  5 40  1  0
  5 41  1  0
  6 42  1  0
  6 43  1  0
  7 44  1  0
  7 45  1  0
  8 46  1  1
  9 47  1  0
  9 48  1  0
 10 49  1  0
 10 50  1  0
 11 51  1  0
 11 52  1  0
 13 53  1  0
 14 54  1  0
 16 55  1  0
 19 56  1  0
 19 57  1  0
 25 58  1  0
 25 59  1  0
 26 60  1  0
 26 61  1  0
 28 62  1  0
 28 63  1  0
 29 64  1  0
 29 65  1  0
 31 66  1  0
 32 67  1  0
 32 68  1  0
M  END
>  <UniqueID>  (24) 
24

>  <SMILES>  (24) 
CCCN1CCC[C@@H](CCCc2ccc3cc(C(N)=O)n(C(=O)N4CCOCC4)c3c2)C1

>  <Energy>  (24) 
117.20558921118263

>  <Genealogy>  (24) 
CCCN1CCC[C@@H](CCCc2ccc3cc(C(N)=O)n(C(=O)N4CCOCC4)c3c2)C1 (chirality)
CCCN1CCC[C@@H](CCCc2ccc3cc(C(N)=O)n(C(=O)N4CCOCC4)c3c2)C1 (3D coordinates assigned)
CCCN1CCC[C@@H](CCCc2ccc3cc(C(N)=O)n(C(=O)N4CCOCC4)c3c2)C1 (nonaromatic ring conformer: 117.20558921118263 kcal/mol)

>  <smiles>  (24) 
CCCN1CCCC(CCCc2ccc3cc(C(N)=O)n(C(=O)N4CCOCC4)c3c2)C1

>  <score_type>  (24) 
oracle

>  <origin>  (24) 
adg

>  <m_score__min__energy>  (24) 
-9.8399999999999999

>  <m_primary>  (24) 
energy

$$$$
24:0
     RDKit          3D

 26 27  0  0  0  0  0  0  0  0999 V2000
  141.0150  160.0940  132.7800 N   0  0  0  0  0  0  0  0  0  0  0  0
  141.8770  160.1700  133.9110 C   0  0  0  0  0  0  0  0  0  0  0  0
  141.3950  160.4720  135.0360 O   0  0  0  0  0  0  0  0  0  0  0  0
  143.3320  159.9510  133.7730 C   0  0  0  0  0  0  0  0  0  0  0  0
  144.2830  160.9460  133.9900 C   0  0  0  0  0  0  0  0  0  0  0  0
  145.4920  160.3720  133.6660 C   0  0  0  0  0  0  0  0  0  0  0  0
  146.7770  160.9070  133.7030 C   0  0  0  0  0  0  0  0  0  0  0  0
  147.8480  160.0750  133.3350 C   0  0  0  0  0  0  0  0  0  0  0  0
  147.6170  158.7310  132.9440 C   0  0  0  0  0  0  0  0  0  0  0  0
  148.7650  157.8410  132.5650 C   0  0  0  0  0  0  0  0  0  0  0  0
  149.9430  158.5660  132.5860 F   0  0  0  0  0  0  0  0  0  0  0  0
  148.8570  156.7920  133.4610 F   0  0  0  0  0  0  0  0  0  0  0  0
  146.2990  158.2240  132.9220 C   0  0  0  0  0  0  0  0  0  0  0  0
  145.2520  159.0810  133.2800 C   0  0  0  0  0  0  0  0  0  0  0  0
  143.9310  158.8030  133.3450 N   0  0  0  0  0  0  0  0  0  0  0  0
  143.3200  157.5300  133.0910 C   0  0  0  0  0  0  0  0  0  0  0  0
  142.1710  157.4330  132.2500 N   0  0  0  0  0  0  0  0  0  0  0  0
  143.7760  156.4920  133.6420 O   0  0  0  0  0  0  0  0  0  0  0  0
  141.3630  159.7380  131.8620 H   0  0  0  0  0  0  0  0  0  0  0  0
  144.1057  161.9720  134.3448 H   0  0  0  0  0  0  0  0  0  0  0  0
  146.9485  161.9490  134.0109 H   0  0  0  0  0  0  0  0  0  0  0  0
  148.8748  160.4694  133.3503 H   0  0  0  0  0  0  0  0  0  0  0  0
  148.5955  157.4450  131.5528 H   0  0  0  0  0  0  0  0  0  0  0  0
  146.1004  157.1820  132.6309 H   0  0  0  0  0  0  0  0  0  0  0  0
  141.7340  158.2920  131.8480 H   0  0  0  0  0  0  0  0  0  0  0  0
  141.7350  156.5040  132.0570 H   0  0  0  0  0  0  0  0  0  0  0  0
  1  2  1  0
  2  3  2  0
  2  4  1  0
  4  5  2  0
  5  6  1  0
  6  7  2  0
  7  8  1  0
  8  9  2  0
  9 10  1  0
 10 11  1  0
 10 12  1  0
  9 13  1  0
 13 14  2  0
 14 15  1  0
 15 16  1  0
 16 17  1  0
 16 18  2  0
 15  4  1  0
 14  6  1  0
  1 19  1  0
  5 20  1  0
  7 21  1  0
  8 22  1  0
 10 23  1  0
 13 24  1  0
 17 25  1  0
 17 26  1  0
M  CHG  1   1  -1
M  END
>  <UniqueID>  (25) 
25

>  <SMILES>  (25) 
[NH-]C(=O)c1cc2ccc(C(F)F)cc2n1C(N)=O

>  <Energy>  (25) 
64.72891455506931

>  <Genealogy>  (25) 
[NH-]C(=O)c1cc2ccc(C(F)F)cc2n1C(N)=O (protonated)
[NH-]C(=O)c1cc2ccc(C(F)F)cc2n1C(N)=O (3D coordinates assigned)
[NH-]C(=O)c1cc2ccc(C(F)F)cc2n1C(N)=O (optimized conformer: 64.72891455506931 kcal/mol)

>  <smiles>  (25) 
NC(=O)c1cc2ccc(C(F)F)cc2n1C(N)=O

>  <score_type>  (25) 
oracle

>  <origin>  (25) 
adg

>  <m_score__min__energy>  (25) 
-5.79

>  <m_primary>  (25) 
energy

$$$$
25:0
     RDKit          3D

 31 32  0  0  0  0  0  0  0  0999 V2000
  141.9030  157.1330  139.8640 C   0  0  0  0  0  0  0  0  0  0  0  0
  141.6580  156.3040  138.5980 C   0  0  0  0  0  0  0  0  0  0  0  0
  140.5750  155.2430  138.8340 C   0  0  0  0  0  0  0  0  0  0  0  0
  141.3020  157.1950  137.4230 C   0  0  0  0  0  0  0  0  0  0  0  0
  141.3200  158.6050  137.5770 C   0  0  0  0  0  0  0  0  0  0  0  0
  140.9790  159.4500  136.5090 C   0  0  0  0  0  0  0  0  0  0  0  0
  140.6350  158.8630  135.2950 C   0  0  0  0  0  0  0  0  0  0  0  0
  140.2320  159.4460  134.1160 C   0  0  0  0  0  0  0  0  0  0  0  0
  140.0010  158.3860  133.2440 C   0  0  0  0  0  0  0  0  0  0  0  0
  139.6050  158.5700  131.8340 C   0  0  0  0  0  0  0  0  0  0  0  0
  138.4800  157.8790  131.2860 N   0  0  0  0  0  0  0  0  0  0  0  0
  140.3020  159.3040  131.0850 O   0  0  0  0  0  0  0  0  0  0  0  0
  140.2400  157.1940  133.8590 N   0  0  0  0  0  0  0  0  0  0  0  0
  140.0090  155.8760  133.3320 C   0  0  0  0  0  0  0  0  0  0  0  0
  140.9680  155.0740  133.1800 O   0  0  0  0  0  0  0  0  0  0  0  0
  138.7270  155.4720  132.9800 O   0  0  0  0  0  0  0  0  0  0  0  0
  140.6300  157.5030  135.1170 C   0  0  0  0  0  0  0  0  0  0  0  0
  140.9430  156.6370  136.1720 C   0  0  0  0  0  0  0  0  0  0  0  0
  141.7189  156.5099  140.7516 H   0  0  0  0  0  0  0  0  0  0  0  0
  142.9443  157.4874  139.8744 H   0  0  0  0  0  0  0  0  0  0  0  0
  141.2217  157.9965  139.8744 H   0  0  0  0  0  0  0  0  0  0  0  0
  142.5938  155.7806  138.3522 H   0  0  0  0  0  0  0  0  0  0  0  0
  140.4301  155.1011  139.9151 H   0  0  0  0  0  0  0  0  0  0  0  0
  139.6307  155.5752  138.3780 H   0  0  0  0  0  0  0  0  0  0  0  0
  140.8878  154.2921  138.3780 H   0  0  0  0  0  0  0  0  0  0  0  0
  141.6048  159.0419  138.5455 H   0  0  0  0  0  0  0  0  0  0  0  0
  140.9836  160.5435  136.6282 H   0  0  0  0  0  0  0  0  0  0  0  0
  140.1169  160.5198  133.9071 H   0  0  0  0  0  0  0  0  0  0  0  0
  137.9870  157.1370  131.8290 H   0  0  0  0  0  0  0  0  0  0  0  0
  138.1920  158.0510  130.2970 H   0  0  0  0  0  0  0  0  0  0  0  0
  140.9107  155.5464  136.0319 H   0  0  0  0  0  0  0  0  0  0  0  0
  1  2  1  0
  2  3  1  0
  2  4  1  0
  4  5  2  0
  5  6  1  0
  6  7  2  0
  7  8  1  0
  8  9  2  0
  9 10  1  0
 10 11  1  0
 10 12  2  0
  9 13  1  0
 13 14  1  0
 14 15  2  0
 14 16  1  0
 13 17  1  0
 17 18  2  0
 18  4  1  0
 17  7  1  0
  1 19  1  0
  1 20  1  0
  1 21  1  0
  2 22  1  0
  3 23  1  0
  3 24  1  0
  3 25  1  0
  5 26  1  0
  6 27  1  0
  8 28  1  0
 11 29  1  0
 11 30  1  0
 18 31  1  0
M  CHG  1  16  -1
M  END
>  <UniqueID>  (26) 
26

>  <SMILES>  (26) 
CC(C)c1ccc2cc(C(N)=O)n(C(=O)[O-])c2c1

>  <Energy>  (26) 
67.71769872779863

>  <Genealogy>  (26) 
CC(C)c1ccc2cc(C(N)=O)n(C(=O)[O-])c2c1 (protonated)
CC(C)c1ccc2cc(C(N)=O)n(C(=O)[O-])c2c1 (3D coordinates assigned)
CC(C)c1ccc2cc(C(N)=O)n(C(=O)[O-])c2c1 (optimized conformer: 67.71769872779863 kcal/mol)

>  <smiles>  (26) 
CC(C)c1ccc2cc(C(N)=O)n(C(=O)O)c2c1

>  <score_type>  (26) 
oracle

>  <origin>  (26) 
adg

>  <m_score__min__energy>  (26) 
-6.3899999999999997

>  <m_primary>  (26) 
energy

$$$$
26:0
     RDKit          3D

 47 49  0  0  0  0  0  0  0  0999 V2000
  144.4140  154.6470  132.8360 C   0  0  0  0  0  0  0  0  0  0  0  0
  145.0620  154.5030  134.2080 C   0  0  0  0  0  0  0  0  0  0  0  0
  145.8720  155.6380  134.5020 O   0  0  0  0  0  0  0  0  0  0  0  0
  146.4440  156.4550  133.5200 C   0  0  0  0  0  0  0  0  0  0  0  0
  147.2150  155.9620  132.6510 O   0  0  0  0  0  0  0  0  0  0  0  0
  146.1260  157.8550  133.4840 N   0  0  0  0  0  0  0  0  0  0  0  0
  146.9460  158.8930  133.1550 C   0  0  0  0  0  0  0  0  0  0  0  0
  148.3980  158.8030  132.8870 C   0  0  0  0  0  0  0  0  0  0  0  0
  148.8630  158.1390  131.7150 N   0  0  0  0  0  0  0  0  0  0  0  0
  149.2320  159.3380  133.6650 O   0  0  0  0  0  0  0  0  0  0  0  0
  146.2450  160.0970  133.1840 C   0  0  0  0  0  0  0  0  0  0  0  0
  144.9630  159.7640  133.5510 C   0  0  0  0  0  0  0  0  0  0  0  0
  143.8440  160.5710  133.7290 C   0  0  0  0  0  0  0  0  0  0  0  0
  142.6350  159.9540  134.0900 C   0  0  0  0  0  0  0  0  0  0  0  0
  142.5600  158.5460  134.2590 C   0  0  0  0  0  0  0  0  0  0  0  0
  141.2420  157.9000  134.6410 C   0  0  1  0  0  0  0  0  0  0  0  0
  140.2900  158.9400  135.2520 C   0  0  0  0  0  0  0  0  0  0  0  0
  140.6160  157.1870  133.4210 C   0  0  0  0  0  0  0  0  0  0  0  0
  139.8340  158.1390  132.5520 C   0  0  0  0  0  0  0  0  0  0  0  0
  138.4310  158.1850  132.6270 C   0  0  0  0  0  0  0  0  0  0  0  0
  137.7100  159.0540  131.8020 C   0  0  0  0  0  0  0  0  0  0  0  0
  138.3810  159.8780  130.8960 C   0  0  0  0  0  0  0  0  0  0  0  0
  139.7750  159.8350  130.8100 C   0  0  0  0  0  0  0  0  0  0  0  0
  140.5010  158.9680  131.6330 C   0  0  0  0  0  0  0  0  0  0  0  0
  143.7220  157.7600  134.0680 C   0  0  0  0  0  0  0  0  0  0  0  0
  144.9170  158.4060  133.7280 C   0  0  0  0  0  0  0  0  0  0  0  0
  143.3468  154.8842  132.9576 H   0  0  0  0  0  0  0  0  0  0  0  0
  144.9086  155.4571  132.2801 H   0  0  0  0  0  0  0  0  0  0  0  0
  144.5189  153.7036  132.2801 H   0  0  0  0  0  0  0  0  0  0  0  0
  144.2754  154.4128  134.9716 H   0  0  0  0  0  0  0  0  0  0  0  0
  145.6970  153.6048  134.2076 H   0  0  0  0  0  0  0  0  0  0  0  0
  148.5080  157.1920  131.4570 H   0  0  0  0  0  0  0  0  0  0  0  0
  146.6350  161.1010  132.9606 H   0  0  0  0  0  0  0  0  0  0  0  0
  143.9043  161.6607  133.5911 H   0  0  0  0  0  0  0  0  0  0  0  0
  141.7357  160.5686  134.2436 H   0  0  0  0  0  0  0  0  0  0  0  0
  141.4277  157.1347  135.4090 H   0  0  0  0  0  0  0  0  0  0  0  0
  140.3413  158.8840  136.3494 H   0  0  0  0  0  0  0  0  0  0  0  0
  140.5861  159.9467  134.9220 H   0  0  0  0  0  0  0  0  0  0  0  0
  139.2611  158.7338  134.9220 H   0  0  0  0  0  0  0  0  0  0  0  0
  141.4206  156.7373  132.8208 H   0  0  0  0  0  0  0  0  0  0  0  0
  139.9224  156.4192  133.7945 H   0  0  0  0  0  0  0  0  0  0  0  0
  137.8985  157.5352  133.3371 H   0  0  0  0  0  0  0  0  0  0  0  0
  136.6125  159.0885  131.8668 H   0  0  0  0  0  0  0  0  0  0  0  0
  137.8115  160.5617  130.2493 H   0  0  0  0  0  0  0  0  0  0  0  0
  140.3018  160.4835  130.0945 H   0  0  0  0  0  0  0  0  0  0  0  0
  141.5981  158.9346  131.5610 H   0  0  0  0  0  0  0  0  0  0  0  0
  143.6869  156.6667  134.1840 H   0  0  0  0  0  0  0  0  0  0  0  0
  1  2  1  0
  2  3  1  0
  3  4  1  0
  4  5  2  0
  4  6  1  0
  6  7  1  0
  7  8  1  0
  8  9  1  0
  8 10  2  0
  7 11  2  0
 11 12  1  0
 12 13  2  0
 13 14  1  0
 14 15  2  0
 15 16  1  0
 16 17  1  0
 16 18  1  0
 18 19  1  0
 19 20  2  0
 20 21  1  0
 21 22  2  0
 22 23  1  0
 23 24  2  0
 15 25  1  0
 25 26  2  0
 26  6  1  0
 26 12  1  0
 24 19  1  0
  1 27  1  0
  1 28  1  0
  1 29  1  0
  2 30  1  0
  2 31  1  0
  9 32  1  0
 11 33  1  0
 13 34  1  0
 14 35  1  0
 16 36  1  1
 17 37  1  0
 17 38  1  0
 17 39  1  0
 18 40  1  0
 18 41  1  0
 20 42  1  0
 21 43  1  0
 22 44  1  0
 23 45  1  0
 24 46  1  0
 25 47  1  0
M  CHG  1   9  -1
M  END
>  <UniqueID>  (27) 
27

>  <SMILES>  (27) 
CCOC(=O)n1c(C([NH-])=O)cc2ccc([C@@H](C)Cc3ccccc3)cc21

>  <Energy>  (27) 
80.6671340361002

>  <Genealogy>  (27) 
CCOC(=O)n1c(C([NH-])=O)cc2ccc(C(C)Cc3ccccc3)cc21 (protonated)
CCOC(=O)n1c(C([NH-])=O)cc2ccc([C@@H](C)Cc3ccccc3)cc21 (chirality)
CCOC(=O)n1c(C([NH-])=O)cc2ccc([C@@H](C)Cc3ccccc3)cc21 (3D coordinates assigned)
CCOC(=O)n1c(C([NH-])=O)cc2ccc([C@@H](C)Cc3ccccc3)cc21 (optimized conformer: 80.6671340361002 kcal/mol)

>  <smiles>  (27) 
CCOC(=O)n1c(C(N)=O)cc2ccc(C(C)Cc3ccccc3)cc21

>  <score_type>  (27) 
oracle

>  <origin>  (27) 
adg

>  <m_score__min__energy>  (27) 
-8.2799999999999994

>  <m_primary>  (27) 
energy

$$$$
27:0
     RDKit          3D

 36 37  0  0  0  0  0  0  0  0999 V2000
  141.1140  157.2780  134.8860 C   0  0  0  0  0  0  0  0  0  0  0  0
  140.9560  156.8340  133.4240 C   0  0  0  0  0  0  0  0  0  0  0  0
  141.0080  155.2960  133.3640 C   0  0  0  0  0  0  0  0  0  0  0  0
  139.6070  157.3520  132.8880 C   0  0  0  0  0  0  0  0  0  0  0  0
  142.0450  157.4090  132.6870 O   0  0  0  0  0  0  0  0  0  0  0  0
  143.4040  157.3590  133.0350 C   0  0  0  0  0  0  0  0  0  0  0  0
  144.0110  156.2580  133.1180 O   0  0  0  0  0  0  0  0  0  0  0  0
  144.1150  158.5840  133.2750 N   0  0  0  0  0  0  0  0  0  0  0  0
  143.5890  159.8220  133.4890 C   0  0  0  0  0  0  0  0  0  0  0  0
  142.1600  160.1350  133.6990 C   0  0  0  0  0  0  0  0  0  0  0  0
  141.2210  160.0160  132.6340 N   0  0  0  0  0  0  0  0  0  0  0  0
  141.7550  160.4620  134.8460 O   0  0  0  0  0  0  0  0  0  0  0  0
  144.6010  160.7780  133.5670 C   0  0  0  0  0  0  0  0  0  0  0  0
  145.7740  160.0790  133.4000 C   0  0  0  0  0  0  0  0  0  0  0  0
  147.0900  160.5330  133.3770 C   0  0  0  0  0  0  0  0  0  0  0  0
  148.1080  159.5900  133.1520 C   0  0  0  0  0  0  0  0  0  0  0  0
  147.7930  158.2250  132.9500 C   0  0  0  0  0  0  0  0  0  0  0  0
  148.8360  157.2780  132.7110 N   0  0  0  0  0  0  0  0  0  0  0  0
  146.4470  157.8000  132.9810 C   0  0  0  0  0  0  0  0  0  0  0  0
  145.4540  158.7570  133.2250 C   0  0  0  0  0  0  0  0  0  0  0  0
  140.8208  156.4540  135.5532 H   0  0  0  0  0  0  0  0  0  0  0  0
  142.1633  157.5478  135.0759 H   0  0  0  0  0  0  0  0  0  0  0  0
  140.4710  158.1501  135.0759 H   0  0  0  0  0  0  0  0  0  0  0  0
  141.0217  154.8894  134.3860 H   0  0  0  0  0  0  0  0  0  0  0  0
  140.1221  154.9197  132.8316 H   0  0  0  0  0  0  0  0  0  0  0  0
  141.9173  154.9804  132.8316 H   0  0  0  0  0  0  0  0  0  0  0  0
  138.9494  157.6045  133.7328 H   0  0  0  0  0  0  0  0  0  0  0  0
  139.7764  158.2491  132.2743 H   0  0  0  0  0  0  0  0  0  0  0  0
  139.1324  156.5721  132.2743 H   0  0  0  0  0  0  0  0  0  0  0  0
  141.3730  159.3370  131.8560 H   0  0  0  0  0  0  0  0  0  0  0  0
  144.4860  161.8601  133.7278 H   0  0  0  0  0  0  0  0  0  0  0  0
  147.3258  161.5965  133.5301 H   0  0  0  0  0  0  0  0  0  0  0  0
  149.1585  159.9158  133.1328 H   0  0  0  0  0  0  0  0  0  0  0  0
  148.8690  156.7320  131.8210 H   0  0  0  0  0  0  0  0  0  0  0  0
  149.5840  157.1170  133.4220 H   0  0  0  0  0  0  0  0  0  0  0  0
  146.1849  156.7442  132.8177 H   0  0  0  0  0  0  0  0  0  0  0  0
  1  2  1  0
  2  3  1  0
  2  4  1  0
  2  5  1  0
  5  6  1  0
  6  7  2  0
  6  8  1  0
  8  9  1  0
  9 10  1  0
 10 11  1  0
 10 12  2  0
  9 13  2  0
 13 14  1  0
 14 15  2  0
 15 16  1  0
 16 17  2  0
 17 18  1  0
 17 19  1  0
 19 20  2  0
 20  8  1  0
 20 14  1  0
  1 21  1  0
  1 22  1  0
  1 23  1  0
  3 24  1  0
  3 25  1  0
  3 26  1  0
  4 27  1  0
  4 28  1  0
  4 29  1  0
 11 30  1  0
 13 31  1  0
 15 32  1  0
 16 33  1  0
 18 34  1  0
 18 35  1  0
 19 36  1  0
M  CHG  1  11  -1
M  END
>  <UniqueID>  (28) 
28

>  <SMILES>  (28) 
CC(C)(C)OC(=O)n1c(C([NH-])=O)cc2ccc(N)cc21

>  <Energy>  (28) 
69.42272540447975

>  <Genealogy>  (28) 
CC(C)(C)OC(=O)n1c(C([NH-])=O)cc2ccc(N)cc21 (protonated)
CC(C)(C)OC(=O)n1c(C([NH-])=O)cc2ccc(N)cc21 (3D coordinates assigned)
CC(C)(C)OC(=O)n1c(C([NH-])=O)cc2ccc(N)cc21 (optimized conformer: 69.42272540447975 kcal/mol)

>  <smiles>  (28) 
CC(C)(C)OC(=O)n1c(C(N)=O)cc2ccc(N)cc21

>  <score_type>  (28) 
oracle

>  <origin>  (28) 
adg

>  <m_score__min__energy>  (28) 
-6.4000000000000004

>  <m_primary>  (28) 
energy

$$$$
28:0
     RDKit          3D

 30 31  0  0  0  0  0  0  0  0999 V2000
  149.2390  161.6160  130.4270 C   0  0  0  0  0  0  0  0  0  0  0  0
  149.4040  160.1700  130.7910 C   0  0  0  0  0  0  0  0  0  0  0  0
  149.5460  159.3440  129.9010 O   0  0  0  0  0  0  0  0  0  0  0  0
  149.4130  159.7210  132.2260 C   0  0  0  0  0  0  0  0  0  0  0  0
  148.0300  159.3140  132.6510 C   0  0  0  0  0  0  0  0  0  0  0  0
  147.6480  157.9500  132.6080 C   0  0  0  0  0  0  0  0  0  0  0  0
  146.3520  157.5580  132.9810 C   0  0  0  0  0  0  0  0  0  0  0  0
  145.4580  158.5500  133.3740 C   0  0  0  0  0  0  0  0  0  0  0  0
  144.1540  158.4470  133.8020 C   0  0  0  0  0  0  0  0  0  0  0  0
  143.7480  159.7530  134.0650 C   0  0  0  0  0  0  0  0  0  0  0  0
  142.3710  160.1110  134.4630 C   0  0  0  0  0  0  0  0  0  0  0  0
  141.5740  160.9710  133.6540 N   0  0  0  0  0  0  0  0  0  0  0  0
  141.8730  159.6090  135.5070 O   0  0  0  0  0  0  0  0  0  0  0  0
  144.7640  160.6290  133.8190 N   0  0  0  0  0  0  0  0  0  0  0  0
  144.7810  162.0470  134.0530 C   0  0  0  0  0  0  0  0  0  0  0  0
  143.8240  162.8920  133.4190 N   0  0  0  0  0  0  0  0  0  0  0  0
  145.6230  162.5470  134.8470 O   0  0  0  0  0  0  0  0  0  0  0  0
  145.8020  159.8760  133.3950 C   0  0  0  0  0  0  0  0  0  0  0  0
  147.0920  160.2950  133.0450 C   0  0  0  0  0  0  0  0  0  0  0  0
  149.1701  162.2194  131.3441 H   0  0  0  0  0  0  0  0  0  0  0  0
  150.1053  161.9462  129.8350 H   0  0  0  0  0  0  0  0  0  0  0  0
  148.3206  161.7426  129.8350 H   0  0  0  0  0  0  0  0  0  0  0  0
  150.0935  158.8635  132.3342 H   0  0  0  0  0  0  0  0  0  0  0  0
  149.7533  160.5528  132.8603 H   0  0  0  0  0  0  0  0  0  0  0  0
  148.3734  157.1911  132.2794 H   0  0  0  0  0  0  0  0  0  0  0  0
  146.0526  156.4997  132.9632 H   0  0  0  0  0  0  0  0  0  0  0  0
  143.5590  157.5285  133.9128 H   0  0  0  0  0  0  0  0  0  0  0  0
  142.0100  161.7290  133.0840 H   0  0  0  0  0  0  0  0  0  0  0  0
  142.8000  162.7500  133.5700 H   0  0  0  0  0  0  0  0  0  0  0  0
  147.3677  161.3594  133.0760 H   0  0  0  0  0  0  0  0  0  0  0  0
  1  2  1  0
  2  3  2  0
  2  4  1  0
  4  5  1  0
  5  6  2  0
  6  7  1  0
  7  8  2  0
  8  9  1  0
  9 10  2  0
 10 11  1  0
 11 12  1  0
 11 13  2  0
 10 14  1  0
 14 15  1  0
 15 16  1  0
 15 17  2  0
 14 18  1  0
 18 19  2  0
 19  5  1  0
 18  8  1  0
  1 20  1  0
  1 21  1  0
  1 22  1  0
  4 23  1  0
  4 24  1  0
  6 25  1  0
  7 26  1  0
  9 27  1  0
 12 28  1  0
 16 29  1  0
 19 30  1  0
M  CHG  2  12  -1  16  -1
M  END
>  <UniqueID>  (29) 
29

>  <SMILES>  (29) 
CC(=O)Cc1ccc2cc(C([NH-])=O)n(C([NH-])=O)c2c1

>  <Energy>  (29) 
65.58862294082309

>  <Genealogy>  (29) 
CC(=O)Cc1ccc2cc(C([NH-])=O)n(C([NH-])=O)c2c1 (protonated)
CC(=O)Cc1ccc2cc(C([NH-])=O)n(C([NH-])=O)c2c1 (3D coordinates assigned)
CC(=O)Cc1ccc2cc(C([NH-])=O)n(C([NH-])=O)c2c1 (optimized conformer: 65.58862294082309 kcal/mol)

>  <smiles>  (29) 
CC(=O)Cc1ccc2cc(C(N)=O)n(C(N)=O)c2c1

>  <score_type>  (29) 
oracle

>  <origin>  (29) 
adg

>  <m_score__min__energy>  (29) 
-6.96

>  <m_primary>  (29) 
energy

$$$$
29:0
     RDKit          3D

 35 36  0  0  0  0  0  0  0  0999 V2000
  140.7440  159.3350  136.1500 C   0  0  0  0  0  0  0  0  0  0  0  0
  141.1310  158.6020  134.8460 C   0  0  0  0  0  0  0  0  0  0  0  0
  140.0810  158.9050  133.7560 C   0  0  0  0  0  0  0  0  0  0  0  0
  141.0850  157.0810  135.1330 C   0  0  0  0  0  0  0  0  0  0  0  0
  142.5180  159.0870  134.3740 C   0  0  0  0  0  0  0  0  0  0  0  0
  142.8010  160.4620  134.1110 C   0  0  0  0  0  0  0  0  0  0  0  0
  144.0780  160.8750  133.7010 C   0  0  0  0  0  0  0  0  0  0  0  0
  145.0620  159.9090  133.5480 C   0  0  0  0  0  0  0  0  0  0  0  0
  146.3800  160.0460  133.1810 C   0  0  0  0  0  0  0  0  0  0  0  0
  146.9020  158.7590  133.2130 C   0  0  0  0  0  0  0  0  0  0  0  0
  148.2970  158.4500  132.8600 C   0  0  0  0  0  0  0  0  0  0  0  0
  148.5980  157.4790  131.8570 N   0  0  0  0  0  0  0  0  0  0  0  0
  149.2340  158.9970  133.4980 O   0  0  0  0  0  0  0  0  0  0  0  0
  145.9440  157.8500  133.5570 N   0  0  0  0  0  0  0  0  0  0  0  0
  146.0570  156.4130  133.5300 C   0  0  0  0  0  0  0  0  0  0  0  0
  146.2880  155.7290  132.3000 N   0  0  0  0  0  0  0  0  0  0  0  0
  145.9900  155.7460  134.5950 O   0  0  0  0  0  0  0  0  0  0  0  0
  144.8220  158.5800  133.7730 C   0  0  0  0  0  0  0  0  0  0  0  0
  143.5640  158.1410  134.2040 C   0  0  0  0  0  0  0  0  0  0  0  0
  141.0608  158.7350  137.0158 H   0  0  0  0  0  0  0  0  0  0  0  0
  141.2421  160.3153  136.1813 H   0  0  0  0  0  0  0  0  0  0  0  0
  139.6536  159.4766  136.1813 H   0  0  0  0  0  0  0  0  0  0  0  0
  139.1279  159.1800  134.2314 H   0  0  0  0  0  0  0  0  0  0  0  0
  140.4324  159.7384  133.1299 H   0  0  0  0  0  0  0  0  0  0  0  0
  139.9344  158.0125  133.1299 H   0  0  0  0  0  0  0  0  0  0  0  0
  141.0799  156.9130  136.2201 H   0  0  0  0  0  0  0  0  0  0  0  0
  140.1735  156.6519  134.6914 H   0  0  0  0  0  0  0  0  0  0  0  0
  141.9689  156.5976  134.6914 H   0  0  0  0  0  0  0  0  0  0  0  0
  142.0040  161.2104  134.2319 H   0  0  0  0  0  0  0  0  0  0  0  0
  144.2930  161.9360  133.5062 H   0  0  0  0  0  0  0  0  0  0  0  0
  146.9076  160.9749  132.9185 H   0  0  0  0  0  0  0  0  0  0  0  0
  147.8380  156.9170  131.4140 H   0  0  0  0  0  0  0  0  0  0  0  0
  149.5910  157.2770  131.6030 H   0  0  0  0  0  0  0  0  0  0  0  0
  146.3100  156.2470  131.3940 H   0  0  0  0  0  0  0  0  0  0  0  0
  143.3876  157.0747  134.4088 H   0  0  0  0  0  0  0  0  0  0  0  0
  1  2  1  0
  2  3  1  0
  2  4  1  0
  2  5  1  0
  5  6  2  0
  6  7  1  0
  7  8  2  0
  8  9  1  0
  9 10  2  0
 10 11  1  0
 11 12  1  0
 11 13  2  0
 10 14  1  0
 14 15  1  0
 15 16  1  0
 15 17  2  0
 14 18  1  0
 18 19  2  0
 19  5  1  0
 18  8  1  0
  1 20  1  0
  1 21  1  0
  1 22  1  0
  3 23  1  0
  3 24  1  0
  3 25  1  0
  4 26  1  0
  4 27  1  0
  4 28  1  0
  6 29  1  0
  7 30  1  0
  9 31  1  0
 12 32  1  0
 12 33  1  0
 16 34  1  0
 19 35  1  0
M  CHG  1  16  -1
M  END
>  <UniqueID>  (30) 
30

>  <SMILES>  (30) 
CC(C)(C)c1ccc2cc(C(N)=O)n(C([NH-])=O)c2c1

>  <Energy>  (30) 
78.70754953147542

>  <Genealogy>  (30) 
CC(C)(C)c1ccc2cc(C(N)=O)n(C([NH-])=O)c2c1 (protonated)
CC(C)(C)c1ccc2cc(C(N)=O)n(C([NH-])=O)c2c1 (3D coordinates assigned)
CC(C)(C)c1ccc2cc(C(N)=O)n(C([NH-])=O)c2c1 (optimized conformer: 78.70754953147542 kcal/mol)

>  <smiles>  (30) 
CC(C)(C)c1ccc2cc(C(N)=O)n(C(N)=O)c2c1

>  <score_type>  (30) 
oracle

>  <origin>  (30) 
adg

>  <m_score__min__energy>  (30) 
-6.8499999999999996

>  <m_primary>  (30) 
energy

$$$$
30:0
     RDKit          3D

 33 35  0  0  0  0  0  0  0  0999 V2000
  141.0890  160.8400  133.3460 N   0  0  0  0  0  0  0  0  0  0  0  0
  142.4330  160.5610  133.7330 C   0  0  0  0  0  0  0  0  0  0  0  0
  143.2870  161.4870  133.7140 O   0  0  0  0  0  0  0  0  0  0  0  0
  142.8130  159.2320  134.1250 N   0  0  0  0  0  0  0  0  0  0  0  0
  142.0250  158.2810  134.7030 C   0  0  0  0  0  0  0  0  0  0  0  0
  140.6530  158.4850  135.2090 C   0  0  0  0  0  0  0  0  0  0  0  0
  140.4110  158.8190  136.5750 N   0  0  0  0  0  0  0  0  0  0  0  0
  139.6750  158.3040  134.4350 O   0  0  0  0  0  0  0  0  0  0  0  0
  142.7090  157.0740  134.8130 C   0  0  0  0  0  0  0  0  0  0  0  0
  143.9600  157.3170  134.2930 C   0  0  0  0  0  0  0  0  0  0  0  0
  145.0450  156.4620  134.1430 C   0  0  0  0  0  0  0  0  0  0  0  0
  146.2070  156.9710  133.5410 C   0  0  0  0  0  0  0  0  0  0  0  0
  146.2630  158.3160  133.0910 C   0  0  0  0  0  0  0  0  0  0  0  0
  147.4930  158.8390  132.4430 C   0  0  0  0  0  0  0  0  0  0  0  0
  147.4950  160.1090  131.8330 C   0  0  0  0  0  0  0  0  0  0  0  0
  148.6540  160.5990  131.2230 C   0  0  0  0  0  0  0  0  0  0  0  0
  149.8200  159.8320  131.2140 C   0  0  0  0  0  0  0  0  0  0  0  0
  149.8310  158.5710  131.8160 C   0  0  0  0  0  0  0  0  0  0  0  0
  148.6760  158.0750  132.4270 C   0  0  0  0  0  0  0  0  0  0  0  0
  145.1350  159.1540  133.2610 C   0  0  0  0  0  0  0  0  0  0  0  0
  143.9980  158.6250  133.8840 C   0  0  0  0  0  0  0  0  0  0  0  0
  140.3250  160.1500  133.5220 H   0  0  0  0  0  0  0  0  0  0  0  0
  141.1840  158.8150  137.2770 H   0  0  0  0  0  0  0  0  0  0  0  0
  139.4370  158.9960  136.9070 H   0  0  0  0  0  0  0  0  0  0  0  0
  142.3306  156.1278  135.2271 H   0  0  0  0  0  0  0  0  0  0  0  0
  144.9952  155.4179  134.4855 H   0  0  0  0  0  0  0  0  0  0  0  0
  147.0845  156.3195  133.4166 H   0  0  0  0  0  0  0  0  0  0  0  0
  146.5794  160.7187  131.8366 H   0  0  0  0  0  0  0  0  0  0  0  0
  148.6467  161.5916  130.7490 H   0  0  0  0  0  0  0  0  0  0  0  0
  150.7301  160.2200  130.7332 H   0  0  0  0  0  0  0  0  0  0  0  0
  150.7506  157.9675  131.8090 H   0  0  0  0  0  0  0  0  0  0  0  0
  148.6910  157.0813  132.8985 H   0  0  0  0  0  0  0  0  0  0  0  0
  145.1512  160.1969  132.9117 H   0  0  0  0  0  0  0  0  0  0  0  0
  1  2  1  0
  2  3  2  0
  2  4  1  0
  4  5  1  0
  5  6  1  0
  6  7  1  0
  6  8  2  0
  5  9  2  0
  9 10  1  0
 10 11  2  0
 11 12  1  0
 12 13  2  0
 13 14  1  0
 14 15  2  0
 15 16  1  0
 16 17  2  0
 17 18  1  0
 18 19  2  0
 13 20  1  0
 20 21  2  0
 21  4  1  0
 21 10  1  0
 19 14  1  0
  1 22  1  0
  7 23  1  0
  7 24  1  0
  9 25  1  0
 11 26  1  0
 12 27  1  0
 15 28  1  0
 16 29  1  0
 17 30  1  0
 18 31  1  0
 19 32  1  0
 20 33  1  0
M  CHG  1   1  -1
M  END
>  <UniqueID>  (31) 
31

>  <SMILES>  (31) 
[NH-]C(=O)n1c(C(N)=O)cc2ccc(-c3ccccc3)cc21

>  <Energy>  (31) 
80.69727446180043

>  <Genealogy>  (31) 
[NH-]C(=O)n1c(C(N)=O)cc2ccc(-c3ccccc3)cc21 (protonated)
[NH-]C(=O)n1c(C(N)=O)cc2ccc(-c3ccccc3)cc21 (3D coordinates assigned)
[NH-]C(=O)n1c(C(N)=O)cc2ccc(-c3ccccc3)cc21 (optimized conformer: 80.69727446180043 kcal/mol)

>  <smiles>  (31) 
NC(=O)c1cc2ccc(-c3ccccc3)cc2n1C(N)=O

>  <score_type>  (31) 
oracle

>  <origin>  (31) 
adg

>  <m_score__min__energy>  (31) 
-7.6299999999999999

>  <m_primary>  (31) 
energy

$$$$
31:0
     RDKit          3D

 38 40  0  0  0  0  0  0  0  0999 V2000
  140.6990  156.5300  133.1520 N   0  0  0  0  0  0  0  0  0  0  0  0
  141.2570  157.2200  134.2690 C   0  0  0  0  0  0  0  0  0  0  0  0
  140.6350  157.2220  135.3650 O   0  0  0  0  0  0  0  0  0  0  0  0
  142.5220  157.9710  134.1420 C   0  0  0  0  0  0  0  0  0  0  0  0
  142.6270  159.3440  134.3620 C   0  0  0  0  0  0  0  0  0  0  0  0
  143.9280  159.6650  134.0480 C   0  0  0  0  0  0  0  0  0  0  0  0
  144.5830  160.8910  134.0930 C   0  0  0  0  0  0  0  0  0  0  0  0
  145.9420  160.9260  133.7370 C   0  0  0  0  0  0  0  0  0  0  0  0
  146.6210  159.7430  133.3430 C   0  0  0  0  0  0  0  0  0  0  0  0
  148.0950  159.8010  132.9840 C   0  0  0  0  0  0  0  0  0  0  0  0
  148.5970  158.4230  132.5120 C   0  0  0  0  0  0  0  0  0  0  0  0
  149.9700  158.5640  131.8420 C   0  0  0  0  0  0  0  0  0  0  0  0
  149.9480  159.4450  130.6540 N   0  0  0  0  0  0  0  0  0  0  0  0
  148.7960  160.3640  130.5820 C   0  0  0  0  0  0  0  0  0  0  0  0
  148.4080  160.9240  131.9590 C   0  0  0  0  0  0  0  0  0  0  0  0
  145.9180  158.5150  133.3170 C   0  0  0  0  0  0  0  0  0  0  0  0
  144.5630  158.5140  133.6630 C   0  0  0  0  0  0  0  0  0  0  0  0
  143.7150  157.4640  133.7210 N   0  0  0  0  0  0  0  0  0  0  0  0
  144.0520  156.0920  133.4660 C   0  0  0  0  0  0  0  0  0  0  0  0
  143.2150  155.2840  132.6370 N   0  0  0  0  0  0  0  0  0  0  0  0
  145.0710  155.5830  134.0020 O   0  0  0  0  0  0  0  0  0  0  0  0
  141.2120  156.4740  132.2450 H   0  0  0  0  0  0  0  0  0  0  0  0
  141.8378  160.0256  134.7121 H   0  0  0  0  0  0  0  0  0  0  0  0
  144.0534  161.8056  134.3980 H   0  0  0  0  0  0  0  0  0  0  0  0
  146.4863  161.8815  133.7639 H   0  0  0  0  0  0  0  0  0  0  0  0
  148.6496  160.0626  133.8972 H   0  0  0  0  0  0  0  0  0  0  0  0
  148.6821  157.7504  133.3782 H   0  0  0  0  0  0  0  0  0  0  0  0
  147.8824  158.0086  131.7856 H   0  0  0  0  0  0  0  0  0  0  0  0
  150.6759  158.9819  132.5748 H   0  0  0  0  0  0  0  0  0  0  0  0
  150.2737  157.5628  131.5024 H   0  0  0  0  0  0  0  0  0  0  0  0
  150.8260  160.0150  130.6500 H   0  0  0  0  0  0  0  0  0  0  0  0
  149.0541  161.2031  129.9191 H   0  0  0  0  0  0  0  0  0  0  0  0
  147.9367  159.7958  130.1962 H   0  0  0  0  0  0  0  0  0  0  0  0
  149.2419  161.5304  132.3422 H   0  0  0  0  0  0  0  0  0  0  0  0
  147.4974  161.5280  131.8326 H   0  0  0  0  0  0  0  0  0  0  0  0
  146.4260  157.5822  133.0310 H   0  0  0  0  0  0  0  0  0  0  0  0
  142.3260  155.6680  132.2470 H   0  0  0  0  0  0  0  0  0  0  0  0
  143.4670  154.2900  132.4420 H   0  0  0  0  0  0  0  0  0  0  0  0
  1  2  1  0
  2  3  2  0
  2  4  1  0
  4  5  2  0
  5  6  1  0
  6  7  2  0
  7  8  1  0
  8  9  2  0
  9 10  1  0
 10 11  1  0
 11 12  1  0
 12 13  1  0
 13 14  1  0
 14 15  1  0
  9 16  1  0
 16 17  2  0
 17 18  1  0
 18 19  1  0
 19 20  1  0
 19 21  2  0
 18  4  1  0
 17  6  1  0
 15 10  1  0
  1 22  1  0
  5 23  1  0
  7 24  1  0
  8 25  1  0
 10 26  1  0
 11 27  1  0
 11 28  1  0
 12 29  1  0
 12 30  1  0
 13 31  1  0
 14 32  1  0
 14 33  1  0
 15 34  1  0
 15 35  1  0
 16 36  1  0
 20 37  1  0
 20 38  1  0
M  CHG  1   1  -1
M  END
>  <UniqueID>  (32) 
32

>  <SMILES>  (32) 
[NH-]C(=O)c1cc2ccc(C3CCNCC3)cc2n1C(N)=O

>  <Energy>  (32) 
84.77039449910794

>  <Genealogy>  (32) 
[NH-]C(=O)c1cc2ccc(C3CCNCC3)cc2n1C(N)=O (protonated)
[NH-]C(=O)c1cc2ccc(C3CCNCC3)cc2n1C(N)=O (3D coordinates assigned)
[NH-]C(=O)c1cc2ccc(C3CCNCC3)cc2n1C(N)=O (nonaromatic ring conformer: 84.77039449910794 kcal/mol)

>  <smiles>  (32) 
NC(=O)c1cc2ccc(C3CCNCC3)cc2n1C(N)=O

>  <score_type>  (32) 
oracle

>  <origin>  (32) 
adg

>  <m_score__min__energy>  (32) 
-7.9699999999999998

>  <m_primary>  (32) 
energy

$$$$
32:0
     RDKit          3D

 42 45  0  0  0  0  0  0  0  0999 V2000
  142.3920  160.8510  133.3530 N   0  0  0  0  0  0  0  0  0  0  0  0
  143.7480  161.1360  133.6860 C   0  0  0  0  0  0  0  0  0  0  0  0
  144.0530  162.2930  134.0830 O   0  0  0  0  0  0  0  0  0  0  0  0
  144.7930  160.0950  133.5850 C   0  0  0  0  0  0  0  0  0  0  0  0
  146.1610  160.3580  133.6520 C   0  0  0  0  0  0  0  0  0  0  0  0
  146.7740  159.1260  133.5590 C   0  0  0  0  0  0  0  0  0  0  0  0
  148.1240  158.7910  133.5650 C   0  0  0  0  0  0  0  0  0  0  0  0
  148.4660  157.4320  133.4410 C   0  0  0  0  0  0  0  0  0  0  0  0
  147.4590  156.4380  133.3110 C   0  0  0  0  0  0  0  0  0  0  0  0
  147.8070  155.0060  133.1740 C   0  0  0  0  0  0  0  0  0  0  0  0
  147.0510  153.9070  133.5520 C   0  0  0  0  0  0  0  0  0  0  0  0
  147.7450  152.7990  133.2440 N   0  0  0  0  0  0  0  0  0  0  0  0
  148.8860  153.2560  132.6980 C   0  0  0  0  0  0  0  0  0  0  0  0
  149.9290  152.4110  132.2210 N   0  0  0  0  0  0  0  0  0  0  0  0
  148.9320  154.5670  132.6510 O   0  0  0  0  0  0  0  0  0  0  0  0
  146.0990  156.8230  133.3100 C   0  0  0  0  0  0  0  0  0  0  0  0
  145.7920  158.1800  133.4410 C   0  0  0  0  0  0  0  0  0  0  0  0
  144.5750  158.7580  133.4510 N   0  0  0  0  0  0  0  0  0  0  0  0
  143.3210  158.0770  133.3210 C   0  0  0  0  0  0  0  0  0  0  0  0
  143.0460  157.4890  132.2420 O   0  0  0  0  0  0  0  0  0  0  0  0
  142.3690  158.0900  134.3970 N   0  0  0  0  0  0  0  0  0  0  0  0
  142.5150  158.9070  135.5880 C   0  0  0  0  0  0  0  0  0  0  0  0
  141.3280  158.5520  136.4730 C   0  0  0  0  0  0  0  0  0  0  0  0
  140.3250  157.8400  135.5670 C   0  0  0  0  0  0  0  0  0  0  0  0
  141.1170  157.3580  134.3590 C   0  0  0  0  0  0  0  0  0  0  0  0
  142.1550  160.2690  132.5180 H   0  0  0  0  0  0  0  0  0  0  0  0
  146.6474  161.3390  133.7567 H   0  0  0  0  0  0  0  0  0  0  0  0
  148.8999  159.5645  133.6636 H   0  0  0  0  0  0  0  0  0  0  0  0
  149.5253  157.1355  133.4447 H   0  0  0  0  0  0  0  0  0  0  0  0
  146.0569  153.9372  134.0219 H   0  0  0  0  0  0  0  0  0  0  0  0
  147.4600  151.8050  133.3970 H   0  0  0  0  0  0  0  0  0  0  0  0
  149.7850  151.3800  132.1520 H   0  0  0  0  0  0  0  0  0  0  0  0
  150.8470  152.8200  131.9390 H   0  0  0  0  0  0  0  0  0  0  0  0
  145.3013  156.0724  133.2085 H   0  0  0  0  0  0  0  0  0  0  0  0
  143.4600  158.6739  136.1006 H   0  0  0  0  0  0  0  0  0  0  0  0
  142.5375  159.9799  135.3466 H   0  0  0  0  0  0  0  0  0  0  0  0
  141.6454  157.8863  137.2892 H   0  0  0  0  0  0  0  0  0  0  0  0
  140.8880  159.4480  136.9352 H   0  0  0  0  0  0  0  0  0  0  0  0
  139.8739  156.9860  136.0935 H   0  0  0  0  0  0  0  0  0  0  0  0
  139.5052  158.5103  135.2693 H   0  0  0  0  0  0  0  0  0  0  0  0
  141.3024  156.2759  134.4281 H   0  0  0  0  0  0  0  0  0  0  0  0
  140.5722  157.5312  133.4192 H   0  0  0  0  0  0  0  0  0  0  0  0
  1  2  1  0
  2  3  2  0
  2  4  1  0
  4  5  2  0
  5  6  1  0
  6  7  2  0
  7  8  1  0
  8  9  2  0
  9 10  1  0
 10 11  2  0
 11 12  1  0
 12 13  2  0
 13 14  1  0
 13 15  1  0
  9 16  1  0
 16 17  2  0
 17 18  1  0
 18 19  1  0
 19 20  2  0
 19 21  1  0
 21 22  1  0
 22 23  1  0
 23 24  1  0
 24 25  1  0
 18  4  1  0
 25 21  1  0
 17  6  1  0
 15 10  1  0
  1 26  1  0
  5 27  1  0
  7 28  1  0
  8 29  1  0
 11 30  1  0
 12 31  1  0
 14 32  1  0
 14 33  1  0
 16 34  1  0
 22 35  1  0
 22 36  1  0
 23 37  1  0
 23 38  1  0
 24 39  1  0
 24 40  1  0
 25 41  1  0
 25 42  1  0
M  CHG  2   1  -1  12   1
M  END
>  <UniqueID>  (33) 
33

>  <SMILES>  (33) 
[NH-]C(=O)c1cc2ccc(-c3c[nH+]c(N)o3)cc2n1C(=O)N1CCCC1

>  <Energy>  (33) 
114.33487634228906

>  <Genealogy>  (33) 
[NH-]C(=O)c1cc2ccc(-c3c[nH+]c(N)o3)cc2n1C(=O)N1CCCC1 (protonated)
[NH-]C(=O)c1cc2ccc(-c3c[nH+]c(N)o3)cc2n1C(=O)N1CCCC1 (3D coordinates assigned)
[NH-]C(=O)c1cc2ccc(-c3c[nH+]c(N)o3)cc2n1C(=O)N1CCCC1 (nonaromatic ring conformer: 114.33487634228906 kcal/mol)

>  <smiles>  (33) 
NC(=O)c1cc2ccc(-c3cnc(N)o3)cc2n1C(=O)N1CCCC1

>  <score_type>  (33) 
oracle

>  <origin>  (33) 
adg

>  <m_score__min__energy>  (33) 
-7.71

>  <m_primary>  (33) 
energy

$$$$
33:0
     RDKit          3D

 57 60  0  0  0  0  0  0  0  0999 V2000
  139.5070  157.8480  135.8800 C   0  0  0  0  0  0  0  0  0  0  0  0
  140.7860  157.8950  136.4990 O   0  0  0  0  0  0  0  0  0  0  0  0
  141.6280  156.7800  136.5770 C   0  0  0  0  0  0  0  0  0  0  0  0
  142.6150  156.6810  135.7970 O   0  0  0  0  0  0  0  0  0  0  0  0
  141.3290  155.7030  137.5520 C   0  0  0  0  0  0  0  0  0  0  0  0
  140.6310  156.0440  138.7260 C   0  0  0  0  0  0  0  0  0  0  0  0
  140.2560  155.0620  139.6450 C   0  0  0  0  0  0  0  0  0  0  0  0
  140.5730  153.7260  139.4080 C   0  0  0  0  0  0  0  0  0  0  0  0
  141.2800  153.3670  138.2600 C   0  0  0  0  0  0  0  0  0  0  0  0
  141.6780  154.3430  137.3290 C   0  0  0  0  0  0  0  0  0  0  0  0
  142.5080  153.9130  136.1800 C   0  0  0  0  0  0  0  0  0  0  0  0
  143.9020  154.0830  136.2080 C   0  0  0  0  0  0  0  0  0  0  0  0
  144.6860  153.6540  135.1350 C   0  0  0  0  0  0  0  0  0  0  0  0
  144.0900  153.0420  134.0210 C   0  0  0  0  0  0  0  0  0  0  0  0
  144.9440  152.5230  132.8880 C   0  0  0  0  0  0  0  0  0  0  0  0
  145.0000  153.4750  131.7660 N   0  0  0  0  0  0  0  0  0  0  0  0
  145.0660  154.8390  132.2350 C   0  0  0  0  0  0  0  0  0  0  0  0
  146.3180  155.4230  132.5600 C   0  0  0  0  0  0  0  0  0  0  0  0
  146.3900  156.7270  133.0770 C   0  0  0  0  0  0  0  0  0  0  0  0
  145.1990  157.4240  133.2540 C   0  0  0  0  0  0  0  0  0  0  0  0
  144.9780  158.6810  133.7670 C   0  0  0  0  0  0  0  0  0  0  0  0
  143.5970  158.8580  133.7310 C   0  0  0  0  0  0  0  0  0  0  0  0
  142.9280  160.1180  134.1200 C   0  0  0  0  0  0  0  0  0  0  0  0
  141.6910  160.0750  134.8280 N   0  0  0  0  0  0  0  0  0  0  0  0
  143.4530  161.2340  133.8650 O   0  0  0  0  0  0  0  0  0  0  0  0
  142.9860  157.7500  133.2210 N   0  0  0  0  0  0  0  0  0  0  0  0
  141.5770  157.5050  133.0780 C   0  0  0  0  0  0  0  0  0  0  0  0
  140.8000  158.4510  132.7760 O   0  0  0  0  0  0  0  0  0  0  0  0
  141.0710  156.2210  133.2980 O   0  0  0  0  0  0  0  0  0  0  0  0
  139.7270  155.8640  133.0010 C   0  0  0  0  0  0  0  0  0  0  0  0
  143.9800  156.8830  132.9310 C   0  0  0  0  0  0  0  0  0  0  0  0
  143.8790  155.5810  132.4300 C   0  0  0  0  0  0  0  0  0  0  0  0
  142.7000  152.8520  134.0020 C   0  0  0  0  0  0  0  0  0  0  0  0
  141.9140  153.2840  135.0740 C   0  0  0  0  0  0  0  0  0  0  0  0
  138.7259  157.8193  136.6540 H   0  0  0  0  0  0  0  0  0  0  0  0
  139.3698  158.7417  135.2535 H   0  0  0  0  0  0  0  0  0  0  0  0
  139.4357  156.9466  135.2535 H   0  0  0  0  0  0  0  0  0  0  0  0
  140.3780  157.0965  138.9216 H   0  0  0  0  0  0  0  0  0  0  0  0
  139.7096  155.3434  140.5573 H   0  0  0  0  0  0  0  0  0  0  0  0
  140.2653  152.9528  140.1274 H   0  0  0  0  0  0  0  0  0  0  0  0
  141.5285  152.3104  138.0814 H   0  0  0  0  0  0  0  0  0  0  0  0
  144.3783  154.5563  137.0792 H   0  0  0  0  0  0  0  0  0  0  0  0
  145.7764  153.7964  135.1628 H   0  0  0  0  0  0  0  0  0  0  0  0
  145.9646  152.3514  133.2609 H   0  0  0  0  0  0  0  0  0  0  0  0
  144.4950  151.5881  132.5215 H   0  0  0  0  0  0  0  0  0  0  0  0
  145.8200  153.2550  131.1540 H   0  0  0  0  0  0  0  0  0  0  0  0
  144.1380  153.3570  131.1820 H   0  0  0  0  0  0  0  0  0  0  0  0
  147.2427  154.8478  132.4052 H   0  0  0  0  0  0  0  0  0  0  0  0
  147.3576  157.1828  133.3339 H   0  0  0  0  0  0  0  0  0  0  0  0
  145.7322  159.3952  134.1290 H   0  0  0  0  0  0  0  0  0  0  0  0
  141.0900  159.2210  134.8070 H   0  0  0  0  0  0  0  0  0  0  0  0
  139.1711  155.7163  133.9386 H   0  0  0  0  0  0  0  0  0  0  0  0
  139.2545  156.6678  132.4173 H   0  0  0  0  0  0  0  0  0  0  0  0
  139.7157  154.9317  132.4173 H   0  0  0  0  0  0  0  0  0  0  0  0
  142.8976  155.1443  132.1930 H   0  0  0  0  0  0  0  0  0  0  0  0
  142.2265  152.3607  133.1392 H   0  0  0  0  0  0  0  0  0  0  0  0
  140.8250  153.1305  135.0512 H   0  0  0  0  0  0  0  0  0  0  0  0
  1  2  1  0
  2  3  1  0
  3  4  2  0
  3  5  1  0
  5  6  2  0
  6  7  1  0
  7  8  2  0
  8  9  1  0
  9 10  2  0
 10 11  1  0
 11 12  2  0
 12 13  1  0
 13 14  2  0
 14 15  1  0
 15 16  1  0
 16 17  1  0
 17 18  2  0
 18 19  1  0
 19 20  2  0
 20 21  1  0
 21 22  2  0
 22 23  1  0
 23 24  1  0
 23 25  2  0
 22 26  1  0
 26 27  1  0
 27 28  2  0
 27 29  1  0
 29 30  1  0
 26 31  1  0
 31 32  2  0
 14 33  1  0
 33 34  2  0
 10  5  1  0
 34 11  1  0
 32 17  1  0
 31 20  1  0
  1 35  1  0
  1 36  1  0
  1 37  1  0
  6 38  1  0
  7 39  1  0
  8 40  1  0
  9 41  1  0
 12 42  1  0
 13 43  1  0
 15 44  1  0
 15 45  1  0
 16 46  1  0
 16 47  1  0
 18 48  1  0
 19 49  1  0
 21 50  1  0
 24 51  1  0
 30 52  1  0
 30 53  1  0
 30 54  1  0
 32 55  1  0
 33 56  1  0
 34 57  1  0
M  CHG  2  16   1  24  -1
M  END
>  <UniqueID>  (34) 
34

>  <SMILES>  (34) 
COC(=O)c1ccccc1-c1ccc(C[NH2+]c2ccc3cc(C([NH-])=O)n(C(=O)OC)c3c2)cc1

>  <Energy>  (34) 
106.250110944937

>  <Genealogy>  (34) 
COC(=O)c1ccccc1-c1ccc(C[NH2+]c2ccc3cc(C([NH-])=O)n(C(=O)OC)c3c2)cc1 (protonated)
COC(=O)c1ccccc1-c1ccc(C[NH2+]c2ccc3cc(C([NH-])=O)n(C(=O)OC)c3c2)cc1 (3D coordinates assigned)
COC(=O)c1ccccc1-c1ccc(C[NH2+]c2ccc3cc(C([NH-])=O)n(C(=O)OC)c3c2)cc1 (optimized conformer: 106.250110944937 kcal/mol)

>  <smiles>  (34) 
COC(=O)c1ccccc1-c1ccc(CNc2ccc3cc(C(N)=O)n(C(=O)OC)c3c2)cc1

>  <score_type>  (34) 
oracle

>  <origin>  (34) 
adg

>  <m_score__min__energy>  (34) 
-8.8100000000000005

>  <m_primary>  (34) 
energy

$$$$
34:0
     RDKit          3D

 31 32  0  0  0  0  0  0  0  0999 V2000
  139.4820  159.1990  132.6770 C   0  0  0  0  0  0  0  0  0  0  0  0
  140.2060  158.9790  134.0100 C   0  0  0  0  0  0  0  0  0  0  0  0
  139.5200  157.8870  134.8380 C   0  0  0  0  0  0  0  0  0  0  0  0
  141.6730  158.6570  133.7890 C   0  0  0  0  0  0  0  0  0  0  0  0
  142.0920  157.3290  133.5050 C   0  0  0  0  0  0  0  0  0  0  0  0
  143.4470  157.0350  133.2870 C   0  0  0  0  0  0  0  0  0  0  0  0
  144.3630  158.0790  133.3650 C   0  0  0  0  0  0  0  0  0  0  0  0
  145.7250  158.0780  133.1690 C   0  0  0  0  0  0  0  0  0  0  0  0
  146.1270  159.3970  133.3590 C   0  0  0  0  0  0  0  0  0  0  0  0
  147.5400  159.8310  133.3180 C   0  0  0  0  0  0  0  0  0  0  0  0
  147.9690  160.8540  132.4250 N   0  0  0  0  0  0  0  0  0  0  0  0
  148.3710  159.3200  134.1150 O   0  0  0  0  0  0  0  0  0  0  0  0
  145.0540  160.1870  133.6540 N   0  0  0  0  0  0  0  0  0  0  0  0
  145.0340  161.6110  133.8390 C   0  0  0  0  0  0  0  0  0  0  0  0
  146.2360  162.3120  134.1490 N   0  0  0  0  0  0  0  0  0  0  0  0
  143.9510  162.2470  133.7370 O   0  0  0  0  0  0  0  0  0  0  0  0
  143.9820  159.3630  133.6560 C   0  0  0  0  0  0  0  0  0  0  0  0
  142.6360  159.6900  133.8580 C   0  0  0  0  0  0  0  0  0  0  0  0
  138.4459  159.5139  132.8701 H   0  0  0  0  0  0  0  0  0  0  0  0
  140.0014  159.9799  132.1021 H   0  0  0  0  0  0  0  0  0  0  0  0
  139.4791  158.2612  132.1021 H   0  0  0  0  0  0  0  0  0  0  0  0
  140.1503  159.9177  134.5807 H   0  0  0  0  0  0  0  0  0  0  0  0
  139.6539  158.1002  135.9088 H   0  0  0  0  0  0  0  0  0  0  0  0
  138.4463  157.8662  134.5998 H   0  0  0  0  0  0  0  0  0  0  0  0
  139.9674  156.9107  134.5998 H   0  0  0  0  0  0  0  0  0  0  0  0
  141.3458  156.5223  133.4555 H   0  0  0  0  0  0  0  0  0  0  0  0
  143.7749  156.0096  133.0612 H   0  0  0  0  0  0  0  0  0  0  0  0
  146.3613  157.2172  132.9158 H   0  0  0  0  0  0  0  0  0  0  0  0
  147.6880  161.8480  132.5720 H   0  0  0  0  0  0  0  0  0  0  0  0
  146.9560  162.4930  133.4160 H   0  0  0  0  0  0  0  0  0  0  0  0
  142.3343  160.7272  134.0657 H   0  0  0  0  0  0  0  0  0  0  0  0
  1  2  1  0
  2  3  1  0
  2  4  1  0
  4  5  2  0
  5  6  1  0
  6  7  2  0
  7  8  1  0
  8  9  2  0
  9 10  1  0
 10 11  1  0
 10 12  2  0
  9 13  1  0
 13 14  1  0
 14 15  1  0
 14 16  2  0
 13 17  1  0
 17 18  2  0
 18  4  1  0
 17  7  1  0
  1 19  1  0
  1 20  1  0
  1 21  1  0
  2 22  1  0
  3 23  1  0
  3 24  1  0
  3 25  1  0
  5 26  1  0
  6 27  1  0
  8 28  1  0
 11 29  1  0
 15 30  1  0
 18 31  1  0
M  CHG  2  11  -1  15  -1
M  END
>  <UniqueID>  (35) 
35

>  <SMILES>  (35) 
CC(C)c1ccc2cc(C([NH-])=O)n(C([NH-])=O)c2c1

>  <Energy>  (35) 
67.07057499470469

>  <Genealogy>  (35) 
CC(C)c1ccc2cc(C([NH-])=O)n(C([NH-])=O)c2c1 (protonated)
CC(C)c1ccc2cc(C([NH-])=O)n(C([NH-])=O)c2c1 (3D coordinates assigned)
CC(C)c1ccc2cc(C([NH-])=O)n(C([NH-])=O)c2c1 (optimized conformer: 67.07057499470469 kcal/mol)

>  <smiles>  (35) 
CC(C)c1ccc2cc(C(N)=O)n(C(N)=O)c2c1

>  <score_type>  (35) 
oracle

>  <origin>  (35) 
adg

>  <m_score__min__energy>  (35) 
-6.7300000000000004

>  <m_primary>  (35) 
energy

$$$$
35:0
     RDKit          3D

 49 52  0  0  0  0  0  0  0  0999 V2000
  146.4100  156.1660  132.6780 N   0  0  0  0  0  0  0  0  0  0  0  0
  145.5630  155.8270  133.7740 C   0  0  0  0  0  0  0  0  0  0  0  0
  146.0640  155.2880  134.7970 O   0  0  0  0  0  0  0  0  0  0  0  0
  144.1030  156.0480  133.7030 C   0  0  0  0  0  0  0  0  0  0  0  0
  143.1650  155.0210  133.7990 C   0  0  0  0  0  0  0  0  0  0  0  0
  141.9450  155.6210  133.5860 C   0  0  0  0  0  0  0  0  0  0  0  0
  140.6660  155.0720  133.5720 C   0  0  0  0  0  0  0  0  0  0  0  0
  139.5810  155.9360  133.3500 C   0  0  0  0  0  0  0  0  0  0  0  0
  139.7880  157.3260  133.1640 C   0  0  0  0  0  0  0  0  0  0  0  0
  138.6110  158.2470  132.9290 C   0  0  0  0  0  0  0  0  0  0  0  0
  138.5460  158.8920  131.5240 C   0  0  2  0  0  0  0  0  0  0  0  0
  139.3950  160.1160  131.3280 C   0  0  0  0  0  0  0  0  0  0  0  0
  138.6870  160.8210  130.1820 C   0  0  0  0  0  0  0  0  0  0  0  0
  137.3560  160.3560  130.0870 O   0  0  0  0  0  0  0  0  0  0  0  0
  137.1760  159.3790  131.0870 C   0  0  0  0  0  0  0  0  0  0  0  0
  141.1030  157.8430  133.1680 C   0  0  0  0  0  0  0  0  0  0  0  0
  142.1660  156.9580  133.3770 C   0  0  0  0  0  0  0  0  0  0  0  0
  143.4850  157.2360  133.4510 N   0  0  0  0  0  0  0  0  0  0  0  0
  144.0830  158.5360  133.3600 C   0  0  0  0  0  0  0  0  0  0  0  0
  143.3500  159.5630  133.3140 O   0  0  0  0  0  0  0  0  0  0  0  0
  145.4760  158.6580  133.3050 O   0  0  0  0  0  0  0  0  0  0  0  0
  146.1470  159.9110  133.1920 C   0  0  0  0  0  0  0  0  0  0  0  0
  147.4570  159.7370  132.4720 C   0  0  0  0  0  0  0  0  0  0  0  0
  147.7260  160.4910  131.3180 C   0  0  0  0  0  0  0  0  0  0  0  0
  148.9250  160.3090  130.6230 C   0  0  0  0  0  0  0  0  0  0  0  0
  149.8610  159.3720  131.0720 C   0  0  0  0  0  0  0  0  0  0  0  0
  149.5970  158.6160  132.2160 C   0  0  0  0  0  0  0  0  0  0  0  0
  148.3980  158.7940  132.9140 C   0  0  0  0  0  0  0  0  0  0  0  0
  146.2220  157.0110  132.0950 H   0  0  0  0  0  0  0  0  0  0  0  0
  143.3589  153.9574  134.0018 H   0  0  0  0  0  0  0  0  0  0  0  0
  140.5097  153.9947  133.7299 H   0  0  0  0  0  0  0  0  0  0  0  0
  138.5593  155.5295  133.3202 H   0  0  0  0  0  0  0  0  0  0  0  0
  137.6893  157.6656  133.0789 H   0  0  0  0  0  0  0  0  0  0  0  0
  138.7285  159.0781  133.6400 H   0  0  0  0  0  0  0  0  0  0  0  0
  138.8997  158.0313  130.9374 H   0  0  0  0  0  0  0  0  0  0  0  0
  139.4079  160.7410  132.2331 H   0  0  0  0  0  0  0  0  0  0  0  0
  140.4516  159.8907  131.1211 H   0  0  0  0  0  0  0  0  0  0  0  0
  138.6833  161.9055  130.3662 H   0  0  0  0  0  0  0  0  0  0  0  0
  139.2155  160.6082  129.2410 H   0  0  0  0  0  0  0  0  0  0  0  0
  136.6451  159.8173  131.9450 H   0  0  0  0  0  0  0  0  0  0  0  0
  136.5804  158.5404  130.6971 H   0  0  0  0  0  0  0  0  0  0  0  0
  141.2865  158.9161  133.0105 H   0  0  0  0  0  0  0  0  0  0  0  0
  145.5137  160.6127  132.6293 H   0  0  0  0  0  0  0  0  0  0  0  0
  146.3417  160.3056  134.2001 H   0  0  0  0  0  0  0  0  0  0  0  0
  146.9909  161.2269  130.9601 H   0  0  0  0  0  0  0  0  0  0  0  0
  149.1327  160.9038  129.7213 H   0  0  0  0  0  0  0  0  0  0  0  0
  150.8045  159.2306  130.5244 H   0  0  0  0  0  0  0  0  0  0  0  0
  150.3334  157.8790  132.5690 H   0  0  0  0  0  0  0  0  0  0  0  0
  148.1919  158.1931  133.8120 H   0  0  0  0  0  0  0  0  0  0  0  0
  1  2  1  0
  2  3  2  0
  2  4  1  0
  4  5  2  0
  5  6  1  0
  6  7  2  0
  7  8  1  0
  8  9  2  0
  9 10  1  0
 10 11  1  0
 11 12  1  0
 12 13  1  0
 13 14  1  0
 14 15  1  0
  9 16  1  0
 16 17  2  0
 17 18  1  0
 18 19  1  0
 19 20  2  0
 19 21  1  0
 21 22  1  0
 22 23  1  0
 23 24  2  0
 24 25  1  0
 25 26  2  0
 26 27  1  0
 27 28  2  0
 18  4  1  0
 28 23  1  0
 17  6  1  0
 15 11  1  0
  1 29  1  0
  5 30  1  0
  7 31  1  0
  8 32  1  0
 10 33  1  0
 10 34  1  0
 11 35  1  6
 12 36  1  0
 12 37  1  0
 13 38  1  0
 13 39  1  0
 15 40  1  0
 15 41  1  0
 16 42  1  0
 22 43  1  0
 22 44  1  0
 24 45  1  0
 25 46  1  0
 26 47  1  0
 27 48  1  0
 28 49  1  0
M  CHG  1   1  -1
M  END
>  <UniqueID>  (36) 
36

>  <SMILES>  (36) 
[NH-]C(=O)c1cc2ccc(C[C@@H]3CCOC3)cc2n1C(=O)OCc1ccccc1

>  <Energy>  (36) 
90.69986553750432

>  <Genealogy>  (36) 
[NH-]C(=O)c1cc2ccc(CC3CCOC3)cc2n1C(=O)OCc1ccccc1 (protonated)
[NH-]C(=O)c1cc2ccc(C[C@@H]3CCOC3)cc2n1C(=O)OCc1ccccc1 (chirality)
[NH-]C(=O)c1cc2ccc(C[C@@H]3CCOC3)cc2n1C(=O)OCc1ccccc1 (3D coordinates assigned)
[NH-]C(=O)c1cc2ccc(C[C@@H]3CCOC3)cc2n1C(=O)OCc1ccccc1 (nonaromatic ring conformer: 90.69986553750432 kcal/mol)

>  <smiles>  (36) 
NC(=O)c1cc2ccc(CC3CCOC3)cc2n1C(=O)OCc1ccccc1

>  <score_type>  (36) 
oracle

>  <origin>  (36) 
adg

>  <m_score__min__energy>  (36) 
-9.0600000000000005

>  <m_primary>  (36) 
energy

$$$$
36:0
     RDKit          3D

 29 31  0  0  0  0  0  0  0  0999 V2000
  143.4750  155.4480  133.0100 N   0  0  0  0  0  0  0  0  0  0  0  0
  143.4900  154.2160  133.7320 C   0  0  0  0  0  0  0  0  0  0  0  0
  144.0810  154.1600  134.8430 O   0  0  0  0  0  0  0  0  0  0  0  0
  142.7690  153.0270  133.2340 C   0  0  0  0  0  0  0  0  0  0  0  0
  143.3850  151.8030  132.9980 C   0  0  0  0  0  0  0  0  0  0  0  0
  142.3730  150.9570  132.6080 C   0  0  0  0  0  0  0  0  0  0  0  0
  142.4230  149.6190  132.2360 C   0  0  0  0  0  0  0  0  0  0  0  0
  141.2270  149.0000  131.8390 C   0  0  0  0  0  0  0  0  0  0  0  0
  140.0050  149.7200  131.8090 C   0  0  0  0  0  0  0  0  0  0  0  0
  138.7640  148.9700  131.3510 C   0  0  0  0  0  0  0  0  0  0  0  0
  138.3990  149.0590  129.8750 C   0  0  0  0  0  0  0  0  0  0  0  0
  138.9750  147.7670  130.4420 C   0  0  0  0  0  0  0  0  0  0  0  0
  139.9990  151.0860  132.1950 C   0  0  0  0  0  0  0  0  0  0  0  0
  141.2030  151.6720  132.6080 C   0  0  0  0  0  0  0  0  0  0  0  0
  141.4300  152.9510  132.9890 N   0  0  0  0  0  0  0  0  0  0  0  0
  140.4740  154.0250  133.0100 C   0  0  0  0  0  0  0  0  0  0  0  0
  139.2400  153.7770  132.9790 O   0  0  0  0  0  0  0  0  0  0  0  0
  140.8990  155.3450  133.0650 O   0  0  0  0  0  0  0  0  0  0  0  0
  142.8570  155.5780  132.1790 H   0  0  0  0  0  0  0  0  0  0  0  0
  144.0220  156.2660  133.3570 H   0  0  0  0  0  0  0  0  0  0  0  0
  144.4534  151.5626  133.1012 H   0  0  0  0  0  0  0  0  0  0  0  0
  143.3712  149.0616  132.2521 H   0  0  0  0  0  0  0  0  0  0  0  0
  141.2376  147.9397  131.5465 H   0  0  0  0  0  0  0  0  0  0  0  0
  138.2299  149.1482  132.2960 H   0  0  0  0  0  0  0  0  0  0  0  0
  137.3427  149.1037  129.5712 H   0  0  0  0  0  0  0  0  0  0  0  0
  138.6655  149.7321  129.0468 H   0  0  0  0  0  0  0  0  0  0  0  0
  138.3345  146.8789  130.5474 H   0  0  0  0  0  0  0  0  0  0  0  0
  139.8296  147.1210  130.1925 H   0  0  0  0  0  0  0  0  0  0  0  0
  139.0686  151.6723  132.1704 H   0  0  0  0  0  0  0  0  0  0  0  0
  1  2  1  0
  2  3  2  0
  2  4  1  0
  4  5  2  0
  5  6  1  0
  6  7  2  0
  7  8  1  0
  8  9  2  0
  9 10  1  0
 10 11  1  0
 11 12  1  0
  9 13  1  0
 13 14  2  0
 14 15  1  0
 15 16  1  0
 16 17  2  0
 16 18  1  0
 15  4  1  0
 14  6  1  0
 12 10  1  0
  1 19  1  0
  1 20  1  0
  5 21  1  0
  7 22  1  0
  8 23  1  0
 10 24  1  0
 11 25  1  0
 11 26  1  0
 12 27  1  0
 12 28  1  0
 13 29  1  0
M  CHG  1  18  -1
M  END
>  <UniqueID>  (37) 
37

>  <SMILES>  (37) 
NC(=O)c1cc2ccc(C3CC3)cc2n1C(=O)[O-]

>  <Energy>  (37) 
338.2782364314722

>  <Genealogy>  (37) 
NC(=O)c1cc2ccc(C3CC3)cc2n1C(=O)[O-] (protonated)
NC(=O)c1cc2ccc(C3CC3)cc2n1C(=O)[O-] (3D coordinates assigned)
NC(=O)c1cc2ccc(C3CC3)cc2n1C(=O)[O-] (nonaromatic ring conformer: 338.2782364314722 kcal/mol)

>  <smiles>  (37) 
NC(=O)c1cc2ccc(C3CC3)cc2n1C(=O)O

>  <score_type>  (37) 
oracle

>  <origin>  (37) 
adg

>  <m_score__min__energy>  (37) 
-6.7699999999999996

>  <m_primary>  (37) 
energy

$$$$
37:0
     RDKit          3D

 33 35  0  0  0  0  0  0  0  0999 V2000
  149.8840  161.0220  130.3450 N   0  0  0  0  0  0  0  0  0  0  0  0
  149.2670  160.3000  131.0060 C   0  0  0  0  0  0  0  0  0  0  0  0
  148.5010  159.4010  131.8290 C   0  0  0  0  0  0  0  0  0  0  0  0
  149.0740  158.2080  132.2850 C   0  0  0  0  0  0  0  0  0  0  0  0
  148.3320  157.3380  133.0860 C   0  0  0  0  0  0  0  0  0  0  0  0
  147.0160  157.6540  133.4360 C   0  0  0  0  0  0  0  0  0  0  0  0
  146.4270  158.8490  132.9850 C   0  0  0  0  0  0  0  0  0  0  0  0
  145.0280  159.1860  133.3540 C   0  0  0  0  0  0  0  0  0  0  0  0
  144.6770  160.5200  133.6930 C   0  0  0  0  0  0  0  0  0  0  0  0
  143.3550  160.8520  134.0310 C   0  0  0  0  0  0  0  0  0  0  0  0
  142.4070  159.8360  134.0330 C   0  0  0  0  0  0  0  0  0  0  0  0
  141.0570  159.8860  134.2940 C   0  0  0  0  0  0  0  0  0  0  0  0
  140.6010  158.5790  134.1390 C   0  0  0  0  0  0  0  0  0  0  0  0
  139.2060  158.1680  134.4040 C   0  0  0  0  0  0  0  0  0  0  0  0
  138.3490  157.7490  133.3450 N   0  0  0  0  0  0  0  0  0  0  0  0
  138.7780  158.1430  135.5890 O   0  0  0  0  0  0  0  0  0  0  0  0
  141.6280  157.7520  133.7900 N   0  0  0  0  0  0  0  0  0  0  0  0
  141.5600  156.3560  133.4580 C   0  0  0  0  0  0  0  0  0  0  0  0
  140.3340  155.7850  133.0060 N   0  0  0  0  0  0  0  0  0  0  0  0
  142.5800  155.6260  133.5760 O   0  0  0  0  0  0  0  0  0  0  0  0
  142.7270  158.5380  133.7290 C   0  0  0  0  0  0  0  0  0  0  0  0
  144.0310  158.1810  133.3690 C   0  0  0  0  0  0  0  0  0  0  0  0
  147.1820  159.7210  132.1770 C   0  0  0  0  0  0  0  0  0  0  0  0
  150.1094  157.9559  132.0121 H   0  0  0  0  0  0  0  0  0  0  0  0
  148.7843  156.4009  133.4428 H   0  0  0  0  0  0  0  0  0  0  0  0
  146.4376  156.9640  134.0679 H   0  0  0  0  0  0  0  0  0  0  0  0
  145.4501  161.3025  133.6907 H   0  0  0  0  0  0  0  0  0  0  0  0
  143.0782  161.8855  134.2866 H   0  0  0  0  0  0  0  0  0  0  0  0
  140.4634  160.7709  134.5673 H   0  0  0  0  0  0  0  0  0  0  0  0
  138.3660  156.7640  132.9980 H   0  0  0  0  0  0  0  0  0  0  0  0
  139.6700  156.3380  132.4180 H   0  0  0  0  0  0  0  0  0  0  0  0
  144.2762  157.1421  133.1034 H   0  0  0  0  0  0  0  0  0  0  0  0
  146.7336  160.6587  131.8170 H   0  0  0  0  0  0  0  0  0  0  0  0
  1  2  3  0
  2  3  1  0
  3  4  2  0
  4  5  1  0
  5  6  2  0
  6  7  1  0
  7  8  1  0
  8  9  2  0
  9 10  1  0
 10 11  2  0
 11 12  1  0
 12 13  2  0
 13 14  1  0
 14 15  1  0
 14 16  2  0
 13 17  1  0
 17 18  1  0
 18 19  1  0
 18 20  2  0
 17 21  1  0
 21 22  2  0
  7 23  2  0
 23  3  1  0
 22  8  1  0
 21 11  1  0
  4 24  1  0
  5 25  1  0
  6 26  1  0
  9 27  1  0
 10 28  1  0
 12 29  1  0
 15 30  1  0
 19 31  1  0
 22 32  1  0
 23 33  1  0
M  CHG  2  15  -1  19  -1
M  END
>  <UniqueID>  (38) 
38

>  <SMILES>  (38) 
N#Cc1cccc(-c2ccc3cc(C([NH-])=O)n(C([NH-])=O)c3c2)c1

>  <Energy>  (38) 
79.80876593159813

>  <Genealogy>  (38) 
N#Cc1cccc(-c2ccc3cc(C([NH-])=O)n(C([NH-])=O)c3c2)c1 (protonated)
N#Cc1cccc(-c2ccc3cc(C([NH-])=O)n(C([NH-])=O)c3c2)c1 (3D coordinates assigned)
N#Cc1cccc(-c2ccc3cc(C([NH-])=O)n(C([NH-])=O)c3c2)c1 (optimized conformer: 79.80876593159813 kcal/mol)

>  <smiles>  (38) 
N#Cc1cccc(-c2ccc3cc(C(N)=O)n(C(N)=O)c3c2)c1

>  <score_type>  (38) 
oracle

>  <origin>  (38) 
adg

>  <m_score__min__energy>  (38) 
-8.5299999999999994

>  <m_primary>  (38) 
energy

$$$$
38:0
     RDKit          3D

 27 29  0  0  0  0  0  0  0  0999 V2000
  140.6780  159.3740  134.4290 N   0  0  0  0  0  0  0  0  0  0  0  0
  141.8630  159.0510  135.1510 C   0  0  0  0  0  0  0  0  0  0  0  0
  141.8150  158.9560  136.4060 O   0  0  0  0  0  0  0  0  0  0  0  0
  143.1550  158.8830  134.4540 C   0  0  0  0  0  0  0  0  0  0  0  0
  143.8140  157.6590  134.3470 C   0  0  0  0  0  0  0  0  0  0  0  0
  145.0060  157.9410  133.7200 C   0  0  0  0  0  0  0  0  0  0  0  0
  146.0440  157.0920  133.3540 C   0  0  0  0  0  0  0  0  0  0  0  0
  147.1490  157.6490  132.6890 C   0  0  0  0  0  0  0  0  0  0  0  0
  147.1990  159.0380  132.3950 C   0  0  0  0  0  0  0  0  0  0  0  0
  148.3690  159.6150  131.6820 C   0  0  0  0  0  0  0  0  0  0  0  0
  148.4810  160.8700  131.1140 C   0  0  0  0  0  0  0  0  0  0  0  0
  149.7030  161.0000  130.5650 N   0  0  0  0  0  0  0  0  0  0  0  0
  150.3770  159.8770  130.7610 N   0  0  0  0  0  0  0  0  0  0  0  0
  149.5920  159.0180  131.4350 C   0  0  0  0  0  0  0  0  0  0  0  0
  146.1180  159.8670  132.7870 C   0  0  0  0  0  0  0  0  0  0  0  0
  145.0390  159.2860  133.4630 C   0  0  0  0  0  0  0  0  0  0  0  0
  143.9070  159.8800  133.9060 N   0  0  0  0  0  0  0  0  0  0  0  0
  143.5430  161.2580  133.7340 C   0  0  0  0  0  0  0  0  0  0  0  0
  144.4000  162.1680  133.8890 O   0  0  0  0  0  0  0  0  0  0  0  0
  142.2480  161.6010  133.3660 O   0  0  0  0  0  0  0  0  0  0  0  0
  140.6180  160.2470  133.8590 H   0  0  0  0  0  0  0  0  0  0  0  0
  143.4570  156.6769  134.6907 H   0  0  0  0  0  0  0  0  0  0  0  0
  146.0015  156.0160  133.5784 H   0  0  0  0  0  0  0  0  0  0  0  0
  147.9867  157.0010  132.3919 H   0  0  0  0  0  0  0  0  0  0  0  0
  147.6959  161.6405  131.1111 H   0  0  0  0  0  0  0  0  0  0  0  0
  149.8775  158.0009  131.7416 H   0  0  0  0  0  0  0  0  0  0  0  0
  146.1270  160.9442  132.5646 H   0  0  0  0  0  0  0  0  0  0  0  0
  1  2  1  0
  2  3  2  0
  2  4  1  0
  4  5  2  0
  5  6  1  0
  6  7  2  0
  7  8  1  0
  8  9  2  0
  9 10  1  0
 10 11  1  0
 11 12  2  0
 12 13  1  0
 13 14  1  0
  9 15  1  0
 15 16  2  0
 16 17  1  0
 17 18  1  0
 18 19  2  0
 18 20  1  0
 17  4  1  0
 16  6  1  0
 14 10  2  0
  1 21  1  0
  5 22  1  0
  7 23  1  0
  8 24  1  0
 11 25  1  0
 14 26  1  0
 15 27  1  0
M  CHG  3   1  -1  13  -1  20  -1
M  END
>  <UniqueID>  (39) 
39

>  <SMILES>  (39) 
[NH-]C(=O)c1cc2ccc(-c3cn[n-]c3)cc2n1C(=O)[O-]

>  <Energy>  (39) 
101.5206360477934

>  <Genealogy>  (39) 
[NH-]C(=O)c1cc2ccc(-c3cn[n-]c3)cc2n1C(=O)[O-] (protonated)
[NH-]C(=O)c1cc2ccc(-c3cn[n-]c3)cc2n1C(=O)[O-] (3D coordinates assigned)
[NH-]C(=O)c1cc2ccc(-c3cn[n-]c3)cc2n1C(=O)[O-] (optimized conformer: 101.5206360477934 kcal/mol)

>  <smiles>  (39) 
NC(=O)c1cc2ccc(-c3cn[nH]c3)cc2n1C(=O)O

>  <score_type>  (39) 
oracle

>  <origin>  (39) 
adg

>  <m_score__min__energy>  (39) 
-6.21

>  <m_primary>  (39) 
energy

$$$$
39:0
     RDKit          3D

 43 45  0  0  0  0  0  0  0  0999 V2000
  141.1100  155.9670  139.9560 C   0  0  0  0  0  0  0  0  0  0  0  0
  141.4340  155.3050  138.6490 C   0  0  0  0  0  0  0  0  0  0  0  0
  141.5180  154.0470  138.6230 O   0  0  0  0  0  0  0  0  0  0  0  0
  141.6200  156.0660  137.4330 N   0  0  0  0  0  0  0  0  0  0  0  0
  141.2650  157.4930  137.3800 C   0  0  0  0  0  0  0  0  0  0  0  0
  140.7400  157.8930  135.9960 C   0  0  0  0  0  0  0  0  0  0  0  0
  141.5650  157.3480  134.8120 C   0  0  0  0  0  0  0  0  0  0  0  0
  142.7480  158.2300  134.4210 C   0  0  0  0  0  0  0  0  0  0  0  0
  142.5640  159.6390  134.3530 C   0  0  0  0  0  0  0  0  0  0  0  0
  143.6240  160.4930  134.0050 C   0  0  0  0  0  0  0  0  0  0  0  0
  144.8560  159.9190  133.7180 C   0  0  0  0  0  0  0  0  0  0  0  0
  146.0490  160.5130  133.3790 C   0  0  0  0  0  0  0  0  0  0  0  0
  146.9510  159.4640  133.2150 C   0  0  0  0  0  0  0  0  0  0  0  0
  148.3500  159.6380  132.7630 C   0  0  0  0  0  0  0  0  0  0  0  0
  149.4210  158.9620  133.4250 N   0  0  0  0  0  0  0  0  0  0  0  0
  148.6140  160.4090  131.8020 O   0  0  0  0  0  0  0  0  0  0  0  0
  146.3370  158.2680  133.4430 N   0  0  0  0  0  0  0  0  0  0  0  0
  146.9330  156.9600  133.4270 C   0  0  0  0  0  0  0  0  0  0  0  0
  146.4340  155.9500  132.5550 N   0  0  0  0  0  0  0  0  0  0  0  0
  147.9030  156.6980  134.1890 O   0  0  0  0  0  0  0  0  0  0  0  0
  145.0540  158.5650  133.7530 C   0  0  0  0  0  0  0  0  0  0  0  0
  144.0230  157.6930  134.1180 C   0  0  0  0  0  0  0  0  0  0  0  0
  141.9370  155.8620  134.9860 C   0  0  0  0  0  0  0  0  0  0  0  0
  142.4820  155.5220  136.3750 C   0  0  0  0  0  0  0  0  0  0  0  0
  141.4279  155.3174  140.7848 H   0  0  0  0  0  0  0  0  0  0  0  0
  141.6390  156.9293  140.0207 H   0  0  0  0  0  0  0  0  0  0  0  0
  140.0256  156.1396  140.0207 H   0  0  0  0  0  0  0  0  0  0  0  0
  140.4856  157.6950  138.1295 H   0  0  0  0  0  0  0  0  0  0  0  0
  142.1713  158.0809  137.5873 H   0  0  0  0  0  0  0  0  0  0  0  0
  139.7107  157.5175  135.8982 H   0  0  0  0  0  0  0  0  0  0  0  0
  140.8071  158.9897  135.9430 H   0  0  0  0  0  0  0  0  0  0  0  0
  140.8938  157.3937  133.9417 H   0  0  0  0  0  0  0  0  0  0  0  0
  141.5756  160.0669  134.5765 H   0  0  0  0  0  0  0  0  0  0  0  0
  143.4826  161.5830  133.9612 H   0  0  0  0  0  0  0  0  0  0  0  0
  146.2487  161.5884  133.2621 H   0  0  0  0  0  0  0  0  0  0  0  0
  150.4070  159.1230  133.1230 H   0  0  0  0  0  0  0  0  0  0  0  0
  149.2400  158.2710  134.1860 H   0  0  0  0  0  0  0  0  0  0  0  0
  145.9370  156.1990  131.6720 H   0  0  0  0  0  0  0  0  0  0  0  0
  144.1995  156.6084  134.1688 H   0  0  0  0  0  0  0  0  0  0  0  0
  141.0365  155.2557  134.8084 H   0  0  0  0  0  0  0  0  0  0  0  0
  142.7386  155.6450  134.2646 H   0  0  0  0  0  0  0  0  0  0  0  0
  142.5342  154.4285  136.4819 H   0  0  0  0  0  0  0  0  0  0  0  0
  143.4814  155.9703  136.4758 H   0  0  0  0  0  0  0  0  0  0  0  0
  1  2  1  0
  2  3  2  0
  2  4  1  0
  4  5  1  0
  5  6  1  0
  6  7  1  0
  7  8  1  0
  8  9  2  0
  9 10  1  0
 10 11  2  0
 11 12  1  0
 12 13  2  0
 13 14  1  0
 14 15  1  0
 14 16  2  0
 13 17  1  0
 17 18  1  0
 18 19  1  0
 18 20  2  0
 17 21  1  0
 21 22  2  0
  7 23  1  0
 23 24  1  0
 24  4  1  0
 22  8  1  0
 21 11  1  0
  1 25  1  0
  1 26  1  0
  1 27  1  0
  5 28  1  0
  5 29  1  0
  6 30  1  0
  6 31  1  0
  7 32  1  0
  9 33  1  0
 10 34  1  0
 12 35  1  0
 15 36  1  0
 15 37  1  0
 19 38  1  0
 22 39  1  0
 23 40  1  0
 23 41  1  0
 24 42  1  0
 24 43  1  0
M  CHG  1  19  -1
M  END
>  <UniqueID>  (40) 
40

>  <SMILES>  (40) 
CC(=O)N1CCC(c2ccc3cc(C(N)=O)n(C([NH-])=O)c3c2)CC1

>  <Energy>  (40) 
86.11747469770502

>  <Genealogy>  (40) 
CC(=O)N1CCC(c2ccc3cc(C(N)=O)n(C([NH-])=O)c3c2)CC1 (protonated)
CC(=O)N1CCC(c2ccc3cc(C(N)=O)n(C([NH-])=O)c3c2)CC1 (3D coordinates assigned)
CC(=O)N1CCC(c2ccc3cc(C(N)=O)n(C([NH-])=O)c3c2)CC1 (nonaromatic ring conformer: 86.11747469770502 kcal/mol)

>  <smiles>  (40) 
CC(=O)N1CCC(c2ccc3cc(C(N)=O)n(C(N)=O)c3c2)CC1

>  <score_type>  (40) 
oracle

>  <origin>  (40) 
adg

>  <m_score__min__energy>  (40) 
-8.1300000000000008

>  <m_primary>  (40) 
energy

$$$$
40:0
     RDKit          3D

 53 55  0  0  0  0  0  0  0  0999 V2000
  148.1230  160.1280  132.1880 C   0  0  0  0  0  0  0  0  0  0  0  0
  147.5670  159.7970  133.5110 N   0  0  0  0  0  0  0  0  0  0  0  0
  148.2220  158.6120  134.1030 C   0  0  0  0  0  0  0  0  0  0  0  0
  147.8360  157.2990  133.3930 C   0  0  0  0  0  0  0  0  0  0  0  0
  146.3550  157.2740  132.9410 C   0  0  0  0  0  0  0  0  0  0  0  0
  145.7570  155.8830  133.0540 C   0  0  0  0  0  0  0  0  0  0  0  0
  146.5790  154.7280  132.9480 C   0  0  0  0  0  0  0  0  0  0  0  0
  146.0250  153.4410  133.0380 C   0  0  0  0  0  0  0  0  0  0  0  0
  144.6530  153.3330  133.2440 C   0  0  0  0  0  0  0  0  0  0  0  0
  143.8580  152.2140  133.3350 C   0  0  0  0  0  0  0  0  0  0  0  0
  142.5660  152.6960  133.5260 C   0  0  0  0  0  0  0  0  0  0  0  0
  141.3950  151.8220  133.7360 C   0  0  0  0  0  0  0  0  0  0  0  0
  140.2650  151.8750  132.8630 N   0  0  0  0  0  0  0  0  0  0  0  0
  141.3680  151.0520  134.7330 O   0  0  0  0  0  0  0  0  0  0  0  0
  142.5580  154.0590  133.5380 N   0  0  0  0  0  0  0  0  0  0  0  0
  141.4170  154.9270  133.6020 C   0  0  0  0  0  0  0  0  0  0  0  0
  140.3430  154.5900  133.0330 O   0  0  0  0  0  0  0  0  0  0  0  0
  141.5130  156.1420  134.2960 O   0  0  0  0  0  0  0  0  0  0  0  0
  140.9000  157.3860  133.9270 C   0  0  0  0  0  0  0  0  0  0  0  0
  141.1070  158.3580  135.0980 C   0  0  0  0  0  0  0  0  0  0  0  0
  141.5740  157.9700  132.6710 C   0  0  0  0  0  0  0  0  0  0  0  0
  139.3880  157.1970  133.6960 C   0  0  0  0  0  0  0  0  0  0  0  0
  143.8460  154.4340  133.3670 C   0  0  0  0  0  0  0  0  0  0  0  0
  144.3670  155.7290  133.2570 C   0  0  0  0  0  0  0  0  0  0  0  0
  145.5160  158.3060  133.7070 C   0  0  0  0  0  0  0  0  0  0  0  0
  146.0820  159.7260  133.5020 C   0  0  0  0  0  0  0  0  0  0  0  0
  149.0619  160.6870  132.3143 H   0  0  0  0  0  0  0  0  0  0  0  0
  148.3206  159.2004  131.6308 H   0  0  0  0  0  0  0  0  0  0  0  0
  147.4017  160.7439  131.6308 H   0  0  0  0  0  0  0  0  0  0  0  0
  149.3121  158.7417  134.0337 H   0  0  0  0  0  0  0  0  0  0  0  0
  147.8858  158.5349  135.1475 H   0  0  0  0  0  0  0  0  0  0  0  0
  148.4760  157.1774  132.5067 H   0  0  0  0  0  0  0  0  0  0  0  0
  147.9763  156.4795  134.1132 H   0  0  0  0  0  0  0  0  0  0  0  0
  146.3355  157.5538  131.8773 H   0  0  0  0  0  0  0  0  0  0  0  0
  147.6619  154.8439  132.7936 H   0  0  0  0  0  0  0  0  0  0  0  0
  146.6566  152.5449  132.9483 H   0  0  0  0  0  0  0  0  0  0  0  0
  144.1754  151.1628  133.2706 H   0  0  0  0  0  0  0  0  0  0  0  0
  140.1800  152.6180  132.1350 H   0  0  0  0  0  0  0  0  0  0  0  0
  139.4650  151.2190  133.0030 H   0  0  0  0  0  0  0  0  0  0  0  0
  140.9917  157.8167  136.0486 H   0  0  0  0  0  0  0  0  0  0  0  0
  142.1172  158.7897  135.0420 H   0  0  0  0  0  0  0  0  0  0  0  0
  140.3603  159.1638  135.0420 H   0  0  0  0  0  0  0  0  0  0  0  0
  142.3735  158.6627  132.9725 H   0  0  0  0  0  0  0  0  0  0  0  0
  142.0030  157.1534  132.0718 H   0  0  0  0  0  0  0  0  0  0  0  0
  140.8268  158.5109  132.0718 H   0  0  0  0  0  0  0  0  0  0  0  0
  138.8740  157.1328  134.6664 H   0  0  0  0  0  0  0  0  0  0  0  0
  138.9940  158.0529  133.1284 H   0  0  0  0  0  0  0  0  0  0  0  0
  139.2168  156.2705  133.1284 H   0  0  0  0  0  0  0  0  0  0  0  0
  143.7086  156.6074  133.3271 H   0  0  0  0  0  0  0  0  0  0  0  0
  144.4796  158.2735  133.3399 H   0  0  0  0  0  0  0  0  0  0  0  0
  145.5478  158.0631  134.7794 H   0  0  0  0  0  0  0  0  0  0  0  0
  145.7244  160.1033  132.5326 H   0  0  0  0  0  0  0  0  0  0  0  0
  145.7313  160.3318  134.3506 H   0  0  0  0  0  0  0  0  0  0  0  0
  1  2  1  0
  2  3  1  0
  3  4  1  0
  4  5  1  0
  5  6  1  0
  6  7  2  0
  7  8  1  0
  8  9  2  0
  9 10  1  0
 10 11  2  0
 11 12  1  0
 12 13  1  0
 12 14  2  0
 11 15  1  0
 15 16  1  0
 16 17  2  0
 16 18  1  0
 18 19  1  0
 19 20  1  0
 19 21  1  0
 19 22  1  0
 15 23  1  0
 23 24  2  0
  5 25  1  0
 25 26  1  0
 26  2  1  0
 24  6  1  0
 23  9  1  0
  1 27  1  0
  1 28  1  0
  1 29  1  0
  3 30  1  0
  3 31  1  0
  4 32  1  0
  4 33  1  0
  5 34  1  0
  7 35  1  0
  8 36  1  0
 10 37  1  0
 13 38  1  0
 13 39  1  0
 20 40  1  0
 20 41  1  0
 20 42  1  0
 21 43  1  0
 21 44  1  0
 21 45  1  0
 22 46  1  0
 22 47  1  0
 22 48  1  0
 24 49  1  0
 25 50  1  0
 25 51  1  0
 26 52  1  0
 26 53  1  0
M  END
>  <UniqueID>  (41) 
41

>  <SMILES>  (41) 
CN1CCC(c2ccc3cc(C(N)=O)n(C(=O)OC(C)(C)C)c3c2)CC1

>  <Energy>  (41) 
97.20299386729305

>  <Genealogy>  (41) 
CN1CCC(c2ccc3cc(C(N)=O)n(C(=O)OC(C)(C)C)c3c2)CC1 (3D coordinates assigned)
CN1CCC(c2ccc3cc(C(N)=O)n(C(=O)OC(C)(C)C)c3c2)CC1 (nonaromatic ring conformer: 97.20299386729305 kcal/mol)

>  <smiles>  (41) 
CN1CCC(c2ccc3cc(C(N)=O)n(C(=O)OC(C)(C)C)c3c2)CC1

>  <score_type>  (41) 
oracle

>  <origin>  (41) 
adg

>  <m_score__min__energy>  (41) 
-8.1600000000000001

>  <m_primary>  (41) 
energy

$$$$
41:0
     RDKit          3D

 51 53  0  0  0  0  0  0  0  0999 V2000
  144.9630  155.0300  134.8490 C   0  0  0  0  0  0  0  0  0  0  0  0
  144.5690  155.0340  133.3600 C   0  0  0  0  0  0  0  0  0  0  0  0
  144.8990  153.6610  132.7530 C   0  0  0  0  0  0  0  0  0  0  0  0
  143.0610  155.3020  133.1940 C   0  0  0  0  0  0  0  0  0  0  0  0
  145.3370  156.0070  132.6390 O   0  0  0  0  0  0  0  0  0  0  0  0
  146.4390  156.7280  133.1230 C   0  0  0  0  0  0  0  0  0  0  0  0
  147.4720  156.1340  133.5340 O   0  0  0  0  0  0  0  0  0  0  0  0
  146.3820  158.1620  133.1490 N   0  0  0  0  0  0  0  0  0  0  0  0
  147.3930  159.0440  132.9130 C   0  0  0  0  0  0  0  0  0  0  0  0
  148.7540  158.6960  132.4590 C   0  0  0  0  0  0  0  0  0  0  0  0
  149.0360  157.4300  131.8620 N   0  0  0  0  0  0  0  0  0  0  0  0
  149.6740  159.5540  132.5480 O   0  0  0  0  0  0  0  0  0  0  0  0
  146.9570  160.3530  133.1000 C   0  0  0  0  0  0  0  0  0  0  0  0
  145.6290  160.2480  133.4460 C   0  0  0  0  0  0  0  0  0  0  0  0
  144.6980  161.2380  133.7430 C   0  0  0  0  0  0  0  0  0  0  0  0
  143.3960  160.8380  134.0860 C   0  0  0  0  0  0  0  0  0  0  0  0
  143.0510  159.4630  134.1400 C   0  0  0  0  0  0  0  0  0  0  0  0
  141.6510  159.0380  134.5210 C   0  0  0  0  0  0  0  0  0  0  0  0
  140.7050  158.7760  133.3140 C   0  0  1  0  0  0  0  0  0  0  0  0
  141.3940  157.9960  132.3630 O   0  0  0  0  0  0  0  0  0  0  0  0
  139.4900  157.9750  133.7420 C   0  0  0  0  0  0  0  0  0  0  0  0
  138.3660  157.9980  133.0130 C   0  0  0  0  0  0  0  0  0  0  0  0
  138.2500  158.8860  131.8400 C   0  0  0  0  0  0  0  0  0  0  0  0
  139.1640  159.8360  131.6200 C   0  0  0  0  0  0  0  0  0  0  0  0
  140.2380  160.1010  132.6420 C   0  0  0  0  0  0  0  0  0  0  0  0
  144.0310  158.4870  133.8540 C   0  0  0  0  0  0  0  0  0  0  0  0
  145.3080  158.9150  133.4760 C   0  0  0  0  0  0  0  0  0  0  0  0
  144.0543  155.0392  135.4688 H   0  0  0  0  0  0  0  0  0  0  0  0
  145.5489  154.1259  135.0708 H   0  0  0  0  0  0  0  0  0  0  0  0
  145.5672  155.9221  135.0708 H   0  0  0  0  0  0  0  0  0  0  0  0
  145.0734  152.9352  133.5610 H   0  0  0  0  0  0  0  0  0  0  0  0
  144.0566  153.3227  132.1318 H   0  0  0  0  0  0  0  0  0  0  0  0
  145.8031  153.7425  132.1318 H   0  0  0  0  0  0  0  0  0  0  0  0
  142.5921  155.3853  134.1855 H   0  0  0  0  0  0  0  0  0  0  0  0
  142.9143  156.2403  132.6390 H   0  0  0  0  0  0  0  0  0  0  0  0
  142.5999  154.4717  132.6390 H   0  0  0  0  0  0  0  0  0  0  0  0
  150.0130  157.1850  131.5890 H   0  0  0  0  0  0  0  0  0  0  0  0
  148.2680  156.7690  131.6100 H   0  0  0  0  0  0  0  0  0  0  0  0
  147.5480  161.2747  132.9939 H   0  0  0  0  0  0  0  0  0  0  0  0
  144.9733  162.3025  133.7102 H   0  0  0  0  0  0  0  0  0  0  0  0
  142.6356  161.5991  134.3152 H   0  0  0  0  0  0  0  0  0  0  0  0
  141.7215  158.1114  135.1096 H   0  0  0  0  0  0  0  0  0  0  0  0
  141.2131  159.8743  135.0857 H   0  0  0  0  0  0  0  0  0  0  0  0
  141.7510  158.6050  131.6650 H   0  0  0  0  0  0  0  0  0  0  0  0
  139.5321  157.3696  134.6595 H   0  0  0  0  0  0  0  0  0  0  0  0
  137.5223  157.3493  133.2913 H   0  0  0  0  0  0  0  0  0  0  0  0
  137.4072  158.7654  131.1434 H   0  0  0  0  0  0  0  0  0  0  0  0
  139.1318  160.4249  130.6915 H   0  0  0  0  0  0  0  0  0  0  0  0
  141.0976  160.5758  132.1463 H   0  0  0  0  0  0  0  0  0  0  0  0
  139.8282  160.7635  133.4187 H   0  0  0  0  0  0  0  0  0  0  0  0
  143.7955  157.4150  133.9268 H   0  0  0  0  0  0  0  0  0  0  0  0
  1  2  1  0
  2  3  1  0
  2  4  1  0
  2  5  1  0
  5  6  1  0
  6  7  2  0
  6  8  1  0
  8  9  1  0
  9 10  1  0
 10 11  1  0
 10 12  2  0
  9 13  2  0
 13 14  1  0
 14 15  2  0
 15 16  1  0
 16 17  2  0
 17 18  1  0
 18 19  1  0
 19 20  1  6
 19 21  1  0
 21 22  2  0
 22 23  1  0
 23 24  2  0
 24 25  1  0
 17 26  1  0
 26 27  2  0
 27  8  1  0
 27 14  1  0
 25 19  1  0
  1 28  1  0
  1 29  1  0
  1 30  1  0
  3 31  1  0
  3 32  1  0
  3 33  1  0
  4 34  1  0
  4 35  1  0
  4 36  1  0
 11 37  1  0
 11 38  1  0
 13 39  1  0
 15 40  1  0
 16 41  1  0
 18 42  1  0
 18 43  1  0
 20 44  1  0
 21 45  1  0
 22 46  1  0
 23 47  1  0
 24 48  1  0
 25 49  1  0
 25 50  1  0
 26 51  1  0
M  END
>  <UniqueID>  (42) 
42

>  <SMILES>  (42) 
CC(C)(C)OC(=O)n1c(C(N)=O)cc2ccc(C[C@@]3(O)C=CC=CC3)cc21

>  <Energy>  (42) 
87.9410533819193

>  <Genealogy>  (42) 
CC(C)(C)OC(=O)n1c(C(N)=O)cc2ccc(C[C@@]3(O)C=CC=CC3)cc21 (chirality)
CC(C)(C)OC(=O)n1c(C(N)=O)cc2ccc(C[C@@]3(O)C=CC=CC3)cc21 (3D coordinates assigned)
CC(C)(C)OC(=O)n1c(C(N)=O)cc2ccc(C[C@@]3(O)C=CC=CC3)cc21 (nonaromatic ring conformer: 87.9410533819193 kcal/mol)

>  <smiles>  (42) 
CC(C)(C)OC(=O)n1c(C(N)=O)cc2ccc(CC3(O)C=CC=CC3)cc21

>  <score_type>  (42) 
oracle

>  <origin>  (42) 
adg

>  <m_score__min__energy>  (42) 
-9.5

>  <m_primary>  (42) 
energy

$$$$
42:0
     RDKit          3D

 73 77  0  0  0  0  0  0  0  0999 V2000
  138.2610  148.9860  131.2190 C   0  0  0  0  0  0  0  0  0  0  0  0
  139.3550  148.4290  130.2880 C   0  0  0  0  0  0  0  0  0  0  0  0
  139.3230  146.8880  130.2740 C   0  0  0  0  0  0  0  0  0  0  0  0
  139.1030  148.9450  128.8630 C   0  0  0  0  0  0  0  0  0  0  0  0
  140.6510  148.9010  130.6860 O   0  0  0  0  0  0  0  0  0  0  0  0
  141.1230  149.0200  132.0010 C   0  0  0  0  0  0  0  0  0  0  0  0
  141.4010  148.0070  132.6940 O   0  0  0  0  0  0  0  0  0  0  0  0
  141.2980  150.3170  132.5600 N   0  0  0  0  0  0  0  0  0  0  0  0
  141.7350  150.8970  133.8420 C   0  0  0  0  0  0  0  0  0  0  0  0
  141.5940  152.3320  133.4180 C   0  0  0  0  0  0  0  0  0  0  0  0
  142.8530  153.0740  133.2880 N   0  0  0  0  0  0  0  0  0  0  0  0
  142.9660  154.4130  133.3690 C   0  0  0  0  0  0  0  0  0  0  0  0
  144.3030  154.7440  133.2420 C   0  0  0  0  0  0  0  0  0  0  0  0
  144.9170  156.0930  133.3110 C   0  0  0  0  0  0  0  0  0  0  0  0
  146.2830  156.2820  132.9770 C   0  0  0  0  0  0  0  0  0  0  0  0
  146.8610  157.5620  133.0110 C   0  0  0  0  0  0  0  0  0  0  0  0
  146.0550  158.6330  133.3780 C   0  0  0  0  0  0  0  0  0  0  0  0
  146.3660  159.9690  133.5070 C   0  0  0  0  0  0  0  0  0  0  0  0
  145.1820  160.5860  133.8980 C   0  0  0  0  0  0  0  0  0  0  0  0
  145.0480  162.0460  134.0710 C   0  0  0  0  0  0  0  0  0  0  0  0
  146.1170  162.8290  134.6030 N   0  0  0  0  0  0  0  0  0  0  0  0
  143.9500  162.6010  133.8080 O   0  0  0  0  0  0  0  0  0  0  0  0
  144.1800  159.6690  134.0270 N   0  0  0  0  0  0  0  0  0  0  0  0
  142.8440  159.8940  134.5100 C   0  0  0  0  0  0  0  0  0  0  0  0
  142.0520  160.6300  133.8590 O   0  0  0  0  0  0  0  0  0  0  0  0
  142.4350  159.3180  135.7160 O   0  0  0  0  0  0  0  0  0  0  0  0
  141.6500  158.1340  135.7880 C   0  0  0  0  0  0  0  0  0  0  0  0
  140.2360  158.4460  135.2970 C   0  0  0  0  0  0  0  0  0  0  0  0
  139.7820  157.4290  134.3170 N   0  0  0  0  0  0  0  0  0  0  0  0
  138.4600  157.7500  133.7300 C   0  0  0  0  0  0  0  0  0  0  0  0
  138.5660  158.6160  132.4560 C   0  0  0  0  0  0  0  0  0  0  0  0
  139.7980  159.3020  132.4140 O   0  0  0  0  0  0  0  0  0  0  0  0
  140.8600  158.3780  132.2550 C   0  0  0  0  0  0  0  0  0  0  0  0
  140.7770  157.1910  133.2470 C   0  0  0  0  0  0  0  0  0  0  0  0
  144.7320  158.4780  133.6990 C   0  0  0  0  0  0  0  0  0  0  0  0
  144.1360  157.2100  133.6950 C   0  0  0  0  0  0  0  0  0  0  0  0
  144.9540  153.5280  133.0850 C   0  0  0  0  0  0  0  0  0  0  0  0
  144.0510  152.5300  133.1250 N   0  0  0  0  0  0  0  0  0  0  0  0
  141.1570  151.7170  132.1230 C   0  0  0  0  0  0  0  0  0  0  0  0
  138.5591  148.8342  132.2669 H   0  0  0  0  0  0  0  0  0  0  0  0
  138.1289  150.0611  131.0274 H   0  0  0  0  0  0  0  0  0  0  0  0
  137.3139  148.4603  131.0274 H   0  0  0  0  0  0  0  0  0  0  0  0
  139.3152  146.5120  131.3077 H   0  0  0  0  0  0  0  0  0  0  0  0
  138.4175  146.5448  129.7521 H   0  0  0  0  0  0  0  0  0  0  0  0
  140.2134  146.5075  129.7521 H   0  0  0  0  0  0  0  0  0  0  0  0
  138.6207  149.9325  128.9106 H   0  0  0  0  0  0  0  0  0  0  0  0
  140.0610  149.0301  128.3291 H   0  0  0  0  0  0  0  0  0  0  0  0
  138.4469  148.2418  128.3291 H   0  0  0  0  0  0  0  0  0  0  0  0
  141.0697  150.6328  134.6772 H   0  0  0  0  0  0  0  0  0  0  0  0
  142.7150  150.5809  134.2289 H   0  0  0  0  0  0  0  0  0  0  0  0
  141.0240  153.0737  133.9968 H   0  0  0  0  0  0  0  0  0  0  0  0
  142.1373  155.1222  133.5117 H   0  0  0  0  0  0  0  0  0  0  0  0
  146.8967  155.4160  132.6880 H   0  0  0  0  0  0  0  0  0  0  0  0
  147.9201  157.7121  132.7547 H   0  0  0  0  0  0  0  0  0  0  0  0
  147.3424  160.4461  133.3370 H   0  0  0  0  0  0  0  0  0  0  0  0
  146.0230  163.8670  134.6700 H   0  0  0  0  0  0  0  0  0  0  0  0
  146.9700  162.3790  135.0020 H   0  0  0  0  0  0  0  0  0  0  0  0
  142.0977  157.3551  135.1533 H   0  0  0  0  0  0  0  0  0  0  0  0
  141.6127  157.7745  136.8269 H   0  0  0  0  0  0  0  0  0  0  0  0
  139.5489  158.4510  136.1560 H   0  0  0  0  0  0  0  0  0  0  0  0
  140.2425  159.4303  134.8060 H   0  0  0  0  0  0  0  0  0  0  0  0
  137.9511  156.8090  133.4741 H   0  0  0  0  0  0  0  0  0  0  0  0
  137.8969  158.3279  134.4776 H   0  0  0  0  0  0  0  0  0  0  0  0
  138.4850  157.9669  131.5716 H   0  0  0  0  0  0  0  0  0  0  0  0
  137.7521  159.3560  132.4656 H   0  0  0  0  0  0  0  0  0  0  0  0
  140.8302  157.9816  131.2294 H   0  0  0  0  0  0  0  0  0  0  0  0
  141.7986  158.9143  132.4583 H   0  0  0  0  0  0  0  0  0  0  0  0
  140.4920  156.2846  132.6927 H   0  0  0  0  0  0  0  0  0  0  0  0
  141.7631  157.0753  133.7206 H   0  0  0  0  0  0  0  0  0  0  0  0
  143.0822  157.0847  133.9845 H   0  0  0  0  0  0  0  0  0  0  0  0
  146.0380  153.3998  132.9492 H   0  0  0  0  0  0  0  0  0  0  0  0
  140.1216  151.9768  131.8575 H   0  0  0  0  0  0  0  0  0  0  0  0
  141.7033  152.0165  131.2164 H   0  0  0  0  0  0  0  0  0  0  0  0
  1  2  1  0
  2  3  1  0
  2  4  1  0
  2  5  1  0
  5  6  1  0
  6  7  2  0
  6  8  1  0
  8  9  1  0
  9 10  1  0
 10 11  1  0
 11 12  1  0
 12 13  2  0
 13 14  1  0
 14 15  2  0
 15 16  1  0
 16 17  2  0
 17 18  1  0
 18 19  2  0
 19 20  1  0
 20 21  1  0
 20 22  2  0
 19 23  1  0
 23 24  1  0
 24 25  2  0
 24 26  1  0
 26 27  1  0
 27 28  1  0
 28 29  1  0
 29 30  1  0
 30 31  1  0
 31 32  1  0
 32 33  1  0
 33 34  1  0
 23 35  1  0
 35 36  2  0
 13 37  1  0
 37 38  2  0
 10 39  1  0
 39  8  1  0
 38 11  1  0
 36 14  1  0
 35 17  1  0
 34 29  1  0
  1 40  1  0
  1 41  1  0
  1 42  1  0
  3 43  1  0
  3 44  1  0
  3 45  1  0
  4 46  1  0
  4 47  1  0
  4 48  1  0
  9 49  1  0
  9 50  1  0
 10 51  1  0
 12 52  1  0
 15 53  1  0
 16 54  1  0
 18 55  1  0
 21 56  1  0
 21 57  1  0
 27 58  1  0
 27 59  1  0
 28 60  1  0
 28 61  1  0
 30 62  1  0
 30 63  1  0
 31 64  1  0
 31 65  1  0
 33 66  1  0
 33 67  1  0
 34 68  1  0
 34 69  1  0
 36 70  1  0
 37 71  1  0
 39 72  1  0
 39 73  1  0
M  END
>  <UniqueID>  (43) 
43

>  <SMILES>  (43) 
CC(C)(C)OC(=O)N1CC(n2cc(-c3ccc4cc(C(N)=O)n(C(=O)OCCN5CCOCC5)c4c3)cn2)C1

>  <Energy>  (43) 
198.54154568990916

>  <Genealogy>  (43) 
CC(C)(C)OC(=O)N1CC(n2cc(-c3ccc4cc(C(N)=O)n(C(=O)OCCN5CCOCC5)c4c3)cn2)C1 (3D coordinates assigned)
CC(C)(C)OC(=O)N1CC(n2cc(-c3ccc4cc(C(N)=O)n(C(=O)OCCN5CCOCC5)c4c3)cn2)C1 (nonaromatic ring conformer: 198.54154568990916 kcal/mol)

>  <smiles>  (43) 
CC(C)(C)OC(=O)N1CC(n2cc(-c3ccc4cc(C(N)=O)n(C(=O)OCCN5CCOCC5)c4c3)cn2)C1

>  <score_type>  (43) 
oracle

>  <origin>  (43) 
adg

>  <m_score__min__energy>  (43) 
-10.9

>  <m_primary>  (43) 
energy

$$$$
43:0
     RDKit          3D

 49 51  0  0  0  0  0  0  0  0999 V2000
  139.8700  159.0230  130.5100 C   0  0  0  0  0  0  0  0  0  0  0  0
  139.1140  159.3000  131.8240 C   0  0  0  0  0  0  0  0  0  0  0  0
  139.2590  160.7880  132.1760 C   0  0  0  0  0  0  0  0  0  0  0  0
  137.6180  158.9680  131.6720 C   0  0  0  0  0  0  0  0  0  0  0  0
  139.6890  158.5530  132.9040 O   0  0  0  0  0  0  0  0  0  0  0  0
  139.7360  157.1550  133.0180 C   0  0  0  0  0  0  0  0  0  0  0  0
  139.1310  156.4180  132.1950 O   0  0  0  0  0  0  0  0  0  0  0  0
  140.4600  156.5630  134.1080 N   0  0  0  0  0  0  0  0  0  0  0  0
  140.7930  157.1300  135.3030 C   0  0  0  0  0  0  0  0  0  0  0  0
  140.3420  158.4480  135.7930 C   0  0  0  0  0  0  0  0  0  0  0  0
  140.9040  159.6390  135.2440 N   0  0  0  0  0  0  0  0  0  0  0  0
  139.4920  158.5380  136.7180 O   0  0  0  0  0  0  0  0  0  0  0  0
  141.5670  156.2520  136.0600 C   0  0  0  0  0  0  0  0  0  0  0  0
  141.6940  155.1180  135.2890 C   0  0  0  0  0  0  0  0  0  0  0  0
  142.3710  153.9310  135.5470 C   0  0  0  0  0  0  0  0  0  0  0  0
  142.3600  152.9350  134.5560 C   0  0  0  0  0  0  0  0  0  0  0  0
  141.6870  153.1490  133.3260 C   0  0  0  0  0  0  0  0  0  0  0  0
  141.6840  152.0800  132.2640 C   0  0  0  0  0  0  0  0  0  0  0  0
  141.0340  150.8150  132.7640 C   0  0  0  0  0  0  0  0  0  0  0  0
  140.9880  150.6260  134.0100 O   0  0  0  0  0  0  0  0  0  0  0  0
  140.4180  149.8130  131.8500 C   0  0  0  0  0  0  0  0  0  0  0  0
  140.7910  148.4570  131.9450 C   0  0  0  0  0  0  0  0  0  0  0  0
  140.2170  147.5000  131.1020 C   0  0  0  0  0  0  0  0  0  0  0  0
  139.2680  147.8800  130.1530 C   0  0  0  0  0  0  0  0  0  0  0  0
  138.7140  146.9480  129.3390 F   0  0  0  0  0  0  0  0  0  0  0  0
  138.8900  149.2210  130.0430 C   0  0  0  0  0  0  0  0  0  0  0  0
  137.9700  149.5930  129.1180 F   0  0  0  0  0  0  0  0  0  0  0  0
  139.4610  150.1820  130.8830 C   0  0  0  0  0  0  0  0  0  0  0  0
  141.0000  154.3640  133.1060 C   0  0  0  0  0  0  0  0  0  0  0  0
  141.0150  155.3310  134.1170 C   0  0  0  0  0  0  0  0  0  0  0  0
  140.8802  158.6529  130.7392 H   0  0  0  0  0  0  0  0  0  0  0  0
  139.3257  158.2659  129.9264 H   0  0  0  0  0  0  0  0  0  0  0  0
  139.9437  159.9525  129.9264 H   0  0  0  0  0  0  0  0  0  0  0  0
  139.2706  160.9067  133.2695 H   0  0  0  0  0  0  0  0  0  0  0  0
  140.1991  161.1744  131.7553 H   0  0  0  0  0  0  0  0  0  0  0  0
  138.4112  161.3486  131.7553 H   0  0  0  0  0  0  0  0  0  0  0  0
  137.1618  158.8668  132.6678 H   0  0  0  0  0  0  0  0  0  0  0  0
  137.1172  159.7769  131.1198 H   0  0  0  0  0  0  0  0  0  0  0  0
  137.5063  158.0232  131.1198 H   0  0  0  0  0  0  0  0  0  0  0  0
  140.7490  159.8930  134.2430 H   0  0  0  0  0  0  0  0  0  0  0  0
  141.9873  156.4277  137.0612 H   0  0  0  0  0  0  0  0  0  0  0  0
  142.8997  153.7763  136.4991 H   0  0  0  0  0  0  0  0  0  0  0  0
  142.8777  151.9812  134.7356 H   0  0  0  0  0  0  0  0  0  0  0  0
  141.1288  152.4464  131.3880 H   0  0  0  0  0  0  0  0  0  0  0  0
  142.7264  151.8530  131.9961 H   0  0  0  0  0  0  0  0  0  0  0  0
  141.5404  148.1487  132.6889 H   0  0  0  0  0  0  0  0  0  0  0  0
  140.5148  146.4445  131.1876 H   0  0  0  0  0  0  0  0  0  0  0  0
  139.1606  151.2359  130.7883 H   0  0  0  0  0  0  0  0  0  0  0  0
  140.4658  154.5454  132.1617 H   0  0  0  0  0  0  0  0  0  0  0  0
  1  2  1  0
  2  3  1  0
  2  4  1  0
  2  5  1  0
  5  6  1  0
  6  7  2  0
  6  8  1  0
  8  9  1  0
  9 10  1  0
 10 11  1  0
 10 12  2  0
  9 13  2  0
 13 14  1  0
 14 15  2  0
 15 16  1  0
 16 17  2  0
 17 18  1  0
 18 19  1  0
 19 20  2  0
 19 21  1  0
 21 22  2  0
 22 23  1  0
 23 24  2  0
 24 25  1  0
 24 26  1  0
 26 27  1  0
 26 28  2  0
 17 29  1  0
 29 30  2  0
 30  8  1  0
 30 14  1  0
 28 21  1  0
  1 31  1  0
  1 32  1  0
  1 33  1  0
  3 34  1  0
  3 35  1  0
  3 36  1  0
  4 37  1  0
  4 38  1  0
  4 39  1  0
 11 40  1  0
 13 41  1  0
 15 42  1  0
 16 43  1  0
 18 44  1  0
 18 45  1  0
 22 46  1  0
 23 47  1  0
 28 48  1  0
 29 49  1  0
M  CHG  1  11  -1
M  END
>  <UniqueID>  (44) 
44

>  <SMILES>  (44) 
CC(C)(C)OC(=O)n1c(C([NH-])=O)cc2ccc(CC(=O)c3ccc(F)c(F)c3)cc21

>  <Energy>  (44) 
85.6064234592632

>  <Genealogy>  (44) 
CC(C)(C)OC(=O)n1c(C([NH-])=O)cc2ccc(CC(=O)c3ccc(F)c(F)c3)cc21 (protonated)
CC(C)(C)OC(=O)n1c(C([NH-])=O)cc2ccc(CC(=O)c3ccc(F)c(F)c3)cc21 (3D coordinates assigned)
CC(C)(C)OC(=O)n1c(C([NH-])=O)cc2ccc(CC(=O)c3ccc(F)c(F)c3)cc21 (optimized conformer: 85.6064234592632 kcal/mol)

>  <smiles>  (44) 
CC(C)(C)OC(=O)n1c(C(N)=O)cc2ccc(CC(=O)c3ccc(F)c(F)c3)cc21

>  <score_type>  (44) 
oracle

>  <origin>  (44) 
adg

>  <m_score__min__energy>  (44) 
-8.8499999999999996

>  <m_primary>  (44) 
energy

$$$$
44:0
     RDKit          3D

 24 25  0  0  0  0  0  0  0  0999 V2000
  149.3640  159.4570  132.5480 C   0  0  0  0  0  0  0  0  0  0  0  0
  147.9470  159.1020  132.8900 C   0  0  0  0  0  0  0  0  0  0  0  0
  147.4990  157.7650  132.7540 C   0  0  0  0  0  0  0  0  0  0  0  0
  146.1620  157.4290  133.0230 C   0  0  0  0  0  0  0  0  0  0  0  0
  145.3000  158.4470  133.4200 C   0  0  0  0  0  0  0  0  0  0  0  0
  143.9550  158.4040  133.7100 C   0  0  0  0  0  0  0  0  0  0  0  0
  143.6050  159.7150  134.0280 C   0  0  0  0  0  0  0  0  0  0  0  0
  142.2540  160.1030  134.4880 C   0  0  0  0  0  0  0  0  0  0  0  0
  141.4490  160.9980  133.7260 N   0  0  0  0  0  0  0  0  0  0  0  0
  141.8250  159.6760  135.5930 O   0  0  0  0  0  0  0  0  0  0  0  0
  144.6880  160.5380  133.9280 N   0  0  0  0  0  0  0  0  0  0  0  0
  144.7280  161.9650  134.0880 C   0  0  0  0  0  0  0  0  0  0  0  0
  145.5640  162.4940  134.8680 O   0  0  0  0  0  0  0  0  0  0  0  0
  143.8300  162.7740  133.4040 O   0  0  0  0  0  0  0  0  0  0  0  0
  145.7180  159.7450  133.5590 C   0  0  0  0  0  0  0  0  0  0  0  0
  147.0400  160.1120  133.2790 C   0  0  0  0  0  0  0  0  0  0  0  0
  149.9396  159.6012  133.4742 H   0  0  0  0  0  0  0  0  0  0  0  0
  149.8139  158.6438  131.9595 H   0  0  0  0  0  0  0  0  0  0  0  0
  149.3774  160.3863  131.9595 H   0  0  0  0  0  0  0  0  0  0  0  0
  148.2042  156.9833  132.4350 H   0  0  0  0  0  0  0  0  0  0  0  0
  145.8070  156.3927  132.9229 H   0  0  0  0  0  0  0  0  0  0  0  0
  143.2968  157.5228  133.6941 H   0  0  0  0  0  0  0  0  0  0  0  0
  141.8460  161.8880  133.3490 H   0  0  0  0  0  0  0  0  0  0  0  0
  147.3637  161.1602  133.3600 H   0  0  0  0  0  0  0  0  0  0  0  0
  1  2  1  0
  2  3  2  0
  3  4  1  0
  4  5  2  0
  5  6  1  0
  6  7  2  0
  7  8  1  0
  8  9  1  0
  8 10  2  0
  7 11  1  0
 11 12  1  0
 12 13  2  0
 12 14  1  0
 11 15  1  0
 15 16  2  0
 16  2  1  0
 15  5  1  0
  1 17  1  0
  1 18  1  0
  1 19  1  0
  3 20  1  0
  4 21  1  0
  6 22  1  0
  9 23  1  0
 16 24  1  0
M  CHG  2   9  -1  14  -1
M  END
>  <UniqueID>  (45) 
45

>  <SMILES>  (45) 
Cc1ccc2cc(C([NH-])=O)n(C(=O)[O-])c2c1

>  <Energy>  (45) 
63.79326758369754

>  <Genealogy>  (45) 
Cc1ccc2cc(C([NH-])=O)n(C(=O)[O-])c2c1 (protonated)
Cc1ccc2cc(C([NH-])=O)n(C(=O)[O-])c2c1 (3D coordinates assigned)
Cc1ccc2cc(C([NH-])=O)n(C(=O)[O-])c2c1 (optimized conformer: 63.79326758369754 kcal/mol)

>  <smiles>  (45) 
Cc1ccc2cc(C(N)=O)n(C(=O)O)c2c1

>  <score_type>  (45) 
oracle

>  <origin>  (45) 
adg

>  <m_score__min__energy>  (45) 
-5.5499999999999998

>  <m_primary>  (45) 
energy

$$$$
45:0
     RDKit          3D

 37 38  0  0  0  0  0  0  0  0999 V2000
  147.9230  155.1760  132.6040 C   0  0  0  0  0  0  0  0  0  0  0  0
  147.7320  156.6490  132.8120 C   0  0  0  0  0  0  0  0  0  0  0  0
  148.8520  157.5140  132.8260 C   0  0  0  0  0  0  0  0  0  0  0  0
  148.6920  158.8900  133.0680 C   0  0  0  0  0  0  0  0  0  0  0  0
  147.4040  159.3650  133.2960 C   0  0  0  0  0  0  0  0  0  0  0  0
  146.9690  160.6390  133.5810 C   0  0  0  0  0  0  0  0  0  0  0  0
  145.5870  160.5330  133.7310 C   0  0  0  0  0  0  0  0  0  0  0  0
  144.7020  161.6940  133.9630 C   0  0  0  0  0  0  0  0  0  0  0  0
  143.3050  161.5820  133.7070 N   0  0  0  0  0  0  0  0  0  0  0  0
  145.1610  162.7740  134.4190 O   0  0  0  0  0  0  0  0  0  0  0  0
  145.1860  159.2420  133.5530 N   0  0  0  0  0  0  0  0  0  0  0  0
  143.8600  158.7020  133.6770 C   0  0  0  0  0  0  0  0  0  0  0  0
  143.3600  158.0490  132.7220 O   0  0  0  0  0  0  0  0  0  0  0  0
  143.1310  158.9340  134.8530 O   0  0  0  0  0  0  0  0  0  0  0  0
  141.7340  158.6800  135.0520 C   0  0  0  0  0  0  0  0  0  0  0  0
  141.2570  159.2800  136.3890 C   0  0  0  0  0  0  0  0  0  0  0  0
  140.9810  159.3660  133.9020 C   0  0  0  0  0  0  0  0  0  0  0  0
  141.4450  157.1670  135.0010 C   0  0  0  0  0  0  0  0  0  0  0  0
  146.3090  158.5410  133.2830 C   0  0  0  0  0  0  0  0  0  0  0  0
  146.4420  157.1640  133.0630 C   0  0  0  0  0  0  0  0  0  0  0  0
  147.9882  154.6733  133.5802 H   0  0  0  0  0  0  0  0  0  0  0  0
  147.0698  154.7717  132.0396 H   0  0  0  0  0  0  0  0  0  0  0  0
  148.8511  155.0027  132.0396 H   0  0  0  0  0  0  0  0  0  0  0  0
  149.8575  157.1060  132.6458 H   0  0  0  0  0  0  0  0  0  0  0  0
  149.5573  159.5691  133.0768 H   0  0  0  0  0  0  0  0  0  0  0  0
  147.5816  161.5481  133.6713 H   0  0  0  0  0  0  0  0  0  0  0  0
  142.8600  160.6510  133.5520 H   0  0  0  0  0  0  0  0  0  0  0  0
  141.7034  158.7185  137.2229 H   0  0  0  0  0  0  0  0  0  0  0  0
  141.5666  160.3338  136.4492 H   0  0  0  0  0  0  0  0  0  0  0  0
  140.1605  159.2160  136.4492 H   0  0  0  0  0  0  0  0  0  0  0  0
  140.2274  160.0526  134.3152 H   0  0  0  0  0  0  0  0  0  0  0  0
  141.6931  159.9322  133.2837 H   0  0  0  0  0  0  0  0  0  0  0  0
  140.4834  158.6044  133.2837 H   0  0  0  0  0  0  0  0  0  0  0  0
  141.3698  156.7733  136.0254 H   0  0  0  0  0  0  0  0  0  0  0  0
  140.4973  156.9924  134.4706 H   0  0  0  0  0  0  0  0  0  0  0  0
  142.2617  156.6554  134.4706 H   0  0  0  0  0  0  0  0  0  0  0  0
  145.5642  156.5015  133.0853 H   0  0  0  0  0  0  0  0  0  0  0  0
  1  2  1  0
  2  3  2  0
  3  4  1  0
  4  5  2  0
  5  6  1  0
  6  7  2  0
  7  8  1  0
  8  9  1  0
  8 10  2  0
  7 11  1  0
 11 12  1  0
 12 13  2  0
 12 14  1  0
 14 15  1  0
 15 16  1  0
 15 17  1  0
 15 18  1  0
 11 19  1  0
 19 20  2  0
 20  2  1  0
 19  5  1  0
  1 21  1  0
  1 22  1  0
  1 23  1  0
  3 24  1  0
  4 25  1  0
  6 26  1  0
  9 27  1  0
 16 28  1  0
 16 29  1  0
 16 30  1  0
 17 31  1  0
 17 32  1  0
 17 33  1  0
 18 34  1  0
 18 35  1  0
 18 36  1  0
 20 37  1  0
M  CHG  1   9  -1
M  END
>  <UniqueID>  (46) 
46

>  <SMILES>  (46) 
Cc1ccc2cc(C([NH-])=O)n(C(=O)OC(C)(C)C)c2c1

>  <Energy>  (46) 
69.99940809253812

>  <Genealogy>  (46) 
Cc1ccc2cc(C([NH-])=O)n(C(=O)OC(C)(C)C)c2c1 (protonated)
Cc1ccc2cc(C([NH-])=O)n(C(=O)OC(C)(C)C)c2c1 (3D coordinates assigned)
Cc1ccc2cc(C([NH-])=O)n(C(=O)OC(C)(C)C)c2c1 (optimized conformer: 69.99940809253812 kcal/mol)

>  <smiles>  (46) 
Cc1ccc2cc(C(N)=O)n(C(=O)OC(C)(C)C)c2c1

>  <score_type>  (46) 
oracle

>  <origin>  (46) 
adg

>  <m_score__min__energy>  (46) 
-6.6399999999999997

>  <m_primary>  (46) 
energy

$$$$
46:0
     RDKit          3D

 43 45  0  0  0  0  0  0  0  0999 V2000
  149.4440  161.3050  130.6510 C   0  0  0  0  0  0  0  0  0  0  0  0
  148.7990  159.9210  130.7080 C   0  0  0  0  0  0  0  0  0  0  0  0
  149.6710  158.9560  131.5160 C   0  0  0  0  0  0  0  0  0  0  0  0
  147.5100  160.0390  131.3110 O   0  0  0  0  0  0  0  0  0  0  0  0
  147.2730  159.8530  132.6770 C   0  0  0  0  0  0  0  0  0  0  0  0
  147.9820  160.4460  133.5350 O   0  0  0  0  0  0  0  0  0  0  0  0
  146.1990  158.9980  133.1000 N   0  0  0  0  0  0  0  0  0  0  0  0
  144.9600  159.3600  133.5420 C   0  0  0  0  0  0  0  0  0  0  0  0
  144.5010  160.7390  133.8070 C   0  0  0  0  0  0  0  0  0  0  0  0
  145.4510  161.7570  134.1150 N   0  0  0  0  0  0  0  0  0  0  0  0
  143.2800  161.0390  133.7310 O   0  0  0  0  0  0  0  0  0  0  0  0
  144.1850  158.2310  133.7970 C   0  0  0  0  0  0  0  0  0  0  0  0
  144.9950  157.1580  133.5030 C   0  0  0  0  0  0  0  0  0  0  0  0
  144.7320  155.7930  133.5670 C   0  0  0  0  0  0  0  0  0  0  0  0
  145.7480  154.9060  133.1780 C   0  0  0  0  0  0  0  0  0  0  0  0
  147.0050  155.3940  132.7260 C   0  0  0  0  0  0  0  0  0  0  0  0
  148.0600  154.5030  132.3120 N   0  0  0  0  0  0  0  0  0  0  0  0
  148.8600  153.6880  133.2270 C   0  0  0  0  0  0  0  0  0  0  0  0
  149.3430  152.4500  132.5400 C   0  0  0  0  0  0  0  0  0  0  0  0
  149.5780  152.3420  131.2530 O   0  0  0  0  0  0  0  0  0  0  0  0
  149.9800  151.1040  131.0620 C   0  0  0  0  0  0  0  0  0  0  0  0
  150.2950  150.6400  129.9350 O   0  0  0  0  0  0  0  0  0  0  0  0
  150.0160  150.4040  132.1740 O   0  0  0  0  0  0  0  0  0  0  0  0
  149.6210  151.2280  133.1130 C   0  0  0  0  0  0  0  0  0  0  0  0
  149.5070  150.9030  134.4600 O   0  0  0  0  0  0  0  0  0  0  0  0
  147.2280  156.7870  132.6710 C   0  0  0  0  0  0  0  0  0  0  0  0
  146.2040  157.6470  133.0840 C   0  0  0  0  0  0  0  0  0  0  0  0
  149.6151  161.6722  131.6737 H   0  0  0  0  0  0  0  0  0  0  0  0
  150.4047  161.2402  130.1191 H   0  0  0  0  0  0  0  0  0  0  0  0
  148.7765  161.9990  130.1191 H   0  0  0  0  0  0  0  0  0  0  0  0
  148.6996  159.5208  129.6882 H   0  0  0  0  0  0  0  0  0  0  0  0
  149.5129  159.1310  132.5904 H   0  0  0  0  0  0  0  0  0  0  0  0
  149.3969  157.9197  131.2690 H   0  0  0  0  0  0  0  0  0  0  0  0
  150.7297  159.1240  131.2690 H   0  0  0  0  0  0  0  0  0  0  0  0
  146.3280  161.8580  133.5600 H   0  0  0  0  0  0  0  0  0  0  0  0
  143.1459  158.2030  134.1570 H   0  0  0  0  0  0  0  0  0  0  0  0
  143.7565  155.4200  133.9123 H   0  0  0  0  0  0  0  0  0  0  0  0
  145.5700  153.8215  133.2233 H   0  0  0  0  0  0  0  0  0  0  0  0
  148.2990  154.4520  131.2960 H   0  0  0  0  0  0  0  0  0  0  0  0
  149.7261  154.2731  133.5698 H   0  0  0  0  0  0  0  0  0  0  0  0
  148.2348  153.3982  134.0844 H   0  0  0  0  0  0  0  0  0  0  0  0
  148.5990  150.7140  134.8660 H   0  0  0  0  0  0  0  0  0  0  0  0
  148.1869  157.1882  132.3110 H   0  0  0  0  0  0  0  0  0  0  0  0
  1  2  1  0
  2  3  1  0
  2  4  1  0
  4  5  1  0
  5  6  2  0
  5  7  1  0
  7  8  1  0
  8  9  1  0
  9 10  1  0
  9 11  2  0
  8 12  2  0
 12 13  1  0
 13 14  2  0
 14 15  1  0
 15 16  2  0
 16 17  1  0
 17 18  1  0
 18 19  1  0
 19 20  1  0
 20 21  1  0
 21 22  2  0
 21 23  1  0
 23 24  1  0
 24 25  1  0
 16 26  1  0
 26 27  2  0
 27  7  1  0
 27 13  1  0
 24 19  2  0
  1 28  1  0
  1 29  1  0
  1 30  1  0
  2 31  1  0
  3 32  1  0
  3 33  1  0
  3 34  1  0
 10 35  1  0
 12 36  1  0
 14 37  1  0
 15 38  1  0
 17 39  1  0
 18 40  1  0
 18 41  1  0
 25 42  1  0
 26 43  1  0
M  CHG  1  10  -1
M  END
>  <UniqueID>  (47) 
47

>  <SMILES>  (47) 
CC(C)OC(=O)n1c(C([NH-])=O)cc2ccc(NCc3oc(=O)oc3O)cc21

>  <Energy>  (47) 
109.74700433278925

>  <Genealogy>  (47) 
CC(C)OC(=O)n1c(C([NH-])=O)cc2ccc(NCc3oc(=O)oc3O)cc21 (protonated)
CC(C)OC(=O)n1c(C([NH-])=O)cc2ccc(NCc3oc(=O)oc3O)cc21 (3D coordinates assigned)
CC(C)OC(=O)n1c(C([NH-])=O)cc2ccc(NCc3oc(=O)oc3O)cc21 (optimized conformer: 109.74700433278925 kcal/mol)

>  <smiles>  (47) 
CC(C)OC(=O)n1c(C(N)=O)cc2ccc(NCc3oc(=O)oc3O)cc21

>  <score_type>  (47) 
oracle

>  <origin>  (47) 
adg

>  <m_score__min__energy>  (47) 
-7.8700000000000001

>  <m_primary>  (47) 
energy

$$$$
47:0
     RDKit          3D

 39 41  0  0  0  0  0  0  0  0999 V2000
  139.5230  155.8530  132.9970 C   0  0  0  0  0  0  0  0  0  0  0  0
  140.2230  156.7170  134.0580 C   0  0  2  0  0  0  0  0  0  0  0  0
  139.6700  158.1590  134.1090 C   0  0  0  0  0  0  0  0  0  0  0  0
  139.2780  158.7060  132.7610 C   0  0  0  0  0  0  0  0  0  0  0  0
  140.2290  159.2840  131.9070 C   0  0  0  0  0  0  0  0  0  0  0  0
  139.8320  159.7840  130.7070 N   0  0  0  0  0  0  0  0  0  0  0  0
  138.5310  159.7370  130.3190 C   0  0  0  0  0  0  0  0  0  0  0  0
  137.5830  159.1620  131.1660 C   0  0  0  0  0  0  0  0  0  0  0  0
  137.9760  158.6600  132.3660 N   0  0  0  0  0  0  0  0  0  0  0  0
  141.7400  156.6930  133.9420 C   0  0  0  0  0  0  0  0  0  0  0  0
  142.4620  155.4720  133.8340 C   0  0  0  0  0  0  0  0  0  0  0  0
  143.8590  155.4710  133.6970 C   0  0  0  0  0  0  0  0  0  0  0  0
  144.5110  156.6970  133.6490 C   0  0  0  0  0  0  0  0  0  0  0  0
  145.8530  156.9820  133.5420 C   0  0  0  0  0  0  0  0  0  0  0  0
  145.9370  158.3730  133.5440 C   0  0  0  0  0  0  0  0  0  0  0  0
  147.2060  159.1090  133.3660 C   0  0  0  0  0  0  0  0  0  0  0  0
  147.3290  160.1330  132.3830 N   0  0  0  0  0  0  0  0  0  0  0  0
  148.2090  158.8010  134.0630 O   0  0  0  0  0  0  0  0  0  0  0  0
  144.6960  158.9270  133.6550 N   0  0  0  0  0  0  0  0  0  0  0  0
  144.3600  160.3180  133.7700 C   0  0  0  0  0  0  0  0  0  0  0  0
  145.3690  161.2760  134.0820 N   0  0  0  0  0  0  0  0  0  0  0  0
  143.1750  160.7010  133.5850 O   0  0  0  0  0  0  0  0  0  0  0  0
  143.8340  157.8860  133.7170 C   0  0  0  0  0  0  0  0  0  0  0  0
  142.4430  157.9180  133.8750 C   0  0  0  0  0  0  0  0  0  0  0  0
  138.9053  155.0906  133.4942 H   0  0  0  0  0  0  0  0  0  0  0  0
  138.8835  156.4904  132.3687 H   0  0  0  0  0  0  0  0  0  0  0  0
  140.2792  155.3596  132.3687 H   0  0  0  0  0  0  0  0  0  0  0  0
  139.9812  156.2493  135.0238 H   0  0  0  0  0  0  0  0  0  0  0  0
  138.7824  158.1676  134.7586 H   0  0  0  0  0  0  0  0  0  0  0  0
  140.4778  158.7994  134.4929 H   0  0  0  0  0  0  0  0  0  0  0  0
  141.2866  159.3322  132.2058 H   0  0  0  0  0  0  0  0  0  0  0  0
  138.2275  160.1488  129.3452 H   0  0  0  0  0  0  0  0  0  0  0  0
  136.5261  159.1154  130.8648 H   0  0  0  0  0  0  0  0  0  0  0  0
  141.9183  154.5160  133.8582 H   0  0  0  0  0  0  0  0  0  0  0  0
  144.4208  154.5277  133.6297 H   0  0  0  0  0  0  0  0  0  0  0  0
  146.6833  156.2641  133.4701 H   0  0  0  0  0  0  0  0  0  0  0  0
  146.6440  160.9190  132.3360 H   0  0  0  0  0  0  0  0  0  0  0  0
  146.0530  161.5890  133.3590 H   0  0  0  0  0  0  0  0  0  0  0  0
  141.9081  158.8766  133.9456 H   0  0  0  0  0  0  0  0  0  0  0  0
  1  2  1  0
  2  3  1  0
  3  4  1  0
  4  5  2  0
  5  6  1  0
  6  7  2  0
  7  8  1  0
  8  9  2  0
  2 10  1  0
 10 11  2  0
 11 12  1  0
 12 13  2  0
 13 14  1  0
 14 15  2  0
 15 16  1  0
 16 17  1  0
 16 18  2  0
 15 19  1  0
 19 20  1  0
 20 21  1  0
 20 22  2  0
 19 23  1  0
 23 24  2  0
  9  4  1  0
 24 10  1  0
 23 13  1  0
  1 25  1  0
  1 26  1  0
  1 27  1  0
  2 28  1  1
  3 29  1  0
  3 30  1  0
  5 31  1  0
  7 32  1  0
  8 33  1  0
 11 34  1  0
 12 35  1  0
 14 36  1  0
 17 37  1  0
 21 38  1  0
 24 39  1  0
M  CHG  2  17  -1  21  -1
M  END
>  <UniqueID>  (48) 
48

>  <SMILES>  (48) 
C[C@H](Cc1cnccn1)c1ccc2cc(C([NH-])=O)n(C([NH-])=O)c2c1

>  <Energy>  (48) 
80.81212615189024

>  <Genealogy>  (48) 
CC(Cc1cnccn1)c1ccc2cc(C([NH-])=O)n(C([NH-])=O)c2c1 (protonated)
C[C@H](Cc1cnccn1)c1ccc2cc(C([NH-])=O)n(C([NH-])=O)c2c1 (chirality)
C[C@H](Cc1cnccn1)c1ccc2cc(C([NH-])=O)n(C([NH-])=O)c2c1 (3D coordinates assigned)
C[C@H](Cc1cnccn1)c1ccc2cc(C([NH-])=O)n(C([NH-])=O)c2c1 (optimized conformer: 80.81212615189024 kcal/mol)

>  <smiles>  (48) 
CC(Cc1cnccn1)c1ccc2cc(C(N)=O)n(C(N)=O)c2c1

>  <score_type>  (48) 
oracle

>  <origin>  (48) 
adg

>  <m_score__min__energy>  (48) 
-8.0399999999999991

>  <m_primary>  (48) 
energy

$$$$
48:0
     RDKit          3D

 60 63  0  0  0  0  0  0  0  0999 V2000
  141.3630  157.7140  132.8820 C   0  0  0  0  0  0  0  0  0  0  0  0
  142.5320  158.3590  133.6520 C   0  0  0  0  0  0  0  0  0  0  0  0
  142.7600  157.6440  134.9980 C   0  0  0  0  0  0  0  0  0  0  0  0
  142.1910  159.8340  133.9260 C   0  0  0  0  0  0  0  0  0  0  0  0
  143.7310  158.3440  132.8640 O   0  0  0  0  0  0  0  0  0  0  0  0
  144.9750  158.8860  133.2240 C   0  0  0  0  0  0  0  0  0  0  0  0
  145.0840  160.1210  133.4470 O   0  0  0  0  0  0  0  0  0  0  0  0
  146.1390  158.0310  133.2960 N   0  0  0  0  0  0  0  0  0  0  0  0
  147.4340  158.4200  133.4830 C   0  0  0  0  0  0  0  0  0  0  0  0
  147.9300  159.8060  133.4900 C   0  0  0  0  0  0  0  0  0  0  0  0
  147.3660  160.7860  132.6180 N   0  0  0  0  0  0  0  0  0  0  0  0
  148.9050  160.1130  134.2270 O   0  0  0  0  0  0  0  0  0  0  0  0
  148.2660  157.3240  133.6710 C   0  0  0  0  0  0  0  0  0  0  0  0
  147.4460  156.2280  133.5660 C   0  0  0  0  0  0  0  0  0  0  0  0
  147.7590  154.8750  133.6490 C   0  0  0  0  0  0  0  0  0  0  0  0
  146.7200  153.9460  133.4820 C   0  0  0  0  0  0  0  0  0  0  0  0
  145.3940  154.3790  133.2260 C   0  0  0  0  0  0  0  0  0  0  0  0
  144.3040  153.3900  133.0290 C   0  0  0  0  0  0  0  0  0  0  0  0
  144.6020  152.0360  132.8020 C   0  0  0  0  0  0  0  0  0  0  0  0
  143.5780  151.1100  132.5930 C   0  0  0  0  0  0  0  0  0  0  0  0
  142.2360  151.5180  132.6070 C   0  0  0  0  0  0  0  0  0  0  0  0
  141.1960  150.5560  132.3670 N   0  0  0  0  0  0  0  0  0  0  0  0
  141.1560  149.3150  133.1450 C   0  0  0  0  0  0  0  0  0  0  0  0
  140.7500  148.1150  132.2610 C   0  0  0  0  0  0  0  0  0  0  0  0
  139.9730  148.4860  131.0620 N   0  0  0  0  0  0  0  0  0  0  0  0
  139.1630  149.6930  131.2690 C   0  0  0  0  0  0  0  0  0  0  0  0
  140.0700  150.9090  131.4980 C   0  0  0  0  0  0  0  0  0  0  0  0
  141.9270  152.8710  132.8480 C   0  0  0  0  0  0  0  0  0  0  0  0
  140.5580  153.3190  132.9130 C   0  0  0  0  0  0  0  0  0  0  0  0
  139.4590  153.6790  132.9650 N   0  0  0  0  0  0  0  0  0  0  0  0
  142.9590  153.7970  133.0540 C   0  0  0  0  0  0  0  0  0  0  0  0
  145.1170  155.7650  133.1490 C   0  0  0  0  0  0  0  0  0  0  0  0
  146.1690  156.6740  133.3370 C   0  0  0  0  0  0  0  0  0  0  0  0
  140.6313  157.3103  133.5972 H   0  0  0  0  0  0  0  0  0  0  0  0
  140.8778  158.4721  132.2496 H   0  0  0  0  0  0  0  0  0  0  0  0
  141.7456  156.8993  132.2496 H   0  0  0  0  0  0  0  0  0  0  0  0
  142.5390  158.3369  135.8233 H   0  0  0  0  0  0  0  0  0  0  0  0
  142.0961  156.7695  135.0657 H   0  0  0  0  0  0  0  0  0  0  0  0
  143.8075  157.3152  135.0657 H   0  0  0  0  0  0  0  0  0  0  0  0
  142.1513  160.0056  135.0118 H   0  0  0  0  0  0  0  0  0  0  0  0
  142.9640  160.4778  133.4810 H   0  0  0  0  0  0  0  0  0  0  0  0
  141.2139  160.0732  133.4810 H   0  0  0  0  0  0  0  0  0  0  0  0
  147.7200  161.7670  132.6280 H   0  0  0  0  0  0  0  0  0  0  0  0
  146.6150  160.5250  131.9400 H   0  0  0  0  0  0  0  0  0  0  0  0
  149.3491  157.3323  133.8628 H   0  0  0  0  0  0  0  0  0  0  0  0
  148.7902  154.5430  133.8399 H   0  0  0  0  0  0  0  0  0  0  0  0
  146.9368  152.8698  133.5505 H   0  0  0  0  0  0  0  0  0  0  0  0
  145.6502  151.7027  132.7888 H   0  0  0  0  0  0  0  0  0  0  0  0
  143.8255  150.0529  132.4161 H   0  0  0  0  0  0  0  0  0  0  0  0
  142.1525  149.1261  133.5709 H   0  0  0  0  0  0  0  0  0  0  0  0
  140.4082  149.4283  133.9438 H   0  0  0  0  0  0  0  0  0  0  0  0
  141.6660  147.6013  131.9339 H   0  0  0  0  0  0  0  0  0  0  0  0
  140.0999  147.4742  132.8748 H   0  0  0  0  0  0  0  0  0  0  0  0
  140.6360  148.6620  130.2690 H   0  0  0  0  0  0  0  0  0  0  0  0
  138.5386  149.8680  130.3804 H   0  0  0  0  0  0  0  0  0  0  0  0
  138.5260  149.5495  132.1542 H   0  0  0  0  0  0  0  0  0  0  0  0
  140.4566  151.2591  130.5295 H   0  0  0  0  0  0  0  0  0  0  0  0
  139.4831  151.7030  131.9828 H   0  0  0  0  0  0  0  0  0  0  0  0
  142.7135  154.8535  133.2372 H   0  0  0  0  0  0  0  0  0  0  0  0
  144.0968  156.1224  132.9457 H   0  0  0  0  0  0  0  0  0  0  0  0
  1  2  1  0
  2  3  1  0
  2  4  1  0
  2  5  1  0
  5  6  1  0
  6  7  2  0
  6  8  1  0
  8  9  1  0
  9 10  1  0
 10 11  1  0
 10 12  2  0
  9 13  2  0
 13 14  1  0
 14 15  2  0
 15 16  1  0
 16 17  2  0
 17 18  1  0
 18 19  2  0
 19 20  1  0
 20 21  2  0
 21 22  1  0
 22 23  1  0
 23 24  1  0
 24 25  1  0
 25 26  1  0
 26 27  1  0
 21 28  1  0
 28 29  1  0
 29 30  3  0
 28 31  2  0
 17 32  1  0
 32 33  2  0
 33  8  1  0
 33 14  1  0
 31 18  1  0
 27 22  1  0
  1 34  1  0
  1 35  1  0
  1 36  1  0
  3 37  1  0
  3 38  1  0
  3 39  1  0
  4 40  1  0
  4 41  1  0
  4 42  1  0
 11 43  1  0
 11 44  1  0
 13 45  1  0
 15 46  1  0
 16 47  1  0
 19 48  1  0
 20 49  1  0
 23 50  1  0
 23 51  1  0
 24 52  1  0
 24 53  1  0
 25 54  1  0
 26 55  1  0
 26 56  1  0
 27 57  1  0
 27 58  1  0
 31 59  1  0
 32 60  1  0
M  END
>  <UniqueID>  (49) 
49

>  <SMILES>  (49) 
CC(C)(C)OC(=O)n1c(C(N)=O)cc2ccc(-c3ccc(N4CCNCC4)c(C#N)c3)cc21

>  <Energy>  (49) 
113.86591477765784

>  <Genealogy>  (49) 
CC(C)(C)OC(=O)n1c(C(N)=O)cc2ccc(-c3ccc(N4CCNCC4)c(C#N)c3)cc21 (3D coordinates assigned)
CC(C)(C)OC(=O)n1c(C(N)=O)cc2ccc(-c3ccc(N4CCNCC4)c(C#N)c3)cc21 (nonaromatic ring conformer: 113.86591477765784 kcal/mol)

>  <smiles>  (49) 
CC(C)(C)OC(=O)n1c(C(N)=O)cc2ccc(-c3ccc(N4CCNCC4)c(C#N)c3)cc21

>  <score_type>  (49) 
oracle

>  <origin>  (49) 
adg

>  <m_score__min__energy>  (49) 
-10.23

>  <m_primary>  (49) 
energy

$$$$
49:0
     RDKit          3D

 43 45  0  0  0  0  0  0  0  0999 V2000
  139.1070  146.6030  129.9260 C   0  0  0  0  0  0  0  0  0  0  0  0
  139.0460  148.0710  129.4790 C   0  0  0  0  0  0  0  0  0  0  0  0
  139.7060  149.0220  130.4020 N   0  0  0  0  0  0  0  0  0  0  0  0
  138.8040  149.5820  131.4240 C   0  0  0  0  0  0  0  0  0  0  0  0
  139.4240  150.8480  132.0440 C   0  0  0  0  0  0  0  0  0  0  0  0
  140.9710  150.8310  131.9930 C   0  0  1  0  0  0  0  0  0  0  0  0
  141.5670  151.7510  133.0430 C   0  0  0  0  0  0  0  0  0  0  0  0
  142.3590  152.8580  132.6440 C   0  0  0  0  0  0  0  0  0  0  0  0
  142.9070  153.7330  133.5960 C   0  0  0  0  0  0  0  0  0  0  0  0
  142.6550  153.4760  134.9400 C   0  0  0  0  0  0  0  0  0  0  0  0
  143.0390  154.1750  136.0600 C   0  0  0  0  0  0  0  0  0  0  0  0
  142.4940  153.4770  137.1360 C   0  0  0  0  0  0  0  0  0  0  0  0
  142.7280  153.8450  138.5480 C   0  0  0  0  0  0  0  0  0  0  0  0
  143.4790  152.9740  139.3920 N   0  0  0  0  0  0  0  0  0  0  0  0
  142.2470  154.9040  139.0290 O   0  0  0  0  0  0  0  0  0  0  0  0
  141.7950  152.3910  136.6960 N   0  0  0  0  0  0  0  0  0  0  0  0
  141.0420  151.4520  137.4810 C   0  0  0  0  0  0  0  0  0  0  0  0
  141.1270  151.4740  138.9030 N   0  0  0  0  0  0  0  0  0  0  0  0
  140.3100  150.5960  136.9150 O   0  0  0  0  0  0  0  0  0  0  0  0
  141.9050  152.4050  135.3490 C   0  0  0  0  0  0  0  0  0  0  0  0
  141.3310  151.5290  134.4220 C   0  0  0  0  0  0  0  0  0  0  0  0
  141.5130  149.3920  132.1130 C   0  0  2  0  0  0  0  0  0  0  0  0
  142.8980  149.4000  132.0660 F   0  0  0  0  0  0  0  0  0  0  0  0
  140.9600  148.4910  130.9830 C   0  0  0  0  0  0  0  0  0  0  0  0
  139.1090  146.5541  131.0249 H   0  0  0  0  0  0  0  0  0  0  0  0
  138.2305  146.0644  129.5366 H   0  0  0  0  0  0  0  0  0  0  0  0
  140.0252  146.1390  129.5366 H   0  0  0  0  0  0  0  0  0  0  0  0
  139.5338  148.1514  128.4963 H   0  0  0  0  0  0  0  0  0  0  0  0
  137.9814  148.3465  129.4548 H   0  0  0  0  0  0  0  0  0  0  0  0
  137.8417  149.8397  130.9575 H   0  0  0  0  0  0  0  0  0  0  0  0
  138.6492  148.8336  132.2152 H   0  0  0  0  0  0  0  0  0  0  0  0
  139.0616  151.7267  131.4904 H   0  0  0  0  0  0  0  0  0  0  0  0
  139.1229  150.8866  133.1013 H   0  0  0  0  0  0  0  0  0  0  0  0
  141.2833  151.2173  131.0116 H   0  0  0  0  0  0  0  0  0  0  0  0
  142.5465  153.0335  131.5744 H   0  0  0  0  0  0  0  0  0  0  0  0
  143.5169  154.5953  133.2885 H   0  0  0  0  0  0  0  0  0  0  0  0
  143.6472  155.0907  136.0985 H   0  0  0  0  0  0  0  0  0  0  0  0
  143.1210  152.0240  139.6360 H   0  0  0  0  0  0  0  0  0  0  0  0
  141.4060  152.3430  139.4110 H   0  0  0  0  0  0  0  0  0  0  0  0
  140.7094  150.6855  134.7567 H   0  0  0  0  0  0  0  0  0  0  0  0
  141.1798  148.9833  133.0784 H   0  0  0  0  0  0  0  0  0  0  0  0
  141.7156  148.4187  130.1869 H   0  0  0  0  0  0  0  0  0  0  0  0
  140.7378  147.5053  131.4177 H   0  0  0  0  0  0  0  0  0  0  0  0
  1  2  1  0
  2  3  1  0
  3  4  1  0
  4  5  1  0
  5  6  1  0
  6  7  1  0
  7  8  2  0
  8  9  1  0
  9 10  2  0
 10 11  1  0
 11 12  2  0
 12 13  1  0
 13 14  1  0
 13 15  2  0
 12 16  1  0
 16 17  1  0
 17 18  1  0
 17 19  2  0
 16 20  1  0
 20 21  2  0
  6 22  1  0
 22 23  1  0
 22 24  1  0
 24  3  1  0
 21  7  1  0
 20 10  1  0
  1 25  1  0
  1 26  1  0
  1 27  1  0
  2 28  1  0
  2 29  1  0
  4 30  1  0
  4 31  1  0
  5 32  1  0
  5 33  1  0
  6 34  1  6
  8 35  1  0
  9 36  1  0
 11 37  1  0
 14 38  1  0
 18 39  1  0
 21 40  1  0
 22 41  1  1
 24 42  1  0
 24 43  1  0
M  CHG  2  14  -1  18  -1
M  END
>  <UniqueID>  (50) 
50

>  <SMILES>  (50) 
CCN1CC[C@@H](c2ccc3cc(C([NH-])=O)n(C([NH-])=O)c3c2)[C@H](F)C1

>  <Energy>  (50) 
91.14629371011233

>  <Genealogy>  (50) 
CCN1CC[C@@H](c2ccc3cc(C([NH-])=O)n(C([NH-])=O)c3c2)[C@H](F)C1 (protonated)
CCN1CC[C@@H](c2ccc3cc(C([NH-])=O)n(C([NH-])=O)c3c2)[C@H](F)C1 (3D coordinates assigned)
CCN1CC[C@@H](c2ccc3cc(C([NH-])=O)n(C([NH-])=O)c3c2)[C@H](F)C1 (nonaromatic ring conformer: 91.14629371011233 kcal/mol)

>  <smiles>  (50) 
CCN1CC[C@@H](c2ccc3cc(C(N)=O)n(C(N)=O)c3c2)[C@H](F)C1

>  <score_type>  (50) 
oracle

>  <origin>  (50) 
adg

>  <m_score__min__energy>  (50) 
-7.8899999999999997

>  <m_primary>  (50) 
energy

$$$$
50:0
     RDKit          3D

 35 38  0  0  0  0  0  0  0  0999 V2000
  141.9340  159.4320  133.2470 N   0  0  0  0  0  0  0  0  0  0  0  0
  141.7760  158.3930  134.2100 C   0  0  0  0  0  0  0  0  0  0  0  0
  141.4170  158.6880  135.3810 O   0  0  0  0  0  0  0  0  0  0  0  0
  141.9710  156.9770  133.8390 C   0  0  0  0  0  0  0  0  0  0  0  0
  143.2250  156.3740  133.7530 C   0  0  0  0  0  0  0  0  0  0  0  0
  142.9750  155.0500  133.4790 C   0  0  0  0  0  0  0  0  0  0  0  0
  143.8590  153.9960  133.2760 C   0  0  0  0  0  0  0  0  0  0  0  0
  143.3230  152.7330  132.9760 C   0  0  0  0  0  0  0  0  0  0  0  0
  141.9190  152.5440  132.8740 C   0  0  0  0  0  0  0  0  0  0  0  0
  141.3620  151.2090  132.5450 C   0  0  0  0  0  0  0  0  0  0  0  0
  141.9160  150.0130  133.0070 C   0  0  0  0  0  0  0  0  0  0  0  0
  140.9950  148.7450  132.3980 S   0  0  0  0  0  0  0  0  0  0  0  0
  139.9260  149.7480  131.5780 C   0  0  0  0  0  0  0  0  0  0  0  0
  138.7650  149.2270  130.7700 C   0  0  0  0  0  0  0  0  0  0  0  0
  138.8300  147.7630  130.3620 C   0  0  0  0  0  0  0  0  0  0  0  0
  139.0650  148.8540  129.3260 C   0  0  0  0  0  0  0  0  0  0  0  0
  140.2590  151.0490  131.7570 N   0  0  0  0  0  0  0  0  0  0  0  0
  141.0540  153.6440  133.0840 C   0  0  0  0  0  0  0  0  0  0  0  0
  141.6160  154.8860  133.4010 C   0  0  0  0  0  0  0  0  0  0  0  0
  140.9850  156.0630  133.6160 N   0  0  0  0  0  0  0  0  0  0  0  0
  139.5700  156.3020  133.5260 C   0  0  0  0  0  0  0  0  0  0  0  0
  139.0790  157.3770  133.9580 O   0  0  0  0  0  0  0  0  0  0  0  0
  138.7300  155.3360  132.9860 O   0  0  0  0  0  0  0  0  0  0  0  0
  142.0270  159.2130  132.2300 H   0  0  0  0  0  0  0  0  0  0  0  0
  144.2062  156.8553  133.8779 H   0  0  0  0  0  0  0  0  0  0  0  0
  144.9462  154.1470  133.3483 H   0  0  0  0  0  0  0  0  0  0  0  0
  143.9989  151.8796  132.8181 H   0  0  0  0  0  0  0  0  0  0  0  0
  142.7995  149.9174  133.6553 H   0  0  0  0  0  0  0  0  0  0  0  0
  138.0205  149.8623  131.2722 H   0  0  0  0  0  0  0  0  0  0  0  0
  139.6677  147.1347  130.6989 H   0  0  0  0  0  0  0  0  0  0  0  0
  138.1510  146.9015  130.4443 H   0  0  0  0  0  0  0  0  0  0  0  0
  140.0725  149.0140  128.9145 H   0  0  0  0  0  0  0  0  0  0  0  0
  138.6261  149.1074  128.3497 H   0  0  0  0  0  0  0  0  0  0  0  0
  139.7200  151.8470  131.3570 H   0  0  0  0  0  0  0  0  0  0  0  0
  139.9636  153.5255  132.9999 H   0  0  0  0  0  0  0  0  0  0  0  0
  1  2  1  0
  2  3  2  0
  2  4  1  0
  4  5  2  0
  5  6  1  0
  6  7  2  0
  7  8  1  0
  8  9  2  0
  9 10  1  0
 10 11  2  0
 11 12  1  0
 12 13  1  0
 13 14  1  0
 14 15  1  0
 15 16  1  0
 13 17  2  0
  9 18  1  0
 18 19  2  0
 19 20  1  0
 20 21  1  0
 21 22  2  0
 21 23  1  0
 20  4  1  0
 19  6  1  0
 17 10  1  0
 16 14  1  0
  1 24  1  0
  5 25  1  0
  7 26  1  0
  8 27  1  0
 11 28  1  0
 14 29  1  0
 15 30  1  0
 15 31  1  0
 16 32  1  0
 16 33  1  0
 17 34  1  0
 18 35  1  0
M  CHG  3   1  -1  17   1  23  -1
M  END
>  <UniqueID>  (51) 
51

>  <SMILES>  (51) 
[NH-]C(=O)c1cc2ccc(-c3csc(C4CC4)[nH+]3)cc2n1C(=O)[O-]

>  <Energy>  (51) 
375.91479303126897

>  <Genealogy>  (51) 
[NH-]C(=O)c1cc2ccc(-c3csc(C4CC4)[nH+]3)cc2n1C(=O)[O-] (protonated)
[NH-]C(=O)c1cc2ccc(-c3csc(C4CC4)[nH+]3)cc2n1C(=O)[O-] (3D coordinates assigned)
[NH-]C(=O)c1cc2ccc(-c3csc(C4CC4)[nH+]3)cc2n1C(=O)[O-] (nonaromatic ring conformer: 375.91479303126897 kcal/mol)

>  <smiles>  (51) 
NC(=O)c1cc2ccc(-c3csc(C4CC4)n3)cc2n1C(=O)O

>  <score_type>  (51) 
oracle

>  <origin>  (51) 
adg

>  <m_score__min__energy>  (51) 
-8.1199999999999992

>  <m_primary>  (51) 
energy

$$$$
51:0
     RDKit          3D

 44 45  0  0  0  0  0  0  0  0999 V2000
  139.2210  157.7640  133.1240 C   0  0  0  0  0  0  0  0  0  0  0  0
  139.7770  158.5870  134.2920 C   0  0  0  0  0  0  0  0  0  0  0  0
  139.5390  157.8780  135.6300 C   0  0  0  0  0  0  0  0  0  0  0  0
  141.2490  158.8940  134.0920 C   0  0  0  0  0  0  0  0  0  0  0  0
  141.7230  160.2340  134.1020 C   0  0  0  0  0  0  0  0  0  0  0  0
  143.0840  160.5170  133.9020 C   0  0  0  0  0  0  0  0  0  0  0  0
  143.9510  159.4480  133.7050 C   0  0  0  0  0  0  0  0  0  0  0  0
  145.3050  159.4420  133.4550 C   0  0  0  0  0  0  0  0  0  0  0  0
  145.6470  158.0990  133.3270 C   0  0  0  0  0  0  0  0  0  0  0  0
  147.0310  157.6310  133.1120 C   0  0  0  0  0  0  0  0  0  0  0  0
  147.3620  156.7740  132.0180 N   0  0  0  0  0  0  0  0  0  0  0  0
  147.9280  157.9460  133.9410 O   0  0  0  0  0  0  0  0  0  0  0  0
  144.5510  157.3060  133.4770 N   0  0  0  0  0  0  0  0  0  0  0  0
  144.4710  155.8820  133.3090 C   0  0  0  0  0  0  0  0  0  0  0  0
  144.8970  155.3540  132.2470 O   0  0  0  0  0  0  0  0  0  0  0  0
  143.9180  155.0970  134.3330 O   0  0  0  0  0  0  0  0  0  0  0  0
  142.9230  154.0750  134.1790 C   0  0  0  0  0  0  0  0  0  0  0  0
  142.4730  153.5470  135.5540 C   0  0  0  0  0  0  0  0  0  0  0  0
  143.5730  152.9250  133.3950 C   0  0  0  0  0  0  0  0  0  0  0  0
  141.7190  154.6080  133.3790 C   0  0  0  0  0  0  0  0  0  0  0  0
  143.5180  158.1470  133.7110 C   0  0  0  0  0  0  0  0  0  0  0  0
  142.1650  157.8360  133.8850 C   0  0  0  0  0  0  0  0  0  0  0  0
  138.6457  156.9125  133.5165 H   0  0  0  0  0  0  0  0  0  0  0  0
  138.5649  158.3973  132.5087 H   0  0  0  0  0  0  0  0  0  0  0  0
  140.0534  157.3917  132.5087 H   0  0  0  0  0  0  0  0  0  0  0  0
  139.2340  159.5433  134.3169 H   0  0  0  0  0  0  0  0  0  0  0  0
  139.7702  158.5666  136.4561 H   0  0  0  0  0  0  0  0  0  0  0  0
  138.4866  157.5651  135.6971 H   0  0  0  0  0  0  0  0  0  0  0  0
  140.1895  156.9935  135.6971 H   0  0  0  0  0  0  0  0  0  0  0  0
  141.0152  161.0594  134.2684 H   0  0  0  0  0  0  0  0  0  0  0  0
  143.4530  161.5533  133.9012 H   0  0  0  0  0  0  0  0  0  0  0  0
  145.9731  160.3121  133.3739 H   0  0  0  0  0  0  0  0  0  0  0  0
  146.6190  156.3540  131.4170 H   0  0  0  0  0  0  0  0  0  0  0  0
  148.3530  156.4880  131.8570 H   0  0  0  0  0  0  0  0  0  0  0  0
  142.9665  154.1260  136.3485 H   0  0  0  0  0  0  0  0  0  0  0  0
  141.3820  153.6515  135.6478 H   0  0  0  0  0  0  0  0  0  0  0  0
  142.7491  152.4864  135.6478 H   0  0  0  0  0  0  0  0  0  0  0  0
  143.9886  152.1897  134.0997 H   0  0  0  0  0  0  0  0  0  0  0  0
  142.8160  152.4390  132.7619 H   0  0  0  0  0  0  0  0  0  0  0  0
  144.3798  153.3228  132.7619 H   0  0  0  0  0  0  0  0  0  0  0  0
  140.9400  154.9528  134.0749 H   0  0  0  0  0  0  0  0  0  0  0  0
  142.0422  155.4471  132.7454 H   0  0  0  0  0  0  0  0  0  0  0  0
  141.3151  153.8046  132.7454 H   0  0  0  0  0  0  0  0  0  0  0  0
  141.8210  156.7914  133.8613 H   0  0  0  0  0  0  0  0  0  0  0  0
  1  2  1  0
  2  3  1  0
  2  4  1  0
  4  5  2  0
  5  6  1  0
  6  7  2  0
  7  8  1  0
  8  9  2  0
  9 10  1  0
 10 11  1  0
 10 12  2  0
  9 13  1  0
 13 14  1  0
 14 15  2  0
 14 16  1  0
 16 17  1  0
 17 18  1  0
 17 19  1  0
 17 20  1  0
 13 21  1  0
 21 22  2  0
 22  4  1  0
 21  7  1  0
  1 23  1  0
  1 24  1  0
  1 25  1  0
  2 26  1  0
  3 27  1  0
  3 28  1  0
  3 29  1  0
  5 30  1  0
  6 31  1  0
  8 32  1  0
 11 33  1  0
 11 34  1  0
 18 35  1  0
 18 36  1  0
 18 37  1  0
 19 38  1  0
 19 39  1  0
 19 40  1  0
 20 41  1  0
 20 42  1  0
 20 43  1  0
 22 44  1  0
M  END
>  <UniqueID>  (52) 
52

>  <SMILES>  (52) 
CC(C)c1ccc2cc(C(N)=O)n(C(=O)OC(C)(C)C)c2c1

>  <Energy>  (52) 
74.27999407178939

>  <Genealogy>  (52) 
CC(C)c1ccc2cc(C(N)=O)n(C(=O)OC(C)(C)C)c2c1 (3D coordinates assigned)
CC(C)c1ccc2cc(C(N)=O)n(C(=O)OC(C)(C)C)c2c1 (optimized conformer: 74.27999407178939 kcal/mol)

>  <smiles>  (52) 
CC(C)c1ccc2cc(C(N)=O)n(C(=O)OC(C)(C)C)c2c1

>  <score_type>  (52) 
oracle

>  <origin>  (52) 
adg

>  <m_score__min__energy>  (52) 
-7.2199999999999998

>  <m_primary>  (52) 
energy

$$$$
52:0
     RDKit          3D

 38 40  0  0  0  0  0  0  0  0999 V2000
  148.8490  158.4410  131.3750 N   0  0  0  0  0  0  0  0  0  0  0  0
  148.4120  158.8080  132.6800 C   0  0  0  0  0  0  0  0  0  0  0  0
  149.2640  158.9600  133.5960 O   0  0  0  0  0  0  0  0  0  0  0  0
  146.9740  158.9700  132.9860 C   0  0  0  0  0  0  0  0  0  0  0  0
  146.3790  160.2020  133.2530 C   0  0  0  0  0  0  0  0  0  0  0  0
  145.0650  159.9170  133.5520 C   0  0  0  0  0  0  0  0  0  0  0  0
  144.0180  160.7680  133.8890 C   0  0  0  0  0  0  0  0  0  0  0  0
  142.7560  160.1970  134.1230 C   0  0  0  0  0  0  0  0  0  0  0  0
  142.5620  158.7980  134.0010 C   0  0  0  0  0  0  0  0  0  0  0  0
  141.2150  158.1910  134.2960 C   0  0  0  0  0  0  0  0  0  0  0  0
  140.5660  157.6070  133.0340 C   0  0  0  0  0  0  0  0  0  0  0  0
  139.6670  158.6080  132.3520 C   0  0  0  0  0  0  0  0  0  0  0  0
  139.9520  159.9790  132.4240 C   0  0  0  0  0  0  0  0  0  0  0  0
  139.0830  160.8930  131.8230 C   0  0  0  0  0  0  0  0  0  0  0  0
  137.9670  160.4550  131.1830 N   0  0  0  0  0  0  0  0  0  0  0  0
  137.6610  159.1320  131.1070 C   0  0  0  0  0  0  0  0  0  0  0  0
  138.5040  158.1850  131.6920 C   0  0  0  0  0  0  0  0  0  0  0  0
  143.6510  157.9660  133.6610 C   0  0  0  0  0  0  0  0  0  0  0  0
  144.9010  158.5590  133.4550 C   0  0  0  0  0  0  0  0  0  0  0  0
  146.0630  157.9640  133.1120 N   0  0  0  0  0  0  0  0  0  0  0  0
  146.2560  156.5640  132.8590 C   0  0  0  0  0  0  0  0  0  0  0  0
  147.1760  156.1330  131.8570 N   0  0  0  0  0  0  0  0  0  0  0  0
  145.6170  155.7090  133.5280 O   0  0  0  0  0  0  0  0  0  0  0  0
  148.9560  157.4390  131.1070 H   0  0  0  0  0  0  0  0  0  0  0  0
  146.8575  161.1922  133.2298 H   0  0  0  0  0  0  0  0  0  0  0  0
  144.1731  161.8540  133.9698 H   0  0  0  0  0  0  0  0  0  0  0  0
  141.9101  160.8417  134.4036 H   0  0  0  0  0  0  0  0  0  0  0  0
  141.3408  157.3873  135.0365 H   0  0  0  0  0  0  0  0  0  0  0  0
  140.5589  158.9847  134.6826 H   0  0  0  0  0  0  0  0  0  0  0  0
  141.3584  157.3047  132.3334 H   0  0  0  0  0  0  0  0  0  0  0  0
  139.9524  156.7444  133.3329 H   0  0  0  0  0  0  0  0  0  0  0  0
  140.8519  160.3318  132.9491 H   0  0  0  0  0  0  0  0  0  0  0  0
  139.3026  161.9699  131.8679 H   0  0  0  0  0  0  0  0  0  0  0  0
  136.7490  158.8078  130.5844 H   0  0  0  0  0  0  0  0  0  0  0  0
  138.2576  157.1144  131.6356 H   0  0  0  0  0  0  0  0  0  0  0  0
  143.5196  156.8785  133.5606 H   0  0  0  0  0  0  0  0  0  0  0  0
  147.6660  156.8270  131.2520 H   0  0  0  0  0  0  0  0  0  0  0  0
  147.3390  155.1140  131.6940 H   0  0  0  0  0  0  0  0  0  0  0  0
  1  2  1  0
  2  3  2  0
  2  4  1  0
  4  5  2  0
  5  6  1  0
  6  7  2  0
  7  8  1  0
  8  9  2  0
  9 10  1  0
 10 11  1  0
 11 12  1  0
 12 13  2  0
 13 14  1  0
 14 15  2  0
 15 16  1  0
 16 17  2  0
  9 18  1  0
 18 19  2  0
 19 20  1  0
 20 21  1  0
 21 22  1  0
 21 23  2  0
 20  4  1  0
 19  6  1  0
 17 12  1  0
  1 24  1  0
  5 25  1  0
  7 26  1  0
  8 27  1  0
 10 28  1  0
 10 29  1  0
 11 30  1  0
 11 31  1  0
 13 32  1  0
 14 33  1  0
 16 34  1  0
 17 35  1  0
 18 36  1  0
 22 37  1  0
 22 38  1  0
M  CHG  1   1  -1
M  END
>  <UniqueID>  (53) 
53

>  <SMILES>  (53) 
[NH-]C(=O)c1cc2ccc(CCc3ccncc3)cc2n1C(N)=O

>  <Energy>  (53) 
75.8805631778424

>  <Genealogy>  (53) 
[NH-]C(=O)c1cc2ccc(CCc3ccncc3)cc2n1C(N)=O (protonated)
[NH-]C(=O)c1cc2ccc(CCc3ccncc3)cc2n1C(N)=O (3D coordinates assigned)
[NH-]C(=O)c1cc2ccc(CCc3ccncc3)cc2n1C(N)=O (optimized conformer: 75.8805631778424 kcal/mol)

>  <smiles>  (53) 
NC(=O)c1cc2ccc(CCc3ccncc3)cc2n1C(N)=O

>  <score_type>  (53) 
oracle

>  <origin>  (53) 
adg

>  <m_score__min__energy>  (53) 
-8.0600000000000005

>  <m_primary>  (53) 
energy

$$$$
53:0
     RDKit          3D

 59 62  0  0  0  0  0  0  0  0999 V2000
  145.5040  154.2080  133.8270 C   0  0  0  0  0  0  0  0  0  0  0  0
  146.9180  154.5090  134.3590 C   0  0  0  0  0  0  0  0  0  0  0  0
  147.0230  154.1520  135.8540 C   0  0  0  0  0  0  0  0  0  0  0  0
  147.9340  153.6660  133.5750 C   0  0  0  0  0  0  0  0  0  0  0  0
  147.2560  155.8870  134.1420 O   0  0  0  0  0  0  0  0  0  0  0  0
  147.0120  156.6300  132.9770 C   0  0  0  0  0  0  0  0  0  0  0  0
  146.9970  156.0740  131.8460 O   0  0  0  0  0  0  0  0  0  0  0  0
  146.8010  158.0480  133.0760 N   0  0  0  0  0  0  0  0  0  0  0  0
  147.6580  159.0420  132.7100 C   0  0  0  0  0  0  0  0  0  0  0  0
  149.0620  158.8660  132.2860 C   0  0  0  0  0  0  0  0  0  0  0  0
  149.6320  157.5660  132.1630 N   0  0  0  0  0  0  0  0  0  0  0  0
  149.7840  159.8780  132.0770 O   0  0  0  0  0  0  0  0  0  0  0  0
  147.0520  160.2890  132.8570 C   0  0  0  0  0  0  0  0  0  0  0  0
  145.7900  160.0240  133.3380 C   0  0  0  0  0  0  0  0  0  0  0  0
  144.7470  160.8940  133.6320 C   0  0  0  0  0  0  0  0  0  0  0  0
  143.5310  160.3430  134.0680 C   0  0  0  0  0  0  0  0  0  0  0  0
  143.3770  158.9370  134.2250 C   0  0  0  0  0  0  0  0  0  0  0  0
  142.0250  158.3450  134.6170 C   0  0  1  0  0  0  0  0  0  0  0  0
  142.1560  157.7230  135.8500 F   0  0  0  0  0  0  0  0  0  0  0  0
  140.8980  159.3690  134.6930 C   0  0  0  0  0  0  0  0  0  0  0  0
  139.6270  158.5840  134.3930 C   0  0  0  0  0  0  0  0  0  0  0  0
  140.0200  157.2790  133.8320 N   0  0  0  0  0  0  0  0  0  0  0  0
  139.2740  156.9610  132.5990 C   0  0  0  0  0  0  0  0  0  0  0  0
  138.8970  158.2220  131.8650 C   0  0  0  0  0  0  0  0  0  0  0  0
  137.5560  158.6430  131.8330 C   0  0  0  0  0  0  0  0  0  0  0  0
  137.1960  159.7970  131.1280 C   0  0  0  0  0  0  0  0  0  0  0  0
  138.1710  160.5330  130.4470 C   0  0  0  0  0  0  0  0  0  0  0  0
  139.5050  160.1170  130.4680 C   0  0  0  0  0  0  0  0  0  0  0  0
  139.8680  158.9630  131.1720 C   0  0  0  0  0  0  0  0  0  0  0  0
  141.4720  157.3400  133.6110 C   0  0  0  0  0  0  0  0  0  0  0  0
  144.4570  158.0870  133.8700 C   0  0  0  0  0  0  0  0  0  0  0  0
  145.6620  158.6670  133.4590 C   0  0  0  0  0  0  0  0  0  0  0  0
  144.8171  154.0618  134.6737 H   0  0  0  0  0  0  0  0  0  0  0  0
  145.1556  155.0521  133.2137 H   0  0  0  0  0  0  0  0  0  0  0  0
  145.5296  153.2952  133.2137 H   0  0  0  0  0  0  0  0  0  0  0  0
  146.7640  155.0325  136.4603 H   0  0  0  0  0  0  0  0  0  0  0  0
  146.3283  153.3309  136.0846 H   0  0  0  0  0  0  0  0  0  0  0  0
  148.0516  153.8377  136.0846 H   0  0  0  0  0  0  0  0  0  0  0  0
  148.5842  153.1266  134.2795 H   0  0  0  0  0  0  0  0  0  0  0  0
  147.3994  152.9426  132.9419 H   0  0  0  0  0  0  0  0  0  0  0  0
  148.5464  154.3250  132.9419 H   0  0  0  0  0  0  0  0  0  0  0  0
  149.0580  156.7530  131.8460 H   0  0  0  0  0  0  0  0  0  0  0  0
  147.4890  161.2739  132.6358 H   0  0  0  0  0  0  0  0  0  0  0  0
  144.8702  161.9820  133.5264 H   0  0  0  0  0  0  0  0  0  0  0  0
  142.6843  161.0087  134.2916 H   0  0  0  0  0  0  0  0  0  0  0  0
  140.8485  159.8148  135.6974 H   0  0  0  0  0  0  0  0  0  0  0  0
  141.0466  160.1984  133.9859 H   0  0  0  0  0  0  0  0  0  0  0  0
  139.0530  158.4346  135.3194 H   0  0  0  0  0  0  0  0  0  0  0  0
  138.9979  159.1339  133.6776 H   0  0  0  0  0  0  0  0  0  0  0  0
  139.9033  156.3378  131.9467 H   0  0  0  0  0  0  0  0  0  0  0  0
  138.3548  156.4214  132.8707 H   0  0  0  0  0  0  0  0  0  0  0  0
  136.7868  158.0631  132.3641 H   0  0  0  0  0  0  0  0  0  0  0  0
  136.1463  160.1252  131.1095 H   0  0  0  0  0  0  0  0  0  0  0  0
  137.8874  161.4407  129.8941 H   0  0  0  0  0  0  0  0  0  0  0  0
  140.2701  160.6968  129.9310 H   0  0  0  0  0  0  0  0  0  0  0  0
  140.9180  158.6352  131.1825 H   0  0  0  0  0  0  0  0  0  0  0  0
  141.9229  156.3504  133.7764 H   0  0  0  0  0  0  0  0  0  0  0  0
  141.7035  157.6435  132.5794 H   0  0  0  0  0  0  0  0  0  0  0  0
  144.3486  156.9934  133.9171 H   0  0  0  0  0  0  0  0  0  0  0  0
  1  2  1  0
  2  3  1  0
  2  4  1  0
  2  5  1  0
  5  6  1  0
  6  7  2  0
  6  8  1  0
  8  9  1  0
  9 10  1  0
 10 11  1  0
 10 12  2  0
  9 13  2  0
 13 14  1  0
 14 15  2  0
 15 16  1  0
 16 17  2  0
 17 18  1  0
 18 19  1  1
 18 20  1  0
 20 21  1  0
 21 22  1  0
 22 23  1  0
 23 24  1  0
 24 25  2  0
 25 26  1  0
 26 27  2  0
 27 28  1  0
 28 29  2  0
 22 30  1  0
 17 31  1  0
 31 32  2  0
 32  8  1  0
 32 14  1  0
 30 18  1  0
 29 24  1  0
  1 33  1  0
  1 34  1  0
  1 35  1  0
  3 36  1  0
  3 37  1  0
  3 38  1  0
  4 39  1  0
  4 40  1  0
  4 41  1  0
 11 42  1  0
 13 43  1  0
 15 44  1  0
 16 45  1  0
 20 46  1  0
 20 47  1  0
 21 48  1  0
 21 49  1  0
 23 50  1  0
 23 51  1  0
 25 52  1  0
 26 53  1  0
 27 54  1  0
 28 55  1  0
 29 56  1  0
 30 57  1  0
 30 58  1  0
 31 59  1  0
M  CHG  1  11  -1
M  END
>  <UniqueID>  (54) 
54

>  <SMILES>  (54) 
CC(C)(C)OC(=O)n1c(C([NH-])=O)cc2ccc([C@@]3(F)CCN(Cc4ccccc4)C3)cc21

>  <Energy>  (54) 
102.82242518393016

>  <Genealogy>  (54) 
CC(C)(C)OC(=O)n1c(C([NH-])=O)cc2ccc(C3(F)CCN(Cc4ccccc4)C3)cc21 (protonated)
CC(C)(C)OC(=O)n1c(C([NH-])=O)cc2ccc([C@@]3(F)CCN(Cc4ccccc4)C3)cc21 (chirality)
CC(C)(C)OC(=O)n1c(C([NH-])=O)cc2ccc([C@@]3(F)CCN(Cc4ccccc4)C3)cc21 (3D coordinates assigned)
CC(C)(C)OC(=O)n1c(C([NH-])=O)cc2ccc([C@@]3(F)CCN(Cc4ccccc4)C3)cc21 (nonaromatic ring conformer: 102.82242518393016 kcal/mol)

>  <smiles>  (54) 
CC(C)(C)OC(=O)n1c(C(N)=O)cc2ccc(C3(F)CCN(Cc4ccccc4)C3)cc21

>  <score_type>  (54) 
oracle

>  <origin>  (54) 
adg

>  <m_score__min__energy>  (54) 
-9.9199999999999999

>  <m_primary>  (54) 
energy

$$$$
54:0
     RDKit          3D

 41 43  0  0  0  0  0  0  0  0999 V2000
  137.4270  160.1230  130.7440 C   0  0  0  0  0  0  0  0  0  0  0  0
  138.9480  160.0840  130.6510 C   0  0  0  0  0  0  0  0  0  0  0  0
  139.4360  158.7860  130.9780 O   0  0  0  0  0  0  0  0  0  0  0  0
  139.6620  158.3560  132.2900 C   0  0  0  0  0  0  0  0  0  0  0  0
  139.6050  157.1310  132.5880 O   0  0  0  0  0  0  0  0  0  0  0  0
  139.9210  159.3680  133.3570 C   0  0  0  0  0  0  0  0  0  0  0  0
  141.3580  159.5500  133.5220 N   0  0  0  0  0  0  0  0  0  0  0  0
  142.2970  158.5990  133.3620 C   0  0  0  0  0  0  0  0  0  0  0  0
  143.5390  159.1870  133.5250 C   0  0  0  0  0  0  0  0  0  0  0  0
  144.8710  158.5360  133.4270 C   0  0  0  0  0  0  0  0  0  0  0  0
  146.0600  159.3100  133.5040 C   0  0  0  0  0  0  0  0  0  0  0  0
  147.3230  158.7010  133.4240 C   0  0  0  0  0  0  0  0  0  0  0  0
  147.3740  157.3220  133.2580 C   0  0  0  0  0  0  0  0  0  0  0  0
  148.4590  156.4800  133.1800 C   0  0  0  0  0  0  0  0  0  0  0  0
  147.9260  155.2020  133.0310 C   0  0  0  0  0  0  0  0  0  0  0  0
  148.7540  153.9940  132.8300 C   0  0  0  0  0  0  0  0  0  0  0  0
  148.3020  152.7130  133.2600 N   0  0  0  0  0  0  0  0  0  0  0  0
  149.8590  154.0880  132.2310 O   0  0  0  0  0  0  0  0  0  0  0  0
  146.5630  155.2520  133.0240 N   0  0  0  0  0  0  0  0  0  0  0  0
  145.6430  154.1490  132.9720 C   0  0  0  0  0  0  0  0  0  0  0  0
  145.6160  153.1860  134.0240 N   0  0  0  0  0  0  0  0  0  0  0  0
  144.8630  154.0210  131.9910 O   0  0  0  0  0  0  0  0  0  0  0  0
  146.2420  156.5570  133.1630 C   0  0  0  0  0  0  0  0  0  0  0  0
  144.9700  157.1320  133.2610 C   0  0  0  0  0  0  0  0  0  0  0  0
  143.2630  160.5240  133.7780 C   0  0  0  0  0  0  0  0  0  0  0  0
  141.9300  160.7190  133.7640 N   0  0  0  0  0  0  0  0  0  0  0  0
  137.1244  160.1308  131.8015 H   0  0  0  0  0  0  0  0  0  0  0  0
  137.0525  161.0310  130.2488 H   0  0  0  0  0  0  0  0  0  0  0  0
  137.0065  159.2353  130.2488 H   0  0  0  0  0  0  0  0  0  0  0  0
  139.2544  160.3379  129.6255 H   0  0  0  0  0  0  0  0  0  0  0  0
  139.3662  160.8105  131.3632 H   0  0  0  0  0  0  0  0  0  0  0  0
  139.4613  160.3258  133.0720 H   0  0  0  0  0  0  0  0  0  0  0  0
  139.4866  159.0178  134.3049 H   0  0  0  0  0  0  0  0  0  0  0  0
  142.1095  157.5380  133.1401 H   0  0  0  0  0  0  0  0  0  0  0  0
  145.9904  160.4008  133.6279 H   0  0  0  0  0  0  0  0  0  0  0  0
  148.2446  159.2978  133.4907 H   0  0  0  0  0  0  0  0  0  0  0  0
  149.5225  156.7574  133.2256 H   0  0  0  0  0  0  0  0  0  0  0  0
  147.6940  152.6120  134.1030 H   0  0  0  0  0  0  0  0  0  0  0  0
  146.3000  152.3980  134.0460 H   0  0  0  0  0  0  0  0  0  0  0  0
  144.0660  156.5074  133.2103 H   0  0  0  0  0  0  0  0  0  0  0  0
  144.0166  161.3039  133.9616 H   0  0  0  0  0  0  0  0  0  0  0  0
  1  2  1  0
  2  3  1  0
  3  4  1  0
  4  5  2  0
  4  6  1  0
  6  7  1  0
  7  8  1  0
  8  9  2  0
  9 10  1  0
 10 11  2  0
 11 12  1  0
 12 13  2  0
 13 14  1  0
 14 15  2  0
 15 16  1  0
 16 17  1  0
 16 18  2  0
 15 19  1  0
 19 20  1  0
 20 21  1  0
 20 22  2  0
 19 23  1  0
 23 24  2  0
  9 25  1  0
 25 26  2  0
 26  7  1  0
 24 10  1  0
 23 13  1  0
  1 27  1  0
  1 28  1  0
  1 29  1  0
  2 30  1  0
  2 31  1  0
  6 32  1  0
  6 33  1  0
  8 34  1  0
 11 35  1  0
 12 36  1  0
 14 37  1  0
 17 38  1  0
 21 39  1  0
 24 40  1  0
 25 41  1  0
M  CHG  2  17  -1  21  -1
M  END
>  <UniqueID>  (55) 
55

>  <SMILES>  (55) 
CCOC(=O)Cn1cc(-c2ccc3cc(C([NH-])=O)n(C([NH-])=O)c3c2)cn1

>  <Energy>  (55) 
108.02335893761115

>  <Genealogy>  (55) 
CCOC(=O)Cn1cc(-c2ccc3cc(C([NH-])=O)n(C([NH-])=O)c3c2)cn1 (protonated)
CCOC(=O)Cn1cc(-c2ccc3cc(C([NH-])=O)n(C([NH-])=O)c3c2)cn1 (3D coordinates assigned)
CCOC(=O)Cn1cc(-c2ccc3cc(C([NH-])=O)n(C([NH-])=O)c3c2)cn1 (optimized conformer: 108.02335893761115 kcal/mol)

>  <smiles>  (55) 
CCOC(=O)Cn1cc(-c2ccc3cc(C(N)=O)n(C(N)=O)c3c2)cn1

>  <score_type>  (55) 
oracle

>  <origin>  (55) 
adg

>  <m_score__min__energy>  (55) 
-7.6500000000000004

>  <m_primary>  (55) 
energy

$$$$
55:0
     RDKit          3D

 40 42  0  0  0  0  0  0  0  0999 V2000
  138.7250  148.8650  129.1240 C   0  0  0  0  0  0  0  0  0  0  0  0
  138.8340  148.0820  130.7140 S   0  0  0  0  0  0  0  0  0  0  0  0
  140.0090  146.8820  130.7260 O   0  0  0  0  0  0  0  0  0  0  0  0
  139.1530  149.2470  131.9550 N   0  0  0  0  0  0  0  0  0  0  0  0
  140.4570  149.7830  132.2220 C   0  0  0  0  0  0  0  0  0  0  0  0
  140.6350  150.9930  132.9160 C   0  0  0  0  0  0  0  0  0  0  0  0
  141.9310  151.4800  133.1540 C   0  0  0  0  0  0  0  0  0  0  0  0
  142.1370  152.7560  133.8840 C   0  0  0  0  0  0  0  0  0  0  0  0
  143.2380  152.9080  134.7660 C   0  0  0  0  0  0  0  0  0  0  0  0
  143.4360  154.1060  135.4710 C   0  0  0  0  0  0  0  0  0  0  0  0
  142.5270  155.1390  135.2710 C   0  0  0  0  0  0  0  0  0  0  0  0
  142.4660  156.3870  135.8470 C   0  0  0  0  0  0  0  0  0  0  0  0
  141.3470  156.9960  135.2880 C   0  0  0  0  0  0  0  0  0  0  0  0
  140.9480  158.3860  135.5820 C   0  0  0  0  0  0  0  0  0  0  0  0
  139.6510  158.6920  136.0940 N   0  0  0  0  0  0  0  0  0  0  0  0
  141.7460  159.3270  135.3220 O   0  0  0  0  0  0  0  0  0  0  0  0
  140.7280  156.1560  134.4100 N   0  0  0  0  0  0  0  0  0  0  0  0
  139.4810  156.3690  133.7270 C   0  0  0  0  0  0  0  0  0  0  0  0
  139.1220  155.5510  132.6160 N   0  0  0  0  0  0  0  0  0  0  0  0
  138.7040  157.2880  134.0970 O   0  0  0  0  0  0  0  0  0  0  0  0
  141.4670  155.0220  134.4100 C   0  0  0  0  0  0  0  0  0  0  0  0
  141.2330  153.8320  133.7090 C   0  0  0  0  0  0  0  0  0  0  0  0
  143.0290  150.7360  132.6910 C   0  0  0  0  0  0  0  0  0  0  0  0
  142.8140  149.5400  132.0070 C   0  0  0  0  0  0  0  0  0  0  0  0
  141.5490  149.0960  131.7900 N   0  0  0  0  0  0  0  0  0  0  0  0
  138.5745  149.9465  129.2574 H   0  0  0  0  0  0  0  0  0  0  0  0
  139.6561  148.6906  128.5648 H   0  0  0  0  0  0  0  0  0  0  0  0
  137.8769  148.4430  128.5648 H   0  0  0  0  0  0  0  0  0  0  0  0
  140.8040  147.3170  131.1240 H   0  0  0  0  0  0  0  0  0  0  0  0
  138.3470  149.5630  132.5410 H   0  0  0  0  0  0  0  0  0  0  0  0
  139.7606  151.5574  133.2720 H   0  0  0  0  0  0  0  0  0  0  0  0
  143.9457  152.0765  134.8992 H   0  0  0  0  0  0  0  0  0  0  0  0
  144.2847  154.2238  136.1608 H   0  0  0  0  0  0  0  0  0  0  0  0
  143.1553  156.8126  136.5911 H   0  0  0  0  0  0  0  0  0  0  0  0
  139.3990  159.6770  136.3300 H   0  0  0  0  0  0  0  0  0  0  0  0
  138.9120  157.9570  136.1640 H   0  0  0  0  0  0  0  0  0  0  0  0
  138.1290  155.2690  132.4570 H   0  0  0  0  0  0  0  0  0  0  0  0
  140.3668  153.7355  133.0379 H   0  0  0  0  0  0  0  0  0  0  0  0
  144.0537  151.0952  132.8672 H   0  0  0  0  0  0  0  0  0  0  0  0
  143.6710  148.9548  131.6423 H   0  0  0  0  0  0  0  0  0  0  0  0
  1  2  1  0
  2  3  1  6
  2  4  1  0
  4  5  1  0
  5  6  2  0
  6  7  1  0
  7  8  1  0
  8  9  2  0
  9 10  1  0
 10 11  2  0
 11 12  1  0
 12 13  2  0
 13 14  1  0
 14 15  1  0
 14 16  2  0
 13 17  1  0
 17 18  1  0
 18 19  1  0
 18 20  2  0
 17 21  1  0
 21 22  2  0
  7 23  2  0
 23 24  1  0
 24 25  2  0
 25  5  1  0
 22  8  1  0
 21 11  1  0
  1 26  1  0
  1 27  1  0
  1 28  1  0
  3 29  1  0
  4 30  1  0
  6 31  1  0
  9 32  1  0
 10 33  1  0
 12 34  1  0
 15 35  1  0
 15 36  1  0
 19 37  1  0
 22 38  1  0
 23 39  1  0
 24 40  1  0
M  CHG  2   2   1  19  -1
M  END
>  <UniqueID>  (56) 
56

>  <SMILES>  (56) 
C[S@@+](O)Nc1cc(-c2ccc3cc(C(N)=O)n(C([NH-])=O)c3c2)ccn1

>  <Energy>  (56) 
84.53585415310282

>  <Genealogy>  (56) 
C[S+](O)Nc1cc(-c2ccc3cc(C(N)=O)n(C([NH-])=O)c3c2)ccn1 (protonated)
C[S@@+](O)Nc1cc(-c2ccc3cc(C(N)=O)n(C([NH-])=O)c3c2)ccn1 (chirality)
C[S@@+](O)Nc1cc(-c2ccc3cc(C(N)=O)n(C([NH-])=O)c3c2)ccn1 (3D coordinates assigned)
C[S@@+](O)Nc1cc(-c2ccc3cc(C(N)=O)n(C([NH-])=O)c3c2)ccn1 (optimized conformer: 84.53585415310282 kcal/mol)

>  <smiles>  (56) 
C[S+]([O-])Nc1cc(-c2ccc3cc(C(N)=O)n(C(N)=O)c3c2)ccn1

>  <score_type>  (56) 
oracle

>  <origin>  (56) 
adg

>  <m_score__min__energy>  (56) 
-8.6699999999999999

>  <m_primary>  (56) 
energy

$$$$
56:0
     RDKit          3D

 25 26  0  0  0  0  0  0  0  0999 V2000
  148.4870  161.5480  131.4910 N   0  0  0  0  0  0  0  0  0  0  0  0
  149.0620  160.2780  131.1830 C   0  0  0  0  0  0  0  0  0  0  0  0
  149.9400  160.2050  130.2830 O   0  0  0  0  0  0  0  0  0  0  0  0
  148.6630  159.0660  131.9330 C   0  0  0  0  0  0  0  0  0  0  0  0
  149.3670  157.8630  131.8940 C   0  0  0  0  0  0  0  0  0  0  0  0
  148.6180  156.9790  132.6350 C   0  0  0  0  0  0  0  0  0  0  0  0
  148.8480  155.6380  132.9240 C   0  0  0  0  0  0  0  0  0  0  0  0
  147.9130  154.9670  133.7300 C   0  0  0  0  0  0  0  0  0  0  0  0
  146.7830  155.6500  134.2500 C   0  0  0  0  0  0  0  0  0  0  0  0
  145.7670  154.9100  135.0830 C   0  0  0  0  0  0  0  0  0  0  0  0
  144.6510  155.6970  135.3080 F   0  0  0  0  0  0  0  0  0  0  0  0
  145.3570  153.7540  134.4400 F   0  0  0  0  0  0  0  0  0  0  0  0
  146.3330  154.5720  136.2970 F   0  0  0  0  0  0  0  0  0  0  0  0
  146.5710  157.0070  133.9120 C   0  0  0  0  0  0  0  0  0  0  0  0
  147.5110  157.6450  133.0930 C   0  0  0  0  0  0  0  0  0  0  0  0
  147.5240  158.9300  132.6690 N   0  0  0  0  0  0  0  0  0  0  0  0
  146.5700  159.9530  132.9990 C   0  0  0  0  0  0  0  0  0  0  0  0
  145.3690  159.8470  132.6370 O   0  0  0  0  0  0  0  0  0  0  0  0
  146.9600  161.0650  133.7370 O   0  0  0  0  0  0  0  0  0  0  0  0
  147.7190  161.6400  132.1920 H   0  0  0  0  0  0  0  0  0  0  0  0
  148.8020  162.4040  130.9830 H   0  0  0  0  0  0  0  0  0  0  0  0
  150.3188  157.6635  131.3800 H   0  0  0  0  0  0  0  0  0  0  0  0
  149.7353  155.1184  132.5332 H   0  0  0  0  0  0  0  0  0  0  0  0
  148.0584  153.9012  133.9603 H   0  0  0  0  0  0  0  0  0  0  0  0
  145.6886  157.5485  134.2837 H   0  0  0  0  0  0  0  0  0  0  0  0
  1  2  1  0
  2  3  2  0
  2  4  1  0
  4  5  2  0
  5  6  1  0
  6  7  2  0
  7  8  1  0
  8  9  2  0
  9 10  1  0
 10 11  1  0
 10 12  1  0
 10 13  1  0
  9 14  1  0
 14 15  2  0
 15 16  1  0
 16 17  1  0
 17 18  2  0
 17 19  1  0
 16  4  1  0
 15  6  1  0
  1 20  1  0
  1 21  1  0
  5 22  1  0
  7 23  1  0
  8 24  1  0
 14 25  1  0
M  CHG  1  19  -1
M  END
>  <UniqueID>  (57) 
57

>  <SMILES>  (57) 
NC(=O)c1cc2ccc(C(F)(F)F)cc2n1C(=O)[O-]

>  <Energy>  (57) 
65.43113066344922

>  <Genealogy>  (57) 
NC(=O)c1cc2ccc(C(F)(F)F)cc2n1C(=O)[O-] (protonated)
NC(=O)c1cc2ccc(C(F)(F)F)cc2n1C(=O)[O-] (3D coordinates assigned)
NC(=O)c1cc2ccc(C(F)(F)F)cc2n1C(=O)[O-] (optimized conformer: 65.43113066344922 kcal/mol)

>  <smiles>  (57) 
NC(=O)c1cc2ccc(C(F)(F)F)cc2n1C(=O)O

>  <score_type>  (57) 
oracle

>  <origin>  (57) 
adg

>  <m_score__min__energy>  (57) 
-5.3300000000000001

>  <m_primary>  (57) 
energy

$$$$
57:0
     RDKit          3D

 49 52  0  0  0  0  0  0  0  0999 V2000
  138.6130  159.3730  131.5850 C   0  0  0  0  0  0  0  0  0  0  0  0
  138.7370  158.0120  132.1270 N   0  0  0  0  0  0  0  0  0  0  0  0
  137.9860  157.8620  133.3980 C   0  0  0  0  0  0  0  0  0  0  0  0
  138.9060  157.9070  134.6280 C   0  0  0  0  0  0  0  0  0  0  0  0
  139.9140  156.8160  134.5990 N   0  0  0  0  0  0  0  0  0  0  0  0
  141.0720  157.1640  135.4510 C   0  0  0  0  0  0  0  0  0  0  0  0
  142.3970  156.7700  134.8610 C   0  0  0  0  0  0  0  0  0  0  0  0
  142.8930  158.1420  134.6500 N   0  0  0  0  0  0  0  0  0  0  0  0
  144.0660  158.7740  134.1380 C   0  0  0  0  0  0  0  0  0  0  0  0
  144.1520  160.1860  134.1090 C   0  0  0  0  0  0  0  0  0  0  0  0
  145.2950  160.8220  133.5930 C   0  0  0  0  0  0  0  0  0  0  0  0
  146.3290  160.0190  133.1200 C   0  0  0  0  0  0  0  0  0  0  0  0
  147.5330  160.3670  132.5530 C   0  0  0  0  0  0  0  0  0  0  0  0
  148.1670  159.1600  132.2630 C   0  0  0  0  0  0  0  0  0  0  0  0
  149.5380  159.0660  131.7170 C   0  0  0  0  0  0  0  0  0  0  0  0
  149.9980  160.0400  130.7830 N   0  0  0  0  0  0  0  0  0  0  0  0
  150.3170  158.1500  132.0880 O   0  0  0  0  0  0  0  0  0  0  0  0
  147.3820  158.1080  132.6300 N   0  0  0  0  0  0  0  0  0  0  0  0
  147.6460  156.7080  132.4590 C   0  0  0  0  0  0  0  0  0  0  0  0
  148.8570  156.1360  132.9510 N   0  0  0  0  0  0  0  0  0  0  0  0
  146.8200  155.9830  131.8450 O   0  0  0  0  0  0  0  0  0  0  0  0
  146.2630  158.6500  133.1570 C   0  0  0  0  0  0  0  0  0  0  0  0
  145.1340  157.9910  133.6550 C   0  0  0  0  0  0  0  0  0  0  0  0
  141.5910  158.5520  135.2040 C   0  0  0  0  0  0  0  0  0  0  0  0
  140.3520  156.4690  133.2210 C   0  0  0  0  0  0  0  0  0  0  0  0
  140.1620  157.6290  132.2350 C   0  0  0  0  0  0  0  0  0  0  0  0
  138.5474  160.0932  132.4139 H   0  0  0  0  0  0  0  0  0  0  0  0
  139.4939  159.6036  130.9678 H   0  0  0  0  0  0  0  0  0  0  0  0
  137.7050  159.4406  130.9678 H   0  0  0  0  0  0  0  0  0  0  0  0
  137.2532  158.6788  133.4743 H   0  0  0  0  0  0  0  0  0  0  0  0
  137.4922  156.8792  133.3830 H   0  0  0  0  0  0  0  0  0  0  0  0
  139.4284  158.8749  134.6475 H   0  0  0  0  0  0  0  0  0  0  0  0
  138.2848  157.7768  135.5264 H   0  0  0  0  0  0  0  0  0  0  0  0
  140.6931  156.8002  136.4175 H   0  0  0  0  0  0  0  0  0  0  0  0
  143.0203  156.1972  135.5634 H   0  0  0  0  0  0  0  0  0  0  0  0
  142.3757  156.1062  133.9841 H   0  0  0  0  0  0  0  0  0  0  0  0
  143.3177  160.7912  134.4933 H   0  0  0  0  0  0  0  0  0  0  0  0
  145.3697  161.9191  133.5641 H   0  0  0  0  0  0  0  0  0  0  0  0
  147.9144  161.3820  132.3678 H   0  0  0  0  0  0  0  0  0  0  0  0
  150.7380  160.7280  131.0470 H   0  0  0  0  0  0  0  0  0  0  0  0
  149.5910  156.7390  133.3810 H   0  0  0  0  0  0  0  0  0  0  0  0
  149.0410  155.1140  132.8420 H   0  0  0  0  0  0  0  0  0  0  0  0
  145.0811  156.8924  133.6693 H   0  0  0  0  0  0  0  0  0  0  0  0
  141.6901  159.1382  136.1295 H   0  0  0  0  0  0  0  0  0  0  0  0
  140.9701  159.2133  134.5818 H   0  0  0  0  0  0  0  0  0  0  0  0
  141.4181  156.1991  133.2471 H   0  0  0  0  0  0  0  0  0  0  0  0
  139.7310  155.6300  132.8740 H   0  0  0  0  0  0  0  0  0  0  0  0
  140.7410  158.4962  132.5855 H   0  0  0  0  0  0  0  0  0  0  0  0
  140.5113  157.3041  131.2438 H   0  0  0  0  0  0  0  0  0  0  0  0
  1  2  1  0
  2  3  1  0
  3  4  1  0
  4  5  1  0
  5  6  1  0
  6  7  1  0
  7  8  1  0
  8  9  1  0
  9 10  2  0
 10 11  1  0
 11 12  2  0
 12 13  1  0
 13 14  2  0
 14 15  1  0
 15 16  1  0
 15 17  2  0
 14 18  1  0
 18 19  1  0
 19 20  1  0
 19 21  2  0
 18 22  1  0
 22 23  2  0
  8 24  1  0
  5 25  1  0
 25 26  1  0
 26  2  1  0
 24  6  1  0
 23  9  1  0
 22 12  1  0
  1 27  1  0
  1 28  1  0
  1 29  1  0
  3 30  1  0
  3 31  1  0
  4 32  1  0
  4 33  1  0
  6 34  1  0
  7 35  1  0
  7 36  1  0
 10 37  1  0
 11 38  1  0
 13 39  1  0
 16 40  1  0
 20 41  1  0
 20 42  1  0
 23 43  1  0
 24 44  1  0
 24 45  1  0
 25 46  1  0
 25 47  1  0
 26 48  1  0
 26 49  1  0
M  CHG  1  16  -1
M  END
>  <UniqueID>  (58) 
58

>  <SMILES>  (58) 
CN1CCN(C2CN(c3ccc4cc(C([NH-])=O)n(C(N)=O)c4c3)C2)CC1

>  <Energy>  (58) 
146.0756460391505

>  <Genealogy>  (58) 
CN1CCN(C2CN(c3ccc4cc(C([NH-])=O)n(C(N)=O)c4c3)C2)CC1 (protonated)
CN1CCN(C2CN(c3ccc4cc(C([NH-])=O)n(C(N)=O)c4c3)C2)CC1 (3D coordinates assigned)
CN1CCN(C2CN(c3ccc4cc(C([NH-])=O)n(C(N)=O)c4c3)C2)CC1 (nonaromatic ring conformer: 146.0756460391505 kcal/mol)

>  <smiles>  (58) 
CN1CCN(C2CN(c3ccc4cc(C(N)=O)n(C(N)=O)c4c3)C2)CC1

>  <score_type>  (58) 
oracle

>  <origin>  (58) 
adg

>  <m_score__min__energy>  (58) 
-8.4000000000000004

>  <m_primary>  (58) 
energy

$$$$
58:0
     RDKit          3D

 46 48  0  0  0  0  0  0  0  0999 V2000
  142.0490  155.4030  133.5160 N   0  0  0  0  0  0  0  0  0  0  0  0
  143.0550  155.5870  134.5140 C   0  0  0  0  0  0  0  0  0  0  0  0
  142.9320  155.0120  135.6280 O   0  0  0  0  0  0  0  0  0  0  0  0
  144.2670  156.3880  134.2430 C   0  0  0  0  0  0  0  0  0  0  0  0
  145.5540  155.9710  134.5730 C   0  0  0  0  0  0  0  0  0  0  0  0
  146.3890  156.9510  134.0850 C   0  0  0  0  0  0  0  0  0  0  0  0
  147.7760  157.0510  134.1330 C   0  0  0  0  0  0  0  0  0  0  0  0
  148.3740  158.1880  133.5650 C   0  0  0  0  0  0  0  0  0  0  0  0
  147.5800  159.2040  132.9750 C   0  0  0  0  0  0  0  0  0  0  0  0
  148.2360  160.4140  132.3590 C   0  0  0  0  0  0  0  0  0  0  0  0
  148.5200  160.2370  130.8560 C   0  0  0  0  0  0  0  0  0  0  0  0
  148.8870  158.9190  130.6360 F   0  0  0  0  0  0  0  0  0  0  0  0
  147.3690  160.4940  130.1280 F   0  0  0  0  0  0  0  0  0  0  0  0
  149.6480  161.1570  130.3660 C   0  0  0  0  0  0  0  0  0  0  0  0
  149.1910  162.4780  130.2620 O   0  0  0  0  0  0  0  0  0  0  0  0
  146.1750  159.0690  132.9490 C   0  0  0  0  0  0  0  0  0  0  0  0
  145.6080  157.9150  133.5000 C   0  0  0  0  0  0  0  0  0  0  0  0
  144.3010  157.5850  133.5930 N   0  0  0  0  0  0  0  0  0  0  0  0
  143.1840  158.3800  133.1710 C   0  0  0  0  0  0  0  0  0  0  0  0
  142.2740  157.8630  132.4670 O   0  0  0  0  0  0  0  0  0  0  0  0
  143.1160  159.7310  133.5320 O   0  0  0  0  0  0  0  0  0  0  0  0
  141.9570  160.3290  134.1040 C   0  0  0  0  0  0  0  0  0  0  0  0
  141.2510  159.3420  134.9920 C   0  0  0  0  0  0  0  0  0  0  0  0
  140.1080  158.6600  134.5400 C   0  0  0  0  0  0  0  0  0  0  0  0
  139.4330  157.7770  135.3900 C   0  0  0  0  0  0  0  0  0  0  0  0
  139.8890  157.5740  136.6960 C   0  0  0  0  0  0  0  0  0  0  0  0
  141.0210  158.2540  137.1540 C   0  0  0  0  0  0  0  0  0  0  0  0
  141.6990  159.1370  136.3070 C   0  0  0  0  0  0  0  0  0  0  0  0
  142.2020  155.7130  132.5310 H   0  0  0  0  0  0  0  0  0  0  0  0
  141.1780  154.8730  133.7430 H   0  0  0  0  0  0  0  0  0  0  0  0
  145.8420  155.0546  135.1090 H   0  0  0  0  0  0  0  0  0  0  0  0
  148.3854  156.2640  134.6013 H   0  0  0  0  0  0  0  0  0  0  0  0
  149.4691  158.2913  133.5780 H   0  0  0  0  0  0  0  0  0  0  0  0
  147.5711  161.2802  132.4916 H   0  0  0  0  0  0  0  0  0  0  0  0
  149.2021  160.5608  132.8641 H   0  0  0  0  0  0  0  0  0  0  0  0
  150.4837  161.1178  131.0802 H   0  0  0  0  0  0  0  0  0  0  0  0
  149.9814  160.8158  129.3748 H   0  0  0  0  0  0  0  0  0  0  0  0
  148.2480  162.4320  129.9540 H   0  0  0  0  0  0  0  0  0  0  0  0
  145.5417  159.8520  132.5064 H   0  0  0  0  0  0  0  0  0  0  0  0
  142.2554  161.2049  134.6988 H   0  0  0  0  0  0  0  0  0  0  0  0
  141.2763  160.6386  133.2973 H   0  0  0  0  0  0  0  0  0  0  0  0
  139.7431  158.8210  133.5149 H   0  0  0  0  0  0  0  0  0  0  0  0
  138.5420  157.2416  135.0301 H   0  0  0  0  0  0  0  0  0  0  0  0
  139.3571  156.8794  137.3628 H   0  0  0  0  0  0  0  0  0  0  0  0
  141.3792  158.0946  138.1818 H   0  0  0  0  0  0  0  0  0  0  0  0
  142.5871  159.6732  136.6727 H   0  0  0  0  0  0  0  0  0  0  0  0
  1  2  1  0
  2  3  2  0
  2  4  1  0
  4  5  2  0
  5  6  1  0
  6  7  2  0
  7  8  1  0
  8  9  2  0
  9 10  1  0
 10 11  1  0
 11 12  1  0
 11 13  1  0
 11 14  1  0
 14 15  1  0
  9 16  1  0
 16 17  2  0
 17 18  1  0
 18 19  1  0
 19 20  2  0
 19 21  1  0
 21 22  1  0
 22 23  1  0
 23 24  2  0
 24 25  1  0
 25 26  2  0
 26 27  1  0
 27 28  2  0
 18  4  1  0
 28 23  1  0
 17  6  1  0
  1 29  1  0
  1 30  1  0
  5 31  1  0
  7 32  1  0
  8 33  1  0
 10 34  1  0
 10 35  1  0
 14 36  1  0
 14 37  1  0
 15 38  1  0
 16 39  1  0
 22 40  1  0
 22 41  1  0
 24 42  1  0
 25 43  1  0
 26 44  1  0
 27 45  1  0
 28 46  1  0
M  END
>  <UniqueID>  (59) 
59

>  <SMILES>  (59) 
NC(=O)c1cc2ccc(CC(F)(F)CO)cc2n1C(=O)OCc1ccccc1

>  <Energy>  (59) 
81.41425611710947

>  <Genealogy>  (59) 
NC(=O)c1cc2ccc(CC(F)(F)CO)cc2n1C(=O)OCc1ccccc1 (3D coordinates assigned)
NC(=O)c1cc2ccc(CC(F)(F)CO)cc2n1C(=O)OCc1ccccc1 (optimized conformer: 81.41425611710947 kcal/mol)

>  <smiles>  (59) 
NC(=O)c1cc2ccc(CC(F)(F)CO)cc2n1C(=O)OCc1ccccc1

>  <score_type>  (59) 
oracle

>  <origin>  (59) 
adg

>  <m_score__min__energy>  (59) 
-8.6999999999999993

>  <m_primary>  (59) 
energy

$$$$
59:0
     RDKit          3D

 63 67  0  0  0  0  0  0  0  0999 V2000
  141.0750  158.5640  132.6400 C   0  0  0  0  0  0  0  0  0  0  0  0
  140.6900  159.9880  133.0060 C   0  0  0  0  0  0  0  0  0  0  0  0
  141.8420  160.6880  133.4650 O   0  0  0  0  0  0  0  0  0  0  0  0
  142.7770  160.1160  134.3320 C   0  0  0  0  0  0  0  0  0  0  0  0
  142.4100  159.6470  135.4430 O   0  0  0  0  0  0  0  0  0  0  0  0
  144.1650  160.0830  133.9610 N   0  0  0  0  0  0  0  0  0  0  0  0
  145.0430  161.1250  133.9340 C   0  0  0  0  0  0  0  0  0  0  0  0
  144.7030  162.5530  134.1130 C   0  0  0  0  0  0  0  0  0  0  0  0
  143.6350  163.1490  133.3830 N   0  0  0  0  0  0  0  0  0  0  0  0
  145.3970  163.2670  134.8850 O   0  0  0  0  0  0  0  0  0  0  0  0
  146.3250  160.6760  133.6290 C   0  0  0  0  0  0  0  0  0  0  0  0
  146.2050  159.3160  133.4600 C   0  0  0  0  0  0  0  0  0  0  0  0
  147.1730  158.3640  133.1590 C   0  0  0  0  0  0  0  0  0  0  0  0
  146.7720  157.0210  133.0760 C   0  0  0  0  0  0  0  0  0  0  0  0
  145.4210  156.6490  133.3040 C   0  0  0  0  0  0  0  0  0  0  0  0
  145.0100  155.2240  133.2260 C   0  0  0  0  0  0  0  0  0  0  0  0
  145.4480  154.2970  134.1810 C   0  0  0  0  0  0  0  0  0  0  0  0
  145.0550  152.9600  134.0990 C   0  0  0  0  0  0  0  0  0  0  0  0
  144.2180  152.5430  133.0480 C   0  0  0  0  0  0  0  0  0  0  0  0
  143.7790  151.1750  132.9190 N   0  0  0  0  0  0  0  0  0  0  0  0
  142.5470  150.7520  132.2390 C   0  0  0  0  0  0  0  0  0  0  0  0
  141.3090  151.2920  132.9770 C   0  0  0  0  0  0  0  0  0  0  0  0
  140.0050  150.8960  132.2460 C   0  0  0  0  0  0  0  0  0  0  0  0
  140.2000  149.7530  131.3280 N   0  0  0  0  0  0  0  0  0  0  0  0
  138.8990  149.3300  130.7420 C   0  0  0  0  0  0  0  0  0  0  0  0
  138.8840  149.3370  129.2300 C   0  0  0  0  0  0  0  0  0  0  0  0
  138.6810  147.9440  129.1580 O   0  0  0  0  0  0  0  0  0  0  0  0
  138.6550  147.8430  130.5640 C   0  0  0  0  0  0  0  0  0  0  0  0
  141.0260  148.7040  131.9660 C   0  0  0  0  0  0  0  0  0  0  0  0
  142.4720  149.2080  132.1390 C   0  0  0  0  0  0  0  0  0  0  0  0
  143.8000  153.4640  132.1300 N   0  0  0  0  0  0  0  0  0  0  0  0
  144.1720  154.7710  132.1950 C   0  0  0  0  0  0  0  0  0  0  0  0
  144.4670  157.6500  133.6090 C   0  0  0  0  0  0  0  0  0  0  0  0
  144.8930  158.9820  133.6660 C   0  0  0  0  0  0  0  0  0  0  0  0
  141.2331  157.9794  133.5583 H   0  0  0  0  0  0  0  0  0  0  0  0
  140.2683  158.1066  132.0484 H   0  0  0  0  0  0  0  0  0  0  0  0
  142.0023  158.5754  132.0484 H   0  0  0  0  0  0  0  0  0  0  0  0
  140.2807  160.4963  132.1205 H   0  0  0  0  0  0  0  0  0  0  0  0
  139.9308  159.9696  133.8018 H   0  0  0  0  0  0  0  0  0  0  0  0
  142.7170  162.6630  133.2790 H   0  0  0  0  0  0  0  0  0  0  0  0
  147.2399  161.2805  133.5417 H   0  0  0  0  0  0  0  0  0  0  0  0
  148.2207  158.6542  132.9911 H   0  0  0  0  0  0  0  0  0  0  0  0
  147.5143  156.2470  132.8311 H   0  0  0  0  0  0  0  0  0  0  0  0
  146.1052  154.6246  135.0000 H   0  0  0  0  0  0  0  0  0  0  0  0
  145.3982  152.2360  134.8526 H   0  0  0  0  0  0  0  0  0  0  0  0
  144.3930  150.4410  133.3420 H   0  0  0  0  0  0  0  0  0  0  0  0
  142.5636  151.1674  131.2206 H   0  0  0  0  0  0  0  0  0  0  0  0
  141.2894  150.8774  133.9957 H   0  0  0  0  0  0  0  0  0  0  0  0
  141.3723  152.3898  133.0062 H   0  0  0  0  0  0  0  0  0  0  0  0
  139.2484  150.6220  132.9960 H   0  0  0  0  0  0  0  0  0  0  0  0
  139.6815  151.7585  131.6448 H   0  0  0  0  0  0  0  0  0  0  0  0
  138.2664  149.9516  131.3927 H   0  0  0  0  0  0  0  0  0  0  0  0
  138.0569  149.9230  128.8027 H   0  0  0  0  0  0  0  0  0  0  0  0
  139.7352  149.7791  128.6915 H   0  0  0  0  0  0  0  0  0  0  0  0
  137.6865  147.5062  130.9622 H   0  0  0  0  0  0  0  0  0  0  0  0
  139.3275  147.1281  131.0607 H   0  0  0  0  0  0  0  0  0  0  0  0
  140.6051  148.4578  132.9520 H   0  0  0  0  0  0  0  0  0  0  0  0
  141.0287  147.8076  131.3285 H   0  0  0  0  0  0  0  0  0  0  0  0
  142.8909  148.7730  133.0584 H   0  0  0  0  0  0  0  0  0  0  0  0
  143.0449  148.8994  131.2521 H   0  0  0  0  0  0  0  0  0  0  0  0
  143.1800  153.1650  131.3450 H   0  0  0  0  0  0  0  0  0  0  0  0
  143.8131  155.4787  131.4332 H   0  0  0  0  0  0  0  0  0  0  0  0
  143.4156  157.3869  133.7967 H   0  0  0  0  0  0  0  0  0  0  0  0
  1  2  1  0
  2  3  1  0
  3  4  1  0
  4  5  2  0
  4  6  1  0
  6  7  1  0
  7  8  1  0
  8  9  1  0
  8 10  2  0
  7 11  2  0
 11 12  1  0
 12 13  2  0
 13 14  1  0
 14 15  2  0
 15 16  1  0
 16 17  2  0
 17 18  1  0
 18 19  2  0
 19 20  1  0
 20 21  1  0
 21 22  1  0
 22 23  1  0
 23 24  1  0
 24 25  1  0
 25 26  1  0
 26 27  1  0
 27 28  1  0
 24 29  1  0
 29 30  1  0
 19 31  1  0
 31 32  2  0
 15 33  1  0
 33 34  2  0
 34  6  1  0
 34 12  1  0
 32 16  1  0
 30 21  1  0
 28 25  1  0
  1 35  1  0
  1 36  1  0
  1 37  1  0
  2 38  1  0
  2 39  1  0
  9 40  1  0
 11 41  1  0
 13 42  1  0
 14 43  1  0
 17 44  1  0
 18 45  1  0
 20 46  1  0
 21 47  1  0
 22 48  1  0
 22 49  1  0
 23 50  1  0
 23 51  1  0
 25 52  1  0
 26 53  1  0
 26 54  1  0
 28 55  1  0
 28 56  1  0
 29 57  1  0
 29 58  1  0
 30 59  1  0
 30 60  1  0
 31 61  1  0
 32 62  1  0
 33 63  1  0
M  CHG  2   9  -1  31   1
M  END
>  <UniqueID>  (60) 
60

>  <SMILES>  (60) 
CCOC(=O)n1c(C([NH-])=O)cc2ccc(-c3ccc(NC4CCN(C5COC5)CC4)[nH+]c3)cc21

>  <Energy>  (60) 
184.0401702185478

>  <Genealogy>  (60) 
CCOC(=O)n1c(C([NH-])=O)cc2ccc(-c3ccc(NC4CCN(C5COC5)CC4)[nH+]c3)cc21 (protonated)
CCOC(=O)n1c(C([NH-])=O)cc2ccc(-c3ccc(NC4CCN(C5COC5)CC4)[nH+]c3)cc21 (3D coordinates assigned)
CCOC(=O)n1c(C([NH-])=O)cc2ccc(-c3ccc(NC4CCN(C5COC5)CC4)[nH+]c3)cc21 (nonaromatic ring conformer: 184.0401702185478 kcal/mol)

>  <smiles>  (60) 
CCOC(=O)n1c(C(N)=O)cc2ccc(-c3ccc(NC4CCN(C5COC5)CC4)nc3)cc21

>  <score_type>  (60) 
oracle

>  <origin>  (60) 
adg

>  <m_score__min__energy>  (60) 
-10.279999999999999

>  <m_primary>  (60) 
energy

$$$$
60:0
     RDKit          3D

 52 54  0  0  0  0  0  0  0  0999 V2000
  138.3600  158.2430  132.6670 C   0  0  0  0  0  0  0  0  0  0  0  0
  139.6940  157.9800  133.3990 C   0  0  0  0  0  0  0  0  0  0  0  0
  140.5760  159.2360  133.2760 C   0  0  0  0  0  0  0  0  0  0  0  0
  139.4520  157.6800  134.8880 C   0  0  0  0  0  0  0  0  0  0  0  0
  140.4100  156.8940  132.7900 O   0  0  0  0  0  0  0  0  0  0  0  0
  140.2380  155.5250  133.0410 C   0  0  0  0  0  0  0  0  0  0  0  0
  139.0890  155.0520  133.2300 O   0  0  0  0  0  0  0  0  0  0  0  0
  141.3910  154.6610  133.0780 N   0  0  0  0  0  0  0  0  0  0  0  0
  142.6870  155.0320  133.2930 C   0  0  0  0  0  0  0  0  0  0  0  0
  143.1960  156.4180  133.3380 C   0  0  0  0  0  0  0  0  0  0  0  0
  142.8120  157.3770  132.3500 N   0  0  0  0  0  0  0  0  0  0  0  0
  144.0400  156.7390  134.2180 O   0  0  0  0  0  0  0  0  0  0  0  0
  143.5150  153.9170  133.3700 C   0  0  0  0  0  0  0  0  0  0  0  0
  142.6900  152.8350  133.1690 C   0  0  0  0  0  0  0  0  0  0  0  0
  142.9980  151.4800  133.1060 C   0  0  0  0  0  0  0  0  0  0  0  0
  141.9530  150.5770  132.8560 C   0  0  0  0  0  0  0  0  0  0  0  0
  140.6240  151.0400  132.6950 C   0  0  0  0  0  0  0  0  0  0  0  0
  139.5250  150.0640  132.3560 C   0  0  0  0  0  0  0  0  0  0  0  0
  139.6240  149.5850  130.8900 C   0  0  0  0  0  0  0  0  0  0  0  0
  140.6020  148.3950  130.7510 C   0  0  0  0  0  0  0  0  0  0  0  0
  139.8430  147.0600  130.6920 C   0  0  0  0  0  0  0  0  0  0  0  0
  138.9420  146.9550  129.5960 O   0  0  0  0  0  0  0  0  0  0  0  0
  138.3690  148.1940  129.1870 C   0  0  0  0  0  0  0  0  0  0  0  0
  138.2330  149.2230  130.3170 C   0  0  0  0  0  0  0  0  0  0  0  0
  140.3460  152.4230  132.7800 C   0  0  0  0  0  0  0  0  0  0  0  0
  141.4110  153.3070  132.9990 C   0  0  0  0  0  0  0  0  0  0  0  0
  137.5609  158.4005  133.4064 H   0  0  0  0  0  0  0  0  0  0  0  0
  138.4581  159.1391  132.0366 H   0  0  0  0  0  0  0  0  0  0  0  0
  138.1107  157.3767  132.0366 H   0  0  0  0  0  0  0  0  0  0  0  0
  140.8337  159.6029  134.2805 H   0  0  0  0  0  0  0  0  0  0  0  0
  141.4973  158.9850  132.7298 H   0  0  0  0  0  0  0  0  0  0  0  0
  140.0272  160.0174  132.7298 H   0  0  0  0  0  0  0  0  0  0  0  0
  140.0247  158.3899  135.5029 H   0  0  0  0  0  0  0  0  0  0  0  0
  138.3801  157.7817  135.1130 H   0  0  0  0  0  0  0  0  0  0  0  0
  139.7782  156.6538  135.1130 H   0  0  0  0  0  0  0  0  0  0  0  0
  143.1330  158.3680  132.4310 H   0  0  0  0  0  0  0  0  0  0  0  0
  142.2150  157.0950  131.5390 H   0  0  0  0  0  0  0  0  0  0  0  0
  144.5996  153.9035  133.5529 H   0  0  0  0  0  0  0  0  0  0  0  0
  144.0300  151.1266  133.2479 H   0  0  0  0  0  0  0  0  0  0  0  0
  142.1679  149.5006  132.7845 H   0  0  0  0  0  0  0  0  0  0  0  0
  139.6029  149.1925  133.0226 H   0  0  0  0  0  0  0  0  0  0  0  0
  138.5589  150.5732  132.4878 H   0  0  0  0  0  0  0  0  0  0  0  0
  140.0235  150.4229  130.2998 H   0  0  0  0  0  0  0  0  0  0  0  0
  141.1873  148.5168  129.8276 H   0  0  0  0  0  0  0  0  0  0  0  0
  141.2642  148.3822  131.6292 H   0  0  0  0  0  0  0  0  0  0  0  0
  140.5793  146.2466  130.6137 H   0  0  0  0  0  0  0  0  0  0  0  0
  139.2382  146.9968  131.6086 H   0  0  0  0  0  0  0  0  0  0  0  0
  139.0052  148.6262  128.4006 H   0  0  0  0  0  0  0  0  0  0  0  0
  137.3508  147.9724  128.8347 H   0  0  0  0  0  0  0  0  0  0  0  0
  137.7558  150.1325  129.9230 H   0  0  0  0  0  0  0  0  0  0  0  0
  137.6187  148.7903  131.1204 H   0  0  0  0  0  0  0  0  0  0  0  0
  139.3168  152.7971  132.6766 H   0  0  0  0  0  0  0  0  0  0  0  0
  1  2  1  0
  2  3  1  0
  2  4  1  0
  2  5  1  0
  5  6  1  0
  6  7  2  0
  6  8  1  0
  8  9  1  0
  9 10  1  0
 10 11  1  0
 10 12  2  0
  9 13  2  0
 13 14  1  0
 14 15  2  0
 15 16  1  0
 16 17  2  0
 17 18  1  0
 18 19  1  0
 19 20  1  0
 20 21  1  0
 21 22  1  0
 22 23  1  0
 23 24  1  0
 17 25  1  0
 25 26  2  0
 26  8  1  0
 26 14  1  0
 24 19  1  0
  1 27  1  0
  1 28  1  0
  1 29  1  0
  3 30  1  0
  3 31  1  0
  3 32  1  0
  4 33  1  0
  4 34  1  0
  4 35  1  0
 11 36  1  0
 11 37  1  0
 13 38  1  0
 15 39  1  0
 16 40  1  0
 18 41  1  0
 18 42  1  0
 19 43  1  0
 20 44  1  0
 20 45  1  0
 21 46  1  0
 21 47  1  0
 23 48  1  0
 23 49  1  0
 24 50  1  0
 24 51  1  0
 25 52  1  0
M  END
>  <UniqueID>  (61) 
61

>  <SMILES>  (61) 
CC(C)(C)OC(=O)n1c(C(N)=O)cc2ccc(CC3CCOCC3)cc21

>  <Energy>  (61) 
95.44155502162535

>  <Genealogy>  (61) 
CC(C)(C)OC(=O)n1c(C(N)=O)cc2ccc(CC3CCOCC3)cc21 (3D coordinates assigned)
CC(C)(C)OC(=O)n1c(C(N)=O)cc2ccc(CC3CCOCC3)cc21 (nonaromatic ring conformer: 95.44155502162535 kcal/mol)

>  <smiles>  (61) 
CC(C)(C)OC(=O)n1c(C(N)=O)cc2ccc(CC3CCOCC3)cc21

>  <score_type>  (61) 
oracle

>  <origin>  (61) 
adg

>  <m_score__min__energy>  (61) 
-9.0600000000000005

>  <m_primary>  (61) 
energy

$$$$
61:0
     RDKit          3D

 47 49  0  0  0  0  0  0  0  0999 V2000
  141.1200  158.6540  137.1400 C   0  0  0  0  0  0  0  0  0  0  0  0
  140.4140  158.5530  135.8270 C   0  0  0  0  0  0  0  0  0  0  0  0
  139.1200  158.1950  135.7070 N   0  0  0  0  0  0  0  0  0  0  0  0
  138.8340  158.2120  134.4370 O   0  0  0  0  0  0  0  0  0  0  0  0
  139.8770  158.5560  133.7170 C   0  0  0  0  0  0  0  0  0  0  0  0
  139.8610  158.6650  132.2260 C   0  0  0  0  0  0  0  0  0  0  0  0
  140.9430  158.7930  134.5690 C   0  0  0  0  0  0  0  0  0  0  0  0
  142.3180  159.2070  134.2180 C   0  0  0  0  0  0  0  0  0  0  0  0
  142.6390  160.5820  134.0890 C   0  0  0  0  0  0  0  0  0  0  0  0
  143.9390  160.9850  133.7440 C   0  0  0  0  0  0  0  0  0  0  0  0
  144.8980  159.9960  133.5470 C   0  0  0  0  0  0  0  0  0  0  0  0
  146.2190  160.1080  133.1740 C   0  0  0  0  0  0  0  0  0  0  0  0
  146.6930  158.8020  133.1110 C   0  0  0  0  0  0  0  0  0  0  0  0
  148.0960  158.4600  132.7990 C   0  0  0  0  0  0  0  0  0  0  0  0
  148.4190  157.5630  131.7360 N   0  0  0  0  0  0  0  0  0  0  0  0
  149.0200  158.9260  133.5170 O   0  0  0  0  0  0  0  0  0  0  0  0
  145.7080  157.9140  133.4210 N   0  0  0  0  0  0  0  0  0  0  0  0
  145.7740  156.4800  133.3490 C   0  0  0  0  0  0  0  0  0  0  0  0
  144.7660  155.7880  133.6550 O   0  0  0  0  0  0  0  0  0  0  0  0
  146.9680  155.8680  132.9340 O   0  0  0  0  0  0  0  0  0  0  0  0
  147.4810  154.6060  133.3870 C   0  0  0  0  0  0  0  0  0  0  0  0
  146.5250  153.4630  132.9970 C   0  0  0  0  0  0  0  0  0  0  0  0
  148.8300  154.3890  132.6850 C   0  0  0  0  0  0  0  0  0  0  0  0
  147.7100  154.6270  134.9100 C   0  0  0  0  0  0  0  0  0  0  0  0
  144.6130  158.6630  133.6890 C   0  0  0  0  0  0  0  0  0  0  0  0
  143.3190  158.2330  134.0070 C   0  0  0  0  0  0  0  0  0  0  0  0
  140.3911  158.5497  137.9572 H   0  0  0  0  0  0  0  0  0  0  0  0
  141.8715  157.8542  137.2147 H   0  0  0  0  0  0  0  0  0  0  0  0
  141.6171  159.6324  137.2147 H   0  0  0  0  0  0  0  0  0  0  0  0
  139.7068  159.7150  131.9367 H   0  0  0  0  0  0  0  0  0  0  0  0
  140.8208  158.3106  131.8221 H   0  0  0  0  0  0  0  0  0  0  0  0
  139.0436  158.0496  131.8221 H   0  0  0  0  0  0  0  0  0  0  0  0
  141.8615  161.3409  134.2610 H   0  0  0  0  0  0  0  0  0  0  0  0
  144.1917  162.0498  133.6328 H   0  0  0  0  0  0  0  0  0  0  0  0
  146.7792  161.0324  132.9697 H   0  0  0  0  0  0  0  0  0  0  0  0
  149.4170  157.3710  131.4970 H   0  0  0  0  0  0  0  0  0  0  0  0
  147.6730  157.0280  131.2380 H   0  0  0  0  0  0  0  0  0  0  0  0
  146.1289  152.9895  133.9075 H   0  0  0  0  0  0  0  0  0  0  0  0
  145.6927  153.8678  132.4025 H   0  0  0  0  0  0  0  0  0  0  0  0
  147.0706  152.7154  132.4025 H   0  0  0  0  0  0  0  0  0  0  0  0
  149.6199  154.2619  133.4399 H   0  0  0  0  0  0  0  0  0  0  0  0
  148.7754  153.4881  132.0562 H   0  0  0  0  0  0  0  0  0  0  0  0
  149.0607  155.2616  132.0562 H   0  0  0  0  0  0  0  0  0  0  0  0
  146.7433  154.5384  135.4274 H   0  0  0  0  0  0  0  0  0  0  0  0
  148.3571  153.7844  135.1951 H   0  0  0  0  0  0  0  0  0  0  0  0
  148.1931  155.5732  135.1951 H   0  0  0  0  0  0  0  0  0  0  0  0
  143.0872  157.1610  134.0906 H   0  0  0  0  0  0  0  0  0  0  0  0
  1  2  1  0
  2  3  2  0
  3  4  1  0
  4  5  1  0
  5  6  1  0
  5  7  2  0
  7  8  1  0
  8  9  2  0
  9 10  1  0
 10 11  2  0
 11 12  1  0
 12 13  2  0
 13 14  1  0
 14 15  1  0
 14 16  2  0
 13 17  1  0
 17 18  1  0
 18 19  2  0
 18 20  1  0
 20 21  1  0
 21 22  1  0
 21 23  1  0
 21 24  1  0
 17 25  1  0
 25 26  2  0
  7  2  1  0
 26  8  1  0
 25 11  1  0
  1 27  1  0
  1 28  1  0
  1 29  1  0
  6 30  1  0
  6 31  1  0
  6 32  1  0
  9 33  1  0
 10 34  1  0
 12 35  1  0
 15 36  1  0
 15 37  1  0
 22 38  1  0
 22 39  1  0
 22 40  1  0
 23 41  1  0
 23 42  1  0
 23 43  1  0
 24 44  1  0
 24 45  1  0
 24 46  1  0
 26 47  1  0
M  END
>  <UniqueID>  (62) 
62

>  <SMILES>  (62) 
Cc1noc(C)c1-c1ccc2cc(C(N)=O)n(C(=O)OC(C)(C)C)c2c1

>  <Energy>  (62) 
116.14231017299376

>  <Genealogy>  (62) 
Cc1noc(C)c1-c1ccc2cc(C(N)=O)n(C(=O)OC(C)(C)C)c2c1 (3D coordinates assigned)
Cc1noc(C)c1-c1ccc2cc(C(N)=O)n(C(=O)OC(C)(C)C)c2c1 (optimized conformer: 116.14231017299376 kcal/mol)

>  <smiles>  (62) 
Cc1noc(C)c1-c1ccc2cc(C(N)=O)n(C(=O)OC(C)(C)C)c2c1

>  <score_type>  (62) 
oracle

>  <origin>  (62) 
adg

>  <m_score__min__energy>  (62) 
-8.5999999999999996

>  <m_primary>  (62) 
energy

$$$$
62:0
     RDKit          3D

 33 35  0  0  0  0  0  0  0  0999 V2000
  143.2350  157.7240  132.6250 N   0  0  0  0  0  0  0  0  0  0  0  0
  143.8270  158.4200  133.7180 C   0  0  0  0  0  0  0  0  0  0  0  0
  143.1910  158.5290  134.8010 O   0  0  0  0  0  0  0  0  0  0  0  0
  145.1420  158.9870  133.5940 N   0  0  0  0  0  0  0  0  0  0  0  0
  145.4730  160.3090  133.5580 C   0  0  0  0  0  0  0  0  0  0  0  0
  144.5510  161.4380  133.7970 C   0  0  0  0  0  0  0  0  0  0  0  0
  143.1350  161.2650  133.7300 N   0  0  0  0  0  0  0  0  0  0  0  0
  145.0200  162.5620  134.1200 O   0  0  0  0  0  0  0  0  0  0  0  0
  146.8310  160.4710  133.3040 C   0  0  0  0  0  0  0  0  0  0  0  0
  147.3340  159.1960  133.1950 C   0  0  0  0  0  0  0  0  0  0  0  0
  148.6300  158.7680  132.9240 C   0  0  0  0  0  0  0  0  0  0  0  0
  148.8600  157.3870  132.8230 C   0  0  0  0  0  0  0  0  0  0  0  0
  147.7970  156.4590  132.9790 C   0  0  0  0  0  0  0  0  0  0  0  0
  148.0490  155.0000  132.8530 C   0  0  0  0  0  0  0  0  0  0  0  0
  149.3460  154.5200  132.5870 C   0  0  0  0  0  0  0  0  0  0  0  0
  149.5810  153.1460  132.4700 C   0  0  0  0  0  0  0  0  0  0  0  0
  148.5290  152.2380  132.6180 C   0  0  0  0  0  0  0  0  0  0  0  0
  148.8290  150.5160  132.4710 Cl  0  0  0  0  0  0  0  0  0  0  0  0
  147.2390  152.7040  132.8830 C   0  0  0  0  0  0  0  0  0  0  0  0
  146.9980  154.0760  133.0010 C   0  0  0  0  0  0  0  0  0  0  0  0
  146.4920  156.9360  133.2490 C   0  0  0  0  0  0  0  0  0  0  0  0
  146.2970  158.3170  133.3710 C   0  0  0  0  0  0  0  0  0  0  0  0
  142.5670  158.2030  131.9810 H   0  0  0  0  0  0  0  0  0  0  0  0
  142.7100  160.3150  133.6400 H   0  0  0  0  0  0  0  0  0  0  0  0
  142.4990  162.0840  133.8610 H   0  0  0  0  0  0  0  0  0  0  0  0
  147.3843  161.4171  133.2103 H   0  0  0  0  0  0  0  0  0  0  0  0
  149.4494  159.4900  132.7929 H   0  0  0  0  0  0  0  0  0  0  0  0
  149.8767  157.0191  132.6204 H   0  0  0  0  0  0  0  0  0  0  0  0
  150.1787  155.2293  132.4706 H   0  0  0  0  0  0  0  0  0  0  0  0
  150.5967  152.7792  132.2609 H   0  0  0  0  0  0  0  0  0  0  0  0
  146.4107  151.9895  132.9991 H   0  0  0  0  0  0  0  0  0  0  0  0
  145.9799  154.4357  133.2110 H   0  0  0  0  0  0  0  0  0  0  0  0
  145.6498  156.2372  133.3605 H   0  0  0  0  0  0  0  0  0  0  0  0
  1  2  1  0
  2  3  2  0
  2  4  1  0
  4  5  1  0
  5  6  1  0
  6  7  1  0
  6  8  2  0
  5  9  2  0
  9 10  1  0
 10 11  2  0
 11 12  1  0
 12 13  2  0
 13 14  1  0
 14 15  2  0
 15 16  1  0
 16 17  2  0
 17 18  1  0
 17 19  1  0
 19 20  2  0
 13 21  1  0
 21 22  2  0
 22  4  1  0
 22 10  1  0
 20 14  1  0
  1 23  1  0
  7 24  1  0
  7 25  1  0
  9 26  1  0
 11 27  1  0
 12 28  1  0
 15 29  1  0
 16 30  1  0
 19 31  1  0
 20 32  1  0
 21 33  1  0
M  CHG  1   1  -1
M  END
>  <UniqueID>  (63) 
63

>  <SMILES>  (63) 
[NH-]C(=O)n1c(C(N)=O)cc2ccc(-c3ccc(Cl)cc3)cc21

>  <Energy>  (63) 
80.65577741424194

>  <Genealogy>  (63) 
[NH-]C(=O)n1c(C(N)=O)cc2ccc(-c3ccc(Cl)cc3)cc21 (protonated)
[NH-]C(=O)n1c(C(N)=O)cc2ccc(-c3ccc(Cl)cc3)cc21 (3D coordinates assigned)
[NH-]C(=O)n1c(C(N)=O)cc2ccc(-c3ccc(Cl)cc3)cc21 (optimized conformer: 80.65577741424194 kcal/mol)

>  <smiles>  (63) 
NC(=O)c1cc2ccc(-c3ccc(Cl)cc3)cc2n1C(N)=O

>  <score_type>  (63) 
oracle

>  <origin>  (63) 
adg

>  <m_score__min__energy>  (63) 
-8.0500000000000007

>  <m_primary>  (63) 
energy

$$$$
63:0
     RDKit          3D

 37 39  0  0  0  0  0  0  0  0999 V2000
  139.6160  151.4490  132.5430 N   0  0  0  0  0  0  0  0  0  0  0  0
  140.8210  150.8560  133.0310 C   0  0  0  0  0  0  0  0  0  0  0  0
  140.7990  149.6670  133.4470 O   0  0  0  0  0  0  0  0  0  0  0  0
  142.1020  151.5880  132.9930 C   0  0  0  0  0  0  0  0  0  0  0  0
  143.3270  150.9720  132.7540 C   0  0  0  0  0  0  0  0  0  0  0  0
  144.2480  151.9930  132.7320 C   0  0  0  0  0  0  0  0  0  0  0  0
  145.6270  151.9470  132.5490 C   0  0  0  0  0  0  0  0  0  0  0  0
  146.3400  153.1550  132.6140 C   0  0  0  0  0  0  0  0  0  0  0  0
  145.6720  154.3820  132.8690 C   0  0  0  0  0  0  0  0  0  0  0  0
  146.4400  155.6500  132.9490 C   0  0  0  0  0  0  0  0  0  0  0  0
  147.8070  155.6800  132.6140 C   0  0  0  0  0  0  0  0  0  0  0  0
  148.5300  156.8730  132.6890 C   0  0  0  0  0  0  0  0  0  0  0  0
  147.9040  158.0570  133.1070 C   0  0  0  0  0  0  0  0  0  0  0  0
  148.6740  159.3470  133.1550 C   0  0  0  0  0  0  0  0  0  0  0  0
  149.1000  159.7440  131.7770 C   0  0  0  0  0  0  0  0  0  0  0  0
  149.9950  159.0900  131.1790 O   0  0  0  0  0  0  0  0  0  0  0  0
  148.5450  160.8640  131.1730 O   0  0  0  0  0  0  0  0  0  0  0  0
  146.5380  158.0350  133.4280 C   0  0  0  0  0  0  0  0  0  0  0  0
  145.8140  156.8420  133.3550 C   0  0  0  0  0  0  0  0  0  0  0  0
  144.2690  154.3830  133.0530 C   0  0  0  0  0  0  0  0  0  0  0  0
  143.5800  153.1680  132.9620 C   0  0  0  0  0  0  0  0  0  0  0  0
  142.2570  152.9350  133.1270 N   0  0  0  0  0  0  0  0  0  0  0  0
  141.2520  153.8940  133.4970 C   0  0  0  0  0  0  0  0  0  0  0  0
  140.2680  154.1130  132.7420 O   0  0  0  0  0  0  0  0  0  0  0  0
  141.3590  154.5950  134.6920 O   0  0  0  0  0  0  0  0  0  0  0  0
  138.7120  150.9300  132.6110 H   0  0  0  0  0  0  0  0  0  0  0  0
  139.6300  152.3640  132.0420 H   0  0  0  0  0  0  0  0  0  0  0  0
  143.5177  149.8979  132.6129 H   0  0  0  0  0  0  0  0  0  0  0  0
  146.1424  150.9939  132.3593 H   0  0  0  0  0  0  0  0  0  0  0  0
  147.4299  153.1508  132.4655 H   0  0  0  0  0  0  0  0  0  0  0  0
  148.3099  154.7567  132.2906 H   0  0  0  0  0  0  0  0  0  0  0  0
  149.5962  156.8842  132.4188 H   0  0  0  0  0  0  0  0  0  0  0  0
  148.0358  160.1359  133.5798 H   0  0  0  0  0  0  0  0  0  0  0  0
  149.5673  159.2095  133.7820 H   0  0  0  0  0  0  0  0  0  0  0  0
  146.0343  158.9622  133.7388 H   0  0  0  0  0  0  0  0  0  0  0  0
  144.7457  156.8352  133.6172 H   0  0  0  0  0  0  0  0  0  0  0  0
  143.7310  155.3191  133.2632 H   0  0  0  0  0  0  0  0  0  0  0  0
  1  2  1  0
  2  3  2  0
  2  4  1  0
  4  5  2  0
  5  6  1  0
  6  7  2  0
  7  8  1  0
  8  9  2  0
  9 10  1  0
 10 11  2  0
 11 12  1  0
 12 13  2  0
 13 14  1  0
 14 15  1  0
 15 16  2  0
 15 17  1  0
 13 18  1  0
 18 19  2  0
  9 20  1  0
 20 21  2  0
 21 22  1  0
 22 23  1  0
 23 24  2  0
 23 25  1  0
 22  4  1  0
 21  6  1  0
 19 10  1  0
  1 26  1  0
  1 27  1  0
  5 28  1  0
  7 29  1  0
  8 30  1  0
 11 31  1  0
 12 32  1  0
 14 33  1  0
 14 34  1  0
 18 35  1  0
 19 36  1  0
 20 37  1  0
M  CHG  2  17  -1  25  -1
M  END
>  <UniqueID>  (64) 
64

>  <SMILES>  (64) 
NC(=O)c1cc2ccc(-c3ccc(CC(=O)[O-])cc3)cc2n1C(=O)[O-]

>  <Energy>  (64) 
83.32273788252593

>  <Genealogy>  (64) 
NC(=O)c1cc2ccc(-c3ccc(CC(=O)[O-])cc3)cc2n1C(=O)[O-] (protonated)
NC(=O)c1cc2ccc(-c3ccc(CC(=O)[O-])cc3)cc2n1C(=O)[O-] (3D coordinates assigned)
NC(=O)c1cc2ccc(-c3ccc(CC(=O)[O-])cc3)cc2n1C(=O)[O-] (optimized conformer: 83.32273788252593 kcal/mol)

>  <smiles>  (64) 
NC(=O)c1cc2ccc(-c3ccc(CC(=O)O)cc3)cc2n1C(=O)O

>  <score_type>  (64) 
oracle

>  <origin>  (64) 
adg

>  <m_score__min__energy>  (64) 
-7.8700000000000001

>  <m_primary>  (64) 
energy

$$$$
64:0
     RDKit          3D

 50 52  0  0  0  0  0  0  0  0999 V2000
  147.6390  159.3790  133.2950 C   0  0  0  0  0  0  0  0  0  0  0  0
  146.6220  160.0960  132.5240 N   0  0  0  0  0  0  0  0  0  0  0  0
  145.2650  159.7720  132.9920 C   0  0  0  0  0  0  0  0  0  0  0  0
  144.6630  160.8990  133.7830 C   0  0  0  0  0  0  0  0  0  0  0  0
  145.3800  161.8830  134.1060 O   0  0  0  0  0  0  0  0  0  0  0  0
  143.3120  160.7950  134.2470 N   0  0  0  0  0  0  0  0  0  0  0  0
  142.4450  159.6630  134.0850 C   0  0  0  0  0  0  0  0  0  0  0  0
  142.7900  158.4570  134.7070 C   0  0  0  0  0  0  0  0  0  0  0  0
  141.9800  157.3280  134.5620 C   0  0  0  0  0  0  0  0  0  0  0  0
  140.8250  157.3830  133.7670 C   0  0  0  0  0  0  0  0  0  0  0  0
  139.9660  156.1570  133.5940 C   0  0  0  0  0  0  0  0  0  0  0  0
  140.6980  154.9780  133.9210 O   0  0  0  0  0  0  0  0  0  0  0  0
  140.6100  153.7900  133.1870 C   0  0  0  0  0  0  0  0  0  0  0  0
  139.5310  153.4630  132.6240 O   0  0  0  0  0  0  0  0  0  0  0  0
  141.7720  152.9620  133.0400 N   0  0  0  0  0  0  0  0  0  0  0  0
  141.8190  151.6000  133.0180 C   0  0  0  0  0  0  0  0  0  0  0  0
  140.6400  150.7050  132.9610 C   0  0  0  0  0  0  0  0  0  0  0  0
  139.5690  150.9590  132.0490 N   0  0  0  0  0  0  0  0  0  0  0  0
  140.5590  149.7210  133.7440 O   0  0  0  0  0  0  0  0  0  0  0  0
  143.1420  151.1610  132.9730 C   0  0  0  0  0  0  0  0  0  0  0  0
  143.9060  152.3070  132.9820 C   0  0  0  0  0  0  0  0  0  0  0  0
  145.2890  152.4630  132.9670 C   0  0  0  0  0  0  0  0  0  0  0  0
  145.8050  153.7660  133.0150 C   0  0  0  0  0  0  0  0  0  0  0  0
  144.9400  154.8890  133.0980 C   0  0  0  0  0  0  0  0  0  0  0  0
  145.5100  156.2820  133.1160 C   0  0  0  0  0  0  0  0  0  0  0  0
  144.5520  157.1700  132.6700 F   0  0  0  0  0  0  0  0  0  0  0  0
  146.6200  156.3640  132.2910 F   0  0  0  0  0  0  0  0  0  0  0  0
  145.8950  156.6390  134.3970 F   0  0  0  0  0  0  0  0  0  0  0  0
  143.5400  154.6900  133.0840 C   0  0  0  0  0  0  0  0  0  0  0  0
  143.0540  153.3790  133.0220 C   0  0  0  0  0  0  0  0  0  0  0  0
  140.4850  158.5870  133.1310 C   0  0  0  0  0  0  0  0  0  0  0  0
  141.2930  159.7180  133.2810 C   0  0  0  0  0  0  0  0  0  0  0  0
  147.4473  159.5141  134.3697 H   0  0  0  0  0  0  0  0  0  0  0  0
  147.5995  158.3080  133.0473 H   0  0  0  0  0  0  0  0  0  0  0  0
  148.6345  159.7761  133.0473 H   0  0  0  0  0  0  0  0  0  0  0  0
  146.7960  161.1230  132.6260 H   0  0  0  0  0  0  0  0  0  0  0  0
  144.6266  159.5687  132.1196 H   0  0  0  0  0  0  0  0  0  0  0  0
  145.3309  158.8913  133.6478 H   0  0  0  0  0  0  0  0  0  0  0  0
  143.7053  158.3980  135.3142 H   0  0  0  0  0  0  0  0  0  0  0  0
  142.2488  156.3919  135.0733 H   0  0  0  0  0  0  0  0  0  0  0  0
  139.0904  156.2334  134.2554 H   0  0  0  0  0  0  0  0  0  0  0  0
  139.6466  156.0947  132.5432 H   0  0  0  0  0  0  0  0  0  0  0  0
  138.7400  150.3270  132.0310 H   0  0  0  0  0  0  0  0  0  0  0  0
  139.6270  151.7260  131.3450 H   0  0  0  0  0  0  0  0  0  0  0  0
  143.4992  150.1212  132.9378 H   0  0  0  0  0  0  0  0  0  0  0  0
  145.9571  151.5905  132.9189 H   0  0  0  0  0  0  0  0  0  0  0  0
  146.8938  153.9201  132.9880 H   0  0  0  0  0  0  0  0  0  0  0  0
  142.8493  155.5453  133.1210 H   0  0  0  0  0  0  0  0  0  0  0  0
  139.5779  158.6411  132.5111 H   0  0  0  0  0  0  0  0  0  0  0  0
  141.0265  160.6540  132.7683 H   0  0  0  0  0  0  0  0  0  0  0  0
  1  2  1  0
  2  3  1  0
  3  4  1  0
  4  5  2  0
  4  6  1  0
  6  7  1  0
  7  8  2  0
  8  9  1  0
  9 10  2  0
 10 11  1  0
 11 12  1  0
 12 13  1  0
 13 14  2  0
 13 15  1  0
 15 16  1  0
 16 17  1  0
 17 18  1  0
 17 19  2  0
 16 20  2  0
 20 21  1  0
 21 22  2  0
 22 23  1  0
 23 24  2  0
 24 25  1  0
 25 26  1  0
 25 27  1  0
 25 28  1  0
 24 29  1  0
 29 30  2  0
 10 31  1  0
 31 32  2  0
 32  7  1  0
 30 15  1  0
 30 21  1  0
  1 33  1  0
  1 34  1  0
  1 35  1  0
  2 36  1  0
  3 37  1  0
  3 38  1  0
  8 39  1  0
  9 40  1  0
 11 41  1  0
 11 42  1  0
 18 43  1  0
 18 44  1  0
 20 45  1  0
 22 46  1  0
 23 47  1  0
 29 48  1  0
 31 49  1  0
 32 50  1  0
M  CHG  1   6  -1
M  END
>  <UniqueID>  (65) 
65

>  <SMILES>  (65) 
CNCC(=O)[N-]c1ccc(COC(=O)n2c(C(N)=O)cc3ccc(C(F)(F)F)cc32)cc1

>  <Energy>  (65) 
91.68300803383941

>  <Genealogy>  (65) 
CNCC(=O)[N-]c1ccc(COC(=O)n2c(C(N)=O)cc3ccc(C(F)(F)F)cc32)cc1 (protonated)
CNCC(=O)[N-]c1ccc(COC(=O)n2c(C(N)=O)cc3ccc(C(F)(F)F)cc32)cc1 (3D coordinates assigned)
CNCC(=O)[N-]c1ccc(COC(=O)n2c(C(N)=O)cc3ccc(C(F)(F)F)cc32)cc1 (optimized conformer: 91.68300803383941 kcal/mol)

>  <smiles>  (65) 
CNCC(=O)Nc1ccc(COC(=O)n2c(C(N)=O)cc3ccc(C(F)(F)F)cc32)cc1

>  <score_type>  (65) 
oracle

>  <origin>  (65) 
adg

>  <m_score__min__energy>  (65) 
-8.1699999999999999

>  <m_primary>  (65) 
energy

$$$$
65:0
     RDKit          3D

 41 42  0  0  0  0  0  0  0  0999 V2000
  149.5900  159.5980  131.1590 C   0  0  0  0  0  0  0  0  0  0  0  0
  149.5970  158.9940  132.5590 C   0  0  0  0  0  0  0  0  0  0  0  0
  148.4310  158.0610  132.7420 C   0  0  0  0  0  0  0  0  0  0  0  0
  147.1400  158.5810  133.0110 C   0  0  0  0  0  0  0  0  0  0  0  0
  146.0400  157.7200  133.1650 C   0  0  0  0  0  0  0  0  0  0  0  0
  146.2580  156.3530  133.0260 C   0  0  0  0  0  0  0  0  0  0  0  0
  145.3800  155.3000  133.1520 C   0  0  0  0  0  0  0  0  0  0  0  0
  146.1390  154.1570  132.9130 C   0  0  0  0  0  0  0  0  0  0  0  0
  145.5720  152.7940  132.8870 C   0  0  0  0  0  0  0  0  0  0  0  0
  145.8980  151.8770  131.8420 N   0  0  0  0  0  0  0  0  0  0  0  0
  144.7430  152.4520  133.7720 O   0  0  0  0  0  0  0  0  0  0  0  0
  147.4380  154.4870  132.6640 N   0  0  0  0  0  0  0  0  0  0  0  0
  148.5460  153.5940  132.4740 C   0  0  0  0  0  0  0  0  0  0  0  0
  149.7230  154.0140  132.6420 O   0  0  0  0  0  0  0  0  0  0  0  0
  148.3030  152.2630  132.1010 O   0  0  0  0  0  0  0  0  0  0  0  0
  149.0580  151.1140  132.5070 C   0  0  0  0  0  0  0  0  0  0  0  0
  149.6000  151.4040  133.9150 C   0  0  0  0  0  0  0  0  0  0  0  0
  148.1540  149.8670  132.5690 C   0  0  0  0  0  0  0  0  0  0  0  0
  150.2460  150.8790  131.5540 C   0  0  0  0  0  0  0  0  0  0  0  0
  147.4950  155.8350  132.7330 C   0  0  0  0  0  0  0  0  0  0  0  0
  148.6120  156.6680  132.5990 C   0  0  0  0  0  0  0  0  0  0  0  0
  149.5773  160.6954  131.2332 H   0  0  0  0  0  0  0  0  0  0  0  0
  150.4919  159.2776  130.6169 H   0  0  0  0  0  0  0  0  0  0  0  0
  148.6957  159.2568  130.6169 H   0  0  0  0  0  0  0  0  0  0  0  0
  150.5330  158.4353  132.7065 H   0  0  0  0  0  0  0  0  0  0  0  0
  149.5177  159.8074  133.2953 H   0  0  0  0  0  0  0  0  0  0  0  0
  146.9979  159.6681  133.1000 H   0  0  0  0  0  0  0  0  0  0  0  0
  145.0378  158.1146  133.3885 H   0  0  0  0  0  0  0  0  0  0  0  0
  144.3074  155.3507  133.3906 H   0  0  0  0  0  0  0  0  0  0  0  0
  145.5200  150.9040  131.8630 H   0  0  0  0  0  0  0  0  0  0  0  0
  146.4390  152.1830  131.0040 H   0  0  0  0  0  0  0  0  0  0  0  0
  148.8913  151.0248  134.6660 H   0  0  0  0  0  0  0  0  0  0  0  0
  150.5721  150.9055  134.0436 H   0  0  0  0  0  0  0  0  0  0  0  0
  149.7247  152.4893  134.0436 H   0  0  0  0  0  0  0  0  0  0  0  0
  147.9635  149.6042  133.6200 H   0  0  0  0  0  0  0  0  0  0  0  0
  147.1996  150.0806  132.0656 H   0  0  0  0  0  0  0  0  0  0  0  0
  148.6539  149.0263  132.0656 H   0  0  0  0  0  0  0  0  0  0  0  0
  151.1578  150.6986  132.1422 H   0  0  0  0  0  0  0  0  0  0  0  0
  150.0398  150.0042  130.9197 H   0  0  0  0  0  0  0  0  0  0  0  0
  150.3884  151.7664  130.9197 H   0  0  0  0  0  0  0  0  0  0  0  0
  149.6063  156.2477  132.3875 H   0  0  0  0  0  0  0  0  0  0  0  0
  1  2  1  0
  2  3  1  0
  3  4  2  0
  4  5  1  0
  5  6  2  0
  6  7  1  0
  7  8  2  0
  8  9  1  0
  9 10  1  0
  9 11  2  0
  8 12  1  0
 12 13  1  0
 13 14  2  0
 13 15  1  0
 15 16  1  0
 16 17  1  0
 16 18  1  0
 16 19  1  0
 12 20  1  0
 20 21  2  0
 21  3  1  0
 20  6  1  0
  1 22  1  0
  1 23  1  0
  1 24  1  0
  2 25  1  0
  2 26  1  0
  4 27  1  0
  5 28  1  0
  7 29  1  0
 10 30  1  0
 10 31  1  0
 17 32  1  0
 17 33  1  0
 17 34  1  0
 18 35  1  0
 18 36  1  0
 18 37  1  0
 19 38  1  0
 19 39  1  0
 19 40  1  0
 21 41  1  0
M  END
>  <UniqueID>  (66) 
66

>  <SMILES>  (66) 
CCc1ccc2cc(C(N)=O)n(C(=O)OC(C)(C)C)c2c1

>  <Energy>  (66) 
71.58774591870235

>  <Genealogy>  (66) 
CCc1ccc2cc(C(N)=O)n(C(=O)OC(C)(C)C)c2c1 (3D coordinates assigned)
CCc1ccc2cc(C(N)=O)n(C(=O)OC(C)(C)C)c2c1 (optimized conformer: 71.58774591870235 kcal/mol)

>  <smiles>  (66) 
CCc1ccc2cc(C(N)=O)n(C(=O)OC(C)(C)C)c2c1

>  <score_type>  (66) 
oracle

>  <origin>  (66) 
adg

>  <m_score__min__energy>  (66) 
-7.3399999999999999

>  <m_primary>  (66) 
energy

$$$$
66:0
     RDKit          3D

 34 36  0  0  0  0  0  0  0  0999 V2000
  147.5950  156.7430  134.5760 C   0  0  0  0  0  0  0  0  0  0  0  0
  148.0140  157.7060  133.5110 C   0  0  0  0  0  0  0  0  0  0  0  0
  149.2080  157.6660  132.8900 N   0  0  0  0  0  0  0  0  0  0  0  0
  149.2510  158.6350  132.0250 O   0  0  0  0  0  0  0  0  0  0  0  0
  148.1260  159.3140  132.0360 C   0  0  0  0  0  0  0  0  0  0  0  0
  147.8560  160.4900  131.1540 C   0  0  0  0  0  0  0  0  0  0  0  0
  147.2790  158.7570  132.9850 C   0  0  0  0  0  0  0  0  0  0  0  0
  145.9100  159.1830  133.3480 C   0  0  0  0  0  0  0  0  0  0  0  0
  145.6080  160.5590  133.5000 C   0  0  0  0  0  0  0  0  0  0  0  0
  144.3140  160.9740  133.8590 C   0  0  0  0  0  0  0  0  0  0  0  0
  143.3460  159.9940  134.0530 C   0  0  0  0  0  0  0  0  0  0  0  0
  142.0280  160.1170  134.4290 C   0  0  0  0  0  0  0  0  0  0  0  0
  141.5360  158.8140  134.4790 C   0  0  0  0  0  0  0  0  0  0  0  0
  140.1220  158.4920  134.7600 C   0  0  0  0  0  0  0  0  0  0  0  0
  139.6830  158.2160  136.0880 N   0  0  0  0  0  0  0  0  0  0  0  0
  139.2990  158.4110  133.8100 O   0  0  0  0  0  0  0  0  0  0  0  0
  142.5130  157.9210  134.1560 N   0  0  0  0  0  0  0  0  0  0  0  0
  142.4360  156.4860  134.1850 C   0  0  0  0  0  0  0  0  0  0  0  0
  141.5530  155.8820  133.5220 O   0  0  0  0  0  0  0  0  0  0  0  0
  143.3540  155.7510  134.9250 O   0  0  0  0  0  0  0  0  0  0  0  0
  143.6140  158.6600  133.8950 C   0  0  0  0  0  0  0  0  0  0  0  0
  144.8980  158.2180  133.5550 C   0  0  0  0  0  0  0  0  0  0  0  0
  147.7869  157.1841  135.5653 H   0  0  0  0  0  0  0  0  0  0  0  0
  146.5214  156.5267  134.4730 H   0  0  0  0  0  0  0  0  0  0  0  0
  148.1685  155.8100  134.4730 H   0  0  0  0  0  0  0  0  0  0  0  0
  149.9820  156.9870  133.0630 H   0  0  0  0  0  0  0  0  0  0  0  0
  147.6528  161.3750  131.7749 H   0  0  0  0  0  0  0  0  0  0  0  0
  148.7336  160.6813  130.5190 H   0  0  0  0  0  0  0  0  0  0  0  0
  146.9829  160.2793  130.5190 H   0  0  0  0  0  0  0  0  0  0  0  0
  146.3944  161.3103  133.3353 H   0  0  0  0  0  0  0  0  0  0  0  0
  144.0742  162.0404  133.9827 H   0  0  0  0  0  0  0  0  0  0  0  0
  141.4796  161.0459  134.6443 H   0  0  0  0  0  0  0  0  0  0  0  0
  139.4510  158.9900  136.7490 H   0  0  0  0  0  0  0  0  0  0  0  0
  145.1144  157.1445  133.4513 H   0  0  0  0  0  0  0  0  0  0  0  0
  1  2  1  0
  2  3  2  0
  3  4  1  0
  4  5  1  0
  5  6  1  0
  5  7  2  0
  7  8  1  0
  8  9  2  0
  9 10  1  0
 10 11  2  0
 11 12  1  0
 12 13  2  0
 13 14  1  0
 14 15  1  0
 14 16  2  0
 13 17  1  0
 17 18  1  0
 18 19  2  0
 18 20  1  0
 17 21  1  0
 21 22  2  0
  7  2  1  0
 22  8  1  0
 21 11  1  0
  1 23  1  0
  1 24  1  0
  1 25  1  0
  3 26  1  0
  6 27  1  0
  6 28  1  0
  6 29  1  0
  9 30  1  0
 10 31  1  0
 12 32  1  0
 15 33  1  0
 22 34  1  0
M  CHG  3   3   1  15  -1  20  -1
M  END
>  <UniqueID>  (67) 
67

>  <SMILES>  (67) 
Cc1[nH+]oc(C)c1-c1ccc2cc(C([NH-])=O)n(C(=O)[O-])c2c1

>  <Energy>  (67) 
110.30268419689675

>  <Genealogy>  (67) 
Cc1[nH+]oc(C)c1-c1ccc2cc(C([NH-])=O)n(C(=O)[O-])c2c1 (protonated)
Cc1[nH+]oc(C)c1-c1ccc2cc(C([NH-])=O)n(C(=O)[O-])c2c1 (3D coordinates assigned)
Cc1[nH+]oc(C)c1-c1ccc2cc(C([NH-])=O)n(C(=O)[O-])c2c1 (optimized conformer: 110.30268419689675 kcal/mol)

>  <smiles>  (67) 
Cc1noc(C)c1-c1ccc2cc(C(N)=O)n(C(=O)O)c2c1

>  <score_type>  (67) 
oracle

>  <origin>  (67) 
adg

>  <m_score__min__energy>  (67) 
-7.1100000000000003

>  <m_primary>  (67) 
energy

$$$$
67:0
     RDKit          3D

 38 39  0  0  0  0  0  0  0  0999 V2000
  144.8030  161.9800  134.1180 C   0  0  0  0  0  0  0  0  0  0  0  0
  143.7810  160.9600  133.7270 C   0  0  0  0  0  0  0  0  0  0  0  0
  142.6300  161.3410  133.3860 O   0  0  0  0  0  0  0  0  0  0  0  0
  144.0940  159.5570  133.7450 N   0  0  0  0  0  0  0  0  0  0  0  0
  143.3000  158.5360  134.1770 C   0  0  0  0  0  0  0  0  0  0  0  0
  141.8960  158.6610  134.6210 C   0  0  0  0  0  0  0  0  0  0  0  0
  141.5180  159.7280  135.4870 N   0  0  0  0  0  0  0  0  0  0  0  0
  141.0300  157.8210  134.2620 O   0  0  0  0  0  0  0  0  0  0  0  0
  143.9780  157.3220  134.0900 C   0  0  0  0  0  0  0  0  0  0  0  0
  145.2220  157.6320  133.5900 C   0  0  0  0  0  0  0  0  0  0  0  0
  146.3120  156.8090  133.3260 C   0  0  0  0  0  0  0  0  0  0  0  0
  147.4900  157.4080  132.8480 C   0  0  0  0  0  0  0  0  0  0  0  0
  147.5570  158.8100  132.6480 C   0  0  0  0  0  0  0  0  0  0  0  0
  148.8440  159.4500  132.1970 C   0  0  0  0  0  0  0  0  0  0  0  0
  148.5880  160.7620  131.4500 C   0  0  0  0  0  0  0  0  0  0  0  0
  149.7510  161.0940  130.5930 N   0  0  0  0  0  0  0  0  0  0  0  0
  149.9510  160.0830  129.5420 C   0  0  0  0  0  0  0  0  0  0  0  0
  149.6070  162.4270  129.9850 C   0  0  0  0  0  0  0  0  0  0  0  0
  146.4330  159.6140  132.9350 C   0  0  0  0  0  0  0  0  0  0  0  0
  145.2670  158.9880  133.3910 C   0  0  0  0  0  0  0  0  0  0  0  0
  144.8616  162.0385  135.2149 H   0  0  0  0  0  0  0  0  0  0  0  0
  145.7839  161.6900  133.7133 H   0  0  0  0  0  0  0  0  0  0  0  0
  144.5150  162.9615  133.7133 H   0  0  0  0  0  0  0  0  0  0  0  0
  141.5950  160.7220  135.1780 H   0  0  0  0  0  0  0  0  0  0  0  0
  143.5990  156.3262  134.3632 H   0  0  0  0  0  0  0  0  0  0  0  0
  146.2536  155.7223  133.4865 H   0  0  0  0  0  0  0  0  0  0  0  0
  148.3681  156.7834  132.6270 H   0  0  0  0  0  0  0  0  0  0  0  0
  149.4682  159.6569  133.0788 H   0  0  0  0  0  0  0  0  0  0  0  0
  149.3520  158.7563  131.5110 H   0  0  0  0  0  0  0  0  0  0  0  0
  147.6917  160.6542  130.8215 H   0  0  0  0  0  0  0  0  0  0  0  0
  148.4367  161.5697  132.1813 H   0  0  0  0  0  0  0  0  0  0  0  0
  150.1445  159.1047  130.0063 H   0  0  0  0  0  0  0  0  0  0  0  0
  149.0479  160.0201  128.9171 H   0  0  0  0  0  0  0  0  0  0  0  0
  150.8100  160.3687  128.9171 H   0  0  0  0  0  0  0  0  0  0  0  0
  149.5251  163.1848  130.7781 H   0  0  0  0  0  0  0  0  0  0  0  0
  150.4871  162.6426  129.3613 H   0  0  0  0  0  0  0  0  0  0  0  0
  148.7012  162.4496  129.3613 H   0  0  0  0  0  0  0  0  0  0  0  0
  146.4723  160.7054  132.8036 H   0  0  0  0  0  0  0  0  0  0  0  0
  1  2  1  0
  2  3  2  0
  2  4  1  0
  4  5  1  0
  5  6  1  0
  6  7  1  0
  6  8  2  0
  5  9  2  0
  9 10  1  0
 10 11  2  0
 11 12  1  0
 12 13  2  0
 13 14  1  0
 14 15  1  0
 15 16  1  0
 16 17  1  0
 16 18  1  0
 13 19  1  0
 19 20  2  0
 20  4  1  0
 20 10  1  0
  1 21  1  0
  1 22  1  0
  1 23  1  0
  7 24  1  0
  9 25  1  0
 11 26  1  0
 12 27  1  0
 14 28  1  0
 14 29  1  0
 15 30  1  0
 15 31  1  0
 17 32  1  0
 17 33  1  0
 17 34  1  0
 18 35  1  0
 18 36  1  0
 18 37  1  0
 19 38  1  0
M  CHG  1   7  -1
M  END
>  <UniqueID>  (68) 
68

>  <SMILES>  (68) 
CC(=O)n1c(C([NH-])=O)cc2ccc(CCN(C)C)cc21

>  <Energy>  (68) 
74.88138081898376

>  <Genealogy>  (68) 
CC(=O)n1c(C([NH-])=O)cc2ccc(CCN(C)C)cc21 (protonated)
CC(=O)n1c(C([NH-])=O)cc2ccc(CCN(C)C)cc21 (3D coordinates assigned)
CC(=O)n1c(C([NH-])=O)cc2ccc(CCN(C)C)cc21 (optimized conformer: 74.88138081898376 kcal/mol)

>  <smiles>  (68) 
CC(=O)n1c(C(N)=O)cc2ccc(CCN(C)C)cc21

>  <score_type>  (68) 
oracle

>  <origin>  (68) 
adg

>  <m_score__min__energy>  (68) 
-6.9800000000000004

>  <m_primary>  (68) 
energy

$$$$
68:0
     RDKit          3D

 45 47  0  0  0  0  0  0  0  0999 V2000
  147.4680  155.0890  135.1180 C   0  0  0  0  0  0  0  0  0  0  0  0
  146.2200  155.8990  134.7860 C   0  0  0  0  0  0  0  0  0  0  0  0
  146.3960  156.6120  133.4800 C   0  0  0  0  0  0  0  0  0  0  0  0
  146.5610  155.9460  132.4240 O   0  0  0  0  0  0  0  0  0  0  0  0
  146.2600  158.0390  133.4070 N   0  0  0  0  0  0  0  0  0  0  0  0
  147.2220  158.9580  133.1200 C   0  0  0  0  0  0  0  0  0  0  0  0
  148.6090  158.6410  132.7100 C   0  0  0  0  0  0  0  0  0  0  0  0
  148.8920  157.5160  131.8760 N   0  0  0  0  0  0  0  0  0  0  0  0
  149.5640  159.3590  133.1100 O   0  0  0  0  0  0  0  0  0  0  0  0
  146.6920  160.2470  133.1910 C   0  0  0  0  0  0  0  0  0  0  0  0
  145.3690  160.0790  133.5340 C   0  0  0  0  0  0  0  0  0  0  0  0
  144.3700  161.0190  133.7470 C   0  0  0  0  0  0  0  0  0  0  0  0
  143.0920  160.5570  134.1070 C   0  0  0  0  0  0  0  0  0  0  0  0
  142.8220  159.1630  134.2580 C   0  0  0  0  0  0  0  0  0  0  0  0
  141.4930  158.6950  134.6340 N   0  0  0  0  0  0  0  0  0  0  0  0
  140.9360  159.0270  135.9540 C   0  0  0  0  0  0  0  0  0  0  0  0
  140.6750  157.8770  133.7190 C   0  0  0  0  0  0  0  0  0  0  0  0
  139.8420  158.7430  132.8070 C   0  0  0  0  0  0  0  0  0  0  0  0
  138.7700  158.2000  132.0820 C   0  0  0  0  0  0  0  0  0  0  0  0
  138.0210  159.0110  131.2260 C   0  0  0  0  0  0  0  0  0  0  0  0
  138.3600  160.3580  131.0910 C   0  0  0  0  0  0  0  0  0  0  0  0
  139.4130  160.8680  131.7820 N   0  0  0  0  0  0  0  0  0  0  0  0
  140.1570  160.0990  132.6210 C   0  0  0  0  0  0  0  0  0  0  0  0
  143.8840  158.2460  134.0320 C   0  0  0  0  0  0  0  0  0  0  0  0
  145.1360  158.7390  133.6580 C   0  0  0  0  0  0  0  0  0  0  0  0
  147.5787  155.0171  136.2100 H   0  0  0  0  0  0  0  0  0  0  0  0
  147.3739  154.0793  134.6918 H   0  0  0  0  0  0  0  0  0  0  0  0
  148.3519  155.5861  134.6918 H   0  0  0  0  0  0  0  0  0  0  0  0
  145.3557  155.2221  134.7165 H   0  0  0  0  0  0  0  0  0  0  0  0
  146.0534  156.6418  135.5800 H   0  0  0  0  0  0  0  0  0  0  0  0
  148.1290  156.9310  131.4700 H   0  0  0  0  0  0  0  0  0  0  0  0
  149.8790  157.2860  131.6250 H   0  0  0  0  0  0  0  0  0  0  0  0
  147.2191  161.1956  133.0112 H   0  0  0  0  0  0  0  0  0  0  0  0
  144.5726  162.0946  133.6372 H   0  0  0  0  0  0  0  0  0  0  0  0
  142.2838  161.2839  134.2757 H   0  0  0  0  0  0  0  0  0  0  0  0
  141.5967  158.6332  136.7404 H   0  0  0  0  0  0  0  0  0  0  0  0
  140.8572  160.1196  136.0545 H   0  0  0  0  0  0  0  0  0  0  0  0
  139.9375  158.5766  136.0545 H   0  0  0  0  0  0  0  0  0  0  0  0
  141.3401  157.2490  133.1080 H   0  0  0  0  0  0  0  0  0  0  0  0
  139.9973  157.2543  134.3214 H   0  0  0  0  0  0  0  0  0  0  0  0
  138.5192  157.1342  132.1879 H   0  0  0  0  0  0  0  0  0  0  0  0
  137.1730  158.5923  130.6643 H   0  0  0  0  0  0  0  0  0  0  0  0
  137.7740  161.0077  130.4243 H   0  0  0  0  0  0  0  0  0  0  0  0
  141.0099  160.5411  133.1568 H   0  0  0  0  0  0  0  0  0  0  0  0
  143.7223  157.1644  134.1499 H   0  0  0  0  0  0  0  0  0  0  0  0
  1  2  1  0
  2  3  1  0
  3  4  2  0
  3  5  1  0
  5  6  1  0
  6  7  1  0
  7  8  1  0
  7  9  2  0
  6 10  2  0
 10 11  1  0
 11 12  2  0
 12 13  1  0
 13 14  2  0
 14 15  1  0
 15 16  1  0
 15 17  1  0
 17 18  1  0
 18 19  2  0
 19 20  1  0
 20 21  2  0
 21 22  1  0
 22 23  2  0
 14 24  1  0
 24 25  2  0
 25  5  1  0
 25 11  1  0
 23 18  1  0
  1 26  1  0
  1 27  1  0
  1 28  1  0
  2 29  1  0
  2 30  1  0
  8 31  1  0
  8 32  1  0
 10 33  1  0
 12 34  1  0
 13 35  1  0
 16 36  1  0
 16 37  1  0
 16 38  1  0
 17 39  1  0
 17 40  1  0
 19 41  1  0
 20 42  1  0
 21 43  1  0
 23 44  1  0
 24 45  1  0
M  END
>  <UniqueID>  (69) 
69

>  <SMILES>  (69) 
CCC(=O)n1c(C(N)=O)cc2ccc(N(C)Cc3cccnc3)cc21

>  <Energy>  (69) 
85.29591765280178

>  <Genealogy>  (69) 
CCC(=O)n1c(C(N)=O)cc2ccc(N(C)Cc3cccnc3)cc21 (3D coordinates assigned)
CCC(=O)n1c(C(N)=O)cc2ccc(N(C)Cc3cccnc3)cc21 (optimized conformer: 85.29591765280178 kcal/mol)

>  <smiles>  (69) 
CCC(=O)n1c(C(N)=O)cc2ccc(N(C)Cc3cccnc3)cc21

>  <score_type>  (69) 
oracle

>  <origin>  (69) 
adg

>  <m_score__min__energy>  (69) 
-8.2599999999999998

>  <m_primary>  (69) 
energy

$$$$
69:0
     RDKit          3D

 51 53  0  0  0  0  0  0  0  0999 V2000
  142.5040  148.8910  132.2580 C   0  0  0  0  0  0  0  0  0  0  0  0
  141.8350  150.1910  132.6090 C   0  0  0  0  0  0  0  0  0  0  0  0
  142.4910  151.1130  133.4430 C   0  0  0  0  0  0  0  0  0  0  0  0
  141.8820  152.3300  133.7910 C   0  0  0  0  0  0  0  0  0  0  0  0
  142.5810  153.2940  134.6750 C   0  0  0  0  0  0  0  0  0  0  0  0
  142.6170  153.0900  135.9190 O   0  0  0  0  0  0  0  0  0  0  0  0
  143.2330  154.4560  134.1390 N   0  0  0  0  0  0  0  0  0  0  0  0
  144.5720  154.6670  134.0120 C   0  0  0  0  0  0  0  0  0  0  0  0
  145.6290  153.6640  134.2560 C   0  0  0  0  0  0  0  0  0  0  0  0
  146.2540  152.9650  133.1780 N   0  0  0  0  0  0  0  0  0  0  0  0
  146.0190  153.4510  135.4340 O   0  0  0  0  0  0  0  0  0  0  0  0
  144.8270  155.9740  133.6050 C   0  0  0  0  0  0  0  0  0  0  0  0
  143.5890  156.5650  133.4840 C   0  0  0  0  0  0  0  0  0  0  0  0
  143.2470  157.8660  133.1300 C   0  0  0  0  0  0  0  0  0  0  0  0
  141.8860  158.2140  133.1330 C   0  0  0  0  0  0  0  0  0  0  0  0
  140.8970  157.2670  133.5040 C   0  0  0  0  0  0  0  0  0  0  0  0
  139.4390  157.6530  133.5370 C   0  0  0  0  0  0  0  0  0  0  0  0
  139.1740  158.9790  132.8060 C   0  0  0  0  0  0  0  0  0  0  0  0
  139.6100  158.9810  131.3280 C   0  0  0  0  0  0  0  0  0  0  0  0
  138.5230  159.5010  130.3600 C   0  0  0  0  0  0  0  0  0  0  0  0
  137.3340  160.1620  131.0660 C   0  0  0  0  0  0  0  0  0  0  0  0
  136.1300  159.5420  130.6930 O   0  0  0  0  0  0  0  0  0  0  0  0
  141.2850  155.9550  133.8560 C   0  0  0  0  0  0  0  0  0  0  0  0
  142.6440  155.6300  133.8200 C   0  0  0  0  0  0  0  0  0  0  0  0
  140.6080  152.6260  133.2800 C   0  0  0  0  0  0  0  0  0  0  0  0
  139.9500  151.7160  132.4510 C   0  0  0  0  0  0  0  0  0  0  0  0
  140.5510  150.5000  132.1130 C   0  0  0  0  0  0  0  0  0  0  0  0
  139.4750  149.1770  130.8520 I   0  0  0  0  0  0  0  0  0  0  0  0
  142.7779  148.3587  133.1808 H   0  0  0  0  0  0  0  0  0  0  0  0
  141.8131  148.2706  131.6682 H   0  0  0  0  0  0  0  0  0  0  0  0
  143.4104  149.0926  131.6682 H   0  0  0  0  0  0  0  0  0  0  0  0
  143.4943  150.8784  133.8281 H   0  0  0  0  0  0  0  0  0  0  0  0
  146.9580  152.2190  133.3760 H   0  0  0  0  0  0  0  0  0  0  0  0
  146.1010  153.2500  132.1860 H   0  0  0  0  0  0  0  0  0  0  0  0
  145.8080  156.4359  133.4197 H   0  0  0  0  0  0  0  0  0  0  0  0
  144.0189  158.6002  132.8560 H   0  0  0  0  0  0  0  0  0  0  0  0
  141.5839  159.2316  132.8446 H   0  0  0  0  0  0  0  0  0  0  0  0
  138.8509  156.8585  133.0544 H   0  0  0  0  0  0  0  0  0  0  0  0
  139.1472  157.7829  134.5896 H   0  0  0  0  0  0  0  0  0  0  0  0
  138.0946  159.1868  132.8480 H   0  0  0  0  0  0  0  0  0  0  0  0
  139.7748  159.7472  133.3149 H   0  0  0  0  0  0  0  0  0  0  0  0
  140.4985  159.6219  131.2290 H   0  0  0  0  0  0  0  0  0  0  0  0
  139.8132  157.9359  131.0515 H   0  0  0  0  0  0  0  0  0  0  0  0
  138.9821  160.2403  129.6872 H   0  0  0  0  0  0  0  0  0  0  0  0
  138.1303  158.6276  129.8188 H   0  0  0  0  0  0  0  0  0  0  0  0
  137.4646  160.0723  132.1545 H   0  0  0  0  0  0  0  0  0  0  0  0
  137.2925  161.2216  130.7735 H   0  0  0  0  0  0  0  0  0  0  0  0
  136.3640  158.6670  130.2880 H   0  0  0  0  0  0  0  0  0  0  0  0
  140.5350  155.2065  134.1516 H   0  0  0  0  0  0  0  0  0  0  0  0
  140.1255  153.5812  133.5346 H   0  0  0  0  0  0  0  0  0  0  0  0
  138.9504  151.9577  132.0605 H   0  0  0  0  0  0  0  0  0  0  0  0
  1  2  1  0
  2  3  2  0
  3  4  1  0
  4  5  1  0
  5  6  2  0
  5  7  1  0
  7  8  1  0
  8  9  1  0
  9 10  1  0
  9 11  2  0
  8 12  2  0
 12 13  1  0
 13 14  2  0
 14 15  1  0
 15 16  2  0
 16 17  1  0
 17 18  1  0
 18 19  1  0
 19 20  1  0
 20 21  1  0
 21 22  1  0
 16 23  1  0
 23 24  2  0
  4 25  2  0
 25 26  1  0
 26 27  2  0
 27 28  1  0
 27  2  1  0
 24  7  1  0
 24 13  1  0
  1 29  1  0
  1 30  1  0
  1 31  1  0
  3 32  1  0
 10 33  1  0
 10 34  1  0
 12 35  1  0
 14 36  1  0
 15 37  1  0
 17 38  1  0
 17 39  1  0
 18 40  1  0
 18 41  1  0
 19 42  1  0
 19 43  1  0
 20 44  1  0
 20 45  1  0
 21 46  1  0
 21 47  1  0
 22 48  1  0
 23 49  1  0
 25 50  1  0
 26 51  1  0
M  END
>  <UniqueID>  (70) 
70

>  <SMILES>  (70) 
Cc1cc(C(=O)n2c(C(N)=O)cc3ccc(CCCCCO)cc32)ccc1I

>  <Energy>  (70) 
90.72205967358343

>  <Genealogy>  (70) 
Cc1cc(C(=O)n2c(C(N)=O)cc3ccc(CCCCCO)cc32)ccc1I (3D coordinates assigned)
Cc1cc(C(=O)n2c(C(N)=O)cc3ccc(CCCCCO)cc32)ccc1I (optimized conformer: 90.72205967358343 kcal/mol)

>  <smiles>  (70) 
Cc1cc(C(=O)n2c(C(N)=O)cc3ccc(CCCCCO)cc32)ccc1I

>  <score_type>  (70) 
oracle

>  <origin>  (70) 
adg

>  <m_score__min__energy>  (70) 
-10.06

>  <m_primary>  (70) 
energy

$$$$
70:0
     RDKit          3D

 53 54  0  0  0  0  0  0  0  0999 V2000
  140.9420  159.0660  136.9720 C   0  0  0  0  0  0  0  0  0  0  0  0
  139.9690  157.9150  136.7370 C   0  0  0  0  0  0  0  0  0  0  0  0
  139.0620  158.2320  135.6840 O   0  0  0  0  0  0  0  0  0  0  0  0
  139.3490  158.0180  134.3310 C   0  0  0  0  0  0  0  0  0  0  0  0
  139.3670  158.9780  133.5140 O   0  0  0  0  0  0  0  0  0  0  0  0
  139.5940  156.6260  133.8440 C   0  0  0  0  0  0  0  0  0  0  0  0
  141.0150  156.4980  133.2910 C   0  0  0  0  0  0  0  0  0  0  0  0
  142.0560  156.6510  134.4040 C   0  0  0  0  0  0  0  0  0  0  0  0
  143.0760  157.6940  134.0350 C   0  0  0  0  0  0  0  0  0  0  0  0
  142.7160  159.0640  134.0110 C   0  0  0  0  0  0  0  0  0  0  0  0
  143.6710  160.0500  133.7140 C   0  0  0  0  0  0  0  0  0  0  0  0
  144.9740  159.6380  133.4510 C   0  0  0  0  0  0  0  0  0  0  0  0
  146.0960  160.3810  133.1660 C   0  0  0  0  0  0  0  0  0  0  0  0
  147.1260  159.4530  133.0130 C   0  0  0  0  0  0  0  0  0  0  0  0
  148.5040  159.8080  132.6090 C   0  0  0  0  0  0  0  0  0  0  0  0
  149.6130  158.9970  133.0010 N   0  0  0  0  0  0  0  0  0  0  0  0
  148.7170  160.8530  131.9370 O   0  0  0  0  0  0  0  0  0  0  0  0
  146.6570  158.1860  133.1990 N   0  0  0  0  0  0  0  0  0  0  0  0
  147.4040  156.9600  133.1850 C   0  0  0  0  0  0  0  0  0  0  0  0
  148.2640  156.7630  132.2850 O   0  0  0  0  0  0  0  0  0  0  0  0
  147.1790  156.0050  134.1870 O   0  0  0  0  0  0  0  0  0  0  0  0
  146.8180  154.6300  133.9890 C   0  0  0  0  0  0  0  0  0  0  0  0
  146.0010  154.1070  135.1850 C   0  0  0  0  0  0  0  0  0  0  0  0
  148.0730  153.7650  133.7660 C   0  0  0  0  0  0  0  0  0  0  0  0
  145.9430  154.5710  132.7280 C   0  0  0  0  0  0  0  0  0  0  0  0
  145.3380  158.3160  133.4660 C   0  0  0  0  0  0  0  0  0  0  0  0
  144.4110  157.3140  133.7750 C   0  0  0  0  0  0  0  0  0  0  0  0
  141.0727  159.2206  138.0532 H   0  0  0  0  0  0  0  0  0  0  0  0
  141.9134  158.8238  136.5161 H   0  0  0  0  0  0  0  0  0  0  0  0
  140.5416  159.9835  136.5161 H   0  0  0  0  0  0  0  0  0  0  0  0
  140.5358  157.0120  136.4663 H   0  0  0  0  0  0  0  0  0  0  0  0
  139.3951  157.7418  137.6593 H   0  0  0  0  0  0  0  0  0  0  0  0
  139.4650  155.9217  134.6790 H   0  0  0  0  0  0  0  0  0  0  0  0
  138.8766  156.3964  133.0424 H   0  0  0  0  0  0  0  0  0  0  0  0
  141.1310  155.5088  132.8242 H   0  0  0  0  0  0  0  0  0  0  0  0
  141.1750  157.2960  132.5510 H   0  0  0  0  0  0  0  0  0  0  0  0
  141.5503  156.9526  135.3331 H   0  0  0  0  0  0  0  0  0  0  0  0
  142.5685  155.6880  134.5453 H   0  0  0  0  0  0  0  0  0  0  0  0
  141.6784  159.3583  134.2271 H   0  0  0  0  0  0  0  0  0  0  0  0
  143.3975  161.1152  133.6900 H   0  0  0  0  0  0  0  0  0  0  0  0
  146.1661  161.4752  133.0775 H   0  0  0  0  0  0  0  0  0  0  0  0
  150.5850  159.2780  132.7440 H   0  0  0  0  0  0  0  0  0  0  0  0
  149.4740  158.0960  133.5080 H   0  0  0  0  0  0  0  0  0  0  0  0
  146.4848  154.4167  136.1231 H   0  0  0  0  0  0  0  0  0  0  0  0
  144.9831  154.5218  135.1431 H   0  0  0  0  0  0  0  0  0  0  0  0
  145.9515  153.0089  135.1431 H   0  0  0  0  0  0  0  0  0  0  0  0
  148.4953  153.4739  134.7391 H   0  0  0  0  0  0  0  0  0  0  0  0
  147.8002  152.8622  133.1998 H   0  0  0  0  0  0  0  0  0  0  0  0
  148.8196  154.3412  133.1998 H   0  0  0  0  0  0  0  0  0  0  0  0
  144.8846  154.4996  133.0191 H   0  0  0  0  0  0  0  0  0  0  0  0
  146.0984  155.4817  132.1309 H   0  0  0  0  0  0  0  0  0  0  0  0
  146.2193  153.6894  132.1309 H   0  0  0  0  0  0  0  0  0  0  0  0
  144.7146  156.2574  133.8143 H   0  0  0  0  0  0  0  0  0  0  0  0
  1  2  1  0
  2  3  1  0
  3  4  1  0
  4  5  2  0
  4  6  1  0
  6  7  1  0
  7  8  1  0
  8  9  1  0
  9 10  2  0
 10 11  1  0
 11 12  2  0
 12 13  1  0
 13 14  2  0
 14 15  1  0
 15 16  1  0
 15 17  2  0
 14 18  1  0
 18 19  1  0
 19 20  2  0
 19 21  1  0
 21 22  1  0
 22 23  1  0
 22 24  1  0
 22 25  1  0
 18 26  1  0
 26 27  2  0
 27  9  1  0
 26 12  1  0
  1 28  1  0
  1 29  1  0
  1 30  1  0
  2 31  1  0
  2 32  1  0
  6 33  1  0
  6 34  1  0
  7 35  1  0
  7 36  1  0
  8 37  1  0
  8 38  1  0
 10 39  1  0
 11 40  1  0
 13 41  1  0
 16 42  1  0
 16 43  1  0
 23 44  1  0
 23 45  1  0
 23 46  1  0
 24 47  1  0
 24 48  1  0
 24 49  1  0
 25 50  1  0
 25 51  1  0
 25 52  1  0
 27 53  1  0
M  END
>  <UniqueID>  (71) 
71

>  <SMILES>  (71) 
CCOC(=O)CCCc1ccc2cc(C(N)=O)n(C(=O)OC(C)(C)C)c2c1

>  <Energy>  (71) 
75.27267285673311

>  <Genealogy>  (71) 
CCOC(=O)CCCc1ccc2cc(C(N)=O)n(C(=O)OC(C)(C)C)c2c1 (3D coordinates assigned)
CCOC(=O)CCCc1ccc2cc(C(N)=O)n(C(=O)OC(C)(C)C)c2c1 (optimized conformer: 75.27267285673311 kcal/mol)

>  <smiles>  (71) 
CCOC(=O)CCCc1ccc2cc(C(N)=O)n(C(=O)OC(C)(C)C)c2c1

>  <score_type>  (71) 
oracle

>  <origin>  (71) 
adg

>  <m_score__min__energy>  (71) 
-7.9100000000000001

>  <m_primary>  (71) 
energy

$$$$
71:0
     RDKit          3D

 47 50  0  0  0  0  0  0  0  0999 V2000
  140.9680  153.2980  132.6320 C   0  0  0  0  0  0  0  0  0  0  0  0
  141.4080  154.1000  133.8200 C   0  0  0  0  0  0  0  0  0  0  0  0
  142.5270  153.6850  134.5820 C   0  0  0  0  0  0  0  0  0  0  0  0
  142.9380  154.4180  135.7090 C   0  0  0  0  0  0  0  0  0  0  0  0
  142.1990  155.5430  136.0590 C   0  0  0  0  0  0  0  0  0  0  0  0
  142.4040  156.4620  137.0640 C   0  0  0  0  0  0  0  0  0  0  0  0
  141.3870  157.4020  136.9150 C   0  0  0  0  0  0  0  0  0  0  0  0
  141.2140  158.5660  137.8080 C   0  0  0  0  0  0  0  0  0  0  0  0
  140.4090  159.6810  137.4240 N   0  0  0  0  0  0  0  0  0  0  0  0
  141.7470  158.5550  138.9490 O   0  0  0  0  0  0  0  0  0  0  0  0
  140.5950  157.0870  135.8520 N   0  0  0  0  0  0  0  0  0  0  0  0
  139.5500  157.8830  135.2680 C   0  0  0  0  0  0  0  0  0  0  0  0
  138.5660  158.2290  135.9740 O   0  0  0  0  0  0  0  0  0  0  0  0
  139.6230  158.3160  133.8520 C   0  0  0  0  0  0  0  0  0  0  0  0
  138.7050  157.7840  132.9310 C   0  0  0  0  0  0  0  0  0  0  0  0
  138.7020  158.2140  131.6020 C   0  0  0  0  0  0  0  0  0  0  0  0
  139.6250  159.1690  131.1730 C   0  0  0  0  0  0  0  0  0  0  0  0
  140.5640  159.6850  132.0680 C   0  0  0  0  0  0  0  0  0  0  0  0
  140.5770  159.2660  133.4080 C   0  0  0  0  0  0  0  0  0  0  0  0
  141.6640  159.7370  134.2890 C   0  0  0  0  0  0  0  0  0  0  0  0
  141.3550  160.4560  135.2770 O   0  0  0  0  0  0  0  0  0  0  0  0
  143.0920  159.4190  134.0250 C   0  0  0  0  0  0  0  0  0  0  0  0
  143.5230  158.0920  133.8240 C   0  0  0  0  0  0  0  0  0  0  0  0
  144.8600  157.8200  133.5200 C   0  0  0  0  0  0  0  0  0  0  0  0
  145.7820  158.8620  133.4120 C   0  0  0  0  0  0  0  0  0  0  0  0
  145.3700  160.1810  133.6100 C   0  0  0  0  0  0  0  0  0  0  0  0
  144.0350  160.4600  133.9150 C   0  0  0  0  0  0  0  0  0  0  0  0
  141.0970  155.9410  135.3460 C   0  0  0  0  0  0  0  0  0  0  0  0
  140.6740  155.2410  134.2120 C   0  0  0  0  0  0  0  0  0  0  0  0
  140.4652  152.3815  132.9742 H   0  0  0  0  0  0  0  0  0  0  0  0
  140.2706  153.8941  132.0251 H   0  0  0  0  0  0  0  0  0  0  0  0
  141.8454  153.0301  132.0251 H   0  0  0  0  0  0  0  0  0  0  0  0
  143.0800  152.7803  134.2893 H   0  0  0  0  0  0  0  0  0  0  0  0
  143.8166  154.1114  136.2956 H   0  0  0  0  0  0  0  0  0  0  0  0
  143.2007  156.4552  137.8224 H   0  0  0  0  0  0  0  0  0  0  0  0
  140.3490  160.5200  138.0430 H   0  0  0  0  0  0  0  0  0  0  0  0
  139.8020  159.6430  136.5770 H   0  0  0  0  0  0  0  0  0  0  0  0
  137.9825  157.0223  133.2593 H   0  0  0  0  0  0  0  0  0  0  0  0
  137.9710  157.7993  130.8924 H   0  0  0  0  0  0  0  0  0  0  0  0
  139.6126  159.5153  130.1290 H   0  0  0  0  0  0  0  0  0  0  0  0
  141.2994  160.4256  131.7206 H   0  0  0  0  0  0  0  0  0  0  0  0
  142.8024  157.2650  133.9069 H   0  0  0  0  0  0  0  0  0  0  0  0
  145.1865  156.7810  133.3654 H   0  0  0  0  0  0  0  0  0  0  0  0
  146.8329  158.6441  133.1710 H   0  0  0  0  0  0  0  0  0  0  0  0
  146.0972  161.0020  133.5258 H   0  0  0  0  0  0  0  0  0  0  0  0
  143.7176  161.5017  134.0706 H   0  0  0  0  0  0  0  0  0  0  0  0
  139.7934  155.5701  133.6407 H   0  0  0  0  0  0  0  0  0  0  0  0
  1  2  1  0
  2  3  2  0
  3  4  1  0
  4  5  2  0
  5  6  1  0
  6  7  2  0
  7  8  1  0
  8  9  1  0
  8 10  2  0
  7 11  1  0
 11 12  1  0
 12 13  2  0
 12 14  1  0
 14 15  2  0
 15 16  1  0
 16 17  2  0
 17 18  1  0
 18 19  2  0
 19 20  1  0
 20 21  2  0
 20 22  1  0
 22 23  2  0
 23 24  1  0
 24 25  2  0
 25 26  1  0
 26 27  2  0
 11 28  1  0
 28 29  2  0
 29  2  1  0
 28  5  1  0
 19 14  1  0
 27 22  1  0
  1 30  1  0
  1 31  1  0
  1 32  1  0
  3 33  1  0
  4 34  1  0
  6 35  1  0
  9 36  1  0
  9 37  1  0
 15 38  1  0
 16 39  1  0
 17 40  1  0
 18 41  1  0
 23 42  1  0
 24 43  1  0
 25 44  1  0
 26 45  1  0
 27 46  1  0
 29 47  1  0
M  END
>  <UniqueID>  (72) 
72

>  <SMILES>  (72) 
Cc1ccc2cc(C(N)=O)n(C(=O)c3ccccc3C(=O)c3ccccc3)c2c1

>  <Energy>  (72) 
99.1807536446776

>  <Genealogy>  (72) 
Cc1ccc2cc(C(N)=O)n(C(=O)c3ccccc3C(=O)c3ccccc3)c2c1 (3D coordinates assigned)
Cc1ccc2cc(C(N)=O)n(C(=O)c3ccccc3C(=O)c3ccccc3)c2c1 (optimized conformer: 99.1807536446776 kcal/mol)

>  <smiles>  (72) 
Cc1ccc2cc(C(N)=O)n(C(=O)c3ccccc3C(=O)c3ccccc3)c2c1

>  <score_type>  (72) 
oracle

>  <origin>  (72) 
adg

>  <m_score__min__energy>  (72) 
-10.550000000000001

>  <m_primary>  (72) 
energy

$$$$
72:0
     RDKit          3D

 41 43  0  0  0  0  0  0  0  0999 V2000
  149.2090  161.4410  130.7290 C   0  0  0  0  0  0  0  0  0  0  0  0
  149.2310  159.9650  130.3360 C   0  0  0  0  0  0  0  0  0  0  0  0
  149.4700  159.0350  131.5360 C   0  0  0  0  0  0  0  0  0  0  0  0
  148.1940  158.4910  132.2240 C   0  0  0  0  0  0  0  0  0  0  0  0
  147.0150  159.2830  132.1150 O   0  0  0  0  0  0  0  0  0  0  0  0
  146.5580  160.1080  133.1450 C   0  0  0  0  0  0  0  0  0  0  0  0
  147.3520  160.8890  133.7360 O   0  0  0  0  0  0  0  0  0  0  0  0
  145.1700  160.0850  133.5100 N   0  0  0  0  0  0  0  0  0  0  0  0
  144.3800  161.1350  133.8750 C   0  0  0  0  0  0  0  0  0  0  0  0
  144.8330  162.5230  134.1020 C   0  0  0  0  0  0  0  0  0  0  0  0
  145.9170  162.7770  134.9930 N   0  0  0  0  0  0  0  0  0  0  0  0
  144.2970  163.4860  133.4930 O   0  0  0  0  0  0  0  0  0  0  0  0
  143.0720  160.7070  134.0940 C   0  0  0  0  0  0  0  0  0  0  0  0
  143.0860  159.3510  133.8570 C   0  0  0  0  0  0  0  0  0  0  0  0
  142.0560  158.4200  133.9290 C   0  0  0  0  0  0  0  0  0  0  0  0
  142.3520  157.0840  133.6120 C   0  0  0  0  0  0  0  0  0  0  0  0
  143.6590  156.7070  133.2050 C   0  0  0  0  0  0  0  0  0  0  0  0
  143.9730  155.2640  132.9040 C   0  0  0  0  0  0  0  0  0  0  0  0
  142.8490  154.4950  133.1440 F   0  0  0  0  0  0  0  0  0  0  0  0
  145.0080  154.8110  133.7040 F   0  0  0  0  0  0  0  0  0  0  0  0
  144.3510  155.1110  131.5810 F   0  0  0  0  0  0  0  0  0  0  0  0
  144.6840  157.6810  133.1660 C   0  0  0  0  0  0  0  0  0  0  0  0
  144.3630  159.0000  133.5050 C   0  0  0  0  0  0  0  0  0  0  0  0
  147.9780  157.0300  132.6120 C   0  0  0  0  0  0  0  0  0  0  0  0
  148.4200  158.0340  133.6620 C   0  0  0  0  0  0  0  0  0  0  0  0
  149.2077  161.5285  131.8255 H   0  0  0  0  0  0  0  0  0  0  0  0
  150.0998  161.9421  130.3222 H   0  0  0  0  0  0  0  0  0  0  0  0
  148.3037  161.9153  130.3222 H   0  0  0  0  0  0  0  0  0  0  0  0
  148.2640  159.7081  129.8789 H   0  0  0  0  0  0  0  0  0  0  0  0
  150.0646  159.8209  129.6329 H   0  0  0  0  0  0  0  0  0  0  0  0
  150.0588  158.1745  131.1855 H   0  0  0  0  0  0  0  0  0  0  0  0
  149.9835  159.6458  132.2931 H   0  0  0  0  0  0  0  0  0  0  0  0
  146.9040  162.7760  134.6520 H   0  0  0  0  0  0  0  0  0  0  0  0
  142.2107  161.3224  134.3930 H   0  0  0  0  0  0  0  0  0  0  0  0
  141.0401  158.7205  134.2252 H   0  0  0  0  0  0  0  0  0  0  0  0
  141.5623  156.3212  133.6798 H   0  0  0  0  0  0  0  0  0  0  0  0
  145.7093  157.4079  132.8760 H   0  0  0  0  0  0  0  0  0  0  0  0
  146.9601  156.6143  132.6431 H   0  0  0  0  0  0  0  0  0  0  0  0
  148.3616  156.0649  132.2496 H   0  0  0  0  0  0  0  0  0  0  0  0
  147.7220  158.3447  134.4534 H   0  0  0  0  0  0  0  0  0  0  0  0
  149.2561  158.0957  134.3741 H   0  0  0  0  0  0  0  0  0  0  0  0
  1  2  1  0
  2  3  1  0
  3  4  1  0
  4  5  1  0
  5  6  1  0
  6  7  2  0
  6  8  1  0
  8  9  1  0
  9 10  1  0
 10 11  1  0
 10 12  2  0
  9 13  2  0
 13 14  1  0
 14 15  2  0
 15 16  1  0
 16 17  2  0
 17 18  1  0
 18 19  1  0
 18 20  1  0
 18 21  1  0
 17 22  1  0
 22 23  2  0
  4 24  1  0
 24 25  1  0
 25  4  1  0
 23  8  1  0
 23 14  1  0
  1 26  1  0
  1 27  1  0
  1 28  1  0
  2 29  1  0
  2 30  1  0
  3 31  1  0
  3 32  1  0
 11 33  1  0
 13 34  1  0
 15 35  1  0
 16 36  1  0
 22 37  1  0
 24 38  1  0
 24 39  1  0
 25 40  1  0
 25 41  1  0
M  CHG  1  11  -1
M  END
>  <UniqueID>  (73) 
73

>  <SMILES>  (73) 
CCCC1(OC(=O)n2c(C([NH-])=O)cc3ccc(C(F)(F)F)cc32)CC1

>  <Energy>  (73) 
345.8293474299834

>  <Genealogy>  (73) 
CCCC1(OC(=O)n2c(C([NH-])=O)cc3ccc(C(F)(F)F)cc32)CC1 (protonated)
CCCC1(OC(=O)n2c(C([NH-])=O)cc3ccc(C(F)(F)F)cc32)CC1 (3D coordinates assigned)
CCCC1(OC(=O)n2c(C([NH-])=O)cc3ccc(C(F)(F)F)cc32)CC1 (nonaromatic ring conformer: 345.8293474299834 kcal/mol)

>  <smiles>  (73) 
CCCC1(OC(=O)n2c(C(N)=O)cc3ccc(C(F)(F)F)cc32)CC1

>  <score_type>  (73) 
oracle

>  <origin>  (73) 
adg

>  <m_score__min__energy>  (73) 
-7.0800000000000001

>  <m_primary>  (73) 
energy

$$$$
73:0
     RDKit          3D

 41 43  0  0  0  0  0  0  0  0999 V2000
  149.6050  152.5800  131.7990 C   0  0  0  0  0  0  0  0  0  0  0  0
  148.7010  152.2880  133.0050 C   0  0  0  0  0  0  0  0  0  0  0  0
  147.2960  151.9170  132.4970 C   0  0  0  0  0  0  0  0  0  0  0  0
  149.3110  151.1270  133.8160 C   0  0  0  0  0  0  0  0  0  0  0  0
  148.6530  153.4840  133.7970 O   0  0  0  0  0  0  0  0  0  0  0  0
  148.5990  154.8010  133.3150 C   0  0  0  0  0  0  0  0  0  0  0  0
  149.4570  155.2260  132.4950 O   0  0  0  0  0  0  0  0  0  0  0  0
  147.5370  155.6670  133.7450 N   0  0  0  0  0  0  0  0  0  0  0  0
  146.4840  155.3530  134.5510 C   0  0  0  0  0  0  0  0  0  0  0  0
  146.2970  154.0810  135.2800 C   0  0  0  0  0  0  0  0  0  0  0  0
  147.2830  153.6480  136.2140 N   0  0  0  0  0  0  0  0  0  0  0  0
  145.2930  153.3530  135.0590 O   0  0  0  0  0  0  0  0  0  0  0  0
  145.6200  156.4390  134.6700 C   0  0  0  0  0  0  0  0  0  0  0  0
  146.1840  157.4390  133.9100 C   0  0  0  0  0  0  0  0  0  0  0  0
  145.7370  158.7300  133.6570 C   0  0  0  0  0  0  0  0  0  0  0  0
  146.5050  159.5390  132.8040 C   0  0  0  0  0  0  0  0  0  0  0  0
  147.7000  159.0480  132.2140 C   0  0  0  0  0  0  0  0  0  0  0  0
  148.4910  159.9140  131.3040 C   0  0  0  0  0  0  0  0  0  0  0  0
  148.4610  161.2690  131.3080 N   0  0  0  0  0  0  0  0  0  0  0  0
  149.2800  161.8180  130.3710 C   0  0  0  0  0  0  0  0  0  0  0  0
  149.9830  160.9040  129.5980 C   0  0  0  0  0  0  0  0  0  0  0  0
  149.5510  159.3630  130.1150 S   0  0  0  0  0  0  0  0  0  0  0  0
  148.1160  157.7250  132.4940 C   0  0  0  0  0  0  0  0  0  0  0  0
  147.3400  156.9480  133.3630 C   0  0  0  0  0  0  0  0  0  0  0  0
  150.5962  152.9002  132.1527 H   0  0  0  0  0  0  0  0  0  0  0  0
  149.7093  151.6699  131.1901 H   0  0  0  0  0  0  0  0  0  0  0  0
  149.1572  153.3792  131.1901 H   0  0  0  0  0  0  0  0  0  0  0  0
  146.6304  151.7413  133.3550 H   0  0  0  0  0  0  0  0  0  0  0  0
  146.8975  152.7407  131.8865 H   0  0  0  0  0  0  0  0  0  0  0  0
  147.3561  151.0039  131.8865 H   0  0  0  0  0  0  0  0  0  0  0  0
  149.2024  151.3338  134.8909 H   0  0  0  0  0  0  0  0  0  0  0  0
  148.7878  150.1918  133.5678 H   0  0  0  0  0  0  0  0  0  0  0  0
  150.3780  151.0272  133.5678 H   0  0  0  0  0  0  0  0  0  0  0  0
  148.1680  153.2000  135.8900 H   0  0  0  0  0  0  0  0  0  0  0  0
  144.6855  156.4874  135.2483 H   0  0  0  0  0  0  0  0  0  0  0  0
  144.8090  159.1072  134.1114 H   0  0  0  0  0  0  0  0  0  0  0  0
  146.1767  160.5668  132.5899 H   0  0  0  0  0  0  0  0  0  0  0  0
  147.8630  161.8500  131.9330 H   0  0  0  0  0  0  0  0  0  0  0  0
  149.3780  162.9052  130.2358 H   0  0  0  0  0  0  0  0  0  0  0  0
  150.6936  161.1441  128.7934 H   0  0  0  0  0  0  0  0  0  0  0  0
  149.0297  157.3154  132.0387 H   0  0  0  0  0  0  0  0  0  0  0  0
  1  2  1  0
  2  3  1  0
  2  4  1  0
  2  5  1  0
  5  6  1  0
  6  7  2  0
  6  8  1  0
  8  9  1  0
  9 10  1  0
 10 11  1  0
 10 12  2  0
  9 13  2  0
 13 14  1  0
 14 15  2  0
 15 16  1  0
 16 17  2  0
 17 18  1  0
 18 19  2  0
 19 20  1  0
 20 21  2  0
 21 22  1  0
 17 23  1  0
 23 24  2  0
 24  8  1  0
 24 14  1  0
 22 18  1  0
  1 25  1  0
  1 26  1  0
  1 27  1  0
  3 28  1  0
  3 29  1  0
  3 30  1  0
  4 31  1  0
  4 32  1  0
  4 33  1  0
 11 34  1  0
 13 35  1  0
 15 36  1  0
 16 37  1  0
 19 38  1  0
 20 39  1  0
 21 40  1  0
 23 41  1  0
M  CHG  2  11  -1  19   1
M  END
>  <UniqueID>  (74) 
74

>  <SMILES>  (74) 
CC(C)(C)OC(=O)n1c(C([NH-])=O)cc2ccc(-c3[nH+]ccs3)cc21

>  <Energy>  (74) 
108.52367130890565

>  <Genealogy>  (74) 
CC(C)(C)OC(=O)n1c(C([NH-])=O)cc2ccc(-c3[nH+]ccs3)cc21 (protonated)
CC(C)(C)OC(=O)n1c(C([NH-])=O)cc2ccc(-c3[nH+]ccs3)cc21 (3D coordinates assigned)
CC(C)(C)OC(=O)n1c(C([NH-])=O)cc2ccc(-c3[nH+]ccs3)cc21 (optimized conformer: 108.52367130890565 kcal/mol)

>  <smiles>  (74) 
CC(C)(C)OC(=O)n1c(C(N)=O)cc2ccc(-c3nccs3)cc21

>  <score_type>  (74) 
oracle

>  <origin>  (74) 
adg

>  <m_score__min__energy>  (74) 
-7.4299999999999997

>  <m_primary>  (74) 
energy

$$$$
74:0
     RDKit          3D

 47 49  0  0  0  0  0  0  0  0999 V2000
  138.7350  146.3110  128.7630 C   0  0  0  0  0  0  0  0  0  0  0  0
  139.5440  146.5790  130.0290 C   0  0  0  0  0  0  0  0  0  0  0  0
  139.0500  147.8590  130.7350 C   0  0  0  0  0  0  0  0  0  0  0  0
  140.1120  148.8610  130.9720 N   0  0  0  0  0  0  0  0  0  0  0  0
  140.9530  148.5630  132.1540 C   0  0  0  0  0  0  0  0  0  0  0  0
  141.7750  149.7820  132.5790 C   0  0  0  0  0  0  0  0  0  0  0  0
  140.8370  150.9210  133.0260 C   0  0  0  0  0  0  0  0  0  0  0  0
  141.5860  152.2410  133.1010 C   0  0  0  0  0  0  0  0  0  0  0  0
  140.8850  153.4340  133.4160 C   0  0  0  0  0  0  0  0  0  0  0  0
  141.5580  154.6620  133.5090 C   0  0  0  0  0  0  0  0  0  0  0  0
  142.9300  154.6730  133.2770 C   0  0  0  0  0  0  0  0  0  0  0  0
  143.8270  155.7150  133.3340 C   0  0  0  0  0  0  0  0  0  0  0  0
  145.0630  155.1510  133.0280 C   0  0  0  0  0  0  0  0  0  0  0  0
  146.3070  155.9390  132.9110 C   0  0  0  0  0  0  0  0  0  0  0  0
  147.2970  155.6160  131.9340 N   0  0  0  0  0  0  0  0  0  0  0  0
  146.4710  156.9480  133.6460 O   0  0  0  0  0  0  0  0  0  0  0  0
  144.9410  153.8130  132.8040 N   0  0  0  0  0  0  0  0  0  0  0  0
  145.9970  152.8620  132.5810 C   0  0  0  0  0  0  0  0  0  0  0  0
  145.6880  151.5090  132.2570 N   0  0  0  0  0  0  0  0  0  0  0  0
  147.2020  153.2210  132.6590 O   0  0  0  0  0  0  0  0  0  0  0  0
  143.6260  153.5360  132.9560 C   0  0  0  0  0  0  0  0  0  0  0  0
  142.9830  152.2950  132.8770 C   0  0  0  0  0  0  0  0  0  0  0  0
  139.5570  151.0160  132.1540 C   0  0  0  0  0  0  0  0  0  0  0  0
  139.6870  150.2740  130.8120 C   0  0  0  0  0  0  0  0  0  0  0  0
  137.7240  145.9761  129.0380 H   0  0  0  0  0  0  0  0  0  0  0  0
  138.6665  147.2345  128.1693 H   0  0  0  0  0  0  0  0  0  0  0  0
  139.2314  145.5293  128.1693 H   0  0  0  0  0  0  0  0  0  0  0  0
  139.4356  145.7249  130.7137 H   0  0  0  0  0  0  0  0  0  0  0  0
  140.5994  146.7152  129.7505 H   0  0  0  0  0  0  0  0  0  0  0  0
  138.2715  148.3207  130.1099 H   0  0  0  0  0  0  0  0  0  0  0  0
  138.6731  147.5537  131.7223 H   0  0  0  0  0  0  0  0  0  0  0  0
  140.3028  148.2617  132.9885 H   0  0  0  0  0  0  0  0  0  0  0  0
  141.6485  147.7535  131.8876 H   0  0  0  0  0  0  0  0  0  0  0  0
  142.4339  149.5036  133.4147 H   0  0  0  0  0  0  0  0  0  0  0  0
  142.3788  150.1254  131.7261 H   0  0  0  0  0  0  0  0  0  0  0  0
  140.4875  150.6794  134.0406 H   0  0  0  0  0  0  0  0  0  0  0  0
  139.7995  153.3957  133.5896 H   0  0  0  0  0  0  0  0  0  0  0  0
  141.0176  155.5873  133.7576 H   0  0  0  0  0  0  0  0  0  0  0  0
  143.6135  156.7678  133.5706 H   0  0  0  0  0  0  0  0  0  0  0  0
  147.1170  154.8950  131.2020 H   0  0  0  0  0  0  0  0  0  0  0  0
  148.1860  156.1610  131.8900 H   0  0  0  0  0  0  0  0  0  0  0  0
  145.9170  151.1160  131.3170 H   0  0  0  0  0  0  0  0  0  0  0  0
  143.5508  151.3816  132.6459 H   0  0  0  0  0  0  0  0  0  0  0  0
  138.7173  150.5804  132.7154 H   0  0  0  0  0  0  0  0  0  0  0  0
  139.3917  152.0796  131.9272 H   0  0  0  0  0  0  0  0  0  0  0  0
  138.7109  150.2917  130.3052 H   0  0  0  0  0  0  0  0  0  0  0  0
  140.4625  150.7875  130.2247 H   0  0  0  0  0  0  0  0  0  0  0  0
  1  2  1  0
  2  3  1  0
  3  4  1  0
  4  5  1  0
  5  6  1  0
  6  7  1  0
  7  8  1  0
  8  9  2  0
  9 10  1  0
 10 11  2  0
 11 12  1  0
 12 13  2  0
 13 14  1  0
 14 15  1  0
 14 16  2  0
 13 17  1  0
 17 18  1  0
 18 19  1  0
 18 20  2  0
 17 21  1  0
 21 22  2  0
  7 23  1  0
 23 24  1  0
 24  4  1  0
 22  8  1  0
 21 11  1  0
  1 25  1  0
  1 26  1  0
  1 27  1  0
  2 28  1  0
  2 29  1  0
  3 30  1  0
  3 31  1  0
  5 32  1  0
  5 33  1  0
  6 34  1  0
  6 35  1  0
  7 36  1  0
  9 37  1  0
 10 38  1  0
 12 39  1  0
 15 40  1  0
 15 41  1  0
 19 42  1  0
 22 43  1  0
 23 44  1  0
 23 45  1  0
 24 46  1  0
 24 47  1  0
M  CHG  1  19  -1
M  END
>  <UniqueID>  (75) 
75

>  <SMILES>  (75) 
CCCN1CCC(c2ccc3cc(C(N)=O)n(C([NH-])=O)c3c2)CC1

>  <Energy>  (75) 
95.53879778708895

>  <Genealogy>  (75) 
CCCN1CCC(c2ccc3cc(C(N)=O)n(C([NH-])=O)c3c2)CC1 (protonated)
CCCN1CCC(c2ccc3cc(C(N)=O)n(C([NH-])=O)c3c2)CC1 (3D coordinates assigned)
CCCN1CCC(c2ccc3cc(C(N)=O)n(C([NH-])=O)c3c2)CC1 (nonaromatic ring conformer: 95.53879778708895 kcal/mol)

>  <smiles>  (75) 
CCCN1CCC(c2ccc3cc(C(N)=O)n(C(N)=O)c3c2)CC1

>  <score_type>  (75) 
oracle

>  <origin>  (75) 
adg

>  <m_score__min__energy>  (75) 
-8.6799999999999997

>  <m_primary>  (75) 
energy

$$$$
75:0
     RDKit          3D

 63 65  0  0  0  0  0  0  0  0999 V2000
  138.7410  148.7580  128.8770 C   0  0  0  0  0  0  0  0  0  0  0  0
  139.5860  147.8340  129.6490 N   0  0  0  0  0  0  0  0  0  0  0  0
  139.0890  146.4540  129.5380 C   0  0  0  0  0  0  0  0  0  0  0  0
  139.6330  148.2440  131.0430 C   0  0  0  0  0  0  0  0  0  0  0  0
  138.5940  148.4900  131.6430 O   0  0  0  0  0  0  0  0  0  0  0  0
  140.9620  148.4060  131.7560 C   0  0  0  0  0  0  0  0  0  0  0  0
  141.3900  149.8140  131.8980 N   0  0  0  0  0  0  0  0  0  0  0  0
  140.2690  150.7850  131.8030 C   0  0  0  0  0  0  0  0  0  0  0  0
  140.3470  151.9130  132.8460 C   0  0  0  0  0  0  0  0  0  0  0  0
  141.7550  152.5350  132.8680 C   0  0  0  0  0  0  0  0  0  0  0  0
  141.8240  153.5970  133.9520 C   0  0  0  0  0  0  0  0  0  0  0  0
  141.7580  153.2580  135.3300 C   0  0  0  0  0  0  0  0  0  0  0  0
  141.7630  154.2580  136.3150 C   0  0  0  0  0  0  0  0  0  0  0  0
  141.7720  155.5860  135.9010 C   0  0  0  0  0  0  0  0  0  0  0  0
  141.7310  156.7410  136.6440 C   0  0  0  0  0  0  0  0  0  0  0  0
  141.6600  157.7760  135.7130 C   0  0  0  0  0  0  0  0  0  0  0  0
  141.4760  159.1890  136.0950 C   0  0  0  0  0  0  0  0  0  0  0  0
  140.8780  159.5130  137.3480 N   0  0  0  0  0  0  0  0  0  0  0  0
  141.7930  160.1140  135.3030 O   0  0  0  0  0  0  0  0  0  0  0  0
  141.6770  157.2860  134.4400 N   0  0  0  0  0  0  0  0  0  0  0  0
  141.6310  158.0420  133.2120 C   0  0  0  0  0  0  0  0  0  0  0  0
  142.5320  158.8900  132.9640 O   0  0  0  0  0  0  0  0  0  0  0  0
  140.5800  157.8310  132.3010 O   0  0  0  0  0  0  0  0  0  0  0  0
  139.3050  158.4920  132.2960 C   0  0  0  0  0  0  0  0  0  0  0  0
  139.4760  160.0120  132.4920 C   0  0  0  0  0  0  0  0  0  0  0  0
  138.6690  158.2400  130.9210 C   0  0  0  0  0  0  0  0  0  0  0  0
  138.3880  157.9050  133.3860 C   0  0  0  0  0  0  0  0  0  0  0  0
  141.7550  155.9380  134.5750 C   0  0  0  0  0  0  0  0  0  0  0  0
  141.8100  154.9610  133.5730 C   0  0  0  0  0  0  0  0  0  0  0  0
  142.8820  151.4640  132.9580 C   0  0  0  0  0  0  0  0  0  0  0  0
  142.3240  150.0360  133.0200 C   0  0  0  0  0  0  0  0  0  0  0  0
  138.1631  149.3900  129.5674 H   0  0  0  0  0  0  0  0  0  0  0  0
  139.3768  149.3936  128.2432 H   0  0  0  0  0  0  0  0  0  0  0  0
  138.0512  148.1814  128.2432 H   0  0  0  0  0  0  0  0  0  0  0  0
  140.5470  147.8580  129.2330 H   0  0  0  0  0  0  0  0  0  0  0  0
  138.9386  146.0364  130.5445 H   0  0  0  0  0  0  0  0  0  0  0  0
  138.1334  146.4511  128.9933 H   0  0  0  0  0  0  0  0  0  0  0  0
  139.8234  145.8425  128.9933 H   0  0  0  0  0  0  0  0  0  0  0  0
  140.8735  147.9665  132.7605 H   0  0  0  0  0  0  0  0  0  0  0  0
  141.7210  147.8985  131.1425 H   0  0  0  0  0  0  0  0  0  0  0  0
  140.2828  151.2362  130.7999 H   0  0  0  0  0  0  0  0  0  0  0  0
  139.3402  150.2282  131.9961 H   0  0  0  0  0  0  0  0  0  0  0  0
  139.6121  152.6912  132.5924 H   0  0  0  0  0  0  0  0  0  0  0  0
  140.1296  151.4930  133.8391 H   0  0  0  0  0  0  0  0  0  0  0  0
  141.9400  153.0342  131.9054 H   0  0  0  0  0  0  0  0  0  0  0  0
  141.7024  152.2007  135.6282 H   0  0  0  0  0  0  0  0  0  0  0  0
  141.7599  153.9989  137.3840 H   0  0  0  0  0  0  0  0  0  0  0  0
  141.7501  156.8300  137.7402 H   0  0  0  0  0  0  0  0  0  0  0  0
  139.8500  159.3880  137.4900 H   0  0  0  0  0  0  0  0  0  0  0  0
  139.5019  160.2424  133.5673 H   0  0  0  0  0  0  0  0  0  0  0  0
  140.4165  160.3385  132.0243 H   0  0  0  0  0  0  0  0  0  0  0  0
  138.6315  160.5393  132.0243 H   0  0  0  0  0  0  0  0  0  0  0  0
  137.6539  157.8378  131.0547 H   0  0  0  0  0  0  0  0  0  0  0  0
  138.6179  159.1858  130.3617 H   0  0  0  0  0  0  0  0  0  0  0  0
  139.2796  157.5159  130.3617 H   0  0  0  0  0  0  0  0  0  0  0  0
  138.7877  158.1609  134.3783 H   0  0  0  0  0  0  0  0  0  0  0  0
  137.3765  158.3239  133.2790 H   0  0  0  0  0  0  0  0  0  0  0  0
  138.3450  156.8111  133.2790 H   0  0  0  0  0  0  0  0  0  0  0  0
  141.8417  155.2480  132.5116 H   0  0  0  0  0  0  0  0  0  0  0  0
  143.5270  151.5537  132.0714 H   0  0  0  0  0  0  0  0  0  0  0  0
  143.4460  151.6457  133.8848 H   0  0  0  0  0  0  0  0  0  0  0  0
  143.1535  149.3167  132.9523 H   0  0  0  0  0  0  0  0  0  0  0  0
  141.7887  149.8965  133.9708 H   0  0  0  0  0  0  0  0  0  0  0  0
  1  2  1  0
  2  3  1  0
  2  4  1  0
  4  5  2  0
  4  6  1  0
  6  7  1  0
  7  8  1  0
  8  9  1  0
  9 10  1  0
 10 11  1  0
 11 12  2  0
 12 13  1  0
 13 14  2  0
 14 15  1  0
 15 16  2  0
 16 17  1  0
 17 18  1  0
 17 19  2  0
 16 20  1  0
 20 21  1  0
 21 22  2  0
 21 23  1  0
 23 24  1  0
 24 25  1  0
 24 26  1  0
 24 27  1  0
 20 28  1  0
 28 29  2  0
 10 30  1  0
 30 31  1  0
 31  7  1  0
 29 11  1  0
 28 14  1  0
  1 32  1  0
  1 33  1  0
  1 34  1  0
  2 35  1  0
  3 36  1  0
  3 37  1  0
  3 38  1  0
  6 39  1  0
  6 40  1  0
  8 41  1  0
  8 42  1  0
  9 43  1  0
  9 44  1  0
 10 45  1  0
 12 46  1  0
 13 47  1  0
 15 48  1  0
 18 49  1  0
 25 50  1  0
 25 51  1  0
 25 52  1  0
 26 53  1  0
 26 54  1  0
 26 55  1  0
 27 56  1  0
 27 57  1  0
 27 58  1  0
 29 59  1  0
 30 60  1  0
 30 61  1  0
 31 62  1  0
 31 63  1  0
M  CHG  2   2   1  18  -1
M  END
>  <UniqueID>  (76) 
76

>  <SMILES>  (76) 
C[NH+](C)C(=O)CN1CCC(c2ccc3cc(C([NH-])=O)n(C(=O)OC(C)(C)C)c3c2)CC1

>  <Energy>  (76) 
110.05611461901506

>  <Genealogy>  (76) 
C[NH+](C)C(=O)CN1CCC(c2ccc3cc(C([NH-])=O)n(C(=O)OC(C)(C)C)c3c2)CC1 (protonated)
C[NH+](C)C(=O)CN1CCC(c2ccc3cc(C([NH-])=O)n(C(=O)OC(C)(C)C)c3c2)CC1 (3D coordinates assigned)
C[NH+](C)C(=O)CN1CCC(c2ccc3cc(C([NH-])=O)n(C(=O)OC(C)(C)C)c3c2)CC1 (nonaromatic ring conformer: 110.05611461901506 kcal/mol)

>  <smiles>  (76) 
CN(C)C(=O)CN1CCC(c2ccc3cc(C(N)=O)n(C(=O)OC(C)(C)C)c3c2)CC1

>  <score_type>  (76) 
oracle

>  <origin>  (76) 
adg

>  <m_score__min__energy>  (76) 
-8.7899999999999991

>  <m_primary>  (76) 
energy

$$$$
76:0
     RDKit          3D

 35 37  0  0  0  0  0  0  0  0999 V2000
  138.7310  158.2380  135.7360 N   0  0  0  0  0  0  0  0  0  0  0  0
  139.2290  157.5770  134.5720 C   0  0  0  0  0  0  0  0  0  0  0  0
  138.4140  157.1040  133.7360 O   0  0  0  0  0  0  0  0  0  0  0  0
  140.6770  157.4960  134.2980 C   0  0  0  0  0  0  0  0  0  0  0  0
  141.3250  156.3130  133.9560 C   0  0  0  0  0  0  0  0  0  0  0  0
  142.6350  156.6710  133.7270 C   0  0  0  0  0  0  0  0  0  0  0  0
  143.7250  155.8830  133.3720 C   0  0  0  0  0  0  0  0  0  0  0  0
  144.9750  156.5080  133.2440 C   0  0  0  0  0  0  0  0  0  0  0  0
  145.1170  157.9000  133.4760 C   0  0  0  0  0  0  0  0  0  0  0  0
  146.4120  158.5200  133.3580 N   0  0  0  0  0  0  0  0  0  0  0  0
  147.6320  157.7430  133.5990 C   0  0  0  0  0  0  0  0  0  0  0  0
  148.7900  158.3390  132.7940 C   0  0  0  0  0  0  0  0  0  0  0  0
  148.9170  159.7260  133.0440 O   0  0  0  0  0  0  0  0  0  0  0  0
  147.7690  160.4050  132.5750 C   0  0  0  0  0  0  0  0  0  0  0  0
  146.5270  159.9820  133.3650 C   0  0  0  0  0  0  0  0  0  0  0  0
  143.9850  158.6640  133.8420 C   0  0  0  0  0  0  0  0  0  0  0  0
  142.7470  158.0210  133.9420 C   0  0  0  0  0  0  0  0  0  0  0  0
  141.5510  158.5430  134.2970 N   0  0  0  0  0  0  0  0  0  0  0  0
  141.2930  159.8960  134.7100 C   0  0  0  0  0  0  0  0  0  0  0  0
  140.9680  160.1470  135.9010 O   0  0  0  0  0  0  0  0  0  0  0  0
  141.4020  160.9420  133.8020 O   0  0  0  0  0  0  0  0  0  0  0  0
  137.7060  158.2500  135.9340 H   0  0  0  0  0  0  0  0  0  0  0  0
  139.3650  158.7890  136.3550 H   0  0  0  0  0  0  0  0  0  0  0  0
  140.8851  155.3073  133.8840 H   0  0  0  0  0  0  0  0  0  0  0  0
  143.6107  154.8030  133.1969 H   0  0  0  0  0  0  0  0  0  0  0  0
  145.8547  155.9115  132.9605 H   0  0  0  0  0  0  0  0  0  0  0  0
  147.8784  157.7720  134.6706 H   0  0  0  0  0  0  0  0  0  0  0  0
  147.4685  156.7012  133.2860 H   0  0  0  0  0  0  0  0  0  0  0  0
  149.7247  157.8344  133.0798 H   0  0  0  0  0  0  0  0  0  0  0  0
  148.5862  158.1919  131.7231 H   0  0  0  0  0  0  0  0  0  0  0  0
  147.9184  161.4886  132.6907 H   0  0  0  0  0  0  0  0  0  0  0  0
  147.6169  160.1507  131.5157 H   0  0  0  0  0  0  0  0  0  0  0  0
  146.6149  160.3371  134.4024 H   0  0  0  0  0  0  0  0  0  0  0  0
  145.6319  160.4204  132.8995 H   0  0  0  0  0  0  0  0  0  0  0  0
  144.0761  159.7415  134.0438 H   0  0  0  0  0  0  0  0  0  0  0  0
  1  2  1  0
  2  3  2  0
  2  4  1  0
  4  5  2  0
  5  6  1  0
  6  7  2  0
  7  8  1  0
  8  9  2  0
  9 10  1  0
 10 11  1  0
 11 12  1  0
 12 13  1  0
 13 14  1  0
 14 15  1  0
  9 16  1  0
 16 17  2  0
 17 18  1  0
 18 19  1  0
 19 20  2  0
 19 21  1  0
 18  4  1  0
 17  6  1  0
 15 10  1  0
  1 22  1  0
  1 23  1  0
  5 24  1  0
  7 25  1  0
  8 26  1  0
 11 27  1  0
 11 28  1  0
 12 29  1  0
 12 30  1  0
 14 31  1  0
 14 32  1  0
 15 33  1  0
 15 34  1  0
 16 35  1  0
M  CHG  1  21  -1
M  END
>  <UniqueID>  (77) 
77

>  <SMILES>  (77) 
NC(=O)c1cc2ccc(N3CCOCC3)cc2n1C(=O)[O-]

>  <Energy>  (77) 
81.9091960806079

>  <Genealogy>  (77) 
NC(=O)c1cc2ccc(N3CCOCC3)cc2n1C(=O)[O-] (protonated)
NC(=O)c1cc2ccc(N3CCOCC3)cc2n1C(=O)[O-] (3D coordinates assigned)
NC(=O)c1cc2ccc(N3CCOCC3)cc2n1C(=O)[O-] (nonaromatic ring conformer: 81.9091960806079 kcal/mol)

>  <smiles>  (77) 
NC(=O)c1cc2ccc(N3CCOCC3)cc2n1C(=O)O

>  <score_type>  (77) 
oracle

>  <origin>  (77) 
adg

>  <m_score__min__energy>  (77) 
-6.7800000000000002

>  <m_primary>  (77) 
energy

$$$$
77:0
     RDKit          3D

 56 58  0  0  0  0  0  0  0  0999 V2000
  137.7030  159.3380  131.1040 C   0  0  0  0  0  0  0  0  0  0  0  0
  138.7750  160.0470  131.8630 C   0  0  0  0  0  0  0  0  0  0  0  0
  139.0910  161.2250  131.5450 O   0  0  0  0  0  0  0  0  0  0  0  0
  139.3650  159.4150  132.9670 O   0  0  0  0  0  0  0  0  0  0  0  0
  139.1900  158.0280  133.2710 C   0  0  1  0  0  0  0  0  0  0  0  0
  140.3320  157.1740  132.6480 C   0  0  0  0  0  0  0  0  0  0  0  0
  141.1350  156.3670  133.6780 C   0  0  0  0  0  0  0  0  0  0  0  0
  141.6050  157.2470  134.8540 C   0  0  1  0  0  0  0  0  0  0  0  0
  142.7700  158.1400  134.4310 C   0  0  0  0  0  0  0  0  0  0  0  0
  142.6260  159.5440  134.2410 C   0  0  0  0  0  0  0  0  0  0  0  0
  143.6950  160.3280  133.7830 C   0  0  0  0  0  0  0  0  0  0  0  0
  144.8970  159.6890  133.4960 C   0  0  0  0  0  0  0  0  0  0  0  0
  146.0880  160.2060  133.0360 C   0  0  0  0  0  0  0  0  0  0  0  0
  146.9440  159.1110  132.9120 C   0  0  0  0  0  0  0  0  0  0  0  0
  148.3040  159.2000  132.3370 C   0  0  0  0  0  0  0  0  0  0  0  0
  148.6430  158.5150  131.1310 N   0  0  0  0  0  0  0  0  0  0  0  0
  149.1660  159.9290  132.8940 O   0  0  0  0  0  0  0  0  0  0  0  0
  146.3090  157.9660  133.2930 N   0  0  0  0  0  0  0  0  0  0  0  0
  146.8460  156.6370  133.3710 C   0  0  0  0  0  0  0  0  0  0  0  0
  147.9550  156.3780  132.8310 O   0  0  0  0  0  0  0  0  0  0  0  0
  146.1160  155.6400  134.0350 O   0  0  0  0  0  0  0  0  0  0  0  0
  145.5190  154.4810  133.4390 C   0  0  0  0  0  0  0  0  0  0  0  0
  144.5440  153.8110  134.4280 C   0  0  0  0  0  0  0  0  0  0  0  0
  144.8060  154.8550  132.1250 C   0  0  0  0  0  0  0  0  0  0  0  0
  146.6590  153.5010  133.1160 C   0  0  0  0  0  0  0  0  0  0  0  0
  145.0560  158.3360  133.6430 C   0  0  0  0  0  0  0  0  0  0  0  0
  144.0150  157.5320  134.1200 C   0  0  0  0  0  0  0  0  0  0  0  0
  140.4220  157.9960  135.5380 C   0  0  0  0  0  0  0  0  0  0  0  0
  139.0730  157.8580  134.7990 C   0  0  0  0  0  0  0  0  0  0  0  0
  136.9998  158.8729  131.8106 H   0  0  0  0  0  0  0  0  0  0  0  0
  137.1641  160.0584  130.4711 H   0  0  0  0  0  0  0  0  0  0  0  0
  138.1551  158.5602  130.4711 H   0  0  0  0  0  0  0  0  0  0  0  0
  138.2581  157.6572  132.8193 H   0  0  0  0  0  0  0  0  0  0  0  0
  139.8866  156.4716  131.9281 H   0  0  0  0  0  0  0  0  0  0  0  0
  141.0338  157.8753  132.1730 H   0  0  0  0  0  0  0  0  0  0  0  0
  140.5006  155.5582  134.0697 H   0  0  0  0  0  0  0  0  0  0  0  0
  142.0262  155.9623  133.1760 H   0  0  0  0  0  0  0  0  0  0  0  0
  142.0022  156.5949  135.6458 H   0  0  0  0  0  0  0  0  0  0  0  0
  141.6592  160.0221  134.4573 H   0  0  0  0  0  0  0  0  0  0  0  0
  143.5863  161.4151  133.6546 H   0  0  0  0  0  0  0  0  0  0  0  0
  146.3160  161.2589  132.8135 H   0  0  0  0  0  0  0  0  0  0  0  0
  148.6060  157.4730  131.0810 H   0  0  0  0  0  0  0  0  0  0  0  0
  144.8604  154.0284  135.4588 H   0  0  0  0  0  0  0  0  0  0  0  0
  143.5294  154.2035  134.2653 H   0  0  0  0  0  0  0  0  0  0  0  0
  144.5467  152.7231  134.2653 H   0  0  0  0  0  0  0  0  0  0  0  0
  143.8533  155.3547  132.3542 H   0  0  0  0  0  0  0  0  0  0  0  0
  145.4451  155.5340  131.5414 H   0  0  0  0  0  0  0  0  0  0  0  0
  144.6107  153.9432  131.5414 H   0  0  0  0  0  0  0  0  0  0  0  0
  147.0960  153.1253  134.0529 H   0  0  0  0  0  0  0  0  0  0  0  0
  146.2628  152.6572  132.5320 H   0  0  0  0  0  0  0  0  0  0  0  0
  147.4337  154.0194  132.5320 H   0  0  0  0  0  0  0  0  0  0  0  0
  144.1583  156.4493  134.2516 H   0  0  0  0  0  0  0  0  0  0  0  0
  140.3010  157.5940  136.5547 H   0  0  0  0  0  0  0  0  0  0  0  0
  140.6785  159.0656  135.5302 H   0  0  0  0  0  0  0  0  0  0  0  0
  138.6618  156.8594  135.0080 H   0  0  0  0  0  0  0  0  0  0  0  0
  138.4189  158.6629  135.1655 H   0  0  0  0  0  0  0  0  0  0  0  0
  1  2  1  0
  2  3  2  0
  2  4  1  0
  4  5  1  0
  5  6  1  0
  6  7  1  0
  7  8  1  0
  8  9  1  0
  9 10  2  0
 10 11  1  0
 11 12  2  0
 12 13  1  0
 13 14  2  0
 14 15  1  0
 15 16  1  0
 15 17  2  0
 14 18  1  0
 18 19  1  0
 19 20  2  0
 19 21  1  0
 21 22  1  0
 22 23  1  0
 22 24  1  0
 22 25  1  0
 18 26  1  0
 26 27  2  0
  8 28  1  0
 28 29  1  0
 29  5  1  0
 27  9  1  0
 26 12  1  0
  1 30  1  0
  1 31  1  0
  1 32  1  0
  5 33  1  6
  6 34  1  0
  6 35  1  0
  7 36  1  0
  7 37  1  0
  8 38  1  1
 10 39  1  0
 11 40  1  0
 13 41  1  0
 16 42  1  0
 23 43  1  0
 23 44  1  0
 23 45  1  0
 24 46  1  0
 24 47  1  0
 24 48  1  0
 25 49  1  0
 25 50  1  0
 25 51  1  0
 27 52  1  0
 28 53  1  0
 28 54  1  0
 29 55  1  0
 29 56  1  0
M  CHG  1  16  -1
M  END
>  <UniqueID>  (78) 
78

>  <SMILES>  (78) 
CC(=O)OC1CCC(c2ccc3cc(C([NH-])=O)n(C(=O)OC(C)(C)C)c3c2)CC1

>  <Energy>  (78) 
95.44666811231262

>  <Genealogy>  (78) 
CC(=O)OC1CCC(c2ccc3cc(C([NH-])=O)n(C(=O)OC(C)(C)C)c3c2)CC1 (protonated)
CC(=O)OC1CCC(c2ccc3cc(C([NH-])=O)n(C(=O)OC(C)(C)C)c3c2)CC1 (3D coordinates assigned)
CC(=O)OC1CCC(c2ccc3cc(C([NH-])=O)n(C(=O)OC(C)(C)C)c3c2)CC1 (nonaromatic ring conformer: 95.44666811231262 kcal/mol)

>  <smiles>  (78) 
CC(=O)OC1CCC(c2ccc3cc(C(N)=O)n(C(=O)OC(C)(C)C)c3c2)CC1

>  <score_type>  (78) 
oracle

>  <origin>  (78) 
adg

>  <m_score__min__energy>  (78) 
-8.4900000000000002

>  <m_primary>  (78) 
energy

$$$$
78:0
     RDKit          3D

 36 38  0  0  0  0  0  0  0  0999 V2000
  148.9800  158.5570  131.2370 N   0  0  0  0  0  0  0  0  0  0  0  0
  148.6530  158.9280  132.5750 C   0  0  0  0  0  0  0  0  0  0  0  0
  149.5760  159.0690  133.4190 O   0  0  0  0  0  0  0  0  0  0  0  0
  147.2380  159.1030  132.9650 C   0  0  0  0  0  0  0  0  0  0  0  0
  146.6530  160.3430  133.2090 C   0  0  0  0  0  0  0  0  0  0  0  0
  145.3230  160.0800  133.4430 C   0  0  0  0  0  0  0  0  0  0  0  0
  144.2770  160.9450  133.7480 C   0  0  0  0  0  0  0  0  0  0  0  0
  143.0040  160.3910  133.9620 C   0  0  0  0  0  0  0  0  0  0  0  0
  142.7950  158.9890  133.8690 C   0  0  0  0  0  0  0  0  0  0  0  0
  141.4860  158.4300  134.1110 N   0  0  0  0  0  0  0  0  0  0  0  0
  140.2990  159.2940  134.1520 C   0  0  0  0  0  0  0  0  0  0  0  0
  139.3790  159.0070  132.9620 C   0  0  0  0  0  0  0  0  0  0  0  0
  139.1360  157.2200  132.5960 S   0  0  0  0  0  0  0  0  0  0  0  0
  139.8780  156.5260  134.1110 C   0  0  0  0  0  0  0  0  0  0  0  0
  141.3360  156.9730  134.2480 C   0  0  0  0  0  0  0  0  0  0  0  0
  143.8870  158.1440  133.5610 C   0  0  0  0  0  0  0  0  0  0  0  0
  145.1400  158.7260  133.3400 C   0  0  0  0  0  0  0  0  0  0  0  0
  146.3080  158.1110  133.0540 N   0  0  0  0  0  0  0  0  0  0  0  0
  146.5120  156.6950  132.9310 C   0  0  0  0  0  0  0  0  0  0  0  0
  147.3020  156.1680  131.8650 N   0  0  0  0  0  0  0  0  0  0  0  0
  146.0220  155.9110  133.7870 O   0  0  0  0  0  0  0  0  0  0  0  0
  149.0090  157.5540  130.9500 H   0  0  0  0  0  0  0  0  0  0  0  0
  147.1492  161.3247  133.2137 H   0  0  0  0  0  0  0  0  0  0  0  0
  144.4418  162.0302  133.8194 H   0  0  0  0  0  0  0  0  0  0  0  0
  142.1583  161.0512  134.2047 H   0  0  0  0  0  0  0  0  0  0  0  0
  139.7492  159.1081  135.0865 H   0  0  0  0  0  0  0  0  0  0  0  0
  140.6239  160.3438  134.1026 H   0  0  0  0  0  0  0  0  0  0  0  0
  138.3951  159.4508  133.1740 H   0  0  0  0  0  0  0  0  0  0  0  0
  139.8672  159.4430  132.0779 H   0  0  0  0  0  0  0  0  0  0  0  0
  139.3089  156.8748  134.9853 H   0  0  0  0  0  0  0  0  0  0  0  0
  139.8469  155.4281  134.0514 H   0  0  0  0  0  0  0  0  0  0  0  0
  141.7078  156.6702  135.2380 H   0  0  0  0  0  0  0  0  0  0  0  0
  141.9123  156.4969  133.4410 H   0  0  0  0  0  0  0  0  0  0  0  0
  143.7540  157.0540  133.4967 H   0  0  0  0  0  0  0  0  0  0  0  0
  147.7850  156.8070  131.1960 H   0  0  0  0  0  0  0  0  0  0  0  0
  147.4370  155.1370  131.7680 H   0  0  0  0  0  0  0  0  0  0  0  0
  1  2  1  0
  2  3  2  0
  2  4  1  0
  4  5  2  0
  5  6  1  0
  6  7  2  0
  7  8  1  0
  8  9  2  0
  9 10  1  0
 10 11  1  0
 11 12  1  0
 12 13  1  0
 13 14  1  0
 14 15  1  0
  9 16  1  0
 16 17  2  0
 17 18  1  0
 18 19  1  0
 19 20  1  0
 19 21  2  0
 18  4  1  0
 17  6  1  0
 15 10  1  0
  1 22  1  0
  5 23  1  0
  7 24  1  0
  8 25  1  0
 11 26  1  0
 11 27  1  0
 12 28  1  0
 12 29  1  0
 14 30  1  0
 14 31  1  0
 15 32  1  0
 15 33  1  0
 16 34  1  0
 20 35  1  0
 20 36  1  0
M  CHG  1   1  -1
M  END
>  <UniqueID>  (79) 
79

>  <SMILES>  (79) 
[NH-]C(=O)c1cc2ccc(N3CCSCC3)cc2n1C(N)=O

>  <Energy>  (79) 
80.05572708667904

>  <Genealogy>  (79) 
[NH-]C(=O)c1cc2ccc(N3CCSCC3)cc2n1C(N)=O (protonated)
[NH-]C(=O)c1cc2ccc(N3CCSCC3)cc2n1C(N)=O (3D coordinates assigned)
[NH-]C(=O)c1cc2ccc(N3CCSCC3)cc2n1C(N)=O (nonaromatic ring conformer: 80.05572708667904 kcal/mol)

>  <smiles>  (79) 
NC(=O)c1cc2ccc(N3CCSCC3)cc2n1C(N)=O

>  <score_type>  (79) 
oracle

>  <origin>  (79) 
adg

>  <m_score__min__energy>  (79) 
-7.5300000000000002

>  <m_primary>  (79) 
energy

$$$$
79:0
     RDKit          3D

 35 37  0  0  0  0  0  0  0  0999 V2000
  138.5600  157.0200  133.5050 N   0  0  0  0  0  0  0  0  0  0  0  0
  139.2190  157.8450  134.4660 C   0  0  0  0  0  0  0  0  0  0  0  0
  138.5860  158.2320  135.4850 O   0  0  0  0  0  0  0  0  0  0  0  0
  140.6050  158.3080  134.2550 C   0  0  0  0  0  0  0  0  0  0  0  0
  141.0020  159.6320  134.4160 C   0  0  0  0  0  0  0  0  0  0  0  0
  142.3320  159.6560  134.0680 C   0  0  0  0  0  0  0  0  0  0  0  0
  143.2330  160.7160  134.0600 C   0  0  0  0  0  0  0  0  0  0  0  0
  144.5630  160.4500  133.6950 C   0  0  0  0  0  0  0  0  0  0  0  0
  144.9730  159.1340  133.3550 C   0  0  0  0  0  0  0  0  0  0  0  0
  146.3850  158.8600  132.9840 C   0  0  0  0  0  0  0  0  0  0  0  0
  147.0720  157.7710  133.5480 C   0  0  0  0  0  0  0  0  0  0  0  0
  148.4030  157.5230  133.2070 C   0  0  0  0  0  0  0  0  0  0  0  0
  149.0620  158.3490  132.2960 C   0  0  0  0  0  0  0  0  0  0  0  0
  148.3880  159.4270  131.6980 C   0  0  0  0  0  0  0  0  0  0  0  0
  149.1130  160.3520  130.7530 C   0  0  0  0  0  0  0  0  0  0  0  0
  150.4660  160.0750  130.7930 F   0  0  0  0  0  0  0  0  0  0  0  0
  148.9120  161.6730  131.1160 F   0  0  0  0  0  0  0  0  0  0  0  0
  148.6570  160.1870  129.4570 F   0  0  0  0  0  0  0  0  0  0  0  0
  147.0550  159.6880  132.0660 C   0  0  0  0  0  0  0  0  0  0  0  0
  144.0260  158.0820  133.3780 C   0  0  0  0  0  0  0  0  0  0  0  0
  142.7020  158.3810  133.7240 C   0  0  0  0  0  0  0  0  0  0  0  0
  141.6490  157.5380  133.8370 N   0  0  0  0  0  0  0  0  0  0  0  0
  141.6710  156.1100  133.6670 C   0  0  0  0  0  0  0  0  0  0  0  0
  142.6270  155.4300  134.1260 O   0  0  0  0  0  0  0  0  0  0  0  0
  140.6410  155.4640  132.9960 O   0  0  0  0  0  0  0  0  0  0  0  0
  137.5930  156.6700  133.6900 H   0  0  0  0  0  0  0  0  0  0  0  0
  138.9930  156.8230  132.5760 H   0  0  0  0  0  0  0  0  0  0  0  0
  140.3840  160.4784  134.7502 H   0  0  0  0  0  0  0  0  0  0  0  0
  142.9131  161.7328  134.3316 H   0  0  0  0  0  0  0  0  0  0  0  0
  145.2952  161.2706  133.6724 H   0  0  0  0  0  0  0  0  0  0  0  0
  146.5581  157.1106  134.2620 H   0  0  0  0  0  0  0  0  0  0  0  0
  148.9345  156.6724  133.6587 H   0  0  0  0  0  0  0  0  0  0  0  0
  150.1152  158.1552  132.0445 H   0  0  0  0  0  0  0  0  0  0  0  0
  146.5304  160.5509  131.6299 H   0  0  0  0  0  0  0  0  0  0  0  0
  144.3233  157.0525  133.1297 H   0  0  0  0  0  0  0  0  0  0  0  0
  1  2  1  0
  2  3  2  0
  2  4  1  0
  4  5  2  0
  5  6  1  0
  6  7  2  0
  7  8  1  0
  8  9  2  0
  9 10  1  0
 10 11  2  0
 11 12  1  0
 12 13  2  0
 13 14  1  0
 14 15  1  0
 15 16  1  0
 15 17  1  0
 15 18  1  0
 14 19  2  0
  9 20  1  0
 20 21  2  0
 21 22  1  0
 22 23  1  0
 23 24  2  0
 23 25  1  0
 22  4  1  0
 21  6  1  0
 19 10  1  0
  1 26  1  0
  1 27  1  0
  5 28  1  0
  7 29  1  0
  8 30  1  0
 11 31  1  0
 12 32  1  0
 13 33  1  0
 19 34  1  0
 20 35  1  0
M  CHG  1  25  -1
M  END
>  <UniqueID>  (80) 
80

>  <SMILES>  (80) 
NC(=O)c1cc2ccc(-c3cccc(C(F)(F)F)c3)cc2n1C(=O)[O-]

>  <Energy>  (80) 
83.67564238397698

>  <Genealogy>  (80) 
NC(=O)c1cc2ccc(-c3cccc(C(F)(F)F)c3)cc2n1C(=O)[O-] (protonated)
NC(=O)c1cc2ccc(-c3cccc(C(F)(F)F)c3)cc2n1C(=O)[O-] (3D coordinates assigned)
NC(=O)c1cc2ccc(-c3cccc(C(F)(F)F)c3)cc2n1C(=O)[O-] (optimized conformer: 83.67564238397698 kcal/mol)

>  <smiles>  (80) 
NC(=O)c1cc2ccc(-c3cccc(C(F)(F)F)c3)cc2n1C(=O)O

>  <score_type>  (80) 
oracle

>  <origin>  (80) 
adg

>  <m_score__min__energy>  (80) 
-7.8799999999999999

>  <m_primary>  (80) 
energy

$$$$
80:0
     RDKit          3D

 50 52  0  0  0  0  0  0  0  0999 V2000
  141.6930  156.9980  139.0840 C   0  0  0  0  0  0  0  0  0  0  0  0
  141.0860  156.4170  137.8130 C   0  0  0  0  0  0  0  0  0  0  0  0
  140.8280  157.5070  136.8400 N   0  0  0  0  0  0  0  0  0  0  0  0
  141.3660  158.7920  137.3400 C   0  0  0  0  0  0  0  0  0  0  0  0
  140.6230  159.9720  136.7260 C   0  0  0  0  0  0  0  0  0  0  0  0
  141.3920  157.1860  135.5100 C   0  0  0  0  0  0  0  0  0  0  0  0
  140.5410  157.7680  134.4010 C   0  0  0  0  0  0  0  0  0  0  0  0
  139.2000  157.3640  134.2890 C   0  0  0  0  0  0  0  0  0  0  0  0
  138.3750  157.9010  133.2960 C   0  0  0  0  0  0  0  0  0  0  0  0
  138.8770  158.8470  132.4030 C   0  0  0  0  0  0  0  0  0  0  0  0
  140.2080  159.2540  132.4950 C   0  0  0  0  0  0  0  0  0  0  0  0
  141.0500  158.7210  133.4830 C   0  0  0  0  0  0  0  0  0  0  0  0
  142.4430  159.1940  133.5460 C   0  0  0  0  0  0  0  0  0  0  0  0
  142.7220  160.5760  133.6630 C   0  0  0  0  0  0  0  0  0  0  0  0
  144.0490  161.0360  133.7380 C   0  0  0  0  0  0  0  0  0  0  0  0
  145.0680  160.0870  133.6800 C   0  0  0  0  0  0  0  0  0  0  0  0
  146.4340  160.2550  133.7370 C   0  0  0  0  0  0  0  0  0  0  0  0
  146.9610  158.9730  133.6260 C   0  0  0  0  0  0  0  0  0  0  0  0
  148.4070  158.6900  133.5650 C   0  0  0  0  0  0  0  0  0  0  0  0
  148.9180  157.7100  132.6580 N   0  0  0  0  0  0  0  0  0  0  0  0
  149.1970  159.3270  134.3080 O   0  0  0  0  0  0  0  0  0  0  0  0
  145.9710  158.0400  133.5270 N   0  0  0  0  0  0  0  0  0  0  0  0
  146.1230  156.6090  133.4830 C   0  0  0  0  0  0  0  0  0  0  0  0
  146.7270  155.9880  132.3530 N   0  0  0  0  0  0  0  0  0  0  0  0
  145.7380  155.8950  134.4450 O   0  0  0  0  0  0  0  0  0  0  0  0
  144.8120  158.7410  133.5620 C   0  0  0  0  0  0  0  0  0  0  0  0
  143.4990  158.2590  133.5130 C   0  0  0  0  0  0  0  0  0  0  0  0
  141.2141  156.5396  139.9618 H   0  0  0  0  0  0  0  0  0  0  0  0
  142.7726  156.7881  139.1039 H   0  0  0  0  0  0  0  0  0  0  0  0
  141.5305  158.0858  139.1039 H   0  0  0  0  0  0  0  0  0  0  0  0
  141.7852  155.6911  137.3723 H   0  0  0  0  0  0  0  0  0  0  0  0
  140.1385  155.9147  138.0578 H   0  0  0  0  0  0  0  0  0  0  0  0
  141.2550  158.8270  138.4338 H   0  0  0  0  0  0  0  0  0  0  0  0
  142.4268  158.8610  137.0574 H   0  0  0  0  0  0  0  0  0  0  0  0
  140.2215  160.6096  137.5274 H   0  0  0  0  0  0  0  0  0  0  0  0
  141.3156  160.5577  136.1037 H   0  0  0  0  0  0  0  0  0  0  0  0
  139.7955  159.6006  136.1037 H   0  0  0  0  0  0  0  0  0  0  0  0
  142.4073  157.6035  135.4402 H   0  0  0  0  0  0  0  0  0  0  0  0
  141.4144  156.0922  135.3952 H   0  0  0  0  0  0  0  0  0  0  0  0
  138.7954  156.6182  134.9891 H   0  0  0  0  0  0  0  0  0  0  0  0
  137.3269  157.5762  133.2190 H   0  0  0  0  0  0  0  0  0  0  0  0
  138.2239  159.2720  131.6266 H   0  0  0  0  0  0  0  0  0  0  0  0
  140.6008  159.9989  131.7873 H   0  0  0  0  0  0  0  0  0  0  0  0
  141.8928  161.2980  133.6956 H   0  0  0  0  0  0  0  0  0  0  0  0
  144.2748  162.1078  133.8390 H   0  0  0  0  0  0  0  0  0  0  0  0
  146.9880  161.1990  133.8466 H   0  0  0  0  0  0  0  0  0  0  0  0
  149.9320  157.4640  132.6720 H   0  0  0  0  0  0  0  0  0  0  0  0
  148.2960  157.2570  131.9510 H   0  0  0  0  0  0  0  0  0  0  0  0
  146.4720  156.2820  131.3850 H   0  0  0  0  0  0  0  0  0  0  0  0
  143.2957  157.1798  133.4504 H   0  0  0  0  0  0  0  0  0  0  0  0
  1  2  1  0
  2  3  1  0
  3  4  1  0
  4  5  1  0
  3  6  1  0
  6  7  1  0
  7  8  2  0
  8  9  1  0
  9 10  2  0
 10 11  1  0
 11 12  2  0
 12 13  1  0
 13 14  2  0
 14 15  1  0
 15 16  2  0
 16 17  1  0
 17 18  2  0
 18 19  1  0
 19 20  1  0
 19 21  2  0
 18 22  1  0
 22 23  1  0
 23 24  1  0
 23 25  2  0
 22 26  1  0
 26 27  2  0
 12  7  1  0
 27 13  1  0
 26 16  1  0
  1 28  1  0
  1 29  1  0
  1 30  1  0
  2 31  1  0
  2 32  1  0
  4 33  1  0
  4 34  1  0
  5 35  1  0
  5 36  1  0
  5 37  1  0
  6 38  1  0
  6 39  1  0
  8 40  1  0
  9 41  1  0
 10 42  1  0
 11 43  1  0
 14 44  1  0
 15 45  1  0
 17 46  1  0
 20 47  1  0
 20 48  1  0
 24 49  1  0
 27 50  1  0
M  CHG  1  24  -1
M  END
>  <UniqueID>  (81) 
81

>  <SMILES>  (81) 
CCN(CC)Cc1ccccc1-c1ccc2cc(C(N)=O)n(C([NH-])=O)c2c1

>  <Energy>  (81) 
95.65432415924147

>  <Genealogy>  (81) 
CCN(CC)Cc1ccccc1-c1ccc2cc(C(N)=O)n(C([NH-])=O)c2c1 (protonated)
CCN(CC)Cc1ccccc1-c1ccc2cc(C(N)=O)n(C([NH-])=O)c2c1 (3D coordinates assigned)
CCN(CC)Cc1ccccc1-c1ccc2cc(C(N)=O)n(C([NH-])=O)c2c1 (optimized conformer: 95.65432415924147 kcal/mol)

>  <smiles>  (81) 
CCN(CC)Cc1ccccc1-c1ccc2cc(C(N)=O)n(C(N)=O)c2c1

>  <score_type>  (81) 
oracle

>  <origin>  (81) 
adg

>  <m_score__min__energy>  (81) 
-9.0600000000000005

>  <m_primary>  (81) 
energy

$$$$
81:0
     RDKit          3D

 37 39  0  0  0  0  0  0  0  0999 V2000
  148.4750  157.9800  133.9530 N   0  0  0  0  0  0  0  0  0  0  0  0
  147.7610  159.1440  133.5350 C   0  0  0  0  0  0  0  0  0  0  0  0
  148.3950  160.1080  133.0290 O   0  0  0  0  0  0  0  0  0  0  0  0
  146.2890  159.2100  133.6230 C   0  0  0  0  0  0  0  0  0  0  0  0
  145.5760  160.4050  133.6340 C   0  0  0  0  0  0  0  0  0  0  0  0
  144.2510  160.0360  133.6580 C   0  0  0  0  0  0  0  0  0  0  0  0
  143.1070  160.8250  133.7010 C   0  0  0  0  0  0  0  0  0  0  0  0
  141.8620  160.1790  133.7660 C   0  0  0  0  0  0  0  0  0  0  0  0
  141.7770  158.7630  133.7850 C   0  0  0  0  0  0  0  0  0  0  0  0
  140.4130  158.1020  133.9130 C   0  0  2  0  0  0  0  0  0  0  0  0
  139.3130  158.9410  133.2220 C   0  0  0  0  0  0  0  0  0  0  0  0
  139.1330  158.6160  131.7260 C   0  0  0  0  0  0  0  0  0  0  0  0
  138.0230  159.4160  131.0600 C   0  0  0  0  0  0  0  0  0  0  0  0
  139.4750  159.7190  130.7350 C   0  0  0  0  0  0  0  0  0  0  0  0
  140.0790  157.7210  135.3380 C   0  0  0  0  0  0  0  0  0  0  0  0
  139.1100  158.2590  135.9380 O   0  0  0  0  0  0  0  0  0  0  0  0
  140.7600  156.6810  135.9610 O   0  0  0  0  0  0  0  0  0  0  0  0
  142.9690  157.9970  133.7540 C   0  0  0  0  0  0  0  0  0  0  0  0
  144.1950  158.6670  133.6690 C   0  0  0  0  0  0  0  0  0  0  0  0
  145.4430  158.1420  133.6530 N   0  0  0  0  0  0  0  0  0  0  0  0
  145.7960  156.7530  133.7770 C   0  0  0  0  0  0  0  0  0  0  0  0
  145.3790  156.0730  134.7510 O   0  0  0  0  0  0  0  0  0  0  0  0
  146.6070  156.1490  132.8250 O   0  0  0  0  0  0  0  0  0  0  0  0
  149.5190  157.9640  133.9190 H   0  0  0  0  0  0  0  0  0  0  0  0
  147.9720  157.1050  134.2210 H   0  0  0  0  0  0  0  0  0  0  0  0
  145.9846  161.4263  133.6254 H   0  0  0  0  0  0  0  0  0  0  0  0
  143.1752  161.9228  133.6846 H   0  0  0  0  0  0  0  0  0  0  0  0
  140.9406  160.7787  133.8027 H   0  0  0  0  0  0  0  0  0  0  0  0
  140.4597  157.1460  133.3709 H   0  0  0  0  0  0  0  0  0  0  0  0
  138.3586  158.7525  133.7355 H   0  0  0  0  0  0  0  0  0  0  0  0
  139.6240  159.9941  133.2868 H   0  0  0  0  0  0  0  0  0  0  0  0
  139.4143  157.5561  131.8119 H   0  0  0  0  0  0  0  0  0  0  0  0
  137.3786  158.9401  130.3061 H   0  0  0  0  0  0  0  0  0  0  0  0
  137.1672  160.0064  131.4192 H   0  0  0  0  0  0  0  0  0  0  0  0
  139.8821  159.4625  129.7458 H   0  0  0  0  0  0  0  0  0  0  0  0
  140.1060  160.6196  130.7615 H   0  0  0  0  0  0  0  0  0  0  0  0
  142.9315  156.8984  133.7959 H   0  0  0  0  0  0  0  0  0  0  0  0
  1  2  1  0
  2  3  2  0
  2  4  1  0
  4  5  2  0
  5  6  1  0
  6  7  2  0
  7  8  1  0
  8  9  2  0
  9 10  1  0
 10 11  1  0
 11 12  1  0
 12 13  1  0
 13 14  1  0
 10 15  1  0
 15 16  2  0
 15 17  1  0
  9 18  1  0
 18 19  2  0
 19 20  1  0
 20 21  1  0
 21 22  2  0
 21 23  1  0
 20  4  1  0
 19  6  1  0
 14 12  1  0
  1 24  1  0
  1 25  1  0
  5 26  1  0
  7 27  1  0
  8 28  1  0
 10 29  1  6
 11 30  1  0
 11 31  1  0
 12 32  1  0
 13 33  1  0
 13 34  1  0
 14 35  1  0
 14 36  1  0
 18 37  1  0
M  CHG  2  17  -1  23  -1
M  END
>  <UniqueID>  (82) 
82

>  <SMILES>  (82) 
NC(=O)c1cc2ccc([C@H](CC3CC3)C(=O)[O-])cc2n1C(=O)[O-]

>  <Energy>  (82) 
343.36519406237335

>  <Genealogy>  (82) 
NC(=O)c1cc2ccc(C(CC3CC3)C(=O)[O-])cc2n1C(=O)[O-] (protonated)
NC(=O)c1cc2ccc([C@H](CC3CC3)C(=O)[O-])cc2n1C(=O)[O-] (chirality)
NC(=O)c1cc2ccc([C@H](CC3CC3)C(=O)[O-])cc2n1C(=O)[O-] (3D coordinates assigned)
NC(=O)c1cc2ccc([C@H](CC3CC3)C(=O)[O-])cc2n1C(=O)[O-] (nonaromatic ring conformer: 343.36519406237335 kcal/mol)

>  <smiles>  (82) 
NC(=O)c1cc2ccc(C(CC3CC3)C(=O)O)cc2n1C(=O)O

>  <score_type>  (82) 
oracle

>  <origin>  (82) 
adg

>  <m_score__min__energy>  (82) 
-7.6799999999999997

>  <m_primary>  (82) 
energy

$$$$
82:0
     RDKit          3D

 32 34  0  0  0  0  0  0  0  0999 V2000
  142.9890  160.6350  133.3620 N   0  0  0  0  0  0  0  0  0  0  0  0
  144.3600  160.7660  133.7260 C   0  0  0  0  0  0  0  0  0  0  0  0
  144.7380  161.7970  134.3450 O   0  0  0  0  0  0  0  0  0  0  0  0
  145.3320  159.6900  133.4370 C   0  0  0  0  0  0  0  0  0  0  0  0
  146.6750  159.9260  133.1550 C   0  0  0  0  0  0  0  0  0  0  0  0
  147.2460  158.6820  133.0290 C   0  0  0  0  0  0  0  0  0  0  0  0
  148.5580  158.3260  132.7360 C   0  0  0  0  0  0  0  0  0  0  0  0
  148.8630  156.9580  132.6340 C   0  0  0  0  0  0  0  0  0  0  0  0
  147.8570  155.9720  132.8160 C   0  0  0  0  0  0  0  0  0  0  0  0
  148.1880  154.5310  132.6920 C   0  0  0  0  0  0  0  0  0  0  0  0
  147.1700  153.5570  132.7170 C   0  0  0  0  0  0  0  0  0  0  0  0
  147.4840  152.2010  132.6000 C   0  0  0  0  0  0  0  0  0  0  0  0
  148.8130  151.7980  132.4550 C   0  0  0  0  0  0  0  0  0  0  0  0
  149.1150  150.4810  132.3410 F   0  0  0  0  0  0  0  0  0  0  0  0
  149.8330  152.7530  132.4280 C   0  0  0  0  0  0  0  0  0  0  0  0
  149.5240  154.1120  132.5450 C   0  0  0  0  0  0  0  0  0  0  0  0
  146.5330  156.3790  133.1110 C   0  0  0  0  0  0  0  0  0  0  0  0
  146.2640  157.7470  133.2270 C   0  0  0  0  0  0  0  0  0  0  0  0
  145.0800  158.3510  133.4770 N   0  0  0  0  0  0  0  0  0  0  0  0
  143.8130  157.6970  133.6570 C   0  0  0  0  0  0  0  0  0  0  0  0
  142.7730  157.8680  132.6980 N   0  0  0  0  0  0  0  0  0  0  0  0
  143.6110  156.9780  134.6720 O   0  0  0  0  0  0  0  0  0  0  0  0
  142.7020  160.0460  132.5490 H   0  0  0  0  0  0  0  0  0  0  0  0
  147.1735  160.9014  133.0544 H   0  0  0  0  0  0  0  0  0  0  0  0
  149.3335  159.0920  132.5885 H   0  0  0  0  0  0  0  0  0  0  0  0
  149.8941  156.6468  132.4104 H   0  0  0  0  0  0  0  0  0  0  0  0
  146.1205  153.8668  132.8294 H   0  0  0  0  0  0  0  0  0  0  0  0
  146.6820  151.4485  132.6222 H   0  0  0  0  0  0  0  0  0  0  0  0
  150.8800  152.4355  132.3146 H   0  0  0  0  0  0  0  0  0  0  0  0
  150.3310  154.8592  132.5220 H   0  0  0  0  0  0  0  0  0  0  0  0
  145.7335  155.6357  133.2460 H   0  0  0  0  0  0  0  0  0  0  0  0
  142.6130  158.7930  132.2400 H   0  0  0  0  0  0  0  0  0  0  0  0
  1  2  1  0
  2  3  2  0
  2  4  1  0
  4  5  2  0
  5  6  1  0
  6  7  2  0
  7  8  1  0
  8  9  2  0
  9 10  1  0
 10 11  2  0
 11 12  1  0
 12 13  2  0
 13 14  1  0
 13 15  1  0
 15 16  2  0
  9 17  1  0
 17 18  2  0
 18 19  1  0
 19 20  1  0
 20 21  1  0
 20 22  2  0
 19  4  1  0
 18  6  1  0
 16 10  1  0
  1 23  1  0
  5 24  1  0
  7 25  1  0
  8 26  1  0
 11 27  1  0
 12 28  1  0
 15 29  1  0
 16 30  1  0
 17 31  1  0
 21 32  1  0
M  CHG  2   1  -1  21  -1
M  END
>  <UniqueID>  (83) 
83

>  <SMILES>  (83) 
[NH-]C(=O)c1cc2ccc(-c3ccc(F)cc3)cc2n1C([NH-])=O

>  <Energy>  (83) 
79.59130784611402

>  <Genealogy>  (83) 
[NH-]C(=O)c1cc2ccc(-c3ccc(F)cc3)cc2n1C([NH-])=O (protonated)
[NH-]C(=O)c1cc2ccc(-c3ccc(F)cc3)cc2n1C([NH-])=O (3D coordinates assigned)
[NH-]C(=O)c1cc2ccc(-c3ccc(F)cc3)cc2n1C([NH-])=O (optimized conformer: 79.59130784611402 kcal/mol)

>  <smiles>  (83) 
NC(=O)c1cc2ccc(-c3ccc(F)cc3)cc2n1C(N)=O

>  <score_type>  (83) 
oracle

>  <origin>  (83) 
adg

>  <m_score__min__energy>  (83) 
-7.2599999999999998

>  <m_primary>  (83) 
energy

$$$$
83:0
     RDKit          3D

 36 39  0  0  0  0  0  0  0  0999 V2000
  143.2500  150.6730  139.3560 N   0  0  0  0  0  0  0  0  0  0  0  0
  142.0000  151.3470  139.4770 C   0  0  0  0  0  0  0  0  0  0  0  0
  141.0170  150.7350  139.9760 O   0  0  0  0  0  0  0  0  0  0  0  0
  141.8260  152.7260  138.9770 C   0  0  0  0  0  0  0  0  0  0  0  0
  141.7500  153.8390  139.8130 C   0  0  0  0  0  0  0  0  0  0  0  0
  141.5000  154.9040  138.9790 C   0  0  0  0  0  0  0  0  0  0  0  0
  141.3500  156.2540  139.2750 C   0  0  0  0  0  0  0  0  0  0  0  0
  141.1350  157.1430  138.2100 C   0  0  0  0  0  0  0  0  0  0  0  0
  141.0730  156.6750  136.8700 C   0  0  0  0  0  0  0  0  0  0  0  0
  140.8640  157.6440  135.7640 C   0  0  0  0  0  0  0  0  0  0  0  0
  141.6540  158.8010  135.6340 C   0  0  0  0  0  0  0  0  0  0  0  0
  141.4200  159.6820  134.5760 C   0  0  0  0  0  0  0  0  0  0  0  0
  140.4140  159.4040  133.6520 C   0  0  0  0  0  0  0  0  0  0  0  0
  139.6540  158.2400  133.7960 C   0  0  0  0  0  0  0  0  0  0  0  0
  139.8930  157.3990  134.8380 N   0  0  0  0  0  0  0  0  0  0  0  0
  138.6110  157.9450  132.8590 N   0  0  0  0  0  0  0  0  0  0  0  0
  138.4560  158.6620  131.5890 C   0  0  0  0  0  0  0  0  0  0  0  0
  139.1490  159.9980  131.5980 C   0  0  0  0  0  0  0  0  0  0  0  0
  138.8870  160.8410  130.7000 O   0  0  0  0  0  0  0  0  0  0  0  0
  140.1440  160.3010  132.5770 N   0  0  0  0  0  0  0  0  0  0  0  0
  141.2430  155.2930  136.6120 C   0  0  0  0  0  0  0  0  0  0  0  0
  141.4360  154.4280  137.6960 C   0  0  0  0  0  0  0  0  0  0  0  0
  141.6390  153.0910  137.6760 N   0  0  0  0  0  0  0  0  0  0  0  0
  141.7230  152.2610  136.5060 C   0  0  0  0  0  0  0  0  0  0  0  0
  142.4750  152.5860  135.5500 O   0  0  0  0  0  0  0  0  0  0  0  0
  140.9560  151.1080  136.4070 O   0  0  0  0  0  0  0  0  0  0  0  0
  143.3140  149.6370  139.4600 H   0  0  0  0  0  0  0  0  0  0  0  0
  141.8654  153.8609  140.9067 H   0  0  0  0  0  0  0  0  0  0  0  0
  141.3984  156.6149  140.3130 H   0  0  0  0  0  0  0  0  0  0  0  0
  141.0128  158.2167  138.4158 H   0  0  0  0  0  0  0  0  0  0  0  0
  142.4517  159.0105  136.3618 H   0  0  0  0  0  0  0  0  0  0  0  0
  142.0279  160.5929  134.4721 H   0  0  0  0  0  0  0  0  0  0  0  0
  138.0350  157.0870  133.0070 H   0  0  0  0  0  0  0  0  0  0  0  0
  138.8823  158.0480  130.7820 H   0  0  0  0  0  0  0  0  0  0  0  0
  137.3820  158.8415  131.4333 H   0  0  0  0  0  0  0  0  0  0  0  0
  141.2238  154.9073  135.5820 H   0  0  0  0  0  0  0  0  0  0  0  0
  1  2  1  0
  2  3  2  0
  2  4  1  0
  4  5  2  0
  5  6  1  0
  6  7  2  0
  7  8  1  0
  8  9  2  0
  9 10  1  0
 10 11  2  0
 11 12  1  0
 12 13  2  0
 13 14  1  0
 14 15  2  0
 14 16  1  0
 16 17  1  0
 17 18  1  0
 18 19  2  0
 18 20  1  0
  9 21  1  0
 21 22  2  0
 22 23  1  0
 23 24  1  0
 24 25  2  0
 24 26  1  0
 23  4  1  0
 22  6  1  0
 15 10  1  0
 20 13  1  0
  1 27  1  0
  5 28  1  0
  7 29  1  0
  8 30  1  0
 11 31  1  0
 12 32  1  0
 16 33  1  0
 17 34  1  0
 17 35  1  0
 21 36  1  0
M  CHG  3   1  -1  20  -1  26  -1
M  END
>  <UniqueID>  (84) 
84

>  <SMILES>  (84) 
[NH-]C(=O)c1cc2ccc(-c3ccc4c(n3)NCC(=O)[N-]4)cc2n1C(=O)[O-]

>  <Energy>  (84) 
85.03374009070815

>  <Genealogy>  (84) 
[NH-]C(=O)c1cc2ccc(-c3ccc4c(n3)NCC(=O)[N-]4)cc2n1C(=O)[O-] (protonated)
[NH-]C(=O)c1cc2ccc(-c3ccc4c(n3)NCC(=O)[N-]4)cc2n1C(=O)[O-] (3D coordinates assigned)
[NH-]C(=O)c1cc2ccc(-c3ccc4c(n3)NCC(=O)[N-]4)cc2n1C(=O)[O-] (nonaromatic ring conformer: 85.03374009070815 kcal/mol)

>  <smiles>  (84) 
NC(=O)c1cc2ccc(-c3ccc4c(n3)NCC(=O)N4)cc2n1C(=O)O

>  <score_type>  (84) 
oracle

>  <origin>  (84) 
adg

>  <m_score__min__energy>  (84) 
-8.5099999999999998

>  <m_primary>  (84) 
energy

$$$$
84:0
     RDKit          3D

 62 64  0  0  0  0  0  0  0  0999 V2000
  147.7480  153.9220  134.9310 C   0  0  0  0  0  0  0  0  0  0  0  0
  147.3340  154.1310  133.4600 C   0  0  0  0  0  0  0  0  0  0  0  0
  146.4150  152.9890  132.9860 C   0  0  0  0  0  0  0  0  0  0  0  0
  148.6000  154.1490  132.5890 C   0  0  0  0  0  0  0  0  0  0  0  0
  146.6830  155.3990  133.2870 O   0  0  0  0  0  0  0  0  0  0  0  0
  146.0850  156.1720  134.2900 C   0  0  0  0  0  0  0  0  0  0  0  0
  145.7780  155.6620  135.4030 O   0  0  0  0  0  0  0  0  0  0  0  0
  145.7500  157.5450  134.0250 N   0  0  0  0  0  0  0  0  0  0  0  0
  146.5870  158.5620  133.6600 C   0  0  0  0  0  0  0  0  0  0  0  0
  148.0670  158.4760  133.5640 C   0  0  0  0  0  0  0  0  0  0  0  0
  148.7060  157.3680  132.9180 N   0  0  0  0  0  0  0  0  0  0  0  0
  148.7890  159.3880  134.0500 O   0  0  0  0  0  0  0  0  0  0  0  0
  145.8540  159.7360  133.4620 C   0  0  0  0  0  0  0  0  0  0  0  0
  144.5460  159.4030  133.7270 C   0  0  0  0  0  0  0  0  0  0  0  0
  143.3980  160.1830  133.6820 C   0  0  0  0  0  0  0  0  0  0  0  0
  142.1740  159.5810  134.0220 C   0  0  0  0  0  0  0  0  0  0  0  0
  142.1080  158.2080  134.4100 C   0  0  0  0  0  0  0  0  0  0  0  0
  140.7890  157.5250  134.8170 C   0  0  0  0  0  0  0  0  0  0  0  0
  140.9690  156.4590  135.9240 C   0  0  0  0  0  0  0  0  0  0  0  0
  139.8200  158.6110  135.3420 C   0  0  0  0  0  0  0  0  0  0  0  0
  140.2160  156.8120  133.6010 C   0  0  0  0  0  0  0  0  0  0  0  0
  139.1400  157.1990  133.0640 O   0  0  0  0  0  0  0  0  0  0  0  0
  140.9240  155.6970  133.0530 N   0  0  0  0  0  0  0  0  0  0  0  0
  140.5610  154.3100  133.3080 C   0  0  0  0  0  0  0  0  0  0  0  0
  141.7960  153.3910  133.2260 C   0  0  2  0  0  0  0  0  0  0  0  0
  141.5290  152.3760  132.3210 F   0  0  0  0  0  0  0  0  0  0  0  0
  142.1650  152.7990  134.5810 C   0  0  0  0  0  0  0  0  0  0  0  0
  143.3220  153.6480  135.0960 C   0  0  0  0  0  0  0  0  0  0  0  0
  143.7470  154.5580  134.0290 N   0  0  0  0  0  0  0  0  0  0  0  0
  143.0580  154.1430  132.8070 C   0  0  0  0  0  0  0  0  0  0  0  0
  143.3060  157.4450  134.3860 C   0  0  0  0  0  0  0  0  0  0  0  0
  144.5120  158.0790  134.0670 C   0  0  0  0  0  0  0  0  0  0  0  0
  146.9635  154.3181  135.5925 H   0  0  0  0  0  0  0  0  0  0  0  0
  147.8831  152.8477  135.1248 H   0  0  0  0  0  0  0  0  0  0  0  0
  148.6927  154.4512  135.1248 H   0  0  0  0  0  0  0  0  0  0  0  0
  145.9962  152.4686  133.8600 H   0  0  0  0  0  0  0  0  0  0  0  0
  145.5966  153.4046  132.3798 H   0  0  0  0  0  0  0  0  0  0  0  0
  146.9960  152.2784  132.3798 H   0  0  0  0  0  0  0  0  0  0  0  0
  149.4898  154.1617  133.2356 H   0  0  0  0  0  0  0  0  0  0  0  0
  148.6210  153.2511  131.9540 H   0  0  0  0  0  0  0  0  0  0  0  0
  148.5954  155.0472  131.9540 H   0  0  0  0  0  0  0  0  0  0  0  0
  149.7470  157.2670  132.9710 H   0  0  0  0  0  0  0  0  0  0  0  0
  148.1740  156.6480  132.3800 H   0  0  0  0  0  0  0  0  0  0  0  0
  146.2419  160.7195  133.1581 H   0  0  0  0  0  0  0  0  0  0  0  0
  143.4451  161.2421  133.3886 H   0  0  0  0  0  0  0  0  0  0  0  0
  141.2507  160.1779  133.9886 H   0  0  0  0  0  0  0  0  0  0  0  0
  140.8881  156.9380  136.9109 H   0  0  0  0  0  0  0  0  0  0  0  0
  140.1878  155.6910  135.8240 H   0  0  0  0  0  0  0  0  0  0  0  0
  141.9590  155.9901  135.8240 H   0  0  0  0  0  0  0  0  0  0  0  0
  139.8247  158.6058  136.4420 H   0  0  0  0  0  0  0  0  0  0  0  0
  140.1434  159.5976  134.9786 H   0  0  0  0  0  0  0  0  0  0  0  0
  138.8031  158.4017  134.9786 H   0  0  0  0  0  0  0  0  0  0  0  0
  140.1211  154.2324  134.3132 H   0  0  0  0  0  0  0  0  0  0  0  0
  139.8363  153.9916  132.5442 H   0  0  0  0  0  0  0  0  0  0  0  0
  141.3100  152.8556  135.2708 H   0  0  0  0  0  0  0  0  0  0  0  0
  142.4424  151.7376  134.5003 H   0  0  0  0  0  0  0  0  0  0  0  0
  142.9941  154.2297  135.9701 H   0  0  0  0  0  0  0  0  0  0  0  0
  144.1600  153.0000  135.3924 H   0  0  0  0  0  0  0  0  0  0  0  0
  144.7820  154.4620  133.8850 H   0  0  0  0  0  0  0  0  0  0  0  0
  142.7882  155.0261  132.2093 H   0  0  0  0  0  0  0  0  0  0  0  0
  143.7074  153.5002  132.1946 H   0  0  0  0  0  0  0  0  0  0  0  0
  143.2859  156.3694  134.6153 H   0  0  0  0  0  0  0  0  0  0  0  0
  1  2  1  0
  2  3  1  0
  2  4  1  0
  2  5  1  0
  5  6  1  0
  6  7  2  0
  6  8  1  0
  8  9  1  0
  9 10  1  0
 10 11  1  0
 10 12  2  0
  9 13  2  0
 13 14  1  0
 14 15  2  0
 15 16  1  0
 16 17  2  0
 17 18  1  0
 18 19  1  0
 18 20  1  0
 18 21  1  0
 21 22  2  0
 21 23  1  0
 23 24  1  0
 24 25  1  0
 25 26  1  6
 25 27  1  0
 27 28  1  0
 28 29  1  0
 29 30  1  0
 17 31  1  0
 31 32  2  0
 32  8  1  0
 32 14  1  0
 30 25  1  0
  1 33  1  0
  1 34  1  0
  1 35  1  0
  3 36  1  0
  3 37  1  0
  3 38  1  0
  4 39  1  0
  4 40  1  0
  4 41  1  0
 11 42  1  0
 11 43  1  0
 13 44  1  0
 15 45  1  0
 16 46  1  0
 19 47  1  0
 19 48  1  0
 19 49  1  0
 20 50  1  0
 20 51  1  0
 20 52  1  0
 24 53  1  0
 24 54  1  0
 27 55  1  0
 27 56  1  0
 28 57  1  0
 28 58  1  0
 29 59  1  0
 30 60  1  0
 30 61  1  0
 31 62  1  0
M  CHG  1  23  -1
M  END
>  <UniqueID>  (85) 
85

>  <SMILES>  (85) 
CC(C)(C)OC(=O)n1c(C(N)=O)cc2ccc(C(C)(C)C(=O)[N-]C[C@]3(F)CCNC3)cc21

>  <Energy>  (85) 
97.55342351492753

>  <Genealogy>  (85) 
CC(C)(C)OC(=O)n1c(C(N)=O)cc2ccc(C(C)(C)C(=O)[N-]C[C@]3(F)CCNC3)cc21 (protonated)
CC(C)(C)OC(=O)n1c(C(N)=O)cc2ccc(C(C)(C)C(=O)[N-]C[C@]3(F)CCNC3)cc21 (3D coordinates assigned)
CC(C)(C)OC(=O)n1c(C(N)=O)cc2ccc(C(C)(C)C(=O)[N-]C[C@]3(F)CCNC3)cc21 (nonaromatic ring conformer: 97.55342351492753 kcal/mol)

>  <smiles>  (85) 
CC(C)(C)OC(=O)n1c(C(N)=O)cc2ccc(C(C)(C)C(=O)NC[C@]3(F)CCNC3)cc21

>  <score_type>  (85) 
oracle

>  <origin>  (85) 
adg

>  <m_score__min__energy>  (85) 
-9.7400000000000002

>  <m_primary>  (85) 
energy

$$$$
85:0
     RDKit          3D

 28 29  0  0  0  0  0  0  0  0999 V2000
  146.9540  156.0020  132.2870 C   0  0  0  0  0  0  0  0  0  0  0  0
  147.0630  156.9670  133.4240 C   0  0  0  0  0  0  0  0  0  0  0  0
  147.7840  156.6680  134.4140 O   0  0  0  0  0  0  0  0  0  0  0  0
  146.3790  158.2300  133.3950 N   0  0  0  0  0  0  0  0  0  0  0  0
  146.9280  159.4560  133.1680 C   0  0  0  0  0  0  0  0  0  0  0  0
  148.3240  159.7150  132.7600 C   0  0  0  0  0  0  0  0  0  0  0  0
  149.4140  158.9950  133.3400 N   0  0  0  0  0  0  0  0  0  0  0  0
  148.5560  160.5540  131.8500 O   0  0  0  0  0  0  0  0  0  0  0  0
  145.9830  160.4610  133.3530 C   0  0  0  0  0  0  0  0  0  0  0  0
  144.8210  159.8080  133.7000 C   0  0  0  0  0  0  0  0  0  0  0  0
  143.5670  160.3220  134.0180 C   0  0  0  0  0  0  0  0  0  0  0  0
  142.5590  159.4180  134.3870 C   0  0  0  0  0  0  0  0  0  0  0  0
  142.8270  158.0280  134.4570 C   0  0  0  0  0  0  0  0  0  0  0  0
  141.7370  157.0700  134.8330 C   0  0  0  0  0  0  0  0  0  0  0  0
  144.1080  157.5410  134.1160 C   0  0  0  0  0  0  0  0  0  0  0  0
  145.0880  158.4630  133.7250 C   0  0  0  0  0  0  0  0  0  0  0  0
  146.8387  154.9818  132.6818 H   0  0  0  0  0  0  0  0  0  0  0  0
  146.0791  156.2580  131.6714 H   0  0  0  0  0  0  0  0  0  0  0  0
  147.8640  156.0564  131.6714 H   0  0  0  0  0  0  0  0  0  0  0  0
  149.2490  158.1670  133.9520 H   0  0  0  0  0  0  0  0  0  0  0  0
  150.3950  159.2320  133.0750 H   0  0  0  0  0  0  0  0  0  0  0  0
  146.1323  161.5455  133.2451 H   0  0  0  0  0  0  0  0  0  0  0  0
  143.3721  161.4040  133.9812 H   0  0  0  0  0  0  0  0  0  0  0  0
  141.5519  159.7916  134.6240 H   0  0  0  0  0  0  0  0  0  0  0  0
  141.6658  157.0074  135.9289 H   0  0  0  0  0  0  0  0  0  0  0  0
  140.7798  157.4244  134.4230 H   0  0  0  0  0  0  0  0  0  0  0  0
  141.9656  156.0752  134.4230 H   0  0  0  0  0  0  0  0  0  0  0  0
  144.3309  156.4646  134.1563 H   0  0  0  0  0  0  0  0  0  0  0  0
  1  2  1  0
  2  3  2  0
  2  4  1  0
  4  5  1  0
  5  6  1  0
  6  7  1  0
  6  8  2  0
  5  9  2  0
  9 10  1  0
 10 11  2  0
 11 12  1  0
 12 13  2  0
 13 14  1  0
 13 15  1  0
 15 16  2  0
 16  4  1  0
 16 10  1  0
  1 17  1  0
  1 18  1  0
  1 19  1  0
  7 20  1  0
  7 21  1  0
  9 22  1  0
 11 23  1  0
 12 24  1  0
 14 25  1  0
 14 26  1  0
 14 27  1  0
 15 28  1  0
M  END
>  <UniqueID>  (86) 
86

>  <SMILES>  (86) 
CC(=O)n1c(C(N)=O)cc2ccc(C)cc21

>  <Energy>  (86) 
66.83023226971231

>  <Genealogy>  (86) 
CC(=O)n1c(C(N)=O)cc2ccc(C)cc21 (3D coordinates assigned)
CC(=O)n1c(C(N)=O)cc2ccc(C)cc21 (optimized conformer: 66.83023226971231 kcal/mol)

>  <smiles>  (86) 
CC(=O)n1c(C(N)=O)cc2ccc(C)cc21

>  <score_type>  (86) 
oracle

>  <origin>  (86) 
adg

>  <m_score__min__energy>  (86) 
-5.9500000000000002

>  <m_primary>  (86) 
energy

$$$$
86:0
     RDKit          3D

 47 48  0  0  0  0  0  0  0  0999 V2000
  149.5770  160.5080  129.3190 C   0  0  0  0  0  0  0  0  0  0  0  0
  150.1420  159.9220  130.6140 C   0  0  0  0  0  0  0  0  0  0  0  0
  149.0930  159.8310  131.7380 C   0  0  0  0  0  0  0  0  0  0  0  0
  149.2390  158.5970  132.6430 C   0  0  0  0  0  0  0  0  0  0  0  0
  147.9050  158.0380  133.0640 C   0  0  0  0  0  0  0  0  0  0  0  0
  146.7220  158.7920  132.8600 C   0  0  0  0  0  0  0  0  0  0  0  0
  145.4770  158.2970  133.2840 C   0  0  0  0  0  0  0  0  0  0  0  0
  145.4460  157.0510  133.9060 C   0  0  0  0  0  0  0  0  0  0  0  0
  144.3880  156.3630  134.4570 C   0  0  0  0  0  0  0  0  0  0  0  0
  144.9410  155.1950  134.9750 C   0  0  0  0  0  0  0  0  0  0  0  0
  144.1410  154.1330  135.6170 C   0  0  0  0  0  0  0  0  0  0  0  0
  144.3800  153.7430  136.9710 N   0  0  0  0  0  0  0  0  0  0  0  0
  143.2670  153.5240  134.9450 O   0  0  0  0  0  0  0  0  0  0  0  0
  146.2870  155.1650  134.7660 N   0  0  0  0  0  0  0  0  0  0  0  0
  147.2320  154.2090  135.2740 C   0  0  0  0  0  0  0  0  0  0  0  0
  147.0130  153.6410  136.3770 O   0  0  0  0  0  0  0  0  0  0  0  0
  148.3960  153.9340  134.5410 O   0  0  0  0  0  0  0  0  0  0  0  0
  148.4770  153.1860  133.3210 C   0  0  0  0  0  0  0  0  0  0  0  0
  149.2600  153.9710  132.2510 C   0  0  0  0  0  0  0  0  0  0  0  0
  147.0670  152.8290  132.8130 C   0  0  0  0  0  0  0  0  0  0  0  0
  149.2320  151.8860  133.6370 C   0  0  0  0  0  0  0  0  0  0  0  0
  146.5800  156.3060  134.1050 C   0  0  0  0  0  0  0  0  0  0  0  0
  147.8350  156.7820  133.7030 C   0  0  0  0  0  0  0  0  0  0  0  0
  148.8321  161.2806  129.5605 H   0  0  0  0  0  0  0  0  0  0  0  0
  150.3928  160.9558  128.7326 H   0  0  0  0  0  0  0  0  0  0  0  0
  149.0997  159.7090  128.7326 H   0  0  0  0  0  0  0  0  0  0  0  0
  150.5217  158.9109  130.4055 H   0  0  0  0  0  0  0  0  0  0  0  0
  150.9399  160.5953  130.9606 H   0  0  0  0  0  0  0  0  0  0  0  0
  149.1816  160.7303  132.3652 H   0  0  0  0  0  0  0  0  0  0  0  0
  148.1124  159.7464  131.2468 H   0  0  0  0  0  0  0  0  0  0  0  0
  149.7918  157.8196  132.0952 H   0  0  0  0  0  0  0  0  0  0  0  0
  149.7768  158.9065  133.5513 H   0  0  0  0  0  0  0  0  0  0  0  0
  146.7791  159.7730  132.3656 H   0  0  0  0  0  0  0  0  0  0  0  0
  144.5546  158.8761  133.1293 H   0  0  0  0  0  0  0  0  0  0  0  0
  143.3321  156.6704  134.4824 H   0  0  0  0  0  0  0  0  0  0  0  0
  143.7780  153.0190  137.4210 H   0  0  0  0  0  0  0  0  0  0  0  0
  145.2040  154.1060  137.4990 H   0  0  0  0  0  0  0  0  0  0  0  0
  149.9549  154.6677  132.7426 H   0  0  0  0  0  0  0  0  0  0  0  0
  149.8279  153.2686  131.6233 H   0  0  0  0  0  0  0  0  0  0  0  0
  148.5561  154.5371  131.6233 H   0  0  0  0  0  0  0  0  0  0  0  0
  146.3999  152.6601  133.6712 H   0  0  0  0  0  0  0  0  0  0  0  0
  146.6767  153.6567  132.2026 H   0  0  0  0  0  0  0  0  0  0  0  0
  147.1176  151.9153  132.2026 H   0  0  0  0  0  0  0  0  0  0  0  0
  149.3051  151.7602  134.7273 H   0  0  0  0  0  0  0  0  0  0  0  0
  148.6891  151.0324  133.2050 H   0  0  0  0  0  0  0  0  0  0  0  0
  150.2424  151.9345  133.2050 H   0  0  0  0  0  0  0  0  0  0  0  0
  148.7448  156.1901  133.8815 H   0  0  0  0  0  0  0  0  0  0  0  0
  1  2  1  0
  2  3  1  0
  3  4  1  0
  4  5  1  0
  5  6  2  0
  6  7  1  0
  7  8  2  0
  8  9  1  0
  9 10  2  0
 10 11  1  0
 11 12  1  0
 11 13  2  0
 10 14  1  0
 14 15  1  0
 15 16  2  0
 15 17  1  0
 17 18  1  0
 18 19  1  0
 18 20  1  0
 18 21  1  0
 14 22  1  0
 22 23  2  0
 23  5  1  0
 22  8  1  0
  1 24  1  0
  1 25  1  0
  1 26  1  0
  2 27  1  0
  2 28  1  0
  3 29  1  0
  3 30  1  0
  4 31  1  0
  4 32  1  0
  6 33  1  0
  7 34  1  0
  9 35  1  0
 12 36  1  0
 12 37  1  0
 19 38  1  0
 19 39  1  0
 19 40  1  0
 20 41  1  0
 20 42  1  0
 20 43  1  0
 21 44  1  0
 21 45  1  0
 21 46  1  0
 23 47  1  0
M  END
>  <UniqueID>  (87) 
87

>  <SMILES>  (87) 
CCCCc1ccc2cc(C(N)=O)n(C(=O)OC(C)(C)C)c2c1

>  <Energy>  (87) 
73.79837167438627

>  <Genealogy>  (87) 
CCCCc1ccc2cc(C(N)=O)n(C(=O)OC(C)(C)C)c2c1 (3D coordinates assigned)
CCCCc1ccc2cc(C(N)=O)n(C(=O)OC(C)(C)C)c2c1 (optimized conformer: 73.79837167438627 kcal/mol)

>  <smiles>  (87) 
CCCCc1ccc2cc(C(N)=O)n(C(=O)OC(C)(C)C)c2c1

>  <score_type>  (87) 
oracle

>  <origin>  (87) 
adg

>  <m_score__min__energy>  (87) 
-8.1199999999999992

>  <m_primary>  (87) 
energy

$$$$
87:0
     RDKit          3D

 35 37  0  0  0  0  0  0  0  0999 V2000
  138.8460  158.0380  135.9950 N   0  0  0  0  0  0  0  0  0  0  0  0
  139.2060  157.7050  134.6570 C   0  0  0  0  0  0  0  0  0  0  0  0
  138.2980  157.4620  133.8170 O   0  0  0  0  0  0  0  0  0  0  0  0
  140.6230  157.5880  134.2550 C   0  0  0  0  0  0  0  0  0  0  0  0
  141.1760  156.4240  133.7250 C   0  0  0  0  0  0  0  0  0  0  0  0
  142.5150  156.6960  133.5650 C   0  0  0  0  0  0  0  0  0  0  0  0
  143.5370  155.8950  133.0650 C   0  0  0  0  0  0  0  0  0  0  0  0
  144.8270  156.4460  132.9870 C   0  0  0  0  0  0  0  0  0  0  0  0
  145.0710  157.7830  133.3940 C   0  0  0  0  0  0  0  0  0  0  0  0
  146.3940  158.3450  133.3010 N   0  0  0  0  0  0  0  0  0  0  0  0
  147.5670  157.5030  133.5510 C   0  0  0  0  0  0  0  0  0  0  0  0
  148.7660  158.0440  132.7640 C   0  0  0  0  0  0  0  0  0  0  0  0
  148.9640  159.4190  133.0330 O   0  0  0  0  0  0  0  0  0  0  0  0
  147.8580  160.1640  132.5570 C   0  0  0  0  0  0  0  0  0  0  0  0
  146.5840  159.7990  133.3260 C   0  0  0  0  0  0  0  0  0  0  0  0
  144.0060  158.5630  133.8980 C   0  0  0  0  0  0  0  0  0  0  0  0
  142.7360  157.9820  133.9850 C   0  0  0  0  0  0  0  0  0  0  0  0
  141.5830  158.5450  134.4120 N   0  0  0  0  0  0  0  0  0  0  0  0
  141.4090  159.9020  134.8490 C   0  0  0  0  0  0  0  0  0  0  0  0
  140.8500  160.1790  136.1300 N   0  0  0  0  0  0  0  0  0  0  0  0
  141.7610  160.8570  134.1060 O   0  0  0  0  0  0  0  0  0  0  0  0
  139.0450  158.9870  136.3830 H   0  0  0  0  0  0  0  0  0  0  0  0
  140.6529  155.4865  133.4854 H   0  0  0  0  0  0  0  0  0  0  0  0
  143.3410  154.8623  132.7408 H   0  0  0  0  0  0  0  0  0  0  0  0
  145.6575  155.8336  132.6059 H   0  0  0  0  0  0  0  0  0  0  0  0
  147.8009  157.5110  134.6258 H   0  0  0  0  0  0  0  0  0  0  0  0
  147.3529  156.4735  133.2282 H   0  0  0  0  0  0  0  0  0  0  0  0
  149.6688  157.4862  133.0534 H   0  0  0  0  0  0  0  0  0  0  0  0
  148.5676  157.9198  131.6892 H   0  0  0  0  0  0  0  0  0  0  0  0
  148.0630  161.2368  132.6874 H   0  0  0  0  0  0  0  0  0  0  0  0
  147.7068  159.9294  131.4930 H   0  0  0  0  0  0  0  0  0  0  0  0
  146.6756  160.1384  134.3683 H   0  0  0  0  0  0  0  0  0  0  0  0
  145.7194  160.2886  132.8540 H   0  0  0  0  0  0  0  0  0  0  0  0
  144.1715  159.6033  134.2148 H   0  0  0  0  0  0  0  0  0  0  0  0
  139.8550  159.9460  136.3430 H   0  0  0  0  0  0  0  0  0  0  0  0
  1  2  1  0
  2  3  2  0
  2  4  1  0
  4  5  2  0
  5  6  1  0
  6  7  2  0
  7  8  1  0
  8  9  2  0
  9 10  1  0
 10 11  1  0
 11 12  1  0
 12 13  1  0
 13 14  1  0
 14 15  1  0
  9 16  1  0
 16 17  2  0
 17 18  1  0
 18 19  1  0
 19 20  1  0
 19 21  2  0
 18  4  1  0
 17  6  1  0
 15 10  1  0
  1 22  1  0
  5 23  1  0
  7 24  1  0
  8 25  1  0
 11 26  1  0
 11 27  1  0
 12 28  1  0
 12 29  1  0
 14 30  1  0
 14 31  1  0
 15 32  1  0
 15 33  1  0
 16 34  1  0
 20 35  1  0
M  CHG  2   1  -1  20  -1
M  END
>  <UniqueID>  (88) 
88

>  <SMILES>  (88) 
[NH-]C(=O)c1cc2ccc(N3CCOCC3)cc2n1C([NH-])=O

>  <Energy>  (88) 
81.17255399465361

>  <Genealogy>  (88) 
[NH-]C(=O)c1cc2ccc(N3CCOCC3)cc2n1C([NH-])=O (protonated)
[NH-]C(=O)c1cc2ccc(N3CCOCC3)cc2n1C([NH-])=O (3D coordinates assigned)
[NH-]C(=O)c1cc2ccc(N3CCOCC3)cc2n1C([NH-])=O (nonaromatic ring conformer: 81.17255399465361 kcal/mol)

>  <smiles>  (88) 
NC(=O)c1cc2ccc(N3CCOCC3)cc2n1C(N)=O

>  <score_type>  (88) 
oracle

>  <origin>  (88) 
adg

>  <m_score__min__energy>  (88) 
-6.5700000000000003

>  <m_primary>  (88) 
energy

$$$$
88:0
     RDKit          3D

 65 68  0  0  0  0  0  0  0  0999 V2000
  146.5320  153.5520  133.0250 C   0  0  0  0  0  0  0  0  0  0  0  0
  147.3670  154.8160  133.2800 C   0  0  0  0  0  0  0  0  0  0  0  0
  147.4970  155.0360  134.8000 C   0  0  0  0  0  0  0  0  0  0  0  0
  148.7560  154.6350  132.6340 C   0  0  0  0  0  0  0  0  0  0  0  0
  146.6640  155.9120  132.6790 O   0  0  0  0  0  0  0  0  0  0  0  0
  145.5400  156.5680  133.2100 C   0  0  0  0  0  0  0  0  0  0  0  0
  144.5410  155.9120  133.6110 O   0  0  0  0  0  0  0  0  0  0  0  0
  145.5060  158.0050  133.2330 N   0  0  0  0  0  0  0  0  0  0  0  0
  146.5640  158.8620  133.3130 C   0  0  0  0  0  0  0  0  0  0  0  0
  147.9870  158.5050  133.1350 C   0  0  0  0  0  0  0  0  0  0  0  0
  148.4630  157.9890  131.8920 N   0  0  0  0  0  0  0  0  0  0  0  0
  148.8030  158.7170  134.0720 O   0  0  0  0  0  0  0  0  0  0  0  0
  146.1220  160.1680  133.5160 C   0  0  0  0  0  0  0  0  0  0  0  0
  144.7510  160.0880  133.5470 C   0  0  0  0  0  0  0  0  0  0  0  0
  143.8030  161.0880  133.7420 C   0  0  0  0  0  0  0  0  0  0  0  0
  142.4490  160.7160  133.7670 C   0  0  0  0  0  0  0  0  0  0  0  0
  142.0650  159.3600  133.6150 C   0  0  0  0  0  0  0  0  0  0  0  0
  140.5960  158.9990  133.6270 C   0  0  0  0  0  0  0  0  0  0  0  0
  140.2600  157.9140  134.6200 C   0  0  0  0  0  0  0  0  0  0  0  0
  139.5260  158.2130  135.6000 O   0  0  0  0  0  0  0  0  0  0  0  0
  140.7530  156.5170  134.4740 C   0  0  0  0  0  0  0  0  0  0  0  0
  141.6840  156.0030  135.3990 C   0  0  0  0  0  0  0  0  0  0  0  0
  142.1300  154.6800  135.3050 C   0  0  0  0  0  0  0  0  0  0  0  0
  141.6540  153.8450  134.2860 C   0  0  0  0  0  0  0  0  0  0  0  0
  142.0280  152.3850  134.2640 C   0  0  0  0  0  0  0  0  0  0  0  0
  142.3300  151.9010  132.8360 C   0  0  0  0  0  0  0  0  0  0  0  0
  141.3500  150.8450  132.3800 C   0  0  0  0  0  0  0  0  0  0  0  0
  139.9900  151.1620  132.2280 C   0  0  0  0  0  0  0  0  0  0  0  0
  139.0700  150.1660  131.8790 C   0  0  0  0  0  0  0  0  0  0  0  0
  139.4990  148.8500  131.6920 C   0  0  0  0  0  0  0  0  0  0  0  0
  140.8480  148.5250  131.8500 C   0  0  0  0  0  0  0  0  0  0  0  0
  141.7730  149.5160  132.1910 C   0  0  0  0  0  0  0  0  0  0  0  0
  140.7380  154.3560  133.3520 C   0  0  0  0  0  0  0  0  0  0  0  0
  140.2960  155.6790  133.4410 C   0  0  0  0  0  0  0  0  0  0  0  0
  143.0590  158.3760  133.3990 C   0  0  0  0  0  0  0  0  0  0  0  0
  144.4020  158.7740  133.3700 C   0  0  0  0  0  0  0  0  0  0  0  0
  146.2378  153.1067  133.9868 H   0  0  0  0  0  0  0  0  0  0  0  0
  145.6308  153.8172  132.4528 H   0  0  0  0  0  0  0  0  0  0  0  0
  147.1295  152.8271  132.4528 H   0  0  0  0  0  0  0  0  0  0  0  0
  147.0077  154.2078  135.3335 H   0  0  0  0  0  0  0  0  0  0  0  0
  148.5613  155.0717  135.0756 H   0  0  0  0  0  0  0  0  0  0  0  0
  147.0148  155.9855  135.0756 H   0  0  0  0  0  0  0  0  0  0  0  0
  149.5168  154.5358  133.4222 H   0  0  0  0  0  0  0  0  0  0  0  0
  148.7548  153.7294  132.0096 H   0  0  0  0  0  0  0  0  0  0  0  0
  148.9869  155.5106  132.0096 H   0  0  0  0  0  0  0  0  0  0  0  0
  148.1060  157.0830  131.5150 H   0  0  0  0  0  0  0  0  0  0  0  0
  146.7398  161.0712  133.6277 H   0  0  0  0  0  0  0  0  0  0  0  0
  144.1050  162.1377  133.8726 H   0  0  0  0  0  0  0  0  0  0  0  0
  141.6766  161.4867  133.9063 H   0  0  0  0  0  0  0  0  0  0  0  0
  140.0167  159.8986  133.8824 H   0  0  0  0  0  0  0  0  0  0  0  0
  140.3446  158.6167  132.6267 H   0  0  0  0  0  0  0  0  0  0  0  0
  142.0643  156.6492  136.2039 H   0  0  0  0  0  0  0  0  0  0  0  0
  142.8574  154.2941  136.0343 H   0  0  0  0  0  0  0  0  0  0  0  0
  142.9213  152.2356  134.8883 H   0  0  0  0  0  0  0  0  0  0  0  0
  141.1773  151.8054  134.6517 H   0  0  0  0  0  0  0  0  0  0  0  0
  142.2729  152.7591  132.1501 H   0  0  0  0  0  0  0  0  0  0  0  0
  143.3363  151.4567  132.8322 H   0  0  0  0  0  0  0  0  0  0  0  0
  139.6469  152.1955  132.3836 H   0  0  0  0  0  0  0  0  0  0  0  0
  138.0074  150.4204  131.7518 H   0  0  0  0  0  0  0  0  0  0  0  0
  138.7737  148.0690  131.4201 H   0  0  0  0  0  0  0  0  0  0  0  0
  141.1832  147.4873  131.7059 H   0  0  0  0  0  0  0  0  0  0  0  0
  142.8350  149.2563  132.3120 H   0  0  0  0  0  0  0  0  0  0  0  0
  140.3653  153.7096  132.5437 H   0  0  0  0  0  0  0  0  0  0  0  0
  139.5850  156.0679  132.6972 H   0  0  0  0  0  0  0  0  0  0  0  0
  142.7829  157.3207  133.2569 H   0  0  0  0  0  0  0  0  0  0  0  0
  1  2  1  0
  2  3  1  0
  2  4  1  0
  2  5  1  0
  5  6  1  0
  6  7  2  0
  6  8  1  0
  8  9  1  0
  9 10  1  0
 10 11  1  0
 10 12  2  0
  9 13  2  0
 13 14  1  0
 14 15  2  0
 15 16  1  0
 16 17  2  0
 17 18  1  0
 18 19  1  0
 19 20  2  0
 19 21  1  0
 21 22  2  0
 22 23  1  0
 23 24  2  0
 24 25  1  0
 25 26  1  0
 26 27  1  0
 27 28  2  0
 28 29  1  0
 29 30  2  0
 30 31  1  0
 31 32  2  0
 24 33  1  0
 33 34  2  0
 17 35  1  0
 35 36  2  0
 36  8  1  0
 36 14  1  0
 34 21  1  0
 32 27  1  0
  1 37  1  0
  1 38  1  0
  1 39  1  0
  3 40  1  0
  3 41  1  0
  3 42  1  0
  4 43  1  0
  4 44  1  0
  4 45  1  0
 11 46  1  0
 13 47  1  0
 15 48  1  0
 16 49  1  0
 18 50  1  0
 18 51  1  0
 22 52  1  0
 23 53  1  0
 25 54  1  0
 25 55  1  0
 26 56  1  0
 26 57  1  0
 28 58  1  0
 29 59  1  0
 30 60  1  0
 31 61  1  0
 32 62  1  0
 33 63  1  0
 34 64  1  0
 35 65  1  0
M  CHG  1  11  -1
M  END
>  <UniqueID>  (89) 
89

>  <SMILES>  (89) 
CC(C)(C)OC(=O)n1c(C([NH-])=O)cc2ccc(CC(=O)c3ccc(CCc4ccccc4)cc3)cc21

>  <Energy>  (89) 
96.5861555848529

>  <Genealogy>  (89) 
CC(C)(C)OC(=O)n1c(C([NH-])=O)cc2ccc(CC(=O)c3ccc(CCc4ccccc4)cc3)cc21 (protonated)
CC(C)(C)OC(=O)n1c(C([NH-])=O)cc2ccc(CC(=O)c3ccc(CCc4ccccc4)cc3)cc21 (3D coordinates assigned)
CC(C)(C)OC(=O)n1c(C([NH-])=O)cc2ccc(CC(=O)c3ccc(CCc4ccccc4)cc3)cc21 (optimized conformer: 96.5861555848529 kcal/mol)

>  <smiles>  (89) 
CC(C)(C)OC(=O)n1c(C(N)=O)cc2ccc(CC(=O)c3ccc(CCc4ccccc4)cc3)cc21

>  <score_type>  (89) 
oracle

>  <origin>  (89) 
adg

>  <m_score__min__energy>  (89) 
-11.640000000000001

>  <m_primary>  (89) 
energy

$$$$
89:0
     RDKit          3D

 40 42  0  0  0  0  0  0  0  0999 V2000
  147.4760  155.5380  135.2220 C   0  0  0  0  0  0  0  0  0  0  0  0
  147.8400  156.5880  134.3350 O   0  0  0  0  0  0  0  0  0  0  0  0
  147.0460  156.9760  133.2480 C   0  0  0  0  0  0  0  0  0  0  0  0
  146.9360  156.2060  132.2440 O   0  0  0  0  0  0  0  0  0  0  0  0
  146.3510  158.2410  133.2810 N   0  0  0  0  0  0  0  0  0  0  0  0
  146.9040  159.4790  133.1190 C   0  0  0  0  0  0  0  0  0  0  0  0
  148.2790  159.7680  132.6770 C   0  0  0  0  0  0  0  0  0  0  0  0
  149.3840  158.9790  133.1440 N   0  0  0  0  0  0  0  0  0  0  0  0
  148.4760  160.6830  131.8190 O   0  0  0  0  0  0  0  0  0  0  0  0
  145.9720  160.4780  133.3790 C   0  0  0  0  0  0  0  0  0  0  0  0
  144.8090  159.8190  133.6860 C   0  0  0  0  0  0  0  0  0  0  0  0
  143.5650  160.3360  134.0230 C   0  0  0  0  0  0  0  0  0  0  0  0
  142.5320  159.4310  134.3070 C   0  0  0  0  0  0  0  0  0  0  0  0
  142.7530  158.0280  134.2530 C   0  0  0  0  0  0  0  0  0  0  0  0
  141.6100  157.0830  134.6150 C   0  0  0  0  0  0  0  0  0  0  0  0
  140.7210  157.5820  135.7860 C   0  0  0  0  0  0  0  0  0  0  0  0
  139.3300  158.0350  135.3050 C   0  0  0  0  0  0  0  0  0  0  0  0
  139.4350  158.7330  134.0860 O   0  0  0  0  0  0  0  0  0  0  0  0
  139.7570  157.8580  133.0200 C   0  0  0  0  0  0  0  0  0  0  0  0
  140.7610  156.7380  133.3750 C   0  0  0  0  0  0  0  0  0  0  0  0
  144.0440  157.5460  133.9200 C   0  0  0  0  0  0  0  0  0  0  0  0
  145.0580  158.4710  133.6210 C   0  0  0  0  0  0  0  0  0  0  0  0
  147.5940  155.8785  136.2613 H   0  0  0  0  0  0  0  0  0  0  0  0
  146.4276  155.2558  135.0455 H   0  0  0  0  0  0  0  0  0  0  0  0
  148.1248  154.6674  135.0455 H   0  0  0  0  0  0  0  0  0  0  0  0
  149.2340  158.1440  133.7630 H   0  0  0  0  0  0  0  0  0  0  0  0
  150.3620  159.2100  132.8540 H   0  0  0  0  0  0  0  0  0  0  0  0
  146.1333  161.5656  133.3455 H   0  0  0  0  0  0  0  0  0  0  0  0
  143.3951  161.4219  134.0658 H   0  0  0  0  0  0  0  0  0  0  0  0
  141.5359  159.8126  134.5756 H   0  0  0  0  0  0  0  0  0  0  0  0
  142.0901  156.1643  134.9831 H   0  0  0  0  0  0  0  0  0  0  0  0
  140.5966  156.7637  136.5106 H   0  0  0  0  0  0  0  0  0  0  0  0
  141.2197  158.4487  136.2444 H   0  0  0  0  0  0  0  0  0  0  0  0
  138.6902  157.1515  135.1628 H   0  0  0  0  0  0  0  0  0  0  0  0
  138.8908  158.7021  136.0613 H   0  0  0  0  0  0  0  0  0  0  0  0
  138.8262  157.3848  132.6739 H   0  0  0  0  0  0  0  0  0  0  0  0
  140.2447  158.4759  132.2517 H   0  0  0  0  0  0  0  0  0  0  0  0
  140.2016  155.8124  133.5759 H   0  0  0  0  0  0  0  0  0  0  0  0
  141.4453  156.6175  132.5222 H   0  0  0  0  0  0  0  0  0  0  0  0
  144.2483  156.4654  133.8961 H   0  0  0  0  0  0  0  0  0  0  0  0
  1  2  1  0
  2  3  1  0
  3  4  2  0
  3  5  1  0
  5  6  1  0
  6  7  1  0
  7  8  1  0
  7  9  2  0
  6 10  2  0
 10 11  1  0
 11 12  2  0
 12 13  1  0
 13 14  2  0
 14 15  1  0
 15 16  1  0
 16 17  1  0
 17 18  1  0
 18 19  1  0
 19 20  1  0
 14 21  1  0
 21 22  2  0
 22  5  1  0
 22 11  1  0
 20 15  1  0
  1 23  1  0
  1 24  1  0
  1 25  1  0
  8 26  1  0
  8 27  1  0
 10 28  1  0
 12 29  1  0
 13 30  1  0
 15 31  1  0
 16 32  1  0
 16 33  1  0
 17 34  1  0
 17 35  1  0
 19 36  1  0
 19 37  1  0
 20 38  1  0
 20 39  1  0
 21 40  1  0
M  END
>  <UniqueID>  (90) 
90

>  <SMILES>  (90) 
COC(=O)n1c(C(N)=O)cc2ccc(C3CCOCC3)cc21

>  <Energy>  (90) 
89.65606637613543

>  <Genealogy>  (90) 
COC(=O)n1c(C(N)=O)cc2ccc(C3CCOCC3)cc21 (3D coordinates assigned)
COC(=O)n1c(C(N)=O)cc2ccc(C3CCOCC3)cc21 (nonaromatic ring conformer: 89.65606637613543 kcal/mol)

>  <smiles>  (90) 
COC(=O)n1c(C(N)=O)cc2ccc(C3CCOCC3)cc21

>  <score_type>  (90) 
oracle

>  <origin>  (90) 
adg

>  <m_score__min__energy>  (90) 
-7.4100000000000001

>  <m_primary>  (90) 
energy

$$$$
90:0
     RDKit          3D

 51 53  0  0  0  0  0  0  0  0999 V2000
  141.1720  158.0000  135.6200 C   0  0  0  0  0  0  0  0  0  0  0  0
  141.2220  159.1870  134.6460 C   0  0  2  0  0  0  0  0  0  0  0  0
  140.3480  159.0010  133.4170 C   0  0  0  0  0  0  0  0  0  0  0  0
  139.8510  157.7350  133.0340 C   0  0  0  0  0  0  0  0  0  0  0  0
  139.0850  157.5970  131.8730 C   0  0  0  0  0  0  0  0  0  0  0  0
  138.8110  158.7100  131.0760 C   0  0  0  0  0  0  0  0  0  0  0  0
  139.3090  159.9660  131.4350 C   0  0  0  0  0  0  0  0  0  0  0  0
  140.0790  160.1100  132.5920 C   0  0  0  0  0  0  0  0  0  0  0  0
  142.6460  159.5230  134.2460 C   0  0  0  0  0  0  0  0  0  0  0  0
  143.0160  160.8740  134.0130 C   0  0  0  0  0  0  0  0  0  0  0  0
  144.3300  161.2080  133.6440 C   0  0  0  0  0  0  0  0  0  0  0  0
  145.2520  160.1750  133.5040 C   0  0  0  0  0  0  0  0  0  0  0  0
  146.5880  160.2170  133.1790 C   0  0  0  0  0  0  0  0  0  0  0  0
  147.0140  158.8890  133.1920 C   0  0  0  0  0  0  0  0  0  0  0  0
  148.3750  158.4490  132.8080 C   0  0  0  0  0  0  0  0  0  0  0  0
  148.5650  157.4240  131.8300 N   0  0  0  0  0  0  0  0  0  0  0  0
  149.3830  158.9570  133.3630 O   0  0  0  0  0  0  0  0  0  0  0  0
  145.9800  158.0620  133.5150 N   0  0  0  0  0  0  0  0  0  0  0  0
  146.0060  156.6370  133.6780 C   0  0  0  0  0  0  0  0  0  0  0  0
  145.1520  156.0770  134.4140 O   0  0  0  0  0  0  0  0  0  0  0  0
  146.9790  155.8870  133.0000 O   0  0  0  0  0  0  0  0  0  0  0  0
  147.4670  154.5900  133.3700 C   0  0  0  0  0  0  0  0  0  0  0  0
  147.7340  154.5160  134.8860 C   0  0  0  0  0  0  0  0  0  0  0  0
  148.7920  154.3780  132.6260 C   0  0  0  0  0  0  0  0  0  0  0  0
  146.4720  153.5010  132.9370 C   0  0  0  0  0  0  0  0  0  0  0  0
  144.9090  158.8630  133.7020 C   0  0  0  0  0  0  0  0  0  0  0  0
  143.6150  158.5020  134.0880 C   0  0  0  0  0  0  0  0  0  0  0  0
  141.1877  158.3736  136.6545 H   0  0  0  0  0  0  0  0  0  0  0  0
  140.2489  157.4260  135.4515 H   0  0  0  0  0  0  0  0  0  0  0  0
  142.0436  157.3504  135.4515 H   0  0  0  0  0  0  0  0  0  0  0  0
  140.8030  160.0393  135.2009 H   0  0  0  0  0  0  0  0  0  0  0  0
  140.0683  156.8524  133.6535 H   0  0  0  0  0  0  0  0  0  0  0  0
  138.6969  156.6084  131.5864 H   0  0  0  0  0  0  0  0  0  0  0  0
  138.2034  158.5987  130.1658 H   0  0  0  0  0  0  0  0  0  0  0  0
  139.0943  160.8423  130.8056 H   0  0  0  0  0  0  0  0  0  0  0  0
  140.4788  161.0989  132.8609 H   0  0  0  0  0  0  0  0  0  0  0  0
  142.2642  161.6694  134.1228 H   0  0  0  0  0  0  0  0  0  0  0  0
  144.6212  162.2545  133.4710 H   0  0  0  0  0  0  0  0  0  0  0  0
  147.1922  161.1088  132.9561 H   0  0  0  0  0  0  0  0  0  0  0  0
  147.7600  157.0120  131.3100 H   0  0  0  0  0  0  0  0  0  0  0  0
  149.5280  157.0980  131.5960 H   0  0  0  0  0  0  0  0  0  0  0  0
  146.8144  154.7708  135.4331 H   0  0  0  0  0  0  0  0  0  0  0  0
  148.0492  153.4967  135.1535 H   0  0  0  0  0  0  0  0  0  0  0  0
  148.5289  155.2277  135.1535 H   0  0  0  0  0  0  0  0  0  0  0  0
  149.6052  154.2479  133.3552 H   0  0  0  0  0  0  0  0  0  0  0  0
  148.7185  153.4802  131.9947 H   0  0  0  0  0  0  0  0  0  0  0  0
  149.0023  155.2539  131.9947 H   0  0  0  0  0  0  0  0  0  0  0  0
  146.0377  153.0256  133.8288 H   0  0  0  0  0  0  0  0  0  0  0  0
  145.6701  153.9549  132.3362 H   0  0  0  0  0  0  0  0  0  0  0  0
  146.9963  152.7433  132.3362 H   0  0  0  0  0  0  0  0  0  0  0  0
  143.3549  157.4480  134.2652 H   0  0  0  0  0  0  0  0  0  0  0  0
  1  2  1  0
  2  3  1  0
  3  4  2  0
  4  5  1  0
  5  6  2  0
  6  7  1  0
  7  8  2  0
  2  9  1  0
  9 10  2  0
 10 11  1  0
 11 12  2  0
 12 13  1  0
 13 14  2  0
 14 15  1  0
 15 16  1  0
 15 17  2  0
 14 18  1  0
 18 19  1  0
 19 20  2  0
 19 21  1  0
 21 22  1  0
 22 23  1  0
 22 24  1  0
 22 25  1  0
 18 26  1  0
 26 27  2  0
  8  3  1  0
 27  9  1  0
 26 12  1  0
  1 28  1  0
  1 29  1  0
  1 30  1  0
  2 31  1  1
  4 32  1  0
  5 33  1  0
  6 34  1  0
  7 35  1  0
  8 36  1  0
 10 37  1  0
 11 38  1  0
 13 39  1  0
 16 40  1  0
 16 41  1  0
 23 42  1  0
 23 43  1  0
 23 44  1  0
 24 45  1  0
 24 46  1  0
 24 47  1  0
 25 48  1  0
 25 49  1  0
 25 50  1  0
 27 51  1  0
M  END
>  <UniqueID>  (91) 
91

>  <SMILES>  (91) 
C[C@H](c1ccccc1)c1ccc2cc(C(N)=O)n(C(=O)OC(C)(C)C)c2c1

>  <Energy>  (91) 
85.64983954084805

>  <Genealogy>  (91) 
C[C@H](c1ccccc1)c1ccc2cc(C(N)=O)n(C(=O)OC(C)(C)C)c2c1 (chirality)
C[C@H](c1ccccc1)c1ccc2cc(C(N)=O)n(C(=O)OC(C)(C)C)c2c1 (3D coordinates assigned)
C[C@H](c1ccccc1)c1ccc2cc(C(N)=O)n(C(=O)OC(C)(C)C)c2c1 (optimized conformer: 85.64983954084805 kcal/mol)

>  <smiles>  (91) 
CC(c1ccccc1)c1ccc2cc(C(N)=O)n(C(=O)OC(C)(C)C)c2c1

>  <score_type>  (91) 
oracle

>  <origin>  (91) 
adg

>  <m_score__min__energy>  (91) 
-9.3399999999999999

>  <m_primary>  (91) 
energy

$$$$
91:0
     RDKit          3D

 42 44  0  0  0  0  0  0  0  0999 V2000
  137.6710  159.2550  131.2960 C   0  0  0  0  0  0  0  0  0  0  0  0
  138.6770  158.6400  132.1520 N   0  0  0  0  0  0  0  0  0  0  0  0
  138.3940  157.8860  133.3580 C   0  0  0  0  0  0  0  0  0  0  0  0
  139.7560  157.3690  133.8560 C   0  0  0  0  0  0  0  0  0  0  0  0
  140.8500  158.1450  133.0850 C   0  0  2  0  0  0  0  0  0  0  0  0
  141.5330  159.1950  133.9910 C   0  0  0  0  0  0  0  0  0  0  0  0
  142.7670  159.8620  133.3590 C   0  0  0  0  0  0  0  0  0  0  0  0
  144.0220  159.0530  133.5710 C   0  0  0  0  0  0  0  0  0  0  0  0
  145.2880  159.5950  133.2320 C   0  0  0  0  0  0  0  0  0  0  0  0
  146.4590  158.8430  133.4140 C   0  0  0  0  0  0  0  0  0  0  0  0
  146.3350  157.5540  133.9230 C   0  0  0  0  0  0  0  0  0  0  0  0
  147.3030  156.6220  134.2190 C   0  0  0  0  0  0  0  0  0  0  0  0
  146.6130  155.5140  134.7080 C   0  0  0  0  0  0  0  0  0  0  0  0
  147.2740  154.2440  135.0760 C   0  0  0  0  0  0  0  0  0  0  0  0
  146.9820  153.5950  136.3110 N   0  0  0  0  0  0  0  0  0  0  0  0
  148.0740  153.7010  134.2680 O   0  0  0  0  0  0  0  0  0  0  0  0
  145.2710  155.7540  134.7190 N   0  0  0  0  0  0  0  0  0  0  0  0
  144.2290  154.9010  135.2210 C   0  0  0  0  0  0  0  0  0  0  0  0
  144.2620  154.4470  136.5730 N   0  0  0  0  0  0  0  0  0  0  0  0
  143.2880  154.5400  134.4660 O   0  0  0  0  0  0  0  0  0  0  0  0
  145.1170  157.0060  134.2350 C   0  0  0  0  0  0  0  0  0  0  0  0
  143.9350  157.7400  134.0830 C   0  0  0  0  0  0  0  0  0  0  0  0
  140.0740  158.7790  131.9870 C   0  0  0  0  0  0  0  0  0  0  0  0
  140.5910  159.3480  130.9890 O   0  0  0  0  0  0  0  0  0  0  0  0
  136.8980  159.7276  131.9198 H   0  0  0  0  0  0  0  0  0  0  0  0
  138.1462  160.0172  130.6610 H   0  0  0  0  0  0  0  0  0  0  0  0
  137.2093  158.4846  130.6610 H   0  0  0  0  0  0  0  0  0  0  0  0
  137.9297  158.5345  134.1156 H   0  0  0  0  0  0  0  0  0  0  0  0
  137.6925  157.0609  133.1655 H   0  0  0  0  0  0  0  0  0  0  0  0
  139.8558  157.5504  134.9363 H   0  0  0  0  0  0  0  0  0  0  0  0
  139.8497  156.2868  133.6829 H   0  0  0  0  0  0  0  0  0  0  0  0
  141.6741  157.5127  132.7231 H   0  0  0  0  0  0  0  0  0  0  0  0
  140.7983  159.9794  134.2253 H   0  0  0  0  0  0  0  0  0  0  0  0
  141.8844  158.6612  134.8863 H   0  0  0  0  0  0  0  0  0  0  0  0
  142.5953  159.9731  132.2782 H   0  0  0  0  0  0  0  0  0  0  0  0
  142.9087  160.8391  133.8439 H   0  0  0  0  0  0  0  0  0  0  0  0
  145.3527  160.6140  132.8227 H   0  0  0  0  0  0  0  0  0  0  0  0
  147.4451  159.2601  133.1618 H   0  0  0  0  0  0  0  0  0  0  0  0
  148.3909  156.7287  134.0958 H   0  0  0  0  0  0  0  0  0  0  0  0
  146.3440  154.0340  137.0100 H   0  0  0  0  0  0  0  0  0  0  0  0
  145.1470  154.4740  137.1250 H   0  0  0  0  0  0  0  0  0  0  0  0
  142.9623  157.3047  134.3557 H   0  0  0  0  0  0  0  0  0  0  0  0
  1  2  1  0
  2  3  1  0
  3  4  1  0
  4  5  1  0
  5  6  1  0
  6  7  1  0
  7  8  1  0
  8  9  2  0
  9 10  1  0
 10 11  2  0
 11 12  1  0
 12 13  2  0
 13 14  1  0
 14 15  1  0
 14 16  2  0
 13 17  1  0
 17 18  1  0
 18 19  1  0
 18 20  2  0
 17 21  1  0
 21 22  2  0
  5 23  1  0
 23 24  2  0
 23  2  1  0
 22  8  1  0
 21 11  1  0
  1 25  1  0
  1 26  1  0
  1 27  1  0
  3 28  1  0
  3 29  1  0
  4 30  1  0
  4 31  1  0
  5 32  1  6
  6 33  1  0
  6 34  1  0
  7 35  1  0
  7 36  1  0
  9 37  1  0
 10 38  1  0
 12 39  1  0
 15 40  1  0
 19 41  1  0
 22 42  1  0
M  CHG  2  15  -1  19  -1
M  END
>  <UniqueID>  (92) 
92

>  <SMILES>  (92) 
CN1CC[C@H](CCc2ccc3cc(C([NH-])=O)n(C([NH-])=O)c3c2)C1=O

>  <Energy>  (92) 
84.43034673921102

>  <Genealogy>  (92) 
CN1CC[C@H](CCc2ccc3cc(C([NH-])=O)n(C([NH-])=O)c3c2)C1=O (protonated)
CN1CC[C@H](CCc2ccc3cc(C([NH-])=O)n(C([NH-])=O)c3c2)C1=O (3D coordinates assigned)
CN1CC[C@H](CCc2ccc3cc(C([NH-])=O)n(C([NH-])=O)c3c2)C1=O (nonaromatic ring conformer: 84.43034673921102 kcal/mol)

>  <smiles>  (92) 
CN1CC[C@H](CCc2ccc3cc(C(N)=O)n(C(N)=O)c3c2)C1=O

>  <score_type>  (92) 
oracle

>  <origin>  (92) 
adg

>  <m_score__min__energy>  (92) 
-7.8499999999999996

>  <m_primary>  (92) 
energy

$$$$
92:0
     RDKit          3D

 26 27  0  0  0  0  0  0  0  0999 V2000
  148.8630  158.9240  134.1950 N   0  0  0  0  0  0  0  0  0  0  0  0
  148.0380  158.4770  133.1220 C   0  0  0  0  0  0  0  0  0  0  0  0
  148.5620  158.1910  132.0130 O   0  0  0  0  0  0  0  0  0  0  0  0
  146.6170  158.3560  133.3010 N   0  0  0  0  0  0  0  0  0  0  0  0
  145.8550  157.2350  133.1550 C   0  0  0  0  0  0  0  0  0  0  0  0
  146.3730  155.8700  132.9140 C   0  0  0  0  0  0  0  0  0  0  0  0
  147.3040  155.6170  131.8600 N   0  0  0  0  0  0  0  0  0  0  0  0
  145.9740  154.9070  133.6210 O   0  0  0  0  0  0  0  0  0  0  0  0
  144.5070  157.5320  133.3520 C   0  0  0  0  0  0  0  0  0  0  0  0
  144.4670  158.8790  133.6270 C   0  0  0  0  0  0  0  0  0  0  0  0
  143.3780  159.7070  133.8790 C   0  0  0  0  0  0  0  0  0  0  0  0
  143.6240  161.0740  134.0930 C   0  0  0  0  0  0  0  0  0  0  0  0
  144.9470  161.5870  134.0610 C   0  0  0  0  0  0  0  0  0  0  0  0
  145.1900  163.0650  134.2270 C   0  0  0  0  0  0  0  0  0  0  0  0
  144.2320  163.7660  133.5200 F   0  0  0  0  0  0  0  0  0  0  0  0
  145.1210  163.4250  135.5610 F   0  0  0  0  0  0  0  0  0  0  0  0
  146.4450  163.4090  133.7510 F   0  0  0  0  0  0  0  0  0  0  0  0
  146.0240  160.7150  133.7780 C   0  0  0  0  0  0  0  0  0  0  0  0
  145.7520  159.3550  133.5890 C   0  0  0  0  0  0  0  0  0  0  0  0
  149.4260  158.2470  134.7570 H   0  0  0  0  0  0  0  0  0  0  0  0
  147.6340  154.6440  131.6740 H   0  0  0  0  0  0  0  0  0  0  0  0
  147.7040  156.3950  131.2900 H   0  0  0  0  0  0  0  0  0  0  0  0
  143.6563  156.8367  133.2988 H   0  0  0  0  0  0  0  0  0  0  0  0
  142.3550  159.3039  133.9098 H   0  0  0  0  0  0  0  0  0  0  0  0
  142.7816  161.7541  134.2875 H   0  0  0  0  0  0  0  0  0  0  0  0
  147.0531  161.0973  133.7079 H   0  0  0  0  0  0  0  0  0  0  0  0
  1  2  1  0
  2  3  2  0
  2  4  1  0
  4  5  1  0
  5  6  1  0
  6  7  1  0
  6  8  2  0
  5  9  2  0
  9 10  1  0
 10 11  2  0
 11 12  1  0
 12 13  2  0
 13 14  1  0
 14 15  1  0
 14 16  1  0
 14 17  1  0
 13 18  1  0
 18 19  2  0
 19  4  1  0
 19 10  1  0
  1 20  1  0
  7 21  1  0
  7 22  1  0
  9 23  1  0
 11 24  1  0
 12 25  1  0
 18 26  1  0
M  CHG  1   1  -1
M  END
>  <UniqueID>  (93) 
93

>  <SMILES>  (93) 
[NH-]C(=O)n1c(C(N)=O)cc2ccc(C(F)(F)F)cc21

>  <Energy>  (93) 
65.87310656971313

>  <Genealogy>  (93) 
[NH-]C(=O)n1c(C(N)=O)cc2ccc(C(F)(F)F)cc21 (protonated)
[NH-]C(=O)n1c(C(N)=O)cc2ccc(C(F)(F)F)cc21 (3D coordinates assigned)
[NH-]C(=O)n1c(C(N)=O)cc2ccc(C(F)(F)F)cc21 (optimized conformer: 65.87310656971313 kcal/mol)

>  <smiles>  (93) 
NC(=O)c1cc2ccc(C(F)(F)F)cc2n1C(N)=O

>  <score_type>  (93) 
oracle

>  <origin>  (93) 
adg

>  <m_score__min__energy>  (93) 
-5.8399999999999999

>  <m_primary>  (93) 
energy

$$$$
