0:0
     RDKit          3D

 52 54  0  0  0  0  0  0  0  0999 V2000
  140.9540  159.4550  136.5870 C   0  0  0  0  0  0  0  0  0  0  0  0
  141.5000  159.1260  135.2660 N   0  0  0  0  0  0  0  0  0  0  0  0
  142.7480  159.7560  134.8240 C   0  0  0  0  0  0  0  0  0  0  0  0
  140.7330  158.2630  134.3930 C   0  0  0  0  0  0  0  0  0  0  0  0
  139.5470  157.9710  134.7040 O   0  0  0  0  0  0  0  0  0  0  0  0
  141.2850  157.6940  133.1410 C   0  0  0  0  0  0  0  0  0  0  0  0
  141.1470  158.3060  132.0490 O   0  0  0  0  0  0  0  0  0  0  0  0
  142.0400  156.4700  133.1690 N   0  0  0  0  0  0  0  0  0  0  0  0
  141.5650  155.1930  133.2140 C   0  0  0  0  0  0  0  0  0  0  0  0
  140.1490  154.7910  133.0940 C   0  0  0  0  0  0  0  0  0  0  0  0
  139.1050  155.7630  133.0210 N   0  0  0  0  0  0  0  0  0  0  0  0
  139.8600  153.5670  133.0050 O   0  0  0  0  0  0  0  0  0  0  0  0
  142.6130  154.2830  133.3410 C   0  0  0  0  0  0  0  0  0  0  0  0
  143.7580  155.0490  133.3530 C   0  0  0  0  0  0  0  0  0  0  0  0
  145.0910  154.6650  133.4560 C   0  0  0  0  0  0  0  0  0  0  0  0
  146.0690  155.6740  133.4620 C   0  0  0  0  0  0  0  0  0  0  0  0
  145.7000  157.0420  133.3790 C   0  0  0  0  0  0  0  0  0  0  0  0
  146.7120  158.0670  133.3810 N   0  0  0  0  0  0  0  0  0  0  0  0
  148.1310  157.6910  133.4720 C   0  0  0  0  0  0  0  0  0  0  0  0
  149.0480  158.8450  133.0390 C   0  0  0  0  0  0  0  0  0  0  0  0
  148.4740  159.5430  131.7880 C   0  0  0  0  0  0  0  0  0  0  0  0
  149.4440  160.6040  131.2290 C   0  0  0  0  0  0  0  0  0  0  0  0
  148.7350  161.7930  130.7560 N   0  0  0  0  0  0  0  0  0  0  0  0
  147.0480  160.1100  132.0330 C   0  0  0  0  0  0  0  0  0  0  0  0
  146.3480  159.4840  133.2490 C   0  0  0  0  0  0  0  0  0  0  0  0
  144.3340  157.3900  133.2710 C   0  0  0  0  0  0  0  0  0  0  0  0
  143.3850  156.3640  133.2490 C   0  0  0  0  0  0  0  0  0  0  0  0
  141.6175  159.0552  137.3680 H   0  0  0  0  0  0  0  0  0  0  0  0
  140.8810  160.5476  136.6919 H   0  0  0  0  0  0  0  0  0  0  0  0
  139.9540  159.0090  136.6919 H   0  0  0  0  0  0  0  0  0  0  0  0
  143.3392  160.0544  135.7023 H   0  0  0  0  0  0  0  0  0  0  0  0
  143.3253  159.0413  134.2190 H   0  0  0  0  0  0  0  0  0  0  0  0
  142.5158  160.6449  134.2190 H   0  0  0  0  0  0  0  0  0  0  0  0
  139.3200  156.7770  132.9020 H   0  0  0  0  0  0  0  0  0  0  0  0
  138.1070  155.4570  132.9920 H   0  0  0  0  0  0  0  0  0  0  0  0
  142.5413  153.1879  133.4157 H   0  0  0  0  0  0  0  0  0  0  0  0
  145.3710  153.6038  133.5305 H   0  0  0  0  0  0  0  0  0  0  0  0
  147.1322  155.4006  133.5318 H   0  0  0  0  0  0  0  0  0  0  0  0
  148.3632  157.4211  134.5128 H   0  0  0  0  0  0  0  0  0  0  0  0
  148.3063  156.8394  132.7982 H   0  0  0  0  0  0  0  0  0  0  0  0
  149.1252  159.5746  133.8586 H   0  0  0  0  0  0  0  0  0  0  0  0
  150.0429  158.4416  132.7995 H   0  0  0  0  0  0  0  0  0  0  0  0
  148.3672  158.7723  131.0104 H   0  0  0  0  0  0  0  0  0  0  0  0
  150.1445  160.8999  132.0238 H   0  0  0  0  0  0  0  0  0  0  0  0
  149.9785  160.1624  130.3750 H   0  0  0  0  0  0  0  0  0  0  0  0
  148.1050  161.4990  129.9750 H   0  0  0  0  0  0  0  0  0  0  0  0
  148.1100  162.1390  131.5180 H   0  0  0  0  0  0  0  0  0  0  0  0
  147.1264  161.1952  132.1952 H   0  0  0  0  0  0  0  0  0  0  0  0
  146.4431  159.8671  131.1469 H   0  0  0  0  0  0  0  0  0  0  0  0
  146.6531  160.0221  134.1586 H   0  0  0  0  0  0  0  0  0  0  0  0
  145.2595  159.5595  133.1099 H   0  0  0  0  0  0  0  0  0  0  0  0
  144.0252  158.4437  133.2058 H   0  0  0  0  0  0  0  0  0  0  0  0
  1  2  1  0
  2  3  1  0
  2  4  1  0
  4  5  2  0
  4  6  1  0
  6  7  2  0
  6  8  1  0
  8  9  1  0
  9 10  1  0
 10 11  1  0
 10 12  2  0
  9 13  2  0
 13 14  1  0
 14 15  2  0
 15 16  1  0
 16 17  2  0
 17 18  1  0
 18 19  1  0
 19 20  1  0
 20 21  1  0
 21 22  1  0
 22 23  1  0
 21 24  1  0
 24 25  1  0
 17 26  1  0
 26 27  2  0
 27  8  1  0
 27 14  1  0
 25 18  1  0
  1 28  1  0
  1 29  1  0
  1 30  1  0
  3 31  1  0
  3 32  1  0
  3 33  1  0
 11 34  1  0
 11 35  1  0
 13 36  1  0
 15 37  1  0
 16 38  1  0
 19 39  1  0
 19 40  1  0
 20 41  1  0
 20 42  1  0
 21 43  1  0
 22 44  1  0
 22 45  1  0
 23 46  1  0
 23 47  1  0
 24 48  1  0
 24 49  1  0
 25 50  1  0
 25 51  1  0
 26 52  1  0
M  END
>  <UniqueID>  (1) 
1

>  <SMILES>  (1) 
CN(C)C(=O)C(=O)n1c(C(N)=O)cc2ccc(N3CCC(CN)CC3)cc21

>  <Energy>  (1) 
97.4611236675579

>  <Genealogy>  (1) 
CN(C)C(=O)C(=O)n1c(C(N)=O)cc2ccc(N3CCC(CN)CC3)cc21 (3D coordinates assigned)
CN(C)C(=O)C(=O)n1c(C(N)=O)cc2ccc(N3CCC(CN)CC3)cc21 (nonaromatic ring conformer: 97.4611236675579 kcal/mol)

>  <smiles>  (1) 
CN(C)C(=O)C(=O)n1c(C(N)=O)cc2ccc(N3CCC(CN)CC3)cc21

>  <score_type>  (1) 
oracle

>  <origin>  (1) 
adg

>  <m_score__min__energy>  (1) 
-8.6899999999999995

>  <m_primary>  (1) 
energy

$$$$
1:0
     RDKit          3D

 40 41  0  0  0  0  0  0  0  0999 V2000
  142.0990  159.7430  132.7870 N   0  0  0  0  0  0  0  0  0  0  0  0
  143.2840  160.1550  133.4720 C   0  0  0  0  0  0  0  0  0  0  0  0
  143.2860  161.2550  134.0850 O   0  0  0  0  0  0  0  0  0  0  0  0
  144.4760  159.2810  133.5030 C   0  0  0  0  0  0  0  0  0  0  0  0
  145.7640  159.7290  133.2170 C   0  0  0  0  0  0  0  0  0  0  0  0
  146.5540  158.6050  133.2390 C   0  0  0  0  0  0  0  0  0  0  0  0
  147.9210  158.4710  133.0110 C   0  0  0  0  0  0  0  0  0  0  0  0
  148.4820  157.1870  133.1040 C   0  0  0  0  0  0  0  0  0  0  0  0
  147.6760  156.0700  133.4330 C   0  0  0  0  0  0  0  0  0  0  0  0
  148.2850  154.6930  133.5100 C   0  0  0  0  0  0  0  0  0  0  0  0
  147.4260  153.7390  134.3480 C   0  0  0  0  0  0  0  0  0  0  0  0
  147.5580  154.0160  135.8150 C   0  0  0  0  0  0  0  0  0  0  0  0
  148.0690  155.0970  136.2110 O   0  0  0  0  0  0  0  0  0  0  0  0
  147.0770  153.1010  136.7430 O   0  0  0  0  0  0  0  0  0  0  0  0
  146.2910  156.2430  133.6450 C   0  0  0  0  0  0  0  0  0  0  0  0
  145.7530  157.5310  133.5340 C   0  0  0  0  0  0  0  0  0  0  0  0
  144.4700  157.9310  133.7050 N   0  0  0  0  0  0  0  0  0  0  0  0
  143.3520  157.1060  134.0860 C   0  0  0  0  0  0  0  0  0  0  0  0
  143.4030  156.4270  135.1470 O   0  0  0  0  0  0  0  0  0  0  0  0
  142.2140  157.0550  133.2740 O   0  0  0  0  0  0  0  0  0  0  0  0
  140.9520  156.5440  133.7020 C   0  0  0  0  0  0  0  0  0  0  0  0
  139.8500  156.7720  132.6610 C   0  0  0  0  0  0  0  0  0  0  0  0
  139.3600  158.5240  132.5460 P   0  0  0  0  0  0  0  0  0  0  0  0
  137.8690  158.6370  132.3230 O   0  0  0  0  0  0  0  0  0  0  0  0
  139.7830  159.3290  133.9720 O   0  0  0  0  0  0  0  0  0  0  0  0
  140.1740  159.2400  131.2490 O   0  0  0  0  0  0  0  0  0  0  0  0
  141.2480  160.3470  132.8030 H   0  0  0  0  0  0  0  0  0  0  0  0
  142.0750  158.8600  132.2300 H   0  0  0  0  0  0  0  0  0  0  0  0
  146.0811  160.7630  133.0162 H   0  0  0  0  0  0  0  0  0  0  0  0
  148.5428  159.3445  132.7654 H   0  0  0  0  0  0  0  0  0  0  0  0
  149.5574  157.0475  132.9196 H   0  0  0  0  0  0  0  0  0  0  0  0
  148.3786  154.2872  132.4919 H   0  0  0  0  0  0  0  0  0  0  0  0
  149.2700  154.7802  133.9918 H   0  0  0  0  0  0  0  0  0  0  0  0
  146.3722  153.8590  134.0562 H   0  0  0  0  0  0  0  0  0  0  0  0
  147.7730  152.7121  134.1609 H   0  0  0  0  0  0  0  0  0  0  0  0
  145.6486  155.3849  133.8920 H   0  0  0  0  0  0  0  0  0  0  0  0
  141.0504  155.4634  133.8824 H   0  0  0  0  0  0  0  0  0  0  0  0
  140.6652  157.0793  134.6192 H   0  0  0  0  0  0  0  0  0  0  0  0
  140.2179  156.4422  131.6782 H   0  0  0  0  0  0  0  0  0  0  0  0
  138.9670  156.1951  132.9733 H   0  0  0  0  0  0  0  0  0  0  0  0
  1  2  1  0
  2  3  2  0
  2  4  1  0
  4  5  2  0
  5  6  1  0
  6  7  2  0
  7  8  1  0
  8  9  2  0
  9 10  1  0
 10 11  1  0
 11 12  1  0
 12 13  2  0
 12 14  1  0
  9 15  1  0
 15 16  2  0
 16 17  1  0
 17 18  1  0
 18 19  2  0
 18 20  1  0
 20 21  1  0
 21 22  1  0
 22 23  1  0
 23 24  2  0
 23 25  1  0
 23 26  1  0
 17  4  1  0
 16  6  1  0
  1 27  1  0
  1 28  1  0
  5 29  1  0
  7 30  1  0
  8 31  1  0
 10 32  1  0
 10 33  1  0
 11 34  1  0
 11 35  1  0
 15 36  1  0
 21 37  1  0
 21 38  1  0
 22 39  1  0
 22 40  1  0
M  CHG  3  14  -1  25  -1  26  -1
M  END
>  <UniqueID>  (2) 
2

>  <SMILES>  (2) 
NC(=O)c1cc2ccc(CCC(=O)[O-])cc2n1C(=O)OCCP(=O)([O-])[O-]

>  <Energy>  (2) 
67.66730697998302

>  <Genealogy>  (2) 
NC(=O)c1cc2ccc(CCC(=O)[O-])cc2n1C(=O)OCCP(=O)([O-])[O-] (protonated)
NC(=O)c1cc2ccc(CCC(=O)[O-])cc2n1C(=O)OCCP(=O)([O-])[O-] (3D coordinates assigned)
NC(=O)c1cc2ccc(CCC(=O)[O-])cc2n1C(=O)OCCP(=O)([O-])[O-] (optimized conformer: 67.66730697998302 kcal/mol)

>  <smiles>  (2) 
NC(=O)c1cc2ccc(CCC(=O)O)cc2n1C(=O)OCCP(=O)(O)O

>  <score_type>  (2) 
oracle

>  <origin>  (2) 
adg

>  <m_score__min__energy>  (2) 
-7.2599999999999998

>  <m_primary>  (2) 
energy

$$$$
2:0
     RDKit          3D

 36 37  0  0  0  0  0  0  0  0999 V2000
  147.5690  156.7640  133.0860 C   0  0  0  0  0  0  0  0  0  0  0  0
  147.8730  158.0710  133.8100 C   0  0  0  0  0  0  0  0  0  0  0  0
  147.1760  159.1900  133.1620 N   0  0  0  0  0  0  0  0  0  0  0  0
  147.8420  159.9640  132.1060 C   0  0  0  0  0  0  0  0  0  0  0  0
  149.1820  159.3270  131.7480 C   0  0  0  0  0  0  0  0  0  0  0  0
  149.0710  158.6590  130.5230 O   0  0  0  0  0  0  0  0  0  0  0  0
  145.8160  159.4990  133.5270 C   0  0  0  0  0  0  0  0  0  0  0  0
  145.4170  160.8440  133.7240 C   0  0  0  0  0  0  0  0  0  0  0  0
  144.0950  161.1540  134.0810 C   0  0  0  0  0  0  0  0  0  0  0  0
  143.1940  160.1050  134.2230 C   0  0  0  0  0  0  0  0  0  0  0  0
  141.8640  160.1220  134.5730 C   0  0  0  0  0  0  0  0  0  0  0  0
  141.4600  158.7880  134.5620 C   0  0  0  0  0  0  0  0  0  0  0  0
  140.0630  158.3640  134.7890 C   0  0  0  0  0  0  0  0  0  0  0  0
  139.5430  158.2120  136.1080 N   0  0  0  0  0  0  0  0  0  0  0  0
  139.3300  158.0820  133.8040 O   0  0  0  0  0  0  0  0  0  0  0  0
  142.5040  157.9750  134.2270 N   0  0  0  0  0  0  0  0  0  0  0  0
  142.5210  156.5400  134.1810 C   0  0  0  0  0  0  0  0  0  0  0  0
  143.3710  155.8920  134.8470 O   0  0  0  0  0  0  0  0  0  0  0  0
  141.5860  155.8490  133.4190 O   0  0  0  0  0  0  0  0  0  0  0  0
  143.5560  158.7980  134.0180 C   0  0  0  0  0  0  0  0  0  0  0  0
  144.8720  158.4600  133.6820 C   0  0  0  0  0  0  0  0  0  0  0  0
  147.3843  155.9701  133.8246 H   0  0  0  0  0  0  0  0  0  0  0  0
  146.6769  156.8930  132.4555 H   0  0  0  0  0  0  0  0  0  0  0  0
  148.4265  156.4861  132.4555 H   0  0  0  0  0  0  0  0  0  0  0  0
  147.5390  157.9925  134.8551 H   0  0  0  0  0  0  0  0  0  0  0  0
  148.9567  158.2559  133.7721 H   0  0  0  0  0  0  0  0  0  0  0  0
  147.2005  159.9861  131.2127 H   0  0  0  0  0  0  0  0  0  0  0  0
  148.0177  160.9874  132.4689 H   0  0  0  0  0  0  0  0  0  0  0  0
  149.9506  160.1101  131.6698 H   0  0  0  0  0  0  0  0  0  0  0  0
  149.4667  158.6092  132.5315 H   0  0  0  0  0  0  0  0  0  0  0  0
  148.8740  157.7100  130.7440 H   0  0  0  0  0  0  0  0  0  0  0  0
  146.1505  161.6537  133.5960 H   0  0  0  0  0  0  0  0  0  0  0  0
  143.7816  162.1958  134.2435 H   0  0  0  0  0  0  0  0  0  0  0  0
  141.2490  161.0024  134.8113 H   0  0  0  0  0  0  0  0  0  0  0  0
  139.4510  159.0320  136.7480 H   0  0  0  0  0  0  0  0  0  0  0  0
  145.1644  157.4089  133.5418 H   0  0  0  0  0  0  0  0  0  0  0  0
  1  2  1  0
  2  3  1  0
  3  4  1  0
  4  5  1  0
  5  6  1  0
  3  7  1  0
  7  8  2  0
  8  9  1  0
  9 10  2  0
 10 11  1  0
 11 12  2  0
 12 13  1  0
 13 14  1  0
 13 15  2  0
 12 16  1  0
 16 17  1  0
 17 18  2  0
 17 19  1  0
 16 20  1  0
 20 21  2  0
 21  7  1  0
 20 10  1  0
  1 22  1  0
  1 23  1  0
  1 24  1  0
  2 25  1  0
  2 26  1  0
  4 27  1  0
  4 28  1  0
  5 29  1  0
  5 30  1  0
  6 31  1  0
  8 32  1  0
  9 33  1  0
 11 34  1  0
 14 35  1  0
 21 36  1  0
M  CHG  2  14  -1  19  -1
M  END
>  <UniqueID>  (3) 
3

>  <SMILES>  (3) 
CCN(CCO)c1ccc2cc(C([NH-])=O)n(C(=O)[O-])c2c1

>  <Energy>  (3) 
73.32284269418457

>  <Genealogy>  (3) 
CCN(CCO)c1ccc2cc(C([NH-])=O)n(C(=O)[O-])c2c1 (protonated)
CCN(CCO)c1ccc2cc(C([NH-])=O)n(C(=O)[O-])c2c1 (3D coordinates assigned)
CCN(CCO)c1ccc2cc(C([NH-])=O)n(C(=O)[O-])c2c1 (optimized conformer: 73.32284269418457 kcal/mol)

>  <smiles>  (3) 
CCN(CCO)c1ccc2cc(C(N)=O)n(C(=O)O)c2c1

>  <score_type>  (3) 
oracle

>  <origin>  (3) 
adg

>  <m_score__min__energy>  (3) 
-6.0199999999999996

>  <m_primary>  (3) 
energy

$$$$
3:0
     RDKit          3D

 39 41  0  0  0  0  0  0  0  0999 V2000
  149.3870  160.0540  130.7940 C   0  0  0  0  0  0  0  0  0  0  0  0
  149.0630  158.8990  131.3730 C   0  0  0  0  0  0  0  0  0  0  0  0
  148.5490  158.8130  132.7530 C   0  0  0  0  0  0  0  0  0  0  0  0
  149.2020  159.3620  133.6800 O   0  0  0  0  0  0  0  0  0  0  0  0
  147.3210  158.1350  133.0650 N   0  0  0  0  0  0  0  0  0  0  0  0
  146.1140  158.6830  133.3880 C   0  0  0  0  0  0  0  0  0  0  0  0
  145.7870  160.1230  133.3810 C   0  0  0  0  0  0  0  0  0  0  0  0
  146.7600  161.1110  133.7220 N   0  0  0  0  0  0  0  0  0  0  0  0
  144.6340  160.4920  133.0280 O   0  0  0  0  0  0  0  0  0  0  0  0
  145.1970  157.6860  133.7140 C   0  0  0  0  0  0  0  0  0  0  0  0
  145.8790  156.4990  133.5590 C   0  0  0  0  0  0  0  0  0  0  0  0
  145.4550  155.1870  133.7540 C   0  0  0  0  0  0  0  0  0  0  0  0
  146.3870  154.1560  133.5390 C   0  0  0  0  0  0  0  0  0  0  0  0
  147.7110  154.4560  133.1430 C   0  0  0  0  0  0  0  0  0  0  0  0
  148.6510  153.4000  132.9350 N   0  0  0  0  0  0  0  0  0  0  0  0
  149.5950  152.9700  131.8890 C   0  0  0  0  0  0  0  0  0  0  0  0
  150.1050  151.7670  132.6190 C   0  0  0  0  0  0  0  0  0  0  0  0
  149.6940  150.5520  132.0260 O   0  0  0  0  0  0  0  0  0  0  0  0
  150.3590  150.3920  130.7930 C   0  0  0  0  0  0  0  0  0  0  0  0
  149.1400  152.2170  133.6670 C   0  0  0  0  0  0  0  0  0  0  0  0
  148.1080  155.7960  132.9560 C   0  0  0  0  0  0  0  0  0  0  0  0
  147.1570  156.8000  133.1640 C   0  0  0  0  0  0  0  0  0  0  0  0
  149.7663  160.0643  129.7615 H   0  0  0  0  0  0  0  0  0  0  0  0
  149.2752  160.9975  131.3483 H   0  0  0  0  0  0  0  0  0  0  0  0
  149.1839  157.9694  130.7974 H   0  0  0  0  0  0  0  0  0  0  0  0
  146.4880  162.1180  133.7700 H   0  0  0  0  0  0  0  0  0  0  0  0
  147.7680  160.8650  133.8280 H   0  0  0  0  0  0  0  0  0  0  0  0
  144.1512  157.8184  134.0282 H   0  0  0  0  0  0  0  0  0  0  0  0
  144.4241  154.9641  134.0662 H   0  0  0  0  0  0  0  0  0  0  0  0
  146.0837  153.1081  133.6800 H   0  0  0  0  0  0  0  0  0  0  0  0
  149.0935  152.7123  130.9445 H   0  0  0  0  0  0  0  0  0  0  0  0
  150.3408  153.7061  131.5544 H   0  0  0  0  0  0  0  0  0  0  0  0
  151.1720  151.5623  132.7910 H   0  0  0  0  0  0  0  0  0  0  0  0
  151.4137  150.1382  130.9754 H   0  0  0  0  0  0  0  0  0  0  0  0
  149.8809  149.5832  130.2208 H   0  0  0  0  0  0  0  0  0  0  0  0
  150.3012  151.3297  130.2208 H   0  0  0  0  0  0  0  0  0  0  0  0
  148.3471  151.4790  133.8586 H   0  0  0  0  0  0  0  0  0  0  0  0
  149.5412  152.3846  134.6774 H   0  0  0  0  0  0  0  0  0  0  0  0
  149.1364  156.0446  132.6551 H   0  0  0  0  0  0  0  0  0  0  0  0
  1  2  2  0
  2  3  1  0
  3  4  2  0
  3  5  1  0
  5  6  1  0
  6  7  1  0
  7  8  1  0
  7  9  2  0
  6 10  2  0
 10 11  1  0
 11 12  2  0
 12 13  1  0
 13 14  2  0
 14 15  1  0
 15 16  1  0
 16 17  1  0
 17 18  1  0
 18 19  1  0
 17 20  1  0
 14 21  1  0
 21 22  2  0
 22  5  1  0
 22 11  1  0
 20 15  1  0
  1 23  1  0
  1 24  1  0
  2 25  1  0
  8 26  1  0
  8 27  1  0
 10 28  1  0
 12 29  1  0
 13 30  1  0
 16 31  1  0
 16 32  1  0
 17 33  1  0
 19 34  1  0
 19 35  1  0
 19 36  1  0
 20 37  1  0
 20 38  1  0
 21 39  1  0
M  END
>  <UniqueID>  (4) 
4

>  <SMILES>  (4) 
C=CC(=O)n1c(C(N)=O)cc2ccc(N3CC(OC)C3)cc21

>  <Energy>  (4) 
124.28447831455587

>  <Genealogy>  (4) 
C=CC(=O)n1c(C(N)=O)cc2ccc(N3CC(OC)C3)cc21 (3D coordinates assigned)
C=CC(=O)n1c(C(N)=O)cc2ccc(N3CC(OC)C3)cc21 (nonaromatic ring conformer: 124.28447831455587 kcal/mol)

>  <smiles>  (4) 
C=CC(=O)n1c(C(N)=O)cc2ccc(N3CC(OC)C3)cc21

>  <score_type>  (4) 
oracle

>  <origin>  (4) 
adg

>  <m_score__min__energy>  (4) 
-7.1299999999999999

>  <m_primary>  (4) 
energy

$$$$
4:0
     RDKit          3D

 33 34  0  0  0  0  0  0  0  0999 V2000
  147.7210  155.9860  135.1580 C   0  0  0  0  0  0  0  0  0  0  0  0
  146.8220  155.8620  134.1830 C   0  0  0  0  0  0  0  0  0  0  0  0
  146.8720  156.6740  132.9520 C   0  0  0  0  0  0  0  0  0  0  0  0
  147.0460  156.1240  131.8310 O   0  0  0  0  0  0  0  0  0  0  0  0
  146.7180  158.1000  133.0250 N   0  0  0  0  0  0  0  0  0  0  0  0
  147.6780  159.0500  132.8420 C   0  0  0  0  0  0  0  0  0  0  0  0
  149.0660  158.8090  132.3960 C   0  0  0  0  0  0  0  0  0  0  0  0
  149.5600  157.4840  132.2130 N   0  0  0  0  0  0  0  0  0  0  0  0
  149.8190  159.7870  132.1410 O   0  0  0  0  0  0  0  0  0  0  0  0
  147.1540  160.3210  133.0760 C   0  0  0  0  0  0  0  0  0  0  0  0
  145.8350  160.1170  133.4110 C   0  0  0  0  0  0  0  0  0  0  0  0
  144.8460  161.0320  133.7580 C   0  0  0  0  0  0  0  0  0  0  0  0
  143.5750  160.5350  134.0890 C   0  0  0  0  0  0  0  0  0  0  0  0
  143.3130  159.1400  134.0740 C   0  0  0  0  0  0  0  0  0  0  0  0
  141.9390  158.6260  134.4530 C   0  0  2  0  0  0  0  0  0  0  0  0
  140.8850  159.0560  133.4250 C   0  0  0  0  0  0  0  0  0  0  0  0
  141.5700  159.0720  135.8420 C   0  0  0  0  0  0  0  0  0  0  0  0
  142.0930  158.5100  136.8400 O   0  0  0  0  0  0  0  0  0  0  0  0
  140.7000  160.1380  136.0400 O   0  0  0  0  0  0  0  0  0  0  0  0
  144.3490  158.2430  133.7210 C   0  0  0  0  0  0  0  0  0  0  0  0
  145.5980  158.7680  133.3760 C   0  0  0  0  0  0  0  0  0  0  0  0
  147.6451  155.3596  136.0590 H   0  0  0  0  0  0  0  0  0  0  0  0
  148.5393  156.7148  135.0622 H   0  0  0  0  0  0  0  0  0  0  0  0
  146.0121  155.1269  134.2999 H   0  0  0  0  0  0  0  0  0  0  0  0
  149.0750  156.8130  131.5770 H   0  0  0  0  0  0  0  0  0  0  0  0
  147.6831  161.2830  133.0073 H   0  0  0  0  0  0  0  0  0  0  0  0
  145.0534  162.1122  133.7726 H   0  0  0  0  0  0  0  0  0  0  0  0
  142.7724  161.2355  134.3633 H   0  0  0  0  0  0  0  0  0  0  0  0
  141.9697  157.5264  134.4498 H   0  0  0  0  0  0  0  0  0  0  0  0
  139.9894  159.4213  133.9489 H   0  0  0  0  0  0  0  0  0  0  0  0
  141.2941  159.8591  132.7944 H   0  0  0  0  0  0  0  0  0  0  0  0
  140.6156  158.1959  132.7944 H   0  0  0  0  0  0  0  0  0  0  0  0
  144.1755  157.1568  133.7181 H   0  0  0  0  0  0  0  0  0  0  0  0
  1  2  2  0
  2  3  1  0
  3  4  2  0
  3  5  1  0
  5  6  1  0
  6  7  1  0
  7  8  1  0
  7  9  2  0
  6 10  2  0
 10 11  1  0
 11 12  2  0
 12 13  1  0
 13 14  2  0
 14 15  1  0
 15 16  1  0
 15 17  1  0
 17 18  2  0
 17 19  1  0
 14 20  1  0
 20 21  2  0
 21  5  1  0
 21 11  1  0
  1 22  1  0
  1 23  1  0
  2 24  1  0
  8 25  1  0
 10 26  1  0
 12 27  1  0
 13 28  1  0
 15 29  1  1
 16 30  1  0
 16 31  1  0
 16 32  1  0
 20 33  1  0
M  CHG  2   8  -1  19  -1
M  END
>  <UniqueID>  (5) 
5

>  <SMILES>  (5) 
C=CC(=O)n1c(C([NH-])=O)cc2ccc([C@H](C)C(=O)[O-])cc21

>  <Energy>  (5) 
69.99371509823916

>  <Genealogy>  (5) 
C=CC(=O)n1c(C([NH-])=O)cc2ccc(C(C)C(=O)[O-])cc21 (protonated)
C=CC(=O)n1c(C([NH-])=O)cc2ccc([C@H](C)C(=O)[O-])cc21 (chirality)
C=CC(=O)n1c(C([NH-])=O)cc2ccc([C@H](C)C(=O)[O-])cc21 (3D coordinates assigned)
C=CC(=O)n1c(C([NH-])=O)cc2ccc([C@H](C)C(=O)[O-])cc21 (optimized conformer: 69.99371509823916 kcal/mol)

>  <smiles>  (5) 
C=CC(=O)n1c(C(N)=O)cc2ccc(C(C)C(=O)O)cc21

>  <score_type>  (5) 
oracle

>  <origin>  (5) 
adg

>  <m_score__min__energy>  (5) 
-6.4900000000000002

>  <m_primary>  (5) 
energy

$$$$
5:0
     RDKit          3D

 45 47  0  0  0  0  0  0  0  0999 V2000
  138.3520  158.2470  131.3740 C   0  0  0  0  0  0  0  0  0  0  0  0
  139.1740  159.4440  131.5930 N   0  0  0  0  0  0  0  0  0  0  0  0
  139.1460  160.5250  130.6010 C   0  0  0  0  0  0  0  0  0  0  0  0
  139.9880  159.6220  132.7790 C   0  0  0  0  0  0  0  0  0  0  0  0
  140.5020  160.7530  133.0040 O   0  0  0  0  0  0  0  0  0  0  0  0
  140.3170  158.5060  133.7550 C   0  0  2  0  0  0  0  0  0  0  0  0
  139.1140  158.1090  134.6090 C   0  0  0  0  0  0  0  0  0  0  0  0
  139.6660  157.8630  136.0100 C   0  0  0  0  0  0  0  0  0  0  0  0
  141.0190  158.5630  136.0660 C   0  0  0  0  0  0  0  0  0  0  0  0
  141.3850  158.8570  134.6870 N   0  0  0  0  0  0  0  0  0  0  0  0
  142.7210  159.2580  134.2980 C   0  0  0  0  0  0  0  0  0  0  0  0
  143.0250  160.6320  134.1030 C   0  0  0  0  0  0  0  0  0  0  0  0
  144.3080  161.0400  133.7020 C   0  0  0  0  0  0  0  0  0  0  0  0
  145.2720  160.0580  133.5080 C   0  0  0  0  0  0  0  0  0  0  0  0
  146.5810  160.1740  133.0990 C   0  0  0  0  0  0  0  0  0  0  0  0
  147.0750  158.8710  133.0680 C   0  0  0  0  0  0  0  0  0  0  0  0
  148.4830  158.5300  132.7700 C   0  0  0  0  0  0  0  0  0  0  0  0
  148.8040  157.4960  131.8390 N   0  0  0  0  0  0  0  0  0  0  0  0
  149.4180  159.1750  133.3160 O   0  0  0  0  0  0  0  0  0  0  0  0
  146.1080  157.9850  133.4410 N   0  0  0  0  0  0  0  0  0  0  0  0
  146.1960  156.5510  133.4700 C   0  0  0  0  0  0  0  0  0  0  0  0
  146.6260  155.8340  132.3150 N   0  0  0  0  0  0  0  0  0  0  0  0
  145.8740  155.9160  134.5090 O   0  0  0  0  0  0  0  0  0  0  0  0
  145.0100  158.7300  133.7070 C   0  0  0  0  0  0  0  0  0  0  0  0
  143.7380  158.2930  134.0920 C   0  0  0  0  0  0  0  0  0  0  0  0
  138.0592  157.8206  132.3448 H   0  0  0  0  0  0  0  0  0  0  0  0
  137.4502  158.5203  130.8066 H   0  0  0  0  0  0  0  0  0  0  0  0
  138.9309  157.5034  130.8066 H   0  0  0  0  0  0  0  0  0  0  0  0
  139.1208  161.4959  131.1174 H   0  0  0  0  0  0  0  0  0  0  0  0
  140.0459  160.4679  129.9710 H   0  0  0  0  0  0  0  0  0  0  0  0
  138.2502  160.4214  129.9710 H   0  0  0  0  0  0  0  0  0  0  0  0
  140.6343  157.6736  133.1097 H   0  0  0  0  0  0  0  0  0  0  0  0
  138.3713  158.9203  134.6263 H   0  0  0  0  0  0  0  0  0  0  0  0
  138.6086  157.2175  134.2092 H   0  0  0  0  0  0  0  0  0  0  0  0
  138.9875  158.2847  136.7661 H   0  0  0  0  0  0  0  0  0  0  0  0
  139.7636  156.7873  136.2180 H   0  0  0  0  0  0  0  0  0  0  0  0
  140.9422  159.4942  136.6464 H   0  0  0  0  0  0  0  0  0  0  0  0
  141.7758  157.9315  136.5544 H   0  0  0  0  0  0  0  0  0  0  0  0
  142.2435  161.3882  134.2686 H   0  0  0  0  0  0  0  0  0  0  0  0
  144.5423  162.1034  133.5464 H   0  0  0  0  0  0  0  0  0  0  0  0
  147.1223  161.0985  132.8496 H   0  0  0  0  0  0  0  0  0  0  0  0
  149.8000  157.2910  131.6060 H   0  0  0  0  0  0  0  0  0  0  0  0
  148.0590  156.9050  131.4070 H   0  0  0  0  0  0  0  0  0  0  0  0
  146.1830  156.0020  131.3840 H   0  0  0  0  0  0  0  0  0  0  0  0
  143.5315  157.2217  134.2320 H   0  0  0  0  0  0  0  0  0  0  0  0
  1  2  1  0
  2  3  1  0
  2  4  1  0
  4  5  2  0
  4  6  1  0
  6  7  1  0
  7  8  1  0
  8  9  1  0
  9 10  1  0
 10 11  1  0
 11 12  2  0
 12 13  1  0
 13 14  2  0
 14 15  1  0
 15 16  2  0
 16 17  1  0
 17 18  1  0
 17 19  2  0
 16 20  1  0
 20 21  1  0
 21 22  1  0
 21 23  2  0
 20 24  1  0
 24 25  2  0
 10  6  1  0
 25 11  1  0
 24 14  1  0
  1 26  1  0
  1 27  1  0
  1 28  1  0
  3 29  1  0
  3 30  1  0
  3 31  1  0
  6 32  1  6
  7 33  1  0
  7 34  1  0
  8 35  1  0
  8 36  1  0
  9 37  1  0
  9 38  1  0
 12 39  1  0
 13 40  1  0
 15 41  1  0
 18 42  1  0
 18 43  1  0
 22 44  1  0
 25 45  1  0
M  CHG  1  22  -1
M  END
>  <UniqueID>  (6) 
6

>  <SMILES>  (6) 
CN(C)C(=O)[C@@H]1CCCN1c1ccc2cc(C(N)=O)n(C([NH-])=O)c2c1

>  <Energy>  (6) 
86.42777943184012

>  <Genealogy>  (6) 
CN(C)C(=O)C1CCCN1c1ccc2cc(C(N)=O)n(C([NH-])=O)c2c1 (protonated)
CN(C)C(=O)[C@@H]1CCCN1c1ccc2cc(C(N)=O)n(C([NH-])=O)c2c1 (chirality)
CN(C)C(=O)[C@@H]1CCCN1c1ccc2cc(C(N)=O)n(C([NH-])=O)c2c1 (3D coordinates assigned)
CN(C)C(=O)[C@@H]1CCCN1c1ccc2cc(C(N)=O)n(C([NH-])=O)c2c1 (nonaromatic ring conformer: 86.42777943184012 kcal/mol)

>  <smiles>  (6) 
CN(C)C(=O)C1CCCN1c1ccc2cc(C(N)=O)n(C(N)=O)c2c1

>  <score_type>  (6) 
oracle

>  <origin>  (6) 
adg

>  <m_score__min__energy>  (6) 
-8.5800000000000001

>  <m_primary>  (6) 
energy

$$$$
6:0
     RDKit          3D

 55 58  0  0  0  0  0  0  0  0999 V2000
  139.4840  149.2830  129.5830 C   0  0  0  0  0  0  0  0  0  0  0  0
  139.7350  149.1170  131.0240 N   0  0  0  0  0  0  0  0  0  0  0  0
  139.1240  150.2210  131.8110 C   0  0  0  0  0  0  0  0  0  0  0  0
  140.1490  151.2710  132.2630 C   0  0  0  0  0  0  0  0  0  0  0  0
  141.2490  150.6400  133.1450 C   0  0  0  0  0  0  0  0  0  0  0  0
  142.4450  151.4980  133.1250 N   0  0  0  0  0  0  0  0  0  0  0  0
  142.4540  152.7980  133.4940 C   0  0  0  0  0  0  0  0  0  0  0  0
  143.6900  153.3360  133.1760 C   0  0  0  0  0  0  0  0  0  0  0  0
  144.1010  154.7540  133.2480 C   0  0  0  0  0  0  0  0  0  0  0  0
  145.4770  155.0970  133.3110 C   0  0  0  0  0  0  0  0  0  0  0  0
  145.8760  156.4350  133.4530 C   0  0  0  0  0  0  0  0  0  0  0  0
  144.8860  157.4060  133.5360 C   0  0  0  0  0  0  0  0  0  0  0  0
  145.0050  158.7690  133.6390 C   0  0  0  0  0  0  0  0  0  0  0  0
  143.7020  159.2570  133.6350 C   0  0  0  0  0  0  0  0  0  0  0  0
  143.3890  160.7010  133.7380 C   0  0  0  0  0  0  0  0  0  0  0  0
  144.4160  161.6770  133.8830 N   0  0  0  0  0  0  0  0  0  0  0  0
  142.1880  161.0820  133.6570 O   0  0  0  0  0  0  0  0  0  0  0  0
  142.8020  158.2310  133.5430 N   0  0  0  0  0  0  0  0  0  0  0  0
  141.3730  158.3350  133.3700 C   0  0  0  0  0  0  0  0  0  0  0  0
  140.9160  158.8570  132.3140 O   0  0  0  0  0  0  0  0  0  0  0  0
  140.4050  157.8500  134.4240 C   0  0  2  0  0  0  0  0  0  0  0  0
  141.0080  158.6160  136.3370 I   0  0  0  0  0  0  0  0  0  0  0  0
  140.3400  156.3150  134.4890 C   0  0  0  0  0  0  0  0  0  0  0  0
  139.8200  155.7360  133.2100 C   0  0  0  0  0  0  0  0  0  0  0  0
  140.0480  154.5340  132.9160 O   0  0  0  0  0  0  0  0  0  0  0  0
  139.1180  156.5410  132.3190 O   0  0  0  0  0  0  0  0  0  0  0  0
  143.5480  157.1010  133.4770 C   0  0  0  0  0  0  0  0  0  0  0  0
  143.1260  155.7750  133.3060 C   0  0  0  0  0  0  0  0  0  0  0  0
  144.4020  152.2920  132.6080 C   0  0  0  0  0  0  0  0  0  0  0  0
  143.6140  151.2030  132.5740 N   0  0  0  0  0  0  0  0  0  0  0  0
  141.5470  149.1700  132.7460 C   0  0  0  0  0  0  0  0  0  0  0  0
  141.1810  148.9040  131.2780 C   0  0  0  0  0  0  0  0  0  0  0  0
  138.5747  149.8843  129.4361 H   0  0  0  0  0  0  0  0  0  0  0  0
  140.3403  149.7935  129.1181 H   0  0  0  0  0  0  0  0  0  0  0  0
  139.3494  148.2952  129.1181 H   0  0  0  0  0  0  0  0  0  0  0  0
  138.3645  150.7170  131.1888 H   0  0  0  0  0  0  0  0  0  0  0  0
  138.6850  149.7770  132.7166 H   0  0  0  0  0  0  0  0  0  0  0  0
  140.6165  151.7207  131.3746 H   0  0  0  0  0  0  0  0  0  0  0  0
  139.6245  152.0346  132.8562 H   0  0  0  0  0  0  0  0  0  0  0  0
  140.8885  150.5855  134.1828 H   0  0  0  0  0  0  0  0  0  0  0  0
  141.6204  153.3378  133.9671 H   0  0  0  0  0  0  0  0  0  0  0  0
  146.2386  154.3058  133.2479 H   0  0  0  0  0  0  0  0  0  0  0  0
  146.9410  156.7068  133.4973 H   0  0  0  0  0  0  0  0  0  0  0  0
  145.9346  159.3529  133.7098 H   0  0  0  0  0  0  0  0  0  0  0  0
  145.2730  161.6470  133.2860 H   0  0  0  0  0  0  0  0  0  0  0  0
  139.4028  158.2153  134.1553 H   0  0  0  0  0  0  0  0  0  0  0  0
  141.3501  155.9215  134.6755 H   0  0  0  0  0  0  0  0  0  0  0  0
  139.6547  156.0315  135.3014 H   0  0  0  0  0  0  0  0  0  0  0  0
  142.0563  155.5341  133.2186 H   0  0  0  0  0  0  0  0  0  0  0  0
  145.4391  152.3451  132.2453 H   0  0  0  0  0  0  0  0  0  0  0  0
  143.8710  150.2920  132.1330 H   0  0  0  0  0  0  0  0  0  0  0  0
  142.6191  148.9702  132.8897 H   0  0  0  0  0  0  0  0  0  0  0  0
  140.9389  148.5084  133.3804 H   0  0  0  0  0  0  0  0  0  0  0  0
  141.7594  149.5861  130.6375 H   0  0  0  0  0  0  0  0  0  0  0  0
  141.4171  147.8538  131.0514 H   0  0  0  0  0  0  0  0  0  0  0  0
  1  2  1  0
  2  3  1  0
  3  4  1  0
  4  5  1  0
  5  6  1  0
  6  7  1  0
  7  8  2  0
  8  9  1  0
  9 10  2  0
 10 11  1  0
 11 12  2  0
 12 13  1  0
 13 14  2  0
 14 15  1  0
 15 16  1  0
 15 17  2  0
 14 18  1  0
 18 19  1  0
 19 20  2  0
 19 21  1  0
 21 22  1  0
 21 23  1  0
 23 24  1  0
 24 25  2  0
 24 26  1  0
 18 27  1  0
 27 28  2  0
  8 29  1  0
 29 30  2  0
  5 31  1  0
 31 32  1  0
 32  2  1  0
 30  6  1  0
 28  9  1  0
 27 12  1  0
  1 33  1  0
  1 34  1  0
  1 35  1  0
  3 36  1  0
  3 37  1  0
  4 38  1  0
  4 39  1  0
  5 40  1  0
  7 41  1  0
 10 42  1  0
 11 43  1  0
 13 44  1  0
 16 45  1  0
 21 46  1  6
 23 47  1  0
 23 48  1  0
 28 49  1  0
 29 50  1  0
 30 51  1  0
 31 52  1  0
 31 53  1  0
 32 54  1  0
 32 55  1  0
M  CHG  3  16  -1  26  -1  30   1
M  END
>  <UniqueID>  (7) 
7

>  <SMILES>  (7) 
CN1CCC(n2cc(-c3ccc4cc(C([NH-])=O)n(C(=O)[C@H](I)CC(=O)[O-])c4c3)c[nH+]2)CC1

>  <Energy>  (7) 
137.4420819075967

>  <Genealogy>  (7) 
CN1CCC(n2cc(-c3ccc4cc(C([NH-])=O)n(C(=O)C(I)CC(=O)[O-])c4c3)c[nH+]2)CC1 (protonated)
CN1CCC(n2cc(-c3ccc4cc(C([NH-])=O)n(C(=O)[C@H](I)CC(=O)[O-])c4c3)c[nH+]2)CC1 (chirality)
CN1CCC(n2cc(-c3ccc4cc(C([NH-])=O)n(C(=O)[C@H](I)CC(=O)[O-])c4c3)c[nH+]2)CC1 (3D coordinates assigned)
CN1CCC(n2cc(-c3ccc4cc(C([NH-])=O)n(C(=O)[C@H](I)CC(=O)[O-])c4c3)c[nH+]2)CC1 (nonaromatic ring conformer: 137.4420819075967 kcal/mol)

>  <smiles>  (7) 
CN1CCC(n2cc(-c3ccc4cc(C(N)=O)n(C(=O)C(I)CC(=O)O)c4c3)cn2)CC1

>  <score_type>  (7) 
oracle

>  <origin>  (7) 
adg

>  <m_score__min__energy>  (7) 
-10.1

>  <m_primary>  (7) 
energy

$$$$
7:0
     RDKit          3D

 43 44  0  0  0  0  0  0  0  0999 V2000
  149.5950  159.3810  129.7110 C   0  0  0  0  0  0  0  0  0  0  0  0
  149.0460  159.8610  130.9840 N   0  0  0  0  0  0  0  0  0  0  0  0
  148.6250  161.2600  131.1160 C   0  0  0  0  0  0  0  0  0  0  0  0
  148.9040  158.9270  132.0780 C   0  0  0  0  0  0  0  0  0  0  0  0
  149.1180  157.7000  131.8790 O   0  0  0  0  0  0  0  0  0  0  0  0
  148.4860  159.3620  133.4590 C   0  0  0  0  0  0  0  0  0  0  0  0
  146.9910  159.5160  133.5570 C   0  0  0  0  0  0  0  0  0  0  0  0
  146.4110  160.8010  133.7090 C   0  0  0  0  0  0  0  0  0  0  0  0
  145.0170  160.9500  133.8270 C   0  0  0  0  0  0  0  0  0  0  0  0
  144.2330  159.8010  133.7900 C   0  0  0  0  0  0  0  0  0  0  0  0
  142.8690  159.6510  133.9040 C   0  0  0  0  0  0  0  0  0  0  0  0
  142.6370  158.2790  133.8080 C   0  0  0  0  0  0  0  0  0  0  0  0
  141.2900  157.6740  133.8070 C   0  0  0  0  0  0  0  0  0  0  0  0
  141.0270  156.4690  133.0930 N   0  0  0  0  0  0  0  0  0  0  0  0
  140.3450  158.2480  134.4140 O   0  0  0  0  0  0  0  0  0  0  0  0
  143.8150  157.6110  133.6490 N   0  0  0  0  0  0  0  0  0  0  0  0
  144.0260  156.1950  133.5730 C   0  0  0  0  0  0  0  0  0  0  0  0
  143.9110  155.6030  132.4660 O   0  0  0  0  0  0  0  0  0  0  0  0
  144.4640  155.4210  134.7820 C   0  0  0  0  0  0  0  0  0  0  0  0
  145.7970  155.7550  135.1180 O   0  0  0  0  0  0  0  0  0  0  0  0
  146.6700  154.6650  134.8850 C   0  0  0  0  0  0  0  0  0  0  0  0
  147.2640  154.1800  136.1720 C   0  0  0  0  0  0  0  0  0  0  0  0
  148.2060  154.8190  136.7130 O   0  0  0  0  0  0  0  0  0  0  0  0
  146.8300  152.9880  136.7400 O   0  0  0  0  0  0  0  0  0  0  0  0
  144.7780  158.5530  133.6370 C   0  0  0  0  0  0  0  0  0  0  0  0
  146.1600  158.3710  133.5300 C   0  0  0  0  0  0  0  0  0  0  0  0
  150.4097  158.6687  129.9084 H   0  0  0  0  0  0  0  0  0  0  0  0
  148.8023  158.8810  129.1351 H   0  0  0  0  0  0  0  0  0  0  0  0
  149.9846  160.2333  129.1351 H   0  0  0  0  0  0  0  0  0  0  0  0
  148.5467  161.5203  132.1819 H   0  0  0  0  0  0  0  0  0  0  0  0
  149.3664  161.9132  130.6326 H   0  0  0  0  0  0  0  0  0  0  0  0
  147.6463  161.3956  130.6326 H   0  0  0  0  0  0  0  0  0  0  0  0
  148.8166  158.6071  134.1875 H   0  0  0  0  0  0  0  0  0  0  0  0
  148.9493  160.3371  133.6702 H   0  0  0  0  0  0  0  0  0  0  0  0
  147.0576  161.6905  133.7349 H   0  0  0  0  0  0  0  0  0  0  0  0
  144.5610  161.9440  133.9449 H   0  0  0  0  0  0  0  0  0  0  0  0
  142.1206  160.4453  134.0417 H   0  0  0  0  0  0  0  0  0  0  0  0
  141.7860  155.9810  132.5670 H   0  0  0  0  0  0  0  0  0  0  0  0
  143.8041  155.6639  135.6279 H   0  0  0  0  0  0  0  0  0  0  0  0
  144.4081  154.3452  134.5597 H   0  0  0  0  0  0  0  0  0  0  0  0
  146.1070  153.8451  134.4152 H   0  0  0  0  0  0  0  0  0  0  0  0
  147.4828  154.9973  134.2225 H   0  0  0  0  0  0  0  0  0  0  0  0
  146.5902  157.3638  133.4275 H   0  0  0  0  0  0  0  0  0  0  0  0
  1  2  1  0
  2  3  1  0
  2  4  1  0
  4  5  2  0
  4  6  1  0
  6  7  1  0
  7  8  2  0
  8  9  1  0
  9 10  2  0
 10 11  1  0
 11 12  2  0
 12 13  1  0
 13 14  1  0
 13 15  2  0
 12 16  1  0
 16 17  1  0
 17 18  2  0
 17 19  1  0
 19 20  1  0
 20 21  1  0
 21 22  1  0
 22 23  2  0
 22 24  1  0
 16 25  1  0
 25 26  2  0
 26  7  1  0
 25 10  1  0
  1 27  1  0
  1 28  1  0
  1 29  1  0
  3 30  1  0
  3 31  1  0
  3 32  1  0
  6 33  1  0
  6 34  1  0
  8 35  1  0
  9 36  1  0
 11 37  1  0
 14 38  1  0
 19 39  1  0
 19 40  1  0
 21 41  1  0
 21 42  1  0
 26 43  1  0
M  CHG  2  14  -1  24  -1
M  END
>  <UniqueID>  (8) 
8

>  <SMILES>  (8) 
CN(C)C(=O)Cc1ccc2cc(C([NH-])=O)n(C(=O)COCC(=O)[O-])c2c1

>  <Energy>  (8) 
80.29144191887673

>  <Genealogy>  (8) 
CN(C)C(=O)Cc1ccc2cc(C([NH-])=O)n(C(=O)COCC(=O)[O-])c2c1 (protonated)
CN(C)C(=O)Cc1ccc2cc(C([NH-])=O)n(C(=O)COCC(=O)[O-])c2c1 (3D coordinates assigned)
CN(C)C(=O)Cc1ccc2cc(C([NH-])=O)n(C(=O)COCC(=O)[O-])c2c1 (optimized conformer: 80.29144191887673 kcal/mol)

>  <smiles>  (8) 
CN(C)C(=O)Cc1ccc2cc(C(N)=O)n(C(=O)COCC(=O)O)c2c1

>  <score_type>  (8) 
oracle

>  <origin>  (8) 
adg

>  <m_score__min__energy>  (8) 
-7.3899999999999997

>  <m_primary>  (8) 
energy

$$$$
8:0
     RDKit          3D

 43 45  0  0  0  0  0  0  0  0999 V2000
  149.1240  159.6690  131.1970 C   0  0  0  0  0  0  0  0  0  0  0  0
  149.1880  158.6940  132.1010 C   0  0  0  0  0  0  0  0  0  0  0  0
  148.4690  158.7560  133.3880 C   0  0  0  0  0  0  0  0  0  0  0  0
  148.9740  159.3640  134.3710 O   0  0  0  0  0  0  0  0  0  0  0  0
  147.1790  158.1380  133.5230 N   0  0  0  0  0  0  0  0  0  0  0  0
  145.9670  158.7570  133.5920 C   0  0  0  0  0  0  0  0  0  0  0  0
  145.7400  160.2120  133.4310 C   0  0  0  0  0  0  0  0  0  0  0  0
  146.7740  161.1530  133.7290 N   0  0  0  0  0  0  0  0  0  0  0  0
  144.6190  160.6380  133.0460 O   0  0  0  0  0  0  0  0  0  0  0  0
  144.9510  157.8170  133.7630 C   0  0  0  0  0  0  0  0  0  0  0  0
  145.5860  156.5960  133.8010 C   0  0  0  0  0  0  0  0  0  0  0  0
  145.0600  155.3180  133.9660 C   0  0  0  0  0  0  0  0  0  0  0  0
  145.9560  154.2360  133.9910 C   0  0  0  0  0  0  0  0  0  0  0  0
  147.3510  154.4490  133.8560 C   0  0  0  0  0  0  0  0  0  0  0  0
  148.3000  153.2740  133.8720 C   0  0  0  0  0  0  0  0  0  0  0  0
  148.5080  152.5840  132.4970 C   0  0  0  0  0  0  0  0  0  0  0  0
  149.9720  152.1680  132.2340 C   0  0  0  0  0  0  0  0  0  0  0  0
  150.3270  150.7680  132.7910 C   0  0  0  0  0  0  0  0  0  0  0  0
  149.2160  150.0800  133.3360 O   0  0  0  0  0  0  0  0  0  0  0  0
  148.1680  150.0380  132.3920 C   0  0  0  0  0  0  0  0  0  0  0  0
  147.5190  151.4220  132.2310 C   0  0  0  0  0  0  0  0  0  0  0  0
  147.8470  155.7630  133.7100 C   0  0  0  0  0  0  0  0  0  0  0  0
  146.9300  156.8170  133.6600 C   0  0  0  0  0  0  0  0  0  0  0  0
  149.6775  159.5789  130.2507 H   0  0  0  0  0  0  0  0  0  0  0  0
  148.5175  160.5648  131.3963 H   0  0  0  0  0  0  0  0  0  0  0  0
  149.8007  157.8076  131.8800 H   0  0  0  0  0  0  0  0  0  0  0  0
  147.7360  160.8430  133.9870 H   0  0  0  0  0  0  0  0  0  0  0  0
  146.5880  162.1770  133.6470 H   0  0  0  0  0  0  0  0  0  0  0  0
  143.8715  158.0101  133.8492 H   0  0  0  0  0  0  0  0  0  0  0  0
  143.9767  155.1600  134.0735 H   0  0  0  0  0  0  0  0  0  0  0  0
  145.5711  153.2132  134.1166 H   0  0  0  0  0  0  0  0  0  0  0  0
  149.2784  153.6296  134.2275 H   0  0  0  0  0  0  0  0  0  0  0  0
  147.8459  152.5192  134.5308 H   0  0  0  0  0  0  0  0  0  0  0  0
  148.2700  153.3644  131.7592 H   0  0  0  0  0  0  0  0  0  0  0  0
  150.1426  152.1636  131.1473 H   0  0  0  0  0  0  0  0  0  0  0  0
  150.6128  152.8948  132.7547 H   0  0  0  0  0  0  0  0  0  0  0  0
  150.7443  150.1629  131.9726 H   0  0  0  0  0  0  0  0  0  0  0  0
  151.0482  150.9175  133.6080 H   0  0  0  0  0  0  0  0  0  0  0  0
  148.5707  149.7139  131.4210 H   0  0  0  0  0  0  0  0  0  0  0  0
  147.4039  149.3306  132.7465 H   0  0  0  0  0  0  0  0  0  0  0  0
  147.1374  151.5137  131.2034 H   0  0  0  0  0  0  0  0  0  0  0  0
  146.7119  151.4976  132.9746 H   0  0  0  0  0  0  0  0  0  0  0  0
  148.9281  155.9526  133.6374 H   0  0  0  0  0  0  0  0  0  0  0  0
  1  2  2  0
  2  3  1  0
  3  4  2  0
  3  5  1  0
  5  6  1  0
  6  7  1  0
  7  8  1  0
  7  9  2  0
  6 10  2  0
 10 11  1  0
 11 12  2  0
 12 13  1  0
 13 14  2  0
 14 15  1  0
 15 16  1  0
 16 17  1  0
 17 18  1  0
 18 19  1  0
 19 20  1  0
 20 21  1  0
 14 22  1  0
 22 23  2  0
 23  5  1  0
 23 11  1  0
 21 16  1  0
  1 24  1  0
  1 25  1  0
  2 26  1  0
  8 27  1  0
  8 28  1  0
 10 29  1  0
 12 30  1  0
 13 31  1  0
 15 32  1  0
 15 33  1  0
 16 34  1  0
 17 35  1  0
 17 36  1  0
 18 37  1  0
 18 38  1  0
 20 39  1  0
 20 40  1  0
 21 41  1  0
 21 42  1  0
 22 43  1  0
M  END
>  <UniqueID>  (9) 
9

>  <SMILES>  (9) 
C=CC(=O)n1c(C(N)=O)cc2ccc(CC3CCOCC3)cc21

>  <Energy>  (9) 
88.79243765722983

>  <Genealogy>  (9) 
C=CC(=O)n1c(C(N)=O)cc2ccc(CC3CCOCC3)cc21 (3D coordinates assigned)
C=CC(=O)n1c(C(N)=O)cc2ccc(CC3CCOCC3)cc21 (nonaromatic ring conformer: 88.79243765722983 kcal/mol)

>  <smiles>  (9) 
C=CC(=O)n1c(C(N)=O)cc2ccc(CC3CCOCC3)cc21

>  <score_type>  (9) 
oracle

>  <origin>  (9) 
adg

>  <m_score__min__energy>  (9) 
-7.9299999999999997

>  <m_primary>  (9) 
energy

$$$$
9:0
     RDKit          3D

 46 48  0  0  0  0  0  0  0  0999 V2000
  149.6810  157.5230  132.1360 N   0  0  0  0  0  0  0  0  0  0  0  0
  149.1800  158.8530  132.2530 C   0  0  0  0  0  0  0  0  0  0  0  0
  149.9210  159.8210  131.9350 O   0  0  0  0  0  0  0  0  0  0  0  0
  147.8150  159.0830  132.7680 C   0  0  0  0  0  0  0  0  0  0  0  0
  147.2720  160.3470  132.9900 C   0  0  0  0  0  0  0  0  0  0  0  0
  145.9710  160.1210  133.3810 C   0  0  0  0  0  0  0  0  0  0  0  0
  144.9720  161.0180  133.7320 C   0  0  0  0  0  0  0  0  0  0  0  0
  143.7210  160.5020  134.1080 C   0  0  0  0  0  0  0  0  0  0  0  0
  143.4710  159.0950  134.1310 C   0  0  0  0  0  0  0  0  0  0  0  0
  142.1660  158.5670  134.5260 N   0  0  0  0  0  0  0  0  0  0  0  0
  141.7280  158.7010  135.9330 C   0  0  0  0  0  0  0  0  0  0  0  0
  140.3780  158.0360  136.2190 C   0  0  0  0  0  0  0  0  0  0  0  0
  139.4900  158.2070  135.1420 O   0  0  0  0  0  0  0  0  0  0  0  0
  139.9620  157.4480  134.0530 C   0  0  0  0  0  0  0  0  0  0  0  0
  141.2520  158.0470  133.4880 C   0  0  0  0  0  0  0  0  0  0  0  0
  144.5350  158.2220  133.7670 C   0  0  0  0  0  0  0  0  0  0  0  0
  145.7640  158.7700  133.3890 C   0  0  0  0  0  0  0  0  0  0  0  0
  146.8870  158.1170  133.0230 N   0  0  0  0  0  0  0  0  0  0  0  0
  147.0510  156.6930  132.9500 C   0  0  0  0  0  0  0  0  0  0  0  0
  146.9900  156.1210  131.8290 O   0  0  0  0  0  0  0  0  0  0  0  0
  147.2440  155.8960  134.1770 C   0  0  0  0  0  0  0  0  0  0  0  0
  147.7380  156.4390  135.2020 O   0  0  0  0  0  0  0  0  0  0  0  0
  146.8940  154.4360  134.2200 C   0  0  0  0  0  0  0  0  0  0  0  0
  148.1400  153.5770  133.9750 C   0  0  0  0  0  0  0  0  0  0  0  0
  148.6220  153.6740  132.5240 C   0  0  0  0  0  0  0  0  0  0  0  0
  149.5410  154.7220  132.3690 O   0  0  0  0  0  0  0  0  0  0  0  0
  149.0690  156.7470  131.7980 H   0  0  0  0  0  0  0  0  0  0  0  0
  147.7754  161.3185  132.8770 H   0  0  0  0  0  0  0  0  0  0  0  0
  145.1548  162.1026  133.7162 H   0  0  0  0  0  0  0  0  0  0  0  0
  142.9159  161.1961  134.3910 H   0  0  0  0  0  0  0  0  0  0  0  0
  142.4880  158.2382  136.5798 H   0  0  0  0  0  0  0  0  0  0  0  0
  141.6079  159.7759  136.1334 H   0  0  0  0  0  0  0  0  0  0  0  0
  140.5360  156.9604  136.3868 H   0  0  0  0  0  0  0  0  0  0  0  0
  139.9392  158.5067  137.1111 H   0  0  0  0  0  0  0  0  0  0  0  0
  140.1597  156.4196  134.3896 H   0  0  0  0  0  0  0  0  0  0  0  0
  139.1966  157.4533  133.2630 H   0  0  0  0  0  0  0  0  0  0  0  0
  141.7788  157.2659  132.9202 H   0  0  0  0  0  0  0  0  0  0  0  0
  140.9625  158.8996  132.8561 H   0  0  0  0  0  0  0  0  0  0  0  0
  144.3919  157.1315  133.7830 H   0  0  0  0  0  0  0  0  0  0  0  0
  146.4756  154.1931  135.2079 H   0  0  0  0  0  0  0  0  0  0  0  0
  146.1557  154.2241  133.4326 H   0  0  0  0  0  0  0  0  0  0  0  0
  148.9453  153.9197  134.6413 H   0  0  0  0  0  0  0  0  0  0  0  0
  147.8776  152.5283  134.1786 H   0  0  0  0  0  0  0  0  0  0  0  0
  149.1051  152.7271  132.2413 H   0  0  0  0  0  0  0  0  0  0  0  0
  147.7534  153.8710  131.8785 H   0  0  0  0  0  0  0  0  0  0  0  0
  149.0500  155.4680  131.9350 H   0  0  0  0  0  0  0  0  0  0  0  0
  1  2  1  0
  2  3  2  0
  2  4  1  0
  4  5  2  0
  5  6  1  0
  6  7  2  0
  7  8  1  0
  8  9  2  0
  9 10  1  0
 10 11  1  0
 11 12  1  0
 12 13  1  0
 13 14  1  0
 14 15  1  0
  9 16  1  0
 16 17  2  0
 17 18  1  0
 18 19  1  0
 19 20  2  0
 19 21  1  0
 21 22  2  0
 21 23  1  0
 23 24  1  0
 24 25  1  0
 25 26  1  0
 18  4  1  0
 17  6  1  0
 15 10  1  0
  1 27  1  0
  5 28  1  0
  7 29  1  0
  8 30  1  0
 11 31  1  0
 11 32  1  0
 12 33  1  0
 12 34  1  0
 14 35  1  0
 14 36  1  0
 15 37  1  0
 15 38  1  0
 16 39  1  0
 23 40  1  0
 23 41  1  0
 24 42  1  0
 24 43  1  0
 25 44  1  0
 25 45  1  0
 26 46  1  0
M  CHG  1   1  -1
M  END
>  <UniqueID>  (10) 
10

>  <SMILES>  (10) 
[NH-]C(=O)c1cc2ccc(N3CCOCC3)cc2n1C(=O)C(=O)CCCO

>  <Energy>  (10) 
88.77149152777119

>  <Genealogy>  (10) 
[NH-]C(=O)c1cc2ccc(N3CCOCC3)cc2n1C(=O)C(=O)CCCO (protonated)
[NH-]C(=O)c1cc2ccc(N3CCOCC3)cc2n1C(=O)C(=O)CCCO (3D coordinates assigned)
[NH-]C(=O)c1cc2ccc(N3CCOCC3)cc2n1C(=O)C(=O)CCCO (nonaromatic ring conformer: 88.77149152777119 kcal/mol)

>  <smiles>  (10) 
NC(=O)c1cc2ccc(N3CCOCC3)cc2n1C(=O)C(=O)CCCO

>  <score_type>  (10) 
oracle

>  <origin>  (10) 
adg

>  <m_score__min__energy>  (10) 
-7.0999999999999996

>  <m_primary>  (10) 
energy

$$$$
10:0
     RDKit          3D

 33 34  0  0  0  0  0  0  0  0999 V2000
  139.4760  160.0920  131.6970 N   0  0  0  0  0  0  0  0  0  0  0  0
  140.0380  159.5170  132.5300 C   0  0  0  0  0  0  0  0  0  0  0  0
  140.7500  158.7880  133.5840 C   0  0  0  0  0  0  0  0  0  0  0  0
  142.2030  159.1730  133.5830 C   0  0  0  0  0  0  0  0  0  0  0  0
  142.5790  160.5280  133.7470 C   0  0  0  0  0  0  0  0  0  0  0  0
  143.9330  160.9020  133.7330 C   0  0  0  0  0  0  0  0  0  0  0  0
  144.8830  159.9040  133.5350 C   0  0  0  0  0  0  0  0  0  0  0  0
  146.2570  159.9840  133.5110 C   0  0  0  0  0  0  0  0  0  0  0  0
  146.6960  158.6820  133.2900 C   0  0  0  0  0  0  0  0  0  0  0  0
  148.1200  158.3210  133.1360 C   0  0  0  0  0  0  0  0  0  0  0  0
  148.5910  157.0110  133.4580 N   0  0  0  0  0  0  0  0  0  0  0  0
  148.9250  159.1660  132.6620 O   0  0  0  0  0  0  0  0  0  0  0  0
  145.6410  157.8270  133.1920 N   0  0  0  0  0  0  0  0  0  0  0  0
  145.6900  156.3940  133.0920 C   0  0  0  0  0  0  0  0  0  0  0  0
  146.4020  155.8480  132.2050 O   0  0  0  0  0  0  0  0  0  0  0  0
  144.9480  155.6110  133.9830 O   0  0  0  0  0  0  0  0  0  0  0  0
  145.3740  154.3360  134.4550 C   0  0  0  0  0  0  0  0  0  0  0  0
  147.0780  154.4330  135.0860 P   0  0  0  0  0  0  0  0  0  0  0  0
  148.0430  154.0820  133.9780 O   0  0  0  0  0  0  0  0  0  0  0  0
  147.3880  156.0070  135.6210 O   0  0  0  0  0  0  0  0  0  0  0  0
  147.2850  153.3550  136.3710 O   0  0  0  0  0  0  0  0  0  0  0  0
  144.5360  158.5910  133.3430 C   0  0  0  0  0  0  0  0  0  0  0  0
  143.1940  158.1870  133.3740 C   0  0  0  0  0  0  0  0  0  0  0  0
  140.3081  159.0355  134.5605 H   0  0  0  0  0  0  0  0  0  0  0  0
  140.6624  157.7073  133.3983 H   0  0  0  0  0  0  0  0  0  0  0  0
  141.8034  161.2954  133.8867 H   0  0  0  0  0  0  0  0  0  0  0  0
  144.2332  161.9508  133.8741 H   0  0  0  0  0  0  0  0  0  0  0  0
  146.8757  160.8845  133.6391 H   0  0  0  0  0  0  0  0  0  0  0  0
  147.9260  156.2420  133.6920 H   0  0  0  0  0  0  0  0  0  0  0  0
  149.6070  156.7870  133.3830 H   0  0  0  0  0  0  0  0  0  0  0  0
  144.7056  154.0068  135.2642 H   0  0  0  0  0  0  0  0  0  0  0  0
  145.3410  153.6172  133.6230 H   0  0  0  0  0  0  0  0  0  0  0  0
  142.9194  157.1304  133.2392 H   0  0  0  0  0  0  0  0  0  0  0  0
  1  2  3  0
  2  3  1  0
  3  4  1  0
  4  5  2  0
  5  6  1  0
  6  7  2  0
  7  8  1  0
  8  9  2  0
  9 10  1  0
 10 11  1  0
 10 12  2  0
  9 13  1  0
 13 14  1  0
 14 15  2  0
 14 16  1  0
 16 17  1  0
 17 18  1  0
 18 19  2  0
 18 20  1  0
 18 21  1  0
 13 22  1  0
 22 23  2  0
 23  4  1  0
 22  7  1  0
  3 24  1  0
  3 25  1  0
  5 26  1  0
  6 27  1  0
  8 28  1  0
 11 29  1  0
 11 30  1  0
 17 31  1  0
 17 32  1  0
 23 33  1  0
M  CHG  2  20  -1  21  -1
M  END
>  <UniqueID>  (11) 
11

>  <SMILES>  (11) 
N#CCc1ccc2cc(C(N)=O)n(C(=O)OCP(=O)([O-])[O-])c2c1

>  <Energy>  (11) 
65.71334361396788

>  <Genealogy>  (11) 
N#CCc1ccc2cc(C(N)=O)n(C(=O)OCP(=O)([O-])[O-])c2c1 (protonated)
N#CCc1ccc2cc(C(N)=O)n(C(=O)OCP(=O)([O-])[O-])c2c1 (3D coordinates assigned)
N#CCc1ccc2cc(C(N)=O)n(C(=O)OCP(=O)([O-])[O-])c2c1 (optimized conformer: 65.71334361396788 kcal/mol)

>  <smiles>  (11) 
N#CCc1ccc2cc(C(N)=O)n(C(=O)OCP(=O)(O)O)c2c1

>  <score_type>  (11) 
oracle

>  <origin>  (11) 
adg

>  <m_score__min__energy>  (11) 
-7.0599999999999996

>  <m_primary>  (11) 
energy

$$$$
11:0
     RDKit          3D

 32 33  0  0  0  0  0  0  0  0999 V2000
  146.2630  153.3560  134.1800 N   0  0  0  0  0  0  0  0  0  0  0  0
  146.8670  154.3940  134.9500 C   0  0  0  0  0  0  0  0  0  0  0  0
  147.1160  154.1930  136.1680 O   0  0  0  0  0  0  0  0  0  0  0  0
  147.2310  155.6720  134.3040 C   0  0  0  0  0  0  0  0  0  0  0  0
  146.6870  156.9010  134.6700 C   0  0  0  0  0  0  0  0  0  0  0  0
  147.2090  157.8110  133.7800 C   0  0  0  0  0  0  0  0  0  0  0  0
  147.0240  159.1870  133.6960 C   0  0  0  0  0  0  0  0  0  0  0  0
  147.7190  159.8850  132.6940 C   0  0  0  0  0  0  0  0  0  0  0  0
  148.5740  159.2000  131.7910 C   0  0  0  0  0  0  0  0  0  0  0  0
  149.3610  159.9680  130.7610 C   0  0  0  0  0  0  0  0  0  0  0  0
  149.2720  161.3300  130.9920 F   0  0  0  0  0  0  0  0  0  0  0  0
  150.6890  159.5870  130.8260 F   0  0  0  0  0  0  0  0  0  0  0  0
  148.8810  159.7140  129.4880 F   0  0  0  0  0  0  0  0  0  0  0  0
  148.7530  157.8030  131.9270 C   0  0  0  0  0  0  0  0  0  0  0  0
  148.0350  157.1330  132.9230 C   0  0  0  0  0  0  0  0  0  0  0  0
  148.0630  155.8180  133.2330 N   0  0  0  0  0  0  0  0  0  0  0  0
  148.8720  154.8130  132.6020 C   0  0  0  0  0  0  0  0  0  0  0  0
  150.0430  155.0930  132.2310 O   0  0  0  0  0  0  0  0  0  0  0  0
  148.3570  153.4900  132.4230 N   0  0  0  0  0  0  0  0  0  0  0  0
  149.1950  152.3230  132.1700 C   0  0  0  0  0  0  0  0  0  0  0  0
  149.5300  151.6090  133.4800 C   0  0  0  0  0  0  0  0  0  0  0  0
  148.8850  152.2360  134.5540 O   0  0  0  0  0  0  0  0  0  0  0  0
  146.8420  152.6090  133.7390 H   0  0  0  0  0  0  0  0  0  0  0  0
  145.9882  157.1014  135.4956 H   0  0  0  0  0  0  0  0  0  0  0  0
  146.3542  159.7126  134.3926 H   0  0  0  0  0  0  0  0  0  0  0  0
  147.5992  160.9751  132.6082 H   0  0  0  0  0  0  0  0  0  0  0  0
  149.4408  157.2566  131.2649 H   0  0  0  0  0  0  0  0  0  0  0  0
  148.6581  151.6289  131.5067 H   0  0  0  0  0  0  0  0  0  0  0  0
  150.1310  152.6536  131.6960 H   0  0  0  0  0  0  0  0  0  0  0  0
  149.1976  150.5622  133.4181 H   0  0  0  0  0  0  0  0  0  0  0  0
  150.6172  151.6501  133.6421 H   0  0  0  0  0  0  0  0  0  0  0  0
  147.9660  152.4500  134.2480 H   0  0  0  0  0  0  0  0  0  0  0  0
  1  2  1  0
  2  3  2  0
  2  4  1  0
  4  5  2  0
  5  6  1  0
  6  7  2  0
  7  8  1  0
  8  9  2  0
  9 10  1  0
 10 11  1  0
 10 12  1  0
 10 13  1  0
  9 14  1  0
 14 15  2  0
 15 16  1  0
 16 17  1  0
 17 18  2  0
 17 19  1  0
 19 20  1  0
 20 21  1  0
 21 22  1  0
 16  4  1  0
 15  6  1  0
  1 23  1  0
  5 24  1  0
  7 25  1  0
  8 26  1  0
 14 27  1  0
 20 28  1  0
 20 29  1  0
 21 30  1  0
 21 31  1  0
 22 32  1  0
M  CHG  2   1  -1  19  -1
M  END
>  <UniqueID>  (12) 
12

>  <SMILES>  (12) 
[NH-]C(=O)c1cc2ccc(C(F)(F)F)cc2n1C(=O)[N-]CCO

>  <Energy>  (12) 
67.90236277590193

>  <Genealogy>  (12) 
[NH-]C(=O)c1cc2ccc(C(F)(F)F)cc2n1C(=O)[N-]CCO (protonated)
[NH-]C(=O)c1cc2ccc(C(F)(F)F)cc2n1C(=O)[N-]CCO (3D coordinates assigned)
[NH-]C(=O)c1cc2ccc(C(F)(F)F)cc2n1C(=O)[N-]CCO (optimized conformer: 67.90236277590193 kcal/mol)

>  <smiles>  (12) 
NC(=O)c1cc2ccc(C(F)(F)F)cc2n1C(=O)NCCO

>  <score_type>  (12) 
oracle

>  <origin>  (12) 
adg

>  <m_score__min__energy>  (12) 
-5.5800000000000001

>  <m_primary>  (12) 
energy

$$$$
12:0
     RDKit          3D

 33 35  0  0  0  0  0  0  0  0999 V2000
  143.0510  160.7250  133.3590 N   0  0  0  0  0  0  0  0  0  0  0  0
  144.4070  160.9170  133.7640 C   0  0  0  0  0  0  0  0  0  0  0  0
  144.7440  162.0110  134.2920 O   0  0  0  0  0  0  0  0  0  0  0  0
  145.4330  159.8840  133.5200 C   0  0  0  0  0  0  0  0  0  0  0  0
  146.7720  160.1750  133.2810 C   0  0  0  0  0  0  0  0  0  0  0  0
  147.3730  158.9580  133.0480 C   0  0  0  0  0  0  0  0  0  0  0  0
  148.7030  158.6560  132.7750 C   0  0  0  0  0  0  0  0  0  0  0  0
  149.0540  157.3050  132.6210 C   0  0  0  0  0  0  0  0  0  0  0  0
  148.0790  156.2850  132.7530 C   0  0  0  0  0  0  0  0  0  0  0  0
  148.4680  154.8690  132.6050 C   0  0  0  0  0  0  0  0  0  0  0  0
  147.6410  153.8250  132.8050 N   0  0  0  0  0  0  0  0  0  0  0  0
  148.3580  152.7350  132.5760 N   0  0  0  0  0  0  0  0  0  0  0  0
  149.5940  153.1520  132.2450 C   0  0  0  0  0  0  0  0  0  0  0  0
  149.6670  154.4610  132.2610 O   0  0  0  0  0  0  0  0  0  0  0  0
  146.7360  156.6310  133.0330 C   0  0  0  0  0  0  0  0  0  0  0  0
  146.4110  157.9870  133.1580 C   0  0  0  0  0  0  0  0  0  0  0  0
  145.2130  158.5400  133.4500 N   0  0  0  0  0  0  0  0  0  0  0  0
  143.9960  157.8360  133.7470 C   0  0  0  0  0  0  0  0  0  0  0  0
  143.9310  157.0970  134.7670 O   0  0  0  0  0  0  0  0  0  0  0  0
  142.8900  157.9710  132.9010 O   0  0  0  0  0  0  0  0  0  0  0  0
  141.5490  157.7260  133.3180 C   0  0  0  0  0  0  0  0  0  0  0  0
  140.6340  158.7630  132.7490 C   0  0  0  0  0  0  0  0  0  0  0  0
  139.8630  158.4750  131.7970 O   0  0  0  0  0  0  0  0  0  0  0  0
  140.6520  160.0560  133.2550 O   0  0  0  0  0  0  0  0  0  0  0  0
  142.3310  161.4500  133.5780 H   0  0  0  0  0  0  0  0  0  0  0  0
  142.7740  159.9110  132.7680 H   0  0  0  0  0  0  0  0  0  0  0  0
  147.2492  161.1661  133.2786 H   0  0  0  0  0  0  0  0  0  0  0  0
  149.4572  159.4514  132.6825 H   0  0  0  0  0  0  0  0  0  0  0  0
  150.0964  157.0357  132.3956 H   0  0  0  0  0  0  0  0  0  0  0  0
  150.4312  152.4839  131.9945 H   0  0  0  0  0  0  0  0  0  0  0  0
  145.9663  155.8538  133.1496 H   0  0  0  0  0  0  0  0  0  0  0  0
  141.2350  156.7321  132.9666 H   0  0  0  0  0  0  0  0  0  0  0  0
  141.5010  157.7684  134.4161 H   0  0  0  0  0  0  0  0  0  0  0  0
  1  2  1  0
  2  3  2  0
  2  4  1  0
  4  5  2  0
  5  6  1  0
  6  7  2  0
  7  8  1  0
  8  9  2  0
  9 10  1  0
 10 11  2  0
 11 12  1  0
 12 13  2  0
 13 14  1  0
  9 15  1  0
 15 16  2  0
 16 17  1  0
 17 18  1  0
 18 19  2  0
 18 20  1  0
 20 21  1  0
 21 22  1  0
 22 23  2  0
 22 24  1  0
 17  4  1  0
 16  6  1  0
 14 10  1  0
  1 25  1  0
  1 26  1  0
  5 27  1  0
  7 28  1  0
  8 29  1  0
 13 30  1  0
 15 31  1  0
 21 32  1  0
 21 33  1  0
M  CHG  1  24  -1
M  END
>  <UniqueID>  (13) 
13

>  <SMILES>  (13) 
NC(=O)c1cc2ccc(-c3nnco3)cc2n1C(=O)OCC(=O)[O-]

>  <Energy>  (13) 
107.10517898494804

>  <Genealogy>  (13) 
NC(=O)c1cc2ccc(-c3nnco3)cc2n1C(=O)OCC(=O)[O-] (protonated)
NC(=O)c1cc2ccc(-c3nnco3)cc2n1C(=O)OCC(=O)[O-] (3D coordinates assigned)
NC(=O)c1cc2ccc(-c3nnco3)cc2n1C(=O)OCC(=O)[O-] (optimized conformer: 107.10517898494804 kcal/mol)

>  <smiles>  (13) 
NC(=O)c1cc2ccc(-c3nnco3)cc2n1C(=O)OCC(=O)O

>  <score_type>  (13) 
oracle

>  <origin>  (13) 
adg

>  <m_score__min__energy>  (13) 
-6.7999999999999998

>  <m_primary>  (13) 
energy

$$$$
13:0
     RDKit          3D

 46 48  0  0  0  0  0  0  0  0999 V2000
  149.9330  154.2040  132.2500 N   0  0  0  0  0  0  0  0  0  0  0  0
  149.0110  153.2340  132.7500 C   0  0  0  0  0  0  0  0  0  0  0  0
  149.4470  152.1170  133.1380 O   0  0  0  0  0  0  0  0  0  0  0  0
  147.5650  153.5360  132.8390 C   0  0  0  0  0  0  0  0  0  0  0  0
  146.5520  152.5960  132.6470 C   0  0  0  0  0  0  0  0  0  0  0  0
  145.3750  153.3080  132.7230 C   0  0  0  0  0  0  0  0  0  0  0  0
  144.0620  152.8760  132.6150 C   0  0  0  0  0  0  0  0  0  0  0  0
  143.0390  153.8280  132.7540 C   0  0  0  0  0  0  0  0  0  0  0  0
  143.3290  155.2070  133.0010 C   0  0  0  0  0  0  0  0  0  0  0  0
  142.2560  156.1920  133.1530 N   0  0  0  0  0  0  0  0  0  0  0  0
  142.6180  157.6330  133.1880 C   0  0  0  0  0  0  0  0  0  0  0  0
  141.4300  158.5910  133.2600 C   0  0  0  0  0  0  0  0  0  0  0  0
  140.3780  158.0010  134.0760 N   0  0  0  0  0  0  0  0  0  0  0  0
  140.1890  158.3240  135.4730 C   0  0  0  0  0  0  0  0  0  0  0  0
  139.2560  157.7740  136.1190 O   0  0  0  0  0  0  0  0  0  0  0  0
  141.0630  159.3330  136.1740 C   0  0  0  0  0  0  0  0  0  0  0  0
  140.6210  159.5630  137.4850 O   0  0  0  0  0  0  0  0  0  0  0  0
  139.8070  156.7940  133.4990 C   0  0  0  0  0  0  0  0  0  0  0  0
  140.8780  155.7030  133.4250 C   0  0  0  0  0  0  0  0  0  0  0  0
  144.6980  155.5880  133.1080 C   0  0  0  0  0  0  0  0  0  0  0  0
  145.6900  154.6170  132.9510 C   0  0  0  0  0  0  0  0  0  0  0  0
  147.0290  154.7740  133.0280 N   0  0  0  0  0  0  0  0  0  0  0  0
  147.7200  156.0000  133.3080 C   0  0  0  0  0  0  0  0  0  0  0  0
  148.4240  156.5410  132.4110 O   0  0  0  0  0  0  0  0  0  0  0  0
  147.5540  156.6910  134.6280 C   0  0  0  0  0  0  0  0  0  0  0  0
  148.4810  157.7340  134.7430 O   0  0  0  0  0  0  0  0  0  0  0  0
  149.6070  155.1150  131.8610 H   0  0  0  0  0  0  0  0  0  0  0  0
  150.9550  153.9900  132.2270 H   0  0  0  0  0  0  0  0  0  0  0  0
  146.6683  151.5162  132.4722 H   0  0  0  0  0  0  0  0  0  0  0  0
  143.8283  151.8179  132.4259 H   0  0  0  0  0  0  0  0  0  0  0  0
  141.9905  153.5060  132.6710 H   0  0  0  0  0  0  0  0  0  0  0  0
  143.2506  157.8055  134.0713 H   0  0  0  0  0  0  0  0  0  0  0  0
  143.1305  157.8464  132.2384 H   0  0  0  0  0  0  0  0  0  0  0  0
  141.7526  159.5418  133.7094 H   0  0  0  0  0  0  0  0  0  0  0  0
  141.0465  158.7757  132.2457 H   0  0  0  0  0  0  0  0  0  0  0  0
  142.0951  158.9538  136.2047 H   0  0  0  0  0  0  0  0  0  0  0  0
  141.0145  160.2813  135.6187 H   0  0  0  0  0  0  0  0  0  0  0  0
  139.6440  159.3820  137.4910 H   0  0  0  0  0  0  0  0  0  0  0  0
  138.9737  156.4468  134.1275 H   0  0  0  0  0  0  0  0  0  0  0  0
  139.4383  157.0128  132.4860 H   0  0  0  0  0  0  0  0  0  0  0  0
  140.8889  155.1698  134.3871 H   0  0  0  0  0  0  0  0  0  0  0  0
  140.6056  155.0622  132.5734 H   0  0  0  0  0  0  0  0  0  0  0  0
  144.9703  156.6341  133.3118 H   0  0  0  0  0  0  0  0  0  0  0  0
  146.5352  157.0997  134.6996 H   0  0  0  0  0  0  0  0  0  0  0  0
  147.7234  155.9666  135.4383 H   0  0  0  0  0  0  0  0  0  0  0  0
  149.2450  157.5010  134.1530 H   0  0  0  0  0  0  0  0  0  0  0  0
  1  2  1  0
  2  3  2  0
  2  4  1  0
  4  5  2  0
  5  6  1  0
  6  7  2  0
  7  8  1  0
  8  9  2  0
  9 10  1  0
 10 11  1  0
 11 12  1  0
 12 13  1  0
 13 14  1  0
 14 15  2  0
 14 16  1  0
 16 17  1  0
 13 18  1  0
 18 19  1  0
  9 20  1  0
 20 21  2  0
 21 22  1  0
 22 23  1  0
 23 24  2  0
 23 25  1  0
 25 26  1  0
 22  4  1  0
 21  6  1  0
 19 10  1  0
  1 27  1  0
  1 28  1  0
  5 29  1  0
  7 30  1  0
  8 31  1  0
 11 32  1  0
 11 33  1  0
 12 34  1  0
 12 35  1  0
 16 36  1  0
 16 37  1  0
 17 38  1  0
 18 39  1  0
 18 40  1  0
 19 41  1  0
 19 42  1  0
 20 43  1  0
 25 44  1  0
 25 45  1  0
 26 46  1  0
M  END
>  <UniqueID>  (14) 
14

>  <SMILES>  (14) 
NC(=O)c1cc2ccc(N3CCN(C(=O)CO)CC3)cc2n1C(=O)CO

>  <Energy>  (14) 
95.69307183021729

>  <Genealogy>  (14) 
NC(=O)c1cc2ccc(N3CCN(C(=O)CO)CC3)cc2n1C(=O)CO (3D coordinates assigned)
NC(=O)c1cc2ccc(N3CCN(C(=O)CO)CC3)cc2n1C(=O)CO (nonaromatic ring conformer: 95.69307183021729 kcal/mol)

>  <smiles>  (14) 
NC(=O)c1cc2ccc(N3CCN(C(=O)CO)CC3)cc2n1C(=O)CO

>  <score_type>  (14) 
oracle

>  <origin>  (14) 
adg

>  <m_score__min__energy>  (14) 
-7.2699999999999996

>  <m_primary>  (14) 
energy

$$$$
14:0
     RDKit          3D

 46 47  0  0  0  0  0  0  0  0999 V2000
  141.4590  159.0200  136.8200 C   0  0  0  0  0  0  0  0  0  0  0  0
  140.1720  158.8440  136.2340 O   0  0  0  0  0  0  0  0  0  0  0  0
  140.0020  158.5220  134.8820 C   0  0  0  0  0  0  0  0  0  0  0  0
  139.3050  157.5290  134.5450 O   0  0  0  0  0  0  0  0  0  0  0  0
  140.6060  159.4140  133.8330 C   0  0  0  0  0  0  0  0  0  0  0  0
  141.6730  158.7010  132.9820 C   0  0  0  0  0  0  0  0  0  0  0  0
  143.0630  158.8870  133.5310 C   0  0  0  0  0  0  0  0  0  0  0  0
  143.4780  160.0490  133.7980 O   0  0  0  0  0  0  0  0  0  0  0  0
  143.9290  157.7640  133.7440 N   0  0  0  0  0  0  0  0  0  0  0  0
  143.5890  156.4770  134.0400 C   0  0  0  0  0  0  0  0  0  0  0  0
  142.2320  155.9820  134.3680 C   0  0  0  0  0  0  0  0  0  0  0  0
  141.6870  156.1450  135.6750 N   0  0  0  0  0  0  0  0  0  0  0  0
  141.5700  155.3530  133.4980 O   0  0  0  0  0  0  0  0  0  0  0  0
  144.7290  155.6780  134.1160 C   0  0  0  0  0  0  0  0  0  0  0  0
  145.7850  156.5230  133.8700 C   0  0  0  0  0  0  0  0  0  0  0  0
  147.1530  156.2600  133.8390 C   0  0  0  0  0  0  0  0  0  0  0  0
  148.0200  157.3280  133.5570 C   0  0  0  0  0  0  0  0  0  0  0  0
  147.5080  158.6260  133.3060 C   0  0  0  0  0  0  0  0  0  0  0  0
  148.4480  159.7580  132.9860 C   0  0  0  0  0  0  0  0  0  0  0  0
  149.3170  159.4620  131.7860 C   0  0  0  0  0  0  0  0  0  0  0  0
  149.9820  158.3890  131.7510 O   0  0  0  0  0  0  0  0  0  0  0  0
  149.4540  160.4170  130.7090 N   0  0  0  0  0  0  0  0  0  0  0  0
  148.7280  161.6940  130.7370 C   0  0  0  0  0  0  0  0  0  0  0  0
  150.3320  160.0960  129.5790 C   0  0  0  0  0  0  0  0  0  0  0  0
  146.1170  158.8590  133.3780 C   0  0  0  0  0  0  0  0  0  0  0  0
  145.2770  157.7770  133.6590 C   0  0  0  0  0  0  0  0  0  0  0  0
  141.3676  159.0075  137.9161 H   0  0  0  0  0  0  0  0  0  0  0  0
  142.1231  158.2043  136.4981 H   0  0  0  0  0  0  0  0  0  0  0  0
  141.8797  159.9840  136.4981 H   0  0  0  0  0  0  0  0  0  0  0  0
  139.8040  159.7660  133.1675 H   0  0  0  0  0  0  0  0  0  0  0  0
  141.1014  160.2469  134.3534 H   0  0  0  0  0  0  0  0  0  0  0  0
  141.4441  157.6254  132.9568 H   0  0  0  0  0  0  0  0  0  0  0  0
  141.6483  159.1418  131.9745 H   0  0  0  0  0  0  0  0  0  0  0  0
  140.8940  156.8020  135.8500 H   0  0  0  0  0  0  0  0  0  0  0  0
  144.7739  154.5995  134.3280 H   0  0  0  0  0  0  0  0  0  0  0  0
  147.5412  155.2485  134.0293 H   0  0  0  0  0  0  0  0  0  0  0  0
  149.1062  157.1560  133.5306 H   0  0  0  0  0  0  0  0  0  0  0  0
  147.8557  160.6615  132.7792 H   0  0  0  0  0  0  0  0  0  0  0  0
  149.1098  159.9002  133.8530 H   0  0  0  0  0  0  0  0  0  0  0  0
  148.5566  161.9955  131.7809 H   0  0  0  0  0  0  0  0  0  0  0  0
  149.3227  162.4652  130.2255 H   0  0  0  0  0  0  0  0  0  0  0  0
  147.7611  161.5774  130.2255 H   0  0  0  0  0  0  0  0  0  0  0  0
  151.3020  159.7413  129.9576 H   0  0  0  0  0  0  0  0  0  0  0  0
  149.8679  159.3094  128.9659 H   0  0  0  0  0  0  0  0  0  0  0  0
  150.4847  160.9965  128.9659 H   0  0  0  0  0  0  0  0  0  0  0  0
  145.7048  159.8661  133.2171 H   0  0  0  0  0  0  0  0  0  0  0  0
  1  2  1  0
  2  3  1  0
  3  4  2  0
  3  5  1  0
  5  6  1  0
  6  7  1  0
  7  8  2  0
  7  9  1  0
  9 10  1  0
 10 11  1  0
 11 12  1  0
 11 13  2  0
 10 14  2  0
 14 15  1  0
 15 16  2  0
 16 17  1  0
 17 18  2  0
 18 19  1  0
 19 20  1  0
 20 21  2  0
 20 22  1  0
 22 23  1  0
 22 24  1  0
 18 25  1  0
 25 26  2  0
 26  9  1  0
 26 15  1  0
  1 27  1  0
  1 28  1  0
  1 29  1  0
  5 30  1  0
  5 31  1  0
  6 32  1  0
  6 33  1  0
 12 34  1  0
 14 35  1  0
 16 36  1  0
 17 37  1  0
 19 38  1  0
 19 39  1  0
 23 40  1  0
 23 41  1  0
 23 42  1  0
 24 43  1  0
 24 44  1  0
 24 45  1  0
 25 46  1  0
M  CHG  1  12  -1
M  END
>  <UniqueID>  (15) 
15

>  <SMILES>  (15) 
COC(=O)CCC(=O)n1c(C([NH-])=O)cc2ccc(CC(=O)N(C)C)cc21

>  <Energy>  (15) 
78.98319633927527

>  <Genealogy>  (15) 
COC(=O)CCC(=O)n1c(C([NH-])=O)cc2ccc(CC(=O)N(C)C)cc21 (protonated)
COC(=O)CCC(=O)n1c(C([NH-])=O)cc2ccc(CC(=O)N(C)C)cc21 (3D coordinates assigned)
COC(=O)CCC(=O)n1c(C([NH-])=O)cc2ccc(CC(=O)N(C)C)cc21 (optimized conformer: 78.98319633927527 kcal/mol)

>  <smiles>  (15) 
COC(=O)CCC(=O)n1c(C(N)=O)cc2ccc(CC(=O)N(C)C)cc21

>  <score_type>  (15) 
oracle

>  <origin>  (15) 
adg

>  <m_score__min__energy>  (15) 
-6.8499999999999996

>  <m_primary>  (15) 
energy

$$$$
15:0
     RDKit          3D

 25 26  0  0  0  0  0  0  0  0999 V2000
  148.4820  161.5370  131.4940 N   0  0  0  0  0  0  0  0  0  0  0  0
  149.2090  160.3140  131.3690 C   0  0  0  0  0  0  0  0  0  0  0  0
  150.3140  160.3100  130.7630 O   0  0  0  0  0  0  0  0  0  0  0  0
  148.7220  159.0680  131.9950 C   0  0  0  0  0  0  0  0  0  0  0  0
  149.3820  157.8480  131.8840 C   0  0  0  0  0  0  0  0  0  0  0  0
  148.6530  156.9710  132.6520 C   0  0  0  0  0  0  0  0  0  0  0  0
  148.8460  155.6120  132.8800 C   0  0  0  0  0  0  0  0  0  0  0  0
  147.9100  154.9390  133.6820 C   0  0  0  0  0  0  0  0  0  0  0  0
  146.8080  155.6310  134.2490 C   0  0  0  0  0  0  0  0  0  0  0  0
  145.7770  154.8830  135.0560 C   0  0  0  0  0  0  0  0  0  0  0  0
  145.3790  153.7340  134.3970 F   0  0  0  0  0  0  0  0  0  0  0  0
  146.2920  154.5190  136.2890 F   0  0  0  0  0  0  0  0  0  0  0  0
  144.6760  155.6960  135.2510 F   0  0  0  0  0  0  0  0  0  0  0  0
  146.6340  157.0070  133.9730 C   0  0  0  0  0  0  0  0  0  0  0  0
  147.5940  157.6580  133.1870 C   0  0  0  0  0  0  0  0  0  0  0  0
  147.6200  158.9510  132.7880 N   0  0  0  0  0  0  0  0  0  0  0  0
  146.6200  159.9530  133.0420 C   0  0  0  0  0  0  0  0  0  0  0  0
  145.4410  159.8000  132.6290 O   0  0  0  0  0  0  0  0  0  0  0  0
  146.9480  161.1090  133.7430 O   0  0  0  0  0  0  0  0  0  0  0  0
  148.8240  162.4000  131.0160 H   0  0  0  0  0  0  0  0  0  0  0  0
  147.6550  161.6100  132.1260 H   0  0  0  0  0  0  0  0  0  0  0  0
  150.2923  157.6316  131.3056 H   0  0  0  0  0  0  0  0  0  0  0  0
  149.7056  155.0809  132.4453 H   0  0  0  0  0  0  0  0  0  0  0  0
  148.0323  153.8627  133.8731 H   0  0  0  0  0  0  0  0  0  0  0  0
  145.7645  157.5540  134.3666 H   0  0  0  0  0  0  0  0  0  0  0  0
  1  2  1  0
  2  3  2  0
  2  4  1  0
  4  5  2  0
  5  6  1  0
  6  7  2  0
  7  8  1  0
  8  9  2  0
  9 10  1  0
 10 11  1  0
 10 12  1  0
 10 13  1  0
  9 14  1  0
 14 15  2  0
 15 16  1  0
 16 17  1  0
 17 18  2  0
 17 19  1  0
 16  4  1  0
 15  6  1  0
  1 20  1  0
  1 21  1  0
  5 22  1  0
  7 23  1  0
  8 24  1  0
 14 25  1  0
M  CHG  1  19  -1
M  END
>  <UniqueID>  (16) 
16

>  <SMILES>  (16) 
NC(=O)c1cc2ccc(C(F)(F)F)cc2n1C(=O)[O-]

>  <Energy>  (16) 
66.26942013347677

>  <Genealogy>  (16) 
NC(=O)c1cc2ccc(C(F)(F)F)cc2n1C(=O)[O-] (protonated)
NC(=O)c1cc2ccc(C(F)(F)F)cc2n1C(=O)[O-] (3D coordinates assigned)
NC(=O)c1cc2ccc(C(F)(F)F)cc2n1C(=O)[O-] (optimized conformer: 66.26942013347677 kcal/mol)

>  <smiles>  (16) 
NC(=O)c1cc2ccc(C(F)(F)F)cc2n1C(=O)O

>  <score_type>  (16) 
oracle

>  <origin>  (16) 
adg

>  <m_score__min__energy>  (16) 
-5.4500000000000002

>  <m_primary>  (16) 
energy

$$$$
16:0
     RDKit          3D

 52 54  0  0  0  0  0  0  0  0999 V2000
  144.6668  164.4033  133.5396 H   0  0  0  0  0  0  0  0  0  0  0  0
  144.4110  163.3500  133.7270 C   0  0  0  0  0  0  0  0  0  0  0  0
  143.1700  162.8880  133.4200 N   0  0  0  0  0  0  0  0  0  0  0  0
  142.8130  161.5950  133.6440 C   0  0  0  0  0  0  0  0  0  0  0  0
  141.8016  161.2532  133.3791 H   0  0  0  0  0  0  0  0  0  0  0  0
  143.7290  160.6930  134.2120 C   0  0  0  0  0  0  0  0  0  0  0  0
  143.3400  159.2870  134.4710 C   0  0  0  0  0  0  0  0  0  0  0  0
  142.6810  159.0150  135.5600 N   0  0  0  0  0  0  0  0  0  0  0  0
  142.3160  157.7330  135.9120 O   0  0  0  0  0  0  0  0  0  0  0  0
  140.9790  157.4190  136.3000 C   0  0  0  0  0  0  0  0  0  0  0  0
  140.1220  157.2020  135.0750 C   0  0  0  0  0  0  0  0  0  0  0  0
  139.1340  157.9510  134.8480 O   0  0  0  0  0  0  0  0  0  0  0  0
  140.3660  156.1280  134.2260 O   0  0  0  0  0  0  0  0  0  0  0  0
  140.9890  156.1610  137.1860 C   0  0  0  0  0  0  0  0  0  0  0  0
  140.9866  156.4584  138.2450 H   0  0  0  0  0  0  0  0  0  0  0  0
  140.0956  155.5555  136.9732 H   0  0  0  0  0  0  0  0  0  0  0  0
  141.8919  155.5698  136.9732 H   0  0  0  0  0  0  0  0  0  0  0  0
  140.4220  158.6070  137.0930 C   0  0  0  0  0  0  0  0  0  0  0  0
  140.5165  158.4054  138.1702 H   0  0  0  0  0  0  0  0  0  0  0  0
  140.9881  159.5153  136.8389 H   0  0  0  0  0  0  0  0  0  0  0  0
  139.3617  158.7527  136.8389 H   0  0  0  0  0  0  0  0  0  0  0  0
  143.7360  158.2080  133.5290 C   0  0  0  0  0  0  0  0  0  0  0  0
  142.9700  157.8890  132.5800 O   0  0  0  0  0  0  0  0  0  0  0  0
  145.0020  157.5370  133.6680 N   0  0  0  0  0  0  0  0  0  0  0  0
  145.2520  156.3430  134.2760 C   0  0  0  0  0  0  0  0  0  0  0  0
  144.2230  155.4140  134.7920 C   0  0  0  0  0  0  0  0  0  0  0  0
  144.5660  154.3640  135.3970 O   0  0  0  0  0  0  0  0  0  0  0  0
  142.8330  155.7040  134.6340 N   0  0  0  0  0  0  0  0  0  0  0  0
  142.1150  155.0560  135.0270 H   0  0  0  0  0  0  0  0  0  0  0  0
  142.5110  156.5330  134.0880 H   0  0  0  0  0  0  0  0  0  0  0  0
  146.6190  156.0730  134.2750 C   0  0  0  0  0  0  0  0  0  0  0  0
  147.1249  155.1910  134.6947 H   0  0  0  0  0  0  0  0  0  0  0  0
  147.2020  157.1450  133.6370 C   0  0  0  0  0  0  0  0  0  0  0  0
  148.5410  157.4050  133.3630 C   0  0  0  0  0  0  0  0  0  0  0  0
  149.3271  156.6912  133.6504 H   0  0  0  0  0  0  0  0  0  0  0  0
  148.8590  158.6070  132.7080 C   0  0  0  0  0  0  0  0  0  0  0  0
  149.9074  158.8351  132.4656 H   0  0  0  0  0  0  0  0  0  0  0  0
  147.8400  159.5280  132.3570 C   0  0  0  0  0  0  0  0  0  0  0  0
  148.1900  160.8020  131.6370 C   0  0  0  0  0  0  0  0  0  0  0  0
  148.5993  161.5241  132.3589 H   0  0  0  0  0  0  0  0  0  0  0  0
  147.2801  161.2051  131.1684 H   0  0  0  0  0  0  0  0  0  0  0  0
  149.2260  160.5390  130.5500 C   0  0  0  0  0  0  0  0  0  0  0  0
  150.1919  160.2938  131.0157 H   0  0  0  0  0  0  0  0  0  0  0  0
  148.8958  159.6962  129.9250 H   0  0  0  0  0  0  0  0  0  0  0  0
  149.3378  161.4373  129.9250 H   0  0  0  0  0  0  0  0  0  0  0  0
  146.4900  159.2240  132.6410 C   0  0  0  0  0  0  0  0  0  0  0  0
  145.6848  159.9221  132.3684 H   0  0  0  0  0  0  0  0  0  0  0  0
  146.2040  158.0120  133.2780 C   0  0  0  0  0  0  0  0  0  0  0  0
  145.0200  161.1580  134.5170 C   0  0  0  0  0  0  0  0  0  0  0  0
  145.7643  160.4699  134.9443 H   0  0  0  0  0  0  0  0  0  0  0  0
  145.3600  162.4910  134.2790 C   0  0  0  0  0  0  0  0  0  0  0  0
  146.6030  162.9430  134.5770 F   0  0  0  0  0  0  0  0  0  0  0  0
  1  2  1  0
  2  3  2  0
  3  4  1  0
  4  5  1  0
  4  6  2  0
  6  7  1  0
  7  8  2  0
  8  9  1  0
  9 10  1  0
 10 11  1  0
 11 12  2  0
 11 13  1  0
 10 14  1  0
 14 15  1  0
 14 16  1  0
 14 17  1  0
 10 18  1  0
 18 19  1  0
 18 20  1  0
 18 21  1  0
  7 22  1  0
 22 23  2  0
 22 24  1  0
 24 25  1  0
 25 26  1  0
 26 27  2  0
 26 28  1  0
 28 29  1  0
 28 30  1  0
 25 31  2  0
 31 32  1  0
 31 33  1  0
 33 34  2  0
 34 35  1  0
 34 36  1  0
 36 37  1  0
 36 38  2  0
 38 39  1  0
 39 40  1  0
 39 41  1  0
 39 42  1  0
 42 43  1  0
 42 44  1  0
 42 45  1  0
 38 46  1  0
 46 47  1  0
 46 48  2  0
  6 49  1  0
 49 50  1  0
 49 51  2  0
 51 52  1  0
 51  2  1  0
 48 24  1  0
 48 33  1  0
M  CHG  1  13  -1
M  END
>  <UniqueID>  (17) 
17

>  <SMILES>  (17) 
CCc1ccc2cc(C(N)=O)n(C(=O)/C(=N\OC(C)(C)C(=O)[O-])c3cncc(F)c3)c2c1

>  <Energy>  (17) 
88.40659549119046

>  <Genealogy>  (17) 
CCc1ccc2cc(C(N)=O)n(C(=O)/C(=N\OC(C)(C)C(=O)[O-])c3cncc(F)c3)c2c1 (protonated)
CCc1ccc2cc(C(N)=O)n(C(=O)/C(=N\OC(C)(C)C(=O)[O-])c3cncc(F)c3)c2c1 (cis-trans isomerization)
CCc1ccc2cc(C(N)=O)n(C(=O)/C(=N\OC(C)(C)C(=O)[O-])c3cncc(F)c3)c2c1 (3D coordinates assigned)
CCc1ccc2cc(C(N)=O)n(C(=O)/C(=N\OC(C)(C)C(=O)[O-])c3cncc(F)c3)c2c1 (optimized conformer: 88.40659549119046 kcal/mol)

>  <smiles>  (17) 
CCc1ccc2cc(C(N)=O)n(C(=O)/C(=N\OC(C)(C)C(=O)O)c3cncc(F)c3)c2c1

>  <score_type>  (17) 
oracle

>  <origin>  (17) 
adg

>  <m_score__min__energy>  (17) 
-9.2100000000000009

>  <m_primary>  (17) 
energy

$$$$
17:0
     RDKit          3D

 42 43  0  0  0  0  0  0  0  0999 V2000
  149.6110  160.2360  130.7850 C   0  0  0  0  0  0  0  0  0  0  0  0
  148.7100  159.3270  131.1500 C   0  0  0  0  0  0  0  0  0  0  0  0
  148.3840  159.0450  132.5620 C   0  0  0  0  0  0  0  0  0  0  0  0
  149.2270  159.3390  133.4500 O   0  0  0  0  0  0  0  0  0  0  0  0
  147.1470  158.4220  132.9430 N   0  0  0  0  0  0  0  0  0  0  0  0
  145.9990  159.0230  133.3630 C   0  0  0  0  0  0  0  0  0  0  0  0
  145.8290  160.4780  133.5840 C   0  0  0  0  0  0  0  0  0  0  0  0
  146.9620  161.3350  133.7360 N   0  0  0  0  0  0  0  0  0  0  0  0
  144.6750  160.9780  133.6250 O   0  0  0  0  0  0  0  0  0  0  0  0
  145.0200  158.0630  133.6270 C   0  0  0  0  0  0  0  0  0  0  0  0
  145.6170  156.8510  133.3630 C   0  0  0  0  0  0  0  0  0  0  0  0
  145.1110  155.5600  133.4600 C   0  0  0  0  0  0  0  0  0  0  0  0
  145.9570  154.4920  133.1190 C   0  0  0  0  0  0  0  0  0  0  0  0
  147.2890  154.7250  132.6900 C   0  0  0  0  0  0  0  0  0  0  0  0
  148.1190  153.5980  132.3480 N   0  0  0  0  0  0  0  0  0  0  0  0
  149.5560  153.5170  132.6190 C   0  0  0  0  0  0  0  0  0  0  0  0
  150.0190  152.0550  132.6370 C   0  0  0  0  0  0  0  0  0  0  0  0
  149.1810  151.2350  131.7340 N   0  0  0  0  0  0  0  0  0  0  0  0
  148.5230  150.1570  132.4880 C   0  0  0  0  0  0  0  0  0  0  0  0
  149.9930  150.6500  130.6510 C   0  0  0  0  0  0  0  0  0  0  0  0
  147.7640  156.0570  132.5990 C   0  0  0  0  0  0  0  0  0  0  0  0
  146.9000  157.0960  132.9550 C   0  0  0  0  0  0  0  0  0  0  0  0
  149.8175  160.4083  129.7184 H   0  0  0  0  0  0  0  0  0  0  0  0
  150.1492  160.8150  131.5499 H   0  0  0  0  0  0  0  0  0  0  0  0
  148.1856  158.7614  130.3657 H   0  0  0  0  0  0  0  0  0  0  0  0
  147.9340  160.9550  133.7760 H   0  0  0  0  0  0  0  0  0  0  0  0
  146.8260  162.3640  133.8560 H   0  0  0  0  0  0  0  0  0  0  0  0
  143.9904  158.2380  133.9725 H   0  0  0  0  0  0  0  0  0  0  0  0
  144.0785  155.3801  133.7940 H   0  0  0  0  0  0  0  0  0  0  0  0
  145.5814  153.4602  133.1855 H   0  0  0  0  0  0  0  0  0  0  0  0
  147.6820  152.7870  131.8560 H   0  0  0  0  0  0  0  0  0  0  0  0
  150.1033  154.0601  131.8345 H   0  0  0  0  0  0  0  0  0  0  0  0
  149.7577  153.9656  133.6029 H   0  0  0  0  0  0  0  0  0  0  0  0
  151.0666  152.0029  132.3055 H   0  0  0  0  0  0  0  0  0  0  0  0
  149.9256  151.6647  133.6612 H   0  0  0  0  0  0  0  0  0  0  0  0
  148.6360  150.3421  133.5664 H   0  0  0  0  0  0  0  0  0  0  0  0
  147.4539  150.1293  132.2307 H   0  0  0  0  0  0  0  0  0  0  0  0
  148.9871  149.1935  132.2307 H   0  0  0  0  0  0  0  0  0  0  0  0
  150.8129  150.0593  131.0856 H   0  0  0  0  0  0  0  0  0  0  0  0
  149.3609  149.9984  130.0298 H   0  0  0  0  0  0  0  0  0  0  0  0
  150.4109  151.4559  130.0298 H   0  0  0  0  0  0  0  0  0  0  0  0
  148.7878  156.2679  132.2565 H   0  0  0  0  0  0  0  0  0  0  0  0
  1  2  2  0
  2  3  1  0
  3  4  2  0
  3  5  1  0
  5  6  1  0
  6  7  1  0
  7  8  1  0
  7  9  2  0
  6 10  2  0
 10 11  1  0
 11 12  2  0
 12 13  1  0
 13 14  2  0
 14 15  1  0
 15 16  1  0
 16 17  1  0
 17 18  1  0
 18 19  1  0
 18 20  1  0
 14 21  1  0
 21 22  2  0
 22  5  1  0
 22 11  1  0
  1 23  1  0
  1 24  1  0
  2 25  1  0
  8 26  1  0
  8 27  1  0
 10 28  1  0
 12 29  1  0
 13 30  1  0
 15 31  1  0
 16 32  1  0
 16 33  1  0
 17 34  1  0
 17 35  1  0
 19 36  1  0
 19 37  1  0
 19 38  1  0
 20 39  1  0
 20 40  1  0
 20 41  1  0
 21 42  1  0
M  END
>  <UniqueID>  (18) 
18

>  <SMILES>  (18) 
C=CC(=O)n1c(C(N)=O)cc2ccc(NCCN(C)C)cc21

>  <Energy>  (18) 
78.09858989225978

>  <Genealogy>  (18) 
C=CC(=O)n1c(C(N)=O)cc2ccc(NCCN(C)C)cc21 (3D coordinates assigned)
C=CC(=O)n1c(C(N)=O)cc2ccc(NCCN(C)C)cc21 (optimized conformer: 78.09858989225978 kcal/mol)

>  <smiles>  (18) 
C=CC(=O)n1c(C(N)=O)cc2ccc(NCCN(C)C)cc21

>  <score_type>  (18) 
oracle

>  <origin>  (18) 
adg

>  <m_score__min__energy>  (18) 
-7.2800000000000002

>  <m_primary>  (18) 
energy

$$$$
18:0
     RDKit          3D

 29 31  0  0  0  0  0  0  0  0999 V2000
  141.3670  160.9800  133.7380 N   0  0  0  0  0  0  0  0  0  0  0  0
  142.1920  160.0880  134.4820 C   0  0  0  0  0  0  0  0  0  0  0  0
  141.7860  159.6540  135.5930 O   0  0  0  0  0  0  0  0  0  0  0  0
  143.5370  159.7110  133.9970 C   0  0  0  0  0  0  0  0  0  0  0  0
  143.9000  158.4010  133.6940 C   0  0  0  0  0  0  0  0  0  0  0  0
  145.2380  158.4570  133.3760 C   0  0  0  0  0  0  0  0  0  0  0  0
  146.1100  157.4440  132.9930 C   0  0  0  0  0  0  0  0  0  0  0  0
  147.4390  157.7940  132.7020 C   0  0  0  0  0  0  0  0  0  0  0  0
  147.8620  159.1440  132.7780 C   0  0  0  0  0  0  0  0  0  0  0  0
  149.2930  159.5010  132.4930 C   0  0  0  0  0  0  0  0  0  0  0  0
  149.3850  160.2000  131.2170 N   0  0  0  0  0  0  0  0  0  0  0  0
  149.5320  159.6640  129.9960 C   0  0  0  0  0  0  0  0  0  0  0  0
  149.6630  160.6480  129.0860 N   0  0  0  0  0  0  0  0  0  0  0  0
  149.6040  161.7780  129.7810 N   0  0  0  0  0  0  0  0  0  0  0  0
  149.4440  161.5100  131.0680 N   0  0  0  0  0  0  0  0  0  0  0  0
  146.9510  160.1450  133.1820 C   0  0  0  0  0  0  0  0  0  0  0  0
  145.6390  159.7650  133.4850 C   0  0  0  0  0  0  0  0  0  0  0  0
  144.6040  160.5480  133.8640 N   0  0  0  0  0  0  0  0  0  0  0  0
  144.6190  161.9790  133.9930 C   0  0  0  0  0  0  0  0  0  0  0  0
  143.7780  162.6820  133.3740 O   0  0  0  0  0  0  0  0  0  0  0  0
  145.5430  162.5980  134.8250 O   0  0  0  0  0  0  0  0  0  0  0  0
  141.7550  161.8640  133.3400 H   0  0  0  0  0  0  0  0  0  0  0  0
  143.2544  157.5105  133.7062 H   0  0  0  0  0  0  0  0  0  0  0  0
  145.7696  156.4005  132.9201 H   0  0  0  0  0  0  0  0  0  0  0  0
  148.1575  157.0130  132.4126 H   0  0  0  0  0  0  0  0  0  0  0  0
  149.6730  160.1523  133.2939 H   0  0  0  0  0  0  0  0  0  0  0  0
  149.8936  158.5806  132.4460 H   0  0  0  0  0  0  0  0  0  0  0  0
  149.5437  158.5870  129.7726 H   0  0  0  0  0  0  0  0  0  0  0  0
  147.2651  161.1966  133.2565 H   0  0  0  0  0  0  0  0  0  0  0  0
  1  2  1  0
  2  3  2  0
  2  4  1  0
  4  5  2  0
  5  6  1  0
  6  7  2  0
  7  8  1  0
  8  9  2  0
  9 10  1  0
 10 11  1  0
 11 12  1  0
 12 13  2  0
 13 14  1  0
 14 15  2  0
  9 16  1  0
 16 17  2  0
 17 18  1  0
 18 19  1  0
 19 20  2  0
 19 21  1  0
 18  4  1  0
 17  6  1  0
 15 11  1  0
  1 22  1  0
  5 23  1  0
  7 24  1  0
  8 25  1  0
 10 26  1  0
 10 27  1  0
 12 28  1  0
 16 29  1  0
M  CHG  2   1  -1  21  -1
M  END
>  <UniqueID>  (19) 
19

>  <SMILES>  (19) 
[NH-]C(=O)c1cc2ccc(Cn3cnnn3)cc2n1C(=O)[O-]

>  <Energy>  (19) 
109.58083784332067

>  <Genealogy>  (19) 
[NH-]C(=O)c1cc2ccc(Cn3cnnn3)cc2n1C(=O)[O-] (protonated)
[NH-]C(=O)c1cc2ccc(Cn3cnnn3)cc2n1C(=O)[O-] (3D coordinates assigned)
[NH-]C(=O)c1cc2ccc(Cn3cnnn3)cc2n1C(=O)[O-] (optimized conformer: 109.58083784332067 kcal/mol)

>  <smiles>  (19) 
NC(=O)c1cc2ccc(Cn3cnnn3)cc2n1C(=O)O

>  <score_type>  (19) 
oracle

>  <origin>  (19) 
adg

>  <m_score__min__energy>  (19) 
-7.46

>  <m_primary>  (19) 
energy

$$$$
19:0
     RDKit          3D

 40 42  0  0  0  0  0  0  0  0999 V2000
  138.6260  159.3950  131.5420 C   0  0  0  0  0  0  0  0  0  0  0  0
  139.1830  158.2210  131.8310 C   0  0  0  0  0  0  0  0  0  0  0  0
  139.1110  157.6110  133.1720 C   0  0  0  0  0  0  0  0  0  0  0  0
  137.9850  157.4660  133.7160 O   0  0  0  0  0  0  0  0  0  0  0  0
  140.2900  157.1730  133.8640 N   0  0  0  0  0  0  0  0  0  0  0  0
  141.0790  157.8970  134.7060 C   0  0  0  0  0  0  0  0  0  0  0  0
  140.9430  159.3410  134.9920 C   0  0  0  0  0  0  0  0  0  0  0  0
  140.7310  159.8110  136.3210 N   0  0  0  0  0  0  0  0  0  0  0  0
  140.9940  160.1730  134.0470 O   0  0  0  0  0  0  0  0  0  0  0  0
  142.0810  157.0910  135.2460 C   0  0  0  0  0  0  0  0  0  0  0  0
  141.8750  155.8420  134.7060 C   0  0  0  0  0  0  0  0  0  0  0  0
  142.5670  154.6510  134.9060 C   0  0  0  0  0  0  0  0  0  0  0  0
  142.1150  153.5040  134.2320 C   0  0  0  0  0  0  0  0  0  0  0  0
  140.9800  153.5630  133.3760 C   0  0  0  0  0  0  0  0  0  0  0  0
  140.4990  152.4000  132.6750 N   0  0  0  0  0  0  0  0  0  0  0  0
  140.9340  151.0290  132.9510 C   0  0  0  0  0  0  0  0  0  0  0  0
  140.2470  150.0580  132.0290 C   0  0  0  0  0  0  0  0  0  0  0  0
  140.9800  149.0530  131.3750 C   0  0  0  0  0  0  0  0  0  0  0  0
  140.3340  148.1520  130.5210 C   0  0  0  0  0  0  0  0  0  0  0  0
  138.9540  148.2420  130.3210 C   0  0  0  0  0  0  0  0  0  0  0  0
  138.2160  149.2320  130.9780 C   0  0  0  0  0  0  0  0  0  0  0  0
  138.8580  150.1340  131.8300 C   0  0  0  0  0  0  0  0  0  0  0  0
  140.3020  154.7900  133.2100 C   0  0  0  0  0  0  0  0  0  0  0  0
  140.7850  155.9170  133.8810 C   0  0  0  0  0  0  0  0  0  0  0  0
  138.7081  159.8074  130.5255 H   0  0  0  0  0  0  0  0  0  0  0  0
  138.0837  159.9528  132.3197 H   0  0  0  0  0  0  0  0  0  0  0  0
  139.7198  157.6829  131.0358 H   0  0  0  0  0  0  0  0  0  0  0  0
  139.7940  159.7350  136.7740 H   0  0  0  0  0  0  0  0  0  0  0  0
  142.8686  157.3901  135.9533 H   0  0  0  0  0  0  0  0  0  0  0  0
  143.4416  154.6090  135.5718 H   0  0  0  0  0  0  0  0  0  0  0  0
  142.6447  152.5495  134.3676 H   0  0  0  0  0  0  0  0  0  0  0  0
  139.8390  152.5390  131.8760 H   0  0  0  0  0  0  0  0  0  0  0  0
  142.0219  150.9587  132.8041 H   0  0  0  0  0  0  0  0  0  0  0  0
  140.6724  150.7769  133.9893 H   0  0  0  0  0  0  0  0  0  0  0  0
  142.0655  148.9743  131.5350 H   0  0  0  0  0  0  0  0  0  0  0  0
  140.9136  147.3715  130.0063 H   0  0  0  0  0  0  0  0  0  0  0  0
  138.4483  147.5347  129.6472 H   0  0  0  0  0  0  0  0  0  0  0  0
  137.1290  149.3004  130.8237 H   0  0  0  0  0  0  0  0  0  0  0  0
  138.2729  150.9081  132.3480 H   0  0  0  0  0  0  0  0  0  0  0  0
  139.4126  154.8577  132.5663 H   0  0  0  0  0  0  0  0  0  0  0  0
  1  2  2  0
  2  3  1  0
  3  4  2  0
  3  5  1  0
  5  6  1  0
  6  7  1  0
  7  8  1  0
  7  9  2  0
  6 10  2  0
 10 11  1  0
 11 12  2  0
 12 13  1  0
 13 14  2  0
 14 15  1  0
 15 16  1  0
 16 17  1  0
 17 18  2  0
 18 19  1  0
 19 20  2  0
 20 21  1  0
 21 22  2  0
 14 23  1  0
 23 24  2  0
 24  5  1  0
 24 11  1  0
 22 17  1  0
  1 25  1  0
  1 26  1  0
  2 27  1  0
  8 28  1  0
 10 29  1  0
 12 30  1  0
 13 31  1  0
 15 32  1  0
 16 33  1  0
 16 34  1  0
 18 35  1  0
 19 36  1  0
 20 37  1  0
 21 38  1  0
 22 39  1  0
 23 40  1  0
M  CHG  1   8  -1
M  END
>  <UniqueID>  (20) 
20

>  <SMILES>  (20) 
C=CC(=O)n1c(C([NH-])=O)cc2ccc(NCc3ccccc3)cc21

>  <Energy>  (20) 
80.27873364739787

>  <Genealogy>  (20) 
C=CC(=O)n1c(C([NH-])=O)cc2ccc(NCc3ccccc3)cc21 (protonated)
C=CC(=O)n1c(C([NH-])=O)cc2ccc(NCc3ccccc3)cc21 (3D coordinates assigned)
C=CC(=O)n1c(C([NH-])=O)cc2ccc(NCc3ccccc3)cc21 (optimized conformer: 80.27873364739787 kcal/mol)

>  <smiles>  (20) 
C=CC(=O)n1c(C(N)=O)cc2ccc(NCc3ccccc3)cc21

>  <score_type>  (20) 
oracle

>  <origin>  (20) 
adg

>  <m_score__min__energy>  (20) 
-8.7899999999999991

>  <m_primary>  (20) 
energy

$$$$
20:0
     RDKit          3D

 45 47  0  0  0  0  0  0  0  0999 V2000
  149.1970  152.4810  132.3160 C   0  0  0  0  0  0  0  0  0  0  0  0
  148.8280  153.8880  132.4720 C   0  0  0  0  0  0  0  0  0  0  0  0
  148.5220  155.0470  132.6010 C   0  0  0  0  0  0  0  0  0  0  0  0
  148.1550  156.4300  132.7540 C   0  0  0  0  0  0  0  0  0  0  0  0
  149.1360  157.4390  132.6190 C   0  0  0  0  0  0  0  0  0  0  0  0
  148.7870  158.7930  132.7540 C   0  0  0  0  0  0  0  0  0  0  0  0
  147.4560  159.1010  133.0270 C   0  0  0  0  0  0  0  0  0  0  0  0
  146.8440  160.3230  133.1820 C   0  0  0  0  0  0  0  0  0  0  0  0
  145.5030  160.0350  133.4310 C   0  0  0  0  0  0  0  0  0  0  0  0
  144.4930  161.0700  133.7440 C   0  0  0  0  0  0  0  0  0  0  0  0
  143.1280  160.8570  133.3930 N   0  0  0  0  0  0  0  0  0  0  0  0
  144.8280  162.1560  134.2870 O   0  0  0  0  0  0  0  0  0  0  0  0
  145.2930  158.6880  133.4240 N   0  0  0  0  0  0  0  0  0  0  0  0
  144.0500  157.9870  133.5810 C   0  0  0  0  0  0  0  0  0  0  0  0
  143.2410  157.9130  132.6150 O   0  0  0  0  0  0  0  0  0  0  0  0
  143.7510  157.3680  134.8010 O   0  0  0  0  0  0  0  0  0  0  0  0
  142.4600  157.4150  135.4070 C   0  0  0  0  0  0  0  0  0  0  0  0
  141.6670  158.5980  134.9190 C   0  0  0  0  0  0  0  0  0  0  0  0
  141.8890  159.7320  135.4260 O   0  0  0  0  0  0  0  0  0  0  0  0
  140.6420  158.4540  133.9100 N   0  0  0  0  0  0  0  0  0  0  0  0
  140.0100  159.6590  133.3560 C   0  0  0  0  0  0  0  0  0  0  0  0
  139.4200  159.3650  131.9760 C   0  0  0  0  0  0  0  0  0  0  0  0
  138.5790  158.2290  132.0230 O   0  0  0  0  0  0  0  0  0  0  0  0
  139.3510  157.0820  132.3210 C   0  0  0  0  0  0  0  0  0  0  0  0
  139.9420  157.1730  133.7310 C   0  0  0  0  0  0  0  0  0  0  0  0
  146.5000  158.1290  133.1780 C   0  0  0  0  0  0  0  0  0  0  0  0
  146.8160  156.7730  133.0320 C   0  0  0  0  0  0  0  0  0  0  0  0
  149.3175  152.0214  133.3081 H   0  0  0  0  0  0  0  0  0  0  0  0
  148.4067  151.9540  131.7613 H   0  0  0  0  0  0  0  0  0  0  0  0
  150.1442  152.4097  131.7613 H   0  0  0  0  0  0  0  0  0  0  0  0
  150.1792  157.1621  132.4069 H   0  0  0  0  0  0  0  0  0  0  0  0
  149.5418  159.5861  132.6474 H   0  0  0  0  0  0  0  0  0  0  0  0
  147.3130  161.3162  133.1222 H   0  0  0  0  0  0  0  0  0  0  0  0
  142.7160  159.8960  133.3980 H   0  0  0  0  0  0  0  0  0  0  0  0
  141.9148  156.4921  135.1599 H   0  0  0  0  0  0  0  0  0  0  0  0
  142.5915  157.5112  136.4949 H   0  0  0  0  0  0  0  0  0  0  0  0
  139.2066  159.9897  134.0307 H   0  0  0  0  0  0  0  0  0  0  0  0
  140.7703  160.4479  133.2583 H   0  0  0  0  0  0  0  0  0  0  0  0
  138.8345  160.2340  131.6411 H   0  0  0  0  0  0  0  0  0  0  0  0
  140.2437  159.1662  131.2746 H   0  0  0  0  0  0  0  0  0  0  0  0
  138.7108  156.1899  132.2556 H   0  0  0  0  0  0  0  0  0  0  0  0
  140.1766  157.0159  131.5971 H   0  0  0  0  0  0  0  0  0  0  0  0
  139.1308  157.0965  134.4700 H   0  0  0  0  0  0  0  0  0  0  0  0
  140.6592  156.3509  133.8718 H   0  0  0  0  0  0  0  0  0  0  0  0
  146.0421  155.9976  133.1313 H   0  0  0  0  0  0  0  0  0  0  0  0
  1  2  1  0
  2  3  3  0
  3  4  1  0
  4  5  2  0
  5  6  1  0
  6  7  2  0
  7  8  1  0
  8  9  2  0
  9 10  1  0
 10 11  1  0
 10 12  2  0
  9 13  1  0
 13 14  1  0
 14 15  2  0
 14 16  1  0
 16 17  1  0
 17 18  1  0
 18 19  2  0
 18 20  1  0
 20 21  1  0
 21 22  1  0
 22 23  1  0
 23 24  1  0
 24 25  1  0
 13 26  1  0
 26 27  2  0
 27  4  1  0
 26  7  1  0
 25 20  1  0
  1 28  1  0
  1 29  1  0
  1 30  1  0
  5 31  1  0
  6 32  1  0
  8 33  1  0
 11 34  1  0
 17 35  1  0
 17 36  1  0
 21 37  1  0
 21 38  1  0
 22 39  1  0
 22 40  1  0
 24 41  1  0
 24 42  1  0
 25 43  1  0
 25 44  1  0
 27 45  1  0
M  CHG  1  11  -1
M  END
>  <UniqueID>  (21) 
21

>  <SMILES>  (21) 
CC#Cc1ccc2cc(C([NH-])=O)n(C(=O)OCC(=O)N3CCOCC3)c2c1

>  <Energy>  (21) 
80.76872307293763

>  <Genealogy>  (21) 
CC#Cc1ccc2cc(C([NH-])=O)n(C(=O)OCC(=O)N3CCOCC3)c2c1 (protonated)
CC#Cc1ccc2cc(C([NH-])=O)n(C(=O)OCC(=O)N3CCOCC3)c2c1 (3D coordinates assigned)
CC#Cc1ccc2cc(C([NH-])=O)n(C(=O)OCC(=O)N3CCOCC3)c2c1 (nonaromatic ring conformer: 80.76872307293763 kcal/mol)

>  <smiles>  (21) 
CC#Cc1ccc2cc(C(N)=O)n(C(=O)OCC(=O)N3CCOCC3)c2c1

>  <score_type>  (21) 
oracle

>  <origin>  (21) 
adg

>  <m_score__min__energy>  (21) 
-7.8099999999999996

>  <m_primary>  (21) 
energy

$$$$
21:0
     RDKit          3D

 39 41  0  0  0  0  0  0  0  0999 V2000
  149.1900  160.4140  130.2980 C   0  0  0  0  0  0  0  0  0  0  0  0
  148.5460  160.6900  131.5360 O   0  0  0  0  0  0  0  0  0  0  0  0
  147.8420  159.7180  132.2520 C   0  0  0  0  0  0  0  0  0  0  0  0
  148.4030  158.6360  132.5750 O   0  0  0  0  0  0  0  0  0  0  0  0
  146.4740  159.9670  132.6040 N   0  0  0  0  0  0  0  0  0  0  0  0
  145.6540  159.0560  133.3520 C   0  0  0  0  0  0  0  0  0  0  0  0
  146.1470  158.0090  133.8510 O   0  0  0  0  0  0  0  0  0  0  0  0
  144.2570  159.3350  133.5310 N   0  0  0  0  0  0  0  0  0  0  0  0
  143.6660  160.5410  133.7600 C   0  0  0  0  0  0  0  0  0  0  0  0
  144.3420  161.8560  133.7450 C   0  0  0  0  0  0  0  0  0  0  0  0
  145.7150  161.9820  134.1110 N   0  0  0  0  0  0  0  0  0  0  0  0
  143.7100  162.8790  133.3690 O   0  0  0  0  0  0  0  0  0  0  0  0
  142.2930  160.3850  133.9450 C   0  0  0  0  0  0  0  0  0  0  0  0
  142.0590  159.0330  133.8190 C   0  0  0  0  0  0  0  0  0  0  0  0
  140.8700  158.3160  133.9110 C   0  0  0  0  0  0  0  0  0  0  0  0
  140.9300  156.9200  133.7580 C   0  0  0  0  0  0  0  0  0  0  0  0
  142.1700  156.2710  133.5390 C   0  0  0  0  0  0  0  0  0  0  0  0
  142.2210  154.7830  133.3410 C   0  0  0  0  0  0  0  0  0  0  0  0
  143.6060  154.3520  133.1880 N   0  0  0  0  0  0  0  0  0  0  0  0
  144.4940  154.1260  134.1740 C   0  0  0  0  0  0  0  0  0  0  0  0
  145.6920  153.8230  133.5640 C   0  0  0  0  0  0  0  0  0  0  0  0
  145.4870  153.8860  132.2350 N   0  0  0  0  0  0  0  0  0  0  0  0
  144.2230  154.2150  132.0250 N   0  0  0  0  0  0  0  0  0  0  0  0
  143.3550  157.0330  133.4420 C   0  0  0  0  0  0  0  0  0  0  0  0
  143.2620  158.4230  133.5740 C   0  0  0  0  0  0  0  0  0  0  0  0
  150.1856  159.9873  130.4897 H   0  0  0  0  0  0  0  0  0  0  0  0
  148.5874  159.6951  129.7235 H   0  0  0  0  0  0  0  0  0  0  0  0
  149.2950  161.3462  129.7235 H   0  0  0  0  0  0  0  0  0  0  0  0
  146.0540  160.8730  132.2980 H   0  0  0  0  0  0  0  0  0  0  0  0
  146.4660  161.9730  133.3870 H   0  0  0  0  0  0  0  0  0  0  0  0
  141.5536  161.1737  134.1484 H   0  0  0  0  0  0  0  0  0  0  0  0
  139.9132  158.8256  134.0976 H   0  0  0  0  0  0  0  0  0  0  0  0
  140.0055  156.3260  133.8088 H   0  0  0  0  0  0  0  0  0  0  0  0
  141.7773  154.2830  134.2146 H   0  0  0  0  0  0  0  0  0  0  0  0
  141.6559  154.5176  132.4353 H   0  0  0  0  0  0  0  0  0  0  0  0
  144.3010  154.1739  135.2559 H   0  0  0  0  0  0  0  0  0  0  0  0
  146.6379  153.5761  134.0682 H   0  0  0  0  0  0  0  0  0  0  0  0
  146.1920  153.7180  131.4840 H   0  0  0  0  0  0  0  0  0  0  0  0
  144.3260  156.5465  133.2672 H   0  0  0  0  0  0  0  0  0  0  0  0
  1  2  1  0
  2  3  1  0
  3  4  2  0
  3  5  1  0
  5  6  1  0
  6  7  2  0
  6  8  1  0
  8  9  1  0
  9 10  1  0
 10 11  1  0
 10 12  2  0
  9 13  2  0
 13 14  1  0
 14 15  2  0
 15 16  1  0
 16 17  2  0
 17 18  1  0
 18 19  1  0
 19 20  1  0
 20 21  2  0
 21 22  1  0
 22 23  2  0
 17 24  1  0
 24 25  2  0
 25  8  1  0
 25 14  1  0
 23 19  1  0
  1 26  1  0
  1 27  1  0
  1 28  1  0
  5 29  1  0
 11 30  1  0
 13 31  1  0
 15 32  1  0
 16 33  1  0
 18 34  1  0
 18 35  1  0
 20 36  1  0
 21 37  1  0
 22 38  1  0
 24 39  1  0
M  CHG  2  11  -1  22   1
M  END
>  <UniqueID>  (22) 
22

>  <SMILES>  (22) 
COC(=O)NC(=O)n1c(C([NH-])=O)cc2ccc(Cn3cc[nH+]n3)cc21

>  <Energy>  (22) 
111.39419466524663

>  <Genealogy>  (22) 
COC(=O)NC(=O)n1c(C([NH-])=O)cc2ccc(Cn3cc[nH+]n3)cc21 (protonated)
COC(=O)NC(=O)n1c(C([NH-])=O)cc2ccc(Cn3cc[nH+]n3)cc21 (3D coordinates assigned)
COC(=O)NC(=O)n1c(C([NH-])=O)cc2ccc(Cn3cc[nH+]n3)cc21 (optimized conformer: 111.39419466524663 kcal/mol)

>  <smiles>  (22) 
COC(=O)NC(=O)n1c(C(N)=O)cc2ccc(Cn3ccnn3)cc21

>  <score_type>  (22) 
oracle

>  <origin>  (22) 
adg

>  <m_score__min__energy>  (22) 
-7.3899999999999997

>  <m_primary>  (22) 
energy

$$$$
22:0
     RDKit          3D

 43 45  0  0  0  0  0  0  0  0999 V2000
  138.7580  157.8910  131.7790 N   0  0  0  0  0  0  0  0  0  0  0  0
  139.9310  158.5200  132.2900 C   0  0  0  0  0  0  0  0  0  0  0  0
  140.6210  159.2520  131.5330 O   0  0  0  0  0  0  0  0  0  0  0  0
  140.3270  158.3090  133.6970 C   0  0  0  0  0  0  0  0  0  0  0  0
  140.5170  159.3350  134.6230 C   0  0  0  0  0  0  0  0  0  0  0  0
  140.8330  158.7040  135.8070 C   0  0  0  0  0  0  0  0  0  0  0  0
  141.0870  159.2310  137.0690 C   0  0  0  0  0  0  0  0  0  0  0  0
  141.3530  158.3330  138.1180 C   0  0  0  0  0  0  0  0  0  0  0  0
  141.3860  156.9320  137.8840 C   0  0  0  0  0  0  0  0  0  0  0  0
  141.6110  155.9720  139.0230 C   0  0  0  0  0  0  0  0  0  0  0  0
  142.1630  156.6280  140.1100 F   0  0  0  0  0  0  0  0  0  0  0  0
  142.4760  154.9750  138.6120 F   0  0  0  0  0  0  0  0  0  0  0  0
  140.4180  155.3970  139.4250 F   0  0  0  0  0  0  0  0  0  0  0  0
  141.1120  156.4380  136.5880 C   0  0  0  0  0  0  0  0  0  0  0  0
  140.8350  157.3550  135.5730 C   0  0  0  0  0  0  0  0  0  0  0  0
  140.5210  157.0990  134.2880 N   0  0  0  0  0  0  0  0  0  0  0  0
  140.3610  155.8020  133.7010 C   0  0  0  0  0  0  0  0  0  0  0  0
  139.2260  155.4590  133.2760 O   0  0  0  0  0  0  0  0  0  0  0  0
  141.5140  154.8740  133.5960 C   0  0  0  0  0  0  0  0  0  0  0  0
  142.7120  155.2990  133.1770 C   0  0  0  0  0  0  0  0  0  0  0  0
  143.8250  154.3070  133.0560 C   0  0  0  0  0  0  0  0  0  0  0  0
  143.8480  153.4100  134.3060 C   0  0  0  0  0  0  0  0  0  0  0  0
  142.5020  152.8680  134.6950 N   0  0  1  0  0  0  0  0  0  0  0  0
  142.2370  153.0740  136.1400 C   0  0  0  0  0  0  0  0  0  0  0  0
  141.3440  152.0030  136.7030 C   0  0  0  0  0  0  0  0  0  0  0  0
  140.9870  151.0340  135.9820 O   0  0  0  0  0  0  0  0  0  0  0  0
  140.9240  152.0690  138.0250 O   0  0  0  0  0  0  0  0  0  0  0  0
  141.3700  153.3950  133.8810 C   0  0  0  0  0  0  0  0  0  0  0  0
  138.3710  157.0320  132.2290 H   0  0  0  0  0  0  0  0  0  0  0  0
  140.4326  160.4174  134.4459 H   0  0  0  0  0  0  0  0  0  0  0  0
  141.0800  160.3174  137.2412 H   0  0  0  0  0  0  0  0  0  0  0  0
  141.5376  158.7196  139.1311 H   0  0  0  0  0  0  0  0  0  0  0  0
  141.1170  155.3570  136.3845 H   0  0  0  0  0  0  0  0  0  0  0  0
  142.8750  156.3576  132.9264 H   0  0  0  0  0  0  0  0  0  0  0  0
  143.6677  153.6862  132.1616 H   0  0  0  0  0  0  0  0  0  0  0  0
  144.7837  154.8392  132.9678 H   0  0  0  0  0  0  0  0  0  0  0  0
  144.5191  152.5608  134.1099 H   0  0  0  0  0  0  0  0  0  0  0  0
  144.1915  154.0378  135.1414 H   0  0  0  0  0  0  0  0  0  0  0  0
  142.5170  151.8320  134.5280 H   0  0  0  0  0  0  0  0  0  0  0  0
  143.1937  153.0613  136.6827 H   0  0  0  0  0  0  0  0  0  0  0  0
  141.7272  154.0414  136.2593 H   0  0  0  0  0  0  0  0  0  0  0  0
  141.3370  152.8512  132.9254 H   0  0  0  0  0  0  0  0  0  0  0  0
  140.4432  153.2494  134.4553 H   0  0  0  0  0  0  0  0  0  0  0  0
  1  2  1  0
  2  3  2  0
  2  4  1  0
  4  5  2  0
  5  6  1  0
  6  7  2  0
  7  8  1  0
  8  9  2  0
  9 10  1  0
 10 11  1  0
 10 12  1  0
 10 13  1  0
  9 14  1  0
 14 15  2  0
 15 16  1  0
 16 17  1  0
 17 18  2  0
 17 19  1  0
 19 20  2  0
 20 21  1  0
 21 22  1  0
 22 23  1  0
 23 24  1  0
 24 25  1  0
 25 26  2  0
 25 27  1  0
 23 28  1  0
 16  4  1  0
 28 19  1  0
 15  6  1  0
  1 29  1  0
  5 30  1  0
  7 31  1  0
  8 32  1  0
 14 33  1  0
 20 34  1  0
 21 35  1  0
 21 36  1  0
 22 37  1  0
 22 38  1  0
 23 39  1  1
 24 40  1  0
 24 41  1  0
 28 42  1  0
 28 43  1  0
M  CHG  3   1  -1  23   1  27  -1
M  END
>  <UniqueID>  (23) 
23

>  <SMILES>  (23) 
[NH-]C(=O)c1cc2ccc(C(F)(F)F)cc2n1C(=O)C1=CCC[N@@H+](CC(=O)[O-])C1

>  <Energy>  (23) 
93.83859500497323

>  <Genealogy>  (23) 
[NH-]C(=O)c1cc2ccc(C(F)(F)F)cc2n1C(=O)C1=CCC[NH+](CC(=O)[O-])C1 (protonated)
[NH-]C(=O)c1cc2ccc(C(F)(F)F)cc2n1C(=O)C1=CCC[N@@H+](CC(=O)[O-])C1 (chirality)
[NH-]C(=O)c1cc2ccc(C(F)(F)F)cc2n1C(=O)C1=CCC[N@@H+](CC(=O)[O-])C1 (3D coordinates assigned)
[NH-]C(=O)c1cc2ccc(C(F)(F)F)cc2n1C(=O)C1=CCC[N@@H+](CC(=O)[O-])C1 (nonaromatic ring conformer: 93.83859500497323 kcal/mol)

>  <smiles>  (23) 
NC(=O)c1cc2ccc(C(F)(F)F)cc2n1C(=O)C1=CCCN(CC(=O)O)C1

>  <score_type>  (23) 
oracle

>  <origin>  (23) 
adg

>  <m_score__min__energy>  (23) 
-6.5599999999999996

>  <m_primary>  (23) 
energy

$$$$
23:0
     RDKit          3D

 37 39  0  0  0  0  0  0  0  0999 V2000
  141.8900  158.9910  135.6020 C   0  0  0  0  0  0  0  0  0  0  0  0
  141.7340  158.6030  134.1350 C   0  0  2  0  0  0  0  0  0  0  0  0
  142.9980  158.7190  133.4830 O   0  0  0  0  0  0  0  0  0  0  0  0
  144.1710  158.1270  133.9650 C   0  0  0  0  0  0  0  0  0  0  0  0
  144.1160  157.0440  134.6100 O   0  0  0  0  0  0  0  0  0  0  0  0
  145.4400  158.7560  133.7230 N   0  0  0  0  0  0  0  0  0  0  0  0
  145.6980  160.0930  133.6530 C   0  0  0  0  0  0  0  0  0  0  0  0
  144.7510  161.1750  133.9840 C   0  0  0  0  0  0  0  0  0  0  0  0
  143.4330  161.2030  133.4330 N   0  0  0  0  0  0  0  0  0  0  0  0
  145.0890  162.0590  134.8160 O   0  0  0  0  0  0  0  0  0  0  0  0
  147.0150  160.3210  133.2680 C   0  0  0  0  0  0  0  0  0  0  0  0
  147.5690  159.0710  133.1110 C   0  0  0  0  0  0  0  0  0  0  0  0
  148.8520  158.7070  132.7170 C   0  0  0  0  0  0  0  0  0  0  0  0
  149.1410  157.3380  132.5930 C   0  0  0  0  0  0  0  0  0  0  0  0
  148.1460  156.3620  132.8500 C   0  0  0  0  0  0  0  0  0  0  0  0
  148.4800  154.9280  132.6920 C   0  0  0  0  0  0  0  0  0  0  0  0
  147.6840  153.8330  132.9620 C   0  0  0  0  0  0  0  0  0  0  0  0
  148.3750  152.7120  132.6840 N   0  0  0  0  0  0  0  0  0  0  0  0
  149.5680  153.1720  132.2510 C   0  0  0  0  0  0  0  0  0  0  0  0
  149.6320  154.4830  132.2540 O   0  0  0  0  0  0  0  0  0  0  0  0
  146.8510  156.7720  133.2470 C   0  0  0  0  0  0  0  0  0  0  0  0
  146.5990  158.1420  133.3860 C   0  0  0  0  0  0  0  0  0  0  0  0
  140.7210  159.4880  133.4700 C   0  0  0  0  0  0  0  0  0  0  0  0
  139.6620  158.9990  132.9960 O   0  0  0  0  0  0  0  0  0  0  0  0
  140.9690  160.8480  133.3390 O   0  0  0  0  0  0  0  0  0  0  0  0
  141.5554  158.1589  136.2389 H   0  0  0  0  0  0  0  0  0  0  0  0
  142.9468  159.2119  135.8125 H   0  0  0  0  0  0  0  0  0  0  0  0
  141.2802  159.8820  135.8125 H   0  0  0  0  0  0  0  0  0  0  0  0
  141.3823  157.5630  134.0658 H   0  0  0  0  0  0  0  0  0  0  0  0
  143.0470  160.3830  132.9140 H   0  0  0  0  0  0  0  0  0  0  0  0
  142.7960  162.0030  133.6410 H   0  0  0  0  0  0  0  0  0  0  0  0
  147.5084  161.2930  133.1205 H   0  0  0  0  0  0  0  0  0  0  0  0
  149.6179  159.4686  132.5086 H   0  0  0  0  0  0  0  0  0  0  0  0
  150.1505  157.0200  132.2932 H   0  0  0  0  0  0  0  0  0  0  0  0
  146.6526  153.8705  133.3425 H   0  0  0  0  0  0  0  0  0  0  0  0
  150.3946  152.5205  131.9312 H   0  0  0  0  0  0  0  0  0  0  0  0
  146.0611  156.0317  133.4417 H   0  0  0  0  0  0  0  0  0  0  0  0
  1  2  1  0
  2  3  1  0
  3  4  1  0
  4  5  2  0
  4  6  1  0
  6  7  1  0
  7  8  1  0
  8  9  1  0
  8 10  2  0
  7 11  2  0
 11 12  1  0
 12 13  2  0
 13 14  1  0
 14 15  2  0
 15 16  1  0
 16 17  2  0
 17 18  1  0
 18 19  2  0
 19 20  1  0
 15 21  1  0
 21 22  2  0
  2 23  1  0
 23 24  2  0
 23 25  1  0
 22  6  1  0
 22 12  1  0
 20 16  1  0
  1 26  1  0
  1 27  1  0
  1 28  1  0
  2 29  1  1
  9 30  1  0
  9 31  1  0
 11 32  1  0
 13 33  1  0
 14 34  1  0
 17 35  1  0
 19 36  1  0
 21 37  1  0
M  CHG  1  25  -1
M  END
>  <UniqueID>  (24) 
24

>  <SMILES>  (24) 
C[C@H](OC(=O)n1c(C(N)=O)cc2ccc(-c3cnco3)cc21)C(=O)[O-]

>  <Energy>  (24) 
104.54320148209466

>  <Genealogy>  (24) 
CC(OC(=O)n1c(C(N)=O)cc2ccc(-c3cnco3)cc21)C(=O)[O-] (protonated)
C[C@H](OC(=O)n1c(C(N)=O)cc2ccc(-c3cnco3)cc21)C(=O)[O-] (chirality)
C[C@H](OC(=O)n1c(C(N)=O)cc2ccc(-c3cnco3)cc21)C(=O)[O-] (3D coordinates assigned)
C[C@H](OC(=O)n1c(C(N)=O)cc2ccc(-c3cnco3)cc21)C(=O)[O-] (optimized conformer: 104.54320148209466 kcal/mol)

>  <smiles>  (24) 
CC(OC(=O)n1c(C(N)=O)cc2ccc(-c3cnco3)cc21)C(=O)O

>  <score_type>  (24) 
oracle

>  <origin>  (24) 
adg

>  <m_score__min__energy>  (24) 
-7.0300000000000002

>  <m_primary>  (24) 
energy

$$$$
24:0
     RDKit          3D

 40 41  0  0  0  0  0  0  0  0999 V2000
  145.6840  160.5440  133.3560 N   0  0  0  0  0  0  0  0  0  0  0  0
  144.2740  160.6000  133.5590 C   0  0  0  0  0  0  0  0  0  0  0  0
  143.7180  161.7180  133.7210 O   0  0  0  0  0  0  0  0  0  0  0  0
  143.4900  159.3470  133.6120 C   0  0  0  0  0  0  0  0  0  0  0  0
  142.0980  159.3070  133.5560 C   0  0  0  0  0  0  0  0  0  0  0  0
  141.7710  157.9700  133.5460 C   0  0  0  0  0  0  0  0  0  0  0  0
  140.5240  157.3510  133.5020 C   0  0  0  0  0  0  0  0  0  0  0  0
  140.4860  155.9450  133.5250 C   0  0  0  0  0  0  0  0  0  0  0  0
  141.6840  155.1980  133.6000 C   0  0  0  0  0  0  0  0  0  0  0  0
  141.6350  153.7600  133.6340 C   0  0  0  0  0  0  0  0  0  0  0  0
  141.5970  152.5560  133.6610 C   0  0  0  0  0  0  0  0  0  0  0  0
  141.5500  151.1220  133.6910 C   0  0  0  0  0  0  0  0  0  0  0  0
  142.0230  150.4570  132.7330 O   0  0  0  0  0  0  0  0  0  0  0  0
  140.9850  150.4680  134.7770 O   0  0  0  0  0  0  0  0  0  0  0  0
  142.9290  155.8560  133.6480 C   0  0  0  0  0  0  0  0  0  0  0  0
  142.9400  157.2540  133.5980 C   0  0  0  0  0  0  0  0  0  0  0  0
  144.0020  158.0840  133.6390 N   0  0  0  0  0  0  0  0  0  0  0  0
  145.3800  157.6870  133.7230 C   0  0  0  0  0  0  0  0  0  0  0  0
  145.8160  157.1430  134.7730 O   0  0  0  0  0  0  0  0  0  0  0  0
  146.2250  157.8940  132.6290 O   0  0  0  0  0  0  0  0  0  0  0  0
  147.4260  157.1530  132.4320 C   0  0  0  0  0  0  0  0  0  0  0  0
  148.6650  158.0680  132.4960 C   0  0  0  0  0  0  0  0  0  0  0  0
  148.7540  159.0300  131.2930 C   0  0  0  0  0  0  0  0  0  0  0  0
  147.7220  159.9810  131.3110 O   0  0  0  0  0  0  0  0  0  0  0  0
  148.7880  158.7950  133.8490 C   0  0  0  0  0  0  0  0  0  0  0  0
  148.0100  159.9600  133.8740 O   0  0  0  0  0  0  0  0  0  0  0  0
  146.1100  159.8130  132.7450 H   0  0  0  0  0  0  0  0  0  0  0  0
  141.4072  160.1625  133.5261 H   0  0  0  0  0  0  0  0  0  0  0  0
  139.5982  157.9429  133.4509 H   0  0  0  0  0  0  0  0  0  0  0  0
  139.5183  155.4236  133.4844 H   0  0  0  0  0  0  0  0  0  0  0  0
  143.8668  155.2860  133.7227 H   0  0  0  0  0  0  0  0  0  0  0  0
  147.5063  156.3856  133.2160 H   0  0  0  0  0  0  0  0  0  0  0  0
  147.3882  156.6886  131.4356 H   0  0  0  0  0  0  0  0  0  0  0  0
  149.5416  157.4078  132.4212 H   0  0  0  0  0  0  0  0  0  0  0  0
  149.7212  159.5529  131.3256 H   0  0  0  0  0  0  0  0  0  0  0  0
  148.6573  158.4367  130.3718 H   0  0  0  0  0  0  0  0  0  0  0  0
  147.0440  159.6660  131.9640 H   0  0  0  0  0  0  0  0  0  0  0  0
  148.4497  158.1211  134.6499 H   0  0  0  0  0  0  0  0  0  0  0  0
  149.8408  159.0776  133.9966 H   0  0  0  0  0  0  0  0  0  0  0  0
  147.1640  159.7370  133.4030 H   0  0  0  0  0  0  0  0  0  0  0  0
  1  2  1  0
  2  3  2  0
  2  4  1  0
  4  5  2  0
  5  6  1  0
  6  7  2  0
  7  8  1  0
  8  9  2  0
  9 10  1  0
 10 11  3  0
 11 12  1  0
 12 13  2  0
 12 14  1  0
  9 15  1  0
 15 16  2  0
 16 17  1  0
 17 18  1  0
 18 19  2  0
 18 20  1  0
 20 21  1  0
 21 22  1  0
 22 23  1  0
 23 24  1  0
 22 25  1  0
 25 26  1  0
 17  4  1  0
 16  6  1  0
  1 27  1  0
  5 28  1  0
  7 29  1  0
  8 30  1  0
 15 31  1  0
 21 32  1  0
 21 33  1  0
 22 34  1  0
 23 35  1  0
 23 36  1  0
 24 37  1  0
 25 38  1  0
 25 39  1  0
 26 40  1  0
M  CHG  2   1  -1  14  -1
M  END
>  <UniqueID>  (25) 
25

>  <SMILES>  (25) 
[NH-]C(=O)c1cc2ccc(C#CC(=O)[O-])cc2n1C(=O)OCC(CO)CO

>  <Energy>  (25) 
69.07393445930576

>  <Genealogy>  (25) 
[NH-]C(=O)c1cc2ccc(C#CC(=O)[O-])cc2n1C(=O)OCC(CO)CO (protonated)
[NH-]C(=O)c1cc2ccc(C#CC(=O)[O-])cc2n1C(=O)OCC(CO)CO (3D coordinates assigned)
[NH-]C(=O)c1cc2ccc(C#CC(=O)[O-])cc2n1C(=O)OCC(CO)CO (optimized conformer: 69.07393445930576 kcal/mol)

>  <smiles>  (25) 
NC(=O)c1cc2ccc(C#CC(=O)O)cc2n1C(=O)OCC(CO)CO

>  <score_type>  (25) 
oracle

>  <origin>  (25) 
adg

>  <m_score__min__energy>  (25) 
-5.9000000000000004

>  <m_primary>  (25) 
energy

$$$$
25:0
     RDKit          3D

 40 42  0  0  0  0  0  0  0  0999 V2000
  140.1700  156.6930  134.0660 N   0  0  0  0  0  0  0  0  0  0  0  0
  140.6540  157.8090  134.8110 C   0  0  0  0  0  0  0  0  0  0  0  0
  139.9610  158.2670  135.7560 O   0  0  0  0  0  0  0  0  0  0  0  0
  141.9770  158.3860  134.4940 C   0  0  0  0  0  0  0  0  0  0  0  0
  142.3280  159.7050  134.7780 C   0  0  0  0  0  0  0  0  0  0  0  0
  143.5910  159.8670  134.2560 C   0  0  0  0  0  0  0  0  0  0  0  0
  144.4260  160.9790  134.2630 C   0  0  0  0  0  0  0  0  0  0  0  0
  145.6940  160.8550  133.6740 C   0  0  0  0  0  0  0  0  0  0  0  0
  146.1110  159.6270  133.0960 C   0  0  0  0  0  0  0  0  0  0  0  0
  147.4600  159.5030  132.4880 C   0  0  0  0  0  0  0  0  0  0  0  0
  148.2930  158.4170  132.8070 C   0  0  0  0  0  0  0  0  0  0  0  0
  149.5580  158.3190  132.2250 C   0  0  0  0  0  0  0  0  0  0  0  0
  149.9820  159.2710  131.3520 N   0  0  0  0  0  0  0  0  0  0  0  0
  149.2040  160.3350  131.0190 C   0  0  0  0  0  0  0  0  0  0  0  0
  149.6930  161.3070  130.0940 N   0  0  0  0  0  0  0  0  0  0  0  0
  147.9280  160.4700  131.5820 C   0  0  0  0  0  0  0  0  0  0  0  0
  145.2310  158.5180  133.1100 C   0  0  0  0  0  0  0  0  0  0  0  0
  143.9660  158.6780  133.6880 C   0  0  0  0  0  0  0  0  0  0  0  0
  142.9860  157.7570  133.8260 N   0  0  0  0  0  0  0  0  0  0  0  0
  143.0470  156.3790  133.4260 C   0  0  0  0  0  0  0  0  0  0  0  0
  143.3280  156.0850  132.2330 O   0  0  0  0  0  0  0  0  0  0  0  0
  142.8110  155.3710  134.3680 O   0  0  0  0  0  0  0  0  0  0  0  0
  142.7810  153.9830  134.0420 C   0  0  0  0  0  0  0  0  0  0  0  0
  141.3790  153.5560  133.6030 C   0  0  0  0  0  0  0  0  0  0  0  0
  140.8810  154.4320  132.6280 O   0  0  0  0  0  0  0  0  0  0  0  0
  140.8070  155.9120  133.7940 H   0  0  0  0  0  0  0  0  0  0  0  0
  141.7237  160.4567  135.3070 H   0  0  0  0  0  0  0  0  0  0  0  0
  144.1024  161.9275  134.7166 H   0  0  0  0  0  0  0  0  0  0  0  0
  146.3732  161.7201  133.6600 H   0  0  0  0  0  0  0  0  0  0  0  0
  147.9493  157.6467  133.5130 H   0  0  0  0  0  0  0  0  0  0  0  0
  150.2126  157.4705  132.4730 H   0  0  0  0  0  0  0  0  0  0  0  0
  149.0690  161.7160  129.3630 H   0  0  0  0  0  0  0  0  0  0  0  0
  150.6880  161.6210  130.1380 H   0  0  0  0  0  0  0  0  0  0  0  0
  147.2951  161.3294  131.3159 H   0  0  0  0  0  0  0  0  0  0  0  0
  145.5341  157.5533  132.6769 H   0  0  0  0  0  0  0  0  0  0  0  0
  143.4894  153.7899  133.2229 H   0  0  0  0  0  0  0  0  0  0  0  0
  143.0607  153.4058  134.9356 H   0  0  0  0  0  0  0  0  0  0  0  0
  141.4243  152.5389  133.1865 H   0  0  0  0  0  0  0  0  0  0  0  0
  140.7106  153.5790  134.4763 H   0  0  0  0  0  0  0  0  0  0  0  0
  141.3480  155.2990  132.7590 H   0  0  0  0  0  0  0  0  0  0  0  0
  1  2  1  0
  2  3  2  0
  2  4  1  0
  4  5  2  0
  5  6  1  0
  6  7  2  0
  7  8  1  0
  8  9  2  0
  9 10  1  0
 10 11  2  0
 11 12  1  0
 12 13  2  0
 13 14  1  0
 14 15  1  0
 14 16  2  0
  9 17  1  0
 17 18  2  0
 18 19  1  0
 19 20  1  0
 20 21  2  0
 20 22  1  0
 22 23  1  0
 23 24  1  0
 24 25  1  0
 19  4  1  0
 18  6  1  0
 16 10  1  0
  1 26  1  0
  5 27  1  0
  7 28  1  0
  8 29  1  0
 11 30  1  0
 12 31  1  0
 15 32  1  0
 15 33  1  0
 16 34  1  0
 17 35  1  0
 23 36  1  0
 23 37  1  0
 24 38  1  0
 24 39  1  0
 25 40  1  0
M  CHG  1   1  -1
M  END
>  <UniqueID>  (26) 
26

>  <SMILES>  (26) 
[NH-]C(=O)c1cc2ccc(-c3ccnc(N)c3)cc2n1C(=O)OCCO

>  <Energy>  (26) 
82.44334236497576

>  <Genealogy>  (26) 
[NH-]C(=O)c1cc2ccc(-c3ccnc(N)c3)cc2n1C(=O)OCCO (protonated)
[NH-]C(=O)c1cc2ccc(-c3ccnc(N)c3)cc2n1C(=O)OCCO (3D coordinates assigned)
[NH-]C(=O)c1cc2ccc(-c3ccnc(N)c3)cc2n1C(=O)OCCO (optimized conformer: 82.44334236497576 kcal/mol)

>  <smiles>  (26) 
NC(=O)c1cc2ccc(-c3ccnc(N)c3)cc2n1C(=O)OCCO

>  <score_type>  (26) 
oracle

>  <origin>  (26) 
adg

>  <m_score__min__energy>  (26) 
-6.7599999999999998

>  <m_primary>  (26) 
energy

$$$$
26:0
     RDKit          3D

 35 36  0  0  0  0  0  0  0  0999 V2000
  149.8280  157.8170  131.8650 N   0  0  0  0  0  0  0  0  0  0  0  0
  149.2580  159.0890  132.1620 C   0  0  0  0  0  0  0  0  0  0  0  0
  149.9210  160.1330  131.9230 O   0  0  0  0  0  0  0  0  0  0  0  0
  147.8840  159.2000  132.6930 C   0  0  0  0  0  0  0  0  0  0  0  0
  147.2440  160.4180  132.9170 C   0  0  0  0  0  0  0  0  0  0  0  0
  145.9710  160.0920  133.3260 C   0  0  0  0  0  0  0  0  0  0  0  0
  144.9140  160.9150  133.7050 C   0  0  0  0  0  0  0  0  0  0  0  0
  143.7220  160.3020  134.1270 C   0  0  0  0  0  0  0  0  0  0  0  0
  143.6090  158.8900  134.1610 C   0  0  0  0  0  0  0  0  0  0  0  0
  142.3420  158.2480  134.6650 C   0  0  0  0  0  0  0  0  0  0  0  0
  141.2860  159.2940  135.0430 C   0  0  0  0  0  0  0  0  0  0  0  0
  140.6150  158.9610  136.3400 C   0  0  0  0  0  0  0  0  0  0  0  0
  141.0370  159.4570  137.4170 O   0  0  0  0  0  0  0  0  0  0  0  0
  139.4970  158.1360  136.3540 O   0  0  0  0  0  0  0  0  0  0  0  0
  144.7050  158.0870  133.7740 C   0  0  0  0  0  0  0  0  0  0  0  0
  145.8750  158.7240  133.3440 C   0  0  0  0  0  0  0  0  0  0  0  0
  147.0420  158.1620  132.9620 N   0  0  0  0  0  0  0  0  0  0  0  0
  147.3500  156.7590  132.9580 C   0  0  0  0  0  0  0  0  0  0  0  0
  147.3130  156.1100  131.8770 O   0  0  0  0  0  0  0  0  0  0  0  0
  147.6640  156.1150  134.1600 O   0  0  0  0  0  0  0  0  0  0  0  0
  147.5740  154.7030  134.3380 C   0  0  0  0  0  0  0  0  0  0  0  0
  146.6550  154.3780  135.4720 C   0  0  0  0  0  0  0  0  0  0  0  0
  145.5720  155.0060  135.6070 O   0  0  0  0  0  0  0  0  0  0  0  0
  146.9780  153.3640  136.3630 O   0  0  0  0  0  0  0  0  0  0  0  0
  149.2430  157.0420  131.4820 H   0  0  0  0  0  0  0  0  0  0  0  0
  147.6668  161.4259  132.7931 H   0  0  0  0  0  0  0  0  0  0  0  0
  145.0089  162.0105  133.6751 H   0  0  0  0  0  0  0  0  0  0  0  0
  142.8685  160.9243  134.4339 H   0  0  0  0  0  0  0  0  0  0  0  0
  141.9338  157.5985  133.8767 H   0  0  0  0  0  0  0  0  0  0  0  0
  142.5874  157.6680  135.5668 H   0  0  0  0  0  0  0  0  0  0  0  0
  141.7739  160.2755  135.1359 H   0  0  0  0  0  0  0  0  0  0  0  0
  140.5194  159.3076  134.2542 H   0  0  0  0  0  0  0  0  0  0  0  0
  144.6407  156.9895  133.8097 H   0  0  0  0  0  0  0  0  0  0  0  0
  147.1873  154.2453  133.4155 H   0  0  0  0  0  0  0  0  0  0  0  0
  148.5750  154.3075  134.5654 H   0  0  0  0  0  0  0  0  0  0  0  0
  1  2  1  0
  2  3  2  0
  2  4  1  0
  4  5  2  0
  5  6  1  0
  6  7  2  0
  7  8  1  0
  8  9  2  0
  9 10  1  0
 10 11  1  0
 11 12  1  0
 12 13  2  0
 12 14  1  0
  9 15  1  0
 15 16  2  0
 16 17  1  0
 17 18  1  0
 18 19  2  0
 18 20  1  0
 20 21  1  0
 21 22  1  0
 22 23  2  0
 22 24  1  0
 17  4  1  0
 16  6  1  0
  1 25  1  0
  5 26  1  0
  7 27  1  0
  8 28  1  0
 10 29  1  0
 10 30  1  0
 11 31  1  0
 11 32  1  0
 15 33  1  0
 21 34  1  0
 21 35  1  0
M  CHG  3   1  -1  14  -1  24  -1
M  END
>  <UniqueID>  (27) 
27

>  <SMILES>  (27) 
[NH-]C(=O)c1cc2ccc(CCC(=O)[O-])cc2n1C(=O)OCC(=O)[O-]

>  <Energy>  (27) 
68.57407336727074

>  <Genealogy>  (27) 
[NH-]C(=O)c1cc2ccc(CCC(=O)[O-])cc2n1C(=O)OCC(=O)[O-] (protonated)
[NH-]C(=O)c1cc2ccc(CCC(=O)[O-])cc2n1C(=O)OCC(=O)[O-] (3D coordinates assigned)
[NH-]C(=O)c1cc2ccc(CCC(=O)[O-])cc2n1C(=O)OCC(=O)[O-] (optimized conformer: 68.57407336727074 kcal/mol)

>  <smiles>  (27) 
NC(=O)c1cc2ccc(CCC(=O)O)cc2n1C(=O)OCC(=O)O

>  <score_type>  (27) 
oracle

>  <origin>  (27) 
adg

>  <m_score__min__energy>  (27) 
-6.7699999999999996

>  <m_primary>  (27) 
energy

$$$$
27:0
     RDKit          3D

 52 54  0  0  0  0  0  0  0  0999 V2000
  148.4920  153.3530  133.0050 C   0  0  0  0  0  0  0  0  0  0  0  0
  147.1670  153.0900  133.3900 O   0  0  0  0  0  0  0  0  0  0  0  0
  146.6830  154.2170  134.5840 P   0  0  0  0  0  0  0  0  0  0  0  0
  146.9730  153.7280  135.9890 O   0  0  0  0  0  0  0  0  0  0  0  0
  147.5720  155.7870  134.3240 C   0  0  0  0  0  0  0  0  0  0  0  0
  147.0840  156.5030  133.0960 C   0  0  0  0  0  0  0  0  0  0  0  0
  147.0200  155.8850  131.9990 O   0  0  0  0  0  0  0  0  0  0  0  0
  146.7790  157.9080  133.1400 N   0  0  0  0  0  0  0  0  0  0  0  0
  147.5960  158.9460  132.8050 C   0  0  0  0  0  0  0  0  0  0  0  0
  149.0160  158.8360  132.4110 C   0  0  0  0  0  0  0  0  0  0  0  0
  149.5980  157.5500  132.2040 N   0  0  0  0  0  0  0  0  0  0  0  0
  149.7190  159.8650  132.2330 O   0  0  0  0  0  0  0  0  0  0  0  0
  146.9260  160.1610  132.9480 C   0  0  0  0  0  0  0  0  0  0  0  0
  145.6640  159.8330  133.3860 C   0  0  0  0  0  0  0  0  0  0  0  0
  144.5810  160.6500  133.7010 C   0  0  0  0  0  0  0  0  0  0  0  0
  143.3900  160.0330  134.1240 C   0  0  0  0  0  0  0  0  0  0  0  0
  143.2990  158.6230  134.2030 C   0  0  0  0  0  0  0  0  0  0  0  0
  142.0840  157.9960  134.6480 N   0  0  0  0  0  0  0  0  0  0  0  0
  142.1160  156.7660  135.4430 C   0  0  0  0  0  0  0  0  0  0  0  0
  141.5010  157.0110  136.8350 C   0  0  0  0  0  0  0  0  0  0  0  0
  140.4500  158.0630  136.8500 N   0  0  0  0  0  0  0  0  0  0  0  0
  140.9530  159.3320  137.4050 C   0  0  0  0  0  0  0  0  0  0  0  0
  139.7940  158.2530  135.5370 C   0  0  0  0  0  0  0  0  0  0  0  0
  140.7990  158.6720  134.4500 C   0  0  0  0  0  0  0  0  0  0  0  0
  144.4210  157.8310  133.8810 C   0  0  0  0  0  0  0  0  0  0  0  0
  145.5990  158.4680  133.4880 C   0  0  0  0  0  0  0  0  0  0  0  0
  145.0160  154.5400  134.4310 O   0  0  0  0  0  0  0  0  0  0  0  0
  144.6100  154.1570  133.1410 C   0  0  0  0  0  0  0  0  0  0  0  0
  149.1167  153.4770  133.9019 H   0  0  0  0  0  0  0  0  0  0  0  0
  148.8733  152.5130  132.4058 H   0  0  0  0  0  0  0  0  0  0  0  0
  148.5236  154.2749  132.4058 H   0  0  0  0  0  0  0  0  0  0  0  0
  147.4168  156.4342  135.1998 H   0  0  0  0  0  0  0  0  0  0  0  0
  148.6395  155.5592  134.1877 H   0  0  0  0  0  0  0  0  0  0  0  0
  149.0240  156.7510  131.8550 H   0  0  0  0  0  0  0  0  0  0  0  0
  147.3228  161.1681  132.7520 H   0  0  0  0  0  0  0  0  0  0  0  0
  144.6549  161.7446  133.6214 H   0  0  0  0  0  0  0  0  0  0  0  0
  142.5220  160.6516  134.3957 H   0  0  0  0  0  0  0  0  0  0  0  0
  141.5410  155.9843  134.9250 H   0  0  0  0  0  0  0  0  0  0  0  0
  143.1615  156.4469  135.5655 H   0  0  0  0  0  0  0  0  0  0  0  0
  141.0544  156.0695  137.1875 H   0  0  0  0  0  0  0  0  0  0  0  0
  142.3144  157.3613  137.4875 H   0  0  0  0  0  0  0  0  0  0  0  0
  140.9342  159.2846  138.5038 H   0  0  0  0  0  0  0  0  0  0  0  0
  141.9851  159.4984  137.0627 H   0  0  0  0  0  0  0  0  0  0  0  0
  140.3152  160.1603  137.0627 H   0  0  0  0  0  0  0  0  0  0  0  0
  139.3186  157.3076  135.2367 H   0  0  0  0  0  0  0  0  0  0  0  0
  139.0489  159.0556  135.6406 H   0  0  0  0  0  0  0  0  0  0  0  0
  140.3968  158.4021  133.4624 H   0  0  0  0  0  0  0  0  0  0  0  0
  140.9565  159.7589  134.5124 H   0  0  0  0  0  0  0  0  0  0  0  0
  144.3686  156.7337  133.9385 H   0  0  0  0  0  0  0  0  0  0  0  0
  143.8117  153.4040  133.2163 H   0  0  0  0  0  0  0  0  0  0  0  0
  144.2340  155.0370  132.5986 H   0  0  0  0  0  0  0  0  0  0  0  0
  145.4666  153.7303  132.5986 H   0  0  0  0  0  0  0  0  0  0  0  0
  1  2  1  0
  2  3  1  0
  3  4  2  0
  3  5  1  0
  5  6  1  0
  6  7  2  0
  6  8  1  0
  8  9  1  0
  9 10  1  0
 10 11  1  0
 10 12  2  0
  9 13  2  0
 13 14  1  0
 14 15  2  0
 15 16  1  0
 16 17  2  0
 17 18  1  0
 18 19  1  0
 19 20  1  0
 20 21  1  0
 21 22  1  0
 21 23  1  0
 23 24  1  0
 17 25  1  0
 25 26  2  0
  3 27  1  0
 27 28  1  0
 26  8  1  0
 26 14  1  0
 24 18  1  0
  1 29  1  0
  1 30  1  0
  1 31  1  0
  5 32  1  0
  5 33  1  0
 11 34  1  0
 13 35  1  0
 15 36  1  0
 16 37  1  0
 19 38  1  0
 19 39  1  0
 20 40  1  0
 20 41  1  0
 22 42  1  0
 22 43  1  0
 22 44  1  0
 23 45  1  0
 23 46  1  0
 24 47  1  0
 24 48  1  0
 25 49  1  0
 28 50  1  0
 28 51  1  0
 28 52  1  0
M  CHG  1  11  -1
M  END
>  <UniqueID>  (28) 
28

>  <SMILES>  (28) 
COP(=O)(CC(=O)n1c(C([NH-])=O)cc2ccc(N3CCN(C)CC3)cc21)OC

>  <Energy>  (28) 
96.9215500709507

>  <Genealogy>  (28) 
COP(=O)(CC(=O)n1c(C([NH-])=O)cc2ccc(N3CCN(C)CC3)cc21)OC (protonated)
COP(=O)(CC(=O)n1c(C([NH-])=O)cc2ccc(N3CCN(C)CC3)cc21)OC (3D coordinates assigned)
COP(=O)(CC(=O)n1c(C([NH-])=O)cc2ccc(N3CCN(C)CC3)cc21)OC (nonaromatic ring conformer: 96.9215500709507 kcal/mol)

>  <smiles>  (28) 
COP(=O)(CC(=O)n1c(C(N)=O)cc2ccc(N3CCN(C)CC3)cc21)OC

>  <score_type>  (28) 
oracle

>  <origin>  (28) 
adg

>  <m_score__min__energy>  (28) 
-7.3799999999999999

>  <m_primary>  (28) 
energy

$$$$
28:0
     RDKit          3D

 32 34  0  0  0  0  0  0  0  0999 V2000
  145.5140  153.1430  134.2080 N   0  0  0  0  0  0  0  0  0  0  0  0
  146.3710  154.0160  134.9390 C   0  0  0  0  0  0  0  0  0  0  0  0
  146.6890  153.7170  136.1210 O   0  0  0  0  0  0  0  0  0  0  0  0
  146.8550  155.2820  134.3480 C   0  0  0  0  0  0  0  0  0  0  0  0
  146.2980  156.5270  134.6340 C   0  0  0  0  0  0  0  0  0  0  0  0
  146.9800  157.4230  133.8420 C   0  0  0  0  0  0  0  0  0  0  0  0
  146.8500  158.8040  133.7330 C   0  0  0  0  0  0  0  0  0  0  0  0
  147.7150  159.4800  132.8570 C   0  0  0  0  0  0  0  0  0  0  0  0
  148.6930  158.7700  132.1150 C   0  0  0  0  0  0  0  0  0  0  0  0
  149.6290  159.4980  131.1940 C   0  0  0  0  0  0  0  0  0  0  0  0
  149.5600  160.8580  131.4380 F   0  0  0  0  0  0  0  0  0  0  0  0
  149.2760  159.2510  129.8810 F   0  0  0  0  0  0  0  0  0  0  0  0
  148.7970  157.3680  132.2560 C   0  0  0  0  0  0  0  0  0  0  0  0
  147.9090  156.7190  133.1200 C   0  0  0  0  0  0  0  0  0  0  0  0
  147.8440  155.4040  133.4180 N   0  0  0  0  0  0  0  0  0  0  0  0
  148.7090  154.3760  132.9130 C   0  0  0  0  0  0  0  0  0  0  0  0
  149.7800  154.6970  132.3290 O   0  0  0  0  0  0  0  0  0  0  0  0
  148.3480  152.9960  133.0720 N   0  0  0  0  0  0  0  0  0  0  0  0
  149.0850  151.9040  132.5050 C   0  0  0  0  0  0  0  0  0  0  0  0
  148.5160  150.8460  131.8890 N   0  0  0  0  0  0  0  0  0  0  0  0
  149.5770  150.0960  131.5320 C   0  0  0  0  0  0  0  0  0  0  0  0
  150.7330  150.7220  131.9410 C   0  0  0  0  0  0  0  0  0  0  0  0
  150.3950  151.8370  132.5390 O   0  0  0  0  0  0  0  0  0  0  0  0
  145.8860  152.2800  133.7550 H   0  0  0  0  0  0  0  0  0  0  0  0
  145.4857  156.7471  135.3423 H   0  0  0  0  0  0  0  0  0  0  0  0
  146.0929  159.3497  134.3152 H   0  0  0  0  0  0  0  0  0  0  0  0
  147.6330  160.5712  132.7453 H   0  0  0  0  0  0  0  0  0  0  0  0
  150.6556  159.1449  131.3713 H   0  0  0  0  0  0  0  0  0  0  0  0
  149.5578  156.8007  131.6998 H   0  0  0  0  0  0  0  0  0  0  0  0
  147.5040  152.7660  133.6420 H   0  0  0  0  0  0  0  0  0  0  0  0
  149.5274  149.1355  130.9982 H   0  0  0  0  0  0  0  0  0  0  0  0
  151.7580  150.3516  131.7920 H   0  0  0  0  0  0  0  0  0  0  0  0
  1  2  1  0
  2  3  2  0
  2  4  1  0
  4  5  2  0
  5  6  1  0
  6  7  2  0
  7  8  1  0
  8  9  2  0
  9 10  1  0
 10 11  1  0
 10 12  1  0
  9 13  1  0
 13 14  2  0
 14 15  1  0
 15 16  1  0
 16 17  2  0
 16 18  1  0
 18 19  1  0
 19 20  2  0
 20 21  1  0
 21 22  2  0
 22 23  1  0
 15  4  1  0
 23 19  1  0
 14  6  1  0
  1 24  1  0
  5 25  1  0
  7 26  1  0
  8 27  1  0
 10 28  1  0
 13 29  1  0
 18 30  1  0
 21 31  1  0
 22 32  1  0
M  CHG  1   1  -1
M  END
>  <UniqueID>  (29) 
29

>  <SMILES>  (29) 
[NH-]C(=O)c1cc2ccc(C(F)F)cc2n1C(=O)Nc1ncco1

>  <Energy>  (29) 
102.89981472590081

>  <Genealogy>  (29) 
[NH-]C(=O)c1cc2ccc(C(F)F)cc2n1C(=O)Nc1ncco1 (protonated)
[NH-]C(=O)c1cc2ccc(C(F)F)cc2n1C(=O)Nc1ncco1 (3D coordinates assigned)
[NH-]C(=O)c1cc2ccc(C(F)F)cc2n1C(=O)Nc1ncco1 (optimized conformer: 102.89981472590081 kcal/mol)

>  <smiles>  (29) 
NC(=O)c1cc2ccc(C(F)F)cc2n1C(=O)Nc1ncco1

>  <score_type>  (29) 
oracle

>  <origin>  (29) 
adg

>  <m_score__min__energy>  (29) 
-6.6299999999999999

>  <m_primary>  (29) 
energy

$$$$
29:0
     RDKit          3D

 39 41  0  0  0  0  0  0  0  0999 V2000
  149.8930  158.8700  131.8730 C   0  0  0  0  0  0  0  0  0  0  0  0
  148.5440  158.3160  132.0660 N   0  0  0  0  0  0  0  0  0  0  0  0
  147.7530  159.1070  133.0240 C   0  0  0  0  0  0  0  0  0  0  0  0
  147.1790  158.1510  134.0640 C   0  0  0  0  0  0  0  0  0  0  0  0
  147.3770  156.7640  133.4750 C   0  0  1  0  0  0  0  0  0  0  0  0
  146.2100  156.3520  132.6800 N   0  0  0  0  0  0  0  0  0  0  0  0
  145.5960  155.0500  132.7620 C   0  0  0  0  0  0  0  0  0  0  0  0
  146.3530  153.8550  132.6210 C   0  0  0  0  0  0  0  0  0  0  0  0
  145.7300  152.5980  132.6890 C   0  0  0  0  0  0  0  0  0  0  0  0
  144.3570  152.5600  132.9110 C   0  0  0  0  0  0  0  0  0  0  0  0
  143.5060  151.4820  132.9840 C   0  0  0  0  0  0  0  0  0  0  0  0
  142.2440  152.0270  133.2020 C   0  0  0  0  0  0  0  0  0  0  0  0
  141.0310  151.2080  133.4040 C   0  0  0  0  0  0  0  0  0  0  0  0
  139.8770  151.3800  132.5810 N   0  0  0  0  0  0  0  0  0  0  0  0
  140.9950  150.3820  134.3540 O   0  0  0  0  0  0  0  0  0  0  0  0
  142.3070  153.3880  133.2480 N   0  0  0  0  0  0  0  0  0  0  0  0
  141.2090  154.3110  133.3400 C   0  0  0  0  0  0  0  0  0  0  0  0
  140.1860  154.1560  132.6220 O   0  0  0  0  0  0  0  0  0  0  0  0
  141.2620  155.3850  134.2190 O   0  0  0  0  0  0  0  0  0  0  0  0
  143.6120  153.6990  133.0700 C   0  0  0  0  0  0  0  0  0  0  0  0
  144.2020  154.9640  132.9830 C   0  0  0  0  0  0  0  0  0  0  0  0
  148.5940  156.9420  132.5810 C   0  0  0  0  0  0  0  0  0  0  0  0
  150.3551  159.0598  132.8530 H   0  0  0  0  0  0  0  0  0  0  0  0
  150.5075  158.1514  131.3108 H   0  0  0  0  0  0  0  0  0  0  0  0
  149.8251  159.8131  131.3108 H   0  0  0  0  0  0  0  0  0  0  0  0
  148.3973  159.8506  133.5159 H   0  0  0  0  0  0  0  0  0  0  0  0
  146.9419  159.6374  132.5037 H   0  0  0  0  0  0  0  0  0  0  0  0
  147.7194  158.2470  135.0173 H   0  0  0  0  0  0  0  0  0  0  0  0
  146.1210  158.3613  134.2792 H   0  0  0  0  0  0  0  0  0  0  0  0
  147.5048  155.9870  134.2431 H   0  0  0  0  0  0  0  0  0  0  0  0
  145.7840  157.0450  132.0220 H   0  0  0  0  0  0  0  0  0  0  0  0
  147.4390  153.9155  132.4568 H   0  0  0  0  0  0  0  0  0  0  0  0
  146.3103  151.6711  132.5703 H   0  0  0  0  0  0  0  0  0  0  0  0
  143.7668  150.4175  132.8902 H   0  0  0  0  0  0  0  0  0  0  0  0
  139.0430  150.7670  132.7150 H   0  0  0  0  0  0  0  0  0  0  0  0
  139.8140  152.1680  131.9000 H   0  0  0  0  0  0  0  0  0  0  0  0
  143.5933  155.8746  133.0845 H   0  0  0  0  0  0  0  0  0  0  0  0
  149.5159  156.7882  133.1611 H   0  0  0  0  0  0  0  0  0  0  0  0
  148.5901  156.2116  131.7585 H   0  0  0  0  0  0  0  0  0  0  0  0
  1  2  1  0
  2  3  1  0
  3  4  1  0
  4  5  1  0
  5  6  1  0
  6  7  1  0
  7  8  2  0
  8  9  1  0
  9 10  2  0
 10 11  1  0
 11 12  2  0
 12 13  1  0
 13 14  1  0
 13 15  2  0
 12 16  1  0
 16 17  1  0
 17 18  2  0
 17 19  1  0
 16 20  1  0
 20 21  2  0
  5 22  1  0
 22  2  1  0
 21  7  1  0
 20 10  1  0
  1 23  1  0
  1 24  1  0
  1 25  1  0
  3 26  1  0
  3 27  1  0
  4 28  1  0
  4 29  1  0
  5 30  1  1
  6 31  1  0
  8 32  1  0
  9 33  1  0
 11 34  1  0
 14 35  1  0
 14 36  1  0
 21 37  1  0
 22 38  1  0
 22 39  1  0
M  CHG  1  19  -1
M  END
>  <UniqueID>  (30) 
30

>  <SMILES>  (30) 
CN1CC[C@@H](Nc2ccc3cc(C(N)=O)n(C(=O)[O-])c3c2)C1

>  <Energy>  (30) 
83.53993549382463

>  <Genealogy>  (30) 
CN1CCC(Nc2ccc3cc(C(N)=O)n(C(=O)[O-])c3c2)C1 (protonated)
CN1CC[C@@H](Nc2ccc3cc(C(N)=O)n(C(=O)[O-])c3c2)C1 (chirality)
CN1CC[C@@H](Nc2ccc3cc(C(N)=O)n(C(=O)[O-])c3c2)C1 (3D coordinates assigned)
CN1CC[C@@H](Nc2ccc3cc(C(N)=O)n(C(=O)[O-])c3c2)C1 (nonaromatic ring conformer: 83.53993549382463 kcal/mol)

>  <smiles>  (30) 
CN1CCC(Nc2ccc3cc(C(N)=O)n(C(=O)O)c3c2)C1

>  <score_type>  (30) 
oracle

>  <origin>  (30) 
adg

>  <m_score__min__energy>  (30) 
-7.5599999999999996

>  <m_primary>  (30) 
energy

$$$$
30:0
     RDKit          3D

 34 35  0  0  0  0  0  0  0  0999 V2000
  147.5370  157.2900  132.6070 C   0  0  0  0  0  0  0  0  0  0  0  0
  147.2610  158.6700  133.0290 N   0  0  0  0  0  0  0  0  0  0  0  0
  148.3940  159.6130  133.0740 C   0  0  0  0  0  0  0  0  0  0  0  0
  149.2580  159.4980  131.8140 C   0  0  0  0  0  0  0  0  0  0  0  0
  148.6630  160.2620  130.7240 N   0  0  0  0  0  0  0  0  0  0  0  0
  149.1320  161.3470  130.3800 N   0  0  0  0  0  0  0  0  0  0  0  0
  149.6010  162.4300  130.0340 N   0  0  0  0  0  0  0  0  0  0  0  0
  145.9070  159.0750  133.3870 C   0  0  0  0  0  0  0  0  0  0  0  0
  145.5450  160.4540  133.4120 C   0  0  0  0  0  0  0  0  0  0  0  0
  144.2420  160.8610  133.7410 C   0  0  0  0  0  0  0  0  0  0  0  0
  143.3110  159.8810  134.0550 C   0  0  0  0  0  0  0  0  0  0  0  0
  141.9790  159.9990  134.3800 C   0  0  0  0  0  0  0  0  0  0  0  0
  141.5330  158.6950  134.5820 C   0  0  0  0  0  0  0  0  0  0  0  0
  140.1640  158.3660  135.0340 C   0  0  0  0  0  0  0  0  0  0  0  0
  139.8610  158.2320  136.4200 N   0  0  0  0  0  0  0  0  0  0  0  0
  139.2400  158.2490  134.1860 O   0  0  0  0  0  0  0  0  0  0  0  0
  142.5470  157.8060  134.3800 N   0  0  0  0  0  0  0  0  0  0  0  0
  142.4790  156.3710  134.4060 C   0  0  0  0  0  0  0  0  0  0  0  0
  141.6240  155.7620  133.7120 O   0  0  0  0  0  0  0  0  0  0  0  0
  143.3730  155.6410  135.1790 O   0  0  0  0  0  0  0  0  0  0  0  0
  143.6290  158.5510  134.0610 C   0  0  0  0  0  0  0  0  0  0  0  0
  144.9140  158.1130  133.7170 C   0  0  0  0  0  0  0  0  0  0  0  0
  147.6643  156.6535  133.4951 H   0  0  0  0  0  0  0  0  0  0  0  0
  146.6960  156.9155  132.0050 H   0  0  0  0  0  0  0  0  0  0  0  0
  148.4574  157.2678  132.0050 H   0  0  0  0  0  0  0  0  0  0  0  0
  148.0046  160.6390  133.1502 H   0  0  0  0  0  0  0  0  0  0  0  0
  149.0164  159.3697  133.9477 H   0  0  0  0  0  0  0  0  0  0  0  0
  150.2636  159.8902  132.0260 H   0  0  0  0  0  0  0  0  0  0  0  0
  149.3220  158.4405  131.5180 H   0  0  0  0  0  0  0  0  0  0  0  0
  146.3018  161.2143  133.1687 H   0  0  0  0  0  0  0  0  0  0  0  0
  143.9671  161.9261  133.7496 H   0  0  0  0  0  0  0  0  0  0  0  0
  141.3918  160.9255  134.4626 H   0  0  0  0  0  0  0  0  0  0  0  0
  139.4640  159.0310  136.9620 H   0  0  0  0  0  0  0  0  0  0  0  0
  145.1516  157.0391  133.7024 H   0  0  0  0  0  0  0  0  0  0  0  0
  1  2  1  0
  2  3  1  0
  3  4  1  0
  4  5  1  0
  5  6  2  0
  6  7  2  0
  2  8  1  0
  8  9  2  0
  9 10  1  0
 10 11  2  0
 11 12  1  0
 12 13  2  0
 13 14  1  0
 14 15  1  0
 14 16  2  0
 13 17  1  0
 17 18  1  0
 18 19  2  0
 18 20  1  0
 17 21  1  0
 21 22  2  0
 22  8  1  0
 21 11  1  0
  1 23  1  0
  1 24  1  0
  1 25  1  0
  3 26  1  0
  3 27  1  0
  4 28  1  0
  4 29  1  0
  9 30  1  0
 10 31  1  0
 12 32  1  0
 15 33  1  0
 22 34  1  0
M  CHG  4   6   1   7  -1  15  -1  20  -1
M  END
>  <UniqueID>  (31) 
31

>  <SMILES>  (31) 
CN(CCN=[N+]=[N-])c1ccc2cc(C([NH-])=O)n(C(=O)[O-])c2c1

>  <Energy>  (31) 
72.87007255105782

>  <Genealogy>  (31) 
CN(CCN=[N+]=[N-])c1ccc2cc(C([NH-])=O)n(C(=O)[O-])c2c1 (protonated)
CN(CCN=[N+]=[N-])c1ccc2cc(C([NH-])=O)n(C(=O)[O-])c2c1 (3D coordinates assigned)
CN(CCN=[N+]=[N-])c1ccc2cc(C([NH-])=O)n(C(=O)[O-])c2c1 (optimized conformer: 72.87007255105782 kcal/mol)

>  <smiles>  (31) 
CN(CCN=[N+]=[N-])c1ccc2cc(C(N)=O)n(C(=O)O)c2c1

>  <score_type>  (31) 
oracle

>  <origin>  (31) 
adg

>  <m_score__min__energy>  (31) 
-7.0099999999999998

>  <m_primary>  (31) 
energy

$$$$
31:0
     RDKit          3D

 42 43  0  0  0  0  0  0  0  0999 V2000
  140.6110  154.4550  133.3470 C   0  0  0  0  0  0  0  0  0  0  0  0
  140.8540  155.7630  133.3940 C   0  0  0  0  0  0  0  0  0  0  0  0
  141.9750  156.3390  134.1610 C   0  0  0  0  0  0  0  0  0  0  0  0
  142.8430  155.5650  134.6460 O   0  0  0  0  0  0  0  0  0  0  0  0
  142.0970  157.7540  134.3720 N   0  0  0  0  0  0  0  0  0  0  0  0
  141.1400  158.6120  134.8230 C   0  0  0  0  0  0  0  0  0  0  0  0
  139.7940  158.2260  135.2960 C   0  0  0  0  0  0  0  0  0  0  0  0
  139.5780  157.9470  136.6770 N   0  0  0  0  0  0  0  0  0  0  0  0
  138.8320  158.1260  134.4890 O   0  0  0  0  0  0  0  0  0  0  0  0
  141.6180  159.9220  134.8180 C   0  0  0  0  0  0  0  0  0  0  0  0
  142.9050  159.8380  134.3370 C   0  0  0  0  0  0  0  0  0  0  0  0
  143.8420  160.8400  134.0970 C   0  0  0  0  0  0  0  0  0  0  0  0
  145.0850  160.4640  133.5620 C   0  0  0  0  0  0  0  0  0  0  0  0
  145.3680  159.1050  133.2780 C   0  0  0  0  0  0  0  0  0  0  0  0
  146.6900  158.7220  132.6630 C   0  0  0  0  0  0  0  0  0  0  0  0
  147.8410  159.5890  133.1950 C   0  0  0  0  0  0  0  0  0  0  0  0
  149.1500  159.3680  132.4170 C   0  0  0  0  0  0  0  0  0  0  0  0
  149.0150  159.8390  131.0210 N   0  0  0  0  0  0  0  0  0  0  0  0
  150.3090  159.7820  130.3170 C   0  0  0  0  0  0  0  0  0  0  0  0
  148.5100  161.2220  131.0000 C   0  0  0  0  0  0  0  0  0  0  0  0
  144.3910  158.1160  133.5280 C   0  0  0  0  0  0  0  0  0  0  0  0
  143.1670  158.5190  134.0720 C   0  0  0  0  0  0  0  0  0  0  0  0
  139.7619  154.0741  132.7605 H   0  0  0  0  0  0  0  0  0  0  0  0
  141.2592  153.7551  133.8947 H   0  0  0  0  0  0  0  0  0  0  0  0
  140.1915  156.4426  132.8379 H   0  0  0  0  0  0  0  0  0  0  0  0
  139.1050  158.6420  137.2980 H   0  0  0  0  0  0  0  0  0  0  0  0
  141.0809  160.8293  135.1316 H   0  0  0  0  0  0  0  0  0  0  0  0
  143.6156  161.8932  134.3195 H   0  0  0  0  0  0  0  0  0  0  0  0
  145.8464  161.2322  133.3615 H   0  0  0  0  0  0  0  0  0  0  0  0
  146.9000  157.6683  132.8986 H   0  0  0  0  0  0  0  0  0  0  0  0
  146.6190  158.8784  131.5765 H   0  0  0  0  0  0  0  0  0  0  0  0
  147.5542  160.6476  133.1103 H   0  0  0  0  0  0  0  0  0  0  0  0
  148.0206  159.3025  134.2417 H   0  0  0  0  0  0  0  0  0  0  0  0
  149.9609  159.9250  132.9091 H   0  0  0  0  0  0  0  0  0  0  0  0
  149.3776  158.2918  132.4065 H   0  0  0  0  0  0  0  0  0  0  0  0
  151.1256  159.7460  131.0531 H   0  0  0  0  0  0  0  0  0  0  0  0
  150.3439  158.8814  129.6863 H   0  0  0  0  0  0  0  0  0  0  0  0
  150.4230  160.6760  129.6863 H   0  0  0  0  0  0  0  0  0  0  0  0
  148.3792  161.5803  132.0318 H   0  0  0  0  0  0  0  0  0  0  0  0
  149.2304  161.8675  130.4763 H   0  0  0  0  0  0  0  0  0  0  0  0
  147.5431  161.2514  130.4763 H   0  0  0  0  0  0  0  0  0  0  0  0
  144.5874  157.0577  133.3011 H   0  0  0  0  0  0  0  0  0  0  0  0
  1  2  2  0
  2  3  1  0
  3  4  2  0
  3  5  1  0
  5  6  1  0
  6  7  1  0
  7  8  1  0
  7  9  2  0
  6 10  2  0
 10 11  1  0
 11 12  2  0
 12 13  1  0
 13 14  2  0
 14 15  1  0
 15 16  1  0
 16 17  1  0
 17 18  1  0
 18 19  1  0
 18 20  1  0
 14 21  1  0
 21 22  2  0
 22  5  1  0
 22 11  1  0
  1 23  1  0
  1 24  1  0
  2 25  1  0
  8 26  1  0
 10 27  1  0
 12 28  1  0
 13 29  1  0
 15 30  1  0
 15 31  1  0
 16 32  1  0
 16 33  1  0
 17 34  1  0
 17 35  1  0
 19 36  1  0
 19 37  1  0
 19 38  1  0
 20 39  1  0
 20 40  1  0
 20 41  1  0
 21 42  1  0
M  CHG  1   8  -1
M  END
>  <UniqueID>  (32) 
32

>  <SMILES>  (32) 
C=CC(=O)n1c(C([NH-])=O)cc2ccc(CCCN(C)C)cc21

>  <Energy>  (32) 
76.00664876732475

>  <Genealogy>  (32) 
C=CC(=O)n1c(C([NH-])=O)cc2ccc(CCCN(C)C)cc21 (protonated)
C=CC(=O)n1c(C([NH-])=O)cc2ccc(CCCN(C)C)cc21 (3D coordinates assigned)
C=CC(=O)n1c(C([NH-])=O)cc2ccc(CCCN(C)C)cc21 (optimized conformer: 76.00664876732475 kcal/mol)

>  <smiles>  (32) 
C=CC(=O)n1c(C(N)=O)cc2ccc(CCCN(C)C)cc21

>  <score_type>  (32) 
oracle

>  <origin>  (32) 
adg

>  <m_score__min__energy>  (32) 
-7.0599999999999996

>  <m_primary>  (32) 
energy

$$$$
32:0
     RDKit          3D

 39 40  0  0  0  0  0  0  0  0999 V2000
  149.2780  159.7170  131.1310 C   0  0  0  0  0  0  0  0  0  0  0  0
  148.0410  160.1730  131.7480 N   0  0  0  0  0  0  0  0  0  0  0  0
  147.6810  159.8420  133.0930 C   0  0  0  0  0  0  0  0  0  0  0  0
  148.4770  160.0870  134.0390 O   0  0  0  0  0  0  0  0  0  0  0  0
  146.4250  159.1990  133.3610 N   0  0  0  0  0  0  0  0  0  0  0  0
  145.2300  159.7870  133.6480 C   0  0  0  0  0  0  0  0  0  0  0  0
  145.0120  161.2230  133.9200 C   0  0  0  0  0  0  0  0  0  0  0  0
  146.0600  162.0360  134.4420 N   0  0  0  0  0  0  0  0  0  0  0  0
  143.8730  161.7280  133.7350 O   0  0  0  0  0  0  0  0  0  0  0  0
  144.2220  158.8280  133.7380 C   0  0  0  0  0  0  0  0  0  0  0  0
  144.8450  157.6230  133.5050 C   0  0  0  0  0  0  0  0  0  0  0  0
  144.3180  156.3370  133.4630 C   0  0  0  0  0  0  0  0  0  0  0  0
  145.1910  155.2770  133.1660 C   0  0  0  0  0  0  0  0  0  0  0  0
  146.5630  155.5140  132.9070 C   0  0  0  0  0  0  0  0  0  0  0  0
  147.4170  154.3950  132.5970 N   0  0  0  0  0  0  0  0  0  0  0  0
  148.7240  154.1510  133.2100 C   0  0  0  0  0  0  0  0  0  0  0  0
  149.6230  153.3580  132.2590 C   0  0  0  0  0  0  0  0  0  0  0  0
  149.1120  151.6500  132.1560 S   0  0  0  0  0  0  0  0  0  0  0  0
  149.9710  150.8170  130.8390 C   0  0  0  0  0  0  0  0  0  0  0  0
  149.4280  150.9660  133.4560 O   0  0  0  0  0  0  0  0  0  0  0  0
  147.6300  151.5800  131.9100 O   0  0  0  0  0  0  0  0  0  0  0  0
  147.0620  156.8400  132.9660 C   0  0  0  0  0  0  0  0  0  0  0  0
  146.1720  157.8730  133.2790 C   0  0  0  0  0  0  0  0  0  0  0  0
  150.0021  159.4501  131.9149 H   0  0  0  0  0  0  0  0  0  0  0  0
  149.0727  158.8354  130.5059 H   0  0  0  0  0  0  0  0  0  0  0  0
  149.6940  160.5209  130.5059 H   0  0  0  0  0  0  0  0  0  0  0  0
  147.0450  161.6930  134.4660 H   0  0  0  0  0  0  0  0  0  0  0  0
  143.1561  158.9981  133.9500 H   0  0  0  0  0  0  0  0  0  0  0  0
  143.2505  156.1551  133.6563 H   0  0  0  0  0  0  0  0  0  0  0  0
  144.8032  154.2481  133.1342 H   0  0  0  0  0  0  0  0  0  0  0  0
  147.0800  153.6910  131.9010 H   0  0  0  0  0  0  0  0  0  0  0  0
  149.2015  155.1149  133.4399 H   0  0  0  0  0  0  0  0  0  0  0  0
  148.5810  153.5688  134.1323 H   0  0  0  0  0  0  0  0  0  0  0  0
  149.5705  153.8088  131.2570 H   0  0  0  0  0  0  0  0  0  0  0  0
  150.6519  153.3898  132.6466 H   0  0  0  0  0  0  0  0  0  0  0  0
  150.6990  150.1110  131.2650 H   0  0  0  0  0  0  0  0  0  0  0  0
  149.2472  150.2678  130.2189 H   0  0  0  0  0  0  0  0  0  0  0  0
  150.4977  151.5573  130.2189 H   0  0  0  0  0  0  0  0  0  0  0  0
  148.1236  157.0514  132.7703 H   0  0  0  0  0  0  0  0  0  0  0  0
  1  2  1  0
  2  3  1  0
  3  4  2  0
  3  5  1  0
  5  6  1  0
  6  7  1  0
  7  8  1  0
  7  9  2  0
  6 10  2  0
 10 11  1  0
 11 12  2  0
 12 13  1  0
 13 14  2  0
 14 15  1  0
 15 16  1  0
 16 17  1  0
 17 18  1  0
 18 19  1  0
 18 20  2  0
 18 21  2  0
 14 22  1  0
 22 23  2  0
 23  5  1  0
 23 11  1  0
  1 24  1  0
  1 25  1  0
  1 26  1  0
  8 27  1  0
 10 28  1  0
 12 29  1  0
 13 30  1  0
 15 31  1  0
 16 32  1  0
 16 33  1  0
 17 34  1  0
 17 35  1  0
 19 36  1  0
 19 37  1  0
 19 38  1  0
 22 39  1  0
M  CHG  2   2  -1   8  -1
M  END
>  <UniqueID>  (33) 
33

>  <SMILES>  (33) 
C[N-]C(=O)n1c(C([NH-])=O)cc2ccc(NCCS(C)(=O)=O)cc21

>  <Energy>  (33) 
66.10569415821995

>  <Genealogy>  (33) 
C[N-]C(=O)n1c(C([NH-])=O)cc2ccc(NCCS(C)(=O)=O)cc21 (protonated)
C[N-]C(=O)n1c(C([NH-])=O)cc2ccc(NCCS(C)(=O)=O)cc21 (3D coordinates assigned)
C[N-]C(=O)n1c(C([NH-])=O)cc2ccc(NCCS(C)(=O)=O)cc21 (optimized conformer: 66.10569415821995 kcal/mol)

>  <smiles>  (33) 
CNC(=O)n1c(C(N)=O)cc2ccc(NCCS(C)(=O)=O)cc21

>  <score_type>  (33) 
oracle

>  <origin>  (33) 
adg

>  <m_score__min__energy>  (33) 
-7.5499999999999998

>  <m_primary>  (33) 
energy

$$$$
33:0
     RDKit          3D

 42 44  0  0  0  0  0  0  0  0999 V2000
  148.7290  156.9550  132.9910 C   0  0  0  0  0  0  0  0  0  0  0  0
  147.6900  158.0160  133.1940 C   0  0  0  0  0  0  0  0  0  0  0  0
  148.0650  159.3830  133.2510 C   0  0  0  0  0  0  0  0  0  0  0  0
  147.0880  160.3910  133.3620 C   0  0  0  0  0  0  0  0  0  0  0  0
  145.7530  160.0000  133.4190 C   0  0  0  0  0  0  0  0  0  0  0  0
  144.6040  160.7610  133.4770 C   0  0  0  0  0  0  0  0  0  0  0  0
  143.5500  159.8440  133.4550 C   0  0  0  0  0  0  0  0  0  0  0  0
  142.1100  160.1970  133.5240 C   0  0  0  0  0  0  0  0  0  0  0  0
  141.1650  159.6360  132.6100 N   0  0  0  0  0  0  0  0  0  0  0  0
  141.7060  161.0330  134.3760 O   0  0  0  0  0  0  0  0  0  0  0  0
  144.0380  158.5740  133.4040 N   0  0  0  0  0  0  0  0  0  0  0  0
  143.2850  157.3620  133.2790 C   0  0  0  0  0  0  0  0  0  0  0  0
  142.6080  157.1750  132.2260 O   0  0  0  0  0  0  0  0  0  0  0  0
  143.2760  156.3720  134.3330 N   0  0  0  0  0  0  0  0  0  0  0  0
  144.2660  155.2890  134.3070 C   0  0  0  0  0  0  0  0  0  0  0  0
  142.2070  156.3250  135.3440 C   0  0  0  0  0  0  0  0  0  0  0  0
  141.5790  157.7180  135.5450 C   0  0  0  0  0  0  0  0  0  0  0  0
  140.0750  157.7570  135.3140 C   0  0  0  0  0  0  0  0  0  0  0  0
  139.7860  158.1140  136.7020 N   0  0  0  0  0  0  0  0  0  0  0  0
  141.2200  158.0680  136.9810 C   0  0  0  0  0  0  0  0  0  0  0  0
  145.3800  158.6820  133.3710 C   0  0  0  0  0  0  0  0  0  0  0  0
  146.3250  157.6610  133.2410 C   0  0  0  0  0  0  0  0  0  0  0  0
  149.0815  156.5951  133.9689 H   0  0  0  0  0  0  0  0  0  0  0  0
  148.2923  156.1172  132.4276 H   0  0  0  0  0  0  0  0  0  0  0  0
  149.5757  157.3740  132.4276 H   0  0  0  0  0  0  0  0  0  0  0  0
  149.1292  159.6582  133.2081 H   0  0  0  0  0  0  0  0  0  0  0  0
  147.3705  161.4533  133.4024 H   0  0  0  0  0  0  0  0  0  0  0  0
  144.5326  161.8574  133.5295 H   0  0  0  0  0  0  0  0  0  0  0  0
  140.1540  159.8830  132.6930 H   0  0  0  0  0  0  0  0  0  0  0  0
  141.4490  158.9840  131.8420 H   0  0  0  0  0  0  0  0  0  0  0  0
  144.5257  155.0049  135.3374 H   0  0  0  0  0  0  0  0  0  0  0  0
  143.8443  154.4192  133.7820 H   0  0  0  0  0  0  0  0  0  0  0  0
  145.1701  155.6312  133.7820 H   0  0  0  0  0  0  0  0  0  0  0  0
  141.4278  155.6231  135.0120 H   0  0  0  0  0  0  0  0  0  0  0  0
  142.6407  155.9937  136.2991 H   0  0  0  0  0  0  0  0  0  0  0  0
  142.3064  158.2953  134.9554 H   0  0  0  0  0  0  0  0  0  0  0  0
  139.7646  158.5268  134.5921 H   0  0  0  0  0  0  0  0  0  0  0  0
  139.5846  156.8709  134.8847 H   0  0  0  0  0  0  0  0  0  0  0  0
  139.4760  159.1120  136.7310 H   0  0  0  0  0  0  0  0  0  0  0  0
  141.6311  159.0338  137.3099 H   0  0  0  0  0  0  0  0  0  0  0  0
  141.5785  157.4121  137.7881 H   0  0  0  0  0  0  0  0  0  0  0  0
  146.0131  156.6081  133.1770 H   0  0  0  0  0  0  0  0  0  0  0  0
  1  2  1  0
  2  3  2  0
  3  4  1  0
  4  5  2  0
  5  6  1  0
  6  7  2  0
  7  8  1  0
  8  9  1  0
  8 10  2  0
  7 11  1  0
 11 12  1  0
 12 13  2  0
 12 14  1  0
 14 15  1  0
 14 16  1  0
 16 17  1  0
 17 18  1  0
 18 19  1  0
 19 20  1  0
 11 21  1  0
 21 22  2  0
 22  2  1  0
 21  5  1  0
 20 17  1  0
  1 23  1  0
  1 24  1  0
  1 25  1  0
  3 26  1  0
  4 27  1  0
  6 28  1  0
  9 29  1  0
  9 30  1  0
 15 31  1  0
 15 32  1  0
 15 33  1  0
 16 34  1  0
 16 35  1  0
 17 36  1  0
 18 37  1  0
 18 38  1  0
 19 39  1  0
 20 40  1  0
 20 41  1  0
 22 42  1  0
M  END
>  <UniqueID>  (34) 
34

>  <SMILES>  (34) 
Cc1ccc2cc(C(N)=O)n(C(=O)N(C)CC3CNC3)c2c1

>  <Energy>  (34) 
147.22631356891156

>  <Genealogy>  (34) 
Cc1ccc2cc(C(N)=O)n(C(=O)N(C)CC3CNC3)c2c1 (3D coordinates assigned)
Cc1ccc2cc(C(N)=O)n(C(=O)N(C)CC3CNC3)c2c1 (nonaromatic ring conformer: 147.22631356891156 kcal/mol)

>  <smiles>  (34) 
Cc1ccc2cc(C(N)=O)n(C(=O)N(C)CC3CNC3)c2c1

>  <score_type>  (34) 
oracle

>  <origin>  (34) 
adg

>  <m_score__min__energy>  (34) 
-7.9299999999999997

>  <m_primary>  (34) 
energy

$$$$
34:0
     RDKit          3D

 44 46  0  0  0  0  0  0  0  0999 V2000
  143.5130  153.1860  133.7380 C   0  0  0  0  0  0  0  0  0  0  0  0
  143.7980  154.7000  133.7230 C   0  0  0  0  0  0  0  0  0  0  0  0
  145.0800  154.9740  134.5230 C   0  0  0  0  0  0  0  0  0  0  0  0
  143.9940  155.2050  132.2810 C   0  0  0  0  0  0  0  0  0  0  0  0
  142.7370  155.4190  134.3680 O   0  0  0  0  0  0  0  0  0  0  0  0
  141.7290  156.1630  133.7360 C   0  0  0  0  0  0  0  0  0  0  0  0
  140.8680  155.5980  133.0090 O   0  0  0  0  0  0  0  0  0  0  0  0
  141.6820  157.5870  133.9180 N   0  0  0  0  0  0  0  0  0  0  0  0
  140.5870  158.3590  134.1630 C   0  0  0  0  0  0  0  0  0  0  0  0
  139.2260  157.8640  134.4460 C   0  0  0  0  0  0  0  0  0  0  0  0
  138.5270  157.0420  133.5100 N   0  0  0  0  0  0  0  0  0  0  0  0
  138.6910  158.1250  135.5560 O   0  0  0  0  0  0  0  0  0  0  0  0
  140.9280  159.7090  134.1620 C   0  0  0  0  0  0  0  0  0  0  0  0
  142.2830  159.7400  133.9220 C   0  0  0  0  0  0  0  0  0  0  0  0
  143.1440  160.8250  133.8020 C   0  0  0  0  0  0  0  0  0  0  0  0
  144.4940  160.5680  133.5120 C   0  0  0  0  0  0  0  0  0  0  0  0
  144.9630  159.2380  133.3400 C   0  0  0  0  0  0  0  0  0  0  0  0
  146.3920  158.9860  133.0230 C   0  0  0  0  0  0  0  0  0  0  0  0
  147.1980  157.9700  133.5440 C   0  0  0  0  0  0  0  0  0  0  0  0
  148.5110  157.9860  133.0580 C   0  0  0  0  0  0  0  0  0  0  0  0
  148.7490  159.0120  132.1530 C   0  0  0  0  0  0  0  0  0  0  0  0
  150.0240  159.2770  131.4850 C   0  0  0  0  0  0  0  0  0  0  0  0
  150.0490  159.7680  130.3260 O   0  0  0  0  0  0  0  0  0  0  0  0
  147.3340  159.8980  131.9580 S   0  0  0  0  0  0  0  0  0  0  0  0
  144.0500  158.1630  133.4640 C   0  0  0  0  0  0  0  0  0  0  0  0
  142.7150  158.4480  133.7770 C   0  0  0  0  0  0  0  0  0  0  0  0
  143.4470  152.8356  134.7786 H   0  0  0  0  0  0  0  0  0  0  0  0
  142.5616  152.9869  133.2231 H   0  0  0  0  0  0  0  0  0  0  0  0
  144.3269  152.6546  133.2231 H   0  0  0  0  0  0  0  0  0  0  0  0
  144.8578  154.9265  135.5993 H   0  0  0  0  0  0  0  0  0  0  0  0
  145.8380  154.2176  134.2714 H   0  0  0  0  0  0  0  0  0  0  0  0
  145.4625  155.9742  134.2714 H   0  0  0  0  0  0  0  0  0  0  0  0
  144.3919  156.2303  132.3025 H   0  0  0  0  0  0  0  0  0  0  0  0
  144.7023  154.5477  131.7554 H   0  0  0  0  0  0  0  0  0  0  0  0
  143.0277  155.1976  131.7554 H   0  0  0  0  0  0  0  0  0  0  0  0
  137.5480  156.7360  133.7080 H   0  0  0  0  0  0  0  0  0  0  0  0
  139.0030  156.6630  132.6610 H   0  0  0  0  0  0  0  0  0  0  0  0
  140.2579  160.5671  134.3193 H   0  0  0  0  0  0  0  0  0  0  0  0
  142.7786  161.8546  133.9304 H   0  0  0  0  0  0  0  0  0  0  0  0
  145.1978  161.4080  133.4167 H   0  0  0  0  0  0  0  0  0  0  0  0
  146.8345  157.2266  134.2688 H   0  0  0  0  0  0  0  0  0  0  0  0
  149.2776  157.2583  133.3627 H   0  0  0  0  0  0  0  0  0  0  0  0
  150.9681  159.0453  131.9998 H   0  0  0  0  0  0  0  0  0  0  0  0
  144.3826  157.1248  133.3175 H   0  0  0  0  0  0  0  0  0  0  0  0
  1  2  1  0
  2  3  1  0
  2  4  1  0
  2  5  1  0
  5  6  1  0
  6  7  2  0
  6  8  1  0
  8  9  1  0
  9 10  1  0
 10 11  1  0
 10 12  2  0
  9 13  2  0
 13 14  1  0
 14 15  2  0
 15 16  1  0
 16 17  2  0
 17 18  1  0
 18 19  2  0
 19 20  1  0
 20 21  2  0
 21 22  1  0
 22 23  2  0
 21 24  1  0
 17 25  1  0
 25 26  2  0
 26  8  1  0
 26 14  1  0
 24 18  1  0
  1 27  1  0
  1 28  1  0
  1 29  1  0
  3 30  1  0
  3 31  1  0
  3 32  1  0
  4 33  1  0
  4 34  1  0
  4 35  1  0
 11 36  1  0
 11 37  1  0
 13 38  1  0
 15 39  1  0
 16 40  1  0
 19 41  1  0
 20 42  1  0
 22 43  1  0
 25 44  1  0
M  END
>  <UniqueID>  (35) 
35

>  <SMILES>  (35) 
CC(C)(C)OC(=O)n1c(C(N)=O)cc2ccc(-c3ccc(C=O)s3)cc21

>  <Energy>  (35) 
107.56394260879048

>  <Genealogy>  (35) 
CC(C)(C)OC(=O)n1c(C(N)=O)cc2ccc(-c3ccc(C=O)s3)cc21 (3D coordinates assigned)
CC(C)(C)OC(=O)n1c(C(N)=O)cc2ccc(-c3ccc(C=O)s3)cc21 (optimized conformer: 107.56394260879048 kcal/mol)

>  <smiles>  (35) 
CC(C)(C)OC(=O)n1c(C(N)=O)cc2ccc(-c3ccc(C=O)s3)cc21

>  <score_type>  (35) 
oracle

>  <origin>  (35) 
adg

>  <m_score__min__energy>  (35) 
-8.3599999999999994

>  <m_primary>  (35) 
energy

$$$$
35:0
     RDKit          3D

 40 42  0  0  0  0  0  0  0  0999 V2000
  149.5380  151.8490  132.1360 C   0  0  0  0  0  0  0  0  0  0  0  0
  148.6960  152.9280  132.6350 N   0  0  0  0  0  0  0  0  0  0  0  0
  148.9500  154.2460  132.5220 C   0  0  0  0  0  0  0  0  0  0  0  0
  147.8670  154.9430  133.0410 C   0  0  0  0  0  0  0  0  0  0  0  0
  147.6990  156.4170  133.1280 C   0  0  0  0  0  0  0  0  0  0  0  0
  148.8100  157.2810  132.9300 C   0  0  0  0  0  0  0  0  0  0  0  0
  148.6590  158.6760  132.9970 C   0  0  0  0  0  0  0  0  0  0  0  0
  147.3930  159.1840  133.2690 C   0  0  0  0  0  0  0  0  0  0  0  0
  146.9640  160.4880  133.3580 C   0  0  0  0  0  0  0  0  0  0  0  0
  145.6000  160.4090  133.6320 C   0  0  0  0  0  0  0  0  0  0  0  0
  144.7510  161.5910  133.8860 C   0  0  0  0  0  0  0  0  0  0  0  0
  143.3360  161.5270  133.7230 N   0  0  0  0  0  0  0  0  0  0  0  0
  145.2770  162.6590  134.2990 O   0  0  0  0  0  0  0  0  0  0  0  0
  145.2020  159.1070  133.7030 N   0  0  0  0  0  0  0  0  0  0  0  0
  143.8670  158.6050  133.8690 C   0  0  0  0  0  0  0  0  0  0  0  0
  143.2440  158.8250  134.9440 O   0  0  0  0  0  0  0  0  0  0  0  0
  143.2730  157.8630  132.8420 O   0  0  0  0  0  0  0  0  0  0  0  0
  141.9280  157.3900  132.8840 C   0  0  0  0  0  0  0  0  0  0  0  0
  140.9510  158.4940  132.4810 C   0  0  0  0  0  0  0  0  0  0  0  0
  141.2190  159.6650  133.2000 O   0  0  0  0  0  0  0  0  0  0  0  0
  146.3120  158.3700  133.4810 C   0  0  0  0  0  0  0  0  0  0  0  0
  146.4280  156.9780  133.4010 C   0  0  0  0  0  0  0  0  0  0  0  0
  146.9710  153.9610  133.4460 C   0  0  0  0  0  0  0  0  0  0  0  0
  147.5030  152.7560  133.1780 N   0  0  0  0  0  0  0  0  0  0  0  0
  149.9685  151.2974  132.9848 H   0  0  0  0  0  0  0  0  0  0  0  0
  148.9326  151.1649  131.5232 H   0  0  0  0  0  0  0  0  0  0  0  0
  150.3487  152.2700  131.5232 H   0  0  0  0  0  0  0  0  0  0  0  0
  149.8587  154.6931  132.0926 H   0  0  0  0  0  0  0  0  0  0  0  0
  149.8011  156.8517  132.7215 H   0  0  0  0  0  0  0  0  0  0  0  0
  149.5164  159.3467  132.8390 H   0  0  0  0  0  0  0  0  0  0  0  0
  147.5688  161.3990  133.2384 H   0  0  0  0  0  0  0  0  0  0  0  0
  142.7910  160.7100  134.0780 H   0  0  0  0  0  0  0  0  0  0  0  0
  141.8217  156.5434  132.1897 H   0  0  0  0  0  0  0  0  0  0  0  0
  141.6977  157.0737  133.9121 H   0  0  0  0  0  0  0  0  0  0  0  0
  141.0559  158.6966  131.4049 H   0  0  0  0  0  0  0  0  0  0  0  0
  139.9256  158.1637  132.7035 H   0  0  0  0  0  0  0  0  0  0  0  0
  142.2080  159.7300  133.2600 H   0  0  0  0  0  0  0  0  0  0  0  0
  145.5494  156.3324  133.5472 H   0  0  0  0  0  0  0  0  0  0  0  0
  145.9894  154.1400  133.9090 H   0  0  0  0  0  0  0  0  0  0  0  0
  147.0530  151.8300  133.3560 H   0  0  0  0  0  0  0  0  0  0  0  0
  1  2  1  0
  2  3  1  0
  3  4  2  0
  4  5  1  0
  5  6  2  0
  6  7  1  0
  7  8  2  0
  8  9  1  0
  9 10  2  0
 10 11  1  0
 11 12  1  0
 11 13  2  0
 10 14  1  0
 14 15  1  0
 15 16  2  0
 15 17  1  0
 17 18  1  0
 18 19  1  0
 19 20  1  0
 14 21  1  0
 21 22  2  0
  4 23  1  0
 23 24  2  0
 24  2  1  0
 22  5  1  0
 21  8  1  0
  1 25  1  0
  1 26  1  0
  1 27  1  0
  3 28  1  0
  6 29  1  0
  7 30  1  0
  9 31  1  0
 12 32  1  0
 18 33  1  0
 18 34  1  0
 19 35  1  0
 19 36  1  0
 20 37  1  0
 22 38  1  0
 23 39  1  0
 24 40  1  0
M  CHG  2  12  -1  24   1
M  END
>  <UniqueID>  (36) 
36

>  <SMILES>  (36) 
Cn1cc(-c2ccc3cc(C([NH-])=O)n(C(=O)OCCO)c3c2)c[nH+]1

>  <Energy>  (36) 
109.48516171379406

>  <Genealogy>  (36) 
Cn1cc(-c2ccc3cc(C([NH-])=O)n(C(=O)OCCO)c3c2)c[nH+]1 (protonated)
Cn1cc(-c2ccc3cc(C([NH-])=O)n(C(=O)OCCO)c3c2)c[nH+]1 (3D coordinates assigned)
Cn1cc(-c2ccc3cc(C([NH-])=O)n(C(=O)OCCO)c3c2)c[nH+]1 (optimized conformer: 109.48516171379406 kcal/mol)

>  <smiles>  (36) 
Cn1cc(-c2ccc3cc(C(N)=O)n(C(=O)OCCO)c3c2)cn1

>  <score_type>  (36) 
oracle

>  <origin>  (36) 
adg

>  <m_score__min__energy>  (36) 
-6.96

>  <m_primary>  (36) 
energy

$$$$
36:0
     RDKit          3D

 33 34  0  0  0  0  0  0  0  0999 V2000
  147.7750  152.8710  133.7400 N   0  0  0  0  0  0  0  0  0  0  0  0
  148.3280  153.8170  132.8240 C   0  0  0  0  0  0  0  0  0  0  0  0
  149.1290  153.4180  131.9380 O   0  0  0  0  0  0  0  0  0  0  0  0
  147.9400  155.2450  132.8850 C   0  0  0  0  0  0  0  0  0  0  0  0
  148.8470  156.3000  132.8020 C   0  0  0  0  0  0  0  0  0  0  0  0
  148.0990  157.4390  132.9940 C   0  0  0  0  0  0  0  0  0  0  0  0
  148.4900  158.7750  132.9940 C   0  0  0  0  0  0  0  0  0  0  0  0
  147.4980  159.7510  133.1860 C   0  0  0  0  0  0  0  0  0  0  0  0
  146.1450  159.3770  133.3750 C   0  0  0  0  0  0  0  0  0  0  0  0
  145.0860  160.4330  133.5320 C   0  0  0  0  0  0  0  0  0  0  0  0
  143.7420  159.8010  133.7310 C   0  0  0  0  0  0  0  0  0  0  0  0
  142.7300  160.4840  133.7280 O   0  0  0  0  0  0  0  0  0  0  0  0
  145.7840  158.0110  133.3580 C   0  0  0  0  0  0  0  0  0  0  0  0
  146.7960  157.0590  133.1830 C   0  0  0  0  0  0  0  0  0  0  0  0
  146.6820  155.7130  133.1180 N   0  0  0  0  0  0  0  0  0  0  0  0
  145.4670  154.9510  133.1940 C   0  0  0  0  0  0  0  0  0  0  0  0
  144.6350  154.9940  132.2470 O   0  0  0  0  0  0  0  0  0  0  0  0
  145.2170  154.1510  134.3160 O   0  0  0  0  0  0  0  0  0  0  0  0
  145.3890  154.6040  135.6560 C   0  0  0  0  0  0  0  0  0  0  0  0
  146.7550  154.2560  136.1530 C   0  0  0  0  0  0  0  0  0  0  0  0
  147.7010  155.0790  136.0300 O   0  0  0  0  0  0  0  0  0  0  0  0
  146.9940  153.0130  136.7260 O   0  0  0  0  0  0  0  0  0  0  0  0
  147.1510  153.1710  134.5200 H   0  0  0  0  0  0  0  0  0  0  0  0
  148.0260  151.8600  133.6620 H   0  0  0  0  0  0  0  0  0  0  0  0
  149.9302  156.2358  132.6215 H   0  0  0  0  0  0  0  0  0  0  0  0
  149.5430  159.0577  132.8482 H   0  0  0  0  0  0  0  0  0  0  0  0
  147.7746  160.8157  133.1896 H   0  0  0  0  0  0  0  0  0  0  0  0
  145.3249  161.0587  134.4046 H   0  0  0  0  0  0  0  0  0  0  0  0
  145.0589  161.0487  132.6208 H   0  0  0  0  0  0  0  0  0  0  0  0
  143.6666  158.7139  133.8809 H   0  0  0  0  0  0  0  0  0  0  0  0
  144.7349  157.7033  133.4791 H   0  0  0  0  0  0  0  0  0  0  0  0
  145.2587  155.6958  135.6890 H   0  0  0  0  0  0  0  0  0  0  0  0
  144.6410  154.1142  136.2968 H   0  0  0  0  0  0  0  0  0  0  0  0
  1  2  1  0
  2  3  2  0
  2  4  1  0
  4  5  2  0
  5  6  1  0
  6  7  2  0
  7  8  1  0
  8  9  2  0
  9 10  1  0
 10 11  1  0
 11 12  2  0
  9 13  1  0
 13 14  2  0
 14 15  1  0
 15 16  1  0
 16 17  2  0
 16 18  1  0
 18 19  1  0
 19 20  1  0
 20 21  2  0
 20 22  1  0
 15  4  1  0
 14  6  1  0
  1 23  1  0
  1 24  1  0
  5 25  1  0
  7 26  1  0
  8 27  1  0
 10 28  1  0
 10 29  1  0
 11 30  1  0
 13 31  1  0
 19 32  1  0
 19 33  1  0
M  CHG  1  22  -1
M  END
>  <UniqueID>  (37) 
37

>  <SMILES>  (37) 
NC(=O)c1cc2ccc(CC=O)cc2n1C(=O)OCC(=O)[O-]

>  <Energy>  (37) 
67.55405530637023

>  <Genealogy>  (37) 
NC(=O)c1cc2ccc(CC=O)cc2n1C(=O)OCC(=O)[O-] (protonated)
NC(=O)c1cc2ccc(CC=O)cc2n1C(=O)OCC(=O)[O-] (3D coordinates assigned)
NC(=O)c1cc2ccc(CC=O)cc2n1C(=O)OCC(=O)[O-] (optimized conformer: 67.55405530637023 kcal/mol)

>  <smiles>  (37) 
NC(=O)c1cc2ccc(CC=O)cc2n1C(=O)OCC(=O)O

>  <score_type>  (37) 
oracle

>  <origin>  (37) 
adg

>  <m_score__min__energy>  (37) 
-6.4400000000000004

>  <m_primary>  (37) 
energy

$$$$
37:0
     RDKit          3D

 31 32  0  0  0  0  0  0  0  0999 V2000
  139.6660  155.9640  133.2410 C   0  0  0  0  0  0  0  0  0  0  0  0
  140.0230  157.4730  134.1120 S   0  0  0  0  0  0  0  0  0  0  0  0
  139.7510  158.6410  133.2070 O   0  0  0  0  0  0  0  0  0  0  0  0
  139.1510  157.5850  135.3310 O   0  0  0  0  0  0  0  0  0  0  0  0
  141.6880  157.5000  134.5820 N   0  0  0  0  0  0  0  0  0  0  0  0
  142.7530  157.6540  133.6420 C   0  0  0  0  0  0  0  0  0  0  0  0
  142.9340  156.7900  132.7430 O   0  0  0  0  0  0  0  0  0  0  0  0
  143.5990  158.8130  133.7020 N   0  0  0  0  0  0  0  0  0  0  0  0
  143.2240  160.1160  133.8260 C   0  0  0  0  0  0  0  0  0  0  0  0
  141.8570  160.6020  134.1070 C   0  0  0  0  0  0  0  0  0  0  0  0
  141.1250  160.1230  135.2320 N   0  0  0  0  0  0  0  0  0  0  0  0
  141.3460  161.4880  133.3710 O   0  0  0  0  0  0  0  0  0  0  0  0
  144.3330  160.9550  133.7400 C   0  0  0  0  0  0  0  0  0  0  0  0
  145.4100  160.1170  133.5640 C   0  0  0  0  0  0  0  0  0  0  0  0
  146.7620  160.4150  133.4190 C   0  0  0  0  0  0  0  0  0  0  0  0
  147.6550  159.3470  133.2310 C   0  0  0  0  0  0  0  0  0  0  0  0
  147.1840  158.0090  133.1650 C   0  0  0  0  0  0  0  0  0  0  0  0
  148.1570  156.8700  133.0010 C   0  0  0  0  0  0  0  0  0  0  0  0
  147.6130  155.8730  132.2090 F   0  0  0  0  0  0  0  0  0  0  0  0
  148.4780  156.3190  134.2290 F   0  0  0  0  0  0  0  0  0  0  0  0
  149.3120  157.3410  132.4030 F   0  0  0  0  0  0  0  0  0  0  0  0
  145.8060  157.7470  133.3400 C   0  0  0  0  0  0  0  0  0  0  0  0
  144.9420  158.8290  133.5440 C   0  0  0  0  0  0  0  0  0  0  0  0
  139.4755  155.1587  133.9656 H   0  0  0  0  0  0  0  0  0  0  0  0
  138.7768  156.1068  132.6093 H   0  0  0  0  0  0  0  0  0  0  0  0
  140.5249  155.6933  132.6093 H   0  0  0  0  0  0  0  0  0  0  0  0
  140.5370  159.2630  135.1650 H   0  0  0  0  0  0  0  0  0  0  0  0
  144.3450  162.0533  133.8000 H   0  0  0  0  0  0  0  0  0  0  0  0
  147.1200  161.4546  133.4507 H   0  0  0  0  0  0  0  0  0  0  0  0
  148.7318  159.5496  133.1338 H   0  0  0  0  0  0  0  0  0  0  0  0
  145.4216  156.7166  133.3164 H   0  0  0  0  0  0  0  0  0  0  0  0
  1  2  1  0
  2  3  2  0
  2  4  2  0
  2  5  1  0
  5  6  1  0
  6  7  2  0
  6  8  1  0
  8  9  1  0
  9 10  1  0
 10 11  1  0
 10 12  2  0
  9 13  2  0
 13 14  1  0
 14 15  2  0
 15 16  1  0
 16 17  2  0
 17 18  1  0
 18 19  1  0
 18 20  1  0
 18 21  1  0
 17 22  1  0
 22 23  2  0
 23  8  1  0
 23 14  1  0
  1 24  1  0
  1 25  1  0
  1 26  1  0
 11 27  1  0
 13 28  1  0
 15 29  1  0
 16 30  1  0
 22 31  1  0
M  CHG  2   5  -1  11  -1
M  END
>  <UniqueID>  (38) 
38

>  <SMILES>  (38) 
CS(=O)(=O)[N-]C(=O)n1c(C([NH-])=O)cc2ccc(C(F)(F)F)cc21

>  <Energy>  (38) 
68.78123919826244

>  <Genealogy>  (38) 
CS(=O)(=O)[N-]C(=O)n1c(C([NH-])=O)cc2ccc(C(F)(F)F)cc21 (protonated)
CS(=O)(=O)[N-]C(=O)n1c(C([NH-])=O)cc2ccc(C(F)(F)F)cc21 (3D coordinates assigned)
CS(=O)(=O)[N-]C(=O)n1c(C([NH-])=O)cc2ccc(C(F)(F)F)cc21 (optimized conformer: 68.78123919826244 kcal/mol)

>  <smiles>  (38) 
CS(=O)(=O)NC(=O)n1c(C(N)=O)cc2ccc(C(F)(F)F)cc21

>  <score_type>  (38) 
oracle

>  <origin>  (38) 
adg

>  <m_score__min__energy>  (38) 
-6.2800000000000002

>  <m_primary>  (38) 
energy

$$$$
38:0
     RDKit          3D

 38 39  0  0  0  0  0  0  0  0999 V2000
  149.6070  157.1700  132.2400 N   0  0  0  0  0  0  0  0  0  0  0  0
  149.1270  158.5120  132.2040 C   0  0  0  0  0  0  0  0  0  0  0  0
  149.8790  159.4270  131.7760 O   0  0  0  0  0  0  0  0  0  0  0  0
  147.7430  158.8080  132.6270 C   0  0  0  0  0  0  0  0  0  0  0  0
  147.2760  160.0950  132.8860 C   0  0  0  0  0  0  0  0  0  0  0  0
  145.9830  159.9320  133.3290 C   0  0  0  0  0  0  0  0  0  0  0  0
  145.0450  160.8820  133.7240 C   0  0  0  0  0  0  0  0  0  0  0  0
  143.7730  160.4310  134.1100 C   0  0  0  0  0  0  0  0  0  0  0  0
  143.4580  159.0480  134.0830 C   0  0  0  0  0  0  0  0  0  0  0  0
  142.0950  158.5710  134.5160 C   0  0  0  0  0  0  0  0  0  0  0  0
  142.0060  158.4200  136.0400 C   0  0  0  0  0  0  0  0  0  0  0  0
  140.6970  158.9200  136.5680 C   0  0  0  0  0  0  0  0  0  0  0  0
  140.6710  159.7660  137.5020 O   0  0  0  0  0  0  0  0  0  0  0  0
  139.5060  158.4850  136.0020 O   0  0  0  0  0  0  0  0  0  0  0  0
  144.4380  158.1130  133.6850 C   0  0  0  0  0  0  0  0  0  0  0  0
  145.7040  158.5910  133.3230 C   0  0  0  0  0  0  0  0  0  0  0  0
  146.7740  157.8860  132.8940 N   0  0  0  0  0  0  0  0  0  0  0  0
  146.8330  156.4660  132.6910 C   0  0  0  0  0  0  0  0  0  0  0  0
  146.9840  156.0060  131.5270 O   0  0  0  0  0  0  0  0  0  0  0  0
  146.7440  155.6030  133.7890 O   0  0  0  0  0  0  0  0  0  0  0  0
  147.8010  154.7410  134.2080 C   0  0  0  0  0  0  0  0  0  0  0  0
  147.8750  153.4900  133.3280 C   0  0  0  0  0  0  0  0  0  0  0  0
  148.9060  153.6180  132.2450 C   0  0  0  0  0  0  0  0  0  0  0  0
  149.8170  154.4240  132.3480 O   0  0  0  0  0  0  0  0  0  0  0  0
  149.0610  156.3920  131.8070 H   0  0  0  0  0  0  0  0  0  0  0  0
  147.8243  161.0406  132.7626 H   0  0  0  0  0  0  0  0  0  0  0  0
  145.2932  161.9536  133.7333 H   0  0  0  0  0  0  0  0  0  0  0  0
  143.0134  161.1566  134.4364 H   0  0  0  0  0  0  0  0  0  0  0  0
  141.3403  159.2996  134.1850 H   0  0  0  0  0  0  0  0  0  0  0  0
  141.9159  157.5852  134.0621 H   0  0  0  0  0  0  0  0  0  0  0  0
  142.1131  157.3566  136.3002 H   0  0  0  0  0  0  0  0  0  0  0  0
  142.8106  159.0182  136.4926 H   0  0  0  0  0  0  0  0  0  0  0  0
  144.2132  157.0365  133.6598 H   0  0  0  0  0  0  0  0  0  0  0  0
  148.7552  155.2841  134.1410 H   0  0  0  0  0  0  0  0  0  0  0  0
  147.6058  154.4277  135.2442 H   0  0  0  0  0  0  0  0  0  0  0  0
  148.1308  152.6270  133.9602 H   0  0  0  0  0  0  0  0  0  0  0  0
  146.8948  153.3576  132.8467 H   0  0  0  0  0  0  0  0  0  0  0  0
  148.8403  152.9803  131.3511 H   0  0  0  0  0  0  0  0  0  0  0  0
  1  2  1  0
  2  3  2  0
  2  4  1  0
  4  5  2  0
  5  6  1  0
  6  7  2  0
  7  8  1  0
  8  9  2  0
  9 10  1  0
 10 11  1  0
 11 12  1  0
 12 13  2  0
 12 14  1  0
  9 15  1  0
 15 16  2  0
 16 17  1  0
 17 18  1  0
 18 19  2  0
 18 20  1  0
 20 21  1  0
 21 22  1  0
 22 23  1  0
 23 24  2  0
 17  4  1  0
 16  6  1  0
  1 25  1  0
  5 26  1  0
  7 27  1  0
  8 28  1  0
 10 29  1  0
 10 30  1  0
 11 31  1  0
 11 32  1  0
 15 33  1  0
 21 34  1  0
 21 35  1  0
 22 36  1  0
 22 37  1  0
 23 38  1  0
M  CHG  2   1  -1  14  -1
M  END
>  <UniqueID>  (39) 
39

>  <SMILES>  (39) 
[NH-]C(=O)c1cc2ccc(CCC(=O)[O-])cc2n1C(=O)OCCC=O

>  <Energy>  (39) 
69.79765182471364

>  <Genealogy>  (39) 
[NH-]C(=O)c1cc2ccc(CCC(=O)[O-])cc2n1C(=O)OCCC=O (protonated)
[NH-]C(=O)c1cc2ccc(CCC(=O)[O-])cc2n1C(=O)OCCC=O (3D coordinates assigned)
[NH-]C(=O)c1cc2ccc(CCC(=O)[O-])cc2n1C(=O)OCCC=O (optimized conformer: 69.79765182471364 kcal/mol)

>  <smiles>  (39) 
NC(=O)c1cc2ccc(CCC(=O)O)cc2n1C(=O)OCCC=O

>  <score_type>  (39) 
oracle

>  <origin>  (39) 
adg

>  <m_score__min__energy>  (39) 
-6.25

>  <m_primary>  (39) 
energy

$$$$
39:0
     RDKit          3D

 37 38  0  0  0  0  0  0  0  0999 V2000
  142.7440  160.5260  133.3630 N   0  0  0  0  0  0  0  0  0  0  0  0
  144.0970  160.8070  133.7140 C   0  0  0  0  0  0  0  0  0  0  0  0
  144.4070  161.9690  134.0930 O   0  0  0  0  0  0  0  0  0  0  0  0
  145.1460  159.7750  133.5850 C   0  0  0  0  0  0  0  0  0  0  0  0
  146.5040  160.0720  133.4830 C   0  0  0  0  0  0  0  0  0  0  0  0
  147.1280  158.8610  133.2880 C   0  0  0  0  0  0  0  0  0  0  0  0
  148.4790  158.5650  133.1380 C   0  0  0  0  0  0  0  0  0  0  0  0
  148.8450  157.2170  132.9850 C   0  0  0  0  0  0  0  0  0  0  0  0
  147.8600  156.1970  132.9830 C   0  0  0  0  0  0  0  0  0  0  0  0
  148.2680  154.7540  132.8670 C   0  0  0  0  0  0  0  0  0  0  0  0
  147.4460  153.8840  133.8250 C   0  0  0  0  0  0  0  0  0  0  0  0
  147.8650  154.0830  135.2840 C   0  0  0  0  0  0  0  0  0  0  0  0
  147.0000  153.3950  136.1480 O   0  0  0  0  0  0  0  0  0  0  0  0
  146.5000  156.5350  133.1490 C   0  0  0  0  0  0  0  0  0  0  0  0
  146.1620  157.8880  133.2820 C   0  0  0  0  0  0  0  0  0  0  0  0
  144.9400  158.4320  133.4680 N   0  0  0  0  0  0  0  0  0  0  0  0
  143.7030  157.7150  133.5980 C   0  0  0  0  0  0  0  0  0  0  0  0
  142.9150  157.6370  132.6170 O   0  0  0  0  0  0  0  0  0  0  0  0
  143.3670  157.1280  134.8240 O   0  0  0  0  0  0  0  0  0  0  0  0
  142.9950  155.7600  134.9610 C   0  0  0  0  0  0  0  0  0  0  0  0
  144.1790  154.9360  135.3620 C   0  0  0  0  0  0  0  0  0  0  0  0
  144.0580  153.6930  135.5190 O   0  0  0  0  0  0  0  0  0  0  0  0
  145.4060  155.5450  135.5910 O   0  0  0  0  0  0  0  0  0  0  0  0
  142.5130  159.7810  132.6700 H   0  0  0  0  0  0  0  0  0  0  0  0
  146.9764  161.0634  133.5451 H   0  0  0  0  0  0  0  0  0  0  0  0
  149.2374  159.3617  133.1391 H   0  0  0  0  0  0  0  0  0  0  0  0
  149.9055  156.9505  132.8657 H   0  0  0  0  0  0  0  0  0  0  0  0
  148.1011  154.4126  131.8347 H   0  0  0  0  0  0  0  0  0  0  0  0
  149.3324  154.6634  133.1294 H   0  0  0  0  0  0  0  0  0  0  0  0
  146.3833  154.1486  133.7216 H   0  0  0  0  0  0  0  0  0  0  0  0
  147.6215  152.8304  133.5621 H   0  0  0  0  0  0  0  0  0  0  0  0
  148.8884  153.7034  135.4205 H   0  0  0  0  0  0  0  0  0  0  0  0
  147.8205  155.1563  135.5208 H   0  0  0  0  0  0  0  0  0  0  0  0
  146.1270  153.8660  136.1180 H   0  0  0  0  0  0  0  0  0  0  0  0
  145.7244  155.7553  133.1734 H   0  0  0  0  0  0  0  0  0  0  0  0
  142.2143  155.6718  135.7309 H   0  0  0  0  0  0  0  0  0  0  0  0
  142.6158  155.3944  133.9953 H   0  0  0  0  0  0  0  0  0  0  0  0
  1  2  1  0
  2  3  2  0
  2  4  1  0
  4  5  2  0
  5  6  1  0
  6  7  2  0
  7  8  1  0
  8  9  2  0
  9 10  1  0
 10 11  1  0
 11 12  1  0
 12 13  1  0
  9 14  1  0
 14 15  2  0
 15 16  1  0
 16 17  1  0
 17 18  2  0
 17 19  1  0
 19 20  1  0
 20 21  1  0
 21 22  2  0
 21 23  1  0
 16  4  1  0
 15  6  1  0
  1 24  1  0
  5 25  1  0
  7 26  1  0
  8 27  1  0
 10 28  1  0
 10 29  1  0
 11 30  1  0
 11 31  1  0
 12 32  1  0
 12 33  1  0
 13 34  1  0
 14 35  1  0
 20 36  1  0
 20 37  1  0
M  CHG  2   1  -1  23  -1
M  END
>  <UniqueID>  (40) 
40

>  <SMILES>  (40) 
[NH-]C(=O)c1cc2ccc(CCCO)cc2n1C(=O)OCC(=O)[O-]

>  <Energy>  (40) 
69.37841587105275

>  <Genealogy>  (40) 
[NH-]C(=O)c1cc2ccc(CCCO)cc2n1C(=O)OCC(=O)[O-] (protonated)
[NH-]C(=O)c1cc2ccc(CCCO)cc2n1C(=O)OCC(=O)[O-] (3D coordinates assigned)
[NH-]C(=O)c1cc2ccc(CCCO)cc2n1C(=O)OCC(=O)[O-] (optimized conformer: 69.37841587105275 kcal/mol)

>  <smiles>  (40) 
NC(=O)c1cc2ccc(CCCO)cc2n1C(=O)OCC(=O)O

>  <score_type>  (40) 
oracle

>  <origin>  (40) 
adg

>  <m_score__min__energy>  (40) 
-5.1699999999999999

>  <m_primary>  (40) 
energy

$$$$
40:0
     RDKit          3D

 31 32  0  0  0  0  0  0  0  0999 V2000
  141.6710  159.7060  135.0610 N   0  0  0  0  0  0  0  0  0  0  0  0
  142.5030  160.2750  134.0530 C   0  0  0  0  0  0  0  0  0  0  0  0
  142.0380  161.1770  133.3060 O   0  0  0  0  0  0  0  0  0  0  0  0
  143.8790  159.7850  133.8410 C   0  0  0  0  0  0  0  0  0  0  0  0
  144.9660  160.6220  133.6010 C   0  0  0  0  0  0  0  0  0  0  0  0
  146.0290  159.7810  133.3560 C   0  0  0  0  0  0  0  0  0  0  0  0
  147.3560  160.0750  133.0600 C   0  0  0  0  0  0  0  0  0  0  0  0
  148.2410  159.0010  132.8710 C   0  0  0  0  0  0  0  0  0  0  0  0
  147.7910  157.6590  132.9900 C   0  0  0  0  0  0  0  0  0  0  0  0
  148.7110  156.5650  132.7830 N   0  0  0  0  0  0  0  0  0  0  0  0
  148.1060  155.2710  133.1480 C   0  0  0  0  0  0  0  0  0  0  0  0
  148.8970  154.0690  132.6120 C   0  0  0  0  0  0  0  0  0  0  0  0
  150.1600  154.4800  132.1660 O   0  0  0  0  0  0  0  0  0  0  0  0
  146.4340  157.4040  133.2930 C   0  0  0  0  0  0  0  0  0  0  0  0
  145.5740  158.4930  133.4590 C   0  0  0  0  0  0  0  0  0  0  0  0
  144.2570  158.4780  133.7600 N   0  0  0  0  0  0  0  0  0  0  0  0
  143.4690  157.3100  134.0300 C   0  0  0  0  0  0  0  0  0  0  0  0
  142.2690  157.2580  133.6540 O   0  0  0  0  0  0  0  0  0  0  0  0
  144.2080  155.8710  134.8290 S   0  0  0  0  0  0  0  0  0  0  0  0
  141.4610  158.6830  135.0690 H   0  0  0  0  0  0  0  0  0  0  0  0
  144.9739  161.7220  133.6060 H   0  0  0  0  0  0  0  0  0  0  0  0
  147.7014  161.1160  132.9766 H   0  0  0  0  0  0  0  0  0  0  0  0
  149.2949  159.2014  132.6280 H   0  0  0  0  0  0  0  0  0  0  0  0
  149.5940  156.7170  133.3230 H   0  0  0  0  0  0  0  0  0  0  0  0
  148.9750  156.5340  131.7710 H   0  0  0  0  0  0  0  0  0  0  0  0
  148.0619  155.2012  134.2449 H   0  0  0  0  0  0  0  0  0  0  0  0
  147.1043  155.2355  132.6948 H   0  0  0  0  0  0  0  0  0  0  0  0
  149.0190  153.3272  133.4151 H   0  0  0  0  0  0  0  0  0  0  0  0
  148.3466  153.6242  131.7699 H   0  0  0  0  0  0  0  0  0  0  0  0
  150.6200  153.6590  131.8500 H   0  0  0  0  0  0  0  0  0  0  0  0
  146.0639  156.3732  133.3956 H   0  0  0  0  0  0  0  0  0  0  0  0
  1  2  1  0
  2  3  2  0
  2  4  1  0
  4  5  2  0
  5  6  1  0
  6  7  2  0
  7  8  1  0
  8  9  2  0
  9 10  1  0
 10 11  1  0
 11 12  1  0
 12 13  1  0
  9 14  1  0
 14 15  2  0
 15 16  1  0
 16 17  1  0
 17 18  2  0
 17 19  1  0
 16  4  1  0
 15  6  1  0
  1 20  1  0
  5 21  1  0
  7 22  1  0
  8 23  1  0
 10 24  1  0
 10 25  1  0
 11 26  1  0
 11 27  1  0
 12 28  1  0
 12 29  1  0
 13 30  1  0
 14 31  1  0
M  CHG  3   1  -1  10   1  19  -1
M  END
>  <UniqueID>  (41) 
41

>  <SMILES>  (41) 
[NH-]C(=O)c1cc2ccc([NH2+]CCO)cc2n1C(=O)[S-]

>  <Energy>  (41) 
71.04352218177617

>  <Genealogy>  (41) 
[NH-]C(=O)c1cc2ccc([NH2+]CCO)cc2n1C(=O)[S-] (protonated)
[NH-]C(=O)c1cc2ccc([NH2+]CCO)cc2n1C(=O)[S-] (3D coordinates assigned)
[NH-]C(=O)c1cc2ccc([NH2+]CCO)cc2n1C(=O)[S-] (optimized conformer: 71.04352218177617 kcal/mol)

>  <smiles>  (41) 
NC(=O)c1cc2ccc(NCCO)cc2n1C(=O)S

>  <score_type>  (41) 
oracle

>  <origin>  (41) 
adg

>  <m_score__min__energy>  (41) 
-5.71

>  <m_primary>  (41) 
energy

$$$$
41:0
     RDKit          3D

 36 38  0  0  0  0  0  0  0  0999 V2000
  147.2300  157.0530  134.2210 C   0  0  0  0  0  0  0  0  0  0  0  0
  147.6160  158.2050  133.4110 N   0  0  0  0  0  0  0  0  0  0  0  0
  148.8320  158.3550  132.9120 N   0  0  0  0  0  0  0  0  0  0  0  0
  148.8450  159.4940  132.1910 C   0  0  0  0  0  0  0  0  0  0  0  0
  147.5980  160.0840  132.2340 C   0  0  0  0  0  0  0  0  0  0  0  0
  146.8420  159.2480  133.0320 C   0  0  0  0  0  0  0  0  0  0  0  0
  145.4180  159.4570  133.3770 C   0  0  0  0  0  0  0  0  0  0  0  0
  144.9450  160.7380  133.7590 C   0  0  0  0  0  0  0  0  0  0  0  0
  143.5910  160.9360  134.0810 C   0  0  0  0  0  0  0  0  0  0  0  0
  142.7340  159.8440  133.9980 C   0  0  0  0  0  0  0  0  0  0  0  0
  141.3890  159.7500  134.2730 C   0  0  0  0  0  0  0  0  0  0  0  0
  141.0530  158.4220  134.0170 C   0  0  0  0  0  0  0  0  0  0  0  0
  139.6780  157.8960  134.1200 C   0  0  0  0  0  0  0  0  0  0  0  0
  139.1290  157.0510  133.1080 N   0  0  0  0  0  0  0  0  0  0  0  0
  138.9560  158.2380  135.0940 O   0  0  0  0  0  0  0  0  0  0  0  0
  142.1500  157.7200  133.6150 N   0  0  0  0  0  0  0  0  0  0  0  0
  142.2560  156.3090  133.3600 C   0  0  0  0  0  0  0  0  0  0  0  0
  141.2390  155.6620  132.9930 O   0  0  0  0  0  0  0  0  0  0  0  0
  143.5690  155.6000  133.4850 C   0  0  0  0  0  0  0  0  0  0  0  0
  143.7450  154.7540  132.3830 O   0  0  0  0  0  0  0  0  0  0  0  0
  143.1680  158.6070  133.6010 C   0  0  0  0  0  0  0  0  0  0  0  0
  144.5120  158.3760  133.2890 C   0  0  0  0  0  0  0  0  0  0  0  0
  147.3158  157.3092  135.2873 H   0  0  0  0  0  0  0  0  0  0  0  0
  146.1901  156.7763  133.9929 H   0  0  0  0  0  0  0  0  0  0  0  0
  147.8933  156.2056  133.9929 H   0  0  0  0  0  0  0  0  0  0  0  0
  149.7165  159.8924  131.6508 H   0  0  0  0  0  0  0  0  0  0  0  0
  147.2774  161.0140  131.7417 H   0  0  0  0  0  0  0  0  0  0  0  0
  145.6448  161.5855  133.8039 H   0  0  0  0  0  0  0  0  0  0  0  0
  143.2206  161.9248  134.3893 H   0  0  0  0  0  0  0  0  0  0  0  0
  140.7214  160.5521  134.6208 H   0  0  0  0  0  0  0  0  0  0  0  0
  139.6310  156.8930  132.2060 H   0  0  0  0  0  0  0  0  0  0  0  0
  138.1730  156.6490  133.2230 H   0  0  0  0  0  0  0  0  0  0  0  0
  144.3838  156.3383  133.5153 H   0  0  0  0  0  0  0  0  0  0  0  0
  143.5804  155.0062  134.4109 H   0  0  0  0  0  0  0  0  0  0  0  0
  142.9230  154.8460  131.8330 H   0  0  0  0  0  0  0  0  0  0  0  0
  144.8553  157.3769  132.9825 H   0  0  0  0  0  0  0  0  0  0  0  0
  1  2  1  0
  2  3  1  0
  3  4  2  0
  4  5  1  0
  5  6  2  0
  6  7  1  0
  7  8  2  0
  8  9  1  0
  9 10  2  0
 10 11  1  0
 11 12  2  0
 12 13  1  0
 13 14  1  0
 13 15  2  0
 12 16  1  0
 16 17  1  0
 17 18  2  0
 17 19  1  0
 19 20  1  0
 16 21  1  0
 21 22  2  0
  6  2  1  0
 22  7  1  0
 21 10  1  0
  1 23  1  0
  1 24  1  0
  1 25  1  0
  4 26  1  0
  5 27  1  0
  8 28  1  0
  9 29  1  0
 11 30  1  0
 14 31  1  0
 14 32  1  0
 19 33  1  0
 19 34  1  0
 20 35  1  0
 22 36  1  0
M  END
>  <UniqueID>  (42) 
42

>  <SMILES>  (42) 
Cn1nccc1-c1ccc2cc(C(N)=O)n(C(=O)CO)c2c1

>  <Energy>  (42) 
111.52898139149517

>  <Genealogy>  (42) 
Cn1nccc1-c1ccc2cc(C(N)=O)n(C(=O)CO)c2c1 (3D coordinates assigned)
Cn1nccc1-c1ccc2cc(C(N)=O)n(C(=O)CO)c2c1 (optimized conformer: 111.52898139149517 kcal/mol)

>  <smiles>  (42) 
Cn1nccc1-c1ccc2cc(C(N)=O)n(C(=O)CO)c2c1

>  <score_type>  (42) 
oracle

>  <origin>  (42) 
adg

>  <m_score__min__energy>  (42) 
-7.04

>  <m_primary>  (42) 
energy

$$$$
42:0
     RDKit          3D

 39 40  0  0  0  0  0  0  0  0999 V2000
  141.1000  160.8450  133.3620 N   0  0  0  0  0  0  0  0  0  0  0  0
  141.6260  159.9400  134.3290 C   0  0  0  0  0  0  0  0  0  0  0  0
  141.1140  159.9020  135.4800 O   0  0  0  0  0  0  0  0  0  0  0  0
  142.7950  159.0920  134.0210 C   0  0  0  0  0  0  0  0  0  0  0  0
  142.7190  157.7090  133.8680 C   0  0  0  0  0  0  0  0  0  0  0  0
  144.0160  157.2900  133.6830 C   0  0  0  0  0  0  0  0  0  0  0  0
  144.5190  156.0110  133.4620 C   0  0  0  0  0  0  0  0  0  0  0  0
  145.9040  155.8740  133.2650 C   0  0  0  0  0  0  0  0  0  0  0  0
  146.7530  157.0070  133.2950 C   0  0  0  0  0  0  0  0  0  0  0  0
  148.2250  156.8560  133.0320 C   0  0  0  0  0  0  0  0  0  0  0  0
  148.8270  158.1890  132.7080 C   0  0  0  0  0  0  0  0  0  0  0  0
  149.0490  159.0110  133.6380 O   0  0  0  0  0  0  0  0  0  0  0  0
  149.0950  158.5450  131.3440 N   0  0  0  0  0  0  0  0  0  0  0  0
  149.6570  159.8480  130.9680 C   0  0  0  0  0  0  0  0  0  0  0  0
  148.6260  160.9570  131.2420 C   0  0  0  0  0  0  0  0  0  0  0  0
  147.5460  160.8490  130.3560 O   0  0  0  0  0  0  0  0  0  0  0  0
  150.0770  159.8180  129.4860 C   0  0  0  0  0  0  0  0  0  0  0  0
  149.6400  160.9670  128.8110 O   0  0  0  0  0  0  0  0  0  0  0  0
  146.2040  158.2910  133.5120 C   0  0  0  0  0  0  0  0  0  0  0  0
  144.8240  158.3960  133.7210 C   0  0  0  0  0  0  0  0  0  0  0  0
  144.0890  159.5130  133.9250 N   0  0  0  0  0  0  0  0  0  0  0  0
  144.5750  160.8650  133.9300 C   0  0  0  0  0  0  0  0  0  0  0  0
  145.8000  161.0990  134.1020 O   0  0  0  0  0  0  0  0  0  0  0  0
  143.7020  161.9250  133.7170 O   0  0  0  0  0  0  0  0  0  0  0  0
  141.6530  161.6730  133.0450 H   0  0  0  0  0  0  0  0  0  0  0  0
  141.8136  157.0847  133.8904 H   0  0  0  0  0  0  0  0  0  0  0  0
  143.8537  155.1352  133.4422 H   0  0  0  0  0  0  0  0  0  0  0  0
  146.3326  154.8769  133.0858 H   0  0  0  0  0  0  0  0  0  0  0  0
  148.7144  156.4430  133.9264 H   0  0  0  0  0  0  0  0  0  0  0  0
  148.3716  156.1767  132.1793 H   0  0  0  0  0  0  0  0  0  0  0  0
  148.8550  157.8540  130.5970 H   0  0  0  0  0  0  0  0  0  0  0  0
  150.5508  160.0615  131.5726 H   0  0  0  0  0  0  0  0  0  0  0  0
  148.2586  160.8633  132.2746 H   0  0  0  0  0  0  0  0  0  0  0  0
  149.1079  161.9355  131.0998 H   0  0  0  0  0  0  0  0  0  0  0  0
  147.7100  161.5150  129.6380 H   0  0  0  0  0  0  0  0  0  0  0  0
  151.1739  159.7616  129.4251 H   0  0  0  0  0  0  0  0  0  0  0  0
  149.6162  158.9391  129.0114 H   0  0  0  0  0  0  0  0  0  0  0  0
  148.6850  160.8180  128.5860 H   0  0  0  0  0  0  0  0  0  0  0  0
  146.8448  159.1851  133.5165 H   0  0  0  0  0  0  0  0  0  0  0  0
  1  2  1  0
  2  3  2  0
  2  4  1  0
  4  5  2  0
  5  6  1  0
  6  7  2  0
  7  8  1  0
  8  9  2  0
  9 10  1  0
 10 11  1  0
 11 12  2  0
 11 13  1  0
 13 14  1  0
 14 15  1  0
 15 16  1  0
 14 17  1  0
 17 18  1  0
  9 19  1  0
 19 20  2  0
 20 21  1  0
 21 22  1  0
 22 23  2  0
 22 24  1  0
 21  4  1  0
 20  6  1  0
  1 25  1  0
  5 26  1  0
  7 27  1  0
  8 28  1  0
 10 29  1  0
 10 30  1  0
 13 31  1  0
 14 32  1  0
 15 33  1  0
 15 34  1  0
 16 35  1  0
 17 36  1  0
 17 37  1  0
 18 38  1  0
 19 39  1  0
M  CHG  2   1  -1  24  -1
M  END
>  <UniqueID>  (43) 
43

>  <SMILES>  (43) 
[NH-]C(=O)c1cc2ccc(CC(=O)NC(CO)CO)cc2n1C(=O)[O-]

>  <Energy>  (43) 
71.94273368452075

>  <Genealogy>  (43) 
[NH-]C(=O)c1cc2ccc(CC(=O)NC(CO)CO)cc2n1C(=O)[O-] (protonated)
[NH-]C(=O)c1cc2ccc(CC(=O)NC(CO)CO)cc2n1C(=O)[O-] (3D coordinates assigned)
[NH-]C(=O)c1cc2ccc(CC(=O)NC(CO)CO)cc2n1C(=O)[O-] (optimized conformer: 71.94273368452075 kcal/mol)

>  <smiles>  (43) 
NC(=O)c1cc2ccc(CC(=O)NC(CO)CO)cc2n1C(=O)O

>  <score_type>  (43) 
oracle

>  <origin>  (43) 
adg

>  <m_score__min__energy>  (43) 
-6.9400000000000004

>  <m_primary>  (43) 
energy

$$$$
43:0
     RDKit          3D

 40 42  0  0  0  0  0  0  0  0999 V2000
  143.0810  160.7780  133.3830 N   0  0  0  0  0  0  0  0  0  0  0  0
  144.4170  161.0450  133.8010 C   0  0  0  0  0  0  0  0  0  0  0  0
  144.6710  162.1200  134.4050 O   0  0  0  0  0  0  0  0  0  0  0  0
  145.4770  160.0440  133.5610 C   0  0  0  0  0  0  0  0  0  0  0  0
  146.8150  160.3750  133.3620 C   0  0  0  0  0  0  0  0  0  0  0  0
  147.4480  159.1870  133.0830 C   0  0  0  0  0  0  0  0  0  0  0  0
  148.7860  158.9300  132.8060 C   0  0  0  0  0  0  0  0  0  0  0  0
  149.1660  157.5980  132.5740 C   0  0  0  0  0  0  0  0  0  0  0  0
  148.2180  156.5450  132.6360 C   0  0  0  0  0  0  0  0  0  0  0  0
  148.6680  155.1970  132.3760 N   0  0  0  0  0  0  0  0  0  0  0  0
  147.9920  153.9430  132.7550 C   0  0  1  0  0  0  0  0  0  0  0  0
  148.9980  152.7740  132.7840 C   0  0  0  0  0  0  0  0  0  0  0  0
  150.3120  153.2210  132.6010 O   0  0  0  0  0  0  0  0  0  0  0  0
  147.1130  154.1200  133.9890 C   0  0  0  0  0  0  0  0  0  0  0  0
  145.7060  154.1620  133.9230 C   0  0  0  0  0  0  0  0  0  0  0  0
  144.9600  154.3430  135.0890 C   0  0  0  0  0  0  0  0  0  0  0  0
  145.5850  154.5010  136.2860 N   0  0  0  0  0  0  0  0  0  0  0  0
  146.9410  154.4970  136.3810 C   0  0  0  0  0  0  0  0  0  0  0  0
  147.7250  154.3180  135.2390 C   0  0  0  0  0  0  0  0  0  0  0  0
  146.8630  156.8530  132.9140 C   0  0  0  0  0  0  0  0  0  0  0  0
  146.5090  158.1920  133.1210 C   0  0  0  0  0  0  0  0  0  0  0  0
  145.2920  158.7000  133.4160 N   0  0  0  0  0  0  0  0  0  0  0  0
  144.0760  157.9550  133.6050 C   0  0  0  0  0  0  0  0  0  0  0  0
  143.8680  157.3420  134.6840 O   0  0  0  0  0  0  0  0  0  0  0  0
  143.1070  157.9290  132.6090 O   0  0  0  0  0  0  0  0  0  0  0  0
  142.8840  160.0930  132.6210 H   0  0  0  0  0  0  0  0  0  0  0  0
  147.2692  161.3753  133.4165 H   0  0  0  0  0  0  0  0  0  0  0  0
  149.5241  159.7447  132.7697 H   0  0  0  0  0  0  0  0  0  0  0  0
  150.2160  157.3677  132.3404 H   0  0  0  0  0  0  0  0  0  0  0  0
  149.6050  155.0880  131.9250 H   0  0  0  0  0  0  0  0  0  0  0  0
  147.2655  153.6591  131.9793 H   0  0  0  0  0  0  0  0  0  0  0  0
  148.9261  152.2651  133.7565 H   0  0  0  0  0  0  0  0  0  0  0  0
  148.7506  152.0863  131.9619 H   0  0  0  0  0  0  0  0  0  0  0  0
  150.4970  153.1420  131.6290 H   0  0  0  0  0  0  0  0  0  0  0  0
  145.1964  154.0524  132.9544 H   0  0  0  0  0  0  0  0  0  0  0  0
  143.8612  154.3579  135.0391 H   0  0  0  0  0  0  0  0  0  0  0  0
  145.0130  154.6370  137.1490 H   0  0  0  0  0  0  0  0  0  0  0  0
  147.4224  154.6352  137.3604 H   0  0  0  0  0  0  0  0  0  0  0  0
  148.8221  154.3320  135.3178 H   0  0  0  0  0  0  0  0  0  0  0  0
  146.1054  156.0572  132.9661 H   0  0  0  0  0  0  0  0  0  0  0  0
  1  2  1  0
  2  3  2  0
  2  4  1  0
  4  5  2  0
  5  6  1  0
  6  7  2  0
  7  8  1  0
  8  9  2  0
  9 10  1  0
 10 11  1  0
 11 12  1  0
 12 13  1  0
 11 14  1  0
 14 15  2  0
 15 16  1  0
 16 17  2  0
 17 18  1  0
 18 19  2  0
  9 20  1  0
 20 21  2  0
 21 22  1  0
 22 23  1  0
 23 24  2  0
 23 25  1  0
 22  4  1  0
 21  6  1  0
 19 14  1  0
  1 26  1  0
  5 27  1  0
  7 28  1  0
  8 29  1  0
 10 30  1  0
 11 31  1  6
 12 32  1  0
 12 33  1  0
 13 34  1  0
 15 35  1  0
 16 36  1  0
 17 37  1  0
 18 38  1  0
 19 39  1  0
 20 40  1  0
M  CHG  3   1  -1  17   1  25  -1
M  END
>  <UniqueID>  (44) 
44

>  <SMILES>  (44) 
[NH-]C(=O)c1cc2ccc(N[C@@H](CO)c3cc[nH+]cc3)cc2n1C(=O)[O-]

>  <Energy>  (44) 
86.77224440234592

>  <Genealogy>  (44) 
[NH-]C(=O)c1cc2ccc(NC(CO)c3cc[nH+]cc3)cc2n1C(=O)[O-] (protonated)
[NH-]C(=O)c1cc2ccc(N[C@@H](CO)c3cc[nH+]cc3)cc2n1C(=O)[O-] (chirality)
[NH-]C(=O)c1cc2ccc(N[C@@H](CO)c3cc[nH+]cc3)cc2n1C(=O)[O-] (3D coordinates assigned)
[NH-]C(=O)c1cc2ccc(N[C@@H](CO)c3cc[nH+]cc3)cc2n1C(=O)[O-] (optimized conformer: 86.77224440234592 kcal/mol)

>  <smiles>  (44) 
NC(=O)c1cc2ccc(NC(CO)c3ccncc3)cc2n1C(=O)O

>  <score_type>  (44) 
oracle

>  <origin>  (44) 
adg

>  <m_score__min__energy>  (44) 
-6.8399999999999999

>  <m_primary>  (44) 
energy

$$$$
44:0
     RDKit          3D

 43 45  0  0  0  0  0  0  0  0999 V2000
  139.1130  158.1220  131.8950 C   0  0  0  0  0  0  0  0  0  0  0  0
  139.5310  157.0460  132.5600 C   0  0  0  0  0  0  0  0  0  0  0  0
  139.6340  157.0100  134.0300 C   0  0  0  0  0  0  0  0  0  0  0  0
  138.7330  157.5550  134.7220 O   0  0  0  0  0  0  0  0  0  0  0  0
  140.7520  156.3950  134.6890 N   0  0  0  0  0  0  0  0  0  0  0  0
  141.4410  156.8500  135.7710 C   0  0  0  0  0  0  0  0  0  0  0  0
  141.2100  158.1360  136.4590 C   0  0  0  0  0  0  0  0  0  0  0  0
  139.9720  158.3740  137.1260 N   0  0  0  0  0  0  0  0  0  0  0  0
  142.1010  159.0250  136.4770 O   0  0  0  0  0  0  0  0  0  0  0  0
  142.4320  155.9380  136.1330 C   0  0  0  0  0  0  0  0  0  0  0  0
  142.3260  154.9060  135.2260 C   0  0  0  0  0  0  0  0  0  0  0  0
  143.0570  153.7300  135.1130 C   0  0  0  0  0  0  0  0  0  0  0  0
  142.7080  152.8320  134.0900 C   0  0  0  0  0  0  0  0  0  0  0  0
  141.6270  153.1120  133.2100 C   0  0  0  0  0  0  0  0  0  0  0  0
  141.2490  152.1610  132.1850 N   0  0  0  0  0  0  0  0  0  0  0  0
  140.5930  150.9240  132.6850 C   0  0  2  0  0  0  0  0  0  0  0  0
  141.4830  149.6880  132.6100 C   0  0  0  0  0  0  0  0  0  0  0  0
  141.0230  148.9290  131.3660 C   0  0  0  0  0  0  0  0  0  0  0  0
  139.8400  149.6190  130.8250 N   0  0  0  0  0  0  0  0  0  0  0  0
  138.7960  148.6790  130.3970 C   0  0  0  0  0  0  0  0  0  0  0  0
  139.3630  150.5190  131.8800 C   0  0  0  0  0  0  0  0  0  0  0  0
  140.9360  154.3420  133.3360 C   0  0  0  0  0  0  0  0  0  0  0  0
  141.3070  155.2120  134.3640 C   0  0  0  0  0  0  0  0  0  0  0  0
  139.0529  158.1009  130.7969 H   0  0  0  0  0  0  0  0  0  0  0  0
  138.8280  159.0316  132.4441 H   0  0  0  0  0  0  0  0  0  0  0  0
  139.8106  156.1483  131.9891 H   0  0  0  0  0  0  0  0  0  0  0  0
  139.1090  158.6110  136.5870 H   0  0  0  0  0  0  0  0  0  0  0  0
  143.1461  156.0241  136.9652 H   0  0  0  0  0  0  0  0  0  0  0  0
  143.8841  153.5085  135.8035 H   0  0  0  0  0  0  0  0  0  0  0  0
  143.2790  151.8997  133.9684 H   0  0  0  0  0  0  0  0  0  0  0  0
  140.6090  152.6270  131.5000 H   0  0  0  0  0  0  0  0  0  0  0  0
  142.1010  151.8870  131.6410 H   0  0  0  0  0  0  0  0  0  0  0  0
  140.3457  151.2008  133.7205 H   0  0  0  0  0  0  0  0  0  0  0  0
  142.5392  149.9800  132.5136 H   0  0  0  0  0  0  0  0  0  0  0  0
  141.4027  149.0714  133.5174 H   0  0  0  0  0  0  0  0  0  0  0  0
  141.8266  148.9209  130.6149 H   0  0  0  0  0  0  0  0  0  0  0  0
  140.7751  147.8884  131.6225 H   0  0  0  0  0  0  0  0  0  0  0  0
  138.3107  148.2421  131.2822 H   0  0  0  0  0  0  0  0  0  0  0  0
  138.0467  149.2129  129.7941 H   0  0  0  0  0  0  0  0  0  0  0  0
  139.2486  147.8780  129.7941 H   0  0  0  0  0  0  0  0  0  0  0  0
  138.8881  151.4070  131.4373 H   0  0  0  0  0  0  0  0  0  0  0  0
  138.6127  150.0270  132.5164 H   0  0  0  0  0  0  0  0  0  0  0  0
  140.1259  154.6061  132.6403 H   0  0  0  0  0  0  0  0  0  0  0  0
  1  2  2  0
  2  3  1  0
  3  4  2  0
  3  5  1  0
  5  6  1  0
  6  7  1  0
  7  8  1  0
  7  9  2  0
  6 10  2  0
 10 11  1  0
 11 12  2  0
 12 13  1  0
 13 14  2  0
 14 15  1  0
 15 16  1  0
 16 17  1  0
 17 18  1  0
 18 19  1  0
 19 20  1  0
 19 21  1  0
 14 22  1  0
 22 23  2  0
 23  5  1  0
 23 11  1  0
 21 16  1  0
  1 24  1  0
  1 25  1  0
  2 26  1  0
  8 27  1  0
 10 28  1  0
 12 29  1  0
 13 30  1  0
 15 31  1  0
 15 32  1  0
 16 33  1  1
 17 34  1  0
 17 35  1  0
 18 36  1  0
 18 37  1  0
 20 38  1  0
 20 39  1  0
 20 40  1  0
 21 41  1  0
 21 42  1  0
 22 43  1  0
M  CHG  2   8  -1  15   1
M  END
>  <UniqueID>  (45) 
45

>  <SMILES>  (45) 
C=CC(=O)n1c(C([NH-])=O)cc2ccc([NH2+][C@@H]3CCN(C)C3)cc21

>  <Energy>  (45) 
89.87050519472619

>  <Genealogy>  (45) 
C=CC(=O)n1c(C([NH-])=O)cc2ccc([NH2+]C3CCN(C)C3)cc21 (protonated)
C=CC(=O)n1c(C([NH-])=O)cc2ccc([NH2+][C@@H]3CCN(C)C3)cc21 (chirality)
C=CC(=O)n1c(C([NH-])=O)cc2ccc([NH2+][C@@H]3CCN(C)C3)cc21 (3D coordinates assigned)
C=CC(=O)n1c(C([NH-])=O)cc2ccc([NH2+][C@@H]3CCN(C)C3)cc21 (nonaromatic ring conformer: 89.87050519472619 kcal/mol)

>  <smiles>  (45) 
C=CC(=O)n1c(C(N)=O)cc2ccc(NC3CCN(C)C3)cc21

>  <score_type>  (45) 
oracle

>  <origin>  (45) 
adg

>  <m_score__min__energy>  (45) 
-8.0600000000000005

>  <m_primary>  (45) 
energy

$$$$
45:0
     RDKit          3D

 36 37  0  0  0  0  0  0  0  0999 V2000
  139.8580  158.1770  136.2270 C   0  0  0  0  0  0  0  0  0  0  0  0
  138.9520  158.1280  135.1320 O   0  0  0  0  0  0  0  0  0  0  0  0
  139.3720  158.2140  133.8020 C   0  0  0  0  0  0  0  0  0  0  0  0
  138.7720  158.9640  132.9830 O   0  0  0  0  0  0  0  0  0  0  0  0
  140.5120  157.3670  133.3360 C   0  0  0  0  0  0  0  0  0  0  0  0
  141.8050  158.1160  133.4930 C   0  0  0  0  0  0  0  0  0  0  0  0
  141.8010  159.5280  133.6060 C   0  0  0  0  0  0  0  0  0  0  0  0
  143.0070  160.2410  133.7050 C   0  0  0  0  0  0  0  0  0  0  0  0
  144.1970  159.5180  133.6880 C   0  0  0  0  0  0  0  0  0  0  0  0
  145.4990  159.9590  133.7280 C   0  0  0  0  0  0  0  0  0  0  0  0
  146.2790  158.8100  133.6570 C   0  0  0  0  0  0  0  0  0  0  0  0
  147.7540  158.8240  133.7300 C   0  0  0  0  0  0  0  0  0  0  0  0
  148.4880  157.6490  134.0800 N   0  0  0  0  0  0  0  0  0  0  0  0
  148.3730  159.9040  133.5360 O   0  0  0  0  0  0  0  0  0  0  0  0
  145.4950  157.7000  133.5620 N   0  0  0  0  0  0  0  0  0  0  0  0
  145.9200  156.3420  133.3540 C   0  0  0  0  0  0  0  0  0  0  0  0
  146.9280  156.1060  132.6330 O   0  0  0  0  0  0  0  0  0  0  0  0
  145.2040  155.2940  133.9480 O   0  0  0  0  0  0  0  0  0  0  0  0
  145.3600  154.8590  135.2710 C   0  0  0  0  0  0  0  0  0  0  0  0
  144.3680  154.7300  136.0380 O   0  0  0  0  0  0  0  0  0  0  0  0
  146.7020  154.5520  135.7710 C   0  0  0  0  0  0  0  0  0  0  0  0
  147.6480  155.3640  135.5880 O   0  0  0  0  0  0  0  0  0  0  0  0
  146.9410  153.3640  136.4520 O   0  0  0  0  0  0  0  0  0  0  0  0
  144.2200  158.1500  133.5860 C   0  0  0  0  0  0  0  0  0  0  0  0
  143.0330  157.4160  133.4650 C   0  0  0  0  0  0  0  0  0  0  0  0
  139.2942  158.1465  137.1710 H   0  0  0  0  0  0  0  0  0  0  0  0
  140.5388  157.3144  136.1785 H   0  0  0  0  0  0  0  0  0  0  0  0
  140.4418  159.1080  136.1785 H   0  0  0  0  0  0  0  0  0  0  0  0
  140.5498  156.4451  133.9349 H   0  0  0  0  0  0  0  0  0  0  0  0
  140.3660  157.1162  132.2750 H   0  0  0  0  0  0  0  0  0  0  0  0
  140.8445  160.0711  133.6163 H   0  0  0  0  0  0  0  0  0  0  0  0
  143.0114  161.3374  133.7933 H   0  0  0  0  0  0  0  0  0  0  0  0
  145.8489  160.9993  133.8007 H   0  0  0  0  0  0  0  0  0  0  0  0
  149.5330  157.6670  134.0870 H   0  0  0  0  0  0  0  0  0  0  0  0
  148.0010  156.7880  134.4130 H   0  0  0  0  0  0  0  0  0  0  0  0
  143.0558  156.3222  133.3510 H   0  0  0  0  0  0  0  0  0  0  0  0
  1  2  1  0
  2  3  1  0
  3  4  2  0
  3  5  1  0
  5  6  1  0
  6  7  2  0
  7  8  1  0
  8  9  2  0
  9 10  1  0
 10 11  2  0
 11 12  1  0
 12 13  1  0
 12 14  2  0
 11 15  1  0
 15 16  1  0
 16 17  2  0
 16 18  1  0
 18 19  1  0
 19 20  2  0
 19 21  1  0
 21 22  2  0
 21 23  1  0
 15 24  1  0
 24 25  2  0
 25  6  1  0
 24  9  1  0
  1 26  1  0
  1 27  1  0
  1 28  1  0
  5 29  1  0
  5 30  1  0
  7 31  1  0
  8 32  1  0
 10 33  1  0
 13 34  1  0
 13 35  1  0
 25 36  1  0
M  CHG  1  23  -1
M  END
>  <UniqueID>  (46) 
46

>  <SMILES>  (46) 
COC(=O)Cc1ccc2cc(C(N)=O)n(C(=O)OC(=O)C(=O)[O-])c2c1

>  <Energy>  (46) 
70.94595529884735

>  <Genealogy>  (46) 
COC(=O)Cc1ccc2cc(C(N)=O)n(C(=O)OC(=O)C(=O)[O-])c2c1 (protonated)
COC(=O)Cc1ccc2cc(C(N)=O)n(C(=O)OC(=O)C(=O)[O-])c2c1 (3D coordinates assigned)
COC(=O)Cc1ccc2cc(C(N)=O)n(C(=O)OC(=O)C(=O)[O-])c2c1 (optimized conformer: 70.94595529884735 kcal/mol)

>  <smiles>  (46) 
COC(=O)Cc1ccc2cc(C(N)=O)n(C(=O)OC(=O)C(=O)O)c2c1

>  <score_type>  (46) 
oracle

>  <origin>  (46) 
adg

>  <m_score__min__energy>  (46) 
-6.5599999999999996

>  <m_primary>  (46) 
energy

$$$$
46:0
     RDKit          3D

 41 42  0  0  0  0  0  0  0  0999 V2000
  137.9800  158.6190  132.2080 C   0  0  0  0  0  0  0  0  0  0  0  0
  139.4380  158.1490  132.2670 C   0  0  0  0  0  0  0  0  0  0  0  0
  140.4080  159.2620  131.8510 C   0  0  0  0  0  0  0  0  0  0  0  0
  139.7720  157.6290  133.6090 N   0  0  0  0  0  0  0  0  0  0  0  0
  139.1280  158.1730  134.8110 C   0  0  0  0  0  0  0  0  0  0  0  0
  140.6940  156.5240  133.7380 C   0  0  0  0  0  0  0  0  0  0  0  0
  140.5790  155.5180  132.9850 O   0  0  0  0  0  0  0  0  0  0  0  0
  141.8290  156.5570  134.7270 C   0  0  0  0  0  0  0  0  0  0  0  0
  142.8490  157.5950  134.3340 C   0  0  0  0  0  0  0  0  0  0  0  0
  142.4760  158.9570  134.2170 C   0  0  0  0  0  0  0  0  0  0  0  0
  143.4230  159.9310  133.8610 C   0  0  0  0  0  0  0  0  0  0  0  0
  144.7300  159.5160  133.6270 C   0  0  0  0  0  0  0  0  0  0  0  0
  145.8440  160.2510  133.2910 C   0  0  0  0  0  0  0  0  0  0  0  0
  146.8820  159.3260  133.1940 C   0  0  0  0  0  0  0  0  0  0  0  0
  148.2540  159.6710  132.7590 C   0  0  0  0  0  0  0  0  0  0  0  0
  149.3770  158.9210  133.2260 N   0  0  0  0  0  0  0  0  0  0  0  0
  148.4470  160.6540  131.9960 O   0  0  0  0  0  0  0  0  0  0  0  0
  146.4280  158.0680  133.4630 N   0  0  0  0  0  0  0  0  0  0  0  0
  147.1910  156.8520  133.5200 C   0  0  0  0  0  0  0  0  0  0  0  0
  147.8750  156.5760  134.5420 O   0  0  0  0  0  0  0  0  0  0  0  0
  147.1740  155.9600  132.4540 O   0  0  0  0  0  0  0  0  0  0  0  0
  145.1090  158.2020  133.7270 C   0  0  0  0  0  0  0  0  0  0  0  0
  144.1910  157.2140  134.1030 C   0  0  0  0  0  0  0  0  0  0  0  0
  137.5933  158.7437  133.2302 H   0  0  0  0  0  0  0  0  0  0  0  0
  137.9258  159.5801  131.6757 H   0  0  0  0  0  0  0  0  0  0  0  0
  137.3747  157.8705  131.6757 H   0  0  0  0  0  0  0  0  0  0  0  0
  139.5498  157.3275  131.5441 H   0  0  0  0  0  0  0  0  0  0  0  0
  140.8247  159.7401  132.7498 H   0  0  0  0  0  0  0  0  0  0  0  0
  141.2246  158.8319  131.2524 H   0  0  0  0  0  0  0  0  0  0  0  0
  139.8704  160.0121  131.2524 H   0  0  0  0  0  0  0  0  0  0  0  0
  139.6158  157.7609  135.7067 H   0  0  0  0  0  0  0  0  0  0  0  0
  139.2224  159.2689  134.8135 H   0  0  0  0  0  0  0  0  0  0  0  0
  138.0633  157.8967  134.8135 H   0  0  0  0  0  0  0  0  0  0  0  0
  141.4323  156.8000  135.7238 H   0  0  0  0  0  0  0  0  0  0  0  0
  142.3155  155.5705  134.7396 H   0  0  0  0  0  0  0  0  0  0  0  0
  141.4341  159.2544  134.4069 H   0  0  0  0  0  0  0  0  0  0  0  0
  143.1399  160.9900  133.7699 H   0  0  0  0  0  0  0  0  0  0  0  0
  145.9027  161.3380  133.1326 H   0  0  0  0  0  0  0  0  0  0  0  0
  150.3440  159.1970  132.9450 H   0  0  0  0  0  0  0  0  0  0  0  0
  149.2530  158.0680  133.8140 H   0  0  0  0  0  0  0  0  0  0  0  0
  144.5062  156.1662  134.2160 H   0  0  0  0  0  0  0  0  0  0  0  0
  1  2  1  0
  2  3  1  0
  2  4  1  0
  4  5  1  0
  4  6  1  0
  6  7  2  0
  6  8  1  0
  8  9  1  0
  9 10  2  0
 10 11  1  0
 11 12  2  0
 12 13  1  0
 13 14  2  0
 14 15  1  0
 15 16  1  0
 15 17  2  0
 14 18  1  0
 18 19  1  0
 19 20  2  0
 19 21  1  0
 18 22  1  0
 22 23  2  0
 23  9  1  0
 22 12  1  0
  1 24  1  0
  1 25  1  0
  1 26  1  0
  2 27  1  0
  3 28  1  0
  3 29  1  0
  3 30  1  0
  5 31  1  0
  5 32  1  0
  5 33  1  0
  8 34  1  0
  8 35  1  0
 10 36  1  0
 11 37  1  0
 13 38  1  0
 16 39  1  0
 16 40  1  0
 23 41  1  0
M  CHG  1  21  -1
M  END
>  <UniqueID>  (47) 
47

>  <SMILES>  (47) 
CC(C)N(C)C(=O)Cc1ccc2cc(C(N)=O)n(C(=O)[O-])c2c1

>  <Energy>  (47) 
75.17159545264944

>  <Genealogy>  (47) 
CC(C)N(C)C(=O)Cc1ccc2cc(C(N)=O)n(C(=O)[O-])c2c1 (protonated)
CC(C)N(C)C(=O)Cc1ccc2cc(C(N)=O)n(C(=O)[O-])c2c1 (3D coordinates assigned)
CC(C)N(C)C(=O)Cc1ccc2cc(C(N)=O)n(C(=O)[O-])c2c1 (optimized conformer: 75.17159545264944 kcal/mol)

>  <smiles>  (47) 
CC(C)N(C)C(=O)Cc1ccc2cc(C(N)=O)n(C(=O)O)c2c1

>  <score_type>  (47) 
oracle

>  <origin>  (47) 
adg

>  <m_score__min__energy>  (47) 
-7.0999999999999996

>  <m_primary>  (47) 
energy

$$$$
47:0
     RDKit          3D

 38 39  0  0  0  0  0  0  0  0999 V2000
  139.3700  159.6890  131.7490 C   0  0  0  0  0  0  0  0  0  0  0  0
  139.7300  158.6410  132.7970 C   0  0  0  0  0  0  0  0  0  0  0  0
  140.2940  159.2550  133.9530 O   0  0  0  0  0  0  0  0  0  0  0  0
  140.5460  158.5680  135.1460 C   0  0  0  0  0  0  0  0  0  0  0  0
  139.6210  157.9540  135.7460 O   0  0  0  0  0  0  0  0  0  0  0  0
  141.9310  158.5570  135.7100 C   0  0  0  0  0  0  0  0  0  0  0  0
  142.8050  157.6500  134.8960 C   0  0  0  0  0  0  0  0  0  0  0  0
  143.0320  156.4820  135.3150 O   0  0  0  0  0  0  0  0  0  0  0  0
  143.3480  158.0730  133.5890 C   0  0  0  0  0  0  0  0  0  0  0  0
  142.6880  157.8650  132.5360 O   0  0  0  0  0  0  0  0  0  0  0  0
  144.6310  158.7120  133.5040 N   0  0  0  0  0  0  0  0  0  0  0  0
  144.9070  160.0410  133.6090 C   0  0  0  0  0  0  0  0  0  0  0  0
  143.9110  161.1290  133.7250 C   0  0  0  0  0  0  0  0  0  0  0  0
  142.5210  160.8770  133.5360 N   0  0  0  0  0  0  0  0  0  0  0  0
  144.2960  162.3020  133.9730 O   0  0  0  0  0  0  0  0  0  0  0  0
  146.2830  160.2570  133.5490 C   0  0  0  0  0  0  0  0  0  0  0  0
  146.8440  159.0080  133.4070 C   0  0  0  0  0  0  0  0  0  0  0  0
  148.1790  158.6270  133.3280 C   0  0  0  0  0  0  0  0  0  0  0  0
  148.4700  157.2570  133.2270 C   0  0  0  0  0  0  0  0  0  0  0  0
  147.4280  156.2940  133.1980 C   0  0  0  0  0  0  0  0  0  0  0  0
  147.7530  154.8230  133.1520 C   0  0  0  0  0  0  0  0  0  0  0  0
  146.6620  154.1310  132.6600 F   0  0  0  0  0  0  0  0  0  0  0  0
  148.0560  154.3480  134.4150 F   0  0  0  0  0  0  0  0  0  0  0  0
  148.8430  154.5900  132.3300 F   0  0  0  0  0  0  0  0  0  0  0  0
  146.0830  156.7200  133.3050 C   0  0  0  0  0  0  0  0  0  0  0  0
  145.8250  158.0920  133.3860 C   0  0  0  0  0  0  0  0  0  0  0  0
  139.0519  160.6149  132.2505 H   0  0  0  0  0  0  0  0  0  0  0  0
  140.2486  159.8958  131.1203 H   0  0  0  0  0  0  0  0  0  0  0  0
  138.5498  159.3122  131.1203 H   0  0  0  0  0  0  0  0  0  0  0  0
  138.8210  158.0934  133.0866 H   0  0  0  0  0  0  0  0  0  0  0  0
  140.4712  157.9516  132.3665 H   0  0  0  0  0  0  0  0  0  0  0  0
  142.3423  159.5770  135.6876 H   0  0  0  0  0  0  0  0  0  0  0  0
  141.8973  158.1931  136.7475 H   0  0  0  0  0  0  0  0  0  0  0  0
  142.1860  159.9590  133.1670 H   0  0  0  0  0  0  0  0  0  0  0  0
  146.8091  161.2215  133.6036 H   0  0  0  0  0  0  0  0  0  0  0  0
  148.9836  159.3769  133.3442 H   0  0  0  0  0  0  0  0  0  0  0  0
  149.5176  156.9265  133.1697 H   0  0  0  0  0  0  0  0  0  0  0  0
  145.2605  155.9899  133.3240 H   0  0  0  0  0  0  0  0  0  0  0  0
  1  2  1  0
  2  3  1  0
  3  4  1  0
  4  5  2  0
  4  6  1  0
  6  7  1  0
  7  8  2  0
  7  9  1  0
  9 10  2  0
  9 11  1  0
 11 12  1  0
 12 13  1  0
 13 14  1  0
 13 15  2  0
 12 16  2  0
 16 17  1  0
 17 18  2  0
 18 19  1  0
 19 20  2  0
 20 21  1  0
 21 22  1  0
 21 23  1  0
 21 24  1  0
 20 25  1  0
 25 26  2  0
 26 11  1  0
 26 17  1  0
  1 27  1  0
  1 28  1  0
  1 29  1  0
  2 30  1  0
  2 31  1  0
  6 32  1  0
  6 33  1  0
 14 34  1  0
 16 35  1  0
 18 36  1  0
 19 37  1  0
 25 38  1  0
M  CHG  1  14  -1
M  END
>  <UniqueID>  (48) 
48

>  <SMILES>  (48) 
CCOC(=O)CC(=O)C(=O)n1c(C([NH-])=O)cc2ccc(C(F)(F)F)cc21

>  <Energy>  (48) 
71.07070502058595

>  <Genealogy>  (48) 
CCOC(=O)CC(=O)C(=O)n1c(C([NH-])=O)cc2ccc(C(F)(F)F)cc21 (protonated)
CCOC(=O)CC(=O)C(=O)n1c(C([NH-])=O)cc2ccc(C(F)(F)F)cc21 (3D coordinates assigned)
CCOC(=O)CC(=O)C(=O)n1c(C([NH-])=O)cc2ccc(C(F)(F)F)cc21 (optimized conformer: 71.07070502058595 kcal/mol)

>  <smiles>  (48) 
CCOC(=O)CC(=O)C(=O)n1c(C(N)=O)cc2ccc(C(F)(F)F)cc21

>  <score_type>  (48) 
oracle

>  <origin>  (48) 
adg

>  <m_score__min__energy>  (48) 
-5.9000000000000004

>  <m_primary>  (48) 
energy

$$$$
48:0
     RDKit          3D

 29 30  0  0  0  0  0  0  0  0999 V2000
  138.3520  158.0250  131.3040 N   0  0  0  0  0  0  0  0  0  0  0  0
  139.5530  158.6630  131.7450 C   0  0  0  0  0  0  0  0  0  0  0  0
  140.2110  159.3600  130.9270 O   0  0  0  0  0  0  0  0  0  0  0  0
  140.0380  158.4920  133.1320 C   0  0  0  0  0  0  0  0  0  0  0  0
  140.3960  159.5440  133.9750 C   0  0  0  0  0  0  0  0  0  0  0  0
  140.6880  158.9590  135.1860 C   0  0  0  0  0  0  0  0  0  0  0  0
  141.0900  159.5350  136.3870 C   0  0  0  0  0  0  0  0  0  0  0  0
  141.3280  158.6840  137.4790 C   0  0  0  0  0  0  0  0  0  0  0  0
  141.1820  157.2780  137.3500 C   0  0  0  0  0  0  0  0  0  0  0  0
  141.3990  156.3790  138.5400 C   0  0  0  0  0  0  0  0  0  0  0  0
  142.4250  155.4830  138.2940 F   0  0  0  0  0  0  0  0  0  0  0  0
  141.7270  157.1500  139.6390 F   0  0  0  0  0  0  0  0  0  0  0  0
  140.2530  155.6560  138.8230 F   0  0  0  0  0  0  0  0  0  0  0  0
  140.7460  156.7340  136.1190 C   0  0  0  0  0  0  0  0  0  0  0  0
  140.5060  157.6080  135.0530 C   0  0  0  0  0  0  0  0  0  0  0  0
  140.1110  157.3060  133.7990 N   0  0  0  0  0  0  0  0  0  0  0  0
  139.8720  155.9870  133.2850 C   0  0  0  0  0  0  0  0  0  0  0  0
  138.7460  155.6990  132.7980 O   0  0  0  0  0  0  0  0  0  0  0  0
  140.9230  154.9210  133.3890 C   0  0  0  0  0  0  0  0  0  0  0  0
  140.4490  153.7260  132.8310 O   0  0  0  0  0  0  0  0  0  0  0  0
  137.7460  157.4910  131.9640 H   0  0  0  0  0  0  0  0  0  0  0  0
  138.0410  158.1250  130.3120 H   0  0  0  0  0  0  0  0  0  0  0  0
  140.4364  160.6144  133.7249 H   0  0  0  0  0  0  0  0  0  0  0  0
  141.2176  160.6237  136.4786 H   0  0  0  0  0  0  0  0  0  0  0  0
  141.6312  159.1124  138.4457 H   0  0  0  0  0  0  0  0  0  0  0  0
  140.5992  155.6501  136.0027 H   0  0  0  0  0  0  0  0  0  0  0  0
  141.8244  155.2438  132.8474 H   0  0  0  0  0  0  0  0  0  0  0  0
  141.1650  154.7541  134.4490 H   0  0  0  0  0  0  0  0  0  0  0  0
  139.6650  153.9660  132.2700 H   0  0  0  0  0  0  0  0  0  0  0  0
  1  2  1  0
  2  3  2  0
  2  4  1  0
  4  5  2  0
  5  6  1  0
  6  7  2  0
  7  8  1  0
  8  9  2  0
  9 10  1  0
 10 11  1  0
 10 12  1  0
 10 13  1  0
  9 14  1  0
 14 15  2  0
 15 16  1  0
 16 17  1  0
 17 18  2  0
 17 19  1  0
 19 20  1  0
 16  4  1  0
 15  6  1  0
  1 21  1  0
  1 22  1  0
  5 23  1  0
  7 24  1  0
  8 25  1  0
 14 26  1  0
 19 27  1  0
 19 28  1  0
 20 29  1  0
M  END
>  <UniqueID>  (49) 
49

>  <SMILES>  (49) 
NC(=O)c1cc2ccc(C(F)(F)F)cc2n1C(=O)CO

>  <Energy>  (49) 
68.61873962699507

>  <Genealogy>  (49) 
NC(=O)c1cc2ccc(C(F)(F)F)cc2n1C(=O)CO (3D coordinates assigned)
NC(=O)c1cc2ccc(C(F)(F)F)cc2n1C(=O)CO (optimized conformer: 68.61873962699507 kcal/mol)

>  <smiles>  (49) 
NC(=O)c1cc2ccc(C(F)(F)F)cc2n1C(=O)CO

>  <score_type>  (49) 
oracle

>  <origin>  (49) 
adg

>  <m_score__min__energy>  (49) 
-6.0099999999999998

>  <m_primary>  (49) 
energy

$$$$
49:0
     RDKit          3D

 42 44  0  0  0  0  0  0  0  0999 V2000
  145.1090  154.5870  134.9350 C   0  0  0  0  0  0  0  0  0  0  0  0
  146.6300  154.6590  134.8480 C   0  0  1  0  0  0  0  0  0  0  0  0
  147.0230  156.0060  134.5840 O   0  0  0  0  0  0  0  0  0  0  0  0
  146.8970  156.6160  133.3300 C   0  0  0  0  0  0  0  0  0  0  0  0
  146.9360  155.9200  132.2790 O   0  0  0  0  0  0  0  0  0  0  0  0
  146.6910  158.0350  133.2430 N   0  0  0  0  0  0  0  0  0  0  0  0
  147.6150  158.9950  132.9530 C   0  0  0  0  0  0  0  0  0  0  0  0
  148.9960  158.7580  132.4830 C   0  0  0  0  0  0  0  0  0  0  0  0
  149.4740  157.4370  132.2530 N   0  0  0  0  0  0  0  0  0  0  0  0
  149.7450  159.7390  132.2310 O   0  0  0  0  0  0  0  0  0  0  0  0
  147.0600  160.2650  133.0800 C   0  0  0  0  0  0  0  0  0  0  0  0
  145.7520  160.0550  133.4540 C   0  0  0  0  0  0  0  0  0  0  0  0
  144.7460  160.9710  133.7330 C   0  0  0  0  0  0  0  0  0  0  0  0
  143.4940  160.4760  134.1320 C   0  0  0  0  0  0  0  0  0  0  0  0
  143.2660  159.0780  134.2580 C   0  0  0  0  0  0  0  0  0  0  0  0
  141.9760  158.5780  134.6830 N   0  0  0  0  0  0  0  0  0  0  0  0
  141.3290  158.9550  135.9310 C   0  0  0  0  0  0  0  0  0  0  0  0
  140.0940  158.0730  136.0450 C   0  0  0  0  0  0  0  0  0  0  0  0
  139.8410  157.5340  134.6410 C   0  0  0  0  0  0  0  0  0  0  0  0
  141.1730  157.6410  133.9110 C   0  0  0  0  0  0  0  0  0  0  0  0
  144.3240  158.1810  133.9640 C   0  0  0  0  0  0  0  0  0  0  0  0
  145.5540  158.7030  133.5480 C   0  0  0  0  0  0  0  0  0  0  0  0
  147.2470  154.1690  136.1280 C   0  0  0  0  0  0  0  0  0  0  0  0
  148.1900  154.8040  136.6660 O   0  0  0  0  0  0  0  0  0  0  0  0
  146.7570  153.0200  136.7380 O   0  0  0  0  0  0  0  0  0  0  0  0
  144.8024  154.5725  135.9913 H   0  0  0  0  0  0  0  0  0  0  0  0
  144.6713  155.4654  134.4382 H   0  0  0  0  0  0  0  0  0  0  0  0
  144.7563  153.6712  134.4382 H   0  0  0  0  0  0  0  0  0  0  0  0
  146.9823  154.0141  134.0295 H   0  0  0  0  0  0  0  0  0  0  0  0
  148.8750  156.7220  131.7840 H   0  0  0  0  0  0  0  0  0  0  0  0
  147.5601  161.2310  132.9163 H   0  0  0  0  0  0  0  0  0  0  0  0
  144.9248  162.0527  133.6440 H   0  0  0  0  0  0  0  0  0  0  0  0
  142.6775  161.1800  134.3503 H   0  0  0  0  0  0  0  0  0  0  0  0
  142.0048  158.7783  136.7807 H   0  0  0  0  0  0  0  0  0  0  0  0
  141.0646  160.0227  135.9418 H   0  0  0  0  0  0  0  0  0  0  0  0
  140.2770  157.2456  136.7463 H   0  0  0  0  0  0  0  0  0  0  0  0
  139.2282  158.6340  136.4267 H   0  0  0  0  0  0  0  0  0  0  0  0
  139.5120  156.4853  134.6865 H   0  0  0  0  0  0  0  0  0  0  0  0
  139.0499  158.0990  134.1262 H   0  0  0  0  0  0  0  0  0  0  0  0
  141.6662  156.6587  133.8686 H   0  0  0  0  0  0  0  0  0  0  0  0
  141.0392  157.9823  132.8739 H   0  0  0  0  0  0  0  0  0  0  0  0
  144.1806  157.0947  134.0611 H   0  0  0  0  0  0  0  0  0  0  0  0
  1  2  1  0
  2  3  1  0
  3  4  1  0
  4  5  2  0
  4  6  1  0
  6  7  1  0
  7  8  1  0
  8  9  1  0
  8 10  2  0
  7 11  2  0
 11 12  1  0
 12 13  2  0
 13 14  1  0
 14 15  2  0
 15 16  1  0
 16 17  1  0
 17 18  1  0
 18 19  1  0
 19 20  1  0
 15 21  1  0
 21 22  2  0
  2 23  1  0
 23 24  2  0
 23 25  1  0
 22  6  1  0
 22 12  1  0
 20 16  1  0
  1 26  1  0
  1 27  1  0
  1 28  1  0
  2 29  1  6
  9 30  1  0
 11 31  1  0
 13 32  1  0
 14 33  1  0
 17 34  1  0
 17 35  1  0
 18 36  1  0
 18 37  1  0
 19 38  1  0
 19 39  1  0
 20 40  1  0
 20 41  1  0
 21 42  1  0
M  CHG  2   9  -1  25  -1
M  END
>  <UniqueID>  (50) 
50

>  <SMILES>  (50) 
C[C@@H](OC(=O)n1c(C([NH-])=O)cc2ccc(N3CCCC3)cc21)C(=O)[O-]

>  <Energy>  (50) 
79.07327988397665

>  <Genealogy>  (50) 
CC(OC(=O)n1c(C([NH-])=O)cc2ccc(N3CCCC3)cc21)C(=O)[O-] (protonated)
C[C@@H](OC(=O)n1c(C([NH-])=O)cc2ccc(N3CCCC3)cc21)C(=O)[O-] (chirality)
C[C@@H](OC(=O)n1c(C([NH-])=O)cc2ccc(N3CCCC3)cc21)C(=O)[O-] (3D coordinates assigned)
C[C@@H](OC(=O)n1c(C([NH-])=O)cc2ccc(N3CCCC3)cc21)C(=O)[O-] (nonaromatic ring conformer: 79.07327988397665 kcal/mol)

>  <smiles>  (50) 
CC(OC(=O)n1c(C(N)=O)cc2ccc(N3CCCC3)cc21)C(=O)O

>  <score_type>  (50) 
oracle

>  <origin>  (50) 
adg

>  <m_score__min__energy>  (50) 
-7.5099999999999998

>  <m_primary>  (50) 
energy

$$$$
50:0
     RDKit          3D

 40 41  0  0  0  0  0  0  0  0999 V2000
  147.4530  153.7360  134.3300 C   0  0  0  0  0  0  0  0  0  0  0  0
  148.4850  154.2010  133.3000 C   0  0  1  0  0  0  0  0  0  0  0  0
  149.0640  153.0720  132.5570 C   0  0  0  0  0  0  0  0  0  0  0  0
  149.5210  152.1830  131.9730 N   0  0  0  0  0  0  0  0  0  0  0  0
  147.9250  155.2060  132.3860 N   0  0  0  0  0  0  0  0  0  0  0  0
  147.7740  156.6200  132.6410 C   0  0  0  0  0  0  0  0  0  0  0  0
  148.8760  157.5190  132.6290 C   0  0  0  0  0  0  0  0  0  0  0  0
  148.6930  158.8850  132.9030 C   0  0  0  0  0  0  0  0  0  0  0  0
  147.4070  159.3300  133.1840 C   0  0  0  0  0  0  0  0  0  0  0  0
  146.9580  160.5890  133.5090 C   0  0  0  0  0  0  0  0  0  0  0  0
  145.5850  160.4520  133.7040 C   0  0  0  0  0  0  0  0  0  0  0  0
  144.6860  161.5880  133.9900 C   0  0  0  0  0  0  0  0  0  0  0  0
  143.2900  161.4720  133.7260 N   0  0  0  0  0  0  0  0  0  0  0  0
  145.1300  162.6500  134.5020 O   0  0  0  0  0  0  0  0  0  0  0  0
  145.2020  159.1580  133.5130 N   0  0  0  0  0  0  0  0  0  0  0  0
  143.8930  158.5950  133.6950 C   0  0  0  0  0  0  0  0  0  0  0  0
  143.3900  157.8690  132.7940 O   0  0  0  0  0  0  0  0  0  0  0  0
  143.1960  158.8290  134.8860 O   0  0  0  0  0  0  0  0  0  0  0  0
  141.8070  158.5450  135.0580 C   0  0  0  0  0  0  0  0  0  0  0  0
  140.9800  159.2800  133.9990 C   0  0  0  0  0  0  0  0  0  0  0  0
  141.3860  158.9790  136.4610 C   0  0  0  0  0  0  0  0  0  0  0  0
  146.3300  158.4840  133.1930 C   0  0  0  0  0  0  0  0  0  0  0  0
  146.4850  157.1160  132.9420 C   0  0  0  0  0  0  0  0  0  0  0  0
  147.8421  153.9113  135.3438 H   0  0  0  0  0  0  0  0  0  0  0  0
  146.5186  154.3001  134.1932 H   0  0  0  0  0  0  0  0  0  0  0  0
  147.2565  152.6624  134.1932 H   0  0  0  0  0  0  0  0  0  0  0  0
  149.3015  154.6795  133.8607 H   0  0  0  0  0  0  0  0  0  0  0  0
  147.6890  154.8650  131.4260 H   0  0  0  0  0  0  0  0  0  0  0  0
  149.8837  157.1404  132.4025 H   0  0  0  0  0  0  0  0  0  0  0  0
  149.5437  159.5823  132.8953 H   0  0  0  0  0  0  0  0  0  0  0  0
  147.5556  161.5084  133.5964 H   0  0  0  0  0  0  0  0  0  0  0  0
  142.8440  160.5360  133.5990 H   0  0  0  0  0  0  0  0  0  0  0  0
  141.6310  157.4658  134.9387 H   0  0  0  0  0  0  0  0  0  0  0  0
  140.2460  159.9323  134.4947 H   0  0  0  0  0  0  0  0  0  0  0  0
  141.6466  159.8891  133.3709 H   0  0  0  0  0  0  0  0  0  0  0  0
  140.4534  158.5464  133.3709 H   0  0  0  0  0  0  0  0  0  0  0  0
  141.9481  158.3996  137.2082 H   0  0  0  0  0  0  0  0  0  0  0  0
  141.5981  160.0503  136.5925 H   0  0  0  0  0  0  0  0  0  0  0  0
  140.3087  158.7996  136.5925 H   0  0  0  0  0  0  0  0  0  0  0  0
  145.6190  156.4386  132.9783 H   0  0  0  0  0  0  0  0  0  0  0  0
  1  2  1  0
  2  3  1  0
  3  4  3  0
  2  5  1  0
  5  6  1  0
  6  7  2  0
  7  8  1  0
  8  9  2  0
  9 10  1  0
 10 11  2  0
 11 12  1  0
 12 13  1  0
 12 14  2  0
 11 15  1  0
 15 16  1  0
 16 17  2  0
 16 18  1  0
 18 19  1  0
 19 20  1  0
 19 21  1  0
 15 22  1  0
 22 23  2  0
 23  6  1  0
 22  9  1  0
  1 24  1  0
  1 25  1  0
  1 26  1  0
  2 27  1  1
  5 28  1  0
  7 29  1  0
  8 30  1  0
 10 31  1  0
 13 32  1  0
 19 33  1  0
 20 34  1  0
 20 35  1  0
 20 36  1  0
 21 37  1  0
 21 38  1  0
 21 39  1  0
 23 40  1  0
M  CHG  1  13  -1
M  END
>  <UniqueID>  (51) 
51

>  <SMILES>  (51) 
CC(C)OC(=O)n1c(C([NH-])=O)cc2ccc(N[C@@H](C)C#N)cc21

>  <Energy>  (51) 
71.64211458790056

>  <Genealogy>  (51) 
CC(C#N)Nc1ccc2cc(C([NH-])=O)n(C(=O)OC(C)C)c2c1 (protonated)
CC(C)OC(=O)n1c(C([NH-])=O)cc2ccc(N[C@@H](C)C#N)cc21 (chirality)
CC(C)OC(=O)n1c(C([NH-])=O)cc2ccc(N[C@@H](C)C#N)cc21 (3D coordinates assigned)
CC(C)OC(=O)n1c(C([NH-])=O)cc2ccc(N[C@@H](C)C#N)cc21 (optimized conformer: 71.64211458790056 kcal/mol)

>  <smiles>  (51) 
CC(C#N)Nc1ccc2cc(C(N)=O)n(C(=O)OC(C)C)c2c1

>  <score_type>  (51) 
oracle

>  <origin>  (51) 
adg

>  <m_score__min__energy>  (51) 
-7.3200000000000003

>  <m_primary>  (51) 
energy

$$$$
51:0
     RDKit          3D

 37 38  0  0  0  0  0  0  0  0999 V2000
  149.6060  159.5930  132.1760 C   0  0  0  0  0  0  0  0  0  0  0  0
  148.3480  158.8950  132.5970 C   0  0  0  0  0  0  0  0  0  0  0  0
  147.1230  159.6050  132.6400 C   0  0  0  0  0  0  0  0  0  0  0  0
  145.9300  158.9520  132.9880 C   0  0  0  0  0  0  0  0  0  0  0  0
  145.9910  157.5930  133.2810 C   0  0  0  0  0  0  0  0  0  0  0  0
  144.9880  156.7160  133.6230 C   0  0  0  0  0  0  0  0  0  0  0  0
  145.6150  155.4830  133.7920 C   0  0  0  0  0  0  0  0  0  0  0  0
  144.9100  154.2720  134.2600 C   0  0  0  0  0  0  0  0  0  0  0  0
  145.5170  152.9920  134.0980 N   0  0  0  0  0  0  0  0  0  0  0  0
  143.7600  154.3490  134.7660 O   0  0  0  0  0  0  0  0  0  0  0  0
  146.9540  155.5910  133.5510 N   0  0  0  0  0  0  0  0  0  0  0  0
  147.9420  154.5470  133.5650 C   0  0  0  0  0  0  0  0  0  0  0  0
  148.3390  154.0650  134.6610 O   0  0  0  0  0  0  0  0  0  0  0  0
  148.4390  154.0500  132.3580 O   0  0  0  0  0  0  0  0  0  0  0  0
  149.6480  153.3050  132.2660 C   0  0  0  0  0  0  0  0  0  0  0  0
  149.4060  152.0000  131.5020 C   0  0  0  0  0  0  0  0  0  0  0  0
  148.3170  151.1160  132.1350 C   0  0  0  0  0  0  0  0  0  0  0  0
  147.2100  151.9020  132.6870 N   0  0  0  0  0  0  0  0  0  0  0  0
  147.1680  156.8890  133.2440 C   0  0  0  0  0  0  0  0  0  0  0  0
  148.3700  157.5130  132.8830 C   0  0  0  0  0  0  0  0  0  0  0  0
  150.1684  159.9051  133.0684 H   0  0  0  0  0  0  0  0  0  0  0  0
  150.2221  158.9077  131.5753 H   0  0  0  0  0  0  0  0  0  0  0  0
  149.3506  160.4784  131.5753 H   0  0  0  0  0  0  0  0  0  0  0  0
  147.1064  160.6780  132.3984 H   0  0  0  0  0  0  0  0  0  0  0  0
  144.9759  159.4980  133.0279 H   0  0  0  0  0  0  0  0  0  0  0  0
  143.9174  156.9405  133.7386 H   0  0  0  0  0  0  0  0  0  0  0  0
  146.5380  152.8560  134.2700 H   0  0  0  0  0  0  0  0  0  0  0  0
  150.4038  153.9024  131.7352 H   0  0  0  0  0  0  0  0  0  0  0  0
  150.0024  153.0678  133.2800 H   0  0  0  0  0  0  0  0  0  0  0  0
  149.1005  152.2484  130.4749 H   0  0  0  0  0  0  0  0  0  0  0  0
  150.3454  151.4283  131.5287 H   0  0  0  0  0  0  0  0  0  0  0  0
  147.9197  150.4389  131.3645 H   0  0  0  0  0  0  0  0  0  0  0  0
  148.7778  150.5579  132.9634 H   0  0  0  0  0  0  0  0  0  0  0  0
  146.4080  151.2790  132.9430 H   0  0  0  0  0  0  0  0  0  0  0  0
  147.5290  152.4390  133.5240 H   0  0  0  0  0  0  0  0  0  0  0  0
  146.8860  152.5850  131.9650 H   0  0  0  0  0  0  0  0  0  0  0  0
  149.3071  156.9400  132.8240 H   0  0  0  0  0  0  0  0  0  0  0  0
  1  2  1  0
  2  3  2  0
  3  4  1  0
  4  5  2  0
  5  6  1  0
  6  7  2  0
  7  8  1  0
  8  9  1  0
  8 10  2  0
  7 11  1  0
 11 12  1  0
 12 13  2  0
 12 14  1  0
 14 15  1  0
 15 16  1  0
 16 17  1  0
 17 18  1  0
 11 19  1  0
 19 20  2  0
 20  2  1  0
 19  5  1  0
  1 21  1  0
  1 22  1  0
  1 23  1  0
  3 24  1  0
  4 25  1  0
  6 26  1  0
  9 27  1  0
 15 28  1  0
 15 29  1  0
 16 30  1  0
 16 31  1  0
 17 32  1  0
 17 33  1  0
 18 34  1  0
 18 35  1  0
 18 36  1  0
 20 37  1  0
M  CHG  2   9  -1  18   1
M  END
>  <UniqueID>  (52) 
52

>  <SMILES>  (52) 
Cc1ccc2cc(C([NH-])=O)n(C(=O)OCCC[NH3+])c2c1

>  <Energy>  (52) 
68.53730216137237

>  <Genealogy>  (52) 
Cc1ccc2cc(C([NH-])=O)n(C(=O)OCCC[NH3+])c2c1 (protonated)
Cc1ccc2cc(C([NH-])=O)n(C(=O)OCCC[NH3+])c2c1 (3D coordinates assigned)
Cc1ccc2cc(C([NH-])=O)n(C(=O)OCCC[NH3+])c2c1 (optimized conformer: 68.53730216137237 kcal/mol)

>  <smiles>  (52) 
Cc1ccc2cc(C(N)=O)n(C(=O)OCCCN)c2c1

>  <score_type>  (52) 
oracle

>  <origin>  (52) 
adg

>  <m_score__min__energy>  (52) 
-6.3600000000000003

>  <m_primary>  (52) 
energy

$$$$
52:0
     RDKit          3D

 50 53  0  0  0  0  0  0  0  0999 V2000
  140.1380  157.3530  136.6530 C   0  0  0  0  0  0  0  0  0  0  0  0
  140.5190  158.4810  135.6770 C   0  0  1  0  0  0  0  0  0  0  0  0
  142.0000  158.3680  135.2670 C   0  0  0  0  0  0  0  0  0  0  0  0
  142.3800  159.4840  134.3910 N   0  0  0  0  0  0  0  0  0  0  0  0
  143.7640  159.6930  134.0620 C   0  0  0  0  0  0  0  0  0  0  0  0
  144.3160  160.9990  134.0910 C   0  0  0  0  0  0  0  0  0  0  0  0
  145.6580  161.2190  133.7410 C   0  0  0  0  0  0  0  0  0  0  0  0
  146.4190  160.1210  133.3520 C   0  0  0  0  0  0  0  0  0  0  0  0
  147.7440  160.0460  132.9880 C   0  0  0  0  0  0  0  0  0  0  0  0
  147.9740  158.7010  132.7160 C   0  0  0  0  0  0  0  0  0  0  0  0
  149.2760  158.1750  132.2540 C   0  0  0  0  0  0  0  0  0  0  0  0
  149.5520  156.7730  132.2360 N   0  0  0  0  0  0  0  0  0  0  0  0
  150.1440  158.9780  131.8190 O   0  0  0  0  0  0  0  0  0  0  0  0
  146.8410  157.9710  132.9080 N   0  0  0  0  0  0  0  0  0  0  0  0
  146.7080  156.5420  132.8330 C   0  0  0  0  0  0  0  0  0  0  0  0
  146.8320  155.9650  131.7200 O   0  0  0  0  0  0  0  0  0  0  0  0
  146.3860  155.7490  134.0270 C   0  0  0  0  0  0  0  0  0  0  0  0
  145.1320  155.4450  134.4130 N   0  0  0  0  0  0  0  0  0  0  0  0
  145.3620  154.7340  135.5370 C   0  0  0  0  0  0  0  0  0  0  0  0
  146.6770  154.6200  135.8110 N   0  0  0  0  0  0  0  0  0  0  0  0
  147.2770  155.2630  134.8570 O   0  0  0  0  0  0  0  0  0  0  0  0
  145.8980  158.8540  133.3020 C   0  0  0  0  0  0  0  0  0  0  0  0
  144.5750  158.6010  133.6810 C   0  0  0  0  0  0  0  0  0  0  0  0
  141.3310  160.3310  133.8120 C   0  0  0  0  0  0  0  0  0  0  0  0
  140.1520  159.4450  133.3590 C   0  0  1  0  0  0  0  0  0  0  0  0
  140.5890  158.6080  132.1330 C   0  0  0  0  0  0  0  0  0  0  0  0
  139.6120  158.6270  134.4940 N   0  0  0  0  0  0  0  0  0  0  0  0
  138.8750  157.4140  134.0810 C   0  0  0  0  0  0  0  0  0  0  0  0
  140.2577  157.7072  137.6875 H   0  0  0  0  0  0  0  0  0  0  0  0
  139.0911  157.0603  136.4844 H   0  0  0  0  0  0  0  0  0  0  0  0
  140.7930  156.4855  136.4844 H   0  0  0  0  0  0  0  0  0  0  0  0
  140.3760  159.4181  136.2350 H   0  0  0  0  0  0  0  0  0  0  0  0
  142.1558  157.4194  134.7323 H   0  0  0  0  0  0  0  0  0  0  0  0
  142.6225  158.4004  136.1733 H   0  0  0  0  0  0  0  0  0  0  0  0
  143.6858  161.8492  134.3910 H   0  0  0  0  0  0  0  0  0  0  0  0
  146.0942  162.2283  133.7734 H   0  0  0  0  0  0  0  0  0  0  0  0
  148.4669  160.8728  132.9255 H   0  0  0  0  0  0  0  0  0  0  0  0
  148.8000  156.0700  132.4110 H   0  0  0  0  0  0  0  0  0  0  0  0
  150.4930  156.4300  131.9410 H   0  0  0  0  0  0  0  0  0  0  0  0
  144.5667  154.2972  136.1588 H   0  0  0  0  0  0  0  0  0  0  0  0
  144.1759  157.5759  133.6822 H   0  0  0  0  0  0  0  0  0  0  0  0
  141.7350  160.8759  132.9460 H   0  0  0  0  0  0  0  0  0  0  0  0
  140.9817  161.0518  134.5659 H   0  0  0  0  0  0  0  0  0  0  0  0
  139.3078  160.0747  133.0415 H   0  0  0  0  0  0  0  0  0  0  0  0
  141.0728  157.6813  132.4753 H   0  0  0  0  0  0  0  0  0  0  0  0
  139.7063  158.3582  131.5261 H   0  0  0  0  0  0  0  0  0  0  0  0
  141.2986  159.1895  131.5261 H   0  0  0  0  0  0  0  0  0  0  0  0
  138.5417  156.8655  134.9743 H   0  0  0  0  0  0  0  0  0  0  0  0
  137.9998  157.7033  133.4807 H   0  0  0  0  0  0  0  0  0  0  0  0
  139.5350  156.7706  133.4807 H   0  0  0  0  0  0  0  0  0  0  0  0
  1  2  1  0
  2  3  1  0
  3  4  1  0
  4  5  1  0
  5  6  2  0
  6  7  1  0
  7  8  2  0
  8  9  1  0
  9 10  2  0
 10 11  1  0
 11 12  1  0
 11 13  2  0
 10 14  1  0
 14 15  1  0
 15 16  2  0
 15 17  1  0
 17 18  2  0
 18 19  1  0
 19 20  2  0
 20 21  1  0
 14 22  1  0
 22 23  2  0
  4 24  1  0
 24 25  1  0
 25 26  1  0
 25 27  1  0
 27 28  1  0
 27  2  1  0
 23  5  1  0
 22  8  1  0
 21 17  1  0
  1 29  1  0
  1 30  1  0
  1 31  1  0
  2 32  1  1
  3 33  1  0
  3 34  1  0
  6 35  1  0
  7 36  1  0
  9 37  1  0
 12 38  1  0
 12 39  1  0
 19 40  1  0
 23 41  1  0
 24 42  1  0
 24 43  1  0
 25 44  1  6
 26 45  1  0
 26 46  1  0
 26 47  1  0
 28 48  1  0
 28 49  1  0
 28 50  1  0
M  END
>  <UniqueID>  (53) 
53

>  <SMILES>  (53) 
C[C@@H]1CN(c2ccc3cc(C(N)=O)n(C(=O)c4ncno4)c3c2)C[C@H](C)N1C

>  <Energy>  (53) 
145.18230959322491

>  <Genealogy>  (53) 
C[C@@H]1CN(c2ccc3cc(C(N)=O)n(C(=O)c4ncno4)c3c2)C[C@H](C)N1C (chirality)
C[C@@H]1CN(c2ccc3cc(C(N)=O)n(C(=O)c4ncno4)c3c2)C[C@H](C)N1C (3D coordinates assigned)
C[C@@H]1CN(c2ccc3cc(C(N)=O)n(C(=O)c4ncno4)c3c2)C[C@H](C)N1C (nonaromatic ring conformer: 145.18230959322491 kcal/mol)

>  <smiles>  (53) 
CC1CN(c2ccc3cc(C(N)=O)n(C(=O)c4ncno4)c3c2)CC(C)N1C

>  <score_type>  (53) 
oracle

>  <origin>  (53) 
adg

>  <m_score__min__energy>  (53) 
-8.6500000000000004

>  <m_primary>  (53) 
energy

$$$$
53:0
     RDKit          3D

 45 47  0  0  0  0  0  0  0  0999 V2000
  145.8480  160.3970  133.4210 N   0  0  0  0  0  0  0  0  0  0  0  0
  144.9280  159.3410  133.6810 C   0  0  0  0  0  0  0  0  0  0  0  0
  143.7980  159.6140  134.1650 O   0  0  0  0  0  0  0  0  0  0  0  0
  145.3050  157.9320  133.4520 C   0  0  0  0  0  0  0  0  0  0  0  0
  144.3860  156.8860  133.4840 C   0  0  0  0  0  0  0  0  0  0  0  0
  145.1290  155.7420  133.3110 C   0  0  0  0  0  0  0  0  0  0  0  0
  144.7210  154.4130  133.2420 C   0  0  0  0  0  0  0  0  0  0  0  0
  145.7020  153.4330  133.0170 C   0  0  0  0  0  0  0  0  0  0  0  0
  147.0650  153.7950  132.8620 C   0  0  0  0  0  0  0  0  0  0  0  0
  148.0610  152.7870  132.6080 N   0  0  0  0  0  0  0  0  0  0  0  0
  147.6630  151.4230  132.2310 C   0  0  0  0  0  0  0  0  0  0  0  0
  148.6130  150.3710  132.8500 C   0  0  0  0  0  0  0  0  0  0  0  0
  149.7610  150.9290  133.4690 O   0  0  0  0  0  0  0  0  0  0  0  0
  150.3520  151.8890  132.6200 C   0  0  0  0  0  0  0  0  0  0  0  0
  149.4840  153.1480  132.5950 C   0  0  0  0  0  0  0  0  0  0  0  0
  147.4380  155.1560  132.9310 C   0  0  0  0  0  0  0  0  0  0  0  0
  146.4430  156.1100  133.1770 C   0  0  0  0  0  0  0  0  0  0  0  0
  146.5690  157.4550  133.2590 N   0  0  0  0  0  0  0  0  0  0  0  0
  147.7790  158.2090  133.0630 C   0  0  0  0  0  0  0  0  0  0  0  0
  148.3430  158.7590  134.0480 O   0  0  0  0  0  0  0  0  0  0  0  0
  148.3700  158.2890  131.7610 N   0  0  0  0  0  0  0  0  0  0  0  0
  149.7300  158.7540  131.5040 C   0  0  0  0  0  0  0  0  0  0  0  0
  149.7410  160.0260  130.6430 C   0  0  0  0  0  0  0  0  0  0  0  0
  148.4880  160.8940  130.8160 C   0  0  0  0  0  0  0  0  0  0  0  0
  148.2060  161.1060  132.1730 O   0  0  0  0  0  0  0  0  0  0  0  0
  146.8740  160.2600  133.5520 H   0  0  0  0  0  0  0  0  0  0  0  0
  143.2968  156.9595  133.6190 H   0  0  0  0  0  0  0  0  0  0  0  0
  143.6624  154.1384  133.3601 H   0  0  0  0  0  0  0  0  0  0  0  0
  145.4103  152.3739  132.9604 H   0  0  0  0  0  0  0  0  0  0  0  0
  146.6395  151.2363  132.5883 H   0  0  0  0  0  0  0  0  0  0  0  0
  147.7137  151.3359  131.1356 H   0  0  0  0  0  0  0  0  0  0  0  0
  148.0536  149.8013  133.6066 H   0  0  0  0  0  0  0  0  0  0  0  0
  148.9704  149.7376  132.0247 H   0  0  0  0  0  0  0  0  0  0  0  0
  151.3549  152.1421  132.9943 H   0  0  0  0  0  0  0  0  0  0  0  0
  150.4340  151.4789  131.6026 H   0  0  0  0  0  0  0  0  0  0  0  0
  149.7105  153.7623  133.4789 H   0  0  0  0  0  0  0  0  0  0  0  0
  149.7009  153.7136  131.6769 H   0  0  0  0  0  0  0  0  0  0  0  0
  148.4865  155.4594  132.7945 H   0  0  0  0  0  0  0  0  0  0  0  0
  150.2209  158.9692  132.4646 H   0  0  0  0  0  0  0  0  0  0  0  0
  150.2653  157.9642  130.9567 H   0  0  0  0  0  0  0  0  0  0  0  0
  150.6207  160.6258  130.9195 H   0  0  0  0  0  0  0  0  0  0  0  0
  149.7685  159.7042  129.5915 H   0  0  0  0  0  0  0  0  0  0  0  0
  148.6532  161.8654  130.3271 H   0  0  0  0  0  0  0  0  0  0  0  0
  147.6347  160.3720  130.3585 H   0  0  0  0  0  0  0  0  0  0  0  0
  147.8140  160.2610  132.5170 H   0  0  0  0  0  0  0  0  0  0  0  0
  1  2  1  0
  2  3  2  0
  2  4  1  0
  4  5  2  0
  5  6  1  0
  6  7  2  0
  7  8  1  0
  8  9  2  0
  9 10  1  0
 10 11  1  0
 11 12  1  0
 12 13  1  0
 13 14  1  0
 14 15  1  0
  9 16  1  0
 16 17  2  0
 17 18  1  0
 18 19  1  0
 19 20  2  0
 19 21  1  0
 21 22  1  0
 22 23  1  0
 23 24  1  0
 24 25  1  0
 18  4  1  0
 17  6  1  0
 15 10  1  0
  1 26  1  0
  5 27  1  0
  7 28  1  0
  8 29  1  0
 11 30  1  0
 11 31  1  0
 12 32  1  0
 12 33  1  0
 14 34  1  0
 14 35  1  0
 15 36  1  0
 15 37  1  0
 16 38  1  0
 22 39  1  0
 22 40  1  0
 23 41  1  0
 23 42  1  0
 24 43  1  0
 24 44  1  0
 25 45  1  0
M  CHG  2   1  -1  21  -1
M  END
>  <UniqueID>  (54) 
54

>  <SMILES>  (54) 
[NH-]C(=O)c1cc2ccc(N3CCOCC3)cc2n1C(=O)[N-]CCCO

>  <Energy>  (54) 
92.5853976233087

>  <Genealogy>  (54) 
[NH-]C(=O)c1cc2ccc(N3CCOCC3)cc2n1C(=O)[N-]CCCO (protonated)
[NH-]C(=O)c1cc2ccc(N3CCOCC3)cc2n1C(=O)[N-]CCCO (3D coordinates assigned)
[NH-]C(=O)c1cc2ccc(N3CCOCC3)cc2n1C(=O)[N-]CCCO (nonaromatic ring conformer: 92.5853976233087 kcal/mol)

>  <smiles>  (54) 
NC(=O)c1cc2ccc(N3CCOCC3)cc2n1C(=O)NCCCO

>  <score_type>  (54) 
oracle

>  <origin>  (54) 
adg

>  <m_score__min__energy>  (54) 
-6.9400000000000004

>  <m_primary>  (54) 
energy

$$$$
54:0
     RDKit          3D

 40 42  0  0  0  0  0  0  0  0999 V2000
  138.3330  149.2230  129.7650 C   0  0  0  0  0  0  0  0  0  0  0  0
  139.4420  149.3620  130.7590 C   0  0  0  0  0  0  0  0  0  0  0  0
  139.9230  148.2420  131.4450 C   0  0  0  0  0  0  0  0  0  0  0  0
  140.9620  148.3980  132.3630 C   0  0  0  0  0  0  0  0  0  0  0  0
  141.5110  149.6630  132.5850 C   0  0  0  0  0  0  0  0  0  0  0  0
  141.0090  150.7680  131.8820 C   0  0  0  0  0  0  0  0  0  0  0  0
  141.5750  152.0720  132.1000 N   0  0  0  0  0  0  0  0  0  0  0  0
  141.5070  152.7860  133.3480 C   0  0  0  0  0  0  0  0  0  0  0  0
  140.9950  152.2470  134.3670 O   0  0  0  0  0  0  0  0  0  0  0  0
  142.0520  154.1530  133.4580 C   0  0  0  0  0  0  0  0  0  0  0  0
  142.9440  154.5410  132.6570 O   0  0  0  0  0  0  0  0  0  0  0  0
  141.5780  155.0490  134.4770 N   0  0  0  0  0  0  0  0  0  0  0  0
  141.8150  154.9820  135.8170 C   0  0  0  0  0  0  0  0  0  0  0  0
  142.5430  153.9000  136.5120 C   0  0  0  0  0  0  0  0  0  0  0  0
  143.9520  154.0010  136.7050 N   0  0  0  0  0  0  0  0  0  0  0  0
  141.9300  152.8930  136.9550 O   0  0  0  0  0  0  0  0  0  0  0  0
  141.2280  156.0660  136.4680 C   0  0  0  0  0  0  0  0  0  0  0  0
  140.6230  156.8050  135.4750 C   0  0  0  0  0  0  0  0  0  0  0  0
  139.8970  157.9890  135.5540 C   0  0  0  0  0  0  0  0  0  0  0  0
  139.4050  158.5410  134.3600 C   0  0  0  0  0  0  0  0  0  0  0  0
  139.6680  157.9210  133.1100 C   0  0  0  0  0  0  0  0  0  0  0  0
  139.1020  158.5010  131.8400 C   0  0  0  0  0  0  0  0  0  0  0  0
  140.0500  159.2670  131.1860 F   0  0  0  0  0  0  0  0  0  0  0  0
  138.0130  159.2970  132.1490 F   0  0  0  0  0  0  0  0  0  0  0  0
  138.6940  157.4940  130.9820 F   0  0  0  0  0  0  0  0  0  0  0  0
  140.3930  156.7060  133.0750 C   0  0  0  0  0  0  0  0  0  0  0  0
  140.8530  156.1710  134.2830 C   0  0  0  0  0  0  0  0  0  0  0  0
  139.9940  150.5850  130.9910 N   0  0  0  0  0  0  0  0  0  0  0  0
  137.3773  149.1032  130.2963 H   0  0  0  0  0  0  0  0  0  0  0  0
  138.2914  150.1230  129.1338 H   0  0  0  0  0  0  0  0  0  0  0  0
  138.5147  148.3406  129.1338 H   0  0  0  0  0  0  0  0  0  0  0  0
  139.4868  147.2488  131.2627 H   0  0  0  0  0  0  0  0  0  0  0  0
  141.3483  147.5260  132.9111 H   0  0  0  0  0  0  0  0  0  0  0  0
  142.3315  149.7917  133.3063 H   0  0  0  0  0  0  0  0  0  0  0  0
  142.0570  152.5330  131.2950 H   0  0  0  0  0  0  0  0  0  0  0  0
  144.3760  154.8620  137.1150 H   0  0  0  0  0  0  0  0  0  0  0  0
  141.2444  156.2849  137.5459 H   0  0  0  0  0  0  0  0  0  0  0  0
  139.7139  158.4780  136.5222 H   0  0  0  0  0  0  0  0  0  0  0  0
  138.8087  159.4648  134.3936 H   0  0  0  0  0  0  0  0  0  0  0  0
  140.5900  156.1948  132.1211 H   0  0  0  0  0  0  0  0  0  0  0  0
  1  2  1  0
  2  3  2  0
  3  4  1  0
  4  5  2  0
  5  6  1  0
  6  7  1  0
  7  8  1  0
  8  9  2  0
  8 10  1  0
 10 11  2  0
 10 12  1  0
 12 13  1  0
 13 14  1  0
 14 15  1  0
 14 16  2  0
 13 17  2  0
 17 18  1  0
 18 19  2  0
 19 20  1  0
 20 21  2  0
 21 22  1  0
 22 23  1  0
 22 24  1  0
 22 25  1  0
 21 26  1  0
 26 27  2  0
  6 28  2  0
 28  2  1  0
 27 12  1  0
 27 18  1  0
  1 29  1  0
  1 30  1  0
  1 31  1  0
  3 32  1  0
  4 33  1  0
  5 34  1  0
  7 35  1  0
 15 36  1  0
 17 37  1  0
 19 38  1  0
 20 39  1  0
 26 40  1  0
M  CHG  1  15  -1
M  END
>  <UniqueID>  (55) 
55

>  <SMILES>  (55) 
Cc1cccc(NC(=O)C(=O)n2c(C([NH-])=O)cc3ccc(C(F)(F)F)cc32)n1

>  <Energy>  (55) 
82.29115114329059

>  <Genealogy>  (55) 
Cc1cccc(NC(=O)C(=O)n2c(C([NH-])=O)cc3ccc(C(F)(F)F)cc32)n1 (protonated)
Cc1cccc(NC(=O)C(=O)n2c(C([NH-])=O)cc3ccc(C(F)(F)F)cc32)n1 (3D coordinates assigned)
Cc1cccc(NC(=O)C(=O)n2c(C([NH-])=O)cc3ccc(C(F)(F)F)cc32)n1 (optimized conformer: 82.29115114329059 kcal/mol)

>  <smiles>  (55) 
Cc1cccc(NC(=O)C(=O)n2c(C(N)=O)cc3ccc(C(F)(F)F)cc32)n1

>  <score_type>  (55) 
oracle

>  <origin>  (55) 
adg

>  <m_score__min__energy>  (55) 
-8.1300000000000008

>  <m_primary>  (55) 
energy

$$$$
55:0
     RDKit          3D

 39 41  0  0  0  0  0  0  0  0999 V2000
  149.6150  150.1560  132.0390 C   0  0  0  0  0  0  0  0  0  0  0  0
  149.2950  151.5760  132.3760 C   0  0  0  0  0  0  0  0  0  0  0  0
  150.2290  152.5230  132.5860 N   0  0  0  0  0  0  0  0  0  0  0  0
  149.5960  153.6390  132.8060 O   0  0  0  0  0  0  0  0  0  0  0  0
  148.2930  153.4760  132.7490 C   0  0  0  0  0  0  0  0  0  0  0  0
  147.3290  154.5760  132.9630 C   0  0  0  0  0  0  0  0  0  0  0  0
  145.9360  154.3300  133.0640 C   0  0  0  0  0  0  0  0  0  0  0  0
  145.0340  155.3880  133.2620 C   0  0  0  0  0  0  0  0  0  0  0  0
  145.5510  156.6730  133.3860 C   0  0  0  0  0  0  0  0  0  0  0  0
  144.9000  157.8770  133.5300 C   0  0  0  0  0  0  0  0  0  0  0  0
  145.9090  158.8360  133.5730 C   0  0  0  0  0  0  0  0  0  0  0  0
  145.6510  160.2830  133.7190 C   0  0  0  0  0  0  0  0  0  0  0  0
  146.7140  161.2350  133.6930 N   0  0  0  0  0  0  0  0  0  0  0  0
  144.4720  160.6830  133.9180 O   0  0  0  0  0  0  0  0  0  0  0  0
  147.1350  158.2510  133.4610 N   0  0  0  0  0  0  0  0  0  0  0  0
  148.4040  158.9150  133.3340 C   0  0  0  0  0  0  0  0  0  0  0  0
  148.8380  159.6150  134.2880 O   0  0  0  0  0  0  0  0  0  0  0  0
  149.2200  158.7860  132.0800 C   0  0  0  0  0  0  0  0  0  0  0  0
  149.2160  160.0690  131.3120 C   0  0  0  0  0  0  0  0  0  0  0  0
  148.5300  161.0450  131.7130 O   0  0  0  0  0  0  0  0  0  0  0  0
  149.9400  160.1760  130.1310 O   0  0  0  0  0  0  0  0  0  0  0  0
  146.8970  156.9260  133.3370 C   0  0  0  0  0  0  0  0  0  0  0  0
  147.8160  155.8950  133.1070 C   0  0  0  0  0  0  0  0  0  0  0  0
  148.0390  152.1460  132.4480 C   0  0  0  0  0  0  0  0  0  0  0  0
  146.7240  151.4670  132.2130 C   0  0  0  0  0  0  0  0  0  0  0  0
  149.7450  149.5793  132.9667 H   0  0  0  0  0  0  0  0  0  0  0  0
  148.7917  149.7242  131.4511 H   0  0  0  0  0  0  0  0  0  0  0  0
  150.5440  150.1191  131.4511 H   0  0  0  0  0  0  0  0  0  0  0  0
  145.5581  153.2999  132.9864 H   0  0  0  0  0  0  0  0  0  0  0  0
  143.9506  155.2057  133.3174 H   0  0  0  0  0  0  0  0  0  0  0  0
  143.8151  158.0457  133.5968 H   0  0  0  0  0  0  0  0  0  0  0  0
  147.7110  160.9320  133.7310 H   0  0  0  0  0  0  0  0  0  0  0  0
  146.5040  162.2570  133.7400 H   0  0  0  0  0  0  0  0  0  0  0  0
  150.2554  158.5288  132.3479 H   0  0  0  0  0  0  0  0  0  0  0  0
  148.7808  157.9968  131.4521 H   0  0  0  0  0  0  0  0  0  0  0  0
  148.8933  156.1069  133.0398 H   0  0  0  0  0  0  0  0  0  0  0  0
  146.2577  151.2262  133.1798 H   0  0  0  0  0  0  0  0  0  0  0  0
  146.0624  152.1362  131.6434 H   0  0  0  0  0  0  0  0  0  0  0  0
  146.8866  150.5401  131.6434 H   0  0  0  0  0  0  0  0  0  0  0  0
  1  2  1  0
  2  3  2  0
  3  4  1  0
  4  5  1  0
  5  6  1  0
  6  7  2  0
  7  8  1  0
  8  9  2  0
  9 10  1  0
 10 11  2  0
 11 12  1  0
 12 13  1  0
 12 14  2  0
 11 15  1  0
 15 16  1  0
 16 17  2  0
 16 18  1  0
 18 19  1  0
 19 20  2  0
 19 21  1  0
 15 22  1  0
 22 23  2  0
  5 24  2  0
 24 25  1  0
 24  2  1  0
 23  6  1  0
 22  9  1  0
  1 26  1  0
  1 27  1  0
  1 28  1  0
  7 29  1  0
  8 30  1  0
 10 31  1  0
 13 32  1  0
 13 33  1  0
 18 34  1  0
 18 35  1  0
 23 36  1  0
 25 37  1  0
 25 38  1  0
 25 39  1  0
M  CHG  1  21  -1
M  END
>  <UniqueID>  (56) 
56

>  <SMILES>  (56) 
Cc1noc(-c2ccc3cc(C(N)=O)n(C(=O)CC(=O)[O-])c3c2)c1C

>  <Energy>  (56) 
112.51063815667801

>  <Genealogy>  (56) 
Cc1noc(-c2ccc3cc(C(N)=O)n(C(=O)CC(=O)[O-])c3c2)c1C (protonated)
Cc1noc(-c2ccc3cc(C(N)=O)n(C(=O)CC(=O)[O-])c3c2)c1C (3D coordinates assigned)
Cc1noc(-c2ccc3cc(C(N)=O)n(C(=O)CC(=O)[O-])c3c2)c1C (optimized conformer: 112.51063815667801 kcal/mol)

>  <smiles>  (56) 
Cc1noc(-c2ccc3cc(C(N)=O)n(C(=O)CC(=O)O)c3c2)c1C

>  <score_type>  (56) 
oracle

>  <origin>  (56) 
adg

>  <m_score__min__energy>  (56) 
-8.1199999999999992

>  <m_primary>  (56) 
energy

$$$$
56:0
     RDKit          3D

 35 37  0  0  0  0  0  0  0  0999 V2000
  149.9670  152.0760  132.3980 C   0  0  0  0  0  0  0  0  0  0  0  0
  148.9500  153.1450  132.6120 C   0  0  0  0  0  0  0  0  0  0  0  0
  147.6570  152.8980  132.8940 N   0  0  0  0  0  0  0  0  0  0  0  0
  147.1260  154.0700  133.0630 O   0  0  0  0  0  0  0  0  0  0  0  0
  148.0390  154.9990  132.9080 C   0  0  0  0  0  0  0  0  0  0  0  0
  147.7830  156.4460  133.0330 C   0  0  0  0  0  0  0  0  0  0  0  0
  148.8530  157.3680  132.9090 C   0  0  0  0  0  0  0  0  0  0  0  0
  148.6260  158.7500  133.0130 C   0  0  0  0  0  0  0  0  0  0  0  0
  147.3240  159.1820  133.2500 C   0  0  0  0  0  0  0  0  0  0  0  0
  146.8210  160.4570  133.3650 C   0  0  0  0  0  0  0  0  0  0  0  0
  145.4540  160.2970  133.5820 C   0  0  0  0  0  0  0  0  0  0  0  0
  144.5360  161.4240  133.8460 C   0  0  0  0  0  0  0  0  0  0  0  0
  143.1250  161.2620  133.7340 N   0  0  0  0  0  0  0  0  0  0  0  0
  145.0000  162.5330  134.2230 O   0  0  0  0  0  0  0  0  0  0  0  0
  145.1230  158.9750  133.5940 N   0  0  0  0  0  0  0  0  0  0  0  0
  143.8110  158.4000  133.6880 C   0  0  0  0  0  0  0  0  0  0  0  0
  143.2910  157.8490  132.6790 O   0  0  0  0  0  0  0  0  0  0  0  0
  143.1070  158.4720  134.8960 O   0  0  0  0  0  0  0  0  0  0  0  0
  141.8580  157.8210  135.1150 C   0  0  0  0  0  0  0  0  0  0  0  0
  140.8740  158.7720  135.7170 C   0  0  0  0  0  0  0  0  0  0  0  0
  141.0540  160.0150  135.6250 O   0  0  0  0  0  0  0  0  0  0  0  0
  139.7690  158.2850  136.4040 O   0  0  0  0  0  0  0  0  0  0  0  0
  146.2790  158.3040  133.3900 C   0  0  0  0  0  0  0  0  0  0  0  0
  146.4740  156.9230  133.2720 C   0  0  0  0  0  0  0  0  0  0  0  0
  149.2430  154.4620  132.6220 N   0  0  0  0  0  0  0  0  0  0  0  0
  150.3197  151.7053  133.3717 H   0  0  0  0  0  0  0  0  0  0  0  0
  149.5151  151.2480  131.8322 H   0  0  0  0  0  0  0  0  0  0  0  0
  150.8165  152.4861  131.8322 H   0  0  0  0  0  0  0  0  0  0  0  0
  149.8727  156.9965  132.7293 H   0  0  0  0  0  0  0  0  0  0  0  0
  149.4519  159.4693  132.9103 H   0  0  0  0  0  0  0  0  0  0  0  0
  147.3795  161.4024  133.2996 H   0  0  0  0  0  0  0  0  0  0  0  0
  142.6350  160.4700  134.2060 H   0  0  0  0  0  0  0  0  0  0  0  0
  141.4669  157.4543  134.1545 H   0  0  0  0  0  0  0  0  0  0  0  0
  142.0104  156.9794  135.8067 H   0  0  0  0  0  0  0  0  0  0  0  0
  145.6285  156.2253  133.3631 H   0  0  0  0  0  0  0  0  0  0  0  0
  1  2  1  0
  2  3  2  0
  3  4  1  0
  4  5  1  0
  5  6  1  0
  6  7  2  0
  7  8  1  0
  8  9  2  0
  9 10  1  0
 10 11  2  0
 11 12  1  0
 12 13  1  0
 12 14  2  0
 11 15  1  0
 15 16  1  0
 16 17  2  0
 16 18  1  0
 18 19  1  0
 19 20  1  0
 20 21  2  0
 20 22  1  0
 15 23  1  0
 23 24  2  0
  5 25  2  0
 25  2  1  0
 24  6  1  0
 23  9  1  0
  1 26  1  0
  1 27  1  0
  1 28  1  0
  7 29  1  0
  8 30  1  0
 10 31  1  0
 13 32  1  0
 19 33  1  0
 19 34  1  0
 24 35  1  0
M  CHG  2  13  -1  22  -1
M  END
>  <UniqueID>  (57) 
57

>  <SMILES>  (57) 
Cc1noc(-c2ccc3cc(C([NH-])=O)n(C(=O)OCC(=O)[O-])c3c2)n1

>  <Energy>  (57) 
105.97557886571367

>  <Genealogy>  (57) 
Cc1noc(-c2ccc3cc(C([NH-])=O)n(C(=O)OCC(=O)[O-])c3c2)n1 (protonated)
Cc1noc(-c2ccc3cc(C([NH-])=O)n(C(=O)OCC(=O)[O-])c3c2)n1 (3D coordinates assigned)
Cc1noc(-c2ccc3cc(C([NH-])=O)n(C(=O)OCC(=O)[O-])c3c2)n1 (optimized conformer: 105.97557886571367 kcal/mol)

>  <smiles>  (57) 
Cc1noc(-c2ccc3cc(C(N)=O)n(C(=O)OCC(=O)O)c3c2)n1

>  <score_type>  (57) 
oracle

>  <origin>  (57) 
adg

>  <m_score__min__energy>  (57) 
-7.2800000000000002

>  <m_primary>  (57) 
energy

$$$$
57:0
     RDKit          3D

 42 43  0  0  0  0  0  0  0  0999 V2000
  143.1370  154.2710  136.2570 C   0  0  0  0  0  0  0  0  0  0  0  0
  142.8890  155.1050  135.0800 N   0  0  0  0  0  0  0  0  0  0  0  0
  144.0020  155.6480  134.3440 C   0  0  0  0  0  0  0  0  0  0  0  0
  145.1760  155.3270  134.6730 O   0  0  0  0  0  0  0  0  0  0  0  0
  143.8120  156.5770  133.2100 C   0  0  0  0  0  0  0  0  0  0  0  0
  143.5930  156.1090  132.0610 O   0  0  0  0  0  0  0  0  0  0  0  0
  143.8080  158.0010  133.4040 N   0  0  0  0  0  0  0  0  0  0  0  0
  142.7330  158.8180  133.5990 C   0  0  0  0  0  0  0  0  0  0  0  0
  141.3130  158.4020  133.5840 C   0  0  0  0  0  0  0  0  0  0  0  0
  140.8630  157.4600  132.6140 N   0  0  0  0  0  0  0  0  0  0  0  0
  140.4950  158.8600  134.4230 O   0  0  0  0  0  0  0  0  0  0  0  0
  143.1500  160.1360  133.7720 C   0  0  0  0  0  0  0  0  0  0  0  0
  144.5220  160.1020  133.6880 C   0  0  0  0  0  0  0  0  0  0  0  0
  145.4530  161.1280  133.8030 C   0  0  0  0  0  0  0  0  0  0  0  0
  146.8150  160.7980  133.6960 C   0  0  0  0  0  0  0  0  0  0  0  0
  147.2220  159.4560  133.4710 C   0  0  0  0  0  0  0  0  0  0  0  0
  148.6890  159.1130  133.4300 C   0  0  0  0  0  0  0  0  0  0  0  0
  149.3540  160.0480  132.6560 F   0  0  0  0  0  0  0  0  0  0  0  0
  148.8750  157.8560  132.8800 F   0  0  0  0  0  0  0  0  0  0  0  0
  149.2330  159.1140  134.7030 F   0  0  0  0  0  0  0  0  0  0  0  0
  146.2440  158.4380  133.3860 C   0  0  0  0  0  0  0  0  0  0  0  0
  144.8950  158.8010  133.4740 C   0  0  0  0  0  0  0  0  0  0  0  0
  141.5400  155.2230  134.5910 C   0  0  0  0  0  0  0  0  0  0  0  0
  140.6870  155.8290  135.2940 O   0  0  0  0  0  0  0  0  0  0  0  0
  141.1840  154.8060  133.2510 N   0  0  0  0  0  0  0  0  0  0  0  0
  139.7280  154.7920  133.0290 C   0  0  0  0  0  0  0  0  0  0  0  0
  141.7540  153.4770  132.9800 C   0  0  0  0  0  0  0  0  0  0  0  0
  142.9614  154.8614  137.1683 H   0  0  0  0  0  0  0  0  0  0  0  0
  142.4571  153.4064  136.2436 H   0  0  0  0  0  0  0  0  0  0  0  0
  144.1789  153.9184  136.2436 H   0  0  0  0  0  0  0  0  0  0  0  0
  141.5060  156.7290  132.2370 H   0  0  0  0  0  0  0  0  0  0  0  0
  142.5151  161.0184  133.9404 H   0  0  0  0  0  0  0  0  0  0  0  0
  145.1333  162.1668  133.9726 H   0  0  0  0  0  0  0  0  0  0  0  0
  147.5746  161.5883  133.7876 H   0  0  0  0  0  0  0  0  0  0  0  0
  146.5365  157.3859  133.2539 H   0  0  0  0  0  0  0  0  0  0  0  0
  141.6020  155.4860  132.5720 H   0  0  0  0  0  0  0  0  0  0  0  0
  139.2092  154.7870  133.9990 H   0  0  0  0  0  0  0  0  0  0  0  0
  139.4351  155.6874  132.4611 H   0  0  0  0  0  0  0  0  0  0  0  0
  139.4523  153.8912  132.4611 H   0  0  0  0  0  0  0  0  0  0  0  0
  141.9714  152.9702  133.9318 H   0  0  0  0  0  0  0  0  0  0  0  0
  141.0330  152.8796  132.4028 H   0  0  0  0  0  0  0  0  0  0  0  0
  142.6838  153.5876  132.4028 H   0  0  0  0  0  0  0  0  0  0  0  0
  1  2  1  0
  2  3  1  0
  3  4  2  0
  3  5  1  0
  5  6  2  0
  5  7  1  0
  7  8  1  0
  8  9  1  0
  9 10  1  0
  9 11  2  0
  8 12  2  0
 12 13  1  0
 13 14  2  0
 14 15  1  0
 15 16  2  0
 16 17  1  0
 17 18  1  0
 17 19  1  0
 17 20  1  0
 16 21  1  0
 21 22  2  0
  2 23  1  0
 23 24  2  0
 23 25  1  0
 25 26  1  0
 25 27  1  0
 22  7  1  0
 22 13  1  0
  1 28  1  0
  1 29  1  0
  1 30  1  0
 10 31  1  0
 12 32  1  0
 14 33  1  0
 15 34  1  0
 21 35  1  0
 25 36  1  0
 26 37  1  0
 26 38  1  0
 26 39  1  0
 27 40  1  0
 27 41  1  0
 27 42  1  0
M  CHG  2  10  -1  25   1
M  END
>  <UniqueID>  (58) 
58

>  <SMILES>  (58) 
CN(C(=O)C(=O)n1c(C([NH-])=O)cc2ccc(C(F)(F)F)cc21)C(=O)[NH+](C)C

>  <Energy>  (58) 
90.18793586054976

>  <Genealogy>  (58) 
CN(C(=O)C(=O)n1c(C([NH-])=O)cc2ccc(C(F)(F)F)cc21)C(=O)[NH+](C)C (protonated)
CN(C(=O)C(=O)n1c(C([NH-])=O)cc2ccc(C(F)(F)F)cc21)C(=O)[NH+](C)C (3D coordinates assigned)
CN(C(=O)C(=O)n1c(C([NH-])=O)cc2ccc(C(F)(F)F)cc21)C(=O)[NH+](C)C (optimized conformer: 90.18793586054976 kcal/mol)

>  <smiles>  (58) 
CN(C)C(=O)N(C)C(=O)C(=O)n1c(C(N)=O)cc2ccc(C(F)(F)F)cc21

>  <score_type>  (58) 
oracle

>  <origin>  (58) 
adg

>  <m_score__min__energy>  (58) 
-5.4699999999999998

>  <m_primary>  (58) 
energy

$$$$
58:0
     RDKit          3D

 57 58  0  0  0  0  0  0  0  0999 V2000
  139.7490  147.1570  130.3490 C   0  0  0  0  0  0  0  0  0  0  0  0
  138.7380  148.2260  130.3120 N   0  0  0  0  0  0  0  0  0  0  0  0
  138.7500  148.8670  128.9860 C   0  0  0  0  0  0  0  0  0  0  0  0
  138.9910  149.2110  131.3890 C   0  0  0  0  0  0  0  0  0  0  0  0
  140.2700  148.8740  132.1760 C   0  0  0  0  0  0  0  0  0  0  0  0
  141.2250  150.0720  132.3610 C   0  0  0  0  0  0  0  0  0  0  0  0
  140.5460  151.4460  132.2600 C   0  0  0  0  0  0  0  0  0  0  0  0
  141.5200  152.5400  132.3180 N   0  0  0  0  0  0  0  0  0  0  0  0
  141.7310  153.3580  133.4840 C   0  0  0  0  0  0  0  0  0  0  0  0
  142.5600  152.9300  134.5590 C   0  0  0  0  0  0  0  0  0  0  0  0
  142.7400  153.7400  135.6930 C   0  0  0  0  0  0  0  0  0  0  0  0
  142.0960  154.9740  135.7220 C   0  0  0  0  0  0  0  0  0  0  0  0
  142.1060  155.9560  136.6880 C   0  0  0  0  0  0  0  0  0  0  0  0
  141.3160  156.9850  136.1750 C   0  0  0  0  0  0  0  0  0  0  0  0
  141.1460  158.3030  136.8280 C   0  0  0  0  0  0  0  0  0  0  0  0
  139.8910  158.9840  136.7800 N   0  0  0  0  0  0  0  0  0  0  0  0
  142.1040  158.8270  137.4550 O   0  0  0  0  0  0  0  0  0  0  0  0
  140.8310  156.6440  134.9480 N   0  0  0  0  0  0  0  0  0  0  0  0
  139.9880  157.4190  134.0820 C   0  0  0  0  0  0  0  0  0  0  0  0
  138.7660  157.5530  134.3600 O   0  0  0  0  0  0  0  0  0  0  0  0
  140.5600  158.1250  132.8860 C   0  0  0  0  0  0  0  0  0  0  0  0
  141.4710  159.2410  133.3250 C   0  0  0  0  0  0  0  0  0  0  0  0
  140.9650  160.3840  133.4930 O   0  0  0  0  0  0  0  0  0  0  0  0
  142.8920  159.0540  133.5110 N   0  0  0  0  0  0  0  0  0  0  0  0
  143.5190  157.7400  133.3180 C   0  0  0  0  0  0  0  0  0  0  0  0
  143.7150  160.2050  133.9040 C   0  0  0  0  0  0  0  0  0  0  0  0
  141.3190  155.4140  134.6850 C   0  0  0  0  0  0  0  0  0  0  0  0
  141.1020  154.6210  133.5560 C   0  0  0  0  0  0  0  0  0  0  0  0
  139.9829  146.9096  131.3950 H   0  0  0  0  0  0  0  0  0  0  0  0
  139.3573  146.2641  129.8398 H   0  0  0  0  0  0  0  0  0  0  0  0
  140.6624  147.4983  129.8398 H   0  0  0  0  0  0  0  0  0  0  0  0
  138.7705  149.9601  129.1073 H   0  0  0  0  0  0  0  0  0  0  0  0
  139.6422  148.5430  128.4302 H   0  0  0  0  0  0  0  0  0  0  0  0
  137.8463  148.5766  128.4302 H   0  0  0  0  0  0  0  0  0  0  0  0
  139.1003  150.2097  130.9410 H   0  0  0  0  0  0  0  0  0  0  0  0
  138.1408  149.1842  132.0864 H   0  0  0  0  0  0  0  0  0  0  0  0
  139.9778  148.5073  133.1711 H   0  0  0  0  0  0  0  0  0  0  0  0
  140.8151  148.1189  131.5906 H   0  0  0  0  0  0  0  0  0  0  0  0
  141.6908  149.9906  133.3542 H   0  0  0  0  0  0  0  0  0  0  0  0
  141.9550  150.0214  131.5397 H   0  0  0  0  0  0  0  0  0  0  0  0
  140.0010  151.5046  131.3063 H   0  0  0  0  0  0  0  0  0  0  0  0
  139.8609  151.5525  133.1140 H   0  0  0  0  0  0  0  0  0  0  0  0
  142.1420  152.7000  131.4930 H   0  0  0  0  0  0  0  0  0  0  0  0
  143.0652  151.9546  134.5014 H   0  0  0  0  0  0  0  0  0  0  0  0
  143.3702  153.4094  136.5318 H   0  0  0  0  0  0  0  0  0  0  0  0
  142.6260  155.9336  137.6571 H   0  0  0  0  0  0  0  0  0  0  0  0
  139.7730  159.8960  137.2750 H   0  0  0  0  0  0  0  0  0  0  0  0
  139.0900  158.6150  136.2220 H   0  0  0  0  0  0  0  0  0  0  0  0
  141.1317  157.4070  132.2797 H   0  0  0  0  0  0  0  0  0  0  0  0
  139.7364  158.5477  132.2919 H   0  0  0  0  0  0  0  0  0  0  0  0
  143.7342  157.2889  134.2979 H   0  0  0  0  0  0  0  0  0  0  0  0
  142.8356  157.0867  132.7558 H   0  0  0  0  0  0  0  0  0  0  0  0
  144.4568  157.8602  132.7558 H   0  0  0  0  0  0  0  0  0  0  0  0
  143.7591  160.2666  135.0014 H   0  0  0  0  0  0  0  0  0  0  0  0
  144.7318  160.0829  133.5025 H   0  0  0  0  0  0  0  0  0  0  0  0
  143.2706  161.1277  133.5025 H   0  0  0  0  0  0  0  0  0  0  0  0
  140.4544  154.9727  132.7393 H   0  0  0  0  0  0  0  0  0  0  0  0
  1  2  1  0
  2  3  1  0
  2  4  1  0
  4  5  1  0
  5  6  1  0
  6  7  1  0
  7  8  1  0
  8  9  1  0
  9 10  2  0
 10 11  1  0
 11 12  2  0
 12 13  1  0
 13 14  2  0
 14 15  1  0
 15 16  1  0
 15 17  2  0
 14 18  1  0
 18 19  1  0
 19 20  2  0
 19 21  1  0
 21 22  1  0
 22 23  2  0
 22 24  1  0
 24 25  1  0
 24 26  1  0
 18 27  1  0
 27 28  2  0
 28  9  1  0
 27 12  1  0
  1 29  1  0
  1 30  1  0
  1 31  1  0
  3 32  1  0
  3 33  1  0
  3 34  1  0
  4 35  1  0
  4 36  1  0
  5 37  1  0
  5 38  1  0
  6 39  1  0
  6 40  1  0
  7 41  1  0
  7 42  1  0
  8 43  1  0
 10 44  1  0
 11 45  1  0
 13 46  1  0
 16 47  1  0
 16 48  1  0
 21 49  1  0
 21 50  1  0
 25 51  1  0
 25 52  1  0
 25 53  1  0
 26 54  1  0
 26 55  1  0
 26 56  1  0
 28 57  1  0
M  END
>  <UniqueID>  (59) 
59

>  <SMILES>  (59) 
CN(C)CCCCNc1ccc2cc(C(N)=O)n(C(=O)CC(=O)N(C)C)c2c1

>  <Energy>  (59) 
88.38223679893233

>  <Genealogy>  (59) 
CN(C)CCCCNc1ccc2cc(C(N)=O)n(C(=O)CC(=O)N(C)C)c2c1 (3D coordinates assigned)
CN(C)CCCCNc1ccc2cc(C(N)=O)n(C(=O)CC(=O)N(C)C)c2c1 (optimized conformer: 88.38223679893233 kcal/mol)

>  <smiles>  (59) 
CN(C)CCCCNc1ccc2cc(C(N)=O)n(C(=O)CC(=O)N(C)C)c2c1

>  <score_type>  (59) 
oracle

>  <origin>  (59) 
adg

>  <m_score__min__energy>  (59) 
-8.2799999999999994

>  <m_primary>  (59) 
energy

$$$$
59:0
     RDKit          3D

 43 44  0  0  0  0  0  0  0  0999 V2000
  140.1070  156.4420  132.9850 C   0  0  0  0  0  0  0  0  0  0  0  0
  140.3680  157.8270  133.4180 N   0  0  0  0  0  0  0  0  0  0  0  0
  140.2960  158.7340  132.2550 C   0  0  0  0  0  0  0  0  0  0  0  0
  139.4000  158.2190  134.4680 C   0  0  0  0  0  0  0  0  0  0  0  0
  139.9180  157.9230  135.8460 C   0  0  0  0  0  0  0  0  0  0  0  0
  139.1130  157.8420  136.8130 O   0  0  0  0  0  0  0  0  0  0  0  0
  141.2880  157.7150  136.0360 O   0  0  0  0  0  0  0  0  0  0  0  0
  141.9700  156.5640  135.5450 C   0  0  0  0  0  0  0  0  0  0  0  0
  143.2880  156.9120  135.1280 O   0  0  0  0  0  0  0  0  0  0  0  0
  143.6010  157.2570  133.8070 C   0  0  0  0  0  0  0  0  0  0  0  0
  142.9450  156.7600  132.8500 O   0  0  0  0  0  0  0  0  0  0  0  0
  144.6930  158.1520  133.5390 N   0  0  0  0  0  0  0  0  0  0  0  0
  144.6940  159.5120  133.6260 C   0  0  0  0  0  0  0  0  0  0  0  0
  143.5090  160.3630  133.8500 C   0  0  0  0  0  0  0  0  0  0  0  0
  142.2710  159.7700  134.2380 N   0  0  0  0  0  0  0  0  0  0  0  0
  143.5880  161.6140  133.7460 O   0  0  0  0  0  0  0  0  0  0  0  0
  145.9670  160.0190  133.3840 C   0  0  0  0  0  0  0  0  0  0  0  0
  146.7570  158.9220  133.1350 C   0  0  0  0  0  0  0  0  0  0  0  0
  148.1170  158.8430  132.8450 C   0  0  0  0  0  0  0  0  0  0  0  0
  148.6810  157.5690  132.6640 C   0  0  0  0  0  0  0  0  0  0  0  0
  147.8810  156.4050  132.7830 C   0  0  0  0  0  0  0  0  0  0  0  0
  148.4970  155.0430  132.6360 C   0  0  0  0  0  0  0  0  0  0  0  0
  148.4370  154.3690  133.8410 F   0  0  0  0  0  0  0  0  0  0  0  0
  149.8190  155.1720  132.2510 F   0  0  0  0  0  0  0  0  0  0  0  0
  146.5040  156.5230  133.0790 C   0  0  0  0  0  0  0  0  0  0  0  0
  145.9650  157.8060  133.2350 C   0  0  0  0  0  0  0  0  0  0  0  0
  139.9857  155.7983  133.8687 H   0  0  0  0  0  0  0  0  0  0  0  0
  139.1877  156.4135  132.3816 H   0  0  0  0  0  0  0  0  0  0  0  0
  140.9529  156.0809  132.3816 H   0  0  0  0  0  0  0  0  0  0  0  0
  141.3390  157.8610  133.8100 H   0  0  0  0  0  0  0  0  0  0  0  0
  140.2135  159.7735  132.6052 H   0  0  0  0  0  0  0  0  0  0  0  0
  141.2058  158.6232  131.6467 H   0  0  0  0  0  0  0  0  0  0  0  0
  139.4151  158.4810  131.6467 H   0  0  0  0  0  0  0  0  0  0  0  0
  139.2041  159.2983  134.3860 H   0  0  0  0  0  0  0  0  0  0  0  0
  138.4793  157.6362  134.3175 H   0  0  0  0  0  0  0  0  0  0  0  0
  142.0290  155.8090  136.3428 H   0  0  0  0  0  0  0  0  0  0  0  0
  141.4169  156.1595  134.6845 H   0  0  0  0  0  0  0  0  0  0  0  0
  142.1910  158.7390  134.3830 H   0  0  0  0  0  0  0  0  0  0  0  0
  146.2759  161.0747  133.3906 H   0  0  0  0  0  0  0  0  0  0  0  0
  148.7315  159.7514  132.7602 H   0  0  0  0  0  0  0  0  0  0  0  0
  149.7512  157.4742  132.4282 H   0  0  0  0  0  0  0  0  0  0  0  0
  147.9424  154.4774  131.8728 H   0  0  0  0  0  0  0  0  0  0  0  0
  145.8714  155.6292  133.1842 H   0  0  0  0  0  0  0  0  0  0  0  0
  1  2  1  0
  2  3  1  0
  2  4  1  0
  4  5  1  0
  5  6  2  0
  5  7  1  0
  7  8  1  0
  8  9  1  0
  9 10  1  0
 10 11  2  0
 10 12  1  0
 12 13  1  0
 13 14  1  0
 14 15  1  0
 14 16  2  0
 13 17  2  0
 17 18  1  0
 18 19  2  0
 19 20  1  0
 20 21  2  0
 21 22  1  0
 22 23  1  0
 22 24  1  0
 21 25  1  0
 25 26  2  0
 26 12  1  0
 26 18  1  0
  1 27  1  0
  1 28  1  0
  1 29  1  0
  2 30  1  0
  3 31  1  0
  3 32  1  0
  3 33  1  0
  4 34  1  0
  4 35  1  0
  8 36  1  0
  8 37  1  0
 15 38  1  0
 17 39  1  0
 19 40  1  0
 20 41  1  0
 22 42  1  0
 25 43  1  0
M  CHG  2   2   1  15  -1
M  END
>  <UniqueID>  (60) 
60

>  <SMILES>  (60) 
C[NH+](C)CC(=O)OCOC(=O)n1c(C([NH-])=O)cc2ccc(C(F)F)cc21

>  <Energy>  (60) 
77.52932503430526

>  <Genealogy>  (60) 
C[NH+](C)CC(=O)OCOC(=O)n1c(C([NH-])=O)cc2ccc(C(F)F)cc21 (protonated)
C[NH+](C)CC(=O)OCOC(=O)n1c(C([NH-])=O)cc2ccc(C(F)F)cc21 (3D coordinates assigned)
C[NH+](C)CC(=O)OCOC(=O)n1c(C([NH-])=O)cc2ccc(C(F)F)cc21 (optimized conformer: 77.52932503430526 kcal/mol)

>  <smiles>  (60) 
CN(C)CC(=O)OCOC(=O)n1c(C(N)=O)cc2ccc(C(F)F)cc21

>  <score_type>  (60) 
oracle

>  <origin>  (60) 
adg

>  <m_score__min__energy>  (60) 
-4.3499999999999996

>  <m_primary>  (60) 
energy

$$$$
60:0
     RDKit          3D

 40 42  0  0  0  0  0  0  0  0999 V2000
  139.3050  158.0900  132.7840 C   0  0  0  0  0  0  0  0  0  0  0  0
  140.2000  159.2220  133.3110 C   0  0  2  0  0  0  0  0  0  0  0  0
  140.9760  159.7450  132.2580 O   0  0  0  0  0  0  0  0  0  0  0  0
  141.1390  158.8460  134.4930 C   0  0  0  0  0  0  0  0  0  0  0  0
  142.5220  159.1870  134.2730 O   0  0  0  0  0  0  0  0  0  0  0  0
  143.5030  158.5760  133.4660 C   0  0  0  0  0  0  0  0  0  0  0  0
  143.2120  157.6210  132.6980 O   0  0  0  0  0  0  0  0  0  0  0  0
  144.8550  159.0750  133.5050 N   0  0  0  0  0  0  0  0  0  0  0  0
  145.2470  160.3820  133.5420 C   0  0  0  0  0  0  0  0  0  0  0  0
  144.3630  161.5510  133.7360 C   0  0  0  0  0  0  0  0  0  0  0  0
  142.9840  161.5100  133.3630 N   0  0  0  0  0  0  0  0  0  0  0  0
  144.8180  162.5850  134.2940 O   0  0  0  0  0  0  0  0  0  0  0  0
  146.6290  160.4910  133.4130 C   0  0  0  0  0  0  0  0  0  0  0  0
  147.0870  159.2000  133.3130 C   0  0  0  0  0  0  0  0  0  0  0  0
  148.3870  158.7240  133.1750 C   0  0  0  0  0  0  0  0  0  0  0  0
  148.5790  157.3350  133.0860 C   0  0  0  0  0  0  0  0  0  0  0  0
  147.4710  156.4480  133.1040 C   0  0  0  0  0  0  0  0  0  0  0  0
  147.6840  154.9540  133.0670 C   0  0  0  0  0  0  0  0  0  0  0  0
  148.7470  154.6310  132.2510 F   0  0  0  0  0  0  0  0  0  0  0  0
  146.5600  154.3110  132.5850 F   0  0  0  0  0  0  0  0  0  0  0  0
  147.9430  154.5030  134.3420 F   0  0  0  0  0  0  0  0  0  0  0  0
  146.1650  156.9700  133.2560 C   0  0  0  0  0  0  0  0  0  0  0  0
  146.0010  158.3590  133.3680 C   0  0  0  0  0  0  0  0  0  0  0  0
  140.6010  158.6710  135.9190 C   0  0  0  0  0  0  0  0  0  0  0  0
  140.9410  157.4460  135.0690 C   0  0  0  0  0  0  0  0  0  0  0  0
  138.8707  157.5408  133.6324 H   0  0  0  0  0  0  0  0  0  0  0  0
  138.4972  158.5164  132.1711 H   0  0  0  0  0  0  0  0  0  0  0  0
  139.9062  157.4023  132.1711 H   0  0  0  0  0  0  0  0  0  0  0  0
  139.4990  159.9664  133.7164 H   0  0  0  0  0  0  0  0  0  0  0  0
  141.8090  159.2030  132.2160 H   0  0  0  0  0  0  0  0  0  0  0  0
  142.5210  160.6100  133.1020 H   0  0  0  0  0  0  0  0  0  0  0  0
  142.4150  162.3870  133.3790 H   0  0  0  0  0  0  0  0  0  0  0  0
  147.2267  161.4143  133.3950 H   0  0  0  0  0  0  0  0  0  0  0  0
  149.2411  159.4161  133.1366 H   0  0  0  0  0  0  0  0  0  0  0  0
  149.5985  156.9308  133.0015 H   0  0  0  0  0  0  0  0  0  0  0  0
  145.2938  156.2991  133.2858 H   0  0  0  0  0  0  0  0  0  0  0  0
  141.2309  158.9348  136.7814 H   0  0  0  0  0  0  0  0  0  0  0  0
  139.7109  159.0184  136.4640 H   0  0  0  0  0  0  0  0  0  0  0  0
  141.8148  156.8274  135.3218 H   0  0  0  0  0  0  0  0  0  0  0  0
  140.3945  156.5459  134.7510 H   0  0  0  0  0  0  0  0  0  0  0  0
  1  2  1  0
  2  3  1  0
  2  4  1  0
  4  5  1  0
  5  6  1  0
  6  7  2  0
  6  8  1  0
  8  9  1  0
  9 10  1  0
 10 11  1  0
 10 12  2  0
  9 13  2  0
 13 14  1  0
 14 15  2  0
 15 16  1  0
 16 17  2  0
 17 18  1  0
 18 19  1  0
 18 20  1  0
 18 21  1  0
 17 22  1  0
 22 23  2  0
  4 24  1  0
 24 25  1  0
 25  4  1  0
 23  8  1  0
 23 14  1  0
  1 26  1  0
  1 27  1  0
  1 28  1  0
  2 29  1  1
  3 30  1  0
 11 31  1  0
 11 32  1  0
 13 33  1  0
 15 34  1  0
 16 35  1  0
 22 36  1  0
 24 37  1  0
 24 38  1  0
 25 39  1  0
 25 40  1  0
M  END
>  <UniqueID>  (61) 
61

>  <SMILES>  (61) 
C[C@H](O)C1(OC(=O)n2c(C(N)=O)cc3ccc(C(F)(F)F)cc32)CC1

>  <Energy>  (61) 
358.26840256056283

>  <Genealogy>  (61) 
C[C@H](O)C1(OC(=O)n2c(C(N)=O)cc3ccc(C(F)(F)F)cc32)CC1 (3D coordinates assigned)
C[C@H](O)C1(OC(=O)n2c(C(N)=O)cc3ccc(C(F)(F)F)cc32)CC1 (nonaromatic ring conformer: 358.26840256056283 kcal/mol)

>  <smiles>  (61) 
C[C@H](O)C1(OC(=O)n2c(C(N)=O)cc3ccc(C(F)(F)F)cc32)CC1

>  <score_type>  (61) 
oracle

>  <origin>  (61) 
adg

>  <m_score__min__energy>  (61) 
-6.6100000000000003

>  <m_primary>  (61) 
energy

$$$$
61:0
     RDKit          3D

 38 39  0  0  0  0  0  0  0  0999 V2000
  142.5150  160.5500  134.1080 N   0  0  0  0  0  0  0  0  0  0  0  0
  143.8340  161.0310  133.8470 C   0  0  0  0  0  0  0  0  0  0  0  0
  144.0270  162.2690  133.7210 O   0  0  0  0  0  0  0  0  0  0  0  0
  144.9620  160.0980  133.6590 C   0  0  0  0  0  0  0  0  0  0  0  0
  146.2900  160.5090  133.5740 C   0  0  0  0  0  0  0  0  0  0  0  0
  147.0100  159.3600  133.3330 C   0  0  0  0  0  0  0  0  0  0  0  0
  148.3810  159.1820  133.1740 C   0  0  0  0  0  0  0  0  0  0  0  0
  148.8560  157.8750  132.9740 C   0  0  0  0  0  0  0  0  0  0  0  0
  147.9580  156.7830  132.9490 C   0  0  0  0  0  0  0  0  0  0  0  0
  148.4590  155.4480  132.7600 C   0  0  0  0  0  0  0  0  0  0  0  0
  148.8810  154.3300  132.6000 C   0  0  0  0  0  0  0  0  0  0  0  0
  149.3920  152.9680  132.4040 C   0  0  0  0  0  0  0  0  0  0  0  0
  148.3080  151.9290  132.6990 C   0  0  0  0  0  0  0  0  0  0  0  0
  148.8480  150.8180  133.3640 O   0  0  0  0  0  0  0  0  0  0  0  0
  146.5750  156.9960  133.1160 C   0  0  0  0  0  0  0  0  0  0  0  0
  146.1260  158.3110  133.2910 C   0  0  0  0  0  0  0  0  0  0  0  0
  144.8630  158.7490  133.4940 N   0  0  0  0  0  0  0  0  0  0  0  0
  143.6840  157.9370  133.6250 C   0  0  0  0  0  0  0  0  0  0  0  0
  143.1660  157.4140  132.6010 O   0  0  0  0  0  0  0  0  0  0  0  0
  143.1100  157.7410  134.8860 O   0  0  0  0  0  0  0  0  0  0  0  0
  141.8180  157.1750  135.0850 C   0  0  0  0  0  0  0  0  0  0  0  0
  140.5290  158.4480  134.9180 P   0  0  0  0  0  0  0  0  0  0  0  0
  139.2110  157.9020  135.4180 O   0  0  0  0  0  0  0  0  0  0  0  0
  140.9610  159.7990  135.8380 O   0  0  0  0  0  0  0  0  0  0  0  0
  140.3690  158.9080  133.2990 O   0  0  0  0  0  0  0  0  0  0  0  0
  141.7360  161.2250  134.2820 H   0  0  0  0  0  0  0  0  0  0  0  0
  142.2890  159.5330  134.0420 H   0  0  0  0  0  0  0  0  0  0  0  0
  146.6802  161.5323  133.6773 H   0  0  0  0  0  0  0  0  0  0  0  0
  149.0713  160.0379  133.2040 H   0  0  0  0  0  0  0  0  0  0  0  0
  149.9332  157.7001  132.8360 H   0  0  0  0  0  0  0  0  0  0  0  0
  149.7248  152.8550  131.3617 H   0  0  0  0  0  0  0  0  0  0  0  0
  150.2316  152.8053  133.0958 H   0  0  0  0  0  0  0  0  0  0  0  0
  147.5334  152.3863  133.3321 H   0  0  0  0  0  0  0  0  0  0  0  0
  147.8750  151.5920  131.7456 H   0  0  0  0  0  0  0  0  0  0  0  0
  148.1840  150.5490  134.0520 H   0  0  0  0  0  0  0  0  0  0  0  0
  145.8681  156.1532  133.1091 H   0  0  0  0  0  0  0  0  0  0  0  0
  141.6485  156.3883  134.3351 H   0  0  0  0  0  0  0  0  0  0  0  0
  141.7687  156.7511  136.0989 H   0  0  0  0  0  0  0  0  0  0  0  0
  1  2  1  0
  2  3  2  0
  2  4  1  0
  4  5  2  0
  5  6  1  0
  6  7  2  0
  7  8  1  0
  8  9  2  0
  9 10  1  0
 10 11  3  0
 11 12  1  0
 12 13  1  0
 13 14  1  0
  9 15  1  0
 15 16  2  0
 16 17  1  0
 17 18  1  0
 18 19  2  0
 18 20  1  0
 20 21  1  0
 21 22  1  0
 22 23  2  0
 22 24  1  0
 22 25  1  0
 17  4  1  0
 16  6  1  0
  1 26  1  0
  1 27  1  0
  5 28  1  0
  7 29  1  0
  8 30  1  0
 12 31  1  0
 12 32  1  0
 13 33  1  0
 13 34  1  0
 14 35  1  0
 15 36  1  0
 21 37  1  0
 21 38  1  0
M  CHG  2  24  -1  25  -1
M  END
>  <UniqueID>  (62) 
62

>  <SMILES>  (62) 
NC(=O)c1cc2ccc(C#CCCO)cc2n1C(=O)OCP(=O)([O-])[O-]

>  <Energy>  (62) 
65.64598676476456

>  <Genealogy>  (62) 
NC(=O)c1cc2ccc(C#CCCO)cc2n1C(=O)OCP(=O)([O-])[O-] (protonated)
NC(=O)c1cc2ccc(C#CCCO)cc2n1C(=O)OCP(=O)([O-])[O-] (3D coordinates assigned)
NC(=O)c1cc2ccc(C#CCCO)cc2n1C(=O)OCP(=O)([O-])[O-] (optimized conformer: 65.64598676476456 kcal/mol)

>  <smiles>  (62) 
NC(=O)c1cc2ccc(C#CCCO)cc2n1C(=O)OCP(=O)(O)O

>  <score_type>  (62) 
oracle

>  <origin>  (62) 
adg

>  <m_score__min__energy>  (62) 
-7.04

>  <m_primary>  (62) 
energy

$$$$
62:0
     RDKit          3D

 34 35  0  0  0  0  0  0  0  0999 V2000
  142.2950  157.1260  135.2410 C   0  0  0  0  0  0  0  0  0  0  0  0
  143.3320  156.7730  134.4840 C   0  0  0  0  0  0  0  0  0  0  0  0
  143.7690  157.5640  133.3180 C   0  0  0  0  0  0  0  0  0  0  0  0
  143.0110  157.7010  132.3180 O   0  0  0  0  0  0  0  0  0  0  0  0
  145.0620  158.1870  133.3170 N   0  0  0  0  0  0  0  0  0  0  0  0
  145.3470  159.5120  133.4600 C   0  0  0  0  0  0  0  0  0  0  0  0
  144.3740  160.5800  133.7780 C   0  0  0  0  0  0  0  0  0  0  0  0
  143.0100  160.4750  133.3790 N   0  0  0  0  0  0  0  0  0  0  0  0
  144.7460  161.5850  134.4400 O   0  0  0  0  0  0  0  0  0  0  0  0
  146.7160  159.7330  133.3220 C   0  0  0  0  0  0  0  0  0  0  0  0
  147.2640  158.4930  133.0890 C   0  0  0  0  0  0  0  0  0  0  0  0
  148.5870  158.1270  132.8590 C   0  0  0  0  0  0  0  0  0  0  0  0
  148.8620  156.7710  132.6130 C   0  0  0  0  0  0  0  0  0  0  0  0
  147.8170  155.8090  132.5900 C   0  0  0  0  0  0  0  0  0  0  0  0
  148.0770  154.4170  132.3270 N   0  0  0  0  0  0  0  0  0  0  0  0
  149.3560  153.7700  132.6260 C   0  0  0  0  0  0  0  0  0  0  0  0
  149.2530  152.2470  132.5040 C   0  0  0  0  0  0  0  0  0  0  0  0
  147.9110  151.8430  132.4600 O   0  0  0  0  0  0  0  0  0  0  0  0
  146.4870  156.2250  132.8250 C   0  0  0  0  0  0  0  0  0  0  0  0
  146.2460  157.5780  133.0880 C   0  0  0  0  0  0  0  0  0  0  0  0
  142.0053  156.5047  136.1013 H   0  0  0  0  0  0  0  0  0  0  0  0
  141.7280  158.0389  135.0061 H   0  0  0  0  0  0  0  0  0  0  0  0
  143.8842  155.8561  134.7379 H   0  0  0  0  0  0  0  0  0  0  0  0
  142.7260  159.8330  132.6060 H   0  0  0  0  0  0  0  0  0  0  0  0
  147.2459  160.6948  133.3858 H   0  0  0  0  0  0  0  0  0  0  0  0
  149.3925  158.8760  132.8694 H   0  0  0  0  0  0  0  0  0  0  0  0
  149.8993  156.4505  132.4361 H   0  0  0  0  0  0  0  0  0  0  0  0
  147.3110  153.8470  131.9010 H   0  0  0  0  0  0  0  0  0  0  0  0
  150.1158  154.1352  131.9194 H   0  0  0  0  0  0  0  0  0  0  0  0
  149.6354  154.0166  133.6610 H   0  0  0  0  0  0  0  0  0  0  0  0
  149.7579  151.9237  131.5817 H   0  0  0  0  0  0  0  0  0  0  0  0
  149.7317  151.7887  133.3819 H   0  0  0  0  0  0  0  0  0  0  0  0
  147.6900  151.4900  133.3610 H   0  0  0  0  0  0  0  0  0  0  0  0
  145.6593  155.5009  132.8017 H   0  0  0  0  0  0  0  0  0  0  0  0
  1  2  2  0
  2  3  1  0
  3  4  2  0
  3  5  1  0
  5  6  1  0
  6  7  1  0
  7  8  1  0
  7  9  2  0
  6 10  2  0
 10 11  1  0
 11 12  2  0
 12 13  1  0
 13 14  2  0
 14 15  1  0
 15 16  1  0
 16 17  1  0
 17 18  1  0
 14 19  1  0
 19 20  2  0
 20  5  1  0
 20 11  1  0
  1 21  1  0
  1 22  1  0
  2 23  1  0
  8 24  1  0
 10 25  1  0
 12 26  1  0
 13 27  1  0
 15 28  1  0
 16 29  1  0
 16 30  1  0
 17 31  1  0
 17 32  1  0
 18 33  1  0
 19 34  1  0
M  CHG  1   8  -1
M  END
>  <UniqueID>  (63) 
63

>  <SMILES>  (63) 
C=CC(=O)n1c(C([NH-])=O)cc2ccc(NCCO)cc21

>  <Energy>  (63) 
69.86414767667806

>  <Genealogy>  (63) 
C=CC(=O)n1c(C([NH-])=O)cc2ccc(NCCO)cc21 (protonated)
C=CC(=O)n1c(C([NH-])=O)cc2ccc(NCCO)cc21 (3D coordinates assigned)
C=CC(=O)n1c(C([NH-])=O)cc2ccc(NCCO)cc21 (optimized conformer: 69.86414767667806 kcal/mol)

>  <smiles>  (63) 
C=CC(=O)n1c(C(N)=O)cc2ccc(NCCO)cc21

>  <score_type>  (63) 
oracle

>  <origin>  (63) 
adg

>  <m_score__min__energy>  (63) 
-6.2000000000000002

>  <m_primary>  (63) 
energy

$$$$
63:0
     RDKit          3D

 40 42  0  0  0  0  0  0  0  0999 V2000
  139.1060  148.8490  130.6240 C   0  0  0  0  0  0  0  0  0  0  0  0
  140.4010  149.2830  131.3000 C   0  0  0  0  0  0  0  0  0  0  0  0
  140.1830  150.4360  132.1110 O   0  0  0  0  0  0  0  0  0  0  0  0
  140.9740  150.7610  133.2190 C   0  0  0  0  0  0  0  0  0  0  0  0
  140.9370  150.0490  134.2580 O   0  0  0  0  0  0  0  0  0  0  0  0
  141.8530  151.9410  133.1510 C   0  0  0  0  0  0  0  0  0  0  0  0
  143.5340  151.8640  133.1790 S   0  0  0  0  0  0  0  0  0  0  0  0
  143.7460  153.5320  133.0630 C   0  0  0  0  0  0  0  0  0  0  0  0
  145.0590  154.2230  133.0320 C   0  0  0  0  0  0  0  0  0  0  0  0
  146.2610  153.4680  132.9930 C   0  0  0  0  0  0  0  0  0  0  0  0
  147.5120  154.1050  132.9750 C   0  0  0  0  0  0  0  0  0  0  0  0
  147.5370  155.4950  132.9900 C   0  0  0  0  0  0  0  0  0  0  0  0
  148.6070  156.3600  133.0060 C   0  0  0  0  0  0  0  0  0  0  0  0
  148.0500  157.6360  133.0380 C   0  0  0  0  0  0  0  0  0  0  0  0
  148.8520  158.8760  132.9760 C   0  0  0  0  0  0  0  0  0  0  0  0
  149.6910  159.1220  131.8500 N   0  0  0  0  0  0  0  0  0  0  0  0
  148.7780  159.7390  133.8900 O   0  0  0  0  0  0  0  0  0  0  0  0
  146.6890  157.5640  133.0490 N   0  0  0  0  0  0  0  0  0  0  0  0
  145.7510  158.6490  133.1500 C   0  0  0  0  0  0  0  0  0  0  0  0
  144.8200  158.6090  133.9950 O   0  0  0  0  0  0  0  0  0  0  0  0
  145.8820  159.7670  132.3340 O   0  0  0  0  0  0  0  0  0  0  0  0
  146.3910  156.2450  133.0150 C   0  0  0  0  0  0  0  0  0  0  0  0
  145.1300  155.6370  133.0530 C   0  0  0  0  0  0  0  0  0  0  0  0
  142.5440  154.1540  132.9980 N   0  0  0  0  0  0  0  0  0  0  0  0
  141.4900  153.2900  133.0460 C   0  0  0  0  0  0  0  0  0  0  0  0
  140.0740  153.7790  132.9780 C   0  0  0  0  0  0  0  0  0  0  0  0
  138.3582  148.5984  131.3908 H   0  0  0  0  0  0  0  0  0  0  0  0
  138.7271  149.6693  129.9966 H   0  0  0  0  0  0  0  0  0  0  0  0
  139.2979  147.9661  129.9966 H   0  0  0  0  0  0  0  0  0  0  0  0
  140.7718  148.4621  131.9313 H   0  0  0  0  0  0  0  0  0  0  0  0
  141.1401  149.5304  130.5238 H   0  0  0  0  0  0  0  0  0  0  0  0
  146.2113  152.3692  132.9767 H   0  0  0  0  0  0  0  0  0  0  0  0
  148.4444  153.5218  132.9498 H   0  0  0  0  0  0  0  0  0  0  0  0
  149.6755  156.0990  132.9957 H   0  0  0  0  0  0  0  0  0  0  0  0
  150.7300  159.0620  131.9310 H   0  0  0  0  0  0  0  0  0  0  0  0
  144.2143  156.2449  133.0982 H   0  0  0  0  0  0  0  0  0  0  0  0
  142.4250  155.1850  132.8940 H   0  0  0  0  0  0  0  0  0  0  0  0
  139.6833  153.9139  133.9974 H   0  0  0  0  0  0  0  0  0  0  0  0
  140.0432  154.7398  132.4434 H   0  0  0  0  0  0  0  0  0  0  0  0
  139.4568  153.0420  132.4434 H   0  0  0  0  0  0  0  0  0  0  0  0
  1  2  1  0
  2  3  1  0
  3  4  1  0
  4  5  2  0
  4  6  1  0
  6  7  1  0
  7  8  1  0
  8  9  1  0
  9 10  2  0
 10 11  1  0
 11 12  2  0
 12 13  1  0
 13 14  2  0
 14 15  1  0
 15 16  1  0
 15 17  2  0
 14 18  1  0
 18 19  1  0
 19 20  2  0
 19 21  1  0
 18 22  1  0
 22 23  2  0
  8 24  2  0
 24 25  1  0
 25 26  1  0
 25  6  2  0
 23  9  1  0
 22 12  1  0
  1 27  1  0
  1 28  1  0
  1 29  1  0
  2 30  1  0
  2 31  1  0
 10 32  1  0
 11 33  1  0
 13 34  1  0
 16 35  1  0
 23 36  1  0
 24 37  1  0
 26 38  1  0
 26 39  1  0
 26 40  1  0
M  CHG  3  16  -1  21  -1  24   1
M  END
>  <UniqueID>  (64) 
64

>  <SMILES>  (64) 
CCOC(=O)c1sc(-c2ccc3cc(C([NH-])=O)n(C(=O)[O-])c3c2)[nH+]c1C

>  <Energy>  (64) 
108.69690407644889

>  <Genealogy>  (64) 
CCOC(=O)c1sc(-c2ccc3cc(C([NH-])=O)n(C(=O)[O-])c3c2)[nH+]c1C (protonated)
CCOC(=O)c1sc(-c2ccc3cc(C([NH-])=O)n(C(=O)[O-])c3c2)[nH+]c1C (3D coordinates assigned)
CCOC(=O)c1sc(-c2ccc3cc(C([NH-])=O)n(C(=O)[O-])c3c2)[nH+]c1C (optimized conformer: 108.69690407644889 kcal/mol)

>  <smiles>  (64) 
CCOC(=O)c1sc(-c2ccc3cc(C(N)=O)n(C(=O)O)c3c2)nc1C

>  <score_type>  (64) 
oracle

>  <origin>  (64) 
adg

>  <m_score__min__energy>  (64) 
-7.6699999999999999

>  <m_primary>  (64) 
energy

$$$$
64:0
     RDKit          3D

 38 39  0  0  0  0  0  0  0  0999 V2000
  149.0880  154.6170  132.6030 C   0  0  0  0  0  0  0  0  0  0  0  0
  148.4060  155.5930  132.7870 C   0  0  0  0  0  0  0  0  0  0  0  0
  147.5900  156.7590  133.0090 C   0  0  0  0  0  0  0  0  0  0  0  0
  148.1820  158.0430  133.0090 C   0  0  0  0  0  0  0  0  0  0  0  0
  147.3930  159.1900  133.2100 C   0  0  0  0  0  0  0  0  0  0  0  0
  146.0270  159.0140  133.4150 C   0  0  0  0  0  0  0  0  0  0  0  0
  145.0320  159.9460  133.6060 C   0  0  0  0  0  0  0  0  0  0  0  0
  143.8560  159.2100  133.7380 C   0  0  0  0  0  0  0  0  0  0  0  0
  142.5380  159.8160  134.0210 C   0  0  0  0  0  0  0  0  0  0  0  0
  141.6530  160.1240  132.9460 N   0  0  0  0  0  0  0  0  0  0  0  0
  142.1930  160.0880  135.2020 O   0  0  0  0  0  0  0  0  0  0  0  0
  144.1140  157.8760  133.6330 N   0  0  0  0  0  0  0  0  0  0  0  0
  143.1740  156.7920  133.6620 C   0  0  0  0  0  0  0  0  0  0  0  0
  143.5630  155.6390  133.9930 O   0  0  0  0  0  0  0  0  0  0  0  0
  141.8000  157.0260  133.3140 N   0  0  0  0  0  0  0  0  0  0  0  0
  140.7580  156.0520  133.4430 C   0  0  0  0  0  0  0  0  0  0  0  0
  141.0030  154.9050  133.9110 O   0  0  0  0  0  0  0  0  0  0  0  0
  139.4600  156.3890  133.0440 O   0  0  0  0  0  0  0  0  0  0  0  0
  138.7290  157.4850  133.5920 C   0  0  0  0  0  0  0  0  0  0  0  0
  138.7760  158.6880  132.6460 C   0  0  0  0  0  0  0  0  0  0  0  0
  139.8390  158.5430  131.7210 O   0  0  0  0  0  0  0  0  0  0  0  0
  139.6370  159.3830  130.6060 C   0  0  0  0  0  0  0  0  0  0  0  0
  145.4470  157.7720  133.4340 C   0  0  0  0  0  0  0  0  0  0  0  0
  146.2040  156.6150  133.2170 C   0  0  0  0  0  0  0  0  0  0  0  0
  149.7107  153.7259  132.4350 H   0  0  0  0  0  0  0  0  0  0  0  0
  149.2657  158.1455  132.8509 H   0  0  0  0  0  0  0  0  0  0  0  0
  147.8411  160.1946  133.2054 H   0  0  0  0  0  0  0  0  0  0  0  0
  145.1419  161.0398  133.6460 H   0  0  0  0  0  0  0  0  0  0  0  0
  141.6970  159.5950  132.0470 H   0  0  0  0  0  0  0  0  0  0  0  0
  141.5410  157.9660  132.9370 H   0  0  0  0  0  0  0  0  0  0  0  0
  137.6819  157.1830  133.7416 H   0  0  0  0  0  0  0  0  0  0  0  0
  139.1826  157.7702  134.5527 H   0  0  0  0  0  0  0  0  0  0  0  0
  137.8246  158.7565  132.0981 H   0  0  0  0  0  0  0  0  0  0  0  0
  138.9367  159.6022  133.2363 H   0  0  0  0  0  0  0  0  0  0  0  0
  139.3928  160.3984  130.9514 H   0  0  0  0  0  0  0  0  0  0  0  0
  140.5536  159.4128  129.9986 H   0  0  0  0  0  0  0  0  0  0  0  0
  138.8071  158.9928  129.9986 H   0  0  0  0  0  0  0  0  0  0  0  0
  145.7306  155.6221  133.2091 H   0  0  0  0  0  0  0  0  0  0  0  0
  1  2  3  0
  2  3  1  0
  3  4  2  0
  4  5  1  0
  5  6  2  0
  6  7  1  0
  7  8  2  0
  8  9  1  0
  9 10  1  0
  9 11  2  0
  8 12  1  0
 12 13  1  0
 13 14  2  0
 13 15  1  0
 15 16  1  0
 16 17  2  0
 16 18  1  0
 18 19  1  0
 19 20  1  0
 20 21  1  0
 21 22  1  0
 12 23  1  0
 23 24  2  0
 24  3  1  0
 23  6  1  0
  1 25  1  0
  4 26  1  0
  5 27  1  0
  7 28  1  0
 10 29  1  0
 15 30  1  0
 19 31  1  0
 19 32  1  0
 20 33  1  0
 20 34  1  0
 22 35  1  0
 22 36  1  0
 22 37  1  0
 24 38  1  0
M  CHG  1  10  -1
M  END
>  <UniqueID>  (65) 
65

>  <SMILES>  (65) 
C#Cc1ccc2cc(C([NH-])=O)n(C(=O)NC(=O)OCCOC)c2c1

>  <Energy>  (65) 
73.90422454510036

>  <Genealogy>  (65) 
C#Cc1ccc2cc(C([NH-])=O)n(C(=O)NC(=O)OCCOC)c2c1 (protonated)
C#Cc1ccc2cc(C([NH-])=O)n(C(=O)NC(=O)OCCOC)c2c1 (3D coordinates assigned)
C#Cc1ccc2cc(C([NH-])=O)n(C(=O)NC(=O)OCCOC)c2c1 (optimized conformer: 73.90422454510036 kcal/mol)

>  <smiles>  (65) 
C#Cc1ccc2cc(C(N)=O)n(C(=O)NC(=O)OCCOC)c2c1

>  <score_type>  (65) 
oracle

>  <origin>  (65) 
adg

>  <m_score__min__energy>  (65) 
-6.3200000000000003

>  <m_primary>  (65) 
energy

$$$$
65:0
     RDKit          3D

 31 33  0  0  0  0  0  0  0  0999 V2000
  149.8410  153.9100  132.2290 N   0  0  0  0  0  0  0  0  0  0  0  0
  148.8470  154.3210  132.6560 C   0  0  0  0  0  0  0  0  0  0  0  0
  147.5860  154.8440  133.1980 C   0  0  0  0  0  0  0  0  0  0  0  0
  147.3750  156.3330  133.2160 C   0  0  0  0  0  0  0  0  0  0  0  0
  148.4850  157.2090  133.1310 C   0  0  0  0  0  0  0  0  0  0  0  0
  148.3030  158.6020  133.1750 C   0  0  0  0  0  0  0  0  0  0  0  0
  147.0060  159.0850  133.3210 C   0  0  0  0  0  0  0  0  0  0  0  0
  146.5420  160.3800  133.3890 C   0  0  0  0  0  0  0  0  0  0  0  0
  145.1610  160.2710  133.5460 C   0  0  0  0  0  0  0  0  0  0  0  0
  144.2640  161.4270  133.7490 C   0  0  0  0  0  0  0  0  0  0  0  0
  142.8500  161.2480  133.6870 N   0  0  0  0  0  0  0  0  0  0  0  0
  144.7330  162.5780  133.9540 O   0  0  0  0  0  0  0  0  0  0  0  0
  144.7880  158.9600  133.5630 N   0  0  0  0  0  0  0  0  0  0  0  0
  143.4620  158.4160  133.6680 C   0  0  0  0  0  0  0  0  0  0  0  0
  142.8270  158.1150  132.6230 O   0  0  0  0  0  0  0  0  0  0  0  0
  142.8140  158.2520  134.9750 C   0  0  0  0  0  0  0  0  0  0  0  0
  142.0170  159.1240  135.4110 O   0  0  0  0  0  0  0  0  0  0  0  0
  145.9260  158.2480  133.4320 C   0  0  0  0  0  0  0  0  0  0  0  0
  146.0750  156.8590  133.3830 C   0  0  0  0  0  0  0  0  0  0  0  0
  146.9830  154.0500  134.3490 C   0  0  0  0  0  0  0  0  0  0  0  0
  146.3560  153.9780  132.9630 C   0  0  0  0  0  0  0  0  0  0  0  0
  149.4991  156.7951  133.0296 H   0  0  0  0  0  0  0  0  0  0  0  0
  149.1587  159.2888  133.0965 H   0  0  0  0  0  0  0  0  0  0  0  0
  147.1354  161.3045  133.3316 H   0  0  0  0  0  0  0  0  0  0  0  0
  142.4330  160.2930  133.6160 H   0  0  0  0  0  0  0  0  0  0  0  0
  143.0269  157.3581  135.5798 H   0  0  0  0  0  0  0  0  0  0  0  0
  145.2035  156.1938  133.4721 H   0  0  0  0  0  0  0  0  0  0  0  0
  147.5180  153.1796  134.7566 H   0  0  0  0  0  0  0  0  0  0  0  0
  146.6169  154.2967  135.3565 H   0  0  0  0  0  0  0  0  0  0  0  0
  146.4381  153.0555  132.3695 H   0  0  0  0  0  0  0  0  0  0  0  0
  145.3493  154.1511  132.5548 H   0  0  0  0  0  0  0  0  0  0  0  0
  1  2  3  0
  2  3  1  0
  3  4  1  0
  4  5  2  0
  5  6  1  0
  6  7  2  0
  7  8  1  0
  8  9  2  0
  9 10  1  0
 10 11  1  0
 10 12  2  0
  9 13  1  0
 13 14  1  0
 14 15  2  0
 14 16  1  0
 16 17  2  0
 13 18  1  0
 18 19  2  0
  3 20  1  0
 20 21  1  0
 21  3  1  0
 19  4  1  0
 18  7  1  0
  5 22  1  0
  6 23  1  0
  8 24  1  0
 11 25  1  0
 16 26  1  0
 19 27  1  0
 20 28  1  0
 20 29  1  0
 21 30  1  0
 21 31  1  0
M  CHG  1  11  -1
M  END
>  <UniqueID>  (66) 
66

>  <SMILES>  (66) 
N#CC1(c2ccc3cc(C([NH-])=O)n(C(=O)C=O)c3c2)CC1

>  <Energy>  (66) 
337.15824513719417

>  <Genealogy>  (66) 
N#CC1(c2ccc3cc(C([NH-])=O)n(C(=O)C=O)c3c2)CC1 (protonated)
N#CC1(c2ccc3cc(C([NH-])=O)n(C(=O)C=O)c3c2)CC1 (3D coordinates assigned)
N#CC1(c2ccc3cc(C([NH-])=O)n(C(=O)C=O)c3c2)CC1 (nonaromatic ring conformer: 337.15824513719417 kcal/mol)

>  <smiles>  (66) 
N#CC1(c2ccc3cc(C(N)=O)n(C(=O)C=O)c3c2)CC1

>  <score_type>  (66) 
oracle

>  <origin>  (66) 
adg

>  <m_score__min__energy>  (66) 
-6.6200000000000001

>  <m_primary>  (66) 
energy

$$$$
66:0
     RDKit          3D

 40 41  0  0  0  0  0  0  0  0999 V2000
  149.6030  157.4660  132.2050 N   0  0  0  0  0  0  0  0  0  0  0  0
  149.1350  158.7870  132.4690 C   0  0  0  0  0  0  0  0  0  0  0  0
  149.8930  159.7660  132.2410 O   0  0  0  0  0  0  0  0  0  0  0  0
  147.7570  159.0230  132.9510 C   0  0  0  0  0  0  0  0  0  0  0  0
  147.2010  160.2940  133.0820 C   0  0  0  0  0  0  0  0  0  0  0  0
  145.8930  160.0820  133.4580 C   0  0  0  0  0  0  0  0  0  0  0  0
  144.8810  160.9950  133.7290 C   0  0  0  0  0  0  0  0  0  0  0  0
  143.6270  160.4930  134.1150 C   0  0  0  0  0  0  0  0  0  0  0  0
  143.4050  159.0990  134.2320 C   0  0  0  0  0  0  0  0  0  0  0  0
  142.0990  158.6320  134.6220 N   0  0  0  0  0  0  0  0  0  0  0  0
  141.6980  158.3290  135.9970 C   0  0  0  0  0  0  0  0  0  0  0  0
  140.2100  157.9720  136.0870 C   0  0  0  0  0  0  0  0  0  0  0  0
  139.4680  158.5400  134.9620 N   0  0  0  0  0  0  0  0  0  0  0  0
  139.2070  157.9190  133.6940 C   0  0  0  0  0  0  0  0  0  0  0  0
  138.7890  156.7330  133.6820 O   0  0  0  0  0  0  0  0  0  0  0  0
  139.4370  158.5940  132.4040 C   0  0  0  0  0  0  0  0  0  0  0  0
  138.7830  158.2800  131.3760 O   0  0  0  0  0  0  0  0  0  0  0  0
  140.3560  159.6340  132.3270 O   0  0  0  0  0  0  0  0  0  0  0  0
  144.4670  158.2010  133.9570 C   0  0  0  0  0  0  0  0  0  0  0  0
  145.6980  158.7290  133.5510 C   0  0  0  0  0  0  0  0  0  0  0  0
  146.8340  158.0640  133.2460 N   0  0  0  0  0  0  0  0  0  0  0  0
  147.0230  156.6430  133.2940 C   0  0  0  0  0  0  0  0  0  0  0  0
  146.9890  155.9660  132.2300 O   0  0  0  0  0  0  0  0  0  0  0  0
  147.2680  156.0180  134.5220 O   0  0  0  0  0  0  0  0  0  0  0  0
  146.8810  154.6770  134.8110 C   0  0  0  0  0  0  0  0  0  0  0  0
  147.4230  154.2550  136.1390 C   0  0  0  0  0  0  0  0  0  0  0  0
  148.3180  154.9360  136.7060 O   0  0  0  0  0  0  0  0  0  0  0  0
  146.9620  153.0890  136.7370 O   0  0  0  0  0  0  0  0  0  0  0  0
  148.9640  156.7380  131.8170 H   0  0  0  0  0  0  0  0  0  0  0  0
  147.7003  161.2606  132.9197 H   0  0  0  0  0  0  0  0  0  0  0  0
  145.0565  162.0776  133.6439 H   0  0  0  0  0  0  0  0  0  0  0  0
  142.8057  161.1926  134.3295 H   0  0  0  0  0  0  0  0  0  0  0  0
  141.3700  158.5240  133.8810 H   0  0  0  0  0  0  0  0  0  0  0  0
  142.2917  157.4781  136.3623 H   0  0  0  0  0  0  0  0  0  0  0  0
  141.8740  159.2244  136.6112 H   0  0  0  0  0  0  0  0  0  0  0  0
  140.1009  156.8775  136.0746 H   0  0  0  0  0  0  0  0  0  0  0  0
  139.8047  158.3880  137.0212 H   0  0  0  0  0  0  0  0  0  0  0  0
  144.3268  157.1149  134.0603 H   0  0  0  0  0  0  0  0  0  0  0  0
  145.7831  154.6123  134.8301 H   0  0  0  0  0  0  0  0  0  0  0  0
  147.2843  154.0126  134.0326 H   0  0  0  0  0  0  0  0  0  0  0  0
  1  2  1  0
  2  3  2  0
  2  4  1  0
  4  5  2  0
  5  6  1  0
  6  7  2  0
  7  8  1  0
  8  9  2  0
  9 10  1  0
 10 11  1  0
 11 12  1  0
 12 13  1  0
 13 14  1  0
 14 15  2  0
 14 16  1  0
 16 17  2  0
 16 18  1  0
  9 19  1  0
 19 20  2  0
 20 21  1  0
 21 22  1  0
 22 23  2  0
 22 24  1  0
 24 25  1  0
 25 26  1  0
 26 27  2  0
 26 28  1  0
 21  4  1  0
 20  6  1  0
  1 29  1  0
  5 30  1  0
  7 31  1  0
  8 32  1  0
 10 33  1  0
 11 34  1  0
 11 35  1  0
 12 36  1  0
 12 37  1  0
 19 38  1  0
 25 39  1  0
 25 40  1  0
M  CHG  4   1  -1  13  -1  18  -1  28  -1
M  END
>  <UniqueID>  (67) 
67

>  <SMILES>  (67) 
[NH-]C(=O)c1cc2ccc(NCC[N-]C(=O)C(=O)[O-])cc2n1C(=O)OCC(=O)[O-]

>  <Energy>  (67) 
75.37118867559244

>  <Genealogy>  (67) 
[NH-]C(=O)c1cc2ccc(NCC[N-]C(=O)C(=O)[O-])cc2n1C(=O)OCC(=O)[O-] (protonated)
[NH-]C(=O)c1cc2ccc(NCC[N-]C(=O)C(=O)[O-])cc2n1C(=O)OCC(=O)[O-] (3D coordinates assigned)
[NH-]C(=O)c1cc2ccc(NCC[N-]C(=O)C(=O)[O-])cc2n1C(=O)OCC(=O)[O-] (optimized conformer: 75.37118867559244 kcal/mol)

>  <smiles>  (67) 
NC(=O)c1cc2ccc(NCCNC(=O)C(=O)O)cc2n1C(=O)OCC(=O)O

>  <score_type>  (67) 
oracle

>  <origin>  (67) 
adg

>  <m_score__min__energy>  (67) 
-6.6299999999999999

>  <m_primary>  (67) 
energy

$$$$
67:0
     RDKit          3D

 51 53  0  0  0  0  0  0  0  0999 V2000
  140.1130  159.3250  131.5220 C   0  0  0  0  0  0  0  0  0  0  0  0
  139.4950  159.2500  132.9120 C   0  0  0  0  0  0  0  0  0  0  0  0
  140.4010  159.7510  133.8930 O   0  0  0  0  0  0  0  0  0  0  0  0
  140.7510  159.0380  135.0470 C   0  0  0  0  0  0  0  0  0  0  0  0
  140.4480  159.4700  136.1960 O   0  0  0  0  0  0  0  0  0  0  0  0
  141.4750  157.7370  134.9130 C   0  0  0  0  0  0  0  0  0  0  0  0
  142.9140  157.9600  134.8670 N   0  0  0  0  0  0  0  0  0  0  0  0
  143.6720  158.0010  133.6530 C   0  0  0  0  0  0  0  0  0  0  0  0
  143.2180  157.4360  132.6220 O   0  0  0  0  0  0  0  0  0  0  0  0
  144.9320  158.7030  133.5990 N   0  0  0  0  0  0  0  0  0  0  0  0
  145.1320  160.0530  133.5710 C   0  0  0  0  0  0  0  0  0  0  0  0
  144.0920  161.0840  133.7150 C   0  0  0  0  0  0  0  0  0  0  0  0
  142.7110  160.7280  133.7110 N   0  0  0  0  0  0  0  0  0  0  0  0
  144.4280  162.2790  133.9240 O   0  0  0  0  0  0  0  0  0  0  0  0
  146.4690  160.3570  133.3490 C   0  0  0  0  0  0  0  0  0  0  0  0
  147.1070  159.1420  133.2680 C   0  0  0  0  0  0  0  0  0  0  0  0
  148.4530  158.8550  133.0790 C   0  0  0  0  0  0  0  0  0  0  0  0
  148.8440  157.5070  133.0600 C   0  0  0  0  0  0  0  0  0  0  0  0
  147.8910  156.4700  133.2360 C   0  0  0  0  0  0  0  0  0  0  0  0
  148.3100  155.0860  133.2310 N   0  0  0  0  0  0  0  0  0  0  0  0
  147.5240  154.0710  133.9520 C   0  0  0  0  0  0  0  0  0  0  0  0
  148.4350  152.9450  134.4520 C   0  0  0  0  0  0  0  0  0  0  0  0
  149.2520  152.2900  133.3080 C   0  0  0  0  0  0  0  0  0  0  0  0
  148.6850  151.0600  132.9270 O   0  0  0  0  0  0  0  0  0  0  0  0
  149.4240  153.2030  132.0730 C   0  0  0  0  0  0  0  0  0  0  0  0
  149.5010  154.6820  132.4650 C   0  0  0  0  0  0  0  0  0  0  0  0
  146.5280  156.8060  133.4200 C   0  0  0  0  0  0  0  0  0  0  0  0
  146.1620  158.1590  133.4230 C   0  0  0  0  0  0  0  0  0  0  0  0
  141.2014  159.4571  131.6113 H   0  0  0  0  0  0  0  0  0  0  0  0
  139.9002  158.3944  130.9754 H   0  0  0  0  0  0  0  0  0  0  0  0
  139.6838  160.1776  130.9754 H   0  0  0  0  0  0  0  0  0  0  0  0
  138.5737  159.8508  132.9307 H   0  0  0  0  0  0  0  0  0  0  0  0
  139.2690  158.1985  133.1428 H   0  0  0  0  0  0  0  0  0  0  0  0
  141.2345  157.0977  135.7752 H   0  0  0  0  0  0  0  0  0  0  0  0
  141.1595  157.2470  133.9801 H   0  0  0  0  0  0  0  0  0  0  0  0
  141.9770  161.4630  133.8110 H   0  0  0  0  0  0  0  0  0  0  0  0
  142.4210  159.7250  133.6540 H   0  0  0  0  0  0  0  0  0  0  0  0
  146.9205  161.3559  133.2576 H   0  0  0  0  0  0  0  0  0  0  0  0
  149.1907  159.6604  132.9481 H   0  0  0  0  0  0  0  0  0  0  0  0
  149.9028  157.2510  132.9067 H   0  0  0  0  0  0  0  0  0  0  0  0
  147.0253  154.5423  134.8117 H   0  0  0  0  0  0  0  0  0  0  0  0
  146.7757  153.6464  133.2666 H   0  0  0  0  0  0  0  0  0  0  0  0
  149.1347  153.3599  135.1924 H   0  0  0  0  0  0  0  0  0  0  0  0
  147.7940  152.1672  134.8927 H   0  0  0  0  0  0  0  0  0  0  0  0
  150.2588  152.1191  133.7167 H   0  0  0  0  0  0  0  0  0  0  0  0
  147.8200  150.9680  133.4070 H   0  0  0  0  0  0  0  0  0  0  0  0
  150.3511  152.9244  131.5506 H   0  0  0  0  0  0  0  0  0  0  0  0
  148.5474  153.0669  131.4225 H   0  0  0  0  0  0  0  0  0  0  0  0
  150.3976  154.8450  133.0810 H   0  0  0  0  0  0  0  0  0  0  0  0
  149.5499  155.2864  131.5472 H   0  0  0  0  0  0  0  0  0  0  0  0
  145.7707  156.0202  133.5580 H   0  0  0  0  0  0  0  0  0  0  0  0
  1  2  1  0
  2  3  1  0
  3  4  1  0
  4  5  2  0
  4  6  1  0
  6  7  1  0
  7  8  1  0
  8  9  2  0
  8 10  1  0
 10 11  1  0
 11 12  1  0
 12 13  1  0
 12 14  2  0
 11 15  2  0
 15 16  1  0
 16 17  2  0
 17 18  1  0
 18 19  2  0
 19 20  1  0
 20 21  1  0
 21 22  1  0
 22 23  1  0
 23 24  1  0
 23 25  1  0
 25 26  1  0
 19 27  1  0
 27 28  2  0
 28 10  1  0
 28 16  1  0
 26 20  1  0
  1 29  1  0
  1 30  1  0
  1 31  1  0
  2 32  1  0
  2 33  1  0
  6 34  1  0
  6 35  1  0
 13 36  1  0
 13 37  1  0
 15 38  1  0
 17 39  1  0
 18 40  1  0
 21 41  1  0
 21 42  1  0
 22 43  1  0
 22 44  1  0
 23 45  1  0
 24 46  1  0
 25 47  1  0
 25 48  1  0
 26 49  1  0
 26 50  1  0
 27 51  1  0
M  CHG  1   7  -1
M  END
>  <UniqueID>  (68) 
68

>  <SMILES>  (68) 
CCOC(=O)C[N-]C(=O)n1c(C(N)=O)cc2ccc(N3CCC(O)CC3)cc21

>  <Energy>  (68) 
93.14888626828173

>  <Genealogy>  (68) 
CCOC(=O)C[N-]C(=O)n1c(C(N)=O)cc2ccc(N3CCC(O)CC3)cc21 (protonated)
CCOC(=O)C[N-]C(=O)n1c(C(N)=O)cc2ccc(N3CCC(O)CC3)cc21 (3D coordinates assigned)
CCOC(=O)C[N-]C(=O)n1c(C(N)=O)cc2ccc(N3CCC(O)CC3)cc21 (nonaromatic ring conformer: 93.14888626828173 kcal/mol)

>  <smiles>  (68) 
CCOC(=O)CNC(=O)n1c(C(N)=O)cc2ccc(N3CCC(O)CC3)cc21

>  <score_type>  (68) 
oracle

>  <origin>  (68) 
adg

>  <m_score__min__energy>  (68) 
-7.8499999999999996

>  <m_primary>  (68) 
energy

$$$$
68:0
     RDKit          3D

 40 41  0  0  0  0  0  0  0  0999 V2000
  142.8640  157.3030  132.6190 C   0  0  0  0  0  0  0  0  0  0  0  0
  141.7390  157.5310  133.5380 N   0  0  0  0  0  0  0  0  0  0  0  0
  141.0400  158.7820  133.2090 C   0  0  0  0  0  0  0  0  0  0  0  0
  140.8190  156.4110  133.4860 C   0  0  0  0  0  0  0  0  0  0  0  0
  139.8910  156.4110  132.6870 O   0  0  0  0  0  0  0  0  0  0  0  0
  140.9750  155.2410  134.4180 C   0  0  0  0  0  0  0  0  0  0  0  0
  141.9790  155.5720  135.4770 C   0  0  0  0  0  0  0  0  0  0  0  0
  143.1810  155.7660  135.1580 O   0  0  0  0  0  0  0  0  0  0  0  0
  141.5590  155.7790  136.8330 N   0  0  0  0  0  0  0  0  0  0  0  0
  141.3260  156.9590  137.4680 C   0  0  0  0  0  0  0  0  0  0  0  0
  141.3570  158.2960  136.8390 C   0  0  0  0  0  0  0  0  0  0  0  0
  142.3540  158.6010  135.8680 N   0  0  0  0  0  0  0  0  0  0  0  0
  140.5230  159.1790  137.1670 O   0  0  0  0  0  0  0  0  0  0  0  0
  140.9850  156.7340  138.8010 C   0  0  0  0  0  0  0  0  0  0  0  0
  141.0150  155.3660  138.9590 C   0  0  0  0  0  0  0  0  0  0  0  0
  140.7600  154.5830  140.0810 C   0  0  0  0  0  0  0  0  0  0  0  0
  140.8770  153.1880  139.9520 C   0  0  0  0  0  0  0  0  0  0  0  0
  141.2570  152.6060  138.7160 C   0  0  0  0  0  0  0  0  0  0  0  0
  141.3510  151.1130  138.5790 C   0  0  0  0  0  0  0  0  0  0  0  0
  140.3430  150.6270  137.5880 C   0  0  0  0  0  0  0  0  0  0  0  0
  140.6140  150.6190  136.3590 O   0  0  0  0  0  0  0  0  0  0  0  0
  139.1140  150.1490  138.0240 O   0  0  0  0  0  0  0  0  0  0  0  0
  141.4970  153.4330  137.5970 C   0  0  0  0  0  0  0  0  0  0  0  0
  141.3630  154.8150  137.7540 C   0  0  0  0  0  0  0  0  0  0  0  0
  143.7798  157.1174  133.1994 H   0  0  0  0  0  0  0  0  0  0  0  0
  142.6485  156.4303  131.9850 H   0  0  0  0  0  0  0  0  0  0  0  0
  143.0053  158.1908  131.9850 H   0  0  0  0  0  0  0  0  0  0  0  0
  142.1260  157.6230  134.5080 H   0  0  0  0  0  0  0  0  0  0  0  0
  140.7525  159.2965  134.1378 H   0  0  0  0  0  0  0  0  0  0  0  0
  141.7063  159.4308  132.6216 H   0  0  0  0  0  0  0  0  0  0  0  0
  140.1382  158.5546  132.6216 H   0  0  0  0  0  0  0  0  0  0  0  0
  140.0066  155.0168  134.8891 H   0  0  0  0  0  0  0  0  0  0  0  0
  141.3199  154.3649  133.8493 H   0  0  0  0  0  0  0  0  0  0  0  0
  142.9850  157.8590  135.4940 H   0  0  0  0  0  0  0  0  0  0  0  0
  140.7434  157.4884  139.5642 H   0  0  0  0  0  0  0  0  0  0  0  0
  140.4756  155.0417  141.0395 H   0  0  0  0  0  0  0  0  0  0  0  0
  140.6718  152.5417  140.8182 H   0  0  0  0  0  0  0  0  0  0  0  0
  142.3601  150.8414  138.2355 H   0  0  0  0  0  0  0  0  0  0  0  0
  141.1517  150.6472  139.5554 H   0  0  0  0  0  0  0  0  0  0  0  0
  141.7821  153.0005  136.6266 H   0  0  0  0  0  0  0  0  0  0  0  0
  1  2  1  0
  2  3  1  0
  2  4  1  0
  4  5  2  0
  4  6  1  0
  6  7  1  0
  7  8  2  0
  7  9  1  0
  9 10  1  0
 10 11  1  0
 11 12  1  0
 11 13  2  0
 10 14  2  0
 14 15  1  0
 15 16  2  0
 16 17  1  0
 17 18  2  0
 18 19  1  0
 19 20  1  0
 20 21  2  0
 20 22  1  0
 18 23  1  0
 23 24  2  0
 24  9  1  0
 24 15  1  0
  1 25  1  0
  1 26  1  0
  1 27  1  0
  2 28  1  0
  3 29  1  0
  3 30  1  0
  3 31  1  0
  6 32  1  0
  6 33  1  0
 12 34  1  0
 14 35  1  0
 16 36  1  0
 17 37  1  0
 19 38  1  0
 19 39  1  0
 23 40  1  0
M  CHG  3   2   1  12  -1  22  -1
M  END
>  <UniqueID>  (69) 
69

>  <SMILES>  (69) 
C[NH+](C)C(=O)CC(=O)n1c(C([NH-])=O)cc2ccc(CC(=O)[O-])cc21

>  <Energy>  (69) 
74.42506759878053

>  <Genealogy>  (69) 
C[NH+](C)C(=O)CC(=O)n1c(C([NH-])=O)cc2ccc(CC(=O)[O-])cc21 (protonated)
C[NH+](C)C(=O)CC(=O)n1c(C([NH-])=O)cc2ccc(CC(=O)[O-])cc21 (3D coordinates assigned)
C[NH+](C)C(=O)CC(=O)n1c(C([NH-])=O)cc2ccc(CC(=O)[O-])cc21 (optimized conformer: 74.42506759878053 kcal/mol)

>  <smiles>  (69) 
CN(C)C(=O)CC(=O)n1c(C(N)=O)cc2ccc(CC(=O)O)cc21

>  <score_type>  (69) 
oracle

>  <origin>  (69) 
adg

>  <m_score__min__energy>  (69) 
-5.8499999999999996

>  <m_primary>  (69) 
energy

$$$$
69:0
     RDKit          3D

 36 38  0  0  0  0  0  0  0  0999 V2000
  149.5440  157.3340  132.2480 N   0  0  0  0  0  0  0  0  0  0  0  0
  149.0590  158.6750  132.2310 C   0  0  0  0  0  0  0  0  0  0  0  0
  149.8050  159.5950  131.8050 O   0  0  0  0  0  0  0  0  0  0  0  0
  147.7070  158.9740  132.7480 C   0  0  0  0  0  0  0  0  0  0  0  0
  147.2420  160.2680  132.9750 C   0  0  0  0  0  0  0  0  0  0  0  0
  145.9290  160.1220  133.3600 C   0  0  0  0  0  0  0  0  0  0  0  0
  144.9900  161.0820  133.7170 C   0  0  0  0  0  0  0  0  0  0  0  0
  143.7100  160.6440  134.0990 C   0  0  0  0  0  0  0  0  0  0  0  0
  143.3930  159.2600  134.1260 C   0  0  0  0  0  0  0  0  0  0  0  0
  142.0420  158.8070  134.5430 C   0  0  0  0  0  0  0  0  0  0  0  0
  141.6760  158.7800  135.8990 C   0  0  0  0  0  0  0  0  0  0  0  0
  140.4020  158.3500  136.2750 C   0  0  0  0  0  0  0  0  0  0  0  0
  139.4980  157.9490  135.2920 C   0  0  0  0  0  0  0  0  0  0  0  0
  139.8600  157.9810  133.9820 N   0  0  0  0  0  0  0  0  0  0  0  0
  141.0950  158.3930  133.5890 C   0  0  0  0  0  0  0  0  0  0  0  0
  144.3800  158.3150  133.7560 C   0  0  0  0  0  0  0  0  0  0  0  0
  145.6390  158.7830  133.3620 C   0  0  0  0  0  0  0  0  0  0  0  0
  146.7220  158.0630  132.9930 N   0  0  0  0  0  0  0  0  0  0  0  0
  146.8080  156.6310  132.9290 C   0  0  0  0  0  0  0  0  0  0  0  0
  147.2300  156.0720  131.8800 O   0  0  0  0  0  0  0  0  0  0  0  0
  146.4490  155.8640  134.0430 O   0  0  0  0  0  0  0  0  0  0  0  0
  147.3610  155.0200  134.7400 C   0  0  0  0  0  0  0  0  0  0  0  0
  146.6350  154.1960  135.7540 C   0  0  0  0  0  0  0  0  0  0  0  0
  145.3830  154.2810  135.8650 O   0  0  0  0  0  0  0  0  0  0  0  0
  147.3450  153.3510  136.5990 O   0  0  0  0  0  0  0  0  0  0  0  0
  149.2690  156.6540  131.5050 H   0  0  0  0  0  0  0  0  0  0  0  0
  147.8051  161.2070  132.8689 H   0  0  0  0  0  0  0  0  0  0  0  0
  145.2408  162.1529  133.7012 H   0  0  0  0  0  0  0  0  0  0  0  0
  142.9447  161.3823  134.3804 H   0  0  0  0  0  0  0  0  0  0  0  0
  142.3957  159.0988  136.6674 H   0  0  0  0  0  0  0  0  0  0  0  0
  140.1142  158.3278  137.3364 H   0  0  0  0  0  0  0  0  0  0  0  0
  138.4920  157.6068  135.5765 H   0  0  0  0  0  0  0  0  0  0  0  0
  141.3545  158.4025  132.5201 H   0  0  0  0  0  0  0  0  0  0  0  0
  144.1624  157.2370  133.7776 H   0  0  0  0  0  0  0  0  0  0  0  0
  147.8603  154.3536  134.0212 H   0  0  0  0  0  0  0  0  0  0  0  0
  148.1054  155.6456  135.2543 H   0  0  0  0  0  0  0  0  0  0  0  0
  1  2  1  0
  2  3  2  0
  2  4  1  0
  4  5  2  0
  5  6  1  0
  6  7  2  0
  7  8  1  0
  8  9  2  0
  9 10  1  0
 10 11  2  0
 11 12  1  0
 12 13  2  0
 13 14  1  0
 14 15  2  0
  9 16  1  0
 16 17  2  0
 17 18  1  0
 18 19  1  0
 19 20  2  0
 19 21  1  0
 21 22  1  0
 22 23  1  0
 23 24  2  0
 23 25  1  0
 18  4  1  0
 17  6  1  0
 15 10  1  0
  1 26  1  0
  5 27  1  0
  7 28  1  0
  8 29  1  0
 11 30  1  0
 12 31  1  0
 13 32  1  0
 15 33  1  0
 16 34  1  0
 22 35  1  0
 22 36  1  0
M  CHG  2   1  -1  25  -1
M  END
>  <UniqueID>  (70) 
70

>  <SMILES>  (70) 
[NH-]C(=O)c1cc2ccc(-c3cccnc3)cc2n1C(=O)OCC(=O)[O-]

>  <Energy>  (70) 
81.30423662904057

>  <Genealogy>  (70) 
[NH-]C(=O)c1cc2ccc(-c3cccnc3)cc2n1C(=O)OCC(=O)[O-] (protonated)
[NH-]C(=O)c1cc2ccc(-c3cccnc3)cc2n1C(=O)OCC(=O)[O-] (3D coordinates assigned)
[NH-]C(=O)c1cc2ccc(-c3cccnc3)cc2n1C(=O)OCC(=O)[O-] (optimized conformer: 81.30423662904057 kcal/mol)

>  <smiles>  (70) 
NC(=O)c1cc2ccc(-c3cccnc3)cc2n1C(=O)OCC(=O)O

>  <score_type>  (70) 
oracle

>  <origin>  (70) 
adg

>  <m_score__min__energy>  (70) 
-7.4800000000000004

>  <m_primary>  (70) 
energy

$$$$
70:0
     RDKit          3D

 42 43  0  0  0  0  0  0  0  0999 V2000
  140.3950  157.2190  132.6920 N   0  0  0  0  0  0  0  0  0  0  0  0
  140.7390  158.3430  133.5000 C   0  0  0  0  0  0  0  0  0  0  0  0
  139.8310  158.9540  134.1230 O   0  0  0  0  0  0  0  0  0  0  0  0
  142.1340  158.8290  133.5790 C   0  0  0  0  0  0  0  0  0  0  0  0
  142.4730  160.1660  133.7810 C   0  0  0  0  0  0  0  0  0  0  0  0
  143.8480  160.2070  133.7150 C   0  0  0  0  0  0  0  0  0  0  0  0
  144.7190  161.2850  133.8420 C   0  0  0  0  0  0  0  0  0  0  0  0
  146.0980  161.0340  133.7390 C   0  0  0  0  0  0  0  0  0  0  0  0
  146.5780  159.7140  133.5370 C   0  0  0  0  0  0  0  0  0  0  0  0
  148.0500  159.4610  133.3830 C   0  0  0  0  0  0  0  0  0  0  0  0
  148.2690  158.0760  132.8660 C   0  0  0  0  0  0  0  0  0  0  0  0
  148.2020  157.8500  131.6240 O   0  0  0  0  0  0  0  0  0  0  0  0
  148.4930  157.0360  133.7740 O   0  0  0  0  0  0  0  0  0  0  0  0
  147.4810  156.1060  134.1430 C   0  0  0  0  0  0  0  0  0  0  0  0
  147.3370  155.0250  133.0600 C   0  0  1  0  0  0  0  0  0  0  0  0
  146.9610  155.6260  131.8470 O   0  0  0  0  0  0  0  0  0  0  0  0
  148.6610  154.2690  132.8570 C   0  0  0  0  0  0  0  0  0  0  0  0
  149.6090  155.0960  132.2360 O   0  0  0  0  0  0  0  0  0  0  0  0
  145.6630  158.6450  133.4080 C   0  0  0  0  0  0  0  0  0  0  0  0
  144.2950  158.9310  133.4880 C   0  0  0  0  0  0  0  0  0  0  0  0
  143.2540  158.0740  133.3970 N   0  0  0  0  0  0  0  0  0  0  0  0
  143.3300  156.6490  133.2210 C   0  0  0  0  0  0  0  0  0  0  0  0
  143.9850  156.1720  132.2560 O   0  0  0  0  0  0  0  0  0  0  0  0
  142.6290  155.7190  134.1650 C   0  0  0  0  0  0  0  0  0  0  0  0
  141.6630  154.9700  133.4740 O   0  0  0  0  0  0  0  0  0  0  0  0
  141.1350  156.6400  132.2310 H   0  0  0  0  0  0  0  0  0  0  0  0
  141.7881  161.0088  133.9559 H   0  0  0  0  0  0  0  0  0  0  0  0
  144.3397  162.3025  134.0176 H   0  0  0  0  0  0  0  0  0  0  0  0
  146.8113  161.8679  133.8156 H   0  0  0  0  0  0  0  0  0  0  0  0
  148.4742  160.1876  132.6745 H   0  0  0  0  0  0  0  0  0  0  0  0
  148.5435  159.5685  134.3602 H   0  0  0  0  0  0  0  0  0  0  0  0
  147.7536  155.6312  135.0971 H   0  0  0  0  0  0  0  0  0  0  0  0
  146.5244  156.6384  134.2498 H   0  0  0  0  0  0  0  0  0  0  0  0
  146.5680  154.3089  133.3854 H   0  0  0  0  0  0  0  0  0  0  0  0
  147.7670  156.0940  131.4960 H   0  0  0  0  0  0  0  0  0  0  0  0
  149.0474  153.9466  133.8351 H   0  0  0  0  0  0  0  0  0  0  0  0
  148.4767  153.3949  132.2151 H   0  0  0  0  0  0  0  0  0  0  0  0
  149.1400  155.9380  131.9990 H   0  0  0  0  0  0  0  0  0  0  0  0
  146.0162  157.6155  133.2490 H   0  0  0  0  0  0  0  0  0  0  0  0
  143.3640  155.0367  134.6168 H   0  0  0  0  0  0  0  0  0  0  0  0
  142.1340  156.3084  134.9508 H   0  0  0  0  0  0  0  0  0  0  0  0
  141.5500  155.4060  132.5860 H   0  0  0  0  0  0  0  0  0  0  0  0
  1  2  1  0
  2  3  2  0
  2  4  1  0
  4  5  2  0
  5  6  1  0
  6  7  2  0
  7  8  1  0
  8  9  2  0
  9 10  1  0
 10 11  1  0
 11 12  2  0
 11 13  1  0
 13 14  1  0
 14 15  1  0
 15 16  1  0
 15 17  1  0
 17 18  1  0
  9 19  1  0
 19 20  2  0
 20 21  1  0
 21 22  1  0
 22 23  2  0
 22 24  1  0
 24 25  1  0
 21  4  1  0
 20  6  1  0
  1 26  1  0
  5 27  1  0
  7 28  1  0
  8 29  1  0
 10 30  1  0
 10 31  1  0
 14 32  1  0
 14 33  1  0
 15 34  1  1
 16 35  1  0
 17 36  1  0
 17 37  1  0
 18 38  1  0
 19 39  1  0
 24 40  1  0
 24 41  1  0
 25 42  1  0
M  CHG  1   1  -1
M  END
>  <UniqueID>  (71) 
71

>  <SMILES>  (71) 
[NH-]C(=O)c1cc2ccc(CC(=O)OC[C@@H](O)CO)cc2n1C(=O)CO

>  <Energy>  (71) 
72.46871438337594

>  <Genealogy>  (71) 
[NH-]C(=O)c1cc2ccc(CC(=O)OCC(O)CO)cc2n1C(=O)CO (protonated)
[NH-]C(=O)c1cc2ccc(CC(=O)OC[C@@H](O)CO)cc2n1C(=O)CO (chirality)
[NH-]C(=O)c1cc2ccc(CC(=O)OC[C@@H](O)CO)cc2n1C(=O)CO (3D coordinates assigned)
[NH-]C(=O)c1cc2ccc(CC(=O)OC[C@@H](O)CO)cc2n1C(=O)CO (optimized conformer: 72.46871438337594 kcal/mol)

>  <smiles>  (71) 
NC(=O)c1cc2ccc(CC(=O)OCC(O)CO)cc2n1C(=O)CO

>  <score_type>  (71) 
oracle

>  <origin>  (71) 
adg

>  <m_score__min__energy>  (71) 
-5.1399999999999997

>  <m_primary>  (71) 
energy

$$$$
71:0
     RDKit          3D

 40 42  0  0  0  0  0  0  0  0999 V2000
  140.8480  155.1800  133.6530 N   0  0  0  0  0  0  0  0  0  0  0  0
  140.6090  156.5350  134.0220 C   0  0  0  0  0  0  0  0  0  0  0  0
  139.4890  156.8530  134.5060 O   0  0  0  0  0  0  0  0  0  0  0  0
  141.6640  157.5600  133.8860 C   0  0  0  0  0  0  0  0  0  0  0  0
  141.4100  158.9300  133.8770 C   0  0  0  0  0  0  0  0  0  0  0  0
  142.6470  159.5320  133.8100 C   0  0  0  0  0  0  0  0  0  0  0  0
  142.9880  160.8800  133.7500 C   0  0  0  0  0  0  0  0  0  0  0  0
  144.3500  161.2100  133.6480 C   0  0  0  0  0  0  0  0  0  0  0  0
  145.3380  160.1940  133.6210 C   0  0  0  0  0  0  0  0  0  0  0  0
  146.7860  160.5530  133.4410 C   0  0  0  0  0  0  0  0  0  0  0  0
  147.5650  159.3440  133.1940 N   0  0  0  0  0  0  0  0  0  0  0  0
  148.0300  158.4850  134.1180 C   0  0  0  0  0  0  0  0  0  0  0  0
  148.7790  157.5370  133.5320 N   0  0  0  0  0  0  0  0  0  0  0  0
  148.7560  157.8670  132.2250 C   0  0  0  0  0  0  0  0  0  0  0  0
  148.0210  158.9780  132.0080 N   0  0  0  0  0  0  0  0  0  0  0  0
  144.9530  158.8370  133.6790 C   0  0  0  0  0  0  0  0  0  0  0  0
  143.5910  158.5410  133.7810 C   0  0  0  0  0  0  0  0  0  0  0  0
  143.0050  157.3250  133.8090 N   0  0  0  0  0  0  0  0  0  0  0  0
  143.6880  156.0610  133.7920 C   0  0  0  0  0  0  0  0  0  0  0  0
  143.5890  155.2960  134.7870 O   0  0  0  0  0  0  0  0  0  0  0  0
  144.4590  155.6050  132.6210 C   0  0  0  0  0  0  0  0  0  0  0  0
  145.5960  154.8940  132.6670 C   0  0  0  0  0  0  0  0  0  0  0  0
  146.2400  154.3620  133.9200 C   0  0  0  0  0  0  0  0  0  0  0  0
  147.5770  154.9860  134.1740 C   0  0  0  0  0  0  0  0  0  0  0  0
  147.7650  155.7210  135.1790 O   0  0  0  0  0  0  0  0  0  0  0  0
  148.5980  154.8240  133.2450 O   0  0  0  0  0  0  0  0  0  0  0  0
  141.6660  154.6550  134.0350 H   0  0  0  0  0  0  0  0  0  0  0  0
  140.4289  159.4259  133.9153 H   0  0  0  0  0  0  0  0  0  0  0  0
  142.2155  161.6625  133.7814 H   0  0  0  0  0  0  0  0  0  0  0  0
  144.6522  162.2660  133.5886 H   0  0  0  0  0  0  0  0  0  0  0  0
  146.8898  161.2361  132.5851 H   0  0  0  0  0  0  0  0  0  0  0  0
  147.1556  161.0448  134.3528 H   0  0  0  0  0  0  0  0  0  0  0  0
  147.8264  158.5495  135.1971 H   0  0  0  0  0  0  0  0  0  0  0  0
  149.2770  156.7380  133.9850 H   0  0  0  0  0  0  0  0  0  0  0  0
  149.2716  157.3017  131.4347 H   0  0  0  0  0  0  0  0  0  0  0  0
  145.7046  158.0345  133.6448 H   0  0  0  0  0  0  0  0  0  0  0  0
  144.0697  155.8697  131.6268 H   0  0  0  0  0  0  0  0  0  0  0  0
  146.0986  154.6825  131.7117 H   0  0  0  0  0  0  0  0  0  0  0  0
  145.5813  154.5741  134.7750 H   0  0  0  0  0  0  0  0  0  0  0  0
  146.3900  153.2800  133.7909 H   0  0  0  0  0  0  0  0  0  0  0  0
  1  2  1  0
  2  3  2  0
  2  4  1  0
  4  5  2  0
  5  6  1  0
  6  7  2  0
  7  8  1  0
  8  9  2  0
  9 10  1  0
 10 11  1  0
 11 12  1  0
 12 13  2  0
 13 14  1  0
 14 15  2  0
  9 16  1  0
 16 17  2  0
 17 18  1  0
 18 19  1  0
 19 20  2  0
 19 21  1  0
 21 22  2  3
 22 23  1  0
 23 24  1  0
 24 25  2  0
 24 26  1  0
 18  4  1  0
 17  6  1  0
 15 11  1  0
  1 27  1  0
  5 28  1  0
  7 29  1  0
  8 30  1  0
 10 31  1  0
 10 32  1  0
 12 33  1  0
 13 34  1  0
 14 35  1  0
 16 36  1  0
 21 37  1  0
 22 38  1  0
 23 39  1  0
 23 40  1  0
M  CHG  3   1  -1  13   1  26  -1
M  END
>  <UniqueID>  (72) 
72

>  <SMILES>  (72) 
[NH-]C(=O)c1cc2ccc(Cn3c[nH+]cn3)cc2n1C(=O)C=CCC(=O)[O-]

>  <Energy>  (72) 
115.76959040794394

>  <Genealogy>  (72) 
[NH-]C(=O)c1cc2ccc(Cn3c[nH+]cn3)cc2n1C(=O)C=CCC(=O)[O-] (protonated)
[NH-]C(=O)c1cc2ccc(Cn3c[nH+]cn3)cc2n1C(=O)C=CCC(=O)[O-] (3D coordinates assigned)
[NH-]C(=O)c1cc2ccc(Cn3c[nH+]cn3)cc2n1C(=O)C=CCC(=O)[O-] (optimized conformer: 115.76959040794394 kcal/mol)

>  <smiles>  (72) 
NC(=O)c1cc2ccc(Cn3cncn3)cc2n1C(=O)C=CCC(=O)O

>  <score_type>  (72) 
oracle

>  <origin>  (72) 
adg

>  <m_score__min__energy>  (72) 
-6.5800000000000001

>  <m_primary>  (72) 
energy

$$$$
72:0
     RDKit          3D

 57 59  0  0  0  0  0  0  0  0999 V2000
  140.6660  158.9410  136.9120 C   0  0  0  0  0  0  0  0  0  0  0  0
  139.5940  158.3080  136.2490 O   0  0  0  0  0  0  0  0  0  0  0  0
  140.0780  157.3040  135.3720 C   0  0  2  0  0  0  0  0  0  0  0  0
  141.6040  157.3800  135.2860 C   0  0  0  0  0  0  0  0  0  0  0  0
  141.9030  158.1580  134.0900 N   0  0  0  0  0  0  0  0  0  0  0  0
  143.2130  158.6870  133.7770 C   0  0  0  0  0  0  0  0  0  0  0  0
  143.4670  160.0860  133.8420 C   0  0  0  0  0  0  0  0  0  0  0  0
  144.7470  160.6070  133.5800 C   0  0  0  0  0  0  0  0  0  0  0  0
  145.7600  159.7140  133.2500 C   0  0  0  0  0  0  0  0  0  0  0  0
  147.0910  159.9410  132.9720 C   0  0  0  0  0  0  0  0  0  0  0  0
  147.6400  158.6800  132.7360 C   0  0  0  0  0  0  0  0  0  0  0  0
  149.0800  158.4550  132.4840 C   0  0  0  0  0  0  0  0  0  0  0  0
  149.5950  157.1510  132.2310 N   0  0  0  0  0  0  0  0  0  0  0  0
  149.8730  159.4370  132.4870 O   0  0  0  0  0  0  0  0  0  0  0  0
  146.6810  157.7150  132.8640 N   0  0  0  0  0  0  0  0  0  0  0  0
  146.8430  156.2910  132.8190 C   0  0  0  0  0  0  0  0  0  0  0  0
  146.0840  155.6030  132.0830 O   0  0  0  0  0  0  0  0  0  0  0  0
  147.8640  155.6770  133.5530 O   0  0  0  0  0  0  0  0  0  0  0  0
  148.0320  154.2610  133.6230 C   0  0  0  0  0  0  0  0  0  0  0  0
  148.9740  153.7900  132.5610 C   0  0  0  0  0  0  0  0  0  0  0  0
  149.9760  154.4930  132.2680 O   0  0  0  0  0  0  0  0  0  0  0  0
  148.7100  152.5840  131.8940 O   0  0  0  0  0  0  0  0  0  0  0  0
  149.1410  151.2780  132.3000 C   0  0  0  0  0  0  0  0  0  0  0  0
  149.6670  151.3100  133.7460 C   0  0  0  0  0  0  0  0  0  0  0  0
  147.9140  150.3580  132.2330 C   0  0  0  0  0  0  0  0  0  0  0  0
  150.2200  150.7400  131.3460 C   0  0  0  0  0  0  0  0  0  0  0  0
  145.5410  158.3650  133.1820 C   0  0  0  0  0  0  0  0  0  0  0  0
  144.2760  157.8160  133.4280 C   0  0  0  0  0  0  0  0  0  0  0  0
  140.7130  158.4100  133.2880 C   0  0  0  0  0  0  0  0  0  0  0  0
  139.5890  157.6100  133.9470 C   0  0  1  0  0  0  0  0  0  0  0  0
  139.3320  156.4240  133.2360 O   0  0  0  0  0  0  0  0  0  0  0  0
  140.5249  158.8577  137.9997 H   0  0  0  0  0  0  0  0  0  0  0  0
  141.6112  158.4561  136.6267 H   0  0  0  0  0  0  0  0  0  0  0  0
  140.6979  160.0029  136.6267 H   0  0  0  0  0  0  0  0  0  0  0  0
  139.7333  156.3279  135.7442 H   0  0  0  0  0  0  0  0  0  0  0  0
  142.0123  157.8783  136.1776 H   0  0  0  0  0  0  0  0  0  0  0  0
  142.0542  156.3776  135.2364 H   0  0  0  0  0  0  0  0  0  0  0  0
  142.6474  160.7722  134.1018 H   0  0  0  0  0  0  0  0  0  0  0  0
  144.9406  161.6884  133.6346 H   0  0  0  0  0  0  0  0  0  0  0  0
  147.6101  160.9104  132.9425 H   0  0  0  0  0  0  0  0  0  0  0  0
  148.9880  156.3970  131.8420 H   0  0  0  0  0  0  0  0  0  0  0  0
  148.4369  153.9933  134.6101 H   0  0  0  0  0  0  0  0  0  0  0  0
  147.0549  153.7797  133.4695 H   0  0  0  0  0  0  0  0  0  0  0  0
  148.8197  151.2585  134.4456 H   0  0  0  0  0  0  0  0  0  0  0  0
  150.3332  150.4507  133.9130 H   0  0  0  0  0  0  0  0  0  0  0  0
  150.2241  152.2437  133.9130 H   0  0  0  0  0  0  0  0  0  0  0  0
  147.5847  150.1111  133.2531 H   0  0  0  0  0  0  0  0  0  0  0  0
  147.1002  150.8704  131.6989 H   0  0  0  0  0  0  0  0  0  0  0  0
  148.1778  149.4332  131.6989 H   0  0  0  0  0  0  0  0  0  0  0  0
  151.0532  150.3246  131.9318 H   0  0  0  0  0  0  0  0  0  0  0  0
  149.7886  149.9515  130.7118 H   0  0  0  0  0  0  0  0  0  0  0  0
  150.5901  151.5590  130.7118 H   0  0  0  0  0  0  0  0  0  0  0  0
  144.1106  156.7312  133.3520 H   0  0  0  0  0  0  0  0  0  0  0  0
  140.4707  159.4830  133.2888 H   0  0  0  0  0  0  0  0  0  0  0  0
  140.8610  158.1119  132.2395 H   0  0  0  0  0  0  0  0  0  0  0  0
  138.6443  158.1733  133.9574 H   0  0  0  0  0  0  0  0  0  0  0  0
  138.3680  156.4200  132.9820 H   0  0  0  0  0  0  0  0  0  0  0  0
  1  2  1  0
  2  3  1  0
  3  4  1  0
  4  5  1  0
  5  6  1  0
  6  7  2  0
  7  8  1  0
  8  9  2  0
  9 10  1  0
 10 11  2  0
 11 12  1  0
 12 13  1  0
 12 14  2  0
 11 15  1  0
 15 16  1  0
 16 17  2  0
 16 18  1  0
 18 19  1  0
 19 20  1  0
 20 21  2  0
 20 22  1  0
 22 23  1  0
 23 24  1  0
 23 25  1  0
 23 26  1  0
 15 27  1  0
 27 28  2  0
  5 29  1  0
 29 30  1  0
 30 31  1  0
 30  3  1  0
 28  6  1  0
 27  9  1  0
  1 32  1  0
  1 33  1  0
  1 34  1  0
  3 35  1  1
  4 36  1  0
  4 37  1  0
  7 38  1  0
  8 39  1  0
 10 40  1  0
 13 41  1  0
 19 42  1  0
 19 43  1  0
 24 44  1  0
 24 45  1  0
 24 46  1  0
 25 47  1  0
 25 48  1  0
 25 49  1  0
 26 50  1  0
 26 51  1  0
 26 52  1  0
 28 53  1  0
 29 54  1  0
 29 55  1  0
 30 56  1  1
 31 57  1  0
M  CHG  1  13  -1
M  END
>  <UniqueID>  (73) 
73

>  <SMILES>  (73) 
CO[C@@H]1CN(c2ccc3cc(C([NH-])=O)n(C(=O)OCC(=O)OC(C)(C)C)c3c2)C[C@H]1O

>  <Energy>  (73) 
94.43509653810534

>  <Genealogy>  (73) 
CO[C@@H]1CN(c2ccc3cc(C([NH-])=O)n(C(=O)OCC(=O)OC(C)(C)C)c3c2)C[C@H]1O (protonated)
CO[C@@H]1CN(c2ccc3cc(C([NH-])=O)n(C(=O)OCC(=O)OC(C)(C)C)c3c2)C[C@H]1O (3D coordinates assigned)
CO[C@@H]1CN(c2ccc3cc(C([NH-])=O)n(C(=O)OCC(=O)OC(C)(C)C)c3c2)C[C@H]1O (nonaromatic ring conformer: 94.43509653810534 kcal/mol)

>  <smiles>  (73) 
CO[C@@H]1CN(c2ccc3cc(C(N)=O)n(C(=O)OCC(=O)OC(C)(C)C)c3c2)C[C@H]1O

>  <score_type>  (73) 
oracle

>  <origin>  (73) 
adg

>  <m_score__min__energy>  (73) 
-8.2599999999999998

>  <m_primary>  (73) 
energy

$$$$
73:0
     RDKit          3D

 46 48  0  0  0  0  0  0  0  0999 V2000
  147.7090  152.9850  133.7440 N   0  0  0  0  0  0  0  0  0  0  0  0
  148.5010  154.0040  133.1330 C   0  0  0  0  0  0  0  0  0  0  0  0
  149.5970  153.6940  132.5940 O   0  0  0  0  0  0  0  0  0  0  0  0
  148.0280  155.4010  133.0630 C   0  0  0  0  0  0  0  0  0  0  0  0
  148.8270  156.4600  132.6410 C   0  0  0  0  0  0  0  0  0  0  0  0
  148.0110  157.5650  132.6730 C   0  0  0  0  0  0  0  0  0  0  0  0
  148.2960  158.8940  132.3810 C   0  0  0  0  0  0  0  0  0  0  0  0
  147.2770  159.8420  132.5660 C   0  0  0  0  0  0  0  0  0  0  0  0
  146.0030  159.4570  133.0490 C   0  0  0  0  0  0  0  0  0  0  0  0
  145.0090  160.4750  133.2770 N   0  0  0  0  0  0  0  0  0  0  0  0
  143.8560  160.3240  134.1700 C   0  0  0  0  0  0  0  0  0  0  0  0
  142.7650  159.4510  133.5330 C   0  0  0  0  0  0  0  0  0  0  0  0
  141.4130  160.1690  133.3610 C   0  0  0  0  0  0  0  0  0  0  0  0
  140.6130  159.6070  132.2500 N   0  0  0  0  0  0  0  0  0  0  0  0
  139.4680  160.4810  131.9000 C   0  0  0  0  0  0  0  0  0  0  0  0
  138.3490  159.6790  131.2160 C   0  0  0  0  0  0  0  0  0  0  0  0
  137.8080  158.6480  132.0330 O   0  0  0  0  0  0  0  0  0  0  0  0
  138.7290  158.1300  132.9840 C   0  0  0  0  0  0  0  0  0  0  0  0
  140.1950  158.2100  132.5270 C   0  0  0  0  0  0  0  0  0  0  0  0
  145.7420  158.0890  133.3060 C   0  0  0  0  0  0  0  0  0  0  0  0
  146.7730  157.1630  133.1050 C   0  0  0  0  0  0  0  0  0  0  0  0
  146.7690  155.8330  133.3540 N   0  0  0  0  0  0  0  0  0  0  0  0
  145.7080  155.0730  133.9610 C   0  0  0  0  0  0  0  0  0  0  0  0
  144.6850  154.7620  133.2970 O   0  0  0  0  0  0  0  0  0  0  0  0
  145.8000  154.6810  135.2910 O   0  0  0  0  0  0  0  0  0  0  0  0
  148.0750  152.0100  133.8170 H   0  0  0  0  0  0  0  0  0  0  0  0
  146.7290  153.1740  134.0500 H   0  0  0  0  0  0  0  0  0  0  0  0
  149.8857  156.4206  132.3451 H   0  0  0  0  0  0  0  0  0  0  0  0
  149.2895  159.1937  132.0162 H   0  0  0  0  0  0  0  0  0  0  0  0
  147.4713  160.8992  132.3323 H   0  0  0  0  0  0  0  0  0  0  0  0
  145.2390  161.4520  132.9840 H   0  0  0  0  0  0  0  0  0  0  0  0
  144.1884  159.8542  135.1075 H   0  0  0  0  0  0  0  0  0  0  0  0
  143.4335  161.3214  134.3618 H   0  0  0  0  0  0  0  0  0  0  0  0
  143.1146  159.1284  132.5412 H   0  0  0  0  0  0  0  0  0  0  0  0
  142.5932  158.6056  134.2155 H   0  0  0  0  0  0  0  0  0  0  0  0
  140.8394  160.0704  134.2944 H   0  0  0  0  0  0  0  0  0  0  0  0
  141.6207  161.2231  133.1249 H   0  0  0  0  0  0  0  0  0  0  0  0
  139.0719  160.9393  132.8182 H   0  0  0  0  0  0  0  0  0  0  0  0
  139.8197  161.2553  131.2023 H   0  0  0  0  0  0  0  0  0  0  0  0
  137.5380  160.3721  130.9478 H   0  0  0  0  0  0  0  0  0  0  0  0
  138.7921  159.1934  130.3340 H   0  0  0  0  0  0  0  0  0  0  0  0
  138.6239  158.7023  133.9175 H   0  0  0  0  0  0  0  0  0  0  0  0
  138.4902  157.0646  133.1176 H   0  0  0  0  0  0  0  0  0  0  0  0
  140.8373  157.7970  133.3187 H   0  0  0  0  0  0  0  0  0  0  0  0
  140.2936  157.6336  131.5953 H   0  0  0  0  0  0  0  0  0  0  0  0
  144.7519  157.7613  133.6556 H   0  0  0  0  0  0  0  0  0  0  0  0
  1  2  1  0
  2  3  2  0
  2  4  1  0
  4  5  2  0
  5  6  1  0
  6  7  2  0
  7  8  1  0
  8  9  2  0
  9 10  1  0
 10 11  1  0
 11 12  1  0
 12 13  1  0
 13 14  1  0
 14 15  1  0
 15 16  1  0
 16 17  1  0
 17 18  1  0
 18 19  1  0
  9 20  1  0
 20 21  2  0
 21 22  1  0
 22 23  1  0
 23 24  2  0
 23 25  1  0
 22  4  1  0
 21  6  1  0
 19 14  1  0
  1 26  1  0
  1 27  1  0
  5 28  1  0
  7 29  1  0
  8 30  1  0
 10 31  1  0
 11 32  1  0
 11 33  1  0
 12 34  1  0
 12 35  1  0
 13 36  1  0
 13 37  1  0
 15 38  1  0
 15 39  1  0
 16 40  1  0
 16 41  1  0
 18 42  1  0
 18 43  1  0
 19 44  1  0
 19 45  1  0
 20 46  1  0
M  CHG  1  25  -1
M  END
>  <UniqueID>  (74) 
74

>  <SMILES>  (74) 
NC(=O)c1cc2ccc(NCCCN3CCOCC3)cc2n1C(=O)[O-]

>  <Energy>  (74) 
97.2662312788736

>  <Genealogy>  (74) 
NC(=O)c1cc2ccc(NCCCN3CCOCC3)cc2n1C(=O)[O-] (protonated)
NC(=O)c1cc2ccc(NCCCN3CCOCC3)cc2n1C(=O)[O-] (3D coordinates assigned)
NC(=O)c1cc2ccc(NCCCN3CCOCC3)cc2n1C(=O)[O-] (nonaromatic ring conformer: 97.2662312788736 kcal/mol)

>  <smiles>  (74) 
NC(=O)c1cc2ccc(NCCCN3CCOCC3)cc2n1C(=O)O

>  <score_type>  (74) 
oracle

>  <origin>  (74) 
adg

>  <m_score__min__energy>  (74) 
-7.71

>  <m_primary>  (74) 
energy

$$$$
74:0
     RDKit          3D

 46 48  0  0  0  0  0  0  0  0999 V2000
  149.6610  152.0780  132.7850 C   0  0  0  0  0  0  0  0  0  0  0  0
  149.6920  153.4950  132.2250 C   0  0  0  0  0  0  0  0  0  0  0  0
  149.0630  154.3920  133.1220 O   0  0  0  0  0  0  0  0  0  0  0  0
  148.0550  153.7310  133.8590 C   0  0  0  0  0  0  0  0  0  0  0  0
  146.7880  153.6550  133.0200 C   0  0  0  0  0  0  0  0  0  0  0  0
  146.6600  154.8510  132.2760 O   0  0  0  0  0  0  0  0  0  0  0  0
  145.4800  155.5430  132.6400 C   0  0  0  0  0  0  0  0  0  0  0  0
  145.7130  156.4820  133.7960 C   0  0  0  0  0  0  0  0  0  0  0  0
  145.9360  155.9960  134.9380 O   0  0  0  0  0  0  0  0  0  0  0  0
  145.7330  157.9080  133.6180 N   0  0  0  0  0  0  0  0  0  0  0  0
  146.8210  158.6970  133.3940 C   0  0  0  0  0  0  0  0  0  0  0  0
  148.2160  158.2350  133.2160 C   0  0  0  0  0  0  0  0  0  0  0  0
  148.5940  156.8730  133.4290 N   0  0  0  0  0  0  0  0  0  0  0  0
  149.0880  159.0560  132.8260 O   0  0  0  0  0  0  0  0  0  0  0  0
  146.4510  160.0400  133.3680 C   0  0  0  0  0  0  0  0  0  0  0  0
  145.0930  160.0490  133.5910 C   0  0  0  0  0  0  0  0  0  0  0  0
  144.2120  161.1190  133.6930 C   0  0  0  0  0  0  0  0  0  0  0  0
  142.8650  160.8380  133.9790 C   0  0  0  0  0  0  0  0  0  0  0  0
  142.4230  159.4980  134.1770 C   0  0  0  0  0  0  0  0  0  0  0  0
  140.9880  159.1260  134.5070 C   0  0  0  0  0  0  0  0  0  0  0  0
  140.7440  157.7430  135.0940 C   0  0  0  0  0  0  0  0  0  0  0  0
  140.6240  158.9790  135.9780 C   0  0  0  0  0  0  0  0  0  0  0  0
  143.3600  158.4450  134.0720 C   0  0  0  0  0  0  0  0  0  0  0  0
  144.6860  158.7520  133.7510 C   0  0  0  0  0  0  0  0  0  0  0  0
  149.6619  152.1181  133.8843 H   0  0  0  0  0  0  0  0  0  0  0  0
  148.7514  151.5662  132.4375 H   0  0  0  0  0  0  0  0  0  0  0  0
  150.5473  151.5269  132.4375 H   0  0  0  0  0  0  0  0  0  0  0  0
  150.7373  153.8037  132.0766 H   0  0  0  0  0  0  0  0  0  0  0  0
  149.1540  153.5124  131.2657 H   0  0  0  0  0  0  0  0  0  0  0  0
  148.3907  152.7142  134.1109 H   0  0  0  0  0  0  0  0  0  0  0  0
  147.8509  154.2872  134.7858 H   0  0  0  0  0  0  0  0  0  0  0  0
  146.8503  152.7977  132.3335 H   0  0  0  0  0  0  0  0  0  0  0  0
  145.9136  153.5278  133.6752 H   0  0  0  0  0  0  0  0  0  0  0  0
  145.1275  156.1242  131.7752 H   0  0  0  0  0  0  0  0  0  0  0  0
  144.7308  154.7997  132.9502 H   0  0  0  0  0  0  0  0  0  0  0  0
  147.8860  156.1210  133.5600 H   0  0  0  0  0  0  0  0  0  0  0  0
  149.5980  156.5950  133.3530 H   0  0  0  0  0  0  0  0  0  0  0  0
  147.1055  160.9088  133.2040 H   0  0  0  0  0  0  0  0  0  0  0  0
  144.5583  162.1538  133.5542 H   0  0  0  0  0  0  0  0  0  0  0  0
  142.1420  161.6639  134.0510 H   0  0  0  0  0  0  0  0  0  0  0  0
  140.5800  159.6947  133.6584 H   0  0  0  0  0  0  0  0  0  0  0  0
  139.8430  157.1776  134.8137 H   0  0  0  0  0  0  0  0  0  0  0  0
  141.3175  156.8055  135.1411 H   0  0  0  0  0  0  0  0  0  0  0  0
  139.6364  159.3058  136.3357 H   0  0  0  0  0  0  0  0  0  0  0  0
  141.0750  159.3034  136.9274 H   0  0  0  0  0  0  0  0  0  0  0  0
  143.0516  157.4025  134.2398 H   0  0  0  0  0  0  0  0  0  0  0  0
  1  2  1  0
  2  3  1  0
  3  4  1  0
  4  5  1  0
  5  6  1  0
  6  7  1  0
  7  8  1  0
  8  9  2  0
  8 10  1  0
 10 11  1  0
 11 12  1  0
 12 13  1  0
 12 14  2  0
 11 15  2  0
 15 16  1  0
 16 17  2  0
 17 18  1  0
 18 19  2  0
 19 20  1  0
 20 21  1  0
 21 22  1  0
 19 23  1  0
 23 24  2  0
 24 10  1  0
 24 16  1  0
 22 20  1  0
  1 25  1  0
  1 26  1  0
  1 27  1  0
  2 28  1  0
  2 29  1  0
  4 30  1  0
  4 31  1  0
  5 32  1  0
  5 33  1  0
  7 34  1  0
  7 35  1  0
 13 36  1  0
 13 37  1  0
 15 38  1  0
 17 39  1  0
 18 40  1  0
 20 41  1  0
 21 42  1  0
 21 43  1  0
 22 44  1  0
 22 45  1  0
 23 46  1  0
M  END
>  <UniqueID>  (75) 
75

>  <SMILES>  (75) 
CCOCCOCC(=O)n1c(C(N)=O)cc2ccc(C3CC3)cc21

>  <Energy>  (75) 
352.71842205845417

>  <Genealogy>  (75) 
CCOCCOCC(=O)n1c(C(N)=O)cc2ccc(C3CC3)cc21 (3D coordinates assigned)
CCOCCOCC(=O)n1c(C(N)=O)cc2ccc(C3CC3)cc21 (nonaromatic ring conformer: 352.71842205845417 kcal/mol)

>  <smiles>  (75) 
CCOCCOCC(=O)n1c(C(N)=O)cc2ccc(C3CC3)cc21

>  <score_type>  (75) 
oracle

>  <origin>  (75) 
adg

>  <m_score__min__energy>  (75) 
-6.6699999999999999

>  <m_primary>  (75) 
energy

$$$$
75:0
     RDKit          3D

 50 51  0  0  0  0  0  0  0  0999 V2000
  139.1440  149.7910  131.8680 C   0  0  0  0  0  0  0  0  0  0  0  0
  140.2620  149.1910  132.5120 O   0  0  0  0  0  0  0  0  0  0  0  0
  141.4990  149.8290  132.6220 C   0  0  0  0  0  0  0  0  0  0  0  0
  142.5290  149.3240  132.0940 O   0  0  0  0  0  0  0  0  0  0  0  0
  141.5800  151.0310  133.3290 O   0  0  0  0  0  0  0  0  0  0  0  0
  141.8090  152.2860  132.6970 C   0  0  0  0  0  0  0  0  0  0  0  0
  140.6280  153.0790  132.7600 O   0  0  0  0  0  0  0  0  0  0  0  0
  140.6450  154.4270  133.1320 C   0  0  0  0  0  0  0  0  0  0  0  0
  139.8120  155.2390  132.6460 O   0  0  0  0  0  0  0  0  0  0  0  0
  141.6310  154.8940  134.1540 C   0  0  0  0  0  0  0  0  0  0  0  0
  141.7260  156.3930  134.1240 C   0  0  0  0  0  0  0  0  0  0  0  0
  140.5750  157.1850  134.3580 C   0  0  0  0  0  0  0  0  0  0  0  0
  140.6590  158.5870  134.3630 C   0  0  0  0  0  0  0  0  0  0  0  0
  141.9070  159.1660  134.1500 C   0  0  0  0  0  0  0  0  0  0  0  0
  142.2700  160.4920  134.0930 C   0  0  0  0  0  0  0  0  0  0  0  0
  143.6430  160.4910  133.8610 C   0  0  0  0  0  0  0  0  0  0  0  0
  144.4630  161.7200  133.8220 C   0  0  0  0  0  0  0  0  0  0  0  0
  145.8580  161.6500  134.1150 N   0  0  0  0  0  0  0  0  0  0  0  0
  143.9570  162.8250  133.4970 O   0  0  0  0  0  0  0  0  0  0  0  0
  144.1110  159.2130  133.7690 N   0  0  0  0  0  0  0  0  0  0  0  0
  145.4510  158.7770  133.4870 C   0  0  0  0  0  0  0  0  0  0  0  0
  145.9290  157.7860  134.1010 O   0  0  0  0  0  0  0  0  0  0  0  0
  146.2190  159.4820  132.5480 O   0  0  0  0  0  0  0  0  0  0  0  0
  147.6390  159.3940  132.3710 C   0  0  0  0  0  0  0  0  0  0  0  0
  148.2820  159.7340  133.7240 C   0  0  0  0  0  0  0  0  0  0  0  0
  148.1180  160.4120  131.3200 C   0  0  0  0  0  0  0  0  0  0  0  0
  148.0500  157.9640  131.9740 C   0  0  0  0  0  0  0  0  0  0  0  0
  143.0360  158.4140  133.9490 C   0  0  0  0  0  0  0  0  0  0  0  0
  142.9770  157.0160  133.9180 C   0  0  0  0  0  0  0  0  0  0  0  0
  138.4423  150.1676  132.6268 H   0  0  0  0  0  0  0  0  0  0  0  0
  139.4874  150.6260  131.2396 H   0  0  0  0  0  0  0  0  0  0  0  0
  138.6380  149.0433  131.2396 H   0  0  0  0  0  0  0  0  0  0  0  0
  142.6286  152.8097  133.2108 H   0  0  0  0  0  0  0  0  0  0  0  0
  142.0793  152.1190  131.6439 H   0  0  0  0  0  0  0  0  0  0  0  0
  141.3032  154.5691  135.1525 H   0  0  0  0  0  0  0  0  0  0  0  0
  142.6179  154.4636  133.9288 H   0  0  0  0  0  0  0  0  0  0  0  0
  139.6057  156.6970  134.5376 H   0  0  0  0  0  0  0  0  0  0  0  0
  139.7666  159.2081  134.5300 H   0  0  0  0  0  0  0  0  0  0  0  0
  141.6142  161.3678  134.2067 H   0  0  0  0  0  0  0  0  0  0  0  0
  146.5560  161.4700  133.3600 H   0  0  0  0  0  0  0  0  0  0  0  0
  147.6280  159.3882  134.5380 H   0  0  0  0  0  0  0  0  0  0  0  0
  149.2591  159.2347  133.8014 H   0  0  0  0  0  0  0  0  0  0  0  0
  148.4194  160.8226  133.8014 H   0  0  0  0  0  0  0  0  0  0  0  0
  148.5335  161.2950  131.8276 H   0  0  0  0  0  0  0  0  0  0  0  0
  148.8940  159.9518  130.6908 H   0  0  0  0  0  0  0  0  0  0  0  0
  147.2687  160.7165  130.6908 H   0  0  0  0  0  0  0  0  0  0  0  0
  148.2217  157.3666  132.8815 H   0  0  0  0  0  0  0  0  0  0  0  0
  147.2477  157.5039  131.3785 H   0  0  0  0  0  0  0  0  0  0  0  0
  148.9741  158.0001  131.3785 H   0  0  0  0  0  0  0  0  0  0  0  0
  143.8821  156.4174  133.7377 H   0  0  0  0  0  0  0  0  0  0  0  0
  1  2  1  0
  2  3  1  0
  3  4  2  0
  3  5  1  0
  5  6  1  0
  6  7  1  0
  7  8  1  0
  8  9  2  0
  8 10  1  0
 10 11  1  0
 11 12  2  0
 12 13  1  0
 13 14  2  0
 14 15  1  0
 15 16  2  0
 16 17  1  0
 17 18  1  0
 17 19  2  0
 16 20  1  0
 20 21  1  0
 21 22  2  0
 21 23  1  0
 23 24  1  0
 24 25  1  0
 24 26  1  0
 24 27  1  0
 20 28  1  0
 28 29  2  0
 29 11  1  0
 28 14  1  0
  1 30  1  0
  1 31  1  0
  1 32  1  0
  6 33  1  0
  6 34  1  0
 10 35  1  0
 10 36  1  0
 12 37  1  0
 13 38  1  0
 15 39  1  0
 18 40  1  0
 25 41  1  0
 25 42  1  0
 25 43  1  0
 26 44  1  0
 26 45  1  0
 26 46  1  0
 27 47  1  0
 27 48  1  0
 27 49  1  0
 29 50  1  0
M  CHG  1  18  -1
M  END
>  <UniqueID>  (76) 
76

>  <SMILES>  (76) 
COC(=O)OCOC(=O)Cc1ccc2cc(C([NH-])=O)n(C(=O)OC(C)(C)C)c2c1

>  <Energy>  (76) 
73.48226990419765

>  <Genealogy>  (76) 
COC(=O)OCOC(=O)Cc1ccc2cc(C([NH-])=O)n(C(=O)OC(C)(C)C)c2c1 (protonated)
COC(=O)OCOC(=O)Cc1ccc2cc(C([NH-])=O)n(C(=O)OC(C)(C)C)c2c1 (3D coordinates assigned)
COC(=O)OCOC(=O)Cc1ccc2cc(C([NH-])=O)n(C(=O)OC(C)(C)C)c2c1 (optimized conformer: 73.48226990419765 kcal/mol)

>  <smiles>  (76) 
COC(=O)OCOC(=O)Cc1ccc2cc(C(N)=O)n(C(=O)OC(C)(C)C)c2c1

>  <score_type>  (76) 
oracle

>  <origin>  (76) 
adg

>  <m_score__min__energy>  (76) 
-6.8399999999999999

>  <m_primary>  (76) 
energy

$$$$
76:0
     RDKit          3D

 49 50  0  0  0  0  0  0  0  0999 V2000
  149.6250  157.1140  132.9950 H   0  0  0  0  0  0  0  0  0  0  0  0
  149.4110  157.8110  132.2480 N   0  0  0  0  0  0  0  0  0  0  0  0
  148.6200  158.9670  132.5260 C   0  0  0  0  0  0  0  0  0  0  0  0
  149.1640  160.1030  132.5250 O   0  0  0  0  0  0  0  0  0  0  0  0
  147.1880  158.8410  132.8680 C   0  0  0  0  0  0  0  0  0  0  0  0
  146.2690  159.8750  132.7020 C   0  0  0  0  0  0  0  0  0  0  0  0
  146.4468  160.8573  132.2400 H   0  0  0  0  0  0  0  0  0  0  0  0
  145.0930  159.4070  133.2380 C   0  0  0  0  0  0  0  0  0  0  0  0
  143.8590  160.0350  133.3550 C   0  0  0  0  0  0  0  0  0  0  0  0
  143.7031  161.0558  132.9759 H   0  0  0  0  0  0  0  0  0  0  0  0
  142.8170  159.3240  133.9730 C   0  0  0  0  0  0  0  0  0  0  0  0
  141.8308  159.7973  134.0883 H   0  0  0  0  0  0  0  0  0  0  0  0
  143.0200  158.0020  134.4510 C   0  0  0  0  0  0  0  0  0  0  0  0
  141.9490  157.2960  135.1110 N   0  0  0  0  0  0  0  0  0  0  0  0
  142.1100  155.8770  135.4490 C   0  0  0  0  0  0  0  0  0  0  0  0
  142.1233  155.7598  136.5427 H   0  0  0  0  0  0  0  0  0  0  0  0
  141.2713  155.3025  135.0289 H   0  0  0  0  0  0  0  0  0  0  0  0
  143.0561  155.5050  135.0289 H   0  0  0  0  0  0  0  0  0  0  0  0
  140.7530  158.0320  135.5560 C   0  0  0  0  0  0  0  0  0  0  0  0
  140.6438  157.9068  136.6434 H   0  0  0  0  0  0  0  0  0  0  0  0
  140.8872  159.0902  135.2874 H   0  0  0  0  0  0  0  0  0  0  0  0
  139.4720  157.5270  134.8670 C   0  0  0  0  0  0  0  0  0  0  0  0
  139.1859  156.5565  135.2987 H   0  0  0  0  0  0  0  0  0  0  0  0
  138.6674  158.2604  135.0242 H   0  0  0  0  0  0  0  0  0  0  0  0
  139.7010  157.3670  133.4160 N   0  0  0  0  0  0  0  0  0  0  0  0
  139.5110  155.9700  132.9920 C   0  0  0  0  0  0  0  0  0  0  0  0
  139.4234  155.3261  133.8796 H   0  0  0  0  0  0  0  0  0  0  0  0
  138.5939  155.8911  132.3898 H   0  0  0  0  0  0  0  0  0  0  0  0
  140.3738  155.6490  132.3898 H   0  0  0  0  0  0  0  0  0  0  0  0
  138.8440  158.2600  132.6260 C   0  0  0  0  0  0  0  0  0  0  0  0
  138.2436  158.8856  133.3029 H   0  0  0  0  0  0  0  0  0  0  0  0
  139.4712  158.9036  131.9916 H   0  0  0  0  0  0  0  0  0  0  0  0
  138.1752  157.6598  131.9916 H   0  0  0  0  0  0  0  0  0  0  0  0
  144.2940  157.3950  134.3030 C   0  0  0  0  0  0  0  0  0  0  0  0
  144.4730  156.3676  134.6528 H   0  0  0  0  0  0  0  0  0  0  0  0
  145.3170  158.1360  133.7010 C   0  0  0  0  0  0  0  0  0  0  0  0
  146.5960  157.7700  133.4660 N   0  0  0  0  0  0  0  0  0  0  0  0
  147.1920  156.4880  133.7500 C   0  0  0  0  0  0  0  0  0  0  0  0
  148.2080  156.4200  134.4940 O   0  0  0  0  0  0  0  0  0  0  0  0
  146.6870  155.2580  133.1110 C   0  0  0  0  0  0  0  0  0  0  0  0
  146.8626  155.1263  132.0331 H   0  0  0  0  0  0  0  0  0  0  0  0
  146.0230  154.2850  133.7680 C   0  0  0  0  0  0  0  0  0  0  0  0
  145.9920  154.2250  135.2400 C   0  0  0  0  0  0  0  0  0  0  0  0
  145.1440  154.9110  135.8820 O   0  0  0  0  0  0  0  0  0  0  0  0
  146.9640  153.5040  135.9300 O   0  0  0  0  0  0  0  0  0  0  0  0
  145.4630  153.1260  133.0030 C   0  0  0  0  0  0  0  0  0  0  0  0
  145.0954  152.3651  133.7072 H   0  0  0  0  0  0  0  0  0  0  0  0
  144.6324  153.4715  132.3699 H   0  0  0  0  0  0  0  0  0  0  0  0
  146.2498  152.6900  132.3699 H   0  0  0  0  0  0  0  0  0  0  0  0
  1  2  1  0
  2  3  1  0
  3  4  2  0
  3  5  1  0
  5  6  2  0
  6  7  1  0
  6  8  1  0
  8  9  2  0
  9 10  1  0
  9 11  1  0
 11 12  1  0
 11 13  2  0
 13 14  1  0
 14 15  1  0
 15 16  1  0
 15 17  1  0
 15 18  1  0
 14 19  1  0
 19 20  1  0
 19 21  1  0
 19 22  1  0
 22 23  1  0
 22 24  1  0
 22 25  1  0
 25 26  1  0
 26 27  1  0
 26 28  1  0
 26 29  1  0
 25 30  1  0
 30 31  1  0
 30 32  1  0
 30 33  1  0
 13 34  1  0
 34 35  1  0
 34 36  2  0
 36 37  1  0
 37 38  1  0
 38 39  2  0
 38 40  1  0
 40 41  1  0
 40 42  2  0
 42 43  1  0
 43 44  2  0
 43 45  1  0
 42 46  1  0
 46 47  1  0
 46 48  1  0
 46 49  1  0
 37  5  1  0
 36  8  1  0
M  CHG  2   2  -1  45  -1
M  END
>  <UniqueID>  (77) 
77

>  <SMILES>  (77) 
C/C(=C/C(=O)n1c(C([NH-])=O)cc2ccc(N(C)CCN(C)C)cc21)C(=O)[O-]

>  <Energy>  (77) 
100.88943337315018

>  <Genealogy>  (77) 
CC(=CC(=O)n1c(C([NH-])=O)cc2ccc(N(C)CCN(C)C)cc21)C(=O)[O-] (protonated)
C/C(=C/C(=O)n1c(C([NH-])=O)cc2ccc(N(C)CCN(C)C)cc21)C(=O)[O-] (cis-trans isomerization)
C/C(=C/C(=O)n1c(C([NH-])=O)cc2ccc(N(C)CCN(C)C)cc21)C(=O)[O-] (3D coordinates assigned)
C/C(=C/C(=O)n1c(C([NH-])=O)cc2ccc(N(C)CCN(C)C)cc21)C(=O)[O-] (optimized conformer: 100.88943337315018 kcal/mol)

>  <smiles>  (77) 
CC(=CC(=O)n1c(C(N)=O)cc2ccc(N(C)CCN(C)C)cc21)C(=O)O

>  <score_type>  (77) 
oracle

>  <origin>  (77) 
adg

>  <m_score__min__energy>  (77) 
-7.5099999999999998

>  <m_primary>  (77) 
energy

$$$$
77:0
     RDKit          3D

 39 40  0  0  0  0  0  0  0  0999 V2000
  149.6740  159.6710  129.7080 C   0  0  0  0  0  0  0  0  0  0  0  0
  149.0910  159.9050  131.0330 N   0  0  0  0  0  0  0  0  0  0  0  0
  148.4710  161.2000  131.3350 C   0  0  0  0  0  0  0  0  0  0  0  0
  149.2270  158.8790  132.0440 C   0  0  0  0  0  0  0  0  0  0  0  0
  150.0550  157.9450  131.8660 O   0  0  0  0  0  0  0  0  0  0  0  0
  148.4280  158.8730  133.2910 C   0  0  0  0  0  0  0  0  0  0  0  0
  148.8470  159.4610  134.3230 O   0  0  0  0  0  0  0  0  0  0  0  0
  147.1270  158.2650  133.3110 N   0  0  0  0  0  0  0  0  0  0  0  0
  145.9210  158.8670  133.5190 C   0  0  0  0  0  0  0  0  0  0  0  0
  145.6860  160.3210  133.6380 C   0  0  0  0  0  0  0  0  0  0  0  0
  146.7750  161.2360  133.7180 N   0  0  0  0  0  0  0  0  0  0  0  0
  144.5080  160.7650  133.6330 O   0  0  0  0  0  0  0  0  0  0  0  0
  144.9020  157.9170  133.5350 C   0  0  0  0  0  0  0  0  0  0  0  0
  145.5260  156.7080  133.3190 C   0  0  0  0  0  0  0  0  0  0  0  0
  144.9950  155.4270  133.2430 C   0  0  0  0  0  0  0  0  0  0  0  0
  145.8790  154.3570  133.0280 C   0  0  0  0  0  0  0  0  0  0  0  0
  147.2820  154.5750  132.8980 C   0  0  0  0  0  0  0  0  0  0  0  0
  148.1870  153.4610  132.6850 N   0  0  0  0  0  0  0  0  0  0  0  0
  147.6770  152.0870  132.6050 C   0  0  0  0  0  0  0  0  0  0  0  0
  149.6320  153.6900  132.5430 C   0  0  0  0  0  0  0  0  0  0  0  0
  147.7740  155.9030  132.9840 C   0  0  0  0  0  0  0  0  0  0  0  0
  146.8660  156.9470  133.1850 C   0  0  0  0  0  0  0  0  0  0  0  0
  150.6894  159.2634  129.8210 H   0  0  0  0  0  0  0  0  0  0  0  0
  149.0504  158.9535  129.1545 H   0  0  0  0  0  0  0  0  0  0  0  0
  149.7195  160.6205  129.1545 H   0  0  0  0  0  0  0  0  0  0  0  0
  148.4082  161.3311  132.4254 H   0  0  0  0  0  0  0  0  0  0  0  0
  149.0800  162.0078  130.9030 H   0  0  0  0  0  0  0  0  0  0  0  0
  147.4599  161.2321  130.9030 H   0  0  0  0  0  0  0  0  0  0  0  0
  147.5540  161.0880  134.3960 H   0  0  0  0  0  0  0  0  0  0  0  0
  143.8272  158.0947  133.6877 H   0  0  0  0  0  0  0  0  0  0  0  0
  143.9136  155.2554  133.3481 H   0  0  0  0  0  0  0  0  0  0  0  0
  145.4822  153.3334  132.9587 H   0  0  0  0  0  0  0  0  0  0  0  0
  147.5299  151.6908  133.6206 H   0  0  0  0  0  0  0  0  0  0  0  0
  146.7174  152.0828  132.0672 H   0  0  0  0  0  0  0  0  0  0  0  0
  148.4014  151.4577  132.0672 H   0  0  0  0  0  0  0  0  0  0  0  0
  150.0914  153.7628  133.5398 H   0  0  0  0  0  0  0  0  0  0  0  0
  150.0836  152.8522  131.9915 H   0  0  0  0  0  0  0  0  0  0  0  0
  149.8024  154.6264  131.9915 H   0  0  0  0  0  0  0  0  0  0  0  0
  148.8511  156.1076  132.8941 H   0  0  0  0  0  0  0  0  0  0  0  0
  1  2  1  0
  2  3  1  0
  2  4  1  0
  4  5  2  0
  4  6  1  0
  6  7  2  0
  6  8  1  0
  8  9  1  0
  9 10  1  0
 10 11  1  0
 10 12  2  0
  9 13  2  0
 13 14  1  0
 14 15  2  0
 15 16  1  0
 16 17  2  0
 17 18  1  0
 18 19  1  0
 18 20  1  0
 17 21  1  0
 21 22  2  0
 22  8  1  0
 22 14  1  0
  1 23  1  0
  1 24  1  0
  1 25  1  0
  3 26  1  0
  3 27  1  0
  3 28  1  0
 11 29  1  0
 13 30  1  0
 15 31  1  0
 16 32  1  0
 19 33  1  0
 19 34  1  0
 19 35  1  0
 20 36  1  0
 20 37  1  0
 20 38  1  0
 21 39  1  0
M  CHG  1  11  -1
M  END
>  <UniqueID>  (78) 
78

>  <SMILES>  (78) 
CN(C)C(=O)C(=O)n1c(C([NH-])=O)cc2ccc(N(C)C)cc21

>  <Energy>  (78) 
80.07411124168226

>  <Genealogy>  (78) 
CN(C)C(=O)C(=O)n1c(C([NH-])=O)cc2ccc(N(C)C)cc21 (protonated)
CN(C)C(=O)C(=O)n1c(C([NH-])=O)cc2ccc(N(C)C)cc21 (3D coordinates assigned)
CN(C)C(=O)C(=O)n1c(C([NH-])=O)cc2ccc(N(C)C)cc21 (optimized conformer: 80.07411124168226 kcal/mol)

>  <smiles>  (78) 
CN(C)C(=O)C(=O)n1c(C(N)=O)cc2ccc(N(C)C)cc21

>  <score_type>  (78) 
oracle

>  <origin>  (78) 
adg

>  <m_score__min__energy>  (78) 
-6.2800000000000002

>  <m_primary>  (78) 
energy

$$$$
78:0
     RDKit          3D

 43 44  0  0  0  0  0  0  0  0999 V2000
  150.8710  149.7780  129.6900 C   0  0  0  0  0  0  0  0  0  0  0  0
  149.9700  150.7120  130.2710 O   0  0  0  0  0  0  0  0  0  0  0  0
  150.0260  151.0770  131.6210 C   0  0  0  0  0  0  0  0  0  0  0  0
  151.0830  150.8860  132.2830 O   0  0  0  0  0  0  0  0  0  0  0  0
  148.8770  151.6750  132.2470 N   0  0  0  0  0  0  0  0  0  0  0  0
  147.5410  151.1750  131.9050 C   0  0  0  0  0  0  0  0  0  0  0  0
  149.0330  152.7800  133.2060 C   0  0  0  0  0  0  0  0  0  0  0  0
  149.0560  154.1380  132.4930 C   0  0  0  0  0  0  0  0  0  0  0  0
  147.8730  154.9830  132.8850 C   0  0  0  0  0  0  0  0  0  0  0  0
  146.6480  154.3690  133.2480 C   0  0  0  0  0  0  0  0  0  0  0  0
  145.5220  155.1500  133.5640 C   0  0  0  0  0  0  0  0  0  0  0  0
  145.6470  156.5350  133.4910 C   0  0  0  0  0  0  0  0  0  0  0  0
  144.7250  157.5280  133.7370 C   0  0  0  0  0  0  0  0  0  0  0  0
  145.3960  158.7260  133.4930 C   0  0  0  0  0  0  0  0  0  0  0  0
  144.7600  160.0570  133.5750 C   0  0  0  0  0  0  0  0  0  0  0  0
  145.5360  161.2270  133.8230 N   0  0  0  0  0  0  0  0  0  0  0  0
  143.5180  160.1680  133.3930 O   0  0  0  0  0  0  0  0  0  0  0  0
  146.6830  158.4800  133.1180 N   0  0  0  0  0  0  0  0  0  0  0  0
  147.7170  159.4250  132.8220 C   0  0  0  0  0  0  0  0  0  0  0  0
  148.2220  160.1100  133.7520 O   0  0  0  0  0  0  0  0  0  0  0  0
  148.1120  159.6950  131.4040 C   0  0  0  0  0  0  0  0  0  0  0  0
  149.5480  159.3340  131.2040 C   0  0  0  0  0  0  0  0  0  0  0  0
  150.0520  158.3690  131.8360 O   0  0  0  0  0  0  0  0  0  0  0  0
  150.3470  160.0960  130.3610 O   0  0  0  0  0  0  0  0  0  0  0  0
  146.8200  157.1380  133.1200 C   0  0  0  0  0  0  0  0  0  0  0  0
  147.9600  156.3910  132.8210 C   0  0  0  0  0  0  0  0  0  0  0  0
  151.3976  149.2322  130.4867 H   0  0  0  0  0  0  0  0  0  0  0  0
  150.3098  149.0661  129.0669 H   0  0  0  0  0  0  0  0  0  0  0  0
  151.6026  150.3132  129.0669 H   0  0  0  0  0  0  0  0  0  0  0  0
  146.9806  150.9653  132.8280 H   0  0  0  0  0  0  0  0  0  0  0  0
  147.0055  151.9336  131.3153 H   0  0  0  0  0  0  0  0  0  0  0  0
  147.6351  150.2512  131.3153 H   0  0  0  0  0  0  0  0  0  0  0  0
  148.1915  152.7613  133.9141 H   0  0  0  0  0  0  0  0  0  0  0  0
  149.9890  152.6490  133.7340 H   0  0  0  0  0  0  0  0  0  0  0  0
  149.9807  154.6689  132.7635 H   0  0  0  0  0  0  0  0  0  0  0  0
  149.0114  153.9609  131.4083 H   0  0  0  0  0  0  0  0  0  0  0  0
  146.5775  153.2718  133.2828 H   0  0  0  0  0  0  0  0  0  0  0  0
  144.5718  154.6813  133.8597 H   0  0  0  0  0  0  0  0  0  0  0  0
  143.6804  157.4027  134.0580 H   0  0  0  0  0  0  0  0  0  0  0  0
  146.4580  161.3690  133.3560 H   0  0  0  0  0  0  0  0  0  0  0  0
  147.4861  159.0928  130.7290 H   0  0  0  0  0  0  0  0  0  0  0  0
  147.9708  160.7634  131.1836 H   0  0  0  0  0  0  0  0  0  0  0  0
  148.9020  156.8861  132.5427 H   0  0  0  0  0  0  0  0  0  0  0  0
  1  2  1  0
  2  3  1  0
  3  4  2  0
  3  5  1  0
  5  6  1  0
  5  7  1  0
  7  8  1  0
  8  9  1  0
  9 10  2  0
 10 11  1  0
 11 12  2  0
 12 13  1  0
 13 14  2  0
 14 15  1  0
 15 16  1  0
 15 17  2  0
 14 18  1  0
 18 19  1  0
 19 20  2  0
 19 21  1  0
 21 22  1  0
 22 23  2  0
 22 24  1  0
 18 25  1  0
 25 26  2  0
 26  9  1  0
 25 12  1  0
  1 27  1  0
  1 28  1  0
  1 29  1  0
  6 30  1  0
  6 31  1  0
  6 32  1  0
  7 33  1  0
  7 34  1  0
  8 35  1  0
  8 36  1  0
 10 37  1  0
 11 38  1  0
 13 39  1  0
 16 40  1  0
 21 41  1  0
 21 42  1  0
 26 43  1  0
M  CHG  2  16  -1  24  -1
M  END
>  <UniqueID>  (79) 
79

>  <SMILES>  (79) 
COC(=O)N(C)CCc1ccc2cc(C([NH-])=O)n(C(=O)CC(=O)[O-])c2c1

>  <Energy>  (79) 
71.22236960472232

>  <Genealogy>  (79) 
COC(=O)N(C)CCc1ccc2cc(C([NH-])=O)n(C(=O)CC(=O)[O-])c2c1 (protonated)
COC(=O)N(C)CCc1ccc2cc(C([NH-])=O)n(C(=O)CC(=O)[O-])c2c1 (3D coordinates assigned)
COC(=O)N(C)CCc1ccc2cc(C([NH-])=O)n(C(=O)CC(=O)[O-])c2c1 (optimized conformer: 71.22236960472232 kcal/mol)

>  <smiles>  (79) 
COC(=O)N(C)CCc1ccc2cc(C(N)=O)n(C(=O)CC(=O)O)c2c1

>  <score_type>  (79) 
oracle

>  <origin>  (79) 
adg

>  <m_score__min__energy>  (79) 
-6.7400000000000002

>  <m_primary>  (79) 
energy

$$$$
79:0
     RDKit          3D

 35 37  0  0  0  0  0  0  0  0999 V2000
  149.1250  159.7570  129.9880 C   0  0  0  0  0  0  0  0  0  0  0  0
  149.5850  158.8020  130.9980 N   0  0  0  0  0  0  0  0  0  0  0  0
  149.0320  159.1510  132.3110 C   0  0  0  0  0  0  0  0  0  0  0  0
  148.4550  157.9710  133.0320 C   0  0  0  0  0  0  0  0  0  0  0  0
  147.0480  158.4070  132.9490 N   0  0  0  0  0  0  0  0  0  0  0  0
  145.7680  157.9300  133.3650 C   0  0  0  0  0  0  0  0  0  0  0  0
  145.6100  156.5790  133.7520 C   0  0  0  0  0  0  0  0  0  0  0  0
  144.3530  156.0950  134.1520 C   0  0  0  0  0  0  0  0  0  0  0  0
  143.2830  156.9850  134.1590 C   0  0  0  0  0  0  0  0  0  0  0  0
  141.9610  156.7760  134.4760 C   0  0  0  0  0  0  0  0  0  0  0  0
  141.3390  158.0100  134.2990 C   0  0  0  0  0  0  0  0  0  0  0  0
  139.9150  158.2550  134.6130 C   0  0  0  0  0  0  0  0  0  0  0  0
  139.4650  158.1820  135.9630 N   0  0  0  0  0  0  0  0  0  0  0  0
  139.0980  158.5650  133.7070 O   0  0  0  0  0  0  0  0  0  0  0  0
  142.2400  158.9450  133.8810 N   0  0  0  0  0  0  0  0  0  0  0  0
  141.9910  160.3150  133.5260 C   0  0  0  0  0  0  0  0  0  0  0  0
  140.8900  160.6530  133.0170 O   0  0  0  0  0  0  0  0  0  0  0  0
  142.9740  161.2790  133.7180 O   0  0  0  0  0  0  0  0  0  0  0  0
  143.4260  158.3020  133.8030 C   0  0  0  0  0  0  0  0  0  0  0  0
  144.6640  158.8060  133.3830 C   0  0  0  0  0  0  0  0  0  0  0  0
  147.5960  159.5740  132.2310 C   0  0  0  0  0  0  0  0  0  0  0  0
  148.6993  160.6407  130.4859 H   0  0  0  0  0  0  0  0  0  0  0  0
  149.9742  160.0637  129.3597 H   0  0  0  0  0  0  0  0  0  0  0  0
  148.3559  159.2841  129.3597 H   0  0  0  0  0  0  0  0  0  0  0  0
  149.2000  157.8650  130.7310 H   0  0  0  0  0  0  0  0  0  0  0  0
  149.8460  159.7774  132.7048 H   0  0  0  0  0  0  0  0  0  0  0  0
  148.6368  157.0221  132.5062 H   0  0  0  0  0  0  0  0  0  0  0  0
  148.8530  157.7535  134.0341 H   0  0  0  0  0  0  0  0  0  0  0  0
  146.4772  155.9023  133.7398 H   0  0  0  0  0  0  0  0  0  0  0  0
  144.2187  155.0448  134.4505 H   0  0  0  0  0  0  0  0  0  0  0  0
  141.4940  155.8344  134.8004 H   0  0  0  0  0  0  0  0  0  0  0  0
  139.1050  159.0300  136.4550 H   0  0  0  0  0  0  0  0  0  0  0  0
  144.7714  159.8567  133.0757 H   0  0  0  0  0  0  0  0  0  0  0  0
  147.2314  159.6449  131.1956 H   0  0  0  0  0  0  0  0  0  0  0  0
  147.3443  160.5689  132.6270 H   0  0  0  0  0  0  0  0  0  0  0  0
  1  2  1  0
  2  3  1  0
  3  4  1  0
  4  5  1  0
  5  6  1  0
  6  7  2  0
  7  8  1  0
  8  9  2  0
  9 10  1  0
 10 11  2  0
 11 12  1  0
 12 13  1  0
 12 14  2  0
 11 15  1  0
 15 16  1  0
 16 17  2  0
 16 18  1  0
 15 19  1  0
 19 20  2  0
  5 21  1  0
 21  3  1  0
 20  6  1  0
 19  9  1  0
  1 22  1  0
  1 23  1  0
  1 24  1  0
  2 25  1  0
  3 26  1  0
  4 27  1  0
  4 28  1  0
  7 29  1  0
  8 30  1  0
 10 31  1  0
 13 32  1  0
 20 33  1  0
 21 34  1  0
 21 35  1  0
M  CHG  2  13  -1  18  -1
M  END
>  <UniqueID>  (80) 
80

>  <SMILES>  (80) 
CNC1CN(c2ccc3cc(C([NH-])=O)n(C(=O)[O-])c3c2)C1

>  <Energy>  (80) 
118.1093594225887

>  <Genealogy>  (80) 
CNC1CN(c2ccc3cc(C([NH-])=O)n(C(=O)[O-])c3c2)C1 (protonated)
CNC1CN(c2ccc3cc(C([NH-])=O)n(C(=O)[O-])c3c2)C1 (3D coordinates assigned)
CNC1CN(c2ccc3cc(C([NH-])=O)n(C(=O)[O-])c3c2)C1 (nonaromatic ring conformer: 118.1093594225887 kcal/mol)

>  <smiles>  (80) 
CNC1CN(c2ccc3cc(C(N)=O)n(C(=O)O)c3c2)C1

>  <score_type>  (80) 
oracle

>  <origin>  (80) 
adg

>  <m_score__min__energy>  (80) 
-7.1399999999999997

>  <m_primary>  (80) 
energy

$$$$
80:0
     RDKit          3D

 42 44  0  0  0  0  0  0  0  0999 V2000
  139.9670  159.3710  131.5250 C   0  0  0  0  0  0  0  0  0  0  0  0
  140.2060  160.1290  132.5870 C   0  0  0  0  0  0  0  0  0  0  0  0
  141.4210  159.9670  133.4140 C   0  0  0  0  0  0  0  0  0  0  0  0
  142.0980  160.9840  133.7480 O   0  0  0  0  0  0  0  0  0  0  0  0
  141.8310  158.6610  133.8660 N   0  0  0  0  0  0  0  0  0  0  0  0
  141.0500  157.7270  134.4750 C   0  0  0  0  0  0  0  0  0  0  0  0
  139.6070  157.8620  134.7300 C   0  0  0  0  0  0  0  0  0  0  0  0
  139.1400  158.2060  136.0410 N   0  0  0  0  0  0  0  0  0  0  0  0
  138.7790  157.6790  133.7820 O   0  0  0  0  0  0  0  0  0  0  0  0
  141.7890  156.5970  134.8100 C   0  0  0  0  0  0  0  0  0  0  0  0
  143.0650  156.8700  134.3860 C   0  0  0  0  0  0  0  0  0  0  0  0
  144.2080  156.0850  134.4380 C   0  0  0  0  0  0  0  0  0  0  0  0
  145.4060  156.6180  133.9280 C   0  0  0  0  0  0  0  0  0  0  0  0
  145.4620  157.9480  133.4190 C   0  0  0  0  0  0  0  0  0  0  0  0
  146.7130  158.5090  132.9450 N   0  0  0  0  0  0  0  0  0  0  0  0
  146.9070  159.9750  132.9600 C   0  0  0  0  0  0  0  0  0  0  0  0
  148.0260  160.4860  132.0150 C   0  0  0  0  0  0  0  0  0  0  0  0
  148.7080  159.3990  131.2830 N   0  0  0  0  0  0  0  0  0  0  0  0
  149.8980  159.9170  130.5970 C   0  0  0  0  0  0  0  0  0  0  0  0
  149.0920  158.3480  132.2360 C   0  0  0  0  0  0  0  0  0  0  0  0
  147.8280  157.5940  132.6290 C   0  0  0  0  0  0  0  0  0  0  0  0
  144.2670  158.7140  133.3870 C   0  0  0  0  0  0  0  0  0  0  0  0
  143.0740  158.1260  133.8290 C   0  0  0  0  0  0  0  0  0  0  0  0
  139.0508  159.5232  130.9356 H   0  0  0  0  0  0  0  0  0  0  0  0
  140.6850  158.5902  131.2337 H   0  0  0  0  0  0  0  0  0  0  0  0
  139.4756  160.9043  132.8618 H   0  0  0  0  0  0  0  0  0  0  0  0
  139.1110  159.2020  136.3560 H   0  0  0  0  0  0  0  0  0  0  0  0
  141.4289  155.6839  135.3065 H   0  0  0  0  0  0  0  0  0  0  0  0
  144.1782  155.0725  134.8668 H   0  0  0  0  0  0  0  0  0  0  0  0
  146.3145  155.9979  133.9220 H   0  0  0  0  0  0  0  0  0  0  0  0
  145.9610  160.4497  132.6604 H   0  0  0  0  0  0  0  0  0  0  0  0
  147.2162  160.2390  133.9821 H   0  0  0  0  0  0  0  0  0  0  0  0
  147.5786  161.1741  131.2827 H   0  0  0  0  0  0  0  0  0  0  0  0
  148.7813  160.9842  132.6406 H   0  0  0  0  0  0  0  0  0  0  0  0
  150.6396  160.2398  131.3425 H   0  0  0  0  0  0  0  0  0  0  0  0
  150.3315  159.1262  129.9672 H   0  0  0  0  0  0  0  0  0  0  0  0
  149.6146  160.7732  129.9672 H   0  0  0  0  0  0  0  0  0  0  0  0
  149.8081  157.6587  131.7648 H   0  0  0  0  0  0  0  0  0  0  0  0
  149.5691  158.7888  133.1237 H   0  0  0  0  0  0  0  0  0  0  0  0
  147.5281  156.9441  131.7937 H   0  0  0  0  0  0  0  0  0  0  0  0
  148.0504  157.0056  133.5314 H   0  0  0  0  0  0  0  0  0  0  0  0
  144.2773  159.7514  133.0215 H   0  0  0  0  0  0  0  0  0  0  0  0
  1  2  2  0
  2  3  1  0
  3  4  2  0
  3  5  1  0
  5  6  1  0
  6  7  1  0
  7  8  1  0
  7  9  2  0
  6 10  2  0
 10 11  1  0
 11 12  2  0
 12 13  1  0
 13 14  2  0
 14 15  1  0
 15 16  1  0
 16 17  1  0
 17 18  1  0
 18 19  1  0
 18 20  1  0
 20 21  1  0
 14 22  1  0
 22 23  2  0
 23  5  1  0
 23 11  1  0
 21 15  1  0
  1 24  1  0
  1 25  1  0
  2 26  1  0
  8 27  1  0
 10 28  1  0
 12 29  1  0
 13 30  1  0
 16 31  1  0
 16 32  1  0
 17 33  1  0
 17 34  1  0
 19 35  1  0
 19 36  1  0
 19 37  1  0
 20 38  1  0
 20 39  1  0
 21 40  1  0
 21 41  1  0
 22 42  1  0
M  CHG  1   8  -1
M  END
>  <UniqueID>  (81) 
81

>  <SMILES>  (81) 
C=CC(=O)n1c(C([NH-])=O)cc2ccc(N3CCN(C)CC3)cc21

>  <Energy>  (81) 
92.75608314460847

>  <Genealogy>  (81) 
C=CC(=O)n1c(C([NH-])=O)cc2ccc(N3CCN(C)CC3)cc21 (protonated)
C=CC(=O)n1c(C([NH-])=O)cc2ccc(N3CCN(C)CC3)cc21 (3D coordinates assigned)
C=CC(=O)n1c(C([NH-])=O)cc2ccc(N3CCN(C)CC3)cc21 (nonaromatic ring conformer: 92.75608314460847 kcal/mol)

>  <smiles>  (81) 
C=CC(=O)n1c(C(N)=O)cc2ccc(N3CCN(C)CC3)cc21

>  <score_type>  (81) 
oracle

>  <origin>  (81) 
adg

>  <m_score__min__energy>  (81) 
-7.5

>  <m_primary>  (81) 
energy

$$$$
81:0
     RDKit          3D

 32 33  0  0  0  0  0  0  0  0999 V2000
  140.1720  156.7650  133.7250 N   0  0  0  0  0  0  0  0  0  0  0  0
  141.5620  156.5130  133.5320 C   0  0  0  0  0  0  0  0  0  0  0  0
  141.9580  155.3270  133.3700 O   0  0  0  0  0  0  0  0  0  0  0  0
  142.5470  157.6130  133.5740 C   0  0  0  0  0  0  0  0  0  0  0  0
  143.8930  157.4490  133.2550 C   0  0  0  0  0  0  0  0  0  0  0  0
  144.4780  158.6710  133.5020 C   0  0  0  0  0  0  0  0  0  0  0  0
  145.7960  159.0810  133.3320 C   0  0  0  0  0  0  0  0  0  0  0  0
  146.1130  160.4170  133.6290 C   0  0  0  0  0  0  0  0  0  0  0  0
  145.1170  161.3140  134.0950 C   0  0  0  0  0  0  0  0  0  0  0  0
  145.4570  162.7610  134.3480 C   0  0  0  0  0  0  0  0  0  0  0  0
  145.4890  163.0240  135.7060 F   0  0  0  0  0  0  0  0  0  0  0  0
  146.6960  163.0710  133.8160 F   0  0  0  0  0  0  0  0  0  0  0  0
  144.4980  163.5630  133.7560 F   0  0  0  0  0  0  0  0  0  0  0  0
  143.7820  160.8630  134.2290 C   0  0  0  0  0  0  0  0  0  0  0  0
  143.5000  159.5210  133.9460 C   0  0  0  0  0  0  0  0  0  0  0  0
  142.3070  158.8870  133.9920 N   0  0  0  0  0  0  0  0  0  0  0  0
  141.0390  159.4810  134.3150 C   0  0  0  0  0  0  0  0  0  0  0  0
  140.1970  159.6980  133.4010 O   0  0  0  0  0  0  0  0  0  0  0  0
  140.7400  159.7980  135.6450 O   0  0  0  0  0  0  0  0  0  0  0  0
  140.8750  158.8740  136.7230 C   0  0  0  0  0  0  0  0  0  0  0  0
  139.7680  157.8250  136.6730 C   0  0  0  0  0  0  0  0  0  0  0  0
  138.7950  158.2170  135.7460 O   0  0  0  0  0  0  0  0  0  0  0  0
  139.8220  157.7310  133.9070 H   0  0  0  0  0  0  0  0  0  0  0  0
  144.3843  156.5372  132.8845 H   0  0  0  0  0  0  0  0  0  0  0  0
  146.5663  158.3810  132.9761 H   0  0  0  0  0  0  0  0  0  0  0  0
  147.1459  160.7721  133.4987 H   0  0  0  0  0  0  0  0  0  0  0  0
  142.9848  161.5506  134.5480 H   0  0  0  0  0  0  0  0  0  0  0  0
  141.8515  158.3729  136.6495 H   0  0  0  0  0  0  0  0  0  0  0  0
  140.8000  159.4238  137.6728 H   0  0  0  0  0  0  0  0  0  0  0  0
  140.1937  156.8569  136.3705 H   0  0  0  0  0  0  0  0  0  0  0  0
  139.3088  157.7289  137.6679 H   0  0  0  0  0  0  0  0  0  0  0  0
  139.2770  158.3820  134.8940 H   0  0  0  0  0  0  0  0  0  0  0  0
  1  2  1  0
  2  3  2  0
  2  4  1  0
  4  5  2  0
  5  6  1  0
  6  7  2  0
  7  8  1  0
  8  9  2  0
  9 10  1  0
 10 11  1  0
 10 12  1  0
 10 13  1  0
  9 14  1  0
 14 15  2  0
 15 16  1  0
 16 17  1  0
 17 18  2  0
 17 19  1  0
 19 20  1  0
 20 21  1  0
 21 22  1  0
 16  4  1  0
 15  6  1  0
  1 23  1  0
  5 24  1  0
  7 25  1  0
  8 26  1  0
 14 27  1  0
 20 28  1  0
 20 29  1  0
 21 30  1  0
 21 31  1  0
 22 32  1  0
M  CHG  1   1  -1
M  END
>  <UniqueID>  (82) 
82

>  <SMILES>  (82) 
[NH-]C(=O)c1cc2ccc(C(F)(F)F)cc2n1C(=O)OCCO

>  <Energy>  (82) 
68.07206285581248

>  <Genealogy>  (82) 
[NH-]C(=O)c1cc2ccc(C(F)(F)F)cc2n1C(=O)OCCO (protonated)
[NH-]C(=O)c1cc2ccc(C(F)(F)F)cc2n1C(=O)OCCO (3D coordinates assigned)
[NH-]C(=O)c1cc2ccc(C(F)(F)F)cc2n1C(=O)OCCO (optimized conformer: 68.07206285581248 kcal/mol)

>  <smiles>  (82) 
NC(=O)c1cc2ccc(C(F)(F)F)cc2n1C(=O)OCCO

>  <score_type>  (82) 
oracle

>  <origin>  (82) 
adg

>  <m_score__min__energy>  (82) 
-5.0800000000000001

>  <m_primary>  (82) 
energy

$$$$
82:0
     RDKit          3D

 30 31  0  0  0  0  0  0  0  0999 V2000
  146.1330  162.0010  134.1510 N   0  0  0  0  0  0  0  0  0  0  0  0
  145.1390  161.0410  133.8020 C   0  0  0  0  0  0  0  0  0  0  0  0
  143.9350  161.4030  133.7290 O   0  0  0  0  0  0  0  0  0  0  0  0
  145.4970  159.6290  133.5480 C   0  0  0  0  0  0  0  0  0  0  0  0
  144.6010  158.5690  133.6820 C   0  0  0  0  0  0  0  0  0  0  0  0
  145.3240  157.4370  133.3790 C   0  0  0  0  0  0  0  0  0  0  0  0
  144.9290  156.1030  133.3340 C   0  0  0  0  0  0  0  0  0  0  0  0
  145.8870  155.1450  132.9600 C   0  0  0  0  0  0  0  0  0  0  0  0
  147.2080  155.5360  132.6350 C   0  0  0  0  0  0  0  0  0  0  0  0
  148.1720  154.5540  132.2480 N   0  0  0  0  0  0  0  0  0  0  0  0
  147.5730  156.8990  132.6890 C   0  0  0  0  0  0  0  0  0  0  0  0
  146.6030  157.8280  133.0790 C   0  0  0  0  0  0  0  0  0  0  0  0
  146.7260  159.1680  133.1850 N   0  0  0  0  0  0  0  0  0  0  0  0
  147.8970  159.9410  132.8870 C   0  0  0  0  0  0  0  0  0  0  0  0
  148.7700  160.1070  133.7820 O   0  0  0  0  0  0  0  0  0  0  0  0
  148.1480  160.4430  131.4900 C   0  0  0  0  0  0  0  0  0  0  0  0
  148.5090  161.7780  131.5170 F   0  0  0  0  0  0  0  0  0  0  0  0
  146.9850  160.3180  130.7550 F   0  0  0  0  0  0  0  0  0  0  0  0
  149.4460  159.5120  130.6830 S   0  0  0  0  0  0  0  0  0  0  0  0
  150.2860  158.5390  131.8380 N   0  0  0  0  0  0  0  0  0  0  0  0
  148.8520  158.6270  129.6240 O   0  0  0  0  0  0  0  0  0  0  0  0
  150.4140  160.4660  130.0410 O   0  0  0  0  0  0  0  0  0  0  0  0
  147.1380  161.7300  134.2270 H   0  0  0  0  0  0  0  0  0  0  0  0
  143.5406  158.6252  133.9691 H   0  0  0  0  0  0  0  0  0  0  0  0
  143.8991  155.8078  133.5834 H   0  0  0  0  0  0  0  0  0  0  0  0
  145.6077  154.0818  132.9195 H   0  0  0  0  0  0  0  0  0  0  0  0
  148.2030  154.1920  131.2690 H   0  0  0  0  0  0  0  0  0  0  0  0
  148.8620  154.1830  132.9390 H   0  0  0  0  0  0  0  0  0  0  0  0
  148.5926  157.2214  132.4313 H   0  0  0  0  0  0  0  0  0  0  0  0
  150.3800  159.1100  132.7080 H   0  0  0  0  0  0  0  0  0  0  0  0
  1  2  1  0
  2  3  2  0
  2  4  1  0
  4  5  2  0
  5  6  1  0
  6  7  2  0
  7  8  1  0
  8  9  2  0
  9 10  1  0
  9 11  1  0
 11 12  2  0
 12 13  1  0
 13 14  1  0
 14 15  2  0
 14 16  1  0
 16 17  1  0
 16 18  1  0
 16 19  1  0
 19 20  1  0
 19 21  2  0
 19 22  2  0
 13  4  1  0
 12  6  1  0
  1 23  1  0
  5 24  1  0
  7 25  1  0
  8 26  1  0
 10 27  1  0
 10 28  1  0
 11 29  1  0
 20 30  1  0
M  CHG  2   1  -1  20  -1
M  END
>  <UniqueID>  (83) 
83

>  <SMILES>  (83) 
[NH-]C(=O)c1cc2ccc(N)cc2n1C(=O)C(F)(F)S([NH-])(=O)=O

>  <Energy>  (83) 
65.6036708783938

>  <Genealogy>  (83) 
[NH-]C(=O)c1cc2ccc(N)cc2n1C(=O)C(F)(F)S([NH-])(=O)=O (protonated)
[NH-]C(=O)c1cc2ccc(N)cc2n1C(=O)C(F)(F)S([NH-])(=O)=O (3D coordinates assigned)
[NH-]C(=O)c1cc2ccc(N)cc2n1C(=O)C(F)(F)S([NH-])(=O)=O (optimized conformer: 65.6036708783938 kcal/mol)

>  <smiles>  (83) 
NC(=O)c1cc2ccc(N)cc2n1C(=O)C(F)(F)S(N)(=O)=O

>  <score_type>  (83) 
oracle

>  <origin>  (83) 
adg

>  <m_score__min__energy>  (83) 
-6.0199999999999996

>  <m_primary>  (83) 
energy

$$$$
83:0
     RDKit          3D

 40 41  0  0  0  0  0  0  0  0999 V2000
  139.2910  159.0200  131.5970 C   0  0  0  0  0  0  0  0  0  0  0  0
  139.8490  158.4400  132.8230 N   0  0  0  0  0  0  0  0  0  0  0  0
  139.4850  157.0760  133.2200 C   0  0  0  0  0  0  0  0  0  0  0  0
  140.7200  159.2460  133.6450 C   0  0  0  0  0  0  0  0  0  0  0  0
  140.8190  160.4830  133.4210 O   0  0  0  0  0  0  0  0  0  0  0  0
  141.5290  158.6580  134.7660 C   0  0  0  0  0  0  0  0  0  0  0  0
  142.8850  159.0800  134.6650 O   0  0  0  0  0  0  0  0  0  0  0  0
  143.7060  158.7260  133.5890 C   0  0  0  0  0  0  0  0  0  0  0  0
  143.2670  157.9960  132.6590 O   0  0  0  0  0  0  0  0  0  0  0  0
  145.0620  159.1890  133.5520 N   0  0  0  0  0  0  0  0  0  0  0  0
  145.5200  160.4660  133.6750 C   0  0  0  0  0  0  0  0  0  0  0  0
  144.7000  161.6590  133.9780 C   0  0  0  0  0  0  0  0  0  0  0  0
  143.2970  161.6700  133.7240 N   0  0  0  0  0  0  0  0  0  0  0  0
  145.2390  162.6700  134.5000 O   0  0  0  0  0  0  0  0  0  0  0  0
  146.9080  160.4990  133.5410 C   0  0  0  0  0  0  0  0  0  0  0  0
  147.2870  159.1910  133.3330 C   0  0  0  0  0  0  0  0  0  0  0  0
  148.5480  158.6440  133.1160 C   0  0  0  0  0  0  0  0  0  0  0  0
  148.6350  157.2580  132.8940 C   0  0  0  0  0  0  0  0  0  0  0  0
  147.4670  156.4540  132.8880 C   0  0  0  0  0  0  0  0  0  0  0  0
  147.5640  154.9800  132.6050 C   0  0  0  0  0  0  0  0  0  0  0  0
  148.9960  154.5390  132.6080 C   0  0  0  0  0  0  0  0  0  0  0  0
  149.3040  153.4330  132.1930 O   0  0  0  0  0  0  0  0  0  0  0  0
  146.2040  157.0490  133.0940 C   0  0  0  0  0  0  0  0  0  0  0  0
  146.1520  158.4230  133.3410 C   0  0  0  0  0  0  0  0  0  0  0  0
  138.5504  159.7898  131.8596 H   0  0  0  0  0  0  0  0  0  0  0  0
  140.0993  159.4753  131.0059 H   0  0  0  0  0  0  0  0  0  0  0  0
  138.8048  158.2299  131.0059 H   0  0  0  0  0  0  0  0  0  0  0  0
  139.4664  157.0062  134.3176 H   0  0  0  0  0  0  0  0  0  0  0  0
  138.4900  156.8309  132.8201 H   0  0  0  0  0  0  0  0  0  0  0  0
  140.2256  156.3678  132.8201 H   0  0  0  0  0  0  0  0  0  0  0  0
  141.1145  158.9930  135.7283 H   0  0  0  0  0  0  0  0  0  0  0  0
  141.4880  157.5606  134.7022 H   0  0  0  0  0  0  0  0  0  0  0  0
  142.8080  160.8140  133.3810 H   0  0  0  0  0  0  0  0  0  0  0  0
  147.5616  161.3824  133.5909 H   0  0  0  0  0  0  0  0  0  0  0  0
  149.4485  159.2758  133.1180 H   0  0  0  0  0  0  0  0  0  0  0  0
  149.6175  156.7937  132.7236 H   0  0  0  0  0  0  0  0  0  0  0  0
  147.0127  154.4256  133.3788 H   0  0  0  0  0  0  0  0  0  0  0  0
  147.1314  154.7784  131.6139 H   0  0  0  0  0  0  0  0  0  0  0  0
  149.7753  155.2166  132.9868 H   0  0  0  0  0  0  0  0  0  0  0  0
  145.2843  156.4465  133.0609 H   0  0  0  0  0  0  0  0  0  0  0  0
  1  2  1  0
  2  3  1  0
  2  4  1  0
  4  5  2  0
  4  6  1  0
  6  7  1  0
  7  8  1  0
  8  9  2  0
  8 10  1  0
 10 11  1  0
 11 12  1  0
 12 13  1  0
 12 14  2  0
 11 15  2  0
 15 16  1  0
 16 17  2  0
 17 18  1  0
 18 19  2  0
 19 20  1  0
 20 21  1  0
 21 22  2  0
 19 23  1  0
 23 24  2  0
 24 10  1  0
 24 16  1  0
  1 25  1  0
  1 26  1  0
  1 27  1  0
  3 28  1  0
  3 29  1  0
  3 30  1  0
  6 31  1  0
  6 32  1  0
 13 33  1  0
 15 34  1  0
 17 35  1  0
 18 36  1  0
 20 37  1  0
 20 38  1  0
 21 39  1  0
 23 40  1  0
M  CHG  1  13  -1
M  END
>  <UniqueID>  (84) 
84

>  <SMILES>  (84) 
CN(C)C(=O)COC(=O)n1c(C([NH-])=O)cc2ccc(CC=O)cc21

>  <Energy>  (84) 
71.90387711441743

>  <Genealogy>  (84) 
CN(C)C(=O)COC(=O)n1c(C([NH-])=O)cc2ccc(CC=O)cc21 (protonated)
CN(C)C(=O)COC(=O)n1c(C([NH-])=O)cc2ccc(CC=O)cc21 (3D coordinates assigned)
CN(C)C(=O)COC(=O)n1c(C([NH-])=O)cc2ccc(CC=O)cc21 (optimized conformer: 71.90387711441743 kcal/mol)

>  <smiles>  (84) 
CN(C)C(=O)COC(=O)n1c(C(N)=O)cc2ccc(CC=O)cc21

>  <score_type>  (84) 
oracle

>  <origin>  (84) 
adg

>  <m_score__min__energy>  (84) 
-6.4400000000000004

>  <m_primary>  (84) 
energy

$$$$
84:0
     RDKit          3D

 26 27  0  0  0  0  0  0  0  0999 V2000
  148.8300  158.6520  134.3780 N   0  0  0  0  0  0  0  0  0  0  0  0
  148.0980  158.2290  133.2300 C   0  0  0  0  0  0  0  0  0  0  0  0
  148.7190  157.9260  132.1750 O   0  0  0  0  0  0  0  0  0  0  0  0
  146.6630  158.1620  133.2700 N   0  0  0  0  0  0  0  0  0  0  0  0
  145.8820  157.0480  133.1810 C   0  0  0  0  0  0  0  0  0  0  0  0
  146.3480  155.6880  132.8480 C   0  0  0  0  0  0  0  0  0  0  0  0
  147.3610  155.4740  131.8640 N   0  0  0  0  0  0  0  0  0  0  0  0
  145.8030  154.6950  133.3990 O   0  0  0  0  0  0  0  0  0  0  0  0
  144.5430  157.3670  133.3960 C   0  0  0  0  0  0  0  0  0  0  0  0
  144.5230  158.7260  133.6060 C   0  0  0  0  0  0  0  0  0  0  0  0
  143.4550  159.5690  133.8930 C   0  0  0  0  0  0  0  0  0  0  0  0
  143.7270  160.9300  134.1070 C   0  0  0  0  0  0  0  0  0  0  0  0
  145.0550  161.4270  134.0240 C   0  0  0  0  0  0  0  0  0  0  0  0
  145.3430  162.8760  134.3200 C   0  0  0  0  0  0  0  0  0  0  0  0
  146.5780  163.2420  133.8140 F   0  0  0  0  0  0  0  0  0  0  0  0
  144.3820  163.6920  133.7470 F   0  0  0  0  0  0  0  0  0  0  0  0
  145.3410  163.0710  135.6880 F   0  0  0  0  0  0  0  0  0  0  0  0
  146.1170  160.5310  133.7560 C   0  0  0  0  0  0  0  0  0  0  0  0
  145.8140  159.1840  133.5250 C   0  0  0  0  0  0  0  0  0  0  0  0
  149.4830  158.0000  134.8680 H   0  0  0  0  0  0  0  0  0  0  0  0
  147.7140  156.2600  131.2750 H   0  0  0  0  0  0  0  0  0  0  0  0
  147.7050  154.5080  131.6680 H   0  0  0  0  0  0  0  0  0  0  0  0
  143.6849  156.6788  133.3975 H   0  0  0  0  0  0  0  0  0  0  0  0
  142.4273  159.1812  133.9507 H   0  0  0  0  0  0  0  0  0  0  0  0
  142.9022  161.6190  134.3416 H   0  0  0  0  0  0  0  0  0  0  0  0
  147.1581  160.8853  133.7298 H   0  0  0  0  0  0  0  0  0  0  0  0
  1  2  1  0
  2  3  2  0
  2  4  1  0
  4  5  1  0
  5  6  1  0
  6  7  1  0
  6  8  2  0
  5  9  2  0
  9 10  1  0
 10 11  2  0
 11 12  1  0
 12 13  2  0
 13 14  1  0
 14 15  1  0
 14 16  1  0
 14 17  1  0
 13 18  1  0
 18 19  2  0
 19  4  1  0
 19 10  1  0
  1 20  1  0
  7 21  1  0
  7 22  1  0
  9 23  1  0
 11 24  1  0
 12 25  1  0
 18 26  1  0
M  CHG  1   1  -1
M  END
>  <UniqueID>  (85) 
85

>  <SMILES>  (85) 
[NH-]C(=O)n1c(C(N)=O)cc2ccc(C(F)(F)F)cc21

>  <Energy>  (85) 
66.73340414564574

>  <Genealogy>  (85) 
[NH-]C(=O)n1c(C(N)=O)cc2ccc(C(F)(F)F)cc21 (protonated)
[NH-]C(=O)n1c(C(N)=O)cc2ccc(C(F)(F)F)cc21 (3D coordinates assigned)
[NH-]C(=O)n1c(C(N)=O)cc2ccc(C(F)(F)F)cc21 (optimized conformer: 66.73340414564574 kcal/mol)

>  <smiles>  (85) 
NC(=O)c1cc2ccc(C(F)(F)F)cc2n1C(N)=O

>  <score_type>  (85) 
oracle

>  <origin>  (85) 
adg

>  <m_score__min__energy>  (85) 
-5.8799999999999999

>  <m_primary>  (85) 
energy

$$$$
85:0
     RDKit          3D

 31 32  0  0  0  0  0  0  0  0999 V2000
  139.1050  155.9610  132.6030 N   0  0  0  0  0  0  0  0  0  0  0  0
  140.3630  155.6880  133.2120 C   0  0  0  0  0  0  0  0  0  0  0  0
  140.5660  154.5570  133.7290 O   0  0  0  0  0  0  0  0  0  0  0  0
  141.4110  156.7250  133.2840 C   0  0  0  0  0  0  0  0  0  0  0  0
  142.7740  156.4430  133.3810 C   0  0  0  0  0  0  0  0  0  0  0  0
  143.3920  157.6680  133.5040 C   0  0  0  0  0  0  0  0  0  0  0  0
  144.7410  157.9840  133.6270 C   0  0  0  0  0  0  0  0  0  0  0  0
  145.0930  159.3430  133.7150 C   0  0  0  0  0  0  0  0  0  0  0  0
  144.0980  160.3510  133.6760 C   0  0  0  0  0  0  0  0  0  0  0  0
  144.4970  161.7970  133.7610 C   0  0  0  0  0  0  0  0  0  0  0  0
  145.0900  162.0440  134.9860 F   0  0  0  0  0  0  0  0  0  0  0  0
  143.3800  162.5990  133.6230 F   0  0  0  0  0  0  0  0  0  0  0  0
  142.7380  159.9910  133.5490 C   0  0  0  0  0  0  0  0  0  0  0  0
  142.4180  158.6310  133.4750 C   0  0  0  0  0  0  0  0  0  0  0  0
  141.2000  158.0700  133.3360 N   0  0  0  0  0  0  0  0  0  0  0  0
  139.9620  158.7800  133.1820 C   0  0  0  0  0  0  0  0  0  0  0  0
  139.0160  158.5550  133.9840 O   0  0  0  0  0  0  0  0  0  0  0  0
  139.8560  159.8990  132.1850 C   0  0  0  0  0  0  0  0  0  0  0  0
  138.7660  159.6530  131.1830 C   0  0  0  0  0  0  0  0  0  0  0  0
  137.9330  158.4980  131.2930 N   0  0  0  0  0  0  0  0  0  0  0  0
  138.5970  160.4550  130.2270 O   0  0  0  0  0  0  0  0  0  0  0  0
  138.4720  156.6980  132.9850 H   0  0  0  0  0  0  0  0  0  0  0  0
  143.2532  155.4530  133.3631 H   0  0  0  0  0  0  0  0  0  0  0  0
  145.5082  157.1961  133.6546 H   0  0  0  0  0  0  0  0  0  0  0  0
  146.1512  159.6260  133.8151 H   0  0  0  0  0  0  0  0  0  0  0  0
  145.2104  162.0221  132.9546 H   0  0  0  0  0  0  0  0  0  0  0  0
  141.9517  160.7592  133.5093 H   0  0  0  0  0  0  0  0  0  0  0  0
  139.6412  160.8348  132.7219 H   0  0  0  0  0  0  0  0  0  0  0  0
  140.8105  159.9640  131.6421 H   0  0  0  0  0  0  0  0  0  0  0  0
  138.0680  157.8180  132.0740 H   0  0  0  0  0  0  0  0  0  0  0  0
  137.1820  158.3220  130.5910 H   0  0  0  0  0  0  0  0  0  0  0  0
  1  2  1  0
  2  3  2  0
  2  4  1  0
  4  5  2  0
  5  6  1  0
  6  7  2  0
  7  8  1  0
  8  9  2  0
  9 10  1  0
 10 11  1  0
 10 12  1  0
  9 13  1  0
 13 14  2  0
 14 15  1  0
 15 16  1  0
 16 17  2  0
 16 18  1  0
 18 19  1  0
 19 20  1  0
 19 21  2  0
 15  4  1  0
 14  6  1  0
  1 22  1  0
  5 23  1  0
  7 24  1  0
  8 25  1  0
 10 26  1  0
 13 27  1  0
 18 28  1  0
 18 29  1  0
 20 30  1  0
 20 31  1  0
M  CHG  1   1  -1
M  END
>  <UniqueID>  (86) 
86

>  <SMILES>  (86) 
[NH-]C(=O)c1cc2ccc(C(F)F)cc2n1C(=O)CC(N)=O

>  <Energy>  (86) 
68.73607209530121

>  <Genealogy>  (86) 
[NH-]C(=O)c1cc2ccc(C(F)F)cc2n1C(=O)CC(N)=O (protonated)
[NH-]C(=O)c1cc2ccc(C(F)F)cc2n1C(=O)CC(N)=O (3D coordinates assigned)
[NH-]C(=O)c1cc2ccc(C(F)F)cc2n1C(=O)CC(N)=O (optimized conformer: 68.73607209530121 kcal/mol)

>  <smiles>  (86) 
NC(=O)CC(=O)n1c(C(N)=O)cc2ccc(C(F)F)cc21

>  <score_type>  (86) 
oracle

>  <origin>  (86) 
adg

>  <m_score__min__energy>  (86) 
-6.1699999999999999

>  <m_primary>  (86) 
energy

$$$$
86:0
     RDKit          3D

 33 34  0  0  0  0  0  0  0  0999 V2000
  146.6960  155.4620  134.8870 C   0  0  0  0  0  0  0  0  0  0  0  0
  147.6330  156.0810  134.1710 C   0  0  0  0  0  0  0  0  0  0  0  0
  147.3280  156.8080  132.9240 C   0  0  0  0  0  0  0  0  0  0  0  0
  147.3130  156.2010  131.8190 O   0  0  0  0  0  0  0  0  0  0  0  0
  147.0450  158.2150  132.9640 N   0  0  0  0  0  0  0  0  0  0  0  0
  147.8990  159.2440  132.7040 C   0  0  0  0  0  0  0  0  0  0  0  0
  149.2810  159.1170  132.1930 C   0  0  0  0  0  0  0  0  0  0  0  0
  149.8460  157.8390  131.9120 N   0  0  0  0  0  0  0  0  0  0  0  0
  149.9620  160.1540  131.9690 O   0  0  0  0  0  0  0  0  0  0  0  0
  147.2730  160.4680  132.9320 C   0  0  0  0  0  0  0  0  0  0  0  0
  145.9960  160.1540  133.3430 C   0  0  0  0  0  0  0  0  0  0  0  0
  144.9480  160.9860  133.7260 C   0  0  0  0  0  0  0  0  0  0  0  0
  143.7490  160.3840  134.1440 C   0  0  0  0  0  0  0  0  0  0  0  0
  143.6210  158.9730  134.1680 C   0  0  0  0  0  0  0  0  0  0  0  0
  142.3480  158.3390  134.6630 C   0  0  0  0  0  0  0  0  0  0  0  0
  141.3500  159.4140  135.1020 C   0  0  0  0  0  0  0  0  0  0  0  0
  140.6320  158.9850  136.3420 C   0  0  0  0  0  0  0  0  0  0  0  0
  141.0370  159.3660  137.4720 O   0  0  0  0  0  0  0  0  0  0  0  0
  139.4860  158.2050  136.2490 O   0  0  0  0  0  0  0  0  0  0  0  0
  144.7110  158.1610  133.7840 C   0  0  0  0  0  0  0  0  0  0  0  0
  145.8860  158.7880  133.3550 C   0  0  0  0  0  0  0  0  0  0  0  0
  146.9704  154.9321  135.8110 H   0  0  0  0  0  0  0  0  0  0  0  0
  145.6477  155.4807  134.5543 H   0  0  0  0  0  0  0  0  0  0  0  0
  148.6746  156.0489  134.5230 H   0  0  0  0  0  0  0  0  0  0  0  0
  149.2740  157.0830  131.4750 H   0  0  0  0  0  0  0  0  0  0  0  0
  147.7063  161.4716  132.8098 H   0  0  0  0  0  0  0  0  0  0  0  0
  145.0549  162.0805  133.7022 H   0  0  0  0  0  0  0  0  0  0  0  0
  142.9024  161.0136  134.4553 H   0  0  0  0  0  0  0  0  0  0  0  0
  141.9032  157.7405  133.8543 H   0  0  0  0  0  0  0  0  0  0  0  0
  142.5818  157.6968  135.5249 H   0  0  0  0  0  0  0  0  0  0  0  0
  141.8911  160.3505  135.3024 H   0  0  0  0  0  0  0  0  0  0  0  0
  140.6141  159.5665  134.2987 H   0  0  0  0  0  0  0  0  0  0  0  0
  144.6380  157.0640  133.8212 H   0  0  0  0  0  0  0  0  0  0  0  0
  1  2  2  0
  2  3  1  0
  3  4  2  0
  3  5  1  0
  5  6  1  0
  6  7  1  0
  7  8  1  0
  7  9  2  0
  6 10  2  0
 10 11  1  0
 11 12  2  0
 12 13  1  0
 13 14  2  0
 14 15  1  0
 15 16  1  0
 16 17  1  0
 17 18  2  0
 17 19  1  0
 14 20  1  0
 20 21  2  0
 21  5  1  0
 21 11  1  0
  1 22  1  0
  1 23  1  0
  2 24  1  0
  8 25  1  0
 10 26  1  0
 12 27  1  0
 13 28  1  0
 15 29  1  0
 15 30  1  0
 16 31  1  0
 16 32  1  0
 20 33  1  0
M  CHG  2   8  -1  19  -1
M  END
>  <UniqueID>  (87) 
87

>  <SMILES>  (87) 
C=CC(=O)n1c(C([NH-])=O)cc2ccc(CCC(=O)[O-])cc21

>  <Energy>  (87) 
67.74514005630095

>  <Genealogy>  (87) 
C=CC(=O)n1c(C([NH-])=O)cc2ccc(CCC(=O)[O-])cc21 (protonated)
C=CC(=O)n1c(C([NH-])=O)cc2ccc(CCC(=O)[O-])cc21 (3D coordinates assigned)
C=CC(=O)n1c(C([NH-])=O)cc2ccc(CCC(=O)[O-])cc21 (optimized conformer: 67.74514005630095 kcal/mol)

>  <smiles>  (87) 
C=CC(=O)n1c(C(N)=O)cc2ccc(CCC(=O)O)cc21

>  <score_type>  (87) 
oracle

>  <origin>  (87) 
adg

>  <m_score__min__energy>  (87) 
-6.7699999999999996

>  <m_primary>  (87) 
energy

$$$$
87:0
     RDKit          3D

 33 34  0  0  0  0  0  0  0  0999 V2000
  149.3440  157.3080  132.2790 N   0  0  0  0  0  0  0  0  0  0  0  0
  148.8850  158.6470  132.4540 C   0  0  0  0  0  0  0  0  0  0  0  0
  149.7010  159.5990  132.3310 O   0  0  0  0  0  0  0  0  0  0  0  0
  147.4850  158.9270  132.8330 C   0  0  0  0  0  0  0  0  0  0  0  0
  146.9770  160.2130  132.9990 C   0  0  0  0  0  0  0  0  0  0  0  0
  145.6830  160.0420  133.4310 C   0  0  0  0  0  0  0  0  0  0  0  0
  144.7070  160.9870  133.7270 C   0  0  0  0  0  0  0  0  0  0  0  0
  143.4370  160.5260  134.1130 C   0  0  0  0  0  0  0  0  0  0  0  0
  143.1670  159.1360  134.2060 C   0  0  0  0  0  0  0  0  0  0  0  0
  141.7840  158.6530  134.5590 C   0  0  0  0  0  0  0  0  0  0  0  0
  141.8830  157.4900  135.3000 F   0  0  0  0  0  0  0  0  0  0  0  0
  141.1090  159.6050  135.3030 F   0  0  0  0  0  0  0  0  0  0  0  0
  141.0490  158.3980  133.4140 F   0  0  0  0  0  0  0  0  0  0  0  0
  144.1810  158.2060  133.8720 C   0  0  0  0  0  0  0  0  0  0  0  0
  145.4420  158.6950  133.5100 C   0  0  0  0  0  0  0  0  0  0  0  0
  146.5380  157.9960  133.1420 N   0  0  0  0  0  0  0  0  0  0  0  0
  146.6320  156.5700  133.0070 C   0  0  0  0  0  0  0  0  0  0  0  0
  146.9660  156.0640  131.9000 O   0  0  0  0  0  0  0  0  0  0  0  0
  146.3670  155.7490  134.1100 O   0  0  0  0  0  0  0  0  0  0  0  0
  147.2380  154.7040  134.5390 C   0  0  0  0  0  0  0  0  0  0  0  0
  147.7820  155.0030  135.9370 C   0  0  0  0  0  0  0  0  0  0  0  0
  147.7320  153.7760  136.7920 C   0  0  0  0  0  0  0  0  0  0  0  0
  146.7410  153.0010  136.7300 O   0  0  0  0  0  0  0  0  0  0  0  0
  148.8000  153.4620  137.6220 O   0  0  0  0  0  0  0  0  0  0  0  0
  148.9770  156.7110  131.5060 H   0  0  0  0  0  0  0  0  0  0  0  0
  147.5003  161.1642  132.8220 H   0  0  0  0  0  0  0  0  0  0  0  0
  144.9227  162.0636  133.6610 H   0  0  0  0  0  0  0  0  0  0  0  0
  142.6430  161.2509  134.3458 H   0  0  0  0  0  0  0  0  0  0  0  0
  143.9827  157.1243  133.8963 H   0  0  0  0  0  0  0  0  0  0  0  0
  146.6819  153.7552  134.5618 H   0  0  0  0  0  0  0  0  0  0  0  0
  148.0811  154.6313  133.8362 H   0  0  0  0  0  0  0  0  0  0  0  0
  148.8244  155.3445  135.8545 H   0  0  0  0  0  0  0  0  0  0  0  0
  147.1624  155.7850  136.4002 H   0  0  0  0  0  0  0  0  0  0  0  0
  1  2  1  0
  2  3  2  0
  2  4  1  0
  4  5  2  0
  5  6  1  0
  6  7  2  0
  7  8  1  0
  8  9  2  0
  9 10  1  0
 10 11  1  0
 10 12  1  0
 10 13  1  0
  9 14  1  0
 14 15  2  0
 15 16  1  0
 16 17  1  0
 17 18  2  0
 17 19  1  0
 19 20  1  0
 20 21  1  0
 21 22  1  0
 22 23  2  0
 22 24  1  0
 16  4  1  0
 15  6  1  0
  1 25  1  0
  5 26  1  0
  7 27  1  0
  8 28  1  0
 14 29  1  0
 20 30  1  0
 20 31  1  0
 21 32  1  0
 21 33  1  0
M  CHG  2   1  -1  24  -1
M  END
>  <UniqueID>  (88) 
88

>  <SMILES>  (88) 
[NH-]C(=O)c1cc2ccc(C(F)(F)F)cc2n1C(=O)OCCC(=O)[O-]

>  <Energy>  (88) 
68.73158714209173

>  <Genealogy>  (88) 
[NH-]C(=O)c1cc2ccc(C(F)(F)F)cc2n1C(=O)OCCC(=O)[O-] (protonated)
[NH-]C(=O)c1cc2ccc(C(F)(F)F)cc2n1C(=O)OCCC(=O)[O-] (3D coordinates assigned)
[NH-]C(=O)c1cc2ccc(C(F)(F)F)cc2n1C(=O)OCCC(=O)[O-] (optimized conformer: 68.73158714209173 kcal/mol)

>  <smiles>  (88) 
NC(=O)c1cc2ccc(C(F)(F)F)cc2n1C(=O)OCCC(=O)O

>  <score_type>  (88) 
oracle

>  <origin>  (88) 
adg

>  <m_score__min__energy>  (88) 
-5.8300000000000001

>  <m_primary>  (88) 
energy

$$$$
88:0
     RDKit          3D

 41 43  0  0  0  0  0  0  0  0999 V2000
  148.8560  157.2900  133.4800 N   0  0  0  0  0  0  0  0  0  0  0  0
  148.3840  158.6170  133.2370 C   0  0  0  0  0  0  0  0  0  0  0  0
  149.2080  159.5090  132.9050 O   0  0  0  0  0  0  0  0  0  0  0  0
  146.9420  158.9370  133.3380 C   0  0  0  0  0  0  0  0  0  0  0  0
  146.4360  160.2330  133.4280 C   0  0  0  0  0  0  0  0  0  0  0  0
  145.0790  160.0830  133.5950 C   0  0  0  0  0  0  0  0  0  0  0  0
  144.0870  161.0430  133.7360 C   0  0  0  0  0  0  0  0  0  0  0  0
  142.7600  160.6090  133.8720 C   0  0  0  0  0  0  0  0  0  0  0  0
  142.4250  159.2200  133.8550 C   0  0  0  0  0  0  0  0  0  0  0  0
  141.0390  158.7760  133.9890 N   0  0  0  0  0  0  0  0  0  0  0  0
  140.5780  158.2260  135.2820 C   0  0  0  0  0  0  0  0  0  0  0  0
  139.0880  157.8730  135.3010 C   0  0  0  0  0  0  0  0  0  0  0  0
  138.6880  157.3140  134.0730 O   0  0  0  0  0  0  0  0  0  0  0  0
  138.7280  158.3240  133.0930 C   0  0  0  0  0  0  0  0  0  0  0  0
  140.1690  158.7460  132.7940 C   0  0  0  0  0  0  0  0  0  0  0  0
  143.4840  158.2810  133.7120 C   0  0  0  0  0  0  0  0  0  0  0  0
  144.8000  158.7450  133.6020 C   0  0  0  0  0  0  0  0  0  0  0  0
  145.9340  158.0250  133.4470 N   0  0  0  0  0  0  0  0  0  0  0  0
  146.0360  156.5940  133.3560 C   0  0  0  0  0  0  0  0  0  0  0  0
  146.6490  156.0660  132.3890 O   0  0  0  0  0  0  0  0  0  0  0  0
  145.4370  155.7700  134.3590 N   0  0  0  0  0  0  0  0  0  0  0  0
  145.8560  154.4010  134.6130 C   0  0  0  0  0  0  0  0  0  0  0  0
  146.9710  154.4020  135.6040 C   0  0  0  0  0  0  0  0  0  0  0  0
  147.0780  153.4650  136.4380 O   0  0  0  0  0  0  0  0  0  0  0  0
  147.8650  155.4650  135.6440 O   0  0  0  0  0  0  0  0  0  0  0  0
  149.8700  157.0670  133.3680 H   0  0  0  0  0  0  0  0  0  0  0  0
  148.2150  156.5370  133.8140 H   0  0  0  0  0  0  0  0  0  0  0  0
  147.0016  161.1750  133.3764 H   0  0  0  0  0  0  0  0  0  0  0  0
  144.3344  162.1148  133.7410 H   0  0  0  0  0  0  0  0  0  0  0  0
  141.9600  161.3540  133.9944 H   0  0  0  0  0  0  0  0  0  0  0  0
  141.1543  157.3142  135.4975 H   0  0  0  0  0  0  0  0  0  0  0  0
  140.7342  159.0080  136.0396 H   0  0  0  0  0  0  0  0  0  0  0  0
  138.9003  157.1466  136.1054 H   0  0  0  0  0  0  0  0  0  0  0  0
  138.5111  158.7938  135.4721 H   0  0  0  0  0  0  0  0  0  0  0  0
  138.2653  157.9466  132.1692 H   0  0  0  0  0  0  0  0  0  0  0  0
  138.1792  159.1992  133.4711 H   0  0  0  0  0  0  0  0  0  0  0  0
  140.5962  158.0354  132.0711 H   0  0  0  0  0  0  0  0  0  0  0  0
  140.1285  159.7721  132.3997 H   0  0  0  0  0  0  0  0  0  0  0  0
  143.2710  157.2021  133.6881 H   0  0  0  0  0  0  0  0  0  0  0  0
  145.0085  153.8259  135.0142 H   0  0  0  0  0  0  0  0  0  0  0  0
  146.1979  153.9403  133.6744 H   0  0  0  0  0  0  0  0  0  0  0  0
  1  2  1  0
  2  3  2  0
  2  4  1  0
  4  5  2  0
  5  6  1  0
  6  7  2  0
  7  8  1  0
  8  9  2  0
  9 10  1  0
 10 11  1  0
 11 12  1  0
 12 13  1  0
 13 14  1  0
 14 15  1  0
  9 16  1  0
 16 17  2  0
 17 18  1  0
 18 19  1  0
 19 20  2  0
 19 21  1  0
 21 22  1  0
 22 23  1  0
 23 24  2  0
 23 25  1  0
 18  4  1  0
 17  6  1  0
 15 10  1  0
  1 26  1  0
  1 27  1  0
  5 28  1  0
  7 29  1  0
  8 30  1  0
 11 31  1  0
 11 32  1  0
 12 33  1  0
 12 34  1  0
 14 35  1  0
 14 36  1  0
 15 37  1  0
 15 38  1  0
 16 39  1  0
 22 40  1  0
 22 41  1  0
M  CHG  2  21  -1  25  -1
M  END
>  <UniqueID>  (89) 
89

>  <SMILES>  (89) 
NC(=O)c1cc2ccc(N3CCOCC3)cc2n1C(=O)[N-]CC(=O)[O-]

>  <Energy>  (89) 
85.25836669444713

>  <Genealogy>  (89) 
NC(=O)c1cc2ccc(N3CCOCC3)cc2n1C(=O)[N-]CC(=O)[O-] (protonated)
NC(=O)c1cc2ccc(N3CCOCC3)cc2n1C(=O)[N-]CC(=O)[O-] (3D coordinates assigned)
NC(=O)c1cc2ccc(N3CCOCC3)cc2n1C(=O)[N-]CC(=O)[O-] (nonaromatic ring conformer: 85.25836669444713 kcal/mol)

>  <smiles>  (89) 
NC(=O)c1cc2ccc(N3CCOCC3)cc2n1C(=O)NCC(=O)O

>  <score_type>  (89) 
oracle

>  <origin>  (89) 
adg

>  <m_score__min__energy>  (89) 
-7.9699999999999998

>  <m_primary>  (89) 
energy

$$$$
89:0
     RDKit          3D

 39 40  0  0  0  0  0  0  0  0999 V2000
  146.2300  162.7600  134.7800 N   0  0  0  0  0  0  0  0  0  0  0  0
  145.0620  162.3060  134.1010 C   0  0  0  0  0  0  0  0  0  0  0  0
  144.2490  163.1500  133.6390 O   0  0  0  0  0  0  0  0  0  0  0  0
  144.8330  160.8580  133.9180 C   0  0  0  0  0  0  0  0  0  0  0  0
  143.6170  160.2280  134.1770 C   0  0  0  0  0  0  0  0  0  0  0  0
  143.8490  158.8860  133.9640 C   0  0  0  0  0  0  0  0  0  0  0  0
  142.9900  157.7970  134.0770 C   0  0  0  0  0  0  0  0  0  0  0  0
  143.5040  156.5210  133.7840 C   0  0  0  0  0  0  0  0  0  0  0  0
  144.8500  156.3610  133.3720 C   0  0  0  0  0  0  0  0  0  0  0  0
  145.3960  154.9880  133.0900 C   0  0  0  0  0  0  0  0  0  0  0  0
  146.3360  154.5410  134.2150 C   0  0  0  0  0  0  0  0  0  0  0  0
  147.7220  155.1850  134.0640 C   0  0  0  0  0  0  0  0  0  0  0  0
  148.0230  155.5890  132.6160 C   0  0  0  0  0  0  0  0  0  0  0  0
  148.7650  156.8470  132.5670 N   0  0  0  0  0  0  0  0  0  0  0  0
  145.6950  157.4900  133.2800 C   0  0  0  0  0  0  0  0  0  0  0  0
  145.1590  158.7440  133.5890 C   0  0  0  0  0  0  0  0  0  0  0  0
  145.7740  159.9440  133.5510 N   0  0  0  0  0  0  0  0  0  0  0  0
  147.1330  160.1820  133.1560 C   0  0  0  0  0  0  0  0  0  0  0  0
  148.0140  160.3820  134.0340 O   0  0  0  0  0  0  0  0  0  0  0  0
  147.5340  160.0980  131.7140 C   0  0  0  0  0  0  0  0  0  0  0  0
  148.6240  159.2300  131.5700 O   0  0  0  0  0  0  0  0  0  0  0  0
  147.1420  162.2640  134.6700 H   0  0  0  0  0  0  0  0  0  0  0  0
  142.6731  160.7010  134.4857 H   0  0  0  0  0  0  0  0  0  0  0  0
  141.9426  157.9299  134.3856 H   0  0  0  0  0  0  0  0  0  0  0  0
  142.8542  155.6382  133.8757 H   0  0  0  0  0  0  0  0  0  0  0  0
  144.5613  154.2759  133.0117 H   0  0  0  0  0  0  0  0  0  0  0  0
  145.9603  155.0172  132.1463 H   0  0  0  0  0  0  0  0  0  0  0  0
  145.9052  154.8377  135.1827 H   0  0  0  0  0  0  0  0  0  0  0  0
  146.4502  153.4482  134.1622 H   0  0  0  0  0  0  0  0  0  0  0  0
  147.7654  156.0830  134.6978 H   0  0  0  0  0  0  0  0  0  0  0  0
  148.4730  154.4410  134.3681 H   0  0  0  0  0  0  0  0  0  0  0  0
  148.6221  154.7992  132.1392 H   0  0  0  0  0  0  0  0  0  0  0  0
  147.0696  155.7234  132.0841 H   0  0  0  0  0  0  0  0  0  0  0  0
  148.1550  157.6050  132.9500 H   0  0  0  0  0  0  0  0  0  0  0  0
  148.9230  157.0840  131.5610 H   0  0  0  0  0  0  0  0  0  0  0  0
  146.7462  157.3851  132.9735 H   0  0  0  0  0  0  0  0  0  0  0  0
  146.6872  159.7209  131.1217 H   0  0  0  0  0  0  0  0  0  0  0  0
  147.8203  161.0993  131.3597 H   0  0  0  0  0  0  0  0  0  0  0  0
  148.9280  159.0020  132.4870 H   0  0  0  0  0  0  0  0  0  0  0  0
  1  2  1  0
  2  3  2  0
  2  4  1  0
  4  5  2  0
  5  6  1  0
  6  7  2  0
  7  8  1  0
  8  9  2  0
  9 10  1  0
 10 11  1  0
 11 12  1  0
 12 13  1  0
 13 14  1  0
  9 15  1  0
 15 16  2  0
 16 17  1  0
 17 18  1  0
 18 19  2  0
 18 20  1  0
 20 21  1  0
 17  4  1  0
 16  6  1  0
  1 22  1  0
  5 23  1  0
  7 24  1  0
  8 25  1  0
 10 26  1  0
 10 27  1  0
 11 28  1  0
 11 29  1  0
 12 30  1  0
 12 31  1  0
 13 32  1  0
 13 33  1  0
 14 34  1  0
 14 35  1  0
 15 36  1  0
 20 37  1  0
 20 38  1  0
 21 39  1  0
M  CHG  1   1  -1
M  END
>  <UniqueID>  (90) 
90

>  <SMILES>  (90) 
[NH-]C(=O)c1cc2ccc(CCCCN)cc2n1C(=O)CO

>  <Energy>  (90) 
69.86143470209237

>  <Genealogy>  (90) 
[NH-]C(=O)c1cc2ccc(CCCCN)cc2n1C(=O)CO (protonated)
[NH-]C(=O)c1cc2ccc(CCCCN)cc2n1C(=O)CO (3D coordinates assigned)
[NH-]C(=O)c1cc2ccc(CCCCN)cc2n1C(=O)CO (optimized conformer: 69.86143470209237 kcal/mol)

>  <smiles>  (90) 
NCCCCc1ccc2cc(C(N)=O)n(C(=O)CO)c2c1

>  <score_type>  (90) 
oracle

>  <origin>  (90) 
adg

>  <m_score__min__energy>  (90) 
-6.4699999999999998

>  <m_primary>  (90) 
energy

$$$$
90:0
     RDKit          3D

 35 36  0  0  0  0  0  0  0  0999 V2000
  150.3490  150.4160  130.8760 C   0  0  0  0  0  0  0  0  0  0  0  0
  149.4370  151.1250  131.5470 C   0  0  0  0  0  0  0  0  0  0  0  0
  149.8030  151.9230  132.7660 C   0  0  0  0  0  0  0  0  0  0  0  0
  149.8580  153.3520  132.4550 N   0  0  0  0  0  0  0  0  0  0  0  0
  148.7900  154.2840  132.7170 C   0  0  0  0  0  0  0  0  0  0  0  0
  147.5180  153.7820  133.0890 C   0  0  0  0  0  0  0  0  0  0  0  0
  146.4430  154.6520  133.3380 C   0  0  0  0  0  0  0  0  0  0  0  0
  146.6700  156.0190  133.2220 C   0  0  0  0  0  0  0  0  0  0  0  0
  145.7980  157.0760  133.3570 C   0  0  0  0  0  0  0  0  0  0  0  0
  146.5580  158.2140  133.1000 C   0  0  0  0  0  0  0  0  0  0  0  0
  146.0150  159.5870  133.1560 C   0  0  0  0  0  0  0  0  0  0  0  0
  146.8640  160.7130  133.3850 N   0  0  0  0  0  0  0  0  0  0  0  0
  144.7730  159.7650  133.0450 O   0  0  0  0  0  0  0  0  0  0  0  0
  147.8460  157.8780  132.8130 N   0  0  0  0  0  0  0  0  0  0  0  0
  148.8940  158.7540  132.3710 C   0  0  0  0  0  0  0  0  0  0  0  0
  149.5830  159.3780  133.2230 O   0  0  0  0  0  0  0  0  0  0  0  0
  149.1860  158.8950  130.9310 C   0  0  0  0  0  0  0  0  0  0  0  0
  149.5590  160.0500  130.3860 C   0  0  0  0  0  0  0  0  0  0  0  0
  147.8980  156.5280  132.8870 C   0  0  0  0  0  0  0  0  0  0  0  0
  148.9790  155.6850  132.6060 C   0  0  0  0  0  0  0  0  0  0  0  0
  150.0529  149.8407  129.9864 H   0  0  0  0  0  0  0  0  0  0  0  0
  151.3960  150.4075  131.2131 H   0  0  0  0  0  0  0  0  0  0  0  0
  148.3936  151.1245  131.1987 H   0  0  0  0  0  0  0  0  0  0  0  0
  149.0484  151.7530  133.5482 H   0  0  0  0  0  0  0  0  0  0  0  0
  150.7951  151.5997  133.1141 H   0  0  0  0  0  0  0  0  0  0  0  0
  150.7320  153.7090  132.0070 H   0  0  0  0  0  0  0  0  0  0  0  0
  147.3702  152.6961  133.1842 H   0  0  0  0  0  0  0  0  0  0  0  0
  145.4522  154.2636  133.6162 H   0  0  0  0  0  0  0  0  0  0  0  0
  144.7292  157.0310  133.6132 H   0  0  0  0  0  0  0  0  0  0  0  0
  147.8600  160.5910  133.6700 H   0  0  0  0  0  0  0  0  0  0  0  0
  146.4670  161.6790  133.3660 H   0  0  0  0  0  0  0  0  0  0  0  0
  149.0916  158.0109  130.2834 H   0  0  0  0  0  0  0  0  0  0  0  0
  149.7663  160.1076  129.3072 H   0  0  0  0  0  0  0  0  0  0  0  0
  149.6601  160.9473  131.0142 H   0  0  0  0  0  0  0  0  0  0  0  0
  149.9528  156.0995  132.3060 H   0  0  0  0  0  0  0  0  0  0  0  0
  1  2  2  0
  2  3  1  0
  3  4  1  0
  4  5  1  0
  5  6  2  0
  6  7  1  0
  7  8  2  0
  8  9  1  0
  9 10  2  0
 10 11  1  0
 11 12  1  0
 11 13  2  0
 10 14  1  0
 14 15  1  0
 15 16  2  0
 15 17  1  0
 17 18  2  0
 14 19  1  0
 19 20  2  0
 20  5  1  0
 19  8  1  0
  1 21  1  0
  1 22  1  0
  2 23  1  0
  3 24  1  0
  3 25  1  0
  4 26  1  0
  6 27  1  0
  7 28  1  0
  9 29  1  0
 12 30  1  0
 12 31  1  0
 17 32  1  0
 18 33  1  0
 18 34  1  0
 20 35  1  0
M  END
>  <UniqueID>  (91) 
91

>  <SMILES>  (91) 
C=CCNc1ccc2cc(C(N)=O)n(C(=O)C=C)c2c1

>  <Energy>  (91) 
70.53620619577023

>  <Genealogy>  (91) 
C=CCNc1ccc2cc(C(N)=O)n(C(=O)C=C)c2c1 (3D coordinates assigned)
C=CCNc1ccc2cc(C(N)=O)n(C(=O)C=C)c2c1 (optimized conformer: 70.53620619577023 kcal/mol)

>  <smiles>  (91) 
C=CCNc1ccc2cc(C(N)=O)n(C(=O)C=C)c2c1

>  <score_type>  (91) 
oracle

>  <origin>  (91) 
adg

>  <m_score__min__energy>  (91) 
-7.3200000000000003

>  <m_primary>  (91) 
energy

$$$$
91:0
     RDKit          3D

 33 35  0  0  0  0  0  0  0  0999 V2000
  138.5350  157.0230  133.4950 N   0  0  0  0  0  0  0  0  0  0  0  0
  139.1750  157.8620  134.4580 C   0  0  0  0  0  0  0  0  0  0  0  0
  138.5340  158.2300  135.4790 O   0  0  0  0  0  0  0  0  0  0  0  0
  140.5490  158.3590  134.2470 C   0  0  0  0  0  0  0  0  0  0  0  0
  140.9140  159.6920  134.4140 C   0  0  0  0  0  0  0  0  0  0  0  0
  142.2430  159.7510  134.0640 C   0  0  0  0  0  0  0  0  0  0  0  0
  143.1180  160.8330  134.0580 C   0  0  0  0  0  0  0  0  0  0  0  0
  144.4520  160.5990  133.6860 C   0  0  0  0  0  0  0  0  0  0  0  0
  144.8840  159.2970  133.3420 C   0  0  0  0  0  0  0  0  0  0  0  0
  146.2460  159.0700  132.9800 N   0  0  0  0  0  0  0  0  0  0  0  0
  147.3520  159.8320  132.3660 C   0  0  0  0  0  0  0  0  0  0  0  0
  148.3540  158.7210  132.4180 C   0  0  0  0  0  0  0  0  0  0  0  0
  149.4620  158.9870  133.3410 N   0  0  0  0  0  0  0  0  0  0  0  0
  147.2190  157.9610  133.0360 C   0  0  0  0  0  0  0  0  0  0  0  0
  143.9720  158.2220  133.3600 C   0  0  0  0  0  0  0  0  0  0  0  0
  142.6420  158.4850  133.7120 C   0  0  0  0  0  0  0  0  0  0  0  0
  141.6110  157.6170  133.8220 N   0  0  0  0  0  0  0  0  0  0  0  0
  141.6670  156.1900  133.6470 C   0  0  0  0  0  0  0  0  0  0  0  0
  142.6500  155.5350  134.0840 O   0  0  0  0  0  0  0  0  0  0  0  0
  140.6430  155.5200  132.9930 O   0  0  0  0  0  0  0  0  0  0  0  0
  138.9720  156.8400  132.5660 H   0  0  0  0  0  0  0  0  0  0  0  0
  137.5780  156.6500  133.6800 H   0  0  0  0  0  0  0  0  0  0  0  0
  140.2758  160.5212  134.7534 H   0  0  0  0  0  0  0  0  0  0  0  0
  142.7754  161.8406  134.3361 H   0  0  0  0  0  0  0  0  0  0  0  0
  145.1664  161.4351  133.6620 H   0  0  0  0  0  0  0  0  0  0  0  0
  147.1273  160.1541  131.3385 H   0  0  0  0  0  0  0  0  0  0  0  0
  147.6317  160.7832  132.8425 H   0  0  0  0  0  0  0  0  0  0  0  0
  148.9306  158.3628  131.5524 H   0  0  0  0  0  0  0  0  0  0  0  0
  149.5380  158.2260  134.0550 H   0  0  0  0  0  0  0  0  0  0  0  0
  150.3470  158.9750  132.7840 H   0  0  0  0  0  0  0  0  0  0  0  0
  146.9103  157.0934  132.4343 H   0  0  0  0  0  0  0  0  0  0  0  0
  147.3988  157.4988  134.0179 H   0  0  0  0  0  0  0  0  0  0  0  0
  144.2967  157.2026  133.1041 H   0  0  0  0  0  0  0  0  0  0  0  0
  1  2  1  0
  2  3  2  0
  2  4  1  0
  4  5  2  0
  5  6  1  0
  6  7  2  0
  7  8  1  0
  8  9  2  0
  9 10  1  0
 10 11  1  0
 11 12  1  0
 12 13  1  0
 12 14  1  0
  9 15  1  0
 15 16  2  0
 16 17  1  0
 17 18  1  0
 18 19  2  0
 18 20  1  0
 17  4  1  0
 16  6  1  0
 14 10  1  0
  1 21  1  0
  1 22  1  0
  5 23  1  0
  7 24  1  0
  8 25  1  0
 11 26  1  0
 11 27  1  0
 12 28  1  0
 13 29  1  0
 13 30  1  0
 14 31  1  0
 14 32  1  0
 15 33  1  0
M  CHG  1  20  -1
M  END
>  <UniqueID>  (92) 
92

>  <SMILES>  (92) 
NC(=O)c1cc2ccc(N3CC(N)C3)cc2n1C(=O)[O-]

>  <Energy>  (92) 
119.29641455263977

>  <Genealogy>  (92) 
NC(=O)c1cc2ccc(N3CC(N)C3)cc2n1C(=O)[O-] (protonated)
NC(=O)c1cc2ccc(N3CC(N)C3)cc2n1C(=O)[O-] (3D coordinates assigned)
NC(=O)c1cc2ccc(N3CC(N)C3)cc2n1C(=O)[O-] (nonaromatic ring conformer: 119.29641455263977 kcal/mol)

>  <smiles>  (92) 
NC(=O)c1cc2ccc(N3CC(N)C3)cc2n1C(=O)O

>  <score_type>  (92) 
oracle

>  <origin>  (92) 
adg

>  <m_score__min__energy>  (92) 
-6.6299999999999999

>  <m_primary>  (92) 
energy

$$$$
92:0
     RDKit          3D

 36 37  0  0  0  0  0  0  0  0999 V2000
  145.8070  153.8820  133.4580 C   0  0  0  0  0  0  0  0  0  0  0  0
  146.8750  154.1720  134.5260 C   0  0  0  0  0  0  0  0  0  0  0  0
  148.1560  153.3650  134.2480 C   0  0  0  0  0  0  0  0  0  0  0  0
  147.1870  155.6070  134.5540 N   0  0  0  0  0  0  0  0  0  0  0  0
  147.4470  156.4600  133.4310 C   0  0  0  0  0  0  0  0  0  0  0  0
  148.3040  156.1380  132.5640 O   0  0  0  0  0  0  0  0  0  0  0  0
  146.7110  157.6840  133.2840 N   0  0  0  0  0  0  0  0  0  0  0  0
  147.1410  158.8570  132.7390 C   0  0  0  0  0  0  0  0  0  0  0  0
  148.5240  159.1640  132.3150 C   0  0  0  0  0  0  0  0  0  0  0  0
  149.1020  158.5270  131.1790 N   0  0  0  0  0  0  0  0  0  0  0  0
  149.2210  159.9650  132.9940 O   0  0  0  0  0  0  0  0  0  0  0  0
  146.1030  159.7870  132.7040 C   0  0  0  0  0  0  0  0  0  0  0  0
  145.0190  159.1430  133.2540 C   0  0  0  0  0  0  0  0  0  0  0  0
  143.7210  159.6000  133.4680 C   0  0  0  0  0  0  0  0  0  0  0  0
  142.7960  158.7090  134.0380 C   0  0  0  0  0  0  0  0  0  0  0  0
  143.1700  157.3790  134.3580 C   0  0  0  0  0  0  0  0  0  0  0  0
  142.1760  156.4470  135.0020 C   0  0  0  0  0  0  0  0  0  0  0  0
  142.4570  156.3450  136.3520 F   0  0  0  0  0  0  0  0  0  0  0  0
  140.8880  156.9270  134.8450 F   0  0  0  0  0  0  0  0  0  0  0  0
  142.2400  155.1870  134.4320 F   0  0  0  0  0  0  0  0  0  0  0  0
  144.5060  156.9610  134.1450 C   0  0  0  0  0  0  0  0  0  0  0  0
  145.4100  157.8750  133.5950 C   0  0  0  0  0  0  0  0  0  0  0  0
  146.3140  153.7790  135.8740 C   0  0  0  0  0  0  0  0  0  0  0  0
  147.0560  153.2500  136.7460 O   0  0  0  0  0  0  0  0  0  0  0  0
  144.9920  154.0670  136.1980 O   0  0  0  0  0  0  0  0  0  0  0  0
  144.8574  153.6241  133.9496 H   0  0  0  0  0  0  0  0  0  0  0  0
  145.6645  154.7740  132.8302 H   0  0  0  0  0  0  0  0  0  0  0  0
  146.1352  153.0405  132.8302 H   0  0  0  0  0  0  0  0  0  0  0  0
  148.6196  153.0729  135.2018 H   0  0  0  0  0  0  0  0  0  0  0  0
  147.9032  152.4628  133.6718 H   0  0  0  0  0  0  0  0  0  0  0  0
  148.8606  153.9826  133.6718 H   0  0  0  0  0  0  0  0  0  0  0  0
  149.0930  157.4870  131.0830 H   0  0  0  0  0  0  0  0  0  0  0  0
  146.1424  160.8165  132.3186 H   0  0  0  0  0  0  0  0  0  0  0  0
  143.4291  160.6260  133.1993 H   0  0  0  0  0  0  0  0  0  0  0  0
  141.7687  159.0474  134.2385 H   0  0  0  0  0  0  0  0  0  0  0  0
  144.8252  155.9412  134.4061 H   0  0  0  0  0  0  0  0  0  0  0  0
  1  2  1  0
  2  3  1  0
  2  4  1  0
  4  5  1  0
  5  6  2  0
  5  7  1  0
  7  8  1  0
  8  9  1  0
  9 10  1  0
  9 11  2  0
  8 12  2  0
 12 13  1  0
 13 14  2  0
 14 15  1  0
 15 16  2  0
 16 17  1  0
 17 18  1  0
 17 19  1  0
 17 20  1  0
 16 21  1  0
 21 22  2  0
  2 23  1  0
 23 24  2  0
 23 25  1  0
 22  7  1  0
 22 13  1  0
  1 26  1  0
  1 27  1  0
  1 28  1  0
  3 29  1  0
  3 30  1  0
  3 31  1  0
 10 32  1  0
 12 33  1  0
 14 34  1  0
 15 35  1  0
 21 36  1  0
M  CHG  3   4  -1  10  -1  25  -1
M  END
>  <UniqueID>  (93) 
93

>  <SMILES>  (93) 
CC(C)([N-]C(=O)n1c(C([NH-])=O)cc2ccc(C(F)(F)F)cc21)C(=O)[O-]

>  <Energy>  (93) 
73.33393314789124

>  <Genealogy>  (93) 
CC(C)([N-]C(=O)n1c(C([NH-])=O)cc2ccc(C(F)(F)F)cc21)C(=O)[O-] (protonated)
CC(C)([N-]C(=O)n1c(C([NH-])=O)cc2ccc(C(F)(F)F)cc21)C(=O)[O-] (3D coordinates assigned)
CC(C)([N-]C(=O)n1c(C([NH-])=O)cc2ccc(C(F)(F)F)cc21)C(=O)[O-] (optimized conformer: 73.33393314789124 kcal/mol)

>  <smiles>  (93) 
CC(C)(NC(=O)n1c(C(N)=O)cc2ccc(C(F)(F)F)cc21)C(=O)O

>  <score_type>  (93) 
oracle

>  <origin>  (93) 
adg

>  <m_score__min__energy>  (93) 
-6.7699999999999996

>  <m_primary>  (93) 
energy

$$$$
93:0
     RDKit          3D

 45 47  0  0  0  0  0  0  0  0999 V2000
  142.7530  160.5600  133.3600 N   0  0  0  0  0  0  0  0  0  0  0  0
  144.1140  160.7900  133.7120 C   0  0  0  0  0  0  0  0  0  0  0  0
  144.4250  161.8530  134.3130 O   0  0  0  0  0  0  0  0  0  0  0  0
  145.1530  159.7790  133.4290 C   0  0  0  0  0  0  0  0  0  0  0  0
  146.5000  160.0890  133.2450 C   0  0  0  0  0  0  0  0  0  0  0  0
  147.1380  158.8780  133.1060 C   0  0  0  0  0  0  0  0  0  0  0  0
  148.4830  158.5940  132.8880 C   0  0  0  0  0  0  0  0  0  0  0  0
  148.8590  157.2460  132.7560 C   0  0  0  0  0  0  0  0  0  0  0  0
  147.8900  156.2150  132.8360 C   0  0  0  0  0  0  0  0  0  0  0  0
  148.3110  154.7810  132.6770 C   0  0  0  0  0  0  0  0  0  0  0  0
  149.6400  154.7260  132.3010 F   0  0  0  0  0  0  0  0  0  0  0  0
  148.1490  154.1130  133.8770 F   0  0  0  0  0  0  0  0  0  0  0  0
  146.5330  156.5410  133.0550 C   0  0  0  0  0  0  0  0  0  0  0  0
  146.1910  157.8920  133.2010 C   0  0  0  0  0  0  0  0  0  0  0  0
  144.9670  158.4290  133.3940 N   0  0  0  0  0  0  0  0  0  0  0  0
  143.7270  157.7090  133.4670 C   0  0  0  0  0  0  0  0  0  0  0  0
  142.8330  157.9090  132.6020 O   0  0  0  0  0  0  0  0  0  0  0  0
  143.5310  156.7750  134.4910 O   0  0  0  0  0  0  0  0  0  0  0  0
  142.2420  156.3950  134.9720 C   0  0  0  0  0  0  0  0  0  0  0  0
  141.8070  157.2730  136.1510 C   0  0  0  0  0  0  0  0  0  0  0  0
  141.4110  158.6810  135.6960 C   0  0  0  0  0  0  0  0  0  0  0  0
  140.2380  158.6190  134.7650 C   0  0  0  0  0  0  0  0  0  0  0  0
  139.1120  158.2590  135.2070 O   0  0  0  0  0  0  0  0  0  0  0  0
  140.3850  159.0070  133.3930 N   0  0  0  0  0  0  0  0  0  0  0  0
  139.2470  159.0410  132.4820 C   0  0  0  0  0  0  0  0  0  0  0  0
  139.1010  160.3510  131.7280 C   0  0  0  0  0  0  0  0  0  0  0  0
  139.6490  159.1220  131.0190 C   0  0  0  0  0  0  0  0  0  0  0  0
  142.5020  160.0350  132.4940 H   0  0  0  0  0  0  0  0  0  0  0  0
  146.9559  161.0897  133.2169 H   0  0  0  0  0  0  0  0  0  0  0  0
  149.2289  159.3997  132.8211 H   0  0  0  0  0  0  0  0  0  0  0  0
  149.9154  156.9890  132.5890 H   0  0  0  0  0  0  0  0  0  0  0  0
  147.6893  154.3057  131.9040 H   0  0  0  0  0  0  0  0  0  0  0  0
  145.7652  155.7552  133.1094 H   0  0  0  0  0  0  0  0  0  0  0  0
  141.5102  156.5003  134.1576 H   0  0  0  0  0  0  0  0  0  0  0  0
  142.2933  155.3515  135.3162 H   0  0  0  0  0  0  0  0  0  0  0  0
  140.9443  156.8029  136.6458 H   0  0  0  0  0  0  0  0  0  0  0  0
  142.6580  157.3637  136.8420 H   0  0  0  0  0  0  0  0  0  0  0  0
  141.1437  159.2844  136.5760 H   0  0  0  0  0  0  0  0  0  0  0  0
  142.2613  159.1377  135.1684 H   0  0  0  0  0  0  0  0  0  0  0  0
  141.3100  159.3670  133.0620 H   0  0  0  0  0  0  0  0  0  0  0  0
  138.5724  158.4064  133.0754 H   0  0  0  0  0  0  0  0  0  0  0  0
  138.1004  160.7315  131.4750 H   0  0  0  0  0  0  0  0  0  0  0  0
  139.4535  161.3814  131.8832 H   0  0  0  0  0  0  0  0  0  0  0  0
  139.0448  158.6133  130.2534 H   0  0  0  0  0  0  0  0  0  0  0  0
  140.5620  158.8947  130.4490 H   0  0  0  0  0  0  0  0  0  0  0  0
  1  2  1  0
  2  3  2  0
  2  4  1  0
  4  5  2  0
  5  6  1  0
  6  7  2  0
  7  8  1  0
  8  9  2  0
  9 10  1  0
 10 11  1  0
 10 12  1  0
  9 13  1  0
 13 14  2  0
 14 15  1  0
 15 16  1  0
 16 17  2  0
 16 18  1  0
 18 19  1  0
 19 20  1  0
 20 21  1  0
 21 22  1  0
 22 23  2  0
 22 24  1  0
 24 25  1  0
 25 26  1  0
 26 27  1  0
 15  4  1  0
 27 25  1  0
 14  6  1  0
  1 28  1  0
  5 29  1  0
  7 30  1  0
  8 31  1  0
 10 32  1  0
 13 33  1  0
 19 34  1  0
 19 35  1  0
 20 36  1  0
 20 37  1  0
 21 38  1  0
 21 39  1  0
 24 40  1  0
 25 41  1  0
 26 42  1  0
 26 43  1  0
 27 44  1  0
 27 45  1  0
M  CHG  1   1  -1
M  END
>  <UniqueID>  (94) 
94

>  <SMILES>  (94) 
[NH-]C(=O)c1cc2ccc(C(F)F)cc2n1C(=O)OCCCC(=O)NC1CC1

>  <Energy>  (94) 
340.067984448958

>  <Genealogy>  (94) 
[NH-]C(=O)c1cc2ccc(C(F)F)cc2n1C(=O)OCCCC(=O)NC1CC1 (protonated)
[NH-]C(=O)c1cc2ccc(C(F)F)cc2n1C(=O)OCCCC(=O)NC1CC1 (3D coordinates assigned)
[NH-]C(=O)c1cc2ccc(C(F)F)cc2n1C(=O)OCCCC(=O)NC1CC1 (nonaromatic ring conformer: 340.067984448958 kcal/mol)

>  <smiles>  (94) 
NC(=O)c1cc2ccc(C(F)F)cc2n1C(=O)OCCCC(=O)NC1CC1

>  <score_type>  (94) 
oracle

>  <origin>  (94) 
adg

>  <m_score__min__energy>  (94) 
-7.4199999999999999

>  <m_primary>  (94) 
energy

$$$$
94:0
     RDKit          3D

 28 30  0  0  0  0  0  0  0  0999 V2000
  146.0880  153.3400  134.3050 N   0  0  0  0  0  0  0  0  0  0  0  0
  146.7950  154.3360  135.0380 C   0  0  0  0  0  0  0  0  0  0  0  0
  147.0020  154.1660  136.2690 O   0  0  0  0  0  0  0  0  0  0  0  0
  147.2370  155.5860  134.3870 C   0  0  0  0  0  0  0  0  0  0  0  0
  146.7350  156.8430  134.7220 C   0  0  0  0  0  0  0  0  0  0  0  0
  147.3220  157.7180  133.8380 C   0  0  0  0  0  0  0  0  0  0  0  0
  147.1920  159.1000  133.7300 C   0  0  0  0  0  0  0  0  0  0  0  0
  147.9460  159.7560  132.7420 C   0  0  0  0  0  0  0  0  0  0  0  0
  148.8010  159.0230  131.8840 C   0  0  0  0  0  0  0  0  0  0  0  0
  149.6410  159.7430  130.8660 C   0  0  0  0  0  0  0  0  0  0  0  0
  150.9770  159.4060  130.7470 F   0  0  0  0  0  0  0  0  0  0  0  0
  149.3150  161.2050  130.6130 C   0  0  0  0  0  0  0  0  0  0  0  0
  148.9570  160.1540  129.5730 C   0  0  0  0  0  0  0  0  0  0  0  0
  148.9220  157.6240  132.0360 C   0  0  0  0  0  0  0  0  0  0  0  0
  148.1450  156.9940  133.0150 C   0  0  0  0  0  0  0  0  0  0  0  0
  148.1080  155.6820  133.3430 N   0  0  0  0  0  0  0  0  0  0  0  0
  148.9070  154.6360  132.7650 C   0  0  0  0  0  0  0  0  0  0  0  0
  150.0190  154.9020  132.2390 O   0  0  0  0  0  0  0  0  0  0  0  0
  148.4710  153.3180  132.8070 O   0  0  0  0  0  0  0  0  0  0  0  0
  146.5980  152.6130  133.7550 H   0  0  0  0  0  0  0  0  0  0  0  0
  146.0209  157.0838  135.5233 H   0  0  0  0  0  0  0  0  0  0  0  0
  146.5204  159.6606  134.3968 H   0  0  0  0  0  0  0  0  0  0  0  0
  147.8713  160.8482  132.6344 H   0  0  0  0  0  0  0  0  0  0  0  0
  148.5207  161.6995  131.1913 H   0  0  0  0  0  0  0  0  0  0  0  0
  149.8927  162.1411  130.6063 H   0  0  0  0  0  0  0  0  0  0  0  0
  147.9038  159.8884  129.3992 H   0  0  0  0  0  0  0  0  0  0  0  0
  149.1685  160.0149  128.5025 H   0  0  0  0  0  0  0  0  0  0  0  0
  149.6089  157.0447  131.4015 H   0  0  0  0  0  0  0  0  0  0  0  0
  1  2  1  0
  2  3  2  0
  2  4  1  0
  4  5  2  0
  5  6  1  0
  6  7  2  0
  7  8  1  0
  8  9  2  0
  9 10  1  0
 10 11  1  0
 10 12  1  0
 12 13  1  0
  9 14  1  0
 14 15  2  0
 15 16  1  0
 16 17  1  0
 17 18  2  0
 17 19  1  0
 16  4  1  0
 15  6  1  0
 13 10  1  0
  1 20  1  0
  5 21  1  0
  7 22  1  0
  8 23  1  0
 12 24  1  0
 12 25  1  0
 13 26  1  0
 13 27  1  0
 14 28  1  0
M  CHG  2   1  -1  19  -1
M  END
>  <UniqueID>  (95) 
95

>  <SMILES>  (95) 
[NH-]C(=O)c1cc2ccc(C3(F)CC3)cc2n1C(=O)[O-]

>  <Energy>  (95) 
335.7846390212749

>  <Genealogy>  (95) 
[NH-]C(=O)c1cc2ccc(C3(F)CC3)cc2n1C(=O)[O-] (protonated)
[NH-]C(=O)c1cc2ccc(C3(F)CC3)cc2n1C(=O)[O-] (3D coordinates assigned)
[NH-]C(=O)c1cc2ccc(C3(F)CC3)cc2n1C(=O)[O-] (nonaromatic ring conformer: 335.7846390212749 kcal/mol)

>  <smiles>  (95) 
NC(=O)c1cc2ccc(C3(F)CC3)cc2n1C(=O)O

>  <score_type>  (95) 
oracle

>  <origin>  (95) 
adg

>  <m_score__min__energy>  (95) 
-6.1900000000000004

>  <m_primary>  (95) 
energy

$$$$
95:0
     RDKit          3D

 38 39  0  0  0  0  0  0  0  0999 V2000
  141.0290  159.4300  135.6670 C   0  0  0  0  0  0  0  0  0  0  0  0
  141.2760  158.4220  134.6240 N   0  0  0  0  0  0  0  0  0  0  0  0
  140.0100  157.9630  134.0320 C   0  0  0  0  0  0  0  0  0  0  0  0
  142.0080  157.2970  135.1730 C   0  0  0  0  0  0  0  0  0  0  0  0
  141.5250  156.6350  136.0840 O   0  0  0  0  0  0  0  0  0  0  0  0
  143.3650  156.9170  134.6350 C   0  0  0  0  0  0  0  0  0  0  0  0
  143.7040  157.7060  133.4030 C   0  0  0  0  0  0  0  0  0  0  0  0
  142.9490  157.6520  132.3940 O   0  0  0  0  0  0  0  0  0  0  0  0
  144.9360  158.4390  133.3260 N   0  0  0  0  0  0  0  0  0  0  0  0
  145.1160  159.7790  133.4910 C   0  0  0  0  0  0  0  0  0  0  0  0
  144.0430  160.7820  133.6700 C   0  0  0  0  0  0  0  0  0  0  0  0
  142.6860  160.4710  133.3690 N   0  0  0  0  0  0  0  0  0  0  0  0
  144.3350  161.9420  134.0710 O   0  0  0  0  0  0  0  0  0  0  0  0
  146.4690  160.1030  133.4140 C   0  0  0  0  0  0  0  0  0  0  0  0
  147.1180  158.9080  133.1960 C   0  0  0  0  0  0  0  0  0  0  0  0
  148.4750  158.6390  133.0470 C   0  0  0  0  0  0  0  0  0  0  0  0
  148.8640  157.3020  132.8570 C   0  0  0  0  0  0  0  0  0  0  0  0
  147.8980  156.2640  132.8400 C   0  0  0  0  0  0  0  0  0  0  0  0
  148.3230  154.8450  132.6100 C   0  0  0  0  0  0  0  0  0  0  0  0
  149.6960  154.7920  132.4620 F   0  0  0  0  0  0  0  0  0  0  0  0
  146.5290  156.5780  132.9810 C   0  0  0  0  0  0  0  0  0  0  0  0
  146.1690  157.9190  133.1500 C   0  0  0  0  0  0  0  0  0  0  0  0
  141.1424  158.9671  136.6584 H   0  0  0  0  0  0  0  0  0  0  0  0
  141.7523  160.2520  135.5612 H   0  0  0  0  0  0  0  0  0  0  0  0
  140.0076  159.8245  135.5612 H   0  0  0  0  0  0  0  0  0  0  0  0
  141.8380  158.8800  133.8660 H   0  0  0  0  0  0  0  0  0  0  0  0
  139.3021  157.7063  134.8338 H   0  0  0  0  0  0  0  0  0  0  0  0
  139.5845  158.7641  133.4097 H   0  0  0  0  0  0  0  0  0  0  0  0
  140.1967  157.0754  133.4097 H   0  0  0  0  0  0  0  0  0  0  0  0
  144.1242  157.1134  135.4064 H   0  0  0  0  0  0  0  0  0  0  0  0
  143.3469  155.8496  134.3697 H   0  0  0  0  0  0  0  0  0  0  0  0
  142.4460  159.7530  132.6500 H   0  0  0  0  0  0  0  0  0  0  0  0
  146.9223  161.1009  133.5075 H   0  0  0  0  0  0  0  0  0  0  0  0
  149.2201  159.4477  133.0770 H   0  0  0  0  0  0  0  0  0  0  0  0
  149.9279  157.0584  132.7202 H   0  0  0  0  0  0  0  0  0  0  0  0
  148.0232  154.2287  133.4704 H   0  0  0  0  0  0  0  0  0  0  0  0
  147.8416  154.4620  131.6981 H   0  0  0  0  0  0  0  0  0  0  0  0
  145.7643  155.7877  132.9585 H   0  0  0  0  0  0  0  0  0  0  0  0
  1  2  1  0
  2  3  1  0
  2  4  1  0
  4  5  2  0
  4  6  1  0
  6  7  1  0
  7  8  2  0
  7  9  1  0
  9 10  1  0
 10 11  1  0
 11 12  1  0
 11 13  2  0
 10 14  2  0
 14 15  1  0
 15 16  2  0
 16 17  1  0
 17 18  2  0
 18 19  1  0
 19 20  1  0
 18 21  1  0
 21 22  2  0
 22  9  1  0
 22 15  1  0
  1 23  1  0
  1 24  1  0
  1 25  1  0
  2 26  1  0
  3 27  1  0
  3 28  1  0
  3 29  1  0
  6 30  1  0
  6 31  1  0
 12 32  1  0
 14 33  1  0
 16 34  1  0
 17 35  1  0
 19 36  1  0
 19 37  1  0
 21 38  1  0
M  CHG  2   2   1  12  -1
M  END
>  <UniqueID>  (96) 
96

>  <SMILES>  (96) 
C[NH+](C)C(=O)CC(=O)n1c(C([NH-])=O)cc2ccc(CF)cc21

>  <Energy>  (96) 
75.19000039977522

>  <Genealogy>  (96) 
C[NH+](C)C(=O)CC(=O)n1c(C([NH-])=O)cc2ccc(CF)cc21 (protonated)
C[NH+](C)C(=O)CC(=O)n1c(C([NH-])=O)cc2ccc(CF)cc21 (3D coordinates assigned)
C[NH+](C)C(=O)CC(=O)n1c(C([NH-])=O)cc2ccc(CF)cc21 (optimized conformer: 75.19000039977522 kcal/mol)

>  <smiles>  (96) 
CN(C)C(=O)CC(=O)n1c(C(N)=O)cc2ccc(CF)cc21

>  <score_type>  (96) 
oracle

>  <origin>  (96) 
adg

>  <m_score__min__energy>  (96) 
-5.0199999999999996

>  <m_primary>  (96) 
energy

$$$$
96:0
     RDKit          3D

 34 36  0  0  0  0  0  0  0  0999 V2000
  147.9330  151.4740  132.5480 N   0  0  0  0  0  0  0  0  0  0  0  0
  148.8270  152.5000  132.9740 C   0  0  0  0  0  0  0  0  0  0  0  0
  149.9780  152.1830  133.3780 O   0  0  0  0  0  0  0  0  0  0  0  0
  148.4140  153.9200  132.9790 C   0  0  0  0  0  0  0  0  0  0  0  0
  149.2500  154.9680  132.5970 C   0  0  0  0  0  0  0  0  0  0  0  0
  148.5100  156.1130  132.7850 C   0  0  0  0  0  0  0  0  0  0  0  0
  148.8380  157.4420  132.5410 C   0  0  0  0  0  0  0  0  0  0  0  0
  147.8600  158.4200  132.7940 C   0  0  0  0  0  0  0  0  0  0  0  0
  146.5760  158.0580  133.2830 C   0  0  0  0  0  0  0  0  0  0  0  0
  145.5580  159.1130  133.5240 C   0  0  0  0  0  0  0  0  0  0  0  0
  145.9200  160.4540  133.7370 C   0  0  0  0  0  0  0  0  0  0  0  0
  144.9120  161.3930  133.9530 C   0  0  0  0  0  0  0  0  0  0  0  0
  143.6100  161.0080  133.9480 N   0  0  0  0  0  0  0  0  0  0  0  0
  143.2710  159.7110  133.7320 C   0  0  0  0  0  0  0  0  0  0  0  0
  144.2370  158.7800  133.5210 N   0  0  0  0  0  0  0  0  0  0  0  0
  146.2810  156.6900  133.5050 C   0  0  0  0  0  0  0  0  0  0  0  0
  147.2810  155.7430  133.2630 C   0  0  0  0  0  0  0  0  0  0  0  0
  147.2070  154.4010  133.3910 N   0  0  0  0  0  0  0  0  0  0  0  0
  146.0580  153.6510  133.8080 C   0  0  0  0  0  0  0  0  0  0  0  0
  145.4980  152.8620  133.0010 O   0  0  0  0  0  0  0  0  0  0  0  0
  145.5410  153.7660  135.2100 C   0  0  0  0  0  0  0  0  0  0  0  0
  146.6810  153.9210  136.1630 C   0  0  0  0  0  0  0  0  0  0  0  0
  146.9550  153.0010  136.9770 O   0  0  0  0  0  0  0  0  0  0  0  0
  147.4100  155.1030  136.1880 O   0  0  0  0  0  0  0  0  0  0  0  0
  147.0150  151.3280  133.0240 H   0  0  0  0  0  0  0  0  0  0  0  0
  150.2824  154.8952  132.2243 H   0  0  0  0  0  0  0  0  0  0  0  0
  149.8324  157.7198  132.1616 H   0  0  0  0  0  0  0  0  0  0  0  0
  148.0920  159.4795  132.6109 H   0  0  0  0  0  0  0  0  0  0  0  0
  146.9775  160.7569  133.7334 H   0  0  0  0  0  0  0  0  0  0  0  0
  145.1721  162.4474  134.1277 H   0  0  0  0  0  0  0  0  0  0  0  0
  142.2119  159.4138  133.7279 H   0  0  0  0  0  0  0  0  0  0  0  0
  145.2871  156.3798  133.8599 H   0  0  0  0  0  0  0  0  0  0  0  0
  144.8818  154.6435  135.2845 H   0  0  0  0  0  0  0  0  0  0  0  0
  144.9790  152.8551  135.4638 H   0  0  0  0  0  0  0  0  0  0  0  0
  1  2  1  0
  2  3  2  0
  2  4  1  0
  4  5  2  0
  5  6  1  0
  6  7  2  0
  7  8  1  0
  8  9  2  0
  9 10  1  0
 10 11  2  0
 11 12  1  0
 12 13  2  0
 13 14  1  0
 14 15  2  0
  9 16  1  0
 16 17  2  0
 17 18  1  0
 18 19  1  0
 19 20  2  0
 19 21  1  0
 21 22  1  0
 22 23  2  0
 22 24  1  0
 18  4  1  0
 17  6  1  0
 15 10  1  0
  1 25  1  0
  5 26  1  0
  7 27  1  0
  8 28  1  0
 11 29  1  0
 12 30  1  0
 14 31  1  0
 16 32  1  0
 21 33  1  0
 21 34  1  0
M  CHG  2   1  -1  24  -1
M  END
>  <UniqueID>  (97) 
97

>  <SMILES>  (97) 
[NH-]C(=O)c1cc2ccc(-c3ccncn3)cc2n1C(=O)CC(=O)[O-]

>  <Energy>  (97) 
79.6471439657908

>  <Genealogy>  (97) 
[NH-]C(=O)c1cc2ccc(-c3ccncn3)cc2n1C(=O)CC(=O)[O-] (protonated)
[NH-]C(=O)c1cc2ccc(-c3ccncn3)cc2n1C(=O)CC(=O)[O-] (3D coordinates assigned)
[NH-]C(=O)c1cc2ccc(-c3ccncn3)cc2n1C(=O)CC(=O)[O-] (optimized conformer: 79.6471439657908 kcal/mol)

>  <smiles>  (97) 
NC(=O)c1cc2ccc(-c3ccncn3)cc2n1C(=O)CC(=O)O

>  <score_type>  (97) 
oracle

>  <origin>  (97) 
adg

>  <m_score__min__energy>  (97) 
-6.9100000000000001

>  <m_primary>  (97) 
energy

$$$$
97:0
     RDKit          3D

 29 30  0  0  0  0  0  0  0  0999 V2000
  146.4380  160.9790  133.6990 N   0  0  0  0  0  0  0  0  0  0  0  0
  145.5130  159.9180  133.4690 C   0  0  0  0  0  0  0  0  0  0  0  0
  144.2880  160.1820  133.3580 O   0  0  0  0  0  0  0  0  0  0  0  0
  145.9990  158.5250  133.3810 C   0  0  0  0  0  0  0  0  0  0  0  0
  145.2130  157.4080  133.6610 C   0  0  0  0  0  0  0  0  0  0  0  0
  146.0220  156.3210  133.4190 C   0  0  0  0  0  0  0  0  0  0  0  0
  145.7650  154.9610  133.5610 C   0  0  0  0  0  0  0  0  0  0  0  0
  146.8040  154.0610  133.2730 C   0  0  0  0  0  0  0  0  0  0  0  0
  148.0730  154.5290  132.8410 C   0  0  0  0  0  0  0  0  0  0  0  0
  149.1970  153.5550  132.5960 C   0  0  0  0  0  0  0  0  0  0  0  0
  148.9090  152.7390  131.5150 F   0  0  0  0  0  0  0  0  0  0  0  0
  150.3580  154.2580  132.3330 F   0  0  0  0  0  0  0  0  0  0  0  0
  149.3970  152.7500  133.7040 F   0  0  0  0  0  0  0  0  0  0  0  0
  148.3010  155.9200  132.7340 C   0  0  0  0  0  0  0  0  0  0  0  0
  147.2420  156.7910  133.0090 C   0  0  0  0  0  0  0  0  0  0  0  0
  147.2430  158.1410  132.9790 N   0  0  0  0  0  0  0  0  0  0  0  0
  148.3500  158.9850  132.6350 C   0  0  0  0  0  0  0  0  0  0  0  0
  148.8090  159.7930  133.4860 O   0  0  0  0  0  0  0  0  0  0  0  0
  148.9320  158.9540  131.2550 C   0  0  0  0  0  0  0  0  0  0  0  0
  149.2580  160.3430  130.8110 C   0  0  0  0  0  0  0  0  0  0  0  0
  150.1990  160.5440  129.9990 O   0  0  0  0  0  0  0  0  0  0  0  0
  148.4910  161.4120  131.2540 O   0  0  0  0  0  0  0  0  0  0  0  0
  147.1720  161.2130  132.9940 H   0  0  0  0  0  0  0  0  0  0  0  0
  144.1675  157.3976  134.0029 H   0  0  0  0  0  0  0  0  0  0  0  0
  144.7783  154.6017  133.8888 H   0  0  0  0  0  0  0  0  0  0  0  0
  146.6325  152.9801  133.3835 H   0  0  0  0  0  0  0  0  0  0  0  0
  149.2878  156.3080  132.4414 H   0  0  0  0  0  0  0  0  0  0  0  0
  149.8496  158.3473  131.2594 H   0  0  0  0  0  0  0  0  0  0  0  0
  148.1996  158.5140  130.5621 H   0  0  0  0  0  0  0  0  0  0  0  0
  1  2  1  0
  2  3  2  0
  2  4  1  0
  4  5  2  0
  5  6  1  0
  6  7  2  0
  7  8  1  0
  8  9  2  0
  9 10  1  0
 10 11  1  0
 10 12  1  0
 10 13  1  0
  9 14  1  0
 14 15  2  0
 15 16  1  0
 16 17  1  0
 17 18  2  0
 17 19  1  0
 19 20  1  0
 20 21  2  0
 20 22  1  0
 16  4  1  0
 15  6  1  0
  1 23  1  0
  5 24  1  0
  7 25  1  0
  8 26  1  0
 14 27  1  0
 19 28  1  0
 19 29  1  0
M  CHG  2   1  -1  22  -1
M  END
>  <UniqueID>  (98) 
98

>  <SMILES>  (98) 
[NH-]C(=O)c1cc2ccc(C(F)(F)F)cc2n1C(=O)CC(=O)[O-]

>  <Energy>  (98) 
67.42058759217387

>  <Genealogy>  (98) 
[NH-]C(=O)c1cc2ccc(C(F)(F)F)cc2n1C(=O)CC(=O)[O-] (protonated)
[NH-]C(=O)c1cc2ccc(C(F)(F)F)cc2n1C(=O)CC(=O)[O-] (3D coordinates assigned)
[NH-]C(=O)c1cc2ccc(C(F)(F)F)cc2n1C(=O)CC(=O)[O-] (optimized conformer: 67.42058759217387 kcal/mol)

>  <smiles>  (98) 
NC(=O)c1cc2ccc(C(F)(F)F)cc2n1C(=O)CC(=O)O

>  <score_type>  (98) 
oracle

>  <origin>  (98) 
adg

>  <m_score__min__energy>  (98) 
-5.7199999999999998

>  <m_primary>  (98) 
energy

$$$$
98:0
     RDKit          3D

 37 38  0  0  0  0  0  0  0  0999 V2000
  142.5900  160.8750  133.7890 N   0  0  0  0  0  0  0  0  0  0  0  0
  143.9700  161.2470  133.7390 C   0  0  0  0  0  0  0  0  0  0  0  0
  144.2760  162.4660  133.8150 O   0  0  0  0  0  0  0  0  0  0  0  0
  145.0320  160.2210  133.6200 C   0  0  0  0  0  0  0  0  0  0  0  0
  146.3990  160.5010  133.5700 C   0  0  0  0  0  0  0  0  0  0  0  0
  147.0150  159.2810  133.4110 C   0  0  0  0  0  0  0  0  0  0  0  0
  148.3680  158.9650  133.3300 C   0  0  0  0  0  0  0  0  0  0  0  0
  148.7220  157.6100  133.2060 C   0  0  0  0  0  0  0  0  0  0  0  0
  147.7260  156.6010  133.1580 C   0  0  0  0  0  0  0  0  0  0  0  0
  148.1230  155.1480  133.0850 C   0  0  0  0  0  0  0  0  0  0  0  0
  149.3890  155.0120  132.5420 F   0  0  0  0  0  0  0  0  0  0  0  0
  148.1300  154.5830  134.3490 F   0  0  0  0  0  0  0  0  0  0  0  0
  147.2170  154.4690  132.2920 F   0  0  0  0  0  0  0  0  0  0  0  0
  146.3630  156.9630  133.2690 C   0  0  0  0  0  0  0  0  0  0  0  0
  146.0400  158.3200  133.3690 C   0  0  0  0  0  0  0  0  0  0  0  0
  144.8180  158.8830  133.4880 N   0  0  0  0  0  0  0  0  0  0  0  0
  143.5600  158.1910  133.5460 C   0  0  0  0  0  0  0  0  0  0  0  0
  142.9880  157.8510  132.4760 O   0  0  0  0  0  0  0  0  0  0  0  0
  142.9410  157.8600  134.8380 C   0  0  0  0  0  0  0  0  0  0  0  0
  142.8730  156.6590  135.2140 O   0  0  0  0  0  0  0  0  0  0  0  0
  142.4070  158.9060  135.6570 N   0  0  0  0  0  0  0  0  0  0  0  0
  140.9830  159.2140  135.7550 C   0  0  2  0  0  0  0  0  0  0  0  0
  140.3180  158.3220  136.8150 C   0  0  0  0  0  0  0  0  0  0  0  0
  140.5470  156.9660  136.5390 O   0  0  0  0  0  0  0  0  0  0  0  0
  140.3410  159.0060  134.4140 C   0  0  0  0  0  0  0  0  0  0  0  0
  139.8620  157.8830  134.1030 O   0  0  0  0  0  0  0  0  0  0  0  0
  140.2440  160.0650  133.5210 O   0  0  0  0  0  0  0  0  0  0  0  0
  141.8560  161.6070  133.9070 H   0  0  0  0  0  0  0  0  0  0  0  0
  142.2860  159.8850  133.6610 H   0  0  0  0  0  0  0  0  0  0  0  0
  146.8809  161.4872  133.6424 H   0  0  0  0  0  0  0  0  0  0  0  0
  149.1367  159.7512  133.3620 H   0  0  0  0  0  0  0  0  0  0  0  0
  149.7838  157.3290  133.1455 H   0  0  0  0  0  0  0  0  0  0  0  0
  145.5755  156.1950  133.2765 H   0  0  0  0  0  0  0  0  0  0  0  0
  140.8535  160.2629  136.0602 H   0  0  0  0  0  0  0  0  0  0  0  0
  140.7351  158.5644  137.8036 H   0  0  0  0  0  0  0  0  0  0  0  0
  139.2337  158.5066  136.8015 H   0  0  0  0  0  0  0  0  0  0  0  0
  141.0350  156.9300  135.6760 H   0  0  0  0  0  0  0  0  0  0  0  0
  1  2  1  0
  2  3  2  0
  2  4  1  0
  4  5  2  0
  5  6  1  0
  6  7  2  0
  7  8  1  0
  8  9  2  0
  9 10  1  0
 10 11  1  0
 10 12  1  0
 10 13  1  0
  9 14  1  0
 14 15  2  0
 15 16  1  0
 16 17  1  0
 17 18  2  0
 17 19  1  0
 19 20  2  0
 19 21  1  0
 21 22  1  0
 22 23  1  0
 23 24  1  0
 22 25  1  0
 25 26  2  0
 25 27  1  0
 16  4  1  0
 15  6  1  0
  1 28  1  0
  1 29  1  0
  5 30  1  0
  7 31  1  0
  8 32  1  0
 14 33  1  0
 22 34  1  1
 23 35  1  0
 23 36  1  0
 24 37  1  0
M  CHG  2  21  -1  27  -1
M  END
>  <UniqueID>  (99) 
99

>  <SMILES>  (99) 
NC(=O)c1cc2ccc(C(F)(F)F)cc2n1C(=O)C(=O)[N-][C@H](CO)C(=O)[O-]

>  <Energy>  (99) 
72.77945329863164

>  <Genealogy>  (99) 
NC(=O)c1cc2ccc(C(F)(F)F)cc2n1C(=O)C(=O)[N-]C(CO)C(=O)[O-] (protonated)
NC(=O)c1cc2ccc(C(F)(F)F)cc2n1C(=O)C(=O)[N-][C@H](CO)C(=O)[O-] (chirality)
NC(=O)c1cc2ccc(C(F)(F)F)cc2n1C(=O)C(=O)[N-][C@H](CO)C(=O)[O-] (3D coordinates assigned)
NC(=O)c1cc2ccc(C(F)(F)F)cc2n1C(=O)C(=O)[N-][C@H](CO)C(=O)[O-] (optimized conformer: 72.77945329863164 kcal/mol)

>  <smiles>  (99) 
NC(=O)c1cc2ccc(C(F)(F)F)cc2n1C(=O)C(=O)NC(CO)C(=O)O

>  <score_type>  (99) 
oracle

>  <origin>  (99) 
adg

>  <m_score__min__energy>  (99) 
-6

>  <m_primary>  (99) 
energy

$$$$
99:0
     RDKit          3D

 27 28  0  0  0  0  0  0  0  0999 V2000
  148.1060  161.2210  131.0030 N   0  0  0  0  0  0  0  0  0  0  0  0
  149.0410  160.1930  131.3350 C   0  0  0  0  0  0  0  0  0  0  0  0
  150.2590  160.3570  131.0560 O   0  0  0  0  0  0  0  0  0  0  0  0
  148.6200  158.9680  132.0440 C   0  0  0  0  0  0  0  0  0  0  0  0
  149.2400  157.7310  131.8820 C   0  0  0  0  0  0  0  0  0  0  0  0
  148.5550  156.8700  132.7090 C   0  0  0  0  0  0  0  0  0  0  0  0
  148.7180  155.5040  132.9100 C   0  0  0  0  0  0  0  0  0  0  0  0
  147.8220  154.8530  133.7750 C   0  0  0  0  0  0  0  0  0  0  0  0
  146.7870  155.5730  134.4240 C   0  0  0  0  0  0  0  0  0  0  0  0
  145.7910  154.8510  135.2960 C   0  0  0  0  0  0  0  0  0  0  0  0
  145.3370  153.7030  134.6710 F   0  0  0  0  0  0  0  0  0  0  0  0
  144.7000  155.6590  135.5620 F   0  0  0  0  0  0  0  0  0  0  0  0
  146.3980  154.5050  136.4890 F   0  0  0  0  0  0  0  0  0  0  0  0
  146.6360  156.9570  134.1700 C   0  0  0  0  0  0  0  0  0  0  0  0
  147.5600  157.5840  133.3270 C   0  0  0  0  0  0  0  0  0  0  0  0
  147.5930  158.8770  132.9340 N   0  0  0  0  0  0  0  0  0  0  0  0
  146.6300  159.8930  133.2570 C   0  0  0  0  0  0  0  0  0  0  0  0
  147.0250  161.0540  133.5460 O   0  0  0  0  0  0  0  0  0  0  0  0
  145.1920  159.5930  133.2870 C   0  0  0  0  0  0  0  0  0  0  0  0
  144.7240  158.6450  132.6020 O   0  0  0  0  0  0  0  0  0  0  0  0
  144.3410  160.3390  134.0930 O   0  0  0  0  0  0  0  0  0  0  0  0
  147.1350  161.2140  131.3850 H   0  0  0  0  0  0  0  0  0  0  0  0
  148.4170  162.0510  130.4510 H   0  0  0  0  0  0  0  0  0  0  0  0
  150.0948  157.4931  131.2318 H   0  0  0  0  0  0  0  0  0  0  0  0
  149.5240  154.9495  132.4071 H   0  0  0  0  0  0  0  0  0  0  0  0
  147.9248  153.7720  133.9507 H   0  0  0  0  0  0  0  0  0  0  0  0
  145.8118  157.5263  134.6245 H   0  0  0  0  0  0  0  0  0  0  0  0
  1  2  1  0
  2  3  2  0
  2  4  1  0
  4  5  2  0
  5  6  1  0
  6  7  2  0
  7  8  1  0
  8  9  2  0
  9 10  1  0
 10 11  1  0
 10 12  1  0
 10 13  1  0
  9 14  1  0
 14 15  2  0
 15 16  1  0
 16 17  1  0
 17 18  2  0
 17 19  1  0
 19 20  2  0
 19 21  1  0
 16  4  1  0
 15  6  1  0
  1 22  1  0
  1 23  1  0
  5 24  1  0
  7 25  1  0
  8 26  1  0
 14 27  1  0
M  CHG  1  21  -1
M  END
>  <UniqueID>  (100) 
100

>  <SMILES>  (100) 
NC(=O)c1cc2ccc(C(F)(F)F)cc2n1C(=O)C(=O)[O-]

>  <Energy>  (100) 
68.31002313193075

>  <Genealogy>  (100) 
NC(=O)c1cc2ccc(C(F)(F)F)cc2n1C(=O)C(=O)[O-] (protonated)
NC(=O)c1cc2ccc(C(F)(F)F)cc2n1C(=O)C(=O)[O-] (3D coordinates assigned)
NC(=O)c1cc2ccc(C(F)(F)F)cc2n1C(=O)C(=O)[O-] (optimized conformer: 68.31002313193075 kcal/mol)

>  <smiles>  (100) 
NC(=O)c1cc2ccc(C(F)(F)F)cc2n1C(=O)C(=O)O

>  <score_type>  (100) 
oracle

>  <origin>  (100) 
adg

>  <m_score__min__energy>  (100) 
-5.7699999999999996

>  <m_primary>  (100) 
energy

$$$$
