0:0
     RDKit          3D

 35 36  0  0  0  0  0  0  0  0999 V2000
  149.3940  158.8400  133.2850 N   0  0  0  0  0  0  0  0  0  0  0  0
  148.2760  159.4310  132.6190 C   0  0  0  0  0  0  0  0  0  0  0  0
  148.4840  160.2530  131.6880 O   0  0  0  0  0  0  0  0  0  0  0  0
  146.8900  159.0660  132.9940 C   0  0  0  0  0  0  0  0  0  0  0  0
  145.7950  159.9170  132.8540 C   0  0  0  0  0  0  0  0  0  0  0  0
  144.7270  159.2290  133.3810 C   0  0  0  0  0  0  0  0  0  0  0  0
  143.3890  159.5960  133.4800 C   0  0  0  0  0  0  0  0  0  0  0  0
  142.4900  158.6700  134.0360 C   0  0  0  0  0  0  0  0  0  0  0  0
  142.9430  157.4030  134.4790 C   0  0  0  0  0  0  0  0  0  0  0  0
  141.9630  156.4000  135.0230 C   0  0  0  0  0  0  0  0  0  0  0  0
  142.6950  155.2110  135.6480 C   0  0  0  0  0  0  0  0  0  0  0  0
  143.0320  155.4940  136.9780 O   0  0  0  0  0  0  0  0  0  0  0  0
  144.3070  157.0610  134.3490 C   0  0  0  0  0  0  0  0  0  0  0  0
  145.1850  158.0120  133.8160 C   0  0  0  0  0  0  0  0  0  0  0  0
  146.5130  157.8980  133.5910 N   0  0  0  0  0  0  0  0  0  0  0  0
  147.3480  156.7680  133.8940 C   0  0  0  0  0  0  0  0  0  0  0  0
  148.3450  156.9050  134.6500 O   0  0  0  0  0  0  0  0  0  0  0  0
  146.9770  155.1410  133.2270 S   0  0  0  0  0  0  0  0  0  0  0  0
  147.7390  154.2310  134.6120 C   0  0  0  0  0  0  0  0  0  0  0  0
  146.7750  154.1060  135.7470 C   0  0  0  0  0  0  0  0  0  0  0  0
  146.9960  153.2910  136.6810 O   0  0  0  0  0  0  0  0  0  0  0  0
  145.6230  154.8820  135.7720 O   0  0  0  0  0  0  0  0  0  0  0  0
  150.3660  159.0750  132.9840 H   0  0  0  0  0  0  0  0  0  0  0  0
  149.2680  158.2050  134.1030 H   0  0  0  0  0  0  0  0  0  0  0  0
  145.7868  160.9255  132.4149 H   0  0  0  0  0  0  0  0  0  0  0  0
  143.0449  160.5816  133.1334 H   0  0  0  0  0  0  0  0  0  0  0  0
  141.4254  158.9312  134.1280 H   0  0  0  0  0  0  0  0  0  0  0  0
  141.3398  156.8836  135.7896 H   0  0  0  0  0  0  0  0  0  0  0  0
  141.3366  156.0340  134.1961 H   0  0  0  0  0  0  0  0  0  0  0  0
  142.0418  154.3264  135.6192 H   0  0  0  0  0  0  0  0  0  0  0  0
  143.6158  155.0172  135.0783 H   0  0  0  0  0  0  0  0  0  0  0  0
  143.9860  155.2410  137.0890 H   0  0  0  0  0  0  0  0  0  0  0  0
  144.6710  156.0704  134.6593 H   0  0  0  0  0  0  0  0  0  0  0  0
  148.0283  153.2263  134.2700 H   0  0  0  0  0  0  0  0  0  0  0  0
  148.6258  154.7832  134.9565 H   0  0  0  0  0  0  0  0  0  0  0  0
  1  2  1  0
  2  3  2  0
  2  4  1  0
  4  5  2  0
  5  6  1  0
  6  7  2  0
  7  8  1  0
  8  9  2  0
  9 10  1  0
 10 11  1  0
 11 12  1  0
  9 13  1  0
 13 14  2  0
 14 15  1  0
 15 16  1  0
 16 17  2  0
 16 18  1  0
 18 19  1  0
 19 20  1  0
 20 21  2  0
 20 22  1  0
 15  4  1  0
 14  6  1  0
  1 23  1  0
  1 24  1  0
  5 25  1  0
  7 26  1  0
  8 27  1  0
 10 28  1  0
 10 29  1  0
 11 30  1  0
 11 31  1  0
 12 32  1  0
 13 33  1  0
 19 34  1  0
 19 35  1  0
M  CHG  1  22  -1
M  END
>  <UniqueID>  (1) 
1

>  <SMILES>  (1) 
NC(=O)c1cc2ccc(CCO)cc2n1C(=O)SCC(=O)[O-]

>  <Energy>  (1) 
66.05745665119679

>  <Genealogy>  (1) 
NC(=O)c1cc2ccc(CCO)cc2n1C(=O)SCC(=O)[O-] (protonated)
NC(=O)c1cc2ccc(CCO)cc2n1C(=O)SCC(=O)[O-] (3D coordinates assigned)
NC(=O)c1cc2ccc(CCO)cc2n1C(=O)SCC(=O)[O-] (optimized conformer: 66.05745665119679 kcal/mol)

>  <smiles>  (1) 
NC(=O)c1cc2ccc(CCO)cc2n1C(=O)SCC(=O)O

>  <score_type>  (1) 
oracle

>  <origin>  (1) 
adg

>  <m_score__min__energy>  (1) 
-6.6399999999999997

>  <m_primary>  (1) 
energy

$$$$
1:0
     RDKit          3D

 39 40  0  0  0  0  0  0  0  0999 V2000
  139.8230  157.7550  136.6600 C   0  0  0  0  0  0  0  0  0  0  0  0
  139.4680  158.0670  135.3360 O   0  0  0  0  0  0  0  0  0  0  0  0
  140.8190  158.7630  134.5540 P   0  0  0  0  0  0  0  0  0  0  0  0
  141.8460  159.2140  135.5690 O   0  0  0  0  0  0  0  0  0  0  0  0
  141.5850  157.5550  133.4230 C   0  0  0  0  0  0  0  0  0  0  0  0
  142.8820  158.0020  133.0390 O   0  0  0  0  0  0  0  0  0  0  0  0
  144.0170  157.8450  133.8430 C   0  0  0  0  0  0  0  0  0  0  0  0
  143.9750  157.1180  134.8730 O   0  0  0  0  0  0  0  0  0  0  0  0
  145.2210  158.5490  133.5170 N   0  0  0  0  0  0  0  0  0  0  0  0
  145.4510  159.8910  133.5850 C   0  0  0  0  0  0  0  0  0  0  0  0
  144.4350  160.9320  133.8500 C   0  0  0  0  0  0  0  0  0  0  0  0
  143.1060  160.8020  133.3560 N   0  0  0  0  0  0  0  0  0  0  0  0
  144.7580  161.9690  134.4890 O   0  0  0  0  0  0  0  0  0  0  0  0
  146.7870  160.1710  133.3030 C   0  0  0  0  0  0  0  0  0  0  0  0
  147.3730  158.9500  133.0590 C   0  0  0  0  0  0  0  0  0  0  0  0
  148.6940  158.6320  132.7580 C   0  0  0  0  0  0  0  0  0  0  0  0
  149.0270  157.2750  132.6040 C   0  0  0  0  0  0  0  0  0  0  0  0
  148.0440  156.2670  132.7630 C   0  0  0  0  0  0  0  0  0  0  0  0
  148.4060  154.8170  132.6190 C   0  0  0  0  0  0  0  0  0  0  0  0
  149.7610  154.6970  132.3730 F   0  0  0  0  0  0  0  0  0  0  0  0
  148.0910  154.1400  133.7840 F   0  0  0  0  0  0  0  0  0  0  0  0
  146.7130  156.6280  133.0690 C   0  0  0  0  0  0  0  0  0  0  0  0
  146.4060  157.9870  133.1970 C   0  0  0  0  0  0  0  0  0  0  0  0
  140.3220  160.1070  133.6300 O   0  0  0  0  0  0  0  0  0  0  0  0
  140.1960  159.7000  132.2910 C   0  0  0  0  0  0  0  0  0  0  0  0
  139.1819  158.3184  137.3540 H   0  0  0  0  0  0  0  0  0  0  0  0
  139.6895  156.6766  136.8310 H   0  0  0  0  0  0  0  0  0  0  0  0
  140.8753  158.0259  136.8310 H   0  0  0  0  0  0  0  0  0  0  0  0
  141.6702  156.5832  133.9313 H   0  0  0  0  0  0  0  0  0  0  0  0
  140.9577  157.4525  132.5252 H   0  0  0  0  0  0  0  0  0  0  0  0
  142.4900  160.0180  133.6690 H   0  0  0  0  0  0  0  0  0  0  0  0
  147.2705  161.1588  133.2803 H   0  0  0  0  0  0  0  0  0  0  0  0
  149.4544  159.4186  132.6440 H   0  0  0  0  0  0  0  0  0  0  0  0
  150.0612  156.9928  132.3576 H   0  0  0  0  0  0  0  0  0  0  0  0
  147.8408  154.3864  131.7793 H   0  0  0  0  0  0  0  0  0  0  0  0
  145.9372  155.8598  133.2033 H   0  0  0  0  0  0  0  0  0  0  0  0
  139.8708  158.6497  132.2561 H   0  0  0  0  0  0  0  0  0  0  0  0
  139.4513  160.3314  131.7844 H   0  0  0  0  0  0  0  0  0  0  0  0
  141.1672  159.8002  131.7844 H   0  0  0  0  0  0  0  0  0  0  0  0
  1  2  1  0
  2  3  1  0
  3  4  2  0
  3  5  1  0
  5  6  1  0
  6  7  1  0
  7  8  2  0
  7  9  1  0
  9 10  1  0
 10 11  1  0
 11 12  1  0
 11 13  2  0
 10 14  2  0
 14 15  1  0
 15 16  2  0
 16 17  1  0
 17 18  2  0
 18 19  1  0
 19 20  1  0
 19 21  1  0
 18 22  1  0
 22 23  2  0
  3 24  1  0
 24 25  1  0
 23  9  1  0
 23 15  1  0
  1 26  1  0
  1 27  1  0
  1 28  1  0
  5 29  1  0
  5 30  1  0
 12 31  1  0
 14 32  1  0
 16 33  1  0
 17 34  1  0
 19 35  1  0
 22 36  1  0
 25 37  1  0
 25 38  1  0
 25 39  1  0
M  CHG  1  12  -1
M  END
>  <UniqueID>  (2) 
2

>  <SMILES>  (2) 
COP(=O)(COC(=O)n1c(C([NH-])=O)cc2ccc(C(F)F)cc21)OC

>  <Energy>  (2) 
71.11733840640947

>  <Genealogy>  (2) 
COP(=O)(COC(=O)n1c(C([NH-])=O)cc2ccc(C(F)F)cc21)OC (protonated)
COP(=O)(COC(=O)n1c(C([NH-])=O)cc2ccc(C(F)F)cc21)OC (3D coordinates assigned)
COP(=O)(COC(=O)n1c(C([NH-])=O)cc2ccc(C(F)F)cc21)OC (optimized conformer: 71.11733840640947 kcal/mol)

>  <smiles>  (2) 
COP(=O)(COC(=O)n1c(C(N)=O)cc2ccc(C(F)F)cc21)OC

>  <score_type>  (2) 
oracle

>  <origin>  (2) 
adg

>  <m_score__min__energy>  (2) 
-5.7000000000000002

>  <m_primary>  (2) 
energy

$$$$
2:0
     RDKit          3D

 40 41  0  0  0  0  0  0  0  0999 V2000
  140.8640  157.8290  137.4470 C   0  0  0  0  0  0  0  0  0  0  0  0
  141.9390  158.4080  136.7150 O   0  0  0  0  0  0  0  0  0  0  0  0
  142.1020  158.2200  135.3380 C   0  0  0  0  0  0  0  0  0  0  0  0
  141.3050  158.7530  134.5180 O   0  0  0  0  0  0  0  0  0  0  0  0
  143.2740  157.4240  134.8390 C   0  0  1  0  0  0  0  0  0  0  0  0
  142.8960  156.0720  134.6390 O   0  0  0  0  0  0  0  0  0  0  0  0
  143.9660  155.2080  134.9560 C   0  0  0  0  0  0  0  0  0  0  0  0
  143.7370  158.0130  133.5350 C   0  0  0  0  0  0  0  0  0  0  0  0
  143.0480  157.8470  132.4930 O   0  0  0  0  0  0  0  0  0  0  0  0
  145.0050  158.6760  133.4430 N   0  0  0  0  0  0  0  0  0  0  0  0
  145.2640  160.0070  133.5560 C   0  0  0  0  0  0  0  0  0  0  0  0
  144.2520  161.0720  133.7290 C   0  0  0  0  0  0  0  0  0  0  0  0
  142.8700  160.8190  133.4870 N   0  0  0  0  0  0  0  0  0  0  0  0
  144.6160  162.2270  134.0790 O   0  0  0  0  0  0  0  0  0  0  0  0
  146.6350  160.2430  133.4610 C   0  0  0  0  0  0  0  0  0  0  0  0
  147.2070  159.0030  133.2790 C   0  0  0  0  0  0  0  0  0  0  0  0
  148.5440  158.6400  133.1330 C   0  0  0  0  0  0  0  0  0  0  0  0
  148.8420  157.2730  132.9780 C   0  0  0  0  0  0  0  0  0  0  0  0
  147.8050  156.3100  132.9700 C   0  0  0  0  0  0  0  0  0  0  0  0
  148.1220  154.9140  132.8210 C   0  0  0  0  0  0  0  0  0  0  0  0
  148.3810  153.7440  132.6950 C   0  0  0  0  0  0  0  0  0  0  0  0
  148.7570  152.0330  132.5150 P   0  0  2  0  0  0  0  0  0  0  0  0
  149.5530  151.5640  133.7110 O   0  0  0  0  0  0  0  0  0  0  0  0
  149.6670  151.8050  131.1080 O   0  0  0  0  0  0  0  0  0  0  0  0
  147.3210  151.1450  132.4030 O   0  0  0  0  0  0  0  0  0  0  0  0
  146.4620  156.7110  133.1150 C   0  0  0  0  0  0  0  0  0  0  0  0
  146.1980  158.0760  133.2690 C   0  0  0  0  0  0  0  0  0  0  0  0
  141.0566  157.9327  138.5250 H   0  0  0  0  0  0  0  0  0  0  0  0
  139.9265  158.3442  137.1908 H   0  0  0  0  0  0  0  0  0  0  0  0
  140.7783  156.7627  137.1908 H   0  0  0  0  0  0  0  0  0  0  0  0
  144.0853  157.4590  135.5810 H   0  0  0  0  0  0  0  0  0  0  0  0
  144.0628  155.1299  136.0489 H   0  0  0  0  0  0  0  0  0  0  0  0
  143.7704  154.2116  134.5330 H   0  0  0  0  0  0  0  0  0  0  0  0
  144.8989  155.6091  134.5330 H   0  0  0  0  0  0  0  0  0  0  0  0
  142.5450  159.8820  133.1580 H   0  0  0  0  0  0  0  0  0  0  0  0
  147.1503  161.2131  133.5190 H   0  0  0  0  0  0  0  0  0  0  0  0
  149.3416  159.3975  133.1386 H   0  0  0  0  0  0  0  0  0  0  0  0
  149.8875  156.9512  132.8624 H   0  0  0  0  0  0  0  0  0  0  0  0
  146.9890  151.0770  133.3350 H   0  0  0  0  0  0  0  0  0  0  0  0
  145.6462  155.9732  133.1073 H   0  0  0  0  0  0  0  0  0  0  0  0
  1  2  1  0
  2  3  1  0
  3  4  2  0
  3  5  1  0
  5  6  1  0
  6  7  1  0
  5  8  1  0
  8  9  2  0
  8 10  1  0
 10 11  1  0
 11 12  1  0
 12 13  1  0
 12 14  2  0
 11 15  2  0
 15 16  1  0
 16 17  2  0
 17 18  1  0
 18 19  2  0
 19 20  1  0
 20 21  3  0
 21 22  1  0
 22 23  2  0
 22 24  1  6
 22 25  1  0
 19 26  1  0
 26 27  2  0
 27 10  1  0
 27 16  1  0
  1 28  1  0
  1 29  1  0
  1 30  1  0
  5 31  1  1
  7 32  1  0
  7 33  1  0
  7 34  1  0
 13 35  1  0
 15 36  1  0
 17 37  1  0
 18 38  1  0
 25 39  1  0
 26 40  1  0
M  CHG  2  13  -1  24  -1
M  END
>  <UniqueID>  (3) 
3

>  <SMILES>  (3) 
COC(=O)[C@@H](OC)C(=O)n1c(C([NH-])=O)cc2ccc(C#C[P@](=O)([O-])O)cc21

>  <Energy>  (3) 
72.10607791133216

>  <Genealogy>  (3) 
COC(=O)[C@@H](OC)C(=O)n1c(C([NH-])=O)cc2ccc(C#CP(=O)([O-])O)cc21 (protonated)
COC(=O)[C@@H](OC)C(=O)n1c(C([NH-])=O)cc2ccc(C#C[P@](=O)([O-])O)cc21 (chirality)
COC(=O)[C@@H](OC)C(=O)n1c(C([NH-])=O)cc2ccc(C#C[P@](=O)([O-])O)cc21 (3D coordinates assigned)
COC(=O)[C@@H](OC)C(=O)n1c(C([NH-])=O)cc2ccc(C#C[P@](=O)([O-])O)cc21 (optimized conformer: 72.10607791133216 kcal/mol)

>  <smiles>  (3) 
COC(=O)[C@@H](OC)C(=O)n1c(C(N)=O)cc2ccc(C#CP(=O)(O)O)cc21

>  <score_type>  (3) 
oracle

>  <origin>  (3) 
adg

>  <m_score__min__energy>  (3) 
-6.5300000000000002

>  <m_primary>  (3) 
energy

$$$$
3:0
     RDKit          3D

 37 38  0  0  0  0  0  0  0  0999 V2000
  149.2160  156.7860  132.2310 N   0  0  0  0  0  0  0  0  0  0  0  0
  148.9040  158.1670  132.4200 C   0  0  0  0  0  0  0  0  0  0  0  0
  149.8160  159.0280  132.3020 O   0  0  0  0  0  0  0  0  0  0  0  0
  147.5480  158.5970  132.8150 C   0  0  0  0  0  0  0  0  0  0  0  0
  147.1820  159.9310  132.9740 C   0  0  0  0  0  0  0  0  0  0  0  0
  145.8740  159.8980  133.4000 C   0  0  0  0  0  0  0  0  0  0  0  0
  145.0100  160.9430  133.7080 C   0  0  0  0  0  0  0  0  0  0  0  0
  143.6980  160.6230  134.0930 C   0  0  0  0  0  0  0  0  0  0  0  0
  143.2630  159.2720  134.1340 C   0  0  0  0  0  0  0  0  0  0  0  0
  141.8630  158.9390  134.5800 C   0  0  0  0  0  0  0  0  0  0  0  0
  141.8290  157.6330  135.0330 F   0  0  0  0  0  0  0  0  0  0  0  0
  141.4600  159.7820  135.6010 F   0  0  0  0  0  0  0  0  0  0  0  0
  140.9710  159.0750  133.5300 F   0  0  0  0  0  0  0  0  0  0  0  0
  144.1790  158.2370  133.8320 C   0  0  0  0  0  0  0  0  0  0  0  0
  145.4880  158.5840  133.4760 C   0  0  0  0  0  0  0  0  0  0  0  0
  146.5080  157.7710  133.1180 N   0  0  0  0  0  0  0  0  0  0  0  0
  146.4590  156.3430  132.9710 C   0  0  0  0  0  0  0  0  0  0  0  0
  146.6350  155.8220  131.8370 O   0  0  0  0  0  0  0  0  0  0  0  0
  146.2140  155.5130  134.1120 N   0  0  0  0  0  0  0  0  0  0  0  0
  147.1700  154.5480  134.6460 C   0  0  0  0  0  0  0  0  0  0  0  0
  147.4290  153.3860  133.6660 C   0  0  1  0  0  0  0  0  0  0  0  0
  146.4820  153.3820  132.6300 O   0  0  0  0  0  0  0  0  0  0  0  0
  148.8440  153.4290  133.0700 C   0  0  0  0  0  0  0  0  0  0  0  0
  148.8610  154.1790  131.8870 O   0  0  0  0  0  0  0  0  0  0  0  0
  148.5380  156.0400  132.4990 H   0  0  0  0  0  0  0  0  0  0  0  0
  150.1670  156.5040  131.9060 H   0  0  0  0  0  0  0  0  0  0  0  0
  147.8048  160.8203  132.7971 H   0  0  0  0  0  0  0  0  0  0  0  0
  145.3443  161.9894  133.6517 H   0  0  0  0  0  0  0  0  0  0  0  0
  142.9996  161.4278  134.3658 H   0  0  0  0  0  0  0  0  0  0  0  0
  143.8695  157.1823  133.8759 H   0  0  0  0  0  0  0  0  0  0  0  0
  148.1212  155.0635  134.8444 H   0  0  0  0  0  0  0  0  0  0  0  0
  146.7455  154.1252  135.5685 H   0  0  0  0  0  0  0  0  0  0  0  0
  147.3354  152.4587  134.2502 H   0  0  0  0  0  0  0  0  0  0  0  0
  146.6440  154.2000  132.0890 H   0  0  0  0  0  0  0  0  0  0  0  0
  149.5287  153.8881  133.7983 H   0  0  0  0  0  0  0  0  0  0  0  0
  149.1626  152.4012  132.8415 H   0  0  0  0  0  0  0  0  0  0  0  0
  147.9420  154.1340  131.5180 H   0  0  0  0  0  0  0  0  0  0  0  0
  1  2  1  0
  2  3  2  0
  2  4  1  0
  4  5  2  0
  5  6  1  0
  6  7  2  0
  7  8  1  0
  8  9  2  0
  9 10  1  0
 10 11  1  0
 10 12  1  0
 10 13  1  0
  9 14  1  0
 14 15  2  0
 15 16  1  0
 16 17  1  0
 17 18  2  0
 17 19  1  0
 19 20  1  0
 20 21  1  0
 21 22  1  0
 21 23  1  0
 23 24  1  0
 16  4  1  0
 15  6  1  0
  1 25  1  0
  1 26  1  0
  5 27  1  0
  7 28  1  0
  8 29  1  0
 14 30  1  0
 20 31  1  0
 20 32  1  0
 21 33  1  1
 22 34  1  0
 23 35  1  0
 23 36  1  0
 24 37  1  0
M  CHG  1  19  -1
M  END
>  <UniqueID>  (4) 
4

>  <SMILES>  (4) 
NC(=O)c1cc2ccc(C(F)(F)F)cc2n1C(=O)[N-]C[C@@H](O)CO

>  <Energy>  (4) 
72.87392699427781

>  <Genealogy>  (4) 
NC(=O)c1cc2ccc(C(F)(F)F)cc2n1C(=O)[N-]CC(O)CO (protonated)
NC(=O)c1cc2ccc(C(F)(F)F)cc2n1C(=O)[N-]C[C@@H](O)CO (chirality)
NC(=O)c1cc2ccc(C(F)(F)F)cc2n1C(=O)[N-]C[C@@H](O)CO (3D coordinates assigned)
NC(=O)c1cc2ccc(C(F)(F)F)cc2n1C(=O)[N-]C[C@@H](O)CO (optimized conformer: 72.87392699427781 kcal/mol)

>  <smiles>  (4) 
NC(=O)c1cc2ccc(C(F)(F)F)cc2n1C(=O)NCC(O)CO

>  <score_type>  (4) 
oracle

>  <origin>  (4) 
adg

>  <m_score__min__energy>  (4) 
-6

>  <m_primary>  (4) 
energy

$$$$
4:0
     RDKit          3D

 37 38  0  0  0  0  0  0  0  0999 V2000
  145.8610  152.6540  132.6020 C   0  0  0  0  0  0  0  0  0  0  0  0
  146.4100  153.8880  133.1770 N   0  0  0  0  0  0  0  0  0  0  0  0
  145.5150  154.9870  133.4500 C   0  0  0  0  0  0  0  0  0  0  0  0
  144.1890  154.7350  133.8870 C   0  0  0  0  0  0  0  0  0  0  0  0
  143.2990  155.7940  134.1380 C   0  0  0  0  0  0  0  0  0  0  0  0
  143.7620  157.0920  133.9520 C   0  0  0  0  0  0  0  0  0  0  0  0
  143.1080  158.2970  134.0930 C   0  0  0  0  0  0  0  0  0  0  0  0
  144.0470  159.2690  133.7530 C   0  0  0  0  0  0  0  0  0  0  0  0
  143.7800  160.7220  133.8040 C   0  0  0  0  0  0  0  0  0  0  0  0
  144.8400  161.6610  133.9680 N   0  0  0  0  0  0  0  0  0  0  0  0
  142.5940  161.1420  133.7230 O   0  0  0  0  0  0  0  0  0  0  0  0
  145.2340  158.6870  133.4200 N   0  0  0  0  0  0  0  0  0  0  0  0
  146.4280  159.3360  132.9620 C   0  0  0  0  0  0  0  0  0  0  0  0
  146.3630  160.1070  131.9680 O   0  0  0  0  0  0  0  0  0  0  0  0
  147.7190  159.0420  133.6240 C   0  0  0  0  0  0  0  0  0  0  0  0
  148.8570  158.6720  133.0150 C   0  0  0  0  0  0  0  0  0  0  0  0
  149.0660  158.6340  131.5520 C   0  0  0  0  0  0  0  0  0  0  0  0
  149.3980  159.7280  130.8670 C   0  0  0  0  0  0  0  0  0  0  0  0
  149.5970  160.9170  131.4920 F   0  0  0  0  0  0  0  0  0  0  0  0
  149.5520  159.6580  129.5220 F   0  0  0  0  0  0  0  0  0  0  0  0
  145.0410  157.3560  133.5430 C   0  0  0  0  0  0  0  0  0  0  0  0
  145.9420  156.3240  133.2650 C   0  0  0  0  0  0  0  0  0  0  0  0
  147.8680  154.0550  133.2710 C   0  0  0  0  0  0  0  0  0  0  0  0
  148.5110  152.8430  133.0850 F   0  0  0  0  0  0  0  0  0  0  0  0
  148.3120  154.9280  132.2920 F   0  0  0  0  0  0  0  0  0  0  0  0
  148.1980  154.5620  134.5140 F   0  0  0  0  0  0  0  0  0  0  0  0
  145.5587  151.9746  133.4126 H   0  0  0  0  0  0  0  0  0  0  0  0
  144.9858  152.8964  131.9813 H   0  0  0  0  0  0  0  0  0  0  0  0
  146.6270  152.1663  131.9813 H   0  0  0  0  0  0  0  0  0  0  0  0
  143.8529  153.6976  134.0313 H   0  0  0  0  0  0  0  0  0  0  0  0
  142.2684  155.6018  134.4712 H   0  0  0  0  0  0  0  0  0  0  0  0
  142.0661  158.4574  134.4072 H   0  0  0  0  0  0  0  0  0  0  0  0
  145.6820  161.6350  133.3510 H   0  0  0  0  0  0  0  0  0  0  0  0
  147.7489  159.1356  134.7196 H   0  0  0  0  0  0  0  0  0  0  0  0
  149.7003  158.3736  133.6552 H   0  0  0  0  0  0  0  0  0  0  0  0
  148.9447  157.6809  131.0165 H   0  0  0  0  0  0  0  0  0  0  0  0
  146.9595  156.5457  132.9106 H   0  0  0  0  0  0  0  0  0  0  0  0
  1  2  1  0
  2  3  1  0
  3  4  2  0
  4  5  1  0
  5  6  2  0
  6  7  1  0
  7  8  2  0
  8  9  1  0
  9 10  1  0
  9 11  2  0
  8 12  1  0
 12 13  1  0
 13 14  2  0
 13 15  1  0
 15 16  2  3
 16 17  1  0
 17 18  2  3
 18 19  1  0
 18 20  1  0
 12 21  1  0
 21 22  2  0
  2 23  1  0
 23 24  1  0
 23 25  1  0
 23 26  1  0
 22  3  1  0
 21  6  1  0
  1 27  1  0
  1 28  1  0
  1 29  1  0
  4 30  1  0
  5 31  1  0
  7 32  1  0
 10 33  1  0
 15 34  1  0
 16 35  1  0
 17 36  1  0
 22 37  1  0
M  CHG  1  10  -1
M  END
>  <UniqueID>  (5) 
5

>  <SMILES>  (5) 
CN(c1ccc2cc(C([NH-])=O)n(C(=O)C=CC=C(F)F)c2c1)C(F)(F)F

>  <Energy>  (5) 
82.97911361426496

>  <Genealogy>  (5) 
CN(c1ccc2cc(C([NH-])=O)n(C(=O)C=CC=C(F)F)c2c1)C(F)(F)F (protonated)
CN(c1ccc2cc(C([NH-])=O)n(C(=O)C=CC=C(F)F)c2c1)C(F)(F)F (3D coordinates assigned)
CN(c1ccc2cc(C([NH-])=O)n(C(=O)C=CC=C(F)F)c2c1)C(F)(F)F (optimized conformer: 82.97911361426496 kcal/mol)

>  <smiles>  (5) 
CN(c1ccc2cc(C(N)=O)n(C(=O)C=CC=C(F)F)c2c1)C(F)(F)F

>  <score_type>  (5) 
oracle

>  <origin>  (5) 
adg

>  <m_score__min__energy>  (5) 
-6.8499999999999996

>  <m_primary>  (5) 
energy

$$$$
5:0
     RDKit          3D

 38 39  0  0  0  0  0  0  0  0999 V2000
  146.7980  151.4910  131.5170 N   0  0  0  0  0  0  0  0  0  0  0  0
  147.6530  152.0680  132.5030 C   0  0  0  0  0  0  0  0  0  0  0  0
  148.4520  151.3190  133.1270 O   0  0  0  0  0  0  0  0  0  0  0  0
  147.6110  153.5100  132.8360 C   0  0  0  0  0  0  0  0  0  0  0  0
  148.6970  154.3650  132.6450 C   0  0  0  0  0  0  0  0  0  0  0  0
  148.2170  155.6300  132.8910 C   0  0  0  0  0  0  0  0  0  0  0  0
  148.8510  156.8670  132.7930 C   0  0  0  0  0  0  0  0  0  0  0  0
  148.0830  158.0210  133.0280 C   0  0  0  0  0  0  0  0  0  0  0  0
  146.7050  157.9150  133.3260 C   0  0  0  0  0  0  0  0  0  0  0  0
  145.9230  159.1000  133.5500 C   0  0  0  0  0  0  0  0  0  0  0  0
  145.2610  160.0900  133.7380 C   0  0  0  0  0  0  0  0  0  0  0  0
  144.4700  161.2670  133.9610 C   0  0  0  0  0  0  0  0  0  0  0  0
  143.2320  161.2440  133.7390 O   0  0  0  0  0  0  0  0  0  0  0  0
  145.0710  162.4300  134.4190 O   0  0  0  0  0  0  0  0  0  0  0  0
  146.0920  156.6490  133.4010 C   0  0  0  0  0  0  0  0  0  0  0  0
  146.8880  155.5170  133.2070 C   0  0  0  0  0  0  0  0  0  0  0  0
  146.5090  154.2210  133.2090 N   0  0  0  0  0  0  0  0  0  0  0  0
  145.1670  153.7430  133.3660 C   0  0  0  0  0  0  0  0  0  0  0  0
  144.7630  152.7850  132.6550 O   0  0  0  0  0  0  0  0  0  0  0  0
  144.2220  154.3990  134.3380 C   0  0  0  0  0  0  0  0  0  0  0  0
  143.2540  153.3940  134.9860 C   0  0  0  0  0  0  0  0  0  0  0  0
  141.9330  153.2930  134.2100 C   0  0  0  0  0  0  0  0  0  0  0  0
  141.5140  151.5910  133.8750 S   0  0  0  0  0  0  0  0  0  0  0  0
  140.4130  151.5250  132.8550 O   0  0  0  0  0  0  0  0  0  0  0  0
  142.7210  150.8610  133.3560 O   0  0  0  0  0  0  0  0  0  0  0  0
  140.9940  150.8630  135.2970 O   0  0  0  0  0  0  0  0  0  0  0  0
  145.9590  151.9930  131.1620 H   0  0  0  0  0  0  0  0  0  0  0  0
  146.9210  150.4910  131.2440 H   0  0  0  0  0  0  0  0  0  0  0  0
  149.7216  154.0859  132.3580 H   0  0  0  0  0  0  0  0  0  0  0  0
  149.9190  156.9384  132.5397 H   0  0  0  0  0  0  0  0  0  0  0  0
  148.5571  159.0124  132.9797 H   0  0  0  0  0  0  0  0  0  0  0  0
  145.0156  156.5540  133.6068 H   0  0  0  0  0  0  0  0  0  0  0  0
  144.8110  154.8832  135.1308 H   0  0  0  0  0  0  0  0  0  0  0  0
  143.6203  155.1302  133.7783 H   0  0  0  0  0  0  0  0  0  0  0  0
  143.7311  152.4031  135.0072 H   0  0  0  0  0  0  0  0  0  0  0  0
  143.0269  153.7454  136.0033 H   0  0  0  0  0  0  0  0  0  0  0  0
  141.1299  153.7501  134.8067 H   0  0  0  0  0  0  0  0  0  0  0  0
  142.0495  153.8196  133.2513 H   0  0  0  0  0  0  0  0  0  0  0  0
  1  2  1  0
  2  3  2  0
  2  4  1  0
  4  5  2  0
  5  6  1  0
  6  7  2  0
  7  8  1  0
  8  9  2  0
  9 10  1  0
 10 11  3  0
 11 12  1  0
 12 13  2  0
 12 14  1  0
  9 15  1  0
 15 16  2  0
 16 17  1  0
 17 18  1  0
 18 19  2  0
 18 20  1  0
 20 21  1  0
 21 22  1  0
 22 23  1  0
 23 24  2  0
 23 25  2  0
 23 26  1  0
 17  4  1  0
 16  6  1  0
  1 27  1  0
  1 28  1  0
  5 29  1  0
  7 30  1  0
  8 31  1  0
 15 32  1  0
 20 33  1  0
 20 34  1  0
 21 35  1  0
 21 36  1  0
 22 37  1  0
 22 38  1  0
M  CHG  2  14  -1  26  -1
M  END
>  <UniqueID>  (6) 
6

>  <SMILES>  (6) 
NC(=O)c1cc2ccc(C#CC(=O)[O-])cc2n1C(=O)CCCS(=O)(=O)[O-]

>  <Energy>  (6) 
69.47723357824636

>  <Genealogy>  (6) 
NC(=O)c1cc2ccc(C#CC(=O)[O-])cc2n1C(=O)CCCS(=O)(=O)[O-] (protonated)
NC(=O)c1cc2ccc(C#CC(=O)[O-])cc2n1C(=O)CCCS(=O)(=O)[O-] (3D coordinates assigned)
NC(=O)c1cc2ccc(C#CC(=O)[O-])cc2n1C(=O)CCCS(=O)(=O)[O-] (optimized conformer: 69.47723357824636 kcal/mol)

>  <smiles>  (6) 
NC(=O)c1cc2ccc(C#CC(=O)O)cc2n1C(=O)CCCS(=O)(=O)O

>  <score_type>  (6) 
oracle

>  <origin>  (6) 
adg

>  <m_score__min__energy>  (6) 
-7.9199999999999999

>  <m_primary>  (6) 
energy

$$$$
6:0
     RDKit          3D

 37 38  0  0  0  0  0  0  0  0999 V2000
  149.9080  151.9080  132.6310 C   0  0  0  0  0  0  0  0  0  0  0  0
  149.8840  153.3370  132.3310 N   0  0  0  0  0  0  0  0  0  0  0  0
  148.7560  154.1870  132.6060 C   0  0  0  0  0  0  0  0  0  0  0  0
  147.4830  153.5990  132.8110 C   0  0  0  0  0  0  0  0  0  0  0  0
  146.3530  154.3940  133.0670 C   0  0  0  0  0  0  0  0  0  0  0  0
  146.5250  155.7730  133.1220 C   0  0  0  0  0  0  0  0  0  0  0  0
  145.6020  156.7770  133.3130 C   0  0  0  0  0  0  0  0  0  0  0  0
  146.3290  157.9630  133.2450 C   0  0  0  0  0  0  0  0  0  0  0  0
  145.7300  159.3000  133.4370 C   0  0  0  0  0  0  0  0  0  0  0  0
  146.3610  160.4780  132.9310 N   0  0  0  0  0  0  0  0  0  0  0  0
  144.6620  159.4090  134.0960 O   0  0  0  0  0  0  0  0  0  0  0  0
  147.6470  157.7040  133.0130 N   0  0  0  0  0  0  0  0  0  0  0  0
  148.6960  158.6410  132.7290 C   0  0  0  0  0  0  0  0  0  0  0  0
  148.9790  159.5360  133.5700 O   0  0  0  0  0  0  0  0  0  0  0  0
  149.5380  158.4940  131.4950 C   0  0  0  0  0  0  0  0  0  0  0  0
  149.2640  159.6330  130.5040 C   0  0  0  0  0  0  0  0  0  0  0  0
  148.9540  160.8410  131.1740 O   0  0  0  0  0  0  0  0  0  0  0  0
  149.2540  161.9520  130.3580 C   0  0  0  0  0  0  0  0  0  0  0  0
  147.7510  156.3600  132.9440 C   0  0  0  0  0  0  0  0  0  0  0  0
  148.8890  155.5960  132.6690 C   0  0  0  0  0  0  0  0  0  0  0  0
  149.9105  151.7622  133.7213 H   0  0  0  0  0  0  0  0  0  0  0  0
  149.0178  151.4276  132.1988 H   0  0  0  0  0  0  0  0  0  0  0  0
  150.8138  151.4578  132.1988 H   0  0  0  0  0  0  0  0  0  0  0  0
  150.7380  153.7540  131.8950 H   0  0  0  0  0  0  0  0  0  0  0  0
  147.3780  152.5048  132.7691 H   0  0  0  0  0  0  0  0  0  0  0  0
  145.3628  153.9396  133.2192 H   0  0  0  0  0  0  0  0  0  0  0  0
  144.5209  156.6659  133.4831 H   0  0  0  0  0  0  0  0  0  0  0  0
  145.8910  161.4040  133.0290 H   0  0  0  0  0  0  0  0  0  0  0  0
  147.3290  160.4500  132.5420 H   0  0  0  0  0  0  0  0  0  0  0  0
  150.6003  158.5127  131.7799 H   0  0  0  0  0  0  0  0  0  0  0  0
  149.2860  157.5393  131.0103 H   0  0  0  0  0  0  0  0  0  0  0  0
  150.1580  159.7885  129.8823 H   0  0  0  0  0  0  0  0  0  0  0  0
  148.4000  159.3507  129.8844 H   0  0  0  0  0  0  0  0  0  0  0  0
  149.4884  162.8199  130.9919 H   0  0  0  0  0  0  0  0  0  0  0  0
  150.1209  161.7171  129.7229 H   0  0  0  0  0  0  0  0  0  0  0  0
  148.3867  162.1853  129.7229 H   0  0  0  0  0  0  0  0  0  0  0  0
  149.8645  156.0774  132.5055 H   0  0  0  0  0  0  0  0  0  0  0  0
  1  2  1  0
  2  3  1  0
  3  4  2  0
  4  5  1  0
  5  6  2  0
  6  7  1  0
  7  8  2  0
  8  9  1  0
  9 10  1  0
  9 11  2  0
  8 12  1  0
 12 13  1  0
 13 14  2  0
 13 15  1  0
 15 16  1  0
 16 17  1  0
 17 18  1  0
 12 19  1  0
 19 20  2  0
 20  3  1  0
 19  6  1  0
  1 21  1  0
  1 22  1  0
  1 23  1  0
  2 24  1  0
  4 25  1  0
  5 26  1  0
  7 27  1  0
 10 28  1  0
 10 29  1  0
 15 30  1  0
 15 31  1  0
 16 32  1  0
 16 33  1  0
 18 34  1  0
 18 35  1  0
 18 36  1  0
 20 37  1  0
M  END
>  <UniqueID>  (7) 
7

>  <SMILES>  (7) 
CNc1ccc2cc(C(N)=O)n(C(=O)CCOC)c2c1

>  <Energy>  (7) 
74.11009132091154

>  <Genealogy>  (7) 
CNc1ccc2cc(C(N)=O)n(C(=O)CCOC)c2c1 (3D coordinates assigned)
CNc1ccc2cc(C(N)=O)n(C(=O)CCOC)c2c1 (optimized conformer: 74.11009132091154 kcal/mol)

>  <smiles>  (7) 
CNc1ccc2cc(C(N)=O)n(C(=O)CCOC)c2c1

>  <score_type>  (7) 
oracle

>  <origin>  (7) 
adg

>  <m_score__min__energy>  (7) 
-6.4900000000000002

>  <m_primary>  (7) 
energy

$$$$
7:0
     RDKit          3D

 53 55  0  0  0  0  0  0  0  0999 V2000
  138.5340  158.2550  132.8990 C   0  0  0  0  0  0  0  0  0  0  0  0
  139.6860  157.2810  133.2090 C   0  0  0  0  0  0  0  0  0  0  0  0
  141.0100  157.7950  132.6130 C   0  0  0  0  0  0  0  0  0  0  0  0
  139.8430  157.1670  134.7330 C   0  0  0  0  0  0  0  0  0  0  0  0
  139.3830  155.9680  132.7150 O   0  0  0  0  0  0  0  0  0  0  0  0
  140.0700  154.7860  133.0200 C   0  0  0  0  0  0  0  0  0  0  0  0
  139.4980  153.6650  132.9550 O   0  0  0  0  0  0  0  0  0  0  0  0
  141.4410  154.8700  133.4210 N   0  0  0  0  0  0  0  0  0  0  0  0
  142.2670  153.6800  133.6610 C   0  0  0  0  0  0  0  0  0  0  0  0
  143.1300  153.3820  132.4210 C   0  0  0  0  0  0  0  0  0  0  0  0
  144.0960  154.5440  132.1340 C   0  0  0  0  0  0  0  0  0  0  0  0
  144.6180  155.1270  133.3780 N   0  0  0  0  0  0  0  0  0  0  0  0
  145.1620  156.4600  133.3730 C   0  0  0  0  0  0  0  0  0  0  0  0
  146.5230  156.6740  133.0430 C   0  0  0  0  0  0  0  0  0  0  0  0
  147.0650  157.9690  133.0440 C   0  0  0  0  0  0  0  0  0  0  0  0
  146.2250  159.0290  133.3740 C   0  0  0  0  0  0  0  0  0  0  0  0
  146.4860  160.3780  133.4380 C   0  0  0  0  0  0  0  0  0  0  0  0
  145.2840  160.9710  133.8110 C   0  0  0  0  0  0  0  0  0  0  0  0
  145.1490  162.4130  134.1020 C   0  0  0  0  0  0  0  0  0  0  0  0
  146.1580  163.0800  134.8570 N   0  0  0  0  0  0  0  0  0  0  0  0
  144.1310  163.0540  133.7320 O   0  0  0  0  0  0  0  0  0  0  0  0
  144.3080  160.0290  133.9590 N   0  0  0  0  0  0  0  0  0  0  0  0
  142.9150  160.2450  134.2430 C   0  0  0  0  0  0  0  0  0  0  0  0
  142.3760  159.7060  135.2430 O   0  0  0  0  0  0  0  0  0  0  0  0
  142.1420  161.0410  133.4050 O   0  0  0  0  0  0  0  0  0  0  0  0
  144.9050  158.8440  133.6970 C   0  0  0  0  0  0  0  0  0  0  0  0
  144.3360  157.5640  133.6890 C   0  0  0  0  0  0  0  0  0  0  0  0
  144.5790  154.3370  134.6140 C   0  0  0  0  0  0  0  0  0  0  0  0
  143.1450  153.8740  134.9250 C   0  0  0  0  0  0  0  0  0  0  0  0
  138.1003  158.6217  133.8411 H   0  0  0  0  0  0  0  0  0  0  0  0
  138.9193  159.1054  132.3173 H   0  0  0  0  0  0  0  0  0  0  0  0
  137.7595  157.7336  132.3173 H   0  0  0  0  0  0  0  0  0  0  0  0
  141.6993  158.0626  133.4274 H   0  0  0  0  0  0  0  0  0  0  0  0
  141.4632  157.0075  131.9930 H   0  0  0  0  0  0  0  0  0  0  0  0
  140.8131  158.6820  131.9930 H   0  0  0  0  0  0  0  0  0  0  0  0
  139.0480  157.7443  135.2277 H   0  0  0  0  0  0  0  0  0  0  0  0
  139.7690  156.1108  135.0312 H   0  0  0  0  0  0  0  0  0  0  0  0
  140.8244  157.5643  135.0312 H   0  0  0  0  0  0  0  0  0  0  0  0
  141.8690  155.8180  133.4810 H   0  0  0  0  0  0  0  0  0  0  0  0
  141.6103  152.8159  133.8402 H   0  0  0  0  0  0  0  0  0  0  0  0
  143.7116  152.4654  132.5985 H   0  0  0  0  0  0  0  0  0  0  0  0
  142.4665  153.2533  131.5531 H   0  0  0  0  0  0  0  0  0  0  0  0
  144.9380  154.1694  131.5334 H   0  0  0  0  0  0  0  0  0  0  0  0
  143.5455  155.3255  131.5897 H   0  0  0  0  0  0  0  0  0  0  0  0
  147.1615  155.8168  132.7833 H   0  0  0  0  0  0  0  0  0  0  0  0
  148.1218  158.1410  132.7916 H   0  0  0  0  0  0  0  0  0  0  0  0
  147.4430  160.8816  133.2368 H   0  0  0  0  0  0  0  0  0  0  0  0
  147.0450  162.5940  135.1150 H   0  0  0  0  0  0  0  0  0  0  0  0
  143.2708  157.4206  133.9232 H   0  0  0  0  0  0  0  0  0  0  0  0
  145.2251  153.4544  134.4978 H   0  0  0  0  0  0  0  0  0  0  0  0
  144.9330  154.9659  135.4442 H   0  0  0  0  0  0  0  0  0  0  0  0
  143.1979  152.9155  135.4621 H   0  0  0  0  0  0  0  0  0  0  0  0
  142.6739  154.6653  135.5266 H   0  0  0  0  0  0  0  0  0  0  0  0
  1  2  1  0
  2  3  1  0
  2  4  1  0
  2  5  1  0
  5  6  1  0
  6  7  2  0
  6  8  1  0
  8  9  1  0
  9 10  1  0
 10 11  1  0
 11 12  1  0
 12 13  1  0
 13 14  2  0
 14 15  1  0
 15 16  2  0
 16 17  1  0
 17 18  2  0
 18 19  1  0
 19 20  1  0
 19 21  2  0
 18 22  1  0
 22 23  1  0
 23 24  2  0
 23 25  1  0
 22 26  1  0
 26 27  2  0
 12 28  1  0
 28 29  1  0
 29  9  1  0
 27 13  1  0
 26 16  1  0
  1 30  1  0
  1 31  1  0
  1 32  1  0
  3 33  1  0
  3 34  1  0
  3 35  1  0
  4 36  1  0
  4 37  1  0
  4 38  1  0
  8 39  1  0
  9 40  1  0
 10 41  1  0
 10 42  1  0
 11 43  1  0
 11 44  1  0
 14 45  1  0
 15 46  1  0
 17 47  1  0
 20 48  1  0
 27 49  1  0
 28 50  1  0
 28 51  1  0
 29 52  1  0
 29 53  1  0
M  CHG  2  20  -1  25  -1
M  END
>  <UniqueID>  (8) 
8

>  <SMILES>  (8) 
CC(C)(C)OC(=O)NC1CCN(c2ccc3cc(C([NH-])=O)n(C(=O)[O-])c3c2)CC1

>  <Energy>  (8) 
93.16212820652353

>  <Genealogy>  (8) 
CC(C)(C)OC(=O)NC1CCN(c2ccc3cc(C([NH-])=O)n(C(=O)[O-])c3c2)CC1 (protonated)
CC(C)(C)OC(=O)NC1CCN(c2ccc3cc(C([NH-])=O)n(C(=O)[O-])c3c2)CC1 (3D coordinates assigned)
CC(C)(C)OC(=O)NC1CCN(c2ccc3cc(C([NH-])=O)n(C(=O)[O-])c3c2)CC1 (nonaromatic ring conformer: 93.16212820652353 kcal/mol)

>  <smiles>  (8) 
CC(C)(C)OC(=O)NC1CCN(c2ccc3cc(C(N)=O)n(C(=O)O)c3c2)CC1

>  <score_type>  (8) 
oracle

>  <origin>  (8) 
adg

>  <m_score__min__energy>  (8) 
-8.3000000000000007

>  <m_primary>  (8) 
energy

$$$$
8:0
     RDKit          3D

 42 43  0  0  0  0  0  0  0  0999 V2000
  150.0060  159.9270  129.4030 C   0  0  0  0  0  0  0  0  0  0  0  0
  149.4270  160.2520  130.5630 C   0  0  0  0  0  0  0  0  0  0  0  0
  148.8510  161.6300  130.7450 C   0  0  0  0  0  0  0  0  0  0  0  0
  149.2770  159.2420  131.6360 C   0  0  0  0  0  0  0  0  0  0  0  0
  149.8500  158.1220  131.5310 O   0  0  0  0  0  0  0  0  0  0  0  0
  148.5170  159.5350  132.7720 O   0  0  0  0  0  0  0  0  0  0  0  0
  148.8480  159.0630  134.0740 C   0  0  0  0  0  0  0  0  0  0  0  0
  148.0580  157.7890  134.3860 C   0  0  0  0  0  0  0  0  0  0  0  0
  146.9830  157.5800  133.4030 N   0  0  0  0  0  0  0  0  0  0  0  0
  147.1790  156.5990  132.3330 C   0  0  0  0  0  0  0  0  0  0  0  0
  145.6860  158.1760  133.5990 C   0  0  0  0  0  0  0  0  0  0  0  0
  145.4950  159.5610  133.3610 C   0  0  0  0  0  0  0  0  0  0  0  0
  144.2210  160.1400  133.4740 C   0  0  0  0  0  0  0  0  0  0  0  0
  143.1600  159.3160  133.8370 C   0  0  0  0  0  0  0  0  0  0  0  0
  141.8220  159.6050  133.9670 C   0  0  0  0  0  0  0  0  0  0  0  0
  141.2160  158.4000  134.3140 C   0  0  0  0  0  0  0  0  0  0  0  0
  139.7760  158.2730  134.6230 C   0  0  0  0  0  0  0  0  0  0  0  0
  139.3460  158.2090  135.9800 N   0  0  0  0  0  0  0  0  0  0  0  0
  138.9240  158.1820  133.7010 O   0  0  0  0  0  0  0  0  0  0  0  0
  142.1440  157.4030  134.3930 N   0  0  0  0  0  0  0  0  0  0  0  0
  141.9180  156.0050  134.6400 C   0  0  0  0  0  0  0  0  0  0  0  0
  142.5000  155.4240  135.5940 O   0  0  0  0  0  0  0  0  0  0  0  0
  141.0350  155.2860  133.8430 O   0  0  0  0  0  0  0  0  0  0  0  0
  143.3290  157.9810  134.1000 C   0  0  0  0  0  0  0  0  0  0  0  0
  144.5840  157.3740  133.9780 C   0  0  0  0  0  0  0  0  0  0  0  0
  150.4294  158.9216  129.2623 H   0  0  0  0  0  0  0  0  0  0  0  0
  150.0591  160.6650  128.5890 H   0  0  0  0  0  0  0  0  0  0  0  0
  148.7590  161.8501  131.8188 H   0  0  0  0  0  0  0  0  0  0  0  0
  149.5151  162.3701  130.2746 H   0  0  0  0  0  0  0  0  0  0  0  0
  147.8578  161.6773  130.2746 H   0  0  0  0  0  0  0  0  0  0  0  0
  149.9250  158.8439  134.1191 H   0  0  0  0  0  0  0  0  0  0  0  0
  148.5931  159.8361  134.8138 H   0  0  0  0  0  0  0  0  0  0  0  0
  148.7410  156.9271  134.3606 H   0  0  0  0  0  0  0  0  0  0  0  0
  147.6052  157.8932  135.3831 H   0  0  0  0  0  0  0  0  0  0  0  0
  147.3765  155.6106  132.7734 H   0  0  0  0  0  0  0  0  0  0  0  0
  146.2731  156.5489  131.7110 H   0  0  0  0  0  0  0  0  0  0  0  0
  148.0346  156.9008  131.7110 H   0  0  0  0  0  0  0  0  0  0  0  0
  146.3549  160.1888  133.0847 H   0  0  0  0  0  0  0  0  0  0  0  0
  144.0663  161.2119  133.2815 H   0  0  0  0  0  0  0  0  0  0  0  0
  141.3339  160.5807  133.8267 H   0  0  0  0  0  0  0  0  0  0  0  0
  139.2350  159.0780  136.5490 H   0  0  0  0  0  0  0  0  0  0  0  0
  144.7106  156.2987  134.1722 H   0  0  0  0  0  0  0  0  0  0  0  0
  1  2  2  0
  2  3  1  0
  2  4  1  0
  4  5  2  0
  4  6  1  0
  6  7  1  0
  7  8  1  0
  8  9  1  0
  9 10  1  0
  9 11  1  0
 11 12  2  0
 12 13  1  0
 13 14  2  0
 14 15  1  0
 15 16  2  0
 16 17  1  0
 17 18  1  0
 17 19  2  0
 16 20  1  0
 20 21  1  0
 21 22  2  0
 21 23  1  0
 20 24  1  0
 24 25  2  0
 25 11  1  0
 24 14  1  0
  1 26  1  0
  1 27  1  0
  3 28  1  0
  3 29  1  0
  3 30  1  0
  7 31  1  0
  7 32  1  0
  8 33  1  0
  8 34  1  0
 10 35  1  0
 10 36  1  0
 10 37  1  0
 12 38  1  0
 13 39  1  0
 15 40  1  0
 18 41  1  0
 25 42  1  0
M  CHG  2  18  -1  23  -1
M  END
>  <UniqueID>  (9) 
9

>  <SMILES>  (9) 
C=C(C)C(=O)OCCN(C)c1ccc2cc(C([NH-])=O)n(C(=O)[O-])c2c1

>  <Energy>  (9) 
75.36439607584563

>  <Genealogy>  (9) 
C=C(C)C(=O)OCCN(C)c1ccc2cc(C([NH-])=O)n(C(=O)[O-])c2c1 (protonated)
C=C(C)C(=O)OCCN(C)c1ccc2cc(C([NH-])=O)n(C(=O)[O-])c2c1 (3D coordinates assigned)
C=C(C)C(=O)OCCN(C)c1ccc2cc(C([NH-])=O)n(C(=O)[O-])c2c1 (optimized conformer: 75.36439607584563 kcal/mol)

>  <smiles>  (9) 
C=C(C)C(=O)OCCN(C)c1ccc2cc(C(N)=O)n(C(=O)O)c2c1

>  <score_type>  (9) 
oracle

>  <origin>  (9) 
adg

>  <m_score__min__energy>  (9) 
-6.9100000000000001

>  <m_primary>  (9) 
energy

$$$$
9:0
     RDKit          3D

 41 42  0  0  0  0  0  0  0  0999 V2000
  140.2380  157.6880  135.2560 C   0  0  0  0  0  0  0  0  0  0  0  0
  140.5170  158.4150  133.9270 C   0  0  2  0  0  0  0  0  0  0  0  0
  140.1020  157.5760  132.6930 C   0  0  0  0  0  0  0  0  0  0  0  0
  139.5670  156.1670  133.0020 C   0  0  0  0  0  0  0  0  0  0  0  0
  140.6050  155.2250  133.0330 O   0  0  0  0  0  0  0  0  0  0  0  0
  141.9340  158.9530  133.8140 C   0  0  0  0  0  0  0  0  0  0  0  0
  142.2150  160.3480  133.8370 C   0  0  0  0  0  0  0  0  0  0  0  0
  143.5350  160.8180  133.7570 C   0  0  0  0  0  0  0  0  0  0  0  0
  144.5590  159.8810  133.6760 C   0  0  0  0  0  0  0  0  0  0  0  0
  145.9170  160.0660  133.5630 C   0  0  0  0  0  0  0  0  0  0  0  0
  146.4590  158.7850  133.5170 C   0  0  0  0  0  0  0  0  0  0  0  0
  147.9090  158.5170  133.4550 C   0  0  0  0  0  0  0  0  0  0  0  0
  148.4440  157.2430  133.8170 N   0  0  0  0  0  0  0  0  0  0  0  0
  148.6960  159.4470  133.1310 O   0  0  0  0  0  0  0  0  0  0  0  0
  145.4760  157.8430  133.5880 N   0  0  0  0  0  0  0  0  0  0  0  0
  145.6240  156.4200  133.4520 C   0  0  0  0  0  0  0  0  0  0  0  0
  146.4780  155.9470  132.6540 O   0  0  0  0  0  0  0  0  0  0  0  0
  144.8180  155.5630  134.2110 O   0  0  0  0  0  0  0  0  0  0  0  0
  145.0880  155.2310  135.5700 C   0  0  0  0  0  0  0  0  0  0  0  0
  146.4460  154.6180  135.6980 C   0  0  0  0  0  0  0  0  0  0  0  0
  147.4520  155.2120  135.2290 O   0  0  0  0  0  0  0  0  0  0  0  0
  146.5980  153.3810  136.3090 O   0  0  0  0  0  0  0  0  0  0  0  0
  144.3160  158.5320  133.6880 C   0  0  0  0  0  0  0  0  0  0  0  0
  143.0090  158.0350  133.7440 C   0  0  0  0  0  0  0  0  0  0  0  0
  140.4922  158.3504  136.0966 H   0  0  0  0  0  0  0  0  0  0  0  0
  139.1728  157.4190  135.3102 H   0  0  0  0  0  0  0  0  0  0  0  0
  140.8498  156.7755  135.3102 H   0  0  0  0  0  0  0  0  0  0  0  0
  139.8670  159.3023  133.9381 H   0  0  0  0  0  0  0  0  0  0  0  0
  139.3157  158.1274  132.1567 H   0  0  0  0  0  0  0  0  0  0  0  0
  141.0194  157.4292  132.1041 H   0  0  0  0  0  0  0  0  0  0  0  0
  139.0656  156.1805  133.9810 H   0  0  0  0  0  0  0  0  0  0  0  0
  138.8613  155.8810  132.2081 H   0  0  0  0  0  0  0  0  0  0  0  0
  141.3540  155.6070  132.5070 H   0  0  0  0  0  0  0  0  0  0  0  0
  141.3867  161.0673  133.9186 H   0  0  0  0  0  0  0  0  0  0  0  0
  143.7531  161.8962  133.7584 H   0  0  0  0  0  0  0  0  0  0  0  0
  146.4590  161.0221  133.5185 H   0  0  0  0  0  0  0  0  0  0  0  0
  149.4680  157.0600  133.7270 H   0  0  0  0  0  0  0  0  0  0  0  0
  147.8410  156.5080  134.2470 H   0  0  0  0  0  0  0  0  0  0  0  0
  145.0436  156.1442  136.1817 H   0  0  0  0  0  0  0  0  0  0  0  0
  144.3360  154.5067  135.9161 H   0  0  0  0  0  0  0  0  0  0  0  0
  142.8207  156.9513  133.7338 H   0  0  0  0  0  0  0  0  0  0  0  0
  1  2  1  0
  2  3  1  0
  3  4  1  0
  4  5  1  0
  2  6  1  0
  6  7  2  0
  7  8  1  0
  8  9  2  0
  9 10  1  0
 10 11  2  0
 11 12  1  0
 12 13  1  0
 12 14  2  0
 11 15  1  0
 15 16  1  0
 16 17  2  0
 16 18  1  0
 18 19  1  0
 19 20  1  0
 20 21  2  0
 20 22  1  0
 15 23  1  0
 23 24  2  0
 24  6  1  0
 23  9  1  0
  1 25  1  0
  1 26  1  0
  1 27  1  0
  2 28  1  1
  3 29  1  0
  3 30  1  0
  4 31  1  0
  4 32  1  0
  5 33  1  0
  7 34  1  0
  8 35  1  0
 10 36  1  0
 13 37  1  0
 13 38  1  0
 19 39  1  0
 19 40  1  0
 24 41  1  0
M  CHG  1  22  -1
M  END
>  <UniqueID>  (10) 
10

>  <SMILES>  (10) 
C[C@H](CCO)c1ccc2cc(C(N)=O)n(C(=O)OCC(=O)[O-])c2c1

>  <Energy>  (10) 
76.79350061496685

>  <Genealogy>  (10) 
CC(CCO)c1ccc2cc(C(N)=O)n(C(=O)OCC(=O)[O-])c2c1 (protonated)
C[C@H](CCO)c1ccc2cc(C(N)=O)n(C(=O)OCC(=O)[O-])c2c1 (chirality)
C[C@H](CCO)c1ccc2cc(C(N)=O)n(C(=O)OCC(=O)[O-])c2c1 (3D coordinates assigned)
C[C@H](CCO)c1ccc2cc(C(N)=O)n(C(=O)OCC(=O)[O-])c2c1 (optimized conformer: 76.79350061496685 kcal/mol)

>  <smiles>  (10) 
CC(CCO)c1ccc2cc(C(N)=O)n(C(=O)OCC(=O)O)c2c1

>  <score_type>  (10) 
oracle

>  <origin>  (10) 
adg

>  <m_score__min__energy>  (10) 
-7.0999999999999996

>  <m_primary>  (10) 
energy

$$$$
10:0
     RDKit          3D

 46 47  0  0  0  0  0  0  0  0999 V2000
  142.4940  159.2010  132.5940 H   0  0  0  0  0  0  0  0  0  0  0  0
  142.9160  160.0480  133.0380 N   0  0  0  0  0  0  0  0  0  0  0  0
  144.0970  159.9490  133.8280 C   0  0  0  0  0  0  0  0  0  0  0  0
  144.3270  160.8260  134.7030 O   0  0  0  0  0  0  0  0  0  0  0  0
  145.0820  158.8740  133.5930 C   0  0  0  0  0  0  0  0  0  0  0  0
  146.4380  159.1160  133.3780 C   0  0  0  0  0  0  0  0  0  0  0  0
  146.9580  160.0842  133.4247 H   0  0  0  0  0  0  0  0  0  0  0  0
  146.9880  157.8870  133.0950 C   0  0  0  0  0  0  0  0  0  0  0  0
  148.3020  157.5450  132.7920 C   0  0  0  0  0  0  0  0  0  0  0  0
  149.0894  158.3114  132.7404 H   0  0  0  0  0  0  0  0  0  0  0  0
  148.5930  156.1920  132.5540 C   0  0  0  0  0  0  0  0  0  0  0  0
  149.6215  155.8918  132.3047 H   0  0  0  0  0  0  0  0  0  0  0  0
  147.5720  155.2070  132.6320 C   0  0  0  0  0  0  0  0  0  0  0  0
  147.8830  153.8160  132.4030 N   0  0  0  0  0  0  0  0  0  0  0  0
  148.5970  153.7160  131.6450 H   0  0  0  0  0  0  0  0  0  0  0  0
  147.0200  153.3310  132.0650 H   0  0  0  0  0  0  0  0  0  0  0  0
  148.3430  153.1490  133.6360 C   0  0  0  0  0  0  0  0  0  0  0  0
  148.8875  153.8833  134.2478 H   0  0  0  0  0  0  0  0  0  0  0  0
  147.4505  152.7620  134.1495 H   0  0  0  0  0  0  0  0  0  0  0  0
  149.2710  151.9510  133.3700 C   0  0  0  0  0  0  0  0  0  0  0  0
  150.2431  152.1387  133.8494 H   0  0  0  0  0  0  0  0  0  0  0  0
  148.7971  151.0490  133.7846 H   0  0  0  0  0  0  0  0  0  0  0  0
  149.4810  151.7410  131.9320 C   0  0  0  0  0  0  0  0  0  0  0  0
  149.6440  151.5830  130.7980 N   0  0  0  0  0  0  0  0  0  0  0  0
  146.2500  155.5950  132.9470 C   0  0  0  0  0  0  0  0  0  0  0  0
  145.4478  154.8464  133.0248 H   0  0  0  0  0  0  0  0  0  0  0  0
  145.9840  156.9540  133.1580 C   0  0  0  0  0  0  0  0  0  0  0  0
  144.8060  157.5440  133.4660 N   0  0  0  0  0  0  0  0  0  0  0  0
  143.5460  156.8810  133.6580 C   0  0  0  0  0  0  0  0  0  0  0  0
  143.3880  156.0850  134.6220 O   0  0  0  0  0  0  0  0  0  0  0  0
  142.5070  157.1000  132.7500 O   0  0  0  0  0  0  0  0  0  0  0  0
  141.1570  156.7350  133.0100 C   0  0  0  0  0  0  0  0  0  0  0  0
  141.1107  156.1111  133.9147 H   0  0  0  0  0  0  0  0  0  0  0  0
  140.7542  156.1654  132.1595 H   0  0  0  0  0  0  0  0  0  0  0  0
  140.3520  157.9760  133.2150 C   0  0  0  0  0  0  0  0  0  0  0  0
  140.3480  158.8900  132.2950 N   0  0  0  0  0  0  0  0  0  0  0  0
  139.6450  160.0640  132.4450 O   0  0  0  0  0  0  0  0  0  0  0  0
  138.7360  160.4850  131.4410 C   0  0  0  0  0  0  0  0  0  0  0  0
  137.8348  160.9024  131.9139 H   0  0  0  0  0  0  0  0  0  0  0  0
  139.2115  161.2546  130.8152 H   0  0  0  0  0  0  0  0  0  0  0  0
  138.4566  159.6246  130.8152 H   0  0  0  0  0  0  0  0  0  0  0  0
  139.4570  158.2120  134.7580 S   0  0  0  0  0  0  0  0  0  0  0  0
  140.8810  158.9690  135.6020 C   0  0  0  0  0  0  0  0  0  0  0  0
  140.7432  158.8958  136.6909 H   0  0  0  0  0  0  0  0  0  0  0  0
  141.8017  158.4413  135.3126 H   0  0  0  0  0  0  0  0  0  0  0  0
  140.9586  160.0274  135.3126 H   0  0  0  0  0  0  0  0  0  0  0  0
  1  2  1  0
  2  3  1  0
  3  4  2  0
  3  5  1  0
  5  6  2  0
  6  7  1  0
  6  8  1  0
  8  9  2  0
  9 10  1  0
  9 11  1  0
 11 12  1  0
 11 13  2  0
 13 14  1  0
 14 15  1  0
 14 16  1  0
 14 17  1  0
 17 18  1  0
 17 19  1  0
 17 20  1  0
 20 21  1  0
 20 22  1  0
 20 23  1  0
 23 24  3  0
 13 25  1  0
 25 26  1  0
 25 27  2  0
 27 28  1  0
 28 29  1  0
 29 30  2  0
 29 31  1  0
 31 32  1  0
 32 33  1  0
 32 34  1  0
 32 35  1  0
 35 36  2  0
 36 37  1  0
 37 38  1  0
 38 39  1  0
 38 40  1  0
 38 41  1  0
 35 42  1  0
 42 43  1  0
 43 44  1  0
 43 45  1  0
 43 46  1  0
 28  5  1  0
 27  8  1  0
M  CHG  2   2  -1  14   1
M  END
>  <UniqueID>  (11) 
11

>  <SMILES>  (11) 
CO/N=C(/COC(=O)n1c(C([NH-])=O)cc2ccc([NH2+]CCC#N)cc21)SC

>  <Energy>  (11) 
71.23318516774138

>  <Genealogy>  (11) 
CO/N=C(/COC(=O)n1c(C([NH-])=O)cc2ccc([NH2+]CCC#N)cc21)SC (protonated)
CO/N=C(/COC(=O)n1c(C([NH-])=O)cc2ccc([NH2+]CCC#N)cc21)SC (cis-trans isomerization)
CO/N=C(/COC(=O)n1c(C([NH-])=O)cc2ccc([NH2+]CCC#N)cc21)SC (3D coordinates assigned)
CO/N=C(/COC(=O)n1c(C([NH-])=O)cc2ccc([NH2+]CCC#N)cc21)SC (optimized conformer: 71.23318516774138 kcal/mol)

>  <smiles>  (11) 
CO/N=C(/COC(=O)n1c(C(N)=O)cc2ccc(NCCC#N)cc21)SC

>  <score_type>  (11) 
oracle

>  <origin>  (11) 
adg

>  <m_score__min__energy>  (11) 
-7.0700000000000003

>  <m_primary>  (11) 
energy

$$$$
11:0
     RDKit          3D

 44 45  0  0  0  0  0  0  0  0999 V2000
  144.1420  154.5810  133.0630 C   0  0  0  0  0  0  0  0  0  0  0  0
  145.0150  155.4780  133.8280 N   0  0  0  0  0  0  0  0  0  0  0  0
  145.1510  155.3180  135.2810 C   0  0  0  0  0  0  0  0  0  0  0  0
  146.4950  154.7500  135.6070 C   0  0  0  0  0  0  0  0  0  0  0  0
  147.5420  155.3610  135.2680 O   0  0  0  0  0  0  0  0  0  0  0  0
  146.5910  153.5660  136.3270 O   0  0  0  0  0  0  0  0  0  0  0  0
  145.7790  156.4870  133.1380 C   0  0  0  0  0  0  0  0  0  0  0  0
  146.7210  156.1530  132.3680 O   0  0  0  0  0  0  0  0  0  0  0  0
  145.4850  157.8800  133.3180 N   0  0  0  0  0  0  0  0  0  0  0  0
  146.3660  158.8930  133.5460 C   0  0  0  0  0  0  0  0  0  0  0  0
  147.8400  158.7540  133.5350 C   0  0  0  0  0  0  0  0  0  0  0  0
  148.4670  157.5230  133.9000 N   0  0  0  0  0  0  0  0  0  0  0  0
  148.5640  159.7340  133.2150 O   0  0  0  0  0  0  0  0  0  0  0  0
  145.6780  160.0910  133.7440 C   0  0  0  0  0  0  0  0  0  0  0  0
  144.3420  159.7670  133.6410 C   0  0  0  0  0  0  0  0  0  0  0  0
  143.2130  160.5670  133.7690 C   0  0  0  0  0  0  0  0  0  0  0  0
  141.9540  159.9560  133.6410 C   0  0  0  0  0  0  0  0  0  0  0  0
  141.8340  158.5580  133.3890 C   0  0  0  0  0  0  0  0  0  0  0  0
  140.5310  157.9270  133.2680 N   0  0  0  0  0  0  0  0  0  0  0  0
  139.5860  158.3780  132.2380 C   0  0  0  0  0  0  0  0  0  0  0  0
  140.1070  156.8430  134.1700 C   0  0  0  0  0  0  0  0  0  0  0  0
  140.1810  155.4730  133.4820 C   0  0  0  0  0  0  0  0  0  0  0  0
  139.1030  155.2870  132.6050 O   0  0  0  0  0  0  0  0  0  0  0  0
  143.0190  157.7860  133.2720 C   0  0  0  0  0  0  0  0  0  0  0  0
  144.2550  158.4270  133.3900 C   0  0  0  0  0  0  0  0  0  0  0  0
  143.5466  153.9692  133.7567 H   0  0  0  0  0  0  0  0  0  0  0  0
  143.4688  155.1770  132.4293 H   0  0  0  0  0  0  0  0  0  0  0  0
  144.7560  153.9242  132.4293 H   0  0  0  0  0  0  0  0  0  0  0  0
  145.0416  156.2984  135.7677 H   0  0  0  0  0  0  0  0  0  0  0  0
  144.3707  154.6332  135.6445 H   0  0  0  0  0  0  0  0  0  0  0  0
  147.9110  156.6650  134.1110 H   0  0  0  0  0  0  0  0  0  0  0  0
  149.5090  157.4530  133.9180 H   0  0  0  0  0  0  0  0  0  0  0  0
  146.1101  161.0833  133.9406 H   0  0  0  0  0  0  0  0  0  0  0  0
  143.3021  161.6458  133.9646 H   0  0  0  0  0  0  0  0  0  0  0  0
  141.0447  160.5675  133.7370 H   0  0  0  0  0  0  0  0  0  0  0  0
  138.6937  158.8038  132.7202 H   0  0  0  0  0  0  0  0  0  0  0  0
  140.0651  159.1445  131.6112 H   0  0  0  0  0  0  0  0  0  0  0  0
  139.2914  157.5234  131.6112 H   0  0  0  0  0  0  0  0  0  0  0  0
  140.7641  156.8353  135.0521 H   0  0  0  0  0  0  0  0  0  0  0  0
  139.0618  157.0261  134.4598 H   0  0  0  0  0  0  0  0  0  0  0  0
  141.1209  155.4069  132.9143 H   0  0  0  0  0  0  0  0  0  0  0  0
  140.1393  154.6921  134.2556 H   0  0  0  0  0  0  0  0  0  0  0  0
  138.3410  155.8050  132.9760 H   0  0  0  0  0  0  0  0  0  0  0  0
  142.9655  156.7022  133.0916 H   0  0  0  0  0  0  0  0  0  0  0  0
  1  2  1  0
  2  3  1  0
  3  4  1  0
  4  5  2  0
  4  6  1  0
  2  7  1  0
  7  8  2  0
  7  9  1  0
  9 10  1  0
 10 11  1  0
 11 12  1  0
 11 13  2  0
 10 14  2  0
 14 15  1  0
 15 16  2  0
 16 17  1  0
 17 18  2  0
 18 19  1  0
 19 20  1  0
 19 21  1  0
 21 22  1  0
 22 23  1  0
 18 24  1  0
 24 25  2  0
 25  9  1  0
 25 15  1  0
  1 26  1  0
  1 27  1  0
  1 28  1  0
  3 29  1  0
  3 30  1  0
 12 31  1  0
 12 32  1  0
 14 33  1  0
 16 34  1  0
 17 35  1  0
 20 36  1  0
 20 37  1  0
 20 38  1  0
 21 39  1  0
 21 40  1  0
 22 41  1  0
 22 42  1  0
 23 43  1  0
 24 44  1  0
M  CHG  1   6  -1
M  END
>  <UniqueID>  (12) 
12

>  <SMILES>  (12) 
CN(CC(=O)[O-])C(=O)n1c(C(N)=O)cc2ccc(N(C)CCO)cc21

>  <Energy>  (12) 
80.50811007698255

>  <Genealogy>  (12) 
CN(CC(=O)[O-])C(=O)n1c(C(N)=O)cc2ccc(N(C)CCO)cc21 (protonated)
CN(CC(=O)[O-])C(=O)n1c(C(N)=O)cc2ccc(N(C)CCO)cc21 (3D coordinates assigned)
CN(CC(=O)[O-])C(=O)n1c(C(N)=O)cc2ccc(N(C)CCO)cc21 (optimized conformer: 80.50811007698255 kcal/mol)

>  <smiles>  (12) 
CN(CC(=O)O)C(=O)n1c(C(N)=O)cc2ccc(N(C)CCO)cc21

>  <score_type>  (12) 
oracle

>  <origin>  (12) 
adg

>  <m_score__min__energy>  (12) 
-6.5

>  <m_primary>  (12) 
energy

$$$$
12:0
     RDKit          3D

 49 50  0  0  0  0  0  0  0  0999 V2000
  150.3490  150.7010  130.5010 C   0  0  0  0  0  0  0  0  0  0  0  0
  150.3500  150.7280  132.0240 C   0  0  0  0  0  0  0  0  0  0  0  0
  150.3460  152.0780  132.4680 O   0  0  0  0  0  0  0  0  0  0  0  0
  149.2000  152.8820  132.4640 C   0  0  0  0  0  0  0  0  0  0  0  0
  148.0690  152.3860  132.2070 O   0  0  0  0  0  0  0  0  0  0  0  0
  149.3170  154.3600  132.7010 C   0  0  0  0  0  0  0  0  0  0  0  0
  148.0830  155.0600  132.3400 N   0  0  0  0  0  0  0  0  0  0  0  0
  147.8250  156.4570  132.5920 C   0  0  0  0  0  0  0  0  0  0  0  0
  148.8380  157.4030  132.3050 C   0  0  0  0  0  0  0  0  0  0  0  0
  148.6210  158.7750  132.5090 C   0  0  0  0  0  0  0  0  0  0  0  0
  147.3780  159.1770  132.9820 C   0  0  0  0  0  0  0  0  0  0  0  0
  146.9100  160.4400  133.2450 C   0  0  0  0  0  0  0  0  0  0  0  0
  145.6050  160.2600  133.6880 C   0  0  0  0  0  0  0  0  0  0  0  0
  144.7480  161.3810  134.1120 C   0  0  0  0  0  0  0  0  0  0  0  0
  143.3770  161.4390  133.7180 N   0  0  0  0  0  0  0  0  0  0  0  0
  145.2080  162.2540  134.8960 O   0  0  0  0  0  0  0  0  0  0  0  0
  145.2560  158.9400  133.6750 N   0  0  0  0  0  0  0  0  0  0  0  0
  143.9300  158.3930  133.8650 C   0  0  0  0  0  0  0  0  0  0  0  0
  143.7500  157.4180  134.6440 O   0  0  0  0  0  0  0  0  0  0  0  0
  142.8480  158.9160  133.1390 O   0  0  0  0  0  0  0  0  0  0  0  0
  141.4570  158.8010  133.4710 C   0  0  0  0  0  0  0  0  0  0  0  0
  140.6130  159.7460  132.5940 C   0  0  0  0  0  0  0  0  0  0  0  0
  141.3090  159.2230  134.9430 C   0  0  0  0  0  0  0  0  0  0  0  0
  140.9800  157.3430  133.3220 C   0  0  0  0  0  0  0  0  0  0  0  0
  146.3710  158.2850  133.2580 C   0  0  0  0  0  0  0  0  0  0  0  0
  146.5790  156.9060  133.0970 C   0  0  0  0  0  0  0  0  0  0  0  0
  150.3101  149.6583  130.1528 H   0  0  0  0  0  0  0  0  0  0  0  0
  149.4706  151.2461  130.1252 H   0  0  0  0  0  0  0  0  0  0  0  0
  151.2656  151.1791  130.1252 H   0  0  0  0  0  0  0  0  0  0  0  0
  149.4538  150.2140  132.4016 H   0  0  0  0  0  0  0  0  0  0  0  0
  151.2482  150.2176  132.4018 H   0  0  0  0  0  0  0  0  0  0  0  0
  149.5293  154.5357  133.7659 H   0  0  0  0  0  0  0  0  0  0  0  0
  150.1310  154.7475  132.0707 H   0  0  0  0  0  0  0  0  0  0  0  0
  147.3470  154.5000  131.8500 H   0  0  0  0  0  0  0  0  0  0  0  0
  149.8080  157.0587  131.9170 H   0  0  0  0  0  0  0  0  0  0  0  0
  149.4121  159.5103  132.3004 H   0  0  0  0  0  0  0  0  0  0  0  0
  147.4514  161.3906  133.1299 H   0  0  0  0  0  0  0  0  0  0  0  0
  142.9460  160.6620  133.1680 H   0  0  0  0  0  0  0  0  0  0  0  0
  142.7850  162.2540  133.9950 H   0  0  0  0  0  0  0  0  0  0  0  0
  140.0190  160.4111  133.2381 H   0  0  0  0  0  0  0  0  0  0  0  0
  141.2786  160.3490  131.9589 H   0  0  0  0  0  0  0  0  0  0  0  0
  139.9389  159.1525  131.9589 H   0  0  0  0  0  0  0  0  0  0  0  0
  141.6021  158.3872  135.5953 H   0  0  0  0  0  0  0  0  0  0  0  0
  141.9571  160.0890  135.1431 H   0  0  0  0  0  0  0  0  0  0  0  0
  140.2620  159.4946  135.1431 H   0  0  0  0  0  0  0  0  0  0  0  0
  140.8353  156.9009  134.3188 H   0  0  0  0  0  0  0  0  0  0  0  0
  140.0285  157.3231  132.7704 H   0  0  0  0  0  0  0  0  0  0  0  0
  141.7357  156.7645  132.7704 H   0  0  0  0  0  0  0  0  0  0  0  0
  145.7889  156.1866  133.3582 H   0  0  0  0  0  0  0  0  0  0  0  0
  1  2  1  0
  2  3  1  0
  3  4  1  0
  4  5  2  0
  4  6  1  0
  6  7  1  0
  7  8  1  0
  8  9  2  0
  9 10  1  0
 10 11  2  0
 11 12  1  0
 12 13  2  0
 13 14  1  0
 14 15  1  0
 14 16  2  0
 13 17  1  0
 17 18  1  0
 18 19  2  0
 18 20  1  0
 20 21  1  0
 21 22  1  0
 21 23  1  0
 21 24  1  0
 17 25  1  0
 25 26  2  0
 26  8  1  0
 25 11  1  0
  1 27  1  0
  1 28  1  0
  1 29  1  0
  2 30  1  0
  2 31  1  0
  6 32  1  0
  6 33  1  0
  7 34  1  0
  9 35  1  0
 10 36  1  0
 12 37  1  0
 15 38  1  0
 15 39  1  0
 22 40  1  0
 22 41  1  0
 22 42  1  0
 23 43  1  0
 23 44  1  0
 23 45  1  0
 24 46  1  0
 24 47  1  0
 24 48  1  0
 26 49  1  0
M  END
>  <UniqueID>  (13) 
13

>  <SMILES>  (13) 
CCOC(=O)CNc1ccc2cc(C(N)=O)n(C(=O)OC(C)(C)C)c2c1

>  <Energy>  (13) 
78.37685110955765

>  <Genealogy>  (13) 
CCOC(=O)CNc1ccc2cc(C(N)=O)n(C(=O)OC(C)(C)C)c2c1 (3D coordinates assigned)
CCOC(=O)CNc1ccc2cc(C(N)=O)n(C(=O)OC(C)(C)C)c2c1 (optimized conformer: 78.37685110955765 kcal/mol)

>  <smiles>  (13) 
CCOC(=O)CNc1ccc2cc(C(N)=O)n(C(=O)OC(C)(C)C)c2c1

>  <score_type>  (13) 
oracle

>  <origin>  (13) 
adg

>  <m_score__min__energy>  (13) 
-7.1500000000000004

>  <m_primary>  (13) 
energy

$$$$
13:0
     RDKit          3D

 42 43  0  0  0  0  0  0  0  0999 V2000
  139.0760  160.1140  130.5010 C   0  0  0  0  0  0  0  0  0  0  0  0
  139.9690  159.3170  131.3310 N   0  0  0  0  0  0  0  0  0  0  0  0
  139.4780  158.5290  132.4230 C   0  0  0  0  0  0  0  0  0  0  0  0
  138.2540  158.5540  132.7260 O   0  0  0  0  0  0  0  0  0  0  0  0
  140.4090  157.6430  133.2000 C   0  0  0  0  0  0  0  0  0  0  0  0
  141.1010  158.4150  134.2450 N   0  0  0  0  0  0  0  0  0  0  0  0
  140.4450  158.6160  135.5420 C   0  0  0  0  0  0  0  0  0  0  0  0
  142.4310  158.9400  134.0250 C   0  0  0  0  0  0  0  0  0  0  0  0
  142.6600  160.3430  133.9890 C   0  0  0  0  0  0  0  0  0  0  0  0
  143.9430  160.8580  133.7420 C   0  0  0  0  0  0  0  0  0  0  0  0
  144.9830  159.9560  133.5500 C   0  0  0  0  0  0  0  0  0  0  0  0
  146.3110  160.1840  133.2700 C   0  0  0  0  0  0  0  0  0  0  0  0
  146.8910  158.9210  133.1750 C   0  0  0  0  0  0  0  0  0  0  0  0
  148.3380  158.7050  132.9640 C   0  0  0  0  0  0  0  0  0  0  0  0
  148.7990  158.1450  131.7380 N   0  0  0  0  0  0  0  0  0  0  0  0
  149.1750  159.0430  133.8410 O   0  0  0  0  0  0  0  0  0  0  0  0
  145.9550  157.9490  133.3780 N   0  0  0  0  0  0  0  0  0  0  0  0
  146.1320  156.5240  133.3220 C   0  0  0  0  0  0  0  0  0  0  0  0
  145.5410  155.7860  134.1570 O   0  0  0  0  0  0  0  0  0  0  0  0
  146.9880  155.9760  132.3570 O   0  0  0  0  0  0  0  0  0  0  0  0
  148.0130  155.0580  132.6180 C   0  0  0  0  0  0  0  0  0  0  0  0
  147.6540  153.6670  133.0200 C   0  0  0  0  0  0  0  0  0  0  0  0
  149.2280  155.3950  132.5610 O   0  0  0  0  0  0  0  0  0  0  0  0
  144.7930  158.6010  133.6080 C   0  0  0  0  0  0  0  0  0  0  0  0
  143.5230  158.0590  133.8290 C   0  0  0  0  0  0  0  0  0  0  0  0
  138.4103  160.7081  131.1443 H   0  0  0  0  0  0  0  0  0  0  0  0
  139.6697  160.7880  129.8659 H   0  0  0  0  0  0  0  0  0  0  0  0
  138.4736  159.4478  129.8659 H   0  0  0  0  0  0  0  0  0  0  0  0
  140.9910  159.3140  131.1100 H   0  0  0  0  0  0  0  0  0  0  0  0
  139.8309  156.8339  133.6703 H   0  0  0  0  0  0  0  0  0  0  0  0
  141.1579  157.2229  132.5125 H   0  0  0  0  0  0  0  0  0  0  0  0
  141.1576  158.3977  136.3511 H   0  0  0  0  0  0  0  0  0  0  0  0
  140.1060  159.6592  135.6237 H   0  0  0  0  0  0  0  0  0  0  0  0
  139.5797  157.9418  135.6237 H   0  0  0  0  0  0  0  0  0  0  0  0
  141.8209  161.0342  134.1569 H   0  0  0  0  0  0  0  0  0  0  0  0
  144.1196  161.9430  133.7017 H   0  0  0  0  0  0  0  0  0  0  0  0
  146.8089  161.1572  133.1473 H   0  0  0  0  0  0  0  0  0  0  0  0
  148.6020  157.1480  131.4960 H   0  0  0  0  0  0  0  0  0  0  0  0
  147.6356  153.5957  134.1175 H   0  0  0  0  0  0  0  0  0  0  0  0
  146.6612  153.4142  132.6195 H   0  0  0  0  0  0  0  0  0  0  0  0
  148.4005  152.9654  132.6195 H   0  0  0  0  0  0  0  0  0  0  0  0
  143.3747  156.9693  133.8502 H   0  0  0  0  0  0  0  0  0  0  0  0
  1  2  1  0
  2  3  1  0
  3  4  2  0
  3  5  1  0
  5  6  1  0
  6  7  1  0
  6  8  1  0
  8  9  2  0
  9 10  1  0
 10 11  2  0
 11 12  1  0
 12 13  2  0
 13 14  1  0
 14 15  1  0
 14 16  2  0
 13 17  1  0
 17 18  1  0
 18 19  2  0
 18 20  1  0
 20 21  1  0
 21 22  1  0
 21 23  2  0
 17 24  1  0
 24 25  2  0
 25  8  1  0
 24 11  1  0
  1 26  1  0
  1 27  1  0
  1 28  1  0
  2 29  1  0
  5 30  1  0
  5 31  1  0
  7 32  1  0
  7 33  1  0
  7 34  1  0
  9 35  1  0
 10 36  1  0
 12 37  1  0
 15 38  1  0
 22 39  1  0
 22 40  1  0
 22 41  1  0
 25 42  1  0
M  CHG  1  15  -1
M  END
>  <UniqueID>  (14) 
14

>  <SMILES>  (14) 
CNC(=O)CN(C)c1ccc2cc(C([NH-])=O)n(C(=O)OC(C)=O)c2c1

>  <Energy>  (14) 
77.6679943458344

>  <Genealogy>  (14) 
CNC(=O)CN(C)c1ccc2cc(C([NH-])=O)n(C(=O)OC(C)=O)c2c1 (protonated)
CNC(=O)CN(C)c1ccc2cc(C([NH-])=O)n(C(=O)OC(C)=O)c2c1 (3D coordinates assigned)
CNC(=O)CN(C)c1ccc2cc(C([NH-])=O)n(C(=O)OC(C)=O)c2c1 (optimized conformer: 77.6679943458344 kcal/mol)

>  <smiles>  (14) 
CNC(=O)CN(C)c1ccc2cc(C(N)=O)n(C(=O)OC(C)=O)c2c1

>  <score_type>  (14) 
oracle

>  <origin>  (14) 
adg

>  <m_score__min__energy>  (14) 
-6.8399999999999999

>  <m_primary>  (14) 
energy

$$$$
14:0
     RDKit          3D

 47 48  0  0  0  0  0  0  0  0999 V2000
  149.3770  154.0480  132.6070 C   0  0  0  0  0  0  0  0  0  0  0  0
  148.7710  155.0870  132.6700 C   0  0  0  0  0  0  0  0  0  0  0  0
  148.0410  156.3260  132.7480 C   0  0  0  0  0  0  0  0  0  0  0  0
  148.6450  157.5320  132.3230 C   0  0  0  0  0  0  0  0  0  0  0  0
  147.9290  158.7420  132.3720 C   0  0  0  0  0  0  0  0  0  0  0  0
  146.6230  158.7080  132.8550 C   0  0  0  0  0  0  0  0  0  0  0  0
  145.6910  159.7150  132.9710 C   0  0  0  0  0  0  0  0  0  0  0  0
  144.5470  159.1040  133.4850 C   0  0  0  0  0  0  0  0  0  0  0  0
  143.3100  159.8390  133.8240 C   0  0  0  0  0  0  0  0  0  0  0  0
  142.0500  159.1750  133.8700 N   0  0  0  0  0  0  0  0  0  0  0  0
  143.3720  161.0640  134.1150 O   0  0  0  0  0  0  0  0  0  0  0  0
  144.7630  157.7730  133.6760 N   0  0  0  0  0  0  0  0  0  0  0  0
  143.8250  156.7730  134.0990 C   0  0  0  0  0  0  0  0  0  0  0  0
  143.2850  156.8600  135.2350 O   0  0  0  0  0  0  0  0  0  0  0  0
  143.4950  155.7240  133.2340 O   0  0  0  0  0  0  0  0  0  0  0  0
  142.2960  154.9640  133.3630 C   0  0  0  0  0  0  0  0  0  0  0  0
  141.2980  155.7440  134.0150 O   0  0  0  0  0  0  0  0  0  0  0  0
  140.2030  156.2900  133.3340 C   0  0  0  0  0  0  0  0  0  0  0  0
  139.4760  155.5510  132.6110 O   0  0  0  0  0  0  0  0  0  0  0  0
  139.9010  157.6940  133.4930 N   0  0  1  0  0  0  0  0  0  0  0  0
  139.5700  158.3350  132.2070 C   0  0  0  0  0  0  0  0  0  0  0  0
  138.8850  157.9230  134.5490 C   0  0  0  0  0  0  0  0  0  0  0  0
  139.4530  158.2090  135.9580 C   0  0  0  0  0  0  0  0  0  0  0  0
  140.8330  157.7180  136.0950 N   0  0  0  0  0  0  0  0  0  0  0  0
  141.6770  158.6730  136.8170 C   0  0  0  0  0  0  0  0  0  0  0  0
  146.0370  157.5460  133.2880 C   0  0  0  0  0  0  0  0  0  0  0  0
  146.7190  156.3270  133.2340 C   0  0  0  0  0  0  0  0  0  0  0  0
  149.9304  153.0991  132.5495 H   0  0  0  0  0  0  0  0  0  0  0  0
  149.6805  157.5239  131.9520 H   0  0  0  0  0  0  0  0  0  0  0  0
  148.3863  159.6855  132.0393 H   0  0  0  0  0  0  0  0  0  0  0  0
  145.8210  160.7764  132.7130 H   0  0  0  0  0  0  0  0  0  0  0  0
  141.9620  158.2180  134.2770 H   0  0  0  0  0  0  0  0  0  0  0  0
  141.9381  154.6741  132.3641 H   0  0  0  0  0  0  0  0  0  0  0  0
  142.4998  154.0627  133.9597 H   0  0  0  0  0  0  0  0  0  0  0  0
  140.7820  158.1510  133.8260 H   0  0  0  0  0  0  0  0  0  0  0  0
  139.0727  159.2981  132.3946 H   0  0  0  0  0  0  0  0  0  0  0  0
  140.4932  158.5046  131.6335 H   0  0  0  0  0  0  0  0  0  0  0  0
  138.8972  157.6805  131.6335 H   0  0  0  0  0  0  0  0  0  0  0  0
  138.2702  158.7843  134.2487 H   0  0  0  0  0  0  0  0  0  0  0  0
  138.3162  156.9853  134.6338 H   0  0  0  0  0  0  0  0  0  0  0  0
  139.4412  159.2947  136.1341 H   0  0  0  0  0  0  0  0  0  0  0  0
  138.8264  157.6849  136.6947 H   0  0  0  0  0  0  0  0  0  0  0  0
  141.2370  157.6140  135.1340 H   0  0  0  0  0  0  0  0  0  0  0  0
  141.5498  158.5290  137.9001 H   0  0  0  0  0  0  0  0  0  0  0  0
  142.7305  158.5088  136.5466 H   0  0  0  0  0  0  0  0  0  0  0  0
  141.3845  159.6983  136.5466 H   0  0  0  0  0  0  0  0  0  0  0  0
  146.2366  155.3944  133.5619 H   0  0  0  0  0  0  0  0  0  0  0  0
  1  2  3  0
  2  3  1  0
  3  4  2  0
  4  5  1  0
  5  6  2  0
  6  7  1  0
  7  8  2  0
  8  9  1  0
  9 10  1  0
  9 11  2  0
  8 12  1  0
 12 13  1  0
 13 14  2  0
 13 15  1  0
 15 16  1  0
 16 17  1  0
 17 18  1  0
 18 19  2  0
 18 20  1  0
 20 21  1  0
 20 22  1  0
 22 23  1  0
 23 24  1  0
 24 25  1  0
 12 26  1  0
 26 27  2  0
 27  3  1  0
 26  6  1  0
  1 28  1  0
  4 29  1  0
  5 30  1  0
  7 31  1  0
 10 32  1  0
 16 33  1  0
 16 34  1  0
 20 35  1  1
 21 36  1  0
 21 37  1  0
 21 38  1  0
 22 39  1  0
 22 40  1  0
 23 41  1  0
 23 42  1  0
 24 43  1  0
 25 44  1  0
 25 45  1  0
 25 46  1  0
 27 47  1  0
M  CHG  2  10  -1  20   1
M  END
>  <UniqueID>  (15) 
15

>  <SMILES>  (15) 
C#Cc1ccc2cc(C([NH-])=O)n(C(=O)OCOC(=O)[N@@H+](C)CCNC)c2c1

>  <Energy>  (15) 
83.85704189358547

>  <Genealogy>  (15) 
C#Cc1ccc2cc(C([NH-])=O)n(C(=O)OCOC(=O)[NH+](C)CCNC)c2c1 (protonated)
C#Cc1ccc2cc(C([NH-])=O)n(C(=O)OCOC(=O)[N@@H+](C)CCNC)c2c1 (chirality)
C#Cc1ccc2cc(C([NH-])=O)n(C(=O)OCOC(=O)[N@@H+](C)CCNC)c2c1 (3D coordinates assigned)
C#Cc1ccc2cc(C([NH-])=O)n(C(=O)OCOC(=O)[N@@H+](C)CCNC)c2c1 (optimized conformer: 83.85704189358547 kcal/mol)

>  <smiles>  (15) 
C#Cc1ccc2cc(C(N)=O)n(C(=O)OCOC(=O)N(C)CCNC)c2c1

>  <score_type>  (15) 
oracle

>  <origin>  (15) 
adg

>  <m_score__min__energy>  (15) 
-5.4199999999999999

>  <m_primary>  (15) 
energy

$$$$
15:0
     RDKit          3D

 44 45  0  0  0  0  0  0  0  0999 V2000
  149.1900  157.4790  132.4580 C   0  0  0  0  0  0  0  0  0  0  0  0
  148.0600  158.3920  132.8260 C   0  0  0  0  0  0  0  0  0  0  0  0
  148.3000  159.7700  133.0450 C   0  0  0  0  0  0  0  0  0  0  0  0
  147.2390  160.6420  133.3400 C   0  0  0  0  0  0  0  0  0  0  0  0
  145.9530  160.1120  133.3930 C   0  0  0  0  0  0  0  0  0  0  0  0
  144.7390  160.7330  133.5930 C   0  0  0  0  0  0  0  0  0  0  0  0
  143.7790  159.7250  133.4820 C   0  0  0  0  0  0  0  0  0  0  0  0
  142.3170  159.9320  133.6200 C   0  0  0  0  0  0  0  0  0  0  0  0
  141.3860  159.0920  132.9460 N   0  0  0  0  0  0  0  0  0  0  0  0
  141.8770  160.8700  134.3290 O   0  0  0  0  0  0  0  0  0  0  0  0
  144.3850  158.5270  133.2380 N   0  0  0  0  0  0  0  0  0  0  0  0
  143.7560  157.2620  132.9850 C   0  0  0  0  0  0  0  0  0  0  0  0
  143.2320  157.0560  131.8560 O   0  0  0  0  0  0  0  0  0  0  0  0
  143.7280  156.2300  133.9960 N   0  0  0  0  0  0  0  0  0  0  0  0
  142.6180  156.1590  134.9640 C   0  0  0  0  0  0  0  0  0  0  0  0
  141.3250  155.7150  134.2800 C   0  0  0  0  0  0  0  0  0  0  0  0
  141.1540  156.4120  133.0800 O   0  0  0  0  0  0  0  0  0  0  0  0
  144.8160  155.2490  134.0650 C   0  0  0  0  0  0  0  0  0  0  0  0
  145.1820  154.7320  132.6580 C   0  0  0  0  0  0  0  0  0  0  0  0
  144.1640  153.7170  132.1300 C   0  0  0  0  0  0  0  0  0  0  0  0
  142.8570  154.1320  132.4340 O   0  0  0  0  0  0  0  0  0  0  0  0
  145.7080  158.7820  133.1760 C   0  0  0  0  0  0  0  0  0  0  0  0
  146.7430  157.8890  132.8800 C   0  0  0  0  0  0  0  0  0  0  0  0
  149.6646  157.0956  133.3733 H   0  0  0  0  0  0  0  0  0  0  0  0
  148.8030  156.6370  131.8653 H   0  0  0  0  0  0  0  0  0  0  0  0
  149.9319  158.0343  131.8653 H   0  0  0  0  0  0  0  0  0  0  0  0
  149.3263  160.1612  132.9836 H   0  0  0  0  0  0  0  0  0  0  0  0
  147.4190  161.7115  133.5236 H   0  0  0  0  0  0  0  0  0  0  0  0
  144.5631  161.7995  133.7973 H   0  0  0  0  0  0  0  0  0  0  0  0
  140.3620  159.2260  133.0900 H   0  0  0  0  0  0  0  0  0  0  0  0
  141.6880  158.3840  132.2460 H   0  0  0  0  0  0  0  0  0  0  0  0
  142.8741  155.4369  135.7533 H   0  0  0  0  0  0  0  0  0  0  0  0
  142.4623  157.1594  135.3941 H   0  0  0  0  0  0  0  0  0  0  0  0
  141.3758  154.6363  134.0705 H   0  0  0  0  0  0  0  0  0  0  0  0
  140.4744  155.9268  134.9445 H   0  0  0  0  0  0  0  0  0  0  0  0
  141.6790  155.9250  132.3900 H   0  0  0  0  0  0  0  0  0  0  0  0
  145.7003  155.7232  134.5157 H   0  0  0  0  0  0  0  0  0  0  0  0
  144.4828  154.3974  134.6764 H   0  0  0  0  0  0  0  0  0  0  0  0
  145.2215  155.5863  131.9662 H   0  0  0  0  0  0  0  0  0  0  0  0
  146.1566  154.2268  132.7276 H   0  0  0  0  0  0  0  0  0  0  0  0
  144.2720  153.6292  131.0388 H   0  0  0  0  0  0  0  0  0  0  0  0
  144.3497  152.7435  132.6074 H   0  0  0  0  0  0  0  0  0  0  0  0
  142.8080  155.1080  132.2390 H   0  0  0  0  0  0  0  0  0  0  0  0
  146.5360  156.8247  132.6946 H   0  0  0  0  0  0  0  0  0  0  0  0
  1  2  1  0
  2  3  2  0
  3  4  1  0
  4  5  2  0
  5  6  1  0
  6  7  2  0
  7  8  1  0
  8  9  1  0
  8 10  2  0
  7 11  1  0
 11 12  1  0
 12 13  2  0
 12 14  1  0
 14 15  1  0
 15 16  1  0
 16 17  1  0
 14 18  1  0
 18 19  1  0
 19 20  1  0
 20 21  1  0
 11 22  1  0
 22 23  2  0
 23  2  1  0
 22  5  1  0
  1 24  1  0
  1 25  1  0
  1 26  1  0
  3 27  1  0
  4 28  1  0
  6 29  1  0
  9 30  1  0
  9 31  1  0
 15 32  1  0
 15 33  1  0
 16 34  1  0
 16 35  1  0
 17 36  1  0
 18 37  1  0
 18 38  1  0
 19 39  1  0
 19 40  1  0
 20 41  1  0
 20 42  1  0
 21 43  1  0
 23 44  1  0
M  END
>  <UniqueID>  (16) 
16

>  <SMILES>  (16) 
Cc1ccc2cc(C(N)=O)n(C(=O)N(CCO)CCCO)c2c1

>  <Energy>  (16) 
77.48872939218083

>  <Genealogy>  (16) 
Cc1ccc2cc(C(N)=O)n(C(=O)N(CCO)CCCO)c2c1 (3D coordinates assigned)
Cc1ccc2cc(C(N)=O)n(C(=O)N(CCO)CCCO)c2c1 (optimized conformer: 77.48872939218083 kcal/mol)

>  <smiles>  (16) 
Cc1ccc2cc(C(N)=O)n(C(=O)N(CCO)CCCO)c2c1

>  <score_type>  (16) 
oracle

>  <origin>  (16) 
adg

>  <m_score__min__energy>  (16) 
-5.4299999999999997

>  <m_primary>  (16) 
energy

$$$$
16:0
     RDKit          3D

 42 43  0  0  0  0  0  0  0  0999 V2000
  140.6860  159.2910  136.2720 C   0  0  0  0  0  0  0  0  0  0  0  0
  140.4820  158.1130  135.3650 C   0  0  0  0  0  0  0  0  0  0  0  0
  139.6600  158.2280  134.2160 C   0  0  0  0  0  0  0  0  0  0  0  0
  139.4850  157.1350  133.3490 C   0  0  0  0  0  0  0  0  0  0  0  0
  140.1600  155.9530  133.6450 C   0  0  0  0  0  0  0  0  0  0  0  0
  140.1580  154.7410  132.9910 C   0  0  0  0  0  0  0  0  0  0  0  0
  141.0030  153.9160  133.7330 C   0  0  0  0  0  0  0  0  0  0  0  0
  141.3310  152.5230  133.3570 C   0  0  0  0  0  0  0  0  0  0  0  0
  142.4660  151.8820  133.9330 N   0  0  0  0  0  0  0  0  0  0  0  0
  140.6090  151.8830  132.5480 O   0  0  0  0  0  0  0  0  0  0  0  0
  141.5110  154.5950  134.8010 N   0  0  0  0  0  0  0  0  0  0  0  0
  142.3730  154.0930  135.8350 C   0  0  0  0  0  0  0  0  0  0  0  0
  143.5590  153.7750  135.5520 O   0  0  0  0  0  0  0  0  0  0  0  0
  141.8730  153.9170  137.2110 C   0  0  0  0  0  0  0  0  0  0  0  0
  140.9830  154.6880  137.6630 O   0  0  0  0  0  0  0  0  0  0  0  0
  142.3690  152.8520  138.0410 N   0  0  0  0  0  0  0  0  0  0  0  0
  143.8200  152.8300  138.2690 C   0  0  0  0  0  0  0  0  0  0  0  0
  141.4700  151.8350  138.6550 C   0  0  0  0  0  0  0  0  0  0  0  0
  140.5720  152.5080  139.7220 C   0  0  0  0  0  0  0  0  0  0  0  0
  142.2770  150.7130  139.3580 C   0  0  0  0  0  0  0  0  0  0  0  0
  140.5910  151.2030  137.5910 C   0  0  0  0  0  0  0  0  0  0  0  0
  139.4900  150.6720  137.9070 O   0  0  0  0  0  0  0  0  0  0  0  0
  140.9850  151.1940  136.2560 O   0  0  0  0  0  0  0  0  0  0  0  0
  140.9820  155.8370  134.7370 C   0  0  0  0  0  0  0  0  0  0  0  0
  141.1570  156.9010  135.6290 C   0  0  0  0  0  0  0  0  0  0  0  0
  140.6289  158.9612  137.3198 H   0  0  0  0  0  0  0  0  0  0  0  0
  141.6743  159.7344  136.0805 H   0  0  0  0  0  0  0  0  0  0  0  0
  139.9044  160.0409  136.0805 H   0  0  0  0  0  0  0  0  0  0  0  0
  139.1545  159.1809  134.0007 H   0  0  0  0  0  0  0  0  0  0  0  0
  138.8353  157.2109  132.4646 H   0  0  0  0  0  0  0  0  0  0  0  0
  139.6062  154.4789  132.0762 H   0  0  0  0  0  0  0  0  0  0  0  0
  142.6250  151.8930  134.9680 H   0  0  0  0  0  0  0  0  0  0  0  0
  144.0212  152.8270  139.3504 H   0  0  0  0  0  0  0  0  0  0  0  0
  144.2490  151.9252  137.8136 H   0  0  0  0  0  0  0  0  0  0  0  0
  144.2763  153.7213  137.8136 H   0  0  0  0  0  0  0  0  0  0  0  0
  140.9312  152.2388  140.7262 H   0  0  0  0  0  0  0  0  0  0  0  0
  140.6121  153.6003  139.5989 H   0  0  0  0  0  0  0  0  0  0  0  0
  139.5348  152.1629  139.5989 H   0  0  0  0  0  0  0  0  0  0  0  0
  142.1933  150.8294  140.4486 H   0  0  0  0  0  0  0  0  0  0  0  0
  141.8760  149.7324  139.0621 H   0  0  0  0  0  0  0  0  0  0  0  0
  143.3342  150.7812  139.0621 H   0  0  0  0  0  0  0  0  0  0  0  0
  141.8035  156.7960  136.5128 H   0  0  0  0  0  0  0  0  0  0  0  0
  1  2  1  0
  2  3  2  0
  3  4  1  0
  4  5  2  0
  5  6  1  0
  6  7  2  0
  7  8  1  0
  8  9  1  0
  8 10  2  0
  7 11  1  0
 11 12  1  0
 12 13  2  0
 12 14  1  0
 14 15  2  0
 14 16  1  0
 16 17  1  0
 16 18  1  0
 18 19  1  0
 18 20  1  0
 18 21  1  0
 21 22  2  0
 21 23  1  0
 11 24  1  0
 24 25  2  0
 25  2  1  0
 24  5  1  0
  1 26  1  0
  1 27  1  0
  1 28  1  0
  3 29  1  0
  4 30  1  0
  6 31  1  0
  9 32  1  0
 17 33  1  0
 17 34  1  0
 17 35  1  0
 19 36  1  0
 19 37  1  0
 19 38  1  0
 20 39  1  0
 20 40  1  0
 20 41  1  0
 25 42  1  0
M  CHG  2   9  -1  23  -1
M  END
>  <UniqueID>  (17) 
17

>  <SMILES>  (17) 
Cc1ccc2cc(C([NH-])=O)n(C(=O)C(=O)N(C)C(C)(C)C(=O)[O-])c2c1

>  <Energy>  (17) 
87.72540868927322

>  <Genealogy>  (17) 
Cc1ccc2cc(C([NH-])=O)n(C(=O)C(=O)N(C)C(C)(C)C(=O)[O-])c2c1 (protonated)
Cc1ccc2cc(C([NH-])=O)n(C(=O)C(=O)N(C)C(C)(C)C(=O)[O-])c2c1 (3D coordinates assigned)
Cc1ccc2cc(C([NH-])=O)n(C(=O)C(=O)N(C)C(C)(C)C(=O)[O-])c2c1 (optimized conformer: 87.72540868927322 kcal/mol)

>  <smiles>  (17) 
Cc1ccc2cc(C(N)=O)n(C(=O)C(=O)N(C)C(C)(C)C(=O)O)c2c1

>  <score_type>  (17) 
oracle

>  <origin>  (17) 
adg

>  <m_score__min__energy>  (17) 
-6.9699999999999998

>  <m_primary>  (17) 
energy

$$$$
17:0
     RDKit          3D

 38 40  0  0  0  0  0  0  0  0999 V2000
  144.7930  153.7360  137.0060 N   0  0  0  0  0  0  0  0  0  0  0  0
  144.4210  154.1810  135.7010 C   0  0  0  0  0  0  0  0  0  0  0  0
  143.4150  153.6670  135.1430 O   0  0  0  0  0  0  0  0  0  0  0  0
  145.1810  155.2540  135.0230 C   0  0  0  0  0  0  0  0  0  0  0  0
  144.6070  156.4330  134.5480 C   0  0  0  0  0  0  0  0  0  0  0  0
  145.6240  157.1020  133.9070 C   0  0  0  0  0  0  0  0  0  0  0  0
  145.6150  158.3300  133.2580 C   0  0  0  0  0  0  0  0  0  0  0  0
  146.8190  158.7910  132.7020 C   0  0  0  0  0  0  0  0  0  0  0  0
  148.0110  158.0310  132.8060 C   0  0  0  0  0  0  0  0  0  0  0  0
  149.2690  158.6150  132.1840 C   0  0  0  0  0  0  0  0  0  0  0  0
  149.1920  159.0400  130.7240 C   0  0  0  0  0  0  0  0  0  0  0  0
  149.2500  160.0930  131.8230 C   0  0  0  0  0  0  0  0  0  0  0  0
  147.9770  156.7810  133.4790 C   0  0  0  0  0  0  0  0  0  0  0  0
  146.7570  156.3370  134.0050 C   0  0  0  0  0  0  0  0  0  0  0  0
  146.5010  155.1990  134.6880 N   0  0  0  0  0  0  0  0  0  0  0  0
  147.4510  154.1780  135.0310 C   0  0  0  0  0  0  0  0  0  0  0  0
  148.2680  153.7630  134.1640 O   0  0  0  0  0  0  0  0  0  0  0  0
  147.4500  153.6330  136.3210 O   0  0  0  0  0  0  0  0  0  0  0  0
  148.6160  153.5220  137.1350 C   0  0  0  0  0  0  0  0  0  0  0  0
  148.3290  152.6890  138.3880 C   0  0  0  0  0  0  0  0  0  0  0  0
  149.3470  152.8760  139.3080 F   0  0  0  0  0  0  0  0  0  0  0  0
  148.2720  151.3450  138.0620 F   0  0  0  0  0  0  0  0  0  0  0  0
  147.0260  153.1080  138.9990 C   0  0  0  0  0  0  0  0  0  0  0  0
  146.9770  154.1070  139.7650 O   0  0  0  0  0  0  0  0  0  0  0  0
  145.8770  152.3600  138.7740 O   0  0  0  0  0  0  0  0  0  0  0  0
  145.6510  154.0960  137.4790 H   0  0  0  0  0  0  0  0  0  0  0  0
  144.2260  153.0050  137.4920 H   0  0  0  0  0  0  0  0  0  0  0  0
  143.5626  156.7589  134.6618 H   0  0  0  0  0  0  0  0  0  0  0  0
  144.6921  158.9237  133.1819 H   0  0  0  0  0  0  0  0  0  0  0  0
  146.8376  159.7576  132.1772 H   0  0  0  0  0  0  0  0  0  0  0  0
  149.9351  157.9671  132.7726 H   0  0  0  0  0  0  0  0  0  0  0  0
  150.0564  158.8889  130.0607 H   0  0  0  0  0  0  0  0  0  0  0  0
  148.5120  158.8263  129.8862 H   0  0  0  0  0  0  0  0  0  0  0  0
  150.1563  160.7027  131.9533 H   0  0  0  0  0  0  0  0  0  0  0  0
  148.6290  160.9552  132.1076 H   0  0  0  0  0  0  0  0  0  0  0  0
  148.8887  156.1747  133.5849 H   0  0  0  0  0  0  0  0  0  0  0  0
  149.4154  153.0373  136.5553 H   0  0  0  0  0  0  0  0  0  0  0  0
  148.9254  154.5307  137.4461 H   0  0  0  0  0  0  0  0  0  0  0  0
  1  2  1  0
  2  3  2  0
  2  4  1  0
  4  5  2  0
  5  6  1  0
  6  7  2  0
  7  8  1  0
  8  9  2  0
  9 10  1  0
 10 11  1  0
 11 12  1  0
  9 13  1  0
 13 14  2  0
 14 15  1  0
 15 16  1  0
 16 17  2  0
 16 18  1  0
 18 19  1  0
 19 20  1  0
 20 21  1  0
 20 22  1  0
 20 23  1  0
 23 24  2  0
 23 25  1  0
 15  4  1  0
 14  6  1  0
 12 10  1  0
  1 26  1  0
  1 27  1  0
  5 28  1  0
  7 29  1  0
  8 30  1  0
 10 31  1  0
 11 32  1  0
 11 33  1  0
 12 34  1  0
 12 35  1  0
 13 36  1  0
 19 37  1  0
 19 38  1  0
M  CHG  1  25  -1
M  END
>  <UniqueID>  (18) 
18

>  <SMILES>  (18) 
NC(=O)c1cc2ccc(C3CC3)cc2n1C(=O)OCC(F)(F)C(=O)[O-]

>  <Energy>  (18) 
342.1191968112175

>  <Genealogy>  (18) 
NC(=O)c1cc2ccc(C3CC3)cc2n1C(=O)OCC(F)(F)C(=O)[O-] (protonated)
NC(=O)c1cc2ccc(C3CC3)cc2n1C(=O)OCC(F)(F)C(=O)[O-] (3D coordinates assigned)
NC(=O)c1cc2ccc(C3CC3)cc2n1C(=O)OCC(F)(F)C(=O)[O-] (nonaromatic ring conformer: 342.1191968112175 kcal/mol)

>  <smiles>  (18) 
NC(=O)c1cc2ccc(C3CC3)cc2n1C(=O)OCC(F)(F)C(=O)O

>  <score_type>  (18) 
oracle

>  <origin>  (18) 
adg

>  <m_score__min__energy>  (18) 
-7.2800000000000002

>  <m_primary>  (18) 
energy

$$$$
18:0
     RDKit          3D

 40 41  0  0  0  0  0  0  0  0999 V2000
  147.7070  155.0250  132.6000 C   0  0  0  0  0  0  0  0  0  0  0  0
  147.6090  156.4910  132.9020 C   0  0  0  0  0  0  0  0  0  0  0  0
  148.7770  157.2920  132.9140 C   0  0  0  0  0  0  0  0  0  0  0  0
  148.6940  158.6750  133.1450 C   0  0  0  0  0  0  0  0  0  0  0  0
  147.4340  159.2270  133.3560 C   0  0  0  0  0  0  0  0  0  0  0  0
  147.0650  160.5340  133.5760 C   0  0  0  0  0  0  0  0  0  0  0  0
  145.6770  160.5110  133.7020 C   0  0  0  0  0  0  0  0  0  0  0  0
  144.8730  161.7060  134.0330 C   0  0  0  0  0  0  0  0  0  0  0  0
  143.4810  161.7320  133.7250 N   0  0  0  0  0  0  0  0  0  0  0  0
  145.4070  162.7200  134.5550 O   0  0  0  0  0  0  0  0  0  0  0  0
  145.2050  159.2410  133.5570 N   0  0  0  0  0  0  0  0  0  0  0  0
  143.8390  158.7980  133.5610 C   0  0  0  0  0  0  0  0  0  0  0  0
  143.4050  158.0930  132.6090 O   0  0  0  0  0  0  0  0  0  0  0  0
  143.0110  159.1350  134.6410 O   0  0  0  0  0  0  0  0  0  0  0  0
  141.6720  158.7470  134.7810 C   0  0  0  0  0  0  0  0  0  0  0  0
  141.2880  158.0750  135.7770 O   0  0  0  0  0  0  0  0  0  0  0  0
  140.6750  159.1870  133.7410 C   0  0  1  0  0  0  0  0  0  0  0  0
  141.3580  159.7300  132.5640 N   0  0  0  0  0  0  0  0  0  0  0  0
  139.7560  158.0100  133.3540 C   0  0  0  0  0  0  0  0  0  0  0  0
  138.4000  158.4610  132.7870 C   0  0  0  0  0  0  0  0  0  0  0  0
  138.5340  159.1180  131.4480 C   0  0  0  0  0  0  0  0  0  0  0  0
  139.5700  158.9400  130.7540 O   0  0  0  0  0  0  0  0  0  0  0  0
  137.5200  159.9410  130.9720 O   0  0  0  0  0  0  0  0  0  0  0  0
  146.2930  158.4650  133.3500 C   0  0  0  0  0  0  0  0  0  0  0  0
  146.3440  157.0880  133.1020 C   0  0  0  0  0  0  0  0  0  0  0  0
  147.7449  154.4583  133.5420 H   0  0  0  0  0  0  0  0  0  0  0  0
  146.8278  154.7109  132.0183 H   0  0  0  0  0  0  0  0  0  0  0  0
  148.6201  154.8307  132.0183 H   0  0  0  0  0  0  0  0  0  0  0  0
  149.7585  156.8266  132.7408 H   0  0  0  0  0  0  0  0  0  0  0  0
  149.5973  159.3026  133.1587 H   0  0  0  0  0  0  0  0  0  0  0  0
  147.7255  161.4114  133.6391 H   0  0  0  0  0  0  0  0  0  0  0  0
  142.9910  160.8760  133.3790 H   0  0  0  0  0  0  0  0  0  0  0  0
  140.0523  159.9877  134.1666 H   0  0  0  0  0  0  0  0  0  0  0  0
  142.3180  160.0380  132.8430 H   0  0  0  0  0  0  0  0  0  0  0  0
  141.4640  158.9810  131.8390 H   0  0  0  0  0  0  0  0  0  0  0  0
  140.2681  157.4021  132.5936 H   0  0  0  0  0  0  0  0  0  0  0  0
  139.5527  157.4387  134.2718 H   0  0  0  0  0  0  0  0  0  0  0  0
  137.7486  157.5805  132.6854 H   0  0  0  0  0  0  0  0  0  0  0  0
  137.9730  159.1985  133.4825 H   0  0  0  0  0  0  0  0  0  0  0  0
  145.4236  156.4868  133.0639 H   0  0  0  0  0  0  0  0  0  0  0  0
  1  2  1  0
  2  3  2  0
  3  4  1  0
  4  5  2  0
  5  6  1  0
  6  7  2  0
  7  8  1  0
  8  9  1  0
  8 10  2  0
  7 11  1  0
 11 12  1  0
 12 13  2  0
 12 14  1  0
 14 15  1  0
 15 16  2  0
 15 17  1  0
 17 18  1  0
 17 19  1  0
 19 20  1  0
 20 21  1  0
 21 22  2  0
 21 23  1  0
 11 24  1  0
 24 25  2  0
 25  2  1  0
 24  5  1  0
  1 26  1  0
  1 27  1  0
  1 28  1  0
  3 29  1  0
  4 30  1  0
  6 31  1  0
  9 32  1  0
 17 33  1  1
 18 34  1  0
 18 35  1  0
 19 36  1  0
 19 37  1  0
 20 38  1  0
 20 39  1  0
 25 40  1  0
M  CHG  2   9  -1  23  -1
M  END
>  <UniqueID>  (19) 
19

>  <SMILES>  (19) 
Cc1ccc2cc(C([NH-])=O)n(C(=O)OC(=O)[C@@H](N)CCC(=O)[O-])c2c1

>  <Energy>  (19) 
74.86049028474599

>  <Genealogy>  (19) 
Cc1ccc2cc(C([NH-])=O)n(C(=O)OC(=O)C(N)CCC(=O)[O-])c2c1 (protonated)
Cc1ccc2cc(C([NH-])=O)n(C(=O)OC(=O)[C@@H](N)CCC(=O)[O-])c2c1 (chirality)
Cc1ccc2cc(C([NH-])=O)n(C(=O)OC(=O)[C@@H](N)CCC(=O)[O-])c2c1 (3D coordinates assigned)
Cc1ccc2cc(C([NH-])=O)n(C(=O)OC(=O)[C@@H](N)CCC(=O)[O-])c2c1 (optimized conformer: 74.86049028474599 kcal/mol)

>  <smiles>  (19) 
Cc1ccc2cc(C(N)=O)n(C(=O)OC(=O)C(N)CCC(=O)O)c2c1

>  <score_type>  (19) 
oracle

>  <origin>  (19) 
adg

>  <m_score__min__energy>  (19) 
-7

>  <m_primary>  (19) 
energy

$$$$
19:0
     RDKit          3D

 42 43  0  0  0  0  0  0  0  0999 V2000
  149.3390  162.1110  130.3410 C   0  0  0  0  0  0  0  0  0  0  0  0
  149.2020  160.6440  130.3310 N   0  0  0  0  0  0  0  0  0  0  0  0
  150.0120  160.0820  129.2390 C   0  0  0  0  0  0  0  0  0  0  0  0
  149.6070  160.0570  131.6280 C   0  0  0  0  0  0  0  0  0  0  0  0
  149.2100  158.5740  131.7300 C   0  0  0  0  0  0  0  0  0  0  0  0
  148.2790  158.2890  132.9120 C   0  0  0  0  0  0  0  0  0  0  0  0
  146.9920  158.8430  132.6610 O   0  0  0  0  0  0  0  0  0  0  0  0
  146.4890  159.9530  133.3400 C   0  0  0  0  0  0  0  0  0  0  0  0
  147.2600  160.8870  133.6900 O   0  0  0  0  0  0  0  0  0  0  0  0
  145.0800  160.0390  133.6130 N   0  0  0  0  0  0  0  0  0  0  0  0
  144.3450  161.1540  133.8900 C   0  0  0  0  0  0  0  0  0  0  0  0
  144.8790  162.5130  134.1200 C   0  0  0  0  0  0  0  0  0  0  0  0
  145.9050  162.7450  135.0800 N   0  0  0  0  0  0  0  0  0  0  0  0
  144.3810  163.4900  133.5010 O   0  0  0  0  0  0  0  0  0  0  0  0
  142.9990  160.8310  134.0330 C   0  0  0  0  0  0  0  0  0  0  0  0
  142.9290  159.4690  133.8500 C   0  0  0  0  0  0  0  0  0  0  0  0
  141.8310  158.6160  133.9020 C   0  0  0  0  0  0  0  0  0  0  0  0
  142.0480  157.2480  133.6690 C   0  0  0  0  0  0  0  0  0  0  0  0
  143.3450  156.7600  133.3660 C   0  0  0  0  0  0  0  0  0  0  0  0
  143.5610  155.2820  133.1590 C   0  0  0  0  0  0  0  0  0  0  0  0
  144.3170  154.7820  134.2020 F   0  0  0  0  0  0  0  0  0  0  0  0
  142.3470  154.6190  133.1240 F   0  0  0  0  0  0  0  0  0  0  0  0
  144.2220  155.0390  131.9670 F   0  0  0  0  0  0  0  0  0  0  0  0
  144.4380  157.6570  133.3420 C   0  0  0  0  0  0  0  0  0  0  0  0
  144.1970  159.0130  133.5970 C   0  0  0  0  0  0  0  0  0  0  0  0
  149.3724  162.4690  131.3806 H   0  0  0  0  0  0  0  0  0  0  0  0
  150.2677  162.3961  129.8250 H   0  0  0  0  0  0  0  0  0  0  0  0
  148.4792  162.5631  129.8250 H   0  0  0  0  0  0  0  0  0  0  0  0
  150.8463  159.5031  129.6618 H   0  0  0  0  0  0  0  0  0  0  0  0
  149.3857  159.4234  128.6194 H   0  0  0  0  0  0  0  0  0  0  0  0
  150.4096  160.8993  128.6194 H   0  0  0  0  0  0  0  0  0  0  0  0
  150.6987  160.1418  131.7323 H   0  0  0  0  0  0  0  0  0  0  0  0
  149.0907  160.6062  132.4292 H   0  0  0  0  0  0  0  0  0  0  0  0
  148.6980  158.2825  130.8011 H   0  0  0  0  0  0  0  0  0  0  0  0
  150.1316  157.9944  131.8870 H   0  0  0  0  0  0  0  0  0  0  0  0
  148.1872  157.2015  133.0497 H   0  0  0  0  0  0  0  0  0  0  0  0
  148.6982  158.7454  133.8208 H   0  0  0  0  0  0  0  0  0  0  0  0
  146.9120  162.6910  134.8140 H   0  0  0  0  0  0  0  0  0  0  0  0
  142.1674  161.5186  134.2469 H   0  0  0  0  0  0  0  0  0  0  0  0
  140.8238  159.0012  134.1189 H   0  0  0  0  0  0  0  0  0  0  0  0
  141.2022  156.5468  133.7221 H   0  0  0  0  0  0  0  0  0  0  0  0
  145.4553  157.2976  133.1277 H   0  0  0  0  0  0  0  0  0  0  0  0
  1  2  1  0
  2  3  1  0
  2  4  1  0
  4  5  1  0
  5  6  1  0
  6  7  1  0
  7  8  1  0
  8  9  2  0
  8 10  1  0
 10 11  1  0
 11 12  1  0
 12 13  1  0
 12 14  2  0
 11 15  2  0
 15 16  1  0
 16 17  2  0
 17 18  1  0
 18 19  2  0
 19 20  1  0
 20 21  1  0
 20 22  1  0
 20 23  1  0
 19 24  1  0
 24 25  2  0
 25 10  1  0
 25 16  1  0
  1 26  1  0
  1 27  1  0
  1 28  1  0
  3 29  1  0
  3 30  1  0
  3 31  1  0
  4 32  1  0
  4 33  1  0
  5 34  1  0
  5 35  1  0
  6 36  1  0
  6 37  1  0
 13 38  1  0
 15 39  1  0
 17 40  1  0
 18 41  1  0
 24 42  1  0
M  CHG  1  13  -1
M  END
>  <UniqueID>  (20) 
20

>  <SMILES>  (20) 
CN(C)CCCOC(=O)n1c(C([NH-])=O)cc2ccc(C(F)(F)F)cc21

>  <Energy>  (20) 
74.88282381660773

>  <Genealogy>  (20) 
CN(C)CCCOC(=O)n1c(C([NH-])=O)cc2ccc(C(F)(F)F)cc21 (protonated)
CN(C)CCCOC(=O)n1c(C([NH-])=O)cc2ccc(C(F)(F)F)cc21 (3D coordinates assigned)
CN(C)CCCOC(=O)n1c(C([NH-])=O)cc2ccc(C(F)(F)F)cc21 (optimized conformer: 74.88282381660773 kcal/mol)

>  <smiles>  (20) 
CN(C)CCCOC(=O)n1c(C(N)=O)cc2ccc(C(F)(F)F)cc21

>  <score_type>  (20) 
oracle

>  <origin>  (20) 
adg

>  <m_score__min__energy>  (20) 
-6.2699999999999996

>  <m_primary>  (20) 
energy

$$$$
20:0
     RDKit          3D

 47 51  0  0  0  0  0  0  0  0999 V2000
  140.8490  155.7770  133.4230 N   0  0  0  0  0  0  0  0  0  0  0  0
  141.4190  156.6170  134.4230 C   0  0  0  0  0  0  0  0  0  0  0  0
  140.8060  156.7830  135.5110 O   0  0  0  0  0  0  0  0  0  0  0  0
  142.7010  157.3160  134.1900 C   0  0  0  0  0  0  0  0  0  0  0  0
  142.7970  158.6690  133.8640 C   0  0  0  0  0  0  0  0  0  0  0  0
  144.1400  158.9040  133.6760 C   0  0  0  0  0  0  0  0  0  0  0  0
  144.8060  160.0750  133.3250 C   0  0  0  0  0  0  0  0  0  0  0  0
  146.2060  160.0260  133.2070 C   0  0  0  0  0  0  0  0  0  0  0  0
  146.9150  158.8210  133.4560 C   0  0  0  0  0  0  0  0  0  0  0  0
  148.4100  158.7710  133.2810 C   0  0  0  0  0  0  0  0  0  0  0  0
  149.0530  159.0130  134.4830 F   0  0  0  0  0  0  0  0  0  0  0  0
  148.7730  157.5200  132.8200 F   0  0  0  0  0  0  0  0  0  0  0  0
  148.8270  159.7260  132.3700 F   0  0  0  0  0  0  0  0  0  0  0  0
  146.1970  157.6480  133.7850 C   0  0  0  0  0  0  0  0  0  0  0  0
  144.8050  157.7260  133.8890 C   0  0  0  0  0  0  0  0  0  0  0  0
  143.9380  156.7460  134.2120 N   0  0  0  0  0  0  0  0  0  0  0  0
  144.2860  155.3920  134.5400 C   0  0  0  0  0  0  0  0  0  0  0  0
  145.2760  155.1800  135.2910 O   0  0  0  0  0  0  0  0  0  0  0  0
  143.4780  154.2520  134.0410 C   0  0  0  0  0  0  0  0  0  0  0  0
  142.8660  153.3650  134.9360 C   0  0  0  0  0  0  0  0  0  0  0  0
  142.1130  152.2940  134.4590 C   0  0  0  0  0  0  0  0  0  0  0  0
  141.9620  152.1040  133.0730 C   0  0  0  0  0  0  0  0  0  0  0  0
  141.1860  150.9960  132.5600 N   0  0  0  0  0  0  0  0  0  0  0  0
  141.7170  149.6520  132.3680 C   0  0  0  0  0  0  0  0  0  0  0  0
  140.5750  148.8120  131.8130 C   0  0  2  0  0  0  0  0  0  0  0  0
  140.0510  149.2110  130.4400 C   0  0  0  0  0  0  0  0  0  0  0  0
  139.3630  149.7180  131.6990 C   0  0  2  0  0  0  0  0  0  0  0  0
  139.7830  151.0980  132.1870 C   0  0  0  0  0  0  0  0  0  0  0  0
  142.5610  152.9870  132.2180 N   0  0  0  0  0  0  0  0  0  0  0  0
  143.3010  154.0390  132.6660 C   0  0  0  0  0  0  0  0  0  0  0  0
  141.3700  155.5560  132.5460 H   0  0  0  0  0  0  0  0  0  0  0  0
  141.9743  159.3939  133.7759 H   0  0  0  0  0  0  0  0  0  0  0  0
  144.2540  161.0094  133.1456 H   0  0  0  0  0  0  0  0  0  0  0  0
  146.7590  160.9320  132.9183 H   0  0  0  0  0  0  0  0  0  0  0  0
  146.7216  156.6962  133.9552 H   0  0  0  0  0  0  0  0  0  0  0  0
  142.9803  153.5146  136.0198 H   0  0  0  0  0  0  0  0  0  0  0  0
  141.6371  151.5978  135.1652 H   0  0  0  0  0  0  0  0  0  0  0  0
  142.0615  149.2387  133.3274 H   0  0  0  0  0  0  0  0  0  0  0  0
  142.5768  149.6579  131.6819 H   0  0  0  0  0  0  0  0  0  0  0  0
  140.8471  147.8343  132.2373 H   0  0  0  0  0  0  0  0  0  0  0  0
  139.5531  148.4654  129.8027 H   0  0  0  0  0  0  0  0  0  0  0  0
  140.4867  149.6824  129.5467 H   0  0  0  0  0  0  0  0  0  0  0  0
  138.3047  149.7346  131.9984 H   0  0  0  0  0  0  0  0  0  0  0  0
  139.1790  151.3931  133.0577 H   0  0  0  0  0  0  0  0  0  0  0  0
  139.6336  151.8582  131.4061 H   0  0  0  0  0  0  0  0  0  0  0  0
  142.4630  152.8770  131.1850 H   0  0  0  0  0  0  0  0  0  0  0  0
  143.7637  154.7274  131.9434 H   0  0  0  0  0  0  0  0  0  0  0  0
  1  2  1  0
  2  3  2  0
  2  4  1  0
  4  5  2  0
  5  6  1  0
  6  7  2  0
  7  8  1  0
  8  9  2  0
  9 10  1  0
 10 11  1  0
 10 12  1  0
 10 13  1  0
  9 14  1  0
 14 15  2  0
 15 16  1  0
 16 17  1  0
 17 18  2  0
 17 19  1  0
 19 20  2  0
 20 21  1  0
 21 22  2  0
 22 23  1  0
 23 24  1  0
 24 25  1  0
 25 26  1  0
 26 27  1  0
 27 28  1  0
 22 29  1  0
 29 30  2  0
 16  4  1  0
 30 19  1  0
 15  6  1  0
 28 23  1  0
 27 25  1  0
  1 31  1  0
  5 32  1  0
  7 33  1  0
  8 34  1  0
 14 35  1  0
 20 36  1  0
 21 37  1  0
 24 38  1  0
 24 39  1  0
 25 40  1  6
 26 41  1  0
 26 42  1  0
 27 43  1  6
 28 44  1  0
 28 45  1  0
 29 46  1  0
 30 47  1  0
M  CHG  2   1  -1  29   1
M  END
>  <UniqueID>  (21) 
21

>  <SMILES>  (21) 
[NH-]C(=O)c1cc2ccc(C(F)(F)F)cc2n1C(=O)c1ccc(N2C[C@H]3C[C@H]3C2)[nH+]c1

>  <Energy>  (21) 
359.82391707114215

>  <Genealogy>  (21) 
[NH-]C(=O)c1cc2ccc(C(F)(F)F)cc2n1C(=O)c1ccc(N2CC3CC3C2)[nH+]c1 (protonated)
[NH-]C(=O)c1cc2ccc(C(F)(F)F)cc2n1C(=O)c1ccc(N2C[C@H]3C[C@H]3C2)[nH+]c1 (chirality)
[NH-]C(=O)c1cc2ccc(C(F)(F)F)cc2n1C(=O)c1ccc(N2C[C@H]3C[C@H]3C2)[nH+]c1 (3D coordinates assigned)
[NH-]C(=O)c1cc2ccc(C(F)(F)F)cc2n1C(=O)c1ccc(N2C[C@H]3C[C@H]3C2)[nH+]c1 (nonaromatic ring conformer: 359.82391707114215 kcal/mol)

>  <smiles>  (21) 
NC(=O)c1cc2ccc(C(F)(F)F)cc2n1C(=O)c1ccc(N2CC3CC3C2)nc1

>  <score_type>  (21) 
oracle

>  <origin>  (21) 
adg

>  <m_score__min__energy>  (21) 
-8.8100000000000005

>  <m_primary>  (21) 
energy

$$$$
21:0
     RDKit          3D

 43 45  0  0  0  0  0  0  0  0999 V2000
  145.3690  154.3190  132.6250 C   0  0  0  0  0  0  0  0  0  0  0  0
  144.6830  155.5530  133.1220 C   0  0  0  0  0  0  0  0  0  0  0  0
  143.4850  155.7670  132.7950 O   0  0  0  0  0  0  0  0  0  0  0  0
  145.4050  156.5350  133.9510 C   0  0  0  0  0  0  0  0  0  0  0  0
  146.1320  156.1370  134.9020 O   0  0  0  0  0  0  0  0  0  0  0  0
  145.3150  157.9410  133.6720 N   0  0  0  0  0  0  0  0  0  0  0  0
  146.3330  158.7860  133.3530 C   0  0  0  0  0  0  0  0  0  0  0  0
  147.7320  158.3900  133.0830 C   0  0  0  0  0  0  0  0  0  0  0  0
  148.4770  157.6100  134.0190 N   0  0  0  0  0  0  0  0  0  0  0  0
  148.2640  158.7100  131.9880 O   0  0  0  0  0  0  0  0  0  0  0  0
  145.8820  160.1020  133.3040 C   0  0  0  0  0  0  0  0  0  0  0  0
  144.5400  160.0380  133.6050 C   0  0  0  0  0  0  0  0  0  0  0  0
  143.6010  161.0560  133.7320 C   0  0  0  0  0  0  0  0  0  0  0  0
  142.2940  160.7040  134.1100 C   0  0  0  0  0  0  0  0  0  0  0  0
  141.9520  159.3500  134.3670 C   0  0  0  0  0  0  0  0  0  0  0  0
  140.6140  159.0000  134.7760 N   0  0  0  0  0  0  0  0  0  0  0  0
  140.3180  158.9450  136.2140 C   0  0  0  0  0  0  0  0  0  0  0  0
  139.6370  158.5880  133.7440 C   0  0  1  0  0  0  0  0  0  0  0  0
  140.2830  158.0430  132.4740 C   0  0  0  0  0  0  0  0  0  0  0  0
  139.5880  156.7010  132.7080 C   0  0  1  0  0  0  0  0  0  0  0  0
  140.4990  155.6650  132.9590 O   0  0  0  0  0  0  0  0  0  0  0  0
  138.9690  157.2360  133.9980 C   0  0  0  0  0  0  0  0  0  0  0  0
  142.9410  158.3470  134.2380 C   0  0  0  0  0  0  0  0  0  0  0  0
  144.2240  158.7240  133.8300 C   0  0  0  0  0  0  0  0  0  0  0  0
  145.7044  153.7157  133.4815 H   0  0  0  0  0  0  0  0  0  0  0  0
  144.6684  153.7308  132.0141 H   0  0  0  0  0  0  0  0  0  0  0  0
  146.2384  154.6036  132.0141 H   0  0  0  0  0  0  0  0  0  0  0  0
  148.0170  157.1630  134.8410 H   0  0  0  0  0  0  0  0  0  0  0  0
  149.4820  157.3920  133.8340 H   0  0  0  0  0  0  0  0  0  0  0  0
  146.4720  161.0014  133.0739 H   0  0  0  0  0  0  0  0  0  0  0  0
  143.8730  162.1048  133.5423 H   0  0  0  0  0  0  0  0  0  0  0  0
  141.5271  161.4864  134.2079 H   0  0  0  0  0  0  0  0  0  0  0  0
  141.2421  159.1167  136.7854 H   0  0  0  0  0  0  0  0  0  0  0  0
  139.5811  159.7216  136.4666 H   0  0  0  0  0  0  0  0  0  0  0  0
  139.9092  157.9555  136.4666 H   0  0  0  0  0  0  0  0  0  0  0  0
  139.0237  159.5007  133.7146 H   0  0  0  0  0  0  0  0  0  0  0  0
  141.3813  157.9943  132.5124 H   0  0  0  0  0  0  0  0  0  0  0  0
  140.1700  158.5727  131.5166 H   0  0  0  0  0  0  0  0  0  0  0  0
  138.9572  156.2597  131.9223 H   0  0  0  0  0  0  0  0  0  0  0  0
  141.3560  155.9530  132.5490 H   0  0  0  0  0  0  0  0  0  0  0  0
  139.3151  156.7263  134.9093 H   0  0  0  0  0  0  0  0  0  0  0  0
  137.8843  157.1699  134.1688 H   0  0  0  0  0  0  0  0  0  0  0  0
  142.7060  157.2943  134.4538 H   0  0  0  0  0  0  0  0  0  0  0  0
  1  2  1  0
  2  3  2  0
  2  4  1  0
  4  5  2  0
  4  6  1  0
  6  7  1  0
  7  8  1  0
  8  9  1  0
  8 10  2  0
  7 11  2  0
 11 12  1  0
 12 13  2  0
 13 14  1  0
 14 15  2  0
 15 16  1  0
 16 17  1  0
 16 18  1  0
 18 19  1  0
 19 20  1  0
 20 21  1  0
 20 22  1  0
 15 23  1  0
 23 24  2  0
 24  6  1  0
 24 12  1  0
 22 18  1  0
  1 25  1  0
  1 26  1  0
  1 27  1  0
  9 28  1  0
  9 29  1  0
 11 30  1  0
 13 31  1  0
 14 32  1  0
 17 33  1  0
 17 34  1  0
 17 35  1  0
 18 36  1  6
 19 37  1  0
 19 38  1  0
 20 39  1  6
 21 40  1  0
 22 41  1  0
 22 42  1  0
 23 43  1  0
M  END
>  <UniqueID>  (22) 
22

>  <SMILES>  (22) 
CC(=O)C(=O)n1c(C(N)=O)cc2ccc(N(C)C3CC(O)C3)cc21

>  <Energy>  (22) 
148.14806493585536

>  <Genealogy>  (22) 
CC(=O)C(=O)n1c(C(N)=O)cc2ccc(N(C)C3CC(O)C3)cc21 (3D coordinates assigned)
CC(=O)C(=O)n1c(C(N)=O)cc2ccc(N(C)C3CC(O)C3)cc21 (nonaromatic ring conformer: 148.14806493585536 kcal/mol)

>  <smiles>  (22) 
CC(=O)C(=O)n1c(C(N)=O)cc2ccc(N(C)C3CC(O)C3)cc21

>  <score_type>  (22) 
oracle

>  <origin>  (22) 
adg

>  <m_score__min__energy>  (22) 
-7.8600000000000003

>  <m_primary>  (22) 
energy

$$$$
22:0
     RDKit          3D

 55 56  0  0  0  0  0  0  0  0999 V2000
  141.3480  157.6610  137.0600 C   0  0  0  0  0  0  0  0  0  0  0  0
  141.1640  158.5500  136.1060 C   0  0  0  0  0  0  0  0  0  0  0  0
  140.5590  159.7690  136.4010 O   0  0  0  0  0  0  0  0  0  0  0  0
  141.5710  158.2960  134.7730 N   0  0  0  0  0  0  0  0  0  0  0  0
  140.6660  157.5590  133.8820 C   0  0  0  0  0  0  0  0  0  0  0  0
  142.8280  158.7470  134.3190 C   0  0  0  0  0  0  0  0  0  0  0  0
  143.0630  160.0930  134.1630 C   0  0  0  0  0  0  0  0  0  0  0  0
  144.3100  160.4640  133.7150 C   0  0  0  0  0  0  0  0  0  0  0  0
  145.2680  159.5200  133.4390 C   0  0  0  0  0  0  0  0  0  0  0  0
  146.5310  159.6680  132.9610 C   0  0  0  0  0  0  0  0  0  0  0  0
  147.1090  158.3860  132.8170 C   0  0  0  0  0  0  0  0  0  0  0  0
  148.4660  158.2750  132.3430 C   0  0  0  0  0  0  0  0  0  0  0  0
  149.3470  157.1820  132.4180 N   0  0  0  0  0  0  0  0  0  0  0  0
  148.9840  159.3150  131.7650 O   0  0  0  0  0  0  0  0  0  0  0  0
  146.1790  157.4620  133.2120 N   0  0  0  0  0  0  0  0  0  0  0  0
  146.3840  156.0900  133.0740 C   0  0  0  0  0  0  0  0  0  0  0  0
  146.6060  155.7690  131.8030 O   0  0  0  0  0  0  0  0  0  0  0  0
  146.4290  154.9840  133.8910 N   0  0  0  0  0  0  0  0  0  0  0  0
  145.4060  154.1450  134.4550 C   0  0  0  0  0  0  0  0  0  0  0  0
  147.8090  154.5210  134.2870 C   0  0  0  0  0  0  0  0  0  0  0  0
  148.5090  154.0290  133.0800 C   0  0  0  0  0  0  0  0  0  0  0  0
  149.4520  154.7210  132.5620 O   0  0  0  0  0  0  0  0  0  0  0  0
  148.1210  152.8280  132.5450 O   0  0  0  0  0  0  0  0  0  0  0  0
  148.8930  151.6450  132.6110 C   0  0  0  0  0  0  0  0  0  0  0  0
  147.9360  150.4810  132.4770 C   0  0  0  0  0  0  0  0  0  0  0  0
  149.8970  151.5690  131.4870 C   0  0  0  0  0  0  0  0  0  0  0  0
  149.5950  151.5110  133.9500 C   0  0  0  0  0  0  0  0  0  0  0  0
  145.0670  158.1570  133.5850 C   0  0  0  0  0  0  0  0  0  0  0  0
  143.8070  157.8160  134.0340 C   0  0  0  0  0  0  0  0  0  0  0  0
  141.8257  156.6974  136.8292 H   0  0  0  0  0  0  0  0  0  0  0  0
  141.0240  157.8820  138.0877 H   0  0  0  0  0  0  0  0  0  0  0  0
  139.7540  159.7590  136.9990 H   0  0  0  0  0  0  0  0  0  0  0  0
  139.9520  156.9776  134.4839 H   0  0  0  0  0  0  0  0  0  0  0  0
  140.1168  158.2701  133.2473 H   0  0  0  0  0  0  0  0  0  0  0  0
  141.2511  156.8772  133.2473 H   0  0  0  0  0  0  0  0  0  0  0  0
  142.2877  160.8406  134.3867 H   0  0  0  0  0  0  0  0  0  0  0  0
  144.5422  161.5302  133.5762 H   0  0  0  0  0  0  0  0  0  0  0  0
  147.0212  160.6242  132.7257 H   0  0  0  0  0  0  0  0  0  0  0  0
  149.8170  156.7330  131.6000 H   0  0  0  0  0  0  0  0  0  0  0  0
  149.6000  156.7430  133.3530 H   0  0  0  0  0  0  0  0  0  0  0  0
  145.4597  154.1890  135.5528 H   0  0  0  0  0  0  0  0  0  0  0  0
  144.4184  154.4966  134.1218 H   0  0  0  0  0  0  0  0  0  0  0  0
  145.5575  153.1077  134.1218 H   0  0  0  0  0  0  0  0  0  0  0  0
  148.3699  155.3604  134.7238 H   0  0  0  0  0  0  0  0  0  0  0  0
  147.7345  153.7148  135.0317 H   0  0  0  0  0  0  0  0  0  0  0  0
  147.6457  150.1279  133.4775 H   0  0  0  0  0  0  0  0  0  0  0  0
  147.0395  150.8048  131.9280 H   0  0  0  0  0  0  0  0  0  0  0  0
  148.4270  149.6640  131.9280 H   0  0  0  0  0  0  0  0  0  0  0  0
  150.9112  151.4922  131.9059 H   0  0  0  0  0  0  0  0  0  0  0  0
  149.6880  150.6841  130.8679 H   0  0  0  0  0  0  0  0  0  0  0  0
  149.8236  152.4753  130.8679 H   0  0  0  0  0  0  0  0  0  0  0  0
  148.8659  151.6502  134.7618 H   0  0  0  0  0  0  0  0  0  0  0  0
  150.0455  150.5106  134.0293 H   0  0  0  0  0  0  0  0  0  0  0  0
  150.3823  152.2751  134.0293 H   0  0  0  0  0  0  0  0  0  0  0  0
  143.5714  156.7504  134.1715 H   0  0  0  0  0  0  0  0  0  0  0  0
  1  2  2  0
  2  3  1  0
  2  4  1  0
  4  5  1  0
  4  6  1  0
  6  7  2  0
  7  8  1  0
  8  9  2  0
  9 10  1  0
 10 11  2  0
 11 12  1  0
 12 13  1  0
 12 14  2  0
 11 15  1  0
 15 16  1  0
 16 17  2  0
 16 18  1  0
 18 19  1  0
 18 20  1  0
 20 21  1  0
 21 22  2  0
 21 23  1  0
 23 24  1  0
 24 25  1  0
 24 26  1  0
 24 27  1  0
 15 28  1  0
 28 29  2  0
 29  6  1  0
 28  9  1  0
  1 30  1  0
  1 31  1  0
  3 32  1  0
  5 33  1  0
  5 34  1  0
  5 35  1  0
  7 36  1  0
  8 37  1  0
 10 38  1  0
 13 39  1  0
 13 40  1  0
 19 41  1  0
 19 42  1  0
 19 43  1  0
 20 44  1  0
 20 45  1  0
 25 46  1  0
 25 47  1  0
 25 48  1  0
 26 49  1  0
 26 50  1  0
 26 51  1  0
 27 52  1  0
 27 53  1  0
 27 54  1  0
 29 55  1  0
M  END
>  <smiles>  (23) 
C=C(O)N(C)c1ccc2cc(C(N)=O)n(C(=O)N(C)CC(=O)OC(C)(C)C)c2c1

>  <score_type>  (23) 
oracle

>  <origin>  (23) 
adg

>  <m_score__min__energy>  (23) 
-8

>  <m_primary>  (23) 
energy

$$$$
23:0
     RDKit          3D

 34 35  0  0  0  0  0  0  0  0999 V2000
  144.6720  154.1260  136.7350 N   0  0  0  0  0  0  0  0  0  0  0  0
  144.4050  154.5400  135.3930 C   0  0  0  0  0  0  0  0  0  0  0  0
  143.5090  153.9490  134.7320 O   0  0  0  0  0  0  0  0  0  0  0  0
  145.2010  155.6030  134.7480 C   0  0  0  0  0  0  0  0  0  0  0  0
  144.6560  156.8020  134.2960 C   0  0  0  0  0  0  0  0  0  0  0  0
  145.7040  157.4830  133.7220 C   0  0  0  0  0  0  0  0  0  0  0  0
  145.7350  158.7440  133.1320 C   0  0  0  0  0  0  0  0  0  0  0  0
  146.9690  159.2210  132.6610 C   0  0  0  0  0  0  0  0  0  0  0  0
  148.1440  158.4400  132.7970 C   0  0  0  0  0  0  0  0  0  0  0  0
  149.4660  158.9650  132.3130 C   0  0  0  0  0  0  0  0  0  0  0  0
  149.2630  159.8530  131.2720 F   0  0  0  0  0  0  0  0  0  0  0  0
  150.2490  157.9140  131.8700 F   0  0  0  0  0  0  0  0  0  0  0  0
  148.0750  157.1670  133.4040 C   0  0  0  0  0  0  0  0  0  0  0  0
  146.8280  156.7060  133.8440 C   0  0  0  0  0  0  0  0  0  0  0  0
  146.5350  155.5470  134.4740 N   0  0  0  0  0  0  0  0  0  0  0  0
  147.4680  154.5390  134.8950 C   0  0  0  0  0  0  0  0  0  0  0  0
  148.3970  154.1780  134.1220 O   0  0  0  0  0  0  0  0  0  0  0  0
  147.3400  153.9650  136.1660 O   0  0  0  0  0  0  0  0  0  0  0  0
  148.4250  153.8120  137.0810 C   0  0  0  0  0  0  0  0  0  0  0  0
  148.0660  152.8370  138.2080 C   0  0  0  0  0  0  0  0  0  0  0  0
  147.8210  151.5830  137.6700 F   0  0  0  0  0  0  0  0  0  0  0  0
  149.1400  152.7360  139.0750 F   0  0  0  0  0  0  0  0  0  0  0  0
  146.8670  153.3060  138.9770 C   0  0  0  0  0  0  0  0  0  0  0  0
  146.9990  154.1090  139.9390 O   0  0  0  0  0  0  0  0  0  0  0  0
  145.6040  152.8230  138.6580 O   0  0  0  0  0  0  0  0  0  0  0  0
  145.5100  154.4740  137.2500 H   0  0  0  0  0  0  0  0  0  0  0  0
  144.0710  153.4030  137.1890 H   0  0  0  0  0  0  0  0  0  0  0  0
  143.6106  157.1337  134.3801 H   0  0  0  0  0  0  0  0  0  0  0  0
  144.8206  159.3482  133.0377 H   0  0  0  0  0  0  0  0  0  0  0  0
  147.0242  160.2098  132.1821 H   0  0  0  0  0  0  0  0  0  0  0  0
  149.9743  159.4804  133.1413 H   0  0  0  0  0  0  0  0  0  0  0  0
  148.9788  156.5524  133.5283 H   0  0  0  0  0  0  0  0  0  0  0  0
  149.3006  153.4263  136.5382 H   0  0  0  0  0  0  0  0  0  0  0  0
  148.6462  154.7932  137.5264 H   0  0  0  0  0  0  0  0  0  0  0  0
  1  2  1  0
  2  3  2  0
  2  4  1  0
  4  5  2  0
  5  6  1  0
  6  7  2  0
  7  8  1  0
  8  9  2  0
  9 10  1  0
 10 11  1  0
 10 12  1  0
  9 13  1  0
 13 14  2  0
 14 15  1  0
 15 16  1  0
 16 17  2  0
 16 18  1  0
 18 19  1  0
 19 20  1  0
 20 21  1  0
 20 22  1  0
 20 23  1  0
 23 24  2  0
 23 25  1  0
 15  4  1  0
 14  6  1  0
  1 26  1  0
  1 27  1  0
  5 28  1  0
  7 29  1  0
  8 30  1  0
 10 31  1  0
 13 32  1  0
 19 33  1  0
 19 34  1  0
M  CHG  1  25  -1
M  END
>  <UniqueID>  (24) 
23

>  <SMILES>  (24) 
NC(=O)c1cc2ccc(C(F)F)cc2n1C(=O)OCC(F)(F)C(=O)[O-]

>  <Energy>  (24) 
70.23912308828811

>  <Genealogy>  (24) 
NC(=O)c1cc2ccc(C(F)F)cc2n1C(=O)OCC(F)(F)C(=O)[O-] (protonated)
NC(=O)c1cc2ccc(C(F)F)cc2n1C(=O)OCC(F)(F)C(=O)[O-] (3D coordinates assigned)
NC(=O)c1cc2ccc(C(F)F)cc2n1C(=O)OCC(F)(F)C(=O)[O-] (optimized conformer: 70.23912308828811 kcal/mol)

>  <smiles>  (24) 
NC(=O)c1cc2ccc(C(F)F)cc2n1C(=O)OCC(F)(F)C(=O)O

>  <score_type>  (24) 
oracle

>  <origin>  (24) 
adg

>  <m_score__min__energy>  (24) 
-6.04

>  <m_primary>  (24) 
energy

$$$$
24:0
     RDKit          3D

 41 43  0  0  0  0  0  0  0  0999 V2000
  146.4880  153.3510  133.7520 N   0  0  0  0  0  0  0  0  0  0  0  0
  147.2260  154.5680  133.6330 C   0  0  0  0  0  0  0  0  0  0  0  0
  148.4740  154.5190  133.4670 O   0  0  0  0  0  0  0  0  0  0  0  0
  146.5460  155.8800  133.6440 C   0  0  0  0  0  0  0  0  0  0  0  0
  147.1530  157.0620  133.2270 C   0  0  0  0  0  0  0  0  0  0  0  0
  146.1790  158.0290  133.3430 C   0  0  0  0  0  0  0  0  0  0  0  0
  146.2370  159.3940  133.0750 C   0  0  0  0  0  0  0  0  0  0  0  0
  145.0890  160.1630  133.3240 C   0  0  0  0  0  0  0  0  0  0  0  0
  143.9190  159.5630  133.8540 C   0  0  0  0  0  0  0  0  0  0  0  0
  142.6920  160.3950  134.1100 C   0  0  0  0  0  0  0  0  0  0  0  0
  141.4690  159.5160  134.1650 C   0  0  0  0  0  0  0  0  0  0  0  0
  140.8310  159.1290  132.9740 C   0  0  0  0  0  0  0  0  0  0  0  0
  139.7150  158.2880  133.0100 C   0  0  0  0  0  0  0  0  0  0  0  0
  139.1050  157.9220  131.8560 F   0  0  0  0  0  0  0  0  0  0  0  0
  139.2300  157.8210  134.2340 C   0  0  0  0  0  0  0  0  0  0  0  0
  139.8640  158.1910  135.4240 C   0  0  0  0  0  0  0  0  0  0  0  0
  140.9820  159.0330  135.3950 C   0  0  0  0  0  0  0  0  0  0  0  0
  141.5830  159.3740  136.5630 F   0  0  0  0  0  0  0  0  0  0  0  0
  143.8950  158.1730  134.1050 C   0  0  0  0  0  0  0  0  0  0  0  0
  145.0440  157.4270  133.8220 C   0  0  0  0  0  0  0  0  0  0  0  0
  145.2540  156.1050  134.0110 N   0  0  0  0  0  0  0  0  0  0  0  0
  144.3300  155.1720  134.5940 C   0  0  0  0  0  0  0  0  0  0  0  0
  144.7210  154.3780  135.4940 O   0  0  0  0  0  0  0  0  0  0  0  0
  143.0000  155.1490  134.1600 O   0  0  0  0  0  0  0  0  0  0  0  0
  142.4670  154.1280  133.3210 C   0  0  0  0  0  0  0  0  0  0  0  0
  143.5620  153.2240  132.8520 C   0  0  0  0  0  0  0  0  0  0  0  0
  143.7040  152.0820  133.3610 O   0  0  0  0  0  0  0  0  0  0  0  0
  144.4010  153.6300  131.8230 O   0  0  0  0  0  0  0  0  0  0  0  0
  145.4450  153.3480  133.7170 H   0  0  0  0  0  0  0  0  0  0  0  0
  146.9890  152.4360  133.7890 H   0  0  0  0  0  0  0  0  0  0  0  0
  148.1882  157.1949  132.8795 H   0  0  0  0  0  0  0  0  0  0  0  0
  147.1540  159.8558  132.6803 H   0  0  0  0  0  0  0  0  0  0  0  0
  145.0975  161.2411  133.1058 H   0  0  0  0  0  0  0  0  0  0  0  0
  142.8040  160.9221  135.0690 H   0  0  0  0  0  0  0  0  0  0  0  0
  142.5748  161.1223  133.2931 H   0  0  0  0  0  0  0  0  0  0  0  0
  141.2122  159.4902  132.0075 H   0  0  0  0  0  0  0  0  0  0  0  0
  138.3495  157.1623  134.2616 H   0  0  0  0  0  0  0  0  0  0  0  0
  139.4829  157.8191  136.3865 H   0  0  0  0  0  0  0  0  0  0  0  0
  142.9952  157.6893  134.5128 H   0  0  0  0  0  0  0  0  0  0  0  0
  141.7281  153.5413  133.8866 H   0  0  0  0  0  0  0  0  0  0  0  0
  141.9864  154.5940  132.4481 H   0  0  0  0  0  0  0  0  0  0  0  0
  1  2  1  0
  2  3  2  0
  2  4  1  0
  4  5  2  0
  5  6  1  0
  6  7  2  0
  7  8  1  0
  8  9  2  0
  9 10  1  0
 10 11  1  0
 11 12  2  0
 12 13  1  0
 13 14  1  0
 13 15  2  0
 15 16  1  0
 16 17  2  0
 17 18  1  0
  9 19  1  0
 19 20  2  0
 20 21  1  0
 21 22  1  0
 22 23  2  0
 22 24  1  0
 24 25  1  0
 25 26  1  0
 26 27  2  0
 26 28  1  0
 21  4  1  0
 20  6  1  0
 17 11  1  0
  1 29  1  0
  1 30  1  0
  5 31  1  0
  7 32  1  0
  8 33  1  0
 10 34  1  0
 10 35  1  0
 12 36  1  0
 15 37  1  0
 16 38  1  0
 19 39  1  0
 25 40  1  0
 25 41  1  0
M  CHG  1  28  -1
M  END
>  <UniqueID>  (25) 
24

>  <SMILES>  (25) 
NC(=O)c1cc2ccc(Cc3cc(F)ccc3F)cc2n1C(=O)OCC(=O)[O-]

>  <Energy>  (25) 
79.34103874581191

>  <Genealogy>  (25) 
NC(=O)c1cc2ccc(Cc3cc(F)ccc3F)cc2n1C(=O)OCC(=O)[O-] (protonated)
NC(=O)c1cc2ccc(Cc3cc(F)ccc3F)cc2n1C(=O)OCC(=O)[O-] (3D coordinates assigned)
NC(=O)c1cc2ccc(Cc3cc(F)ccc3F)cc2n1C(=O)OCC(=O)[O-] (optimized conformer: 79.34103874581191 kcal/mol)

>  <smiles>  (25) 
NC(=O)c1cc2ccc(Cc3cc(F)ccc3F)cc2n1C(=O)OCC(=O)O

>  <score_type>  (25) 
oracle

>  <origin>  (25) 
adg

>  <m_score__min__energy>  (25) 
-8.5399999999999991

>  <m_primary>  (25) 
energy

$$$$
25:0
     RDKit          3D

 39 40  0  0  0  0  0  0  0  0999 V2000
  149.3220  150.4170  132.3220 C   0  0  0  0  0  0  0  0  0  0  0  0
  148.4120  151.5510  132.4970 N   0  0  0  0  0  0  0  0  0  0  0  0
  146.9780  151.4040  132.2230 C   0  0  0  0  0  0  0  0  0  0  0  0
  146.2740  152.6510  132.5380 C   0  0  0  0  0  0  0  0  0  0  0  0
  145.7000  153.6780  132.7990 C   0  0  0  0  0  0  0  0  0  0  0  0
  145.0180  154.9050  133.1130 C   0  0  0  0  0  0  0  0  0  0  0  0
  143.9180  155.1560  132.5540 O   0  0  0  0  0  0  0  0  0  0  0  0
  145.6030  155.8680  134.0630 C   0  0  0  0  0  0  0  0  0  0  0  0
  145.9270  155.4890  135.2200 O   0  0  0  0  0  0  0  0  0  0  0  0
  145.8270  157.2340  133.6780 N   0  0  0  0  0  0  0  0  0  0  0  0
  146.9940  157.7930  133.2520 C   0  0  0  0  0  0  0  0  0  0  0  0
  148.2480  157.0490  132.9890 C   0  0  0  0  0  0  0  0  0  0  0  0
  148.4480  155.7350  133.5150 N   0  0  0  0  0  0  0  0  0  0  0  0
  149.1640  157.5790  132.3060 O   0  0  0  0  0  0  0  0  0  0  0  0
  146.8260  159.1610  133.0400 C   0  0  0  0  0  0  0  0  0  0  0  0
  145.5140  159.4240  133.3630 C   0  0  0  0  0  0  0  0  0  0  0  0
  144.8120  160.6260  133.3570 C   0  0  0  0  0  0  0  0  0  0  0  0
  143.4700  160.6080  133.7760 C   0  0  0  0  0  0  0  0  0  0  0  0
  142.8620  159.3980  134.1990 C   0  0  0  0  0  0  0  0  0  0  0  0
  141.4330  159.3850  134.6610 C   0  0  0  0  0  0  0  0  0  0  0  0
  141.3430  159.9550  135.9180 F   0  0  0  0  0  0  0  0  0  0  0  0
  140.6510  160.1030  133.7760 F   0  0  0  0  0  0  0  0  0  0  0  0
  143.6070  158.1990  134.1920 C   0  0  0  0  0  0  0  0  0  0  0  0
  144.9330  158.2450  133.7500 C   0  0  0  0  0  0  0  0  0  0  0  0
  148.9370  152.8240  132.9230 C   0  0  0  0  0  0  0  0  0  0  0  0
  148.6640  153.2770  134.0670 O   0  0  0  0  0  0  0  0  0  0  0  0
  149.7530  153.5680  132.0780 O   0  0  0  0  0  0  0  0  0  0  0  0
  149.6274  150.0364  133.3079 H   0  0  0  0  0  0  0  0  0  0  0  0
  148.8106  149.6193  131.7634 H   0  0  0  0  0  0  0  0  0  0  0  0
  150.2116  150.7435  131.7634 H   0  0  0  0  0  0  0  0  0  0  0  0
  146.8337  151.1635  131.1594 H   0  0  0  0  0  0  0  0  0  0  0  0
  146.5733  150.5945  132.8482 H   0  0  0  0  0  0  0  0  0  0  0  0
  147.6930  155.2310  134.0290 H   0  0  0  0  0  0  0  0  0  0  0  0
  149.3510  155.2390  133.3490 H   0  0  0  0  0  0  0  0  0  0  0  0
  147.5822  159.8785  132.6888 H   0  0  0  0  0  0  0  0  0  0  0  0
  145.2925  161.5614  133.0343 H   0  0  0  0  0  0  0  0  0  0  0  0
  142.8863  161.5404  133.7758 H   0  0  0  0  0  0  0  0  0  0  0  0
  141.0783  158.3447  134.7043 H   0  0  0  0  0  0  0  0  0  0  0  0
  143.1561  157.2528  134.5257 H   0  0  0  0  0  0  0  0  0  0  0  0
  1  2  1  0
  2  3  1  0
  3  4  1  0
  4  5  3  0
  5  6  1  0
  6  7  2  0
  6  8  1  0
  8  9  2  0
  8 10  1  0
 10 11  1  0
 11 12  1  0
 12 13  1  0
 12 14  2  0
 11 15  2  0
 15 16  1  0
 16 17  2  0
 17 18  1  0
 18 19  2  0
 19 20  1  0
 20 21  1  0
 20 22  1  0
 19 23  1  0
 23 24  2  0
  2 25  1  0
 25 26  2  0
 25 27  1  0
 24 10  1  0
 24 16  1  0
  1 28  1  0
  1 29  1  0
  1 30  1  0
  3 31  1  0
  3 32  1  0
 13 33  1  0
 13 34  1  0
 15 35  1  0
 17 36  1  0
 18 37  1  0
 20 38  1  0
 23 39  1  0
M  CHG  1  27  -1
M  END
>  <UniqueID>  (26) 
25

>  <SMILES>  (26) 
CN(CC#CC(=O)C(=O)n1c(C(N)=O)cc2ccc(C(F)F)cc21)C(=O)[O-]

>  <Energy>  (26) 
70.3964644506264

>  <Genealogy>  (26) 
CN(CC#CC(=O)C(=O)n1c(C(N)=O)cc2ccc(C(F)F)cc21)C(=O)[O-] (protonated)
CN(CC#CC(=O)C(=O)n1c(C(N)=O)cc2ccc(C(F)F)cc21)C(=O)[O-] (3D coordinates assigned)
CN(CC#CC(=O)C(=O)n1c(C(N)=O)cc2ccc(C(F)F)cc21)C(=O)[O-] (optimized conformer: 70.3964644506264 kcal/mol)

>  <smiles>  (26) 
CN(CC#CC(=O)C(=O)n1c(C(N)=O)cc2ccc(C(F)F)cc21)C(=O)O

>  <score_type>  (26) 
oracle

>  <origin>  (26) 
adg

>  <m_score__min__energy>  (26) 
-7.0199999999999996

>  <m_primary>  (26) 
energy

$$$$
26:0
     RDKit          3D

 57 60  0  0  0  0  0  0  0  0999 V2000
  146.4950  159.2250  132.6420 C   0  0  0  0  0  0  0  0  0  0  0  0
  145.7080  158.2490  133.4080 N   0  0  0  0  0  0  0  0  0  0  0  0
  144.3110  158.5840  133.7200 C   0  0  0  0  0  0  0  0  0  0  0  0
  144.1030  160.1010  133.7830 C   0  0  0  0  0  0  0  0  0  0  0  0
  142.7860  160.4060  134.1500 O   0  0  0  0  0  0  0  0  0  0  0  0
  146.2890  156.9650  133.7660 C   0  0  0  0  0  0  0  0  0  0  0  0
  147.7890  156.9000  134.4440 S   0  0  0  0  0  0  0  0  0  0  0  0
  145.6640  155.7300  133.3610 N   0  0  0  0  0  0  0  0  0  0  0  0
  145.7160  154.4750  134.0870 C   0  0  2  0  0  0  0  0  0  0  0  0
  145.5360  153.4320  132.9760 C   0  0  0  0  0  0  0  0  0  0  0  0
  144.7620  154.1680  131.8750 C   0  0  0  0  0  0  0  0  0  0  0  0
  144.5630  155.5890  132.4240 C   0  0  1  0  0  0  0  0  0  0  0  0
  143.2240  155.6960  133.2030 C   0  0  0  0  0  0  0  0  0  0  0  0
  143.3620  155.4010  134.7330 C   0  0  1  0  0  0  0  0  0  0  0  0
  142.0550  154.9450  135.3520 C   0  0  0  0  0  0  0  0  0  0  0  0
  141.3440  154.0940  134.7530 O   0  0  0  0  0  0  0  0  0  0  0  0
  141.6350  155.4130  136.6440 N   0  0  0  0  0  0  0  0  0  0  0  0
  141.3890  156.6980  137.0150 C   0  0  0  0  0  0  0  0  0  0  0  0
  141.6140  157.8950  136.1780 C   0  0  0  0  0  0  0  0  0  0  0  0
  141.3210  157.8790  134.7840 N   0  0  0  0  0  0  0  0  0  0  0  0
  142.1030  158.9360  136.6910 O   0  0  0  0  0  0  0  0  0  0  0  0
  140.9440  156.7450  138.3360 C   0  0  0  0  0  0  0  0  0  0  0  0
  140.9280  155.4360  138.7610 C   0  0  0  0  0  0  0  0  0  0  0  0
  140.5500  154.8960  139.9860 C   0  0  0  0  0  0  0  0  0  0  0  0
  140.6020  153.4990  140.1330 C   0  0  0  0  0  0  0  0  0  0  0  0
  141.0390  152.6710  139.0660 C   0  0  0  0  0  0  0  0  0  0  0  0
  141.0260  151.1700  139.2160 C   0  0  0  0  0  0  0  0  0  0  0  0
  142.3120  150.6850  139.0630 F   0  0  0  0  0  0  0  0  0  0  0  0
  140.2100  150.5910  138.2600 F   0  0  0  0  0  0  0  0  0  0  0  0
  140.5520  150.8100  140.4640 F   0  0  0  0  0  0  0  0  0  0  0  0
  141.3920  153.2580  137.8290 C   0  0  0  0  0  0  0  0  0  0  0  0
  141.3450  154.6510  137.7180 C   0  0  0  0  0  0  0  0  0  0  0  0
  144.5260  154.4190  135.0870 C   0  0  0  0  0  0  0  0  0  0  0  0
  147.0308  159.8895  133.3358 H   0  0  0  0  0  0  0  0  0  0  0  0
  147.2209  158.6944  132.0083 H   0  0  0  0  0  0  0  0  0  0  0  0
  145.8225  159.8219  132.0083 H   0  0  0  0  0  0  0  0  0  0  0  0
  143.6591  158.1650  132.9393 H   0  0  0  0  0  0  0  0  0  0  0  0
  144.0632  158.1584  134.7036 H   0  0  0  0  0  0  0  0  0  0  0  0
  144.7929  160.5294  134.5250 H   0  0  0  0  0  0  0  0  0  0  0  0
  144.3000  160.5263  132.7879 H   0  0  0  0  0  0  0  0  0  0  0  0
  142.4420  159.6270  134.6580 H   0  0  0  0  0  0  0  0  0  0  0  0
  146.6367  154.3253  134.6701 H   0  0  0  0  0  0  0  0  0  0  0  0
  146.5126  153.0906  132.6021 H   0  0  0  0  0  0  0  0  0  0  0  0
  145.0069  152.5344  133.3287 H   0  0  0  0  0  0  0  0  0  0  0  0
  145.3426  154.1904  130.9410 H   0  0  0  0  0  0  0  0  0  0  0  0
  143.8076  153.6759  131.6361 H   0  0  0  0  0  0  0  0  0  0  0  0
  144.5377  156.3512  131.6313 H   0  0  0  0  0  0  0  0  0  0  0  0
  142.8311  156.7160  133.0799 H   0  0  0  0  0  0  0  0  0  0  0  0
  142.5485  154.9334  132.7880 H   0  0  0  0  0  0  0  0  0  0  0  0
  143.6308  156.3686  135.1819 H   0  0  0  0  0  0  0  0  0  0  0  0
  141.8420  158.4860  134.1150 H   0  0  0  0  0  0  0  0  0  0  0  0
  140.6652  157.6379  138.9148 H   0  0  0  0  0  0  0  0  0  0  0  0
  140.2208  155.5417  140.8134 H   0  0  0  0  0  0  0  0  0  0  0  0
  140.3003  153.0417  141.0868 H   0  0  0  0  0  0  0  0  0  0  0  0
  141.6960  152.6344  136.9754 H   0  0  0  0  0  0  0  0  0  0  0  0
  144.9020  154.6728  136.0891 H   0  0  0  0  0  0  0  0  0  0  0  0
  144.1134  153.4004  135.0396 H   0  0  0  0  0  0  0  0  0  0  0  0
  1  2  1  0
  2  3  1  0
  3  4  1  0
  4  5  1  0
  2  6  1  0
  6  7  2  0
  6  8  1  0
  8  9  1  0
  9 10  1  0
 10 11  1  0
 11 12  1  0
 12 13  1  0
 13 14  1  0
 14 15  1  0
 15 16  2  0
 15 17  1  0
 17 18  1  0
 18 19  1  0
 19 20  1  0
 19 21  2  0
 18 22  2  0
 22 23  1  0
 23 24  2  0
 24 25  1  0
 25 26  2  0
 26 27  1  0
 27 28  1  0
 27 29  1  0
 27 30  1  0
 26 31  1  0
 31 32  2  0
 14 33  1  0
 12  8  1  0
 32 17  1  0
 33  9  1  0
 32 23  1  0
  1 34  1  0
  1 35  1  0
  1 36  1  0
  3 37  1  0
  3 38  1  0
  4 39  1  0
  4 40  1  0
  5 41  1  0
  9 42  1  1
 10 43  1  0
 10 44  1  0
 11 45  1  0
 11 46  1  0
 12 47  1  6
 13 48  1  0
 13 49  1  0
 14 50  1  1
 20 51  1  0
 22 52  1  0
 24 53  1  0
 25 54  1  0
 31 55  1  0
 33 56  1  0
 33 57  1  0
M  CHG  1  20  -1
M  END
>  <UniqueID>  (27) 
26

>  <SMILES>  (27) 
CN(CCO)C(=S)N1[C@@H]2CC[C@H]1CC(C(=O)n1c(C([NH-])=O)cc3ccc(C(F)(F)F)cc31)C2

>  <Energy>  (27) 
126.14617622005899

>  <Genealogy>  (27) 
CN(CCO)C(=S)N1C2CCC1CC(C(=O)n1c(C([NH-])=O)cc3ccc(C(F)(F)F)cc31)C2 (protonated)
CN(CCO)C(=S)N1[C@@H]2CC[C@H]1CC(C(=O)n1c(C([NH-])=O)cc3ccc(C(F)(F)F)cc31)C2 (chirality)
CN(CCO)C(=S)N1[C@@H]2CC[C@H]1CC(C(=O)n1c(C([NH-])=O)cc3ccc(C(F)(F)F)cc31)C2 (3D coordinates assigned)
CN(CCO)C(=S)N1[C@@H]2CC[C@H]1CC(C(=O)n1c(C([NH-])=O)cc3ccc(C(F)(F)F)cc31)C2 (nonaromatic ring conformer: 126.14617622005899 kcal/mol)

>  <smiles>  (27) 
CN(CCO)C(=S)N1C2CCC1CC(C(=O)n1c(C(N)=O)cc3ccc(C(F)(F)F)cc31)C2

>  <score_type>  (27) 
oracle

>  <origin>  (27) 
adg

>  <m_score__min__energy>  (27) 
-8.4600000000000009

>  <m_primary>  (27) 
energy

$$$$
27:0
     RDKit          3D

 41 43  0  0  0  0  0  0  0  0999 V2000
  138.0460  156.1020  132.6270 H   0  0  0  0  0  0  0  0  0  0  0  0
  138.6730  156.1800  133.3940 O   0  0  0  0  0  0  0  0  0  0  0  0
  138.6590  157.5180  133.8270 C   0  0  1  0  0  0  0  0  0  0  0  0
  137.8543  157.5871  134.5738 H   0  0  0  0  0  0  0  0  0  0  0  0
  140.0110  157.9210  134.4200 C   0  0  0  0  0  0  0  0  0  0  0  0
  139.8661  158.5139  135.3351 H   0  0  0  0  0  0  0  0  0  0  0  0
  140.6103  157.0405  134.6950 H   0  0  0  0  0  0  0  0  0  0  0  0
  140.6720  158.7200  133.3980 N   0  0  0  0  0  0  0  0  0  0  0  0
  142.0340  159.1980  133.5030 C   0  0  0  0  0  0  0  0  0  0  0  0
  142.3040  160.5880  133.6370 C   0  0  0  0  0  0  0  0  0  0  0  0
  141.4675  161.3016  133.6706 H   0  0  0  0  0  0  0  0  0  0  0  0
  143.6220  161.0630  133.7270 C   0  0  0  0  0  0  0  0  0  0  0  0
  143.8315  162.1392  133.8154 H   0  0  0  0  0  0  0  0  0  0  0  0
  144.6550  160.1320  133.7010 C   0  0  0  0  0  0  0  0  0  0  0  0
  146.0160  160.3260  133.7170 C   0  0  0  0  0  0  0  0  0  0  0  0
  146.5524  161.2842  133.7810 H   0  0  0  0  0  0  0  0  0  0  0  0
  146.5710  159.0520  133.6350 C   0  0  0  0  0  0  0  0  0  0  0  0
  148.0290  158.8040  133.6100 C   0  0  0  0  0  0  0  0  0  0  0  0
  148.8150  159.7730  133.4310 O   0  0  0  0  0  0  0  0  0  0  0  0
  148.5740  157.5020  133.8330 N   0  0  0  0  0  0  0  0  0  0  0  0
  149.6040  157.3490  133.7590 H   0  0  0  0  0  0  0  0  0  0  0  0
  147.9800  156.7080  134.1580 H   0  0  0  0  0  0  0  0  0  0  0  0
  145.5910  158.1040  133.5750 N   0  0  0  0  0  0  0  0  0  0  0  0
  145.7650  156.6920  133.3520 C   0  0  0  0  0  0  0  0  0  0  0  0
  146.6230  156.3050  132.5130 O   0  0  0  0  0  0  0  0  0  0  0  0
  144.9200  155.6690  134.0070 C   0  0  0  0  0  0  0  0  0  0  0  0
  143.8988  155.5466  133.6169 H   0  0  0  0  0  0  0  0  0  0  0  0
  145.2750  154.8760  135.0290 C   0  0  0  0  0  0  0  0  0  0  0  0
  144.4780  154.2808  135.4985 H   0  0  0  0  0  0  0  0  0  0  0  0
  146.6320  154.7280  135.5810 C   0  0  0  0  0  0  0  0  0  0  0  0
  147.4640  155.6620  135.4280 O   0  0  0  0  0  0  0  0  0  0  0  0
  146.9900  153.6220  136.3400 O   0  0  0  0  0  0  0  0  0  0  0  0
  144.4220  158.7870  133.6000 C   0  0  0  0  0  0  0  0  0  0  0  0
  143.1200  158.2890  133.4700 C   0  0  0  0  0  0  0  0  0  0  0  0
  142.9434  157.2106  133.3444 H   0  0  0  0  0  0  0  0  0  0  0  0
  139.7990  159.0000  132.2660 C   0  0  0  0  0  0  0  0  0  0  0  0
  139.7545  160.0826  132.0765 H   0  0  0  0  0  0  0  0  0  0  0  0
  140.1671  158.5222  131.3461 H   0  0  0  0  0  0  0  0  0  0  0  0
  138.4230  158.4740  132.6550 C   0  0  0  0  0  0  0  0  0  0  0  0
  137.7687  159.3031  132.9625 H   0  0  0  0  0  0  0  0  0  0  0  0
  137.9296  157.9678  131.8122 H   0  0  0  0  0  0  0  0  0  0  0  0
  1  2  1  0
  2  3  1  0
  3  4  1  1
  3  5  1  0
  5  6  1  0
  5  7  1  0
  5  8  1  0
  8  9  1  0
  9 10  2  0
 10 11  1  0
 10 12  1  0
 12 13  1  0
 12 14  2  0
 14 15  1  0
 15 16  1  0
 15 17  2  0
 17 18  1  0
 18 19  2  0
 18 20  1  0
 20 21  1  0
 20 22  1  0
 17 23  1  0
 23 24  1  0
 24 25  2  0
 24 26  1  0
 26 27  1  0
 26 28  2  0
 28 29  1  0
 28 30  1  0
 30 31  2  0
 30 32  1  0
 23 33  1  0
 33 34  2  0
 34 35  1  0
  8 36  1  0
 36 37  1  0
 36 38  1  0
 36 39  1  0
 39 40  1  0
 39 41  1  0
 39  3  1  0
 34  9  1  0
 33 14  1  0
M  CHG  1  32  -1
M  END
>  <UniqueID>  (28) 
27

>  <SMILES>  (28) 
NC(=O)c1cc2ccc(N3CC[C@@H](O)C3)cc2n1C(=O)/C=C\C(=O)[O-]

>  <Energy>  (28) 
90.67924402896301

>  <Genealogy>  (28) 
NC(=O)c1cc2ccc(N3CC[C@@H](O)C3)cc2n1C(=O)/C=C\C(=O)[O-] (protonated)
NC(=O)c1cc2ccc(N3CC[C@@H](O)C3)cc2n1C(=O)/C=C\C(=O)[O-] (cis-trans isomerization)
NC(=O)c1cc2ccc(N3CC[C@@H](O)C3)cc2n1C(=O)/C=C\C(=O)[O-] (3D coordinates assigned)
NC(=O)c1cc2ccc(N3CC[C@@H](O)C3)cc2n1C(=O)/C=C\C(=O)[O-] (nonaromatic ring conformer: 90.67924402896301 kcal/mol)

>  <smiles>  (28) 
NC(=O)c1cc2ccc(N3CC[C@@H](O)C3)cc2n1C(=O)/C=C\C(=O)O

>  <score_type>  (28) 
oracle

>  <origin>  (28) 
adg

>  <m_score__min__energy>  (28) 
-8.1600000000000001

>  <m_primary>  (28) 
energy

$$$$
28:0
     RDKit          3D

 42 43  0  0  0  0  0  0  0  0999 V2000
  142.0560  160.2360  134.6440 N   0  0  0  0  0  0  0  0  0  0  0  0
  143.0700  160.8260  133.8350 C   0  0  0  0  0  0  0  0  0  0  0  0
  142.8920  161.9840  133.3680 O   0  0  0  0  0  0  0  0  0  0  0  0
  144.3470  160.1260  133.5870 C   0  0  0  0  0  0  0  0  0  0  0  0
  145.5920  160.7410  133.7010 C   0  0  0  0  0  0  0  0  0  0  0  0
  146.5130  159.7400  133.4930 C   0  0  0  0  0  0  0  0  0  0  0  0
  147.9040  159.7910  133.4870 C   0  0  0  0  0  0  0  0  0  0  0  0
  148.6060  158.6030  133.2190 C   0  0  0  0  0  0  0  0  0  0  0  0
  147.9090  157.4010  132.9420 C   0  0  0  0  0  0  0  0  0  0  0  0
  148.6710  156.1370  132.6770 C   0  0  0  0  0  0  0  0  0  0  0  0
  149.9400  156.4480  132.2250 F   0  0  0  0  0  0  0  0  0  0  0  0
  146.4960  157.3840  132.9690 C   0  0  0  0  0  0  0  0  0  0  0  0
  145.8250  158.5770  133.2590 C   0  0  0  0  0  0  0  0  0  0  0  0
  144.4920  158.7980  133.3110 N   0  0  0  0  0  0  0  0  0  0  0  0
  143.4590  157.8400  133.0390 C   0  0  0  0  0  0  0  0  0  0  0  0
  142.3310  158.2290  132.6290 O   0  0  0  0  0  0  0  0  0  0  0  0
  143.7050  156.4460  133.2470 N   0  0  0  0  0  0  0  0  0  0  0  0
  143.1370  155.6990  134.3600 C   0  0  0  0  0  0  0  0  0  0  0  0
  141.9060  156.3930  134.8390 C   0  0  0  0  0  0  0  0  0  0  0  0
  142.0010  157.5150  135.4070 O   0  0  0  0  0  0  0  0  0  0  0  0
  140.6240  155.8020  134.6080 N   0  0  0  0  0  0  0  0  0  0  0  0
  139.7100  156.2790  133.5750 C   0  0  0  0  0  0  0  0  0  0  0  0
  139.1900  157.6860  133.9170 C   0  0  2  0  0  0  0  0  0  0  0  0
  140.0270  158.6590  133.3460 O   0  0  0  0  0  0  0  0  0  0  0  0
  139.1120  157.9200  135.4340 C   0  0  0  0  0  0  0  0  0  0  0  0
  140.0080  158.9210  135.8350 O   0  0  0  0  0  0  0  0  0  0  0  0
  141.7500  159.2500  134.4880 H   0  0  0  0  0  0  0  0  0  0  0  0
  145.7954  161.8012  133.9123 H   0  0  0  0  0  0  0  0  0  0  0  0
  148.4376  160.7321  133.6859 H   0  0  0  0  0  0  0  0  0  0  0  0
  149.7060  158.6066  133.2244 H   0  0  0  0  0  0  0  0  0  0  0  0
  148.7460  155.5528  133.6061 H   0  0  0  0  0  0  0  0  0  0  0  0
  148.1450  155.5461  131.9127 H   0  0  0  0  0  0  0  0  0  0  0  0
  145.9386  156.4574  132.7673 H   0  0  0  0  0  0  0  0  0  0  0  0
  142.8805  154.6822  134.0279 H   0  0  0  0  0  0  0  0  0  0  0  0
  143.8701  155.6399  135.1780 H   0  0  0  0  0  0  0  0  0  0  0  0
  140.2402  156.3142  132.6119 H   0  0  0  0  0  0  0  0  0  0  0  0
  138.8542  155.5906  133.5144 H   0  0  0  0  0  0  0  0  0  0  0  0
  138.1734  157.7662  133.5046 H   0  0  0  0  0  0  0  0  0  0  0  0
  140.8850  158.6280  133.8460 H   0  0  0  0  0  0  0  0  0  0  0  0
  138.0891  158.2259  135.6986 H   0  0  0  0  0  0  0  0  0  0  0  0
  139.3795  156.9844  135.9470 H   0  0  0  0  0  0  0  0  0  0  0  0
  140.8540  158.7570  135.3430 H   0  0  0  0  0  0  0  0  0  0  0  0
  1  2  1  0
  2  3  2  0
  2  4  1  0
  4  5  2  0
  5  6  1  0
  6  7  2  0
  7  8  1  0
  8  9  2  0
  9 10  1  0
 10 11  1  0
  9 12  1  0
 12 13  2  0
 13 14  1  0
 14 15  1  0
 15 16  2  0
 15 17  1  0
 17 18  1  0
 18 19  1  0
 19 20  2  0
 19 21  1  0
 21 22  1  0
 22 23  1  0
 23 24  1  0
 23 25  1  0
 25 26  1  0
 14  4  1  0
 13  6  1  0
  1 27  1  0
  5 28  1  0
  7 29  1  0
  8 30  1  0
 10 31  1  0
 10 32  1  0
 12 33  1  0
 18 34  1  0
 18 35  1  0
 22 36  1  0
 22 37  1  0
 23 38  1  6
 24 39  1  0
 25 40  1  0
 25 41  1  0
 26 42  1  0
M  CHG  3   1  -1  17  -1  21  -1
M  END
>  <UniqueID>  (29) 
28

>  <SMILES>  (29) 
[NH-]C(=O)c1cc2ccc(CF)cc2n1C(=O)[N-]CC(=O)[N-]C[C@H](O)CO

>  <Energy>  (29) 
71.61364770226034

>  <Genealogy>  (29) 
[NH-]C(=O)c1cc2ccc(CF)cc2n1C(=O)[N-]CC(=O)[N-]CC(O)CO (protonated)
[NH-]C(=O)c1cc2ccc(CF)cc2n1C(=O)[N-]CC(=O)[N-]C[C@H](O)CO (chirality)
[NH-]C(=O)c1cc2ccc(CF)cc2n1C(=O)[N-]CC(=O)[N-]C[C@H](O)CO (3D coordinates assigned)
[NH-]C(=O)c1cc2ccc(CF)cc2n1C(=O)[N-]CC(=O)[N-]C[C@H](O)CO (optimized conformer: 71.61364770226034 kcal/mol)

>  <smiles>  (29) 
NC(=O)c1cc2ccc(CF)cc2n1C(=O)NCC(=O)NCC(O)CO

>  <score_type>  (29) 
oracle

>  <origin>  (29) 
adg

>  <m_score__min__energy>  (29) 
-5.4800000000000004

>  <m_primary>  (29) 
energy

$$$$
29:0
     RDKit          3D

 40 41  0  0  0  0  0  0  0  0999 V2000
  142.7300  160.4930  133.3870 N   0  0  0  0  0  0  0  0  0  0  0  0
  144.0870  160.7950  133.7170 C   0  0  0  0  0  0  0  0  0  0  0  0
  144.3650  161.9270  134.1940 O   0  0  0  0  0  0  0  0  0  0  0  0
  145.1620  159.7950  133.5540 C   0  0  0  0  0  0  0  0  0  0  0  0
  146.5010  160.1230  133.3470 C   0  0  0  0  0  0  0  0  0  0  0  0
  147.1580  158.9180  133.2310 C   0  0  0  0  0  0  0  0  0  0  0  0
  148.4960  158.6470  132.9550 C   0  0  0  0  0  0  0  0  0  0  0  0
  148.8760  157.3010  132.8010 C   0  0  0  0  0  0  0  0  0  0  0  0
  147.9180  156.2670  132.9170 C   0  0  0  0  0  0  0  0  0  0  0  0
  148.3100  154.8980  132.7170 C   0  0  0  0  0  0  0  0  0  0  0  0
  148.6360  153.7490  132.5470 C   0  0  0  0  0  0  0  0  0  0  0  0
  149.0330  152.3570  132.3400 C   0  0  0  0  0  0  0  0  0  0  0  0
  150.3840  152.2080  132.6670 O   0  0  0  0  0  0  0  0  0  0  0  0
  146.5740  156.5750  133.2060 C   0  0  0  0  0  0  0  0  0  0  0  0
  146.2270  157.9200  133.3670 C   0  0  0  0  0  0  0  0  0  0  0  0
  145.0000  158.4420  133.5670 N   0  0  0  0  0  0  0  0  0  0  0  0
  143.7730  157.7030  133.5740 C   0  0  0  0  0  0  0  0  0  0  0  0
  143.0980  157.6040  132.5130 O   0  0  0  0  0  0  0  0  0  0  0  0
  143.2180  157.1630  134.8580 C   0  0  0  0  0  0  0  0  0  0  0  0
  141.7620  157.1530  134.7930 N   0  0  0  0  0  0  0  0  0  0  0  0
  140.9470  158.2170  135.2940 C   0  0  0  0  0  0  0  0  0  0  0  0
  140.4560  158.1450  136.4540 O   0  0  0  0  0  0  0  0  0  0  0  0
  140.7140  159.3310  134.4810 O   0  0  0  0  0  0  0  0  0  0  0  0
  140.1210  159.2850  133.2120 C   0  0  0  0  0  0  0  0  0  0  0  0
  140.4770  160.0780  132.2970 O   0  0  0  0  0  0  0  0  0  0  0  0
  139.1140  158.2220  132.9130 C   0  0  0  0  0  0  0  0  0  0  0  0
  138.2750  158.6340  131.8930 F   0  0  0  0  0  0  0  0  0  0  0  0
  139.7690  157.0680  132.5270 F   0  0  0  0  0  0  0  0  0  0  0  0
  138.3560  157.9610  134.0400 F   0  0  0  0  0  0  0  0  0  0  0  0
  141.9990  161.2350  133.4520 H   0  0  0  0  0  0  0  0  0  0  0  0
  142.4270  159.5170  133.1770 H   0  0  0  0  0  0  0  0  0  0  0  0
  146.9396  161.1301  133.2887 H   0  0  0  0  0  0  0  0  0  0  0  0
  149.2319  159.4591  132.8605 H   0  0  0  0  0  0  0  0  0  0  0  0
  149.9260  157.0511  132.5888 H   0  0  0  0  0  0  0  0  0  0  0  0
  148.4253  151.7023  132.9819 H   0  0  0  0  0  0  0  0  0  0  0  0
  148.8766  152.0821  131.2864 H   0  0  0  0  0  0  0  0  0  0  0  0
  150.8890  152.7270  131.9890 H   0  0  0  0  0  0  0  0  0  0  0  0
  145.8194  155.7804  133.3022 H   0  0  0  0  0  0  0  0  0  0  0  0
  143.5850  156.1377  135.0134 H   0  0  0  0  0  0  0  0  0  0  0  0
  143.5429  157.7999  135.6939 H   0  0  0  0  0  0  0  0  0  0  0  0
  1  2  1  0
  2  3  2  0
  2  4  1  0
  4  5  2  0
  5  6  1  0
  6  7  2  0
  7  8  1  0
  8  9  2  0
  9 10  1  0
 10 11  3  0
 11 12  1  0
 12 13  1  0
  9 14  1  0
 14 15  2  0
 15 16  1  0
 16 17  1  0
 17 18  2  0
 17 19  1  0
 19 20  1  0
 20 21  1  0
 21 22  2  0
 21 23  1  0
 23 24  1  0
 24 25  2  0
 24 26  1  0
 26 27  1  0
 26 28  1  0
 26 29  1  0
 16  4  1  0
 15  6  1  0
  1 30  1  0
  1 31  1  0
  5 32  1  0
  7 33  1  0
  8 34  1  0
 12 35  1  0
 12 36  1  0
 13 37  1  0
 14 38  1  0
 19 39  1  0
 19 40  1  0
M  CHG  1  20  -1
M  END
>  <UniqueID>  (30) 
29

>  <SMILES>  (30) 
NC(=O)c1cc2ccc(C#CCO)cc2n1C(=O)C[N-]C(=O)OC(=O)C(F)(F)F

>  <Energy>  (30) 
70.65096402002777

>  <Genealogy>  (30) 
NC(=O)c1cc2ccc(C#CCO)cc2n1C(=O)C[N-]C(=O)OC(=O)C(F)(F)F (protonated)
NC(=O)c1cc2ccc(C#CCO)cc2n1C(=O)C[N-]C(=O)OC(=O)C(F)(F)F (3D coordinates assigned)
NC(=O)c1cc2ccc(C#CCO)cc2n1C(=O)C[N-]C(=O)OC(=O)C(F)(F)F (optimized conformer: 70.65096402002777 kcal/mol)

>  <smiles>  (30) 
NC(=O)c1cc2ccc(C#CCO)cc2n1C(=O)CNC(=O)OC(=O)C(F)(F)F

>  <score_type>  (30) 
oracle

>  <origin>  (30) 
adg

>  <m_score__min__energy>  (30) 
-6.8399999999999999

>  <m_primary>  (30) 
energy

$$$$
30:0
     RDKit          3D

 35 36  0  0  0  0  0  0  0  0999 V2000
  141.0620  158.5880  135.4940 C   0  0  0  0  0  0  0  0  0  0  0  0
  142.1080  157.8120  134.8150 N   0  0  0  0  0  0  0  0  0  0  0  0
  141.9200  156.3660  134.6400 C   0  0  0  0  0  0  0  0  0  0  0  0
  143.3080  158.4650  134.3240 C   0  0  0  0  0  0  0  0  0  0  0  0
  143.3350  159.8730  134.1100 C   0  0  0  0  0  0  0  0  0  0  0  0
  144.4970  160.5160  133.6510 C   0  0  0  0  0  0  0  0  0  0  0  0
  145.6210  159.7370  133.4060 C   0  0  0  0  0  0  0  0  0  0  0  0
  146.8800  160.0990  132.9820 C   0  0  0  0  0  0  0  0  0  0  0  0
  147.6070  158.9110  132.9250 C   0  0  0  0  0  0  0  0  0  0  0  0
  149.0040  158.8230  132.4540 C   0  0  0  0  0  0  0  0  0  0  0  0
  149.6170  157.5600  132.2080 N   0  0  0  0  0  0  0  0  0  0  0  0
  149.6570  159.8790  132.2350 O   0  0  0  0  0  0  0  0  0  0  0  0
  146.8270  157.8610  133.3050 N   0  0  0  0  0  0  0  0  0  0  0  0
  147.2080  156.4880  133.4650 C   0  0  0  0  0  0  0  0  0  0  0  0
  147.2490  155.7310  132.4580 O   0  0  0  0  0  0  0  0  0  0  0  0
  147.4400  155.9200  134.8300 C   0  0  0  0  0  0  0  0  0  0  0  0
  146.3120  154.5250  135.1230 P   0  0  0  0  0  0  0  0  0  0  0  0
  146.1590  153.7140  133.8570 O   0  0  0  0  0  0  0  0  0  0  0  0
  144.7990  155.1070  135.6040 O   0  0  0  0  0  0  0  0  0  0  0  0
  146.9450  153.5430  136.3440 O   0  0  0  0  0  0  0  0  0  0  0  0
  145.6160  158.3820  133.5900 C   0  0  0  0  0  0  0  0  0  0  0  0
  144.4800  157.7130  134.0540 C   0  0  0  0  0  0  0  0  0  0  0  0
  141.1859  158.4961  136.5831 H   0  0  0  0  0  0  0  0  0  0  0  0
  141.1435  159.6459  135.2037 H   0  0  0  0  0  0  0  0  0  0  0  0
  140.0732  158.2032  135.2037 H   0  0  0  0  0  0  0  0  0  0  0  0
  141.8571  155.8824  135.6260 H   0  0  0  0  0  0  0  0  0  0  0  0
  140.9904  156.1821  134.0815 H   0  0  0  0  0  0  0  0  0  0  0  0
  142.7717  155.9505  134.0815 H   0  0  0  0  0  0  0  0  0  0  0  0
  142.4306  160.4672  134.3075 H   0  0  0  0  0  0  0  0  0  0  0  0
  144.5162  161.6040  133.4904 H   0  0  0  0  0  0  0  0  0  0  0  0
  147.2365  161.1110  132.7396 H   0  0  0  0  0  0  0  0  0  0  0  0
  149.0590  156.7520  131.8540 H   0  0  0  0  0  0  0  0  0  0  0  0
  148.4800  155.5699  134.9069 H   0  0  0  0  0  0  0  0  0  0  0  0
  147.2524  156.7002  135.5824 H   0  0  0  0  0  0  0  0  0  0  0  0
  144.4945  156.6238  134.2069 H   0  0  0  0  0  0  0  0  0  0  0  0
  1  2  1  0
  2  3  1  0
  2  4  1  0
  4  5  2  0
  5  6  1  0
  6  7  2  0
  7  8  1  0
  8  9  2  0
  9 10  1  0
 10 11  1  0
 10 12  2  0
  9 13  1  0
 13 14  1  0
 14 15  2  0
 14 16  1  0
 16 17  1  0
 17 18  2  0
 17 19  1  0
 17 20  1  0
 13 21  1  0
 21 22  2  0
 22  4  1  0
 21  7  1  0
  1 23  1  0
  1 24  1  0
  1 25  1  0
  3 26  1  0
  3 27  1  0
  3 28  1  0
  5 29  1  0
  6 30  1  0
  8 31  1  0
 11 32  1  0
 16 33  1  0
 16 34  1  0
 22 35  1  0
M  CHG  3  11  -1  19  -1  20  -1
M  END
>  <UniqueID>  (31) 
30

>  <SMILES>  (31) 
CN(C)c1ccc2cc(C([NH-])=O)n(C(=O)CP(=O)([O-])[O-])c2c1

>  <Energy>  (31) 
70.56417599949033

>  <Genealogy>  (31) 
CN(C)c1ccc2cc(C([NH-])=O)n(C(=O)CP(=O)([O-])[O-])c2c1 (protonated)
CN(C)c1ccc2cc(C([NH-])=O)n(C(=O)CP(=O)([O-])[O-])c2c1 (3D coordinates assigned)
CN(C)c1ccc2cc(C([NH-])=O)n(C(=O)CP(=O)([O-])[O-])c2c1 (optimized conformer: 70.56417599949033 kcal/mol)

>  <smiles>  (31) 
CN(C)c1ccc2cc(C(N)=O)n(C(=O)CP(=O)(O)O)c2c1

>  <score_type>  (31) 
oracle

>  <origin>  (31) 
adg

>  <m_score__min__energy>  (31) 
-6.04

>  <m_primary>  (31) 
energy

$$$$
31:0
     RDKit          3D

 42 43  0  0  0  0  0  0  0  0999 V2000
  140.3580  158.4530  132.3220 C   0  0  0  0  0  0  0  0  0  0  0  0
  139.8230  157.5290  133.4330 C   0  0  0  0  0  0  0  0  0  0  0  0
  138.3660  157.8900  133.7820 C   0  0  0  0  0  0  0  0  0  0  0  0
  139.8710  156.0750  132.9380 C   0  0  0  0  0  0  0  0  0  0  0  0
  140.6540  157.6060  134.6010 O   0  0  0  0  0  0  0  0  0  0  0  0
  141.6770  158.5380  134.8340 C   0  0  0  0  0  0  0  0  0  0  0  0
  141.4230  159.7610  135.0130 O   0  0  0  0  0  0  0  0  0  0  0  0
  143.0990  158.0700  134.8390 C   0  0  0  0  0  0  0  0  0  0  0  0
  143.7340  158.2790  133.4950 C   0  0  0  0  0  0  0  0  0  0  0  0
  143.1570  157.8520  132.4580 O   0  0  0  0  0  0  0  0  0  0  0  0
  145.0200  158.9070  133.3840 N   0  0  0  0  0  0  0  0  0  0  0  0
  145.3270  160.2260  133.5440 C   0  0  0  0  0  0  0  0  0  0  0  0
  144.3540  161.3210  133.7270 C   0  0  0  0  0  0  0  0  0  0  0  0
  142.9780  161.1090  133.4150 N   0  0  0  0  0  0  0  0  0  0  0  0
  144.7190  162.4380  134.1810 O   0  0  0  0  0  0  0  0  0  0  0  0
  146.7030  160.4210  133.4380 C   0  0  0  0  0  0  0  0  0  0  0  0
  147.2330  159.1720  133.1990 C   0  0  0  0  0  0  0  0  0  0  0  0
  148.5550  158.7730  133.0390 C   0  0  0  0  0  0  0  0  0  0  0  0
  148.8110  157.4050  132.8400 C   0  0  0  0  0  0  0  0  0  0  0  0
  147.7480  156.4690  132.7980 C   0  0  0  0  0  0  0  0  0  0  0  0
  148.0430  155.0070  132.6050 C   0  0  0  0  0  0  0  0  0  0  0  0
  147.5810  154.2950  133.6970 F   0  0  0  0  0  0  0  0  0  0  0  0
  149.4060  154.8140  132.4750 F   0  0  0  0  0  0  0  0  0  0  0  0
  146.4170  156.9110  132.9780 C   0  0  0  0  0  0  0  0  0  0  0  0
  146.1940  158.2780  133.1640 C   0  0  0  0  0  0  0  0  0  0  0  0
  140.8600  159.3200  132.7763 H   0  0  0  0  0  0  0  0  0  0  0  0
  141.0752  157.8993  131.6983 H   0  0  0  0  0  0  0  0  0  0  0  0
  139.5207  158.7994  131.6983 H   0  0  0  0  0  0  0  0  0  0  0  0
  138.2473  157.9194  134.8752 H   0  0  0  0  0  0  0  0  0  0  0  0
  138.1213  158.8759  133.3600 H   0  0  0  0  0  0  0  0  0  0  0  0
  137.6894  157.1323  133.3600 H   0  0  0  0  0  0  0  0  0  0  0  0
  139.8935  155.3942  133.8017 H   0  0  0  0  0  0  0  0  0  0  0  0
  138.9793  155.8654  132.3290 H   0  0  0  0  0  0  0  0  0  0  0  0
  140.7746  155.9246  132.3290 H   0  0  0  0  0  0  0  0  0  0  0  0
  143.6622  158.6358  135.5958 H   0  0  0  0  0  0  0  0  0  0  0  0
  143.1156  156.9954  135.0734 H   0  0  0  0  0  0  0  0  0  0  0  0
  142.6080  160.1490  133.2300 H   0  0  0  0  0  0  0  0  0  0  0  0
  147.2501  161.3712  133.5265 H   0  0  0  0  0  0  0  0  0  0  0  0
  149.3755  159.5051  133.0672 H   0  0  0  0  0  0  0  0  0  0  0  0
  149.8473  157.0577  132.7156 H   0  0  0  0  0  0  0  0  0  0  0  0
  147.5387  154.6552  131.6929 H   0  0  0  0  0  0  0  0  0  0  0  0
  145.5795  156.1979  132.9718 H   0  0  0  0  0  0  0  0  0  0  0  0
  1  2  1  0
  2  3  1  0
  2  4  1  0
  2  5  1  0
  5  6  1  0
  6  7  2  0
  6  8  1  0
  8  9  1  0
  9 10  2  0
  9 11  1  0
 11 12  1  0
 12 13  1  0
 13 14  1  0
 13 15  2  0
 12 16  2  0
 16 17  1  0
 17 18  2  0
 18 19  1  0
 19 20  2  0
 20 21  1  0
 21 22  1  0
 21 23  1  0
 20 24  1  0
 24 25  2  0
 25 11  1  0
 25 17  1  0
  1 26  1  0
  1 27  1  0
  1 28  1  0
  3 29  1  0
  3 30  1  0
  3 31  1  0
  4 32  1  0
  4 33  1  0
  4 34  1  0
  8 35  1  0
  8 36  1  0
 14 37  1  0
 16 38  1  0
 18 39  1  0
 19 40  1  0
 21 41  1  0
 24 42  1  0
M  CHG  1  14  -1
M  END
>  <UniqueID>  (32) 
31

>  <SMILES>  (32) 
CC(C)(C)OC(=O)CC(=O)n1c(C([NH-])=O)cc2ccc(C(F)F)cc21

>  <Energy>  (32) 
74.60630027895351

>  <Genealogy>  (32) 
CC(C)(C)OC(=O)CC(=O)n1c(C([NH-])=O)cc2ccc(C(F)F)cc21 (protonated)
CC(C)(C)OC(=O)CC(=O)n1c(C([NH-])=O)cc2ccc(C(F)F)cc21 (3D coordinates assigned)
CC(C)(C)OC(=O)CC(=O)n1c(C([NH-])=O)cc2ccc(C(F)F)cc21 (optimized conformer: 74.60630027895351 kcal/mol)

>  <smiles>  (32) 
CC(C)(C)OC(=O)CC(=O)n1c(C(N)=O)cc2ccc(C(F)F)cc21

>  <score_type>  (32) 
oracle

>  <origin>  (32) 
adg

>  <m_score__min__energy>  (32) 
-6.4400000000000004

>  <m_primary>  (32) 
energy

$$$$
32:0
     RDKit          3D

 43 44  0  0  0  0  0  0  0  0999 V2000
  138.7270  157.6500  134.1160 C   0  0  0  0  0  0  0  0  0  0  0  0
  139.7130  158.2030  135.0510 N   0  0  0  0  0  0  0  0  0  0  0  0
  139.5720  157.9240  136.4890 C   0  0  0  0  0  0  0  0  0  0  0  0
  140.7650  157.1150  137.0080 C   0  0  0  0  0  0  0  0  0  0  0  0
  141.8990  157.9290  137.1360 O   0  0  0  0  0  0  0  0  0  0  0  0
  140.8050  158.9940  134.5240 C   0  0  0  0  0  0  0  0  0  0  0  0
  141.3920  159.8170  135.2780 O   0  0  0  0  0  0  0  0  0  0  0  0
  141.3220  158.8090  133.1180 C   0  0  0  0  0  0  0  0  0  0  0  0
  142.7080  159.2580  133.0060 N   0  0  0  0  0  0  0  0  0  0  0  0
  143.7680  158.6660  133.7690 C   0  0  0  0  0  0  0  0  0  0  0  0
  143.5300  157.6910  134.5340 O   0  0  0  0  0  0  0  0  0  0  0  0
  145.1120  159.1510  133.6340 N   0  0  0  0  0  0  0  0  0  0  0  0
  145.5490  160.4390  133.7130 C   0  0  0  0  0  0  0  0  0  0  0  0
  144.7310  161.6080  134.0980 C   0  0  0  0  0  0  0  0  0  0  0  0
  143.3820  161.7080  133.6490 N   0  0  0  0  0  0  0  0  0  0  0  0
  145.2190  162.5350  134.7960 O   0  0  0  0  0  0  0  0  0  0  0  0
  146.9190  160.5050  133.4620 C   0  0  0  0  0  0  0  0  0  0  0  0
  147.3100  159.2040  133.2310 C   0  0  0  0  0  0  0  0  0  0  0  0
  148.5660  158.6850  132.9320 C   0  0  0  0  0  0  0  0  0  0  0  0
  148.6740  157.2980  132.7290 C   0  0  0  0  0  0  0  0  0  0  0  0
  147.5300  156.4660  132.8140 C   0  0  0  0  0  0  0  0  0  0  0  0
  147.6620  154.9840  132.6220 C   0  0  0  0  0  0  0  0  0  0  0  0
  147.7070  154.1730  134.2070 Cl  0  0  0  0  0  0  0  0  0  0  0  0
  146.2740  157.0270  133.1340 C   0  0  0  0  0  0  0  0  0  0  0  0
  146.2010  158.4080  133.3450 C   0  0  0  0  0  0  0  0  0  0  0  0
  137.9041  157.1884  134.6815 H   0  0  0  0  0  0  0  0  0  0  0  0
  138.3295  158.4568  133.4827 H   0  0  0  0  0  0  0  0  0  0  0  0
  139.2082  156.8901  133.4827 H   0  0  0  0  0  0  0  0  0  0  0  0
  139.5167  158.8762  137.0370 H   0  0  0  0  0  0  0  0  0  0  0  0
  138.6547  157.3373  136.6451 H   0  0  0  0  0  0  0  0  0  0  0  0
  140.5128  156.6903  137.9909 H   0  0  0  0  0  0  0  0  0  0  0  0
  140.9862  156.3117  136.2898 H   0  0  0  0  0  0  0  0  0  0  0  0
  142.2540  158.0690  136.2190 H   0  0  0  0  0  0  0  0  0  0  0  0
  141.2666  157.7431  132.8518 H   0  0  0  0  0  0  0  0  0  0  0  0
  140.7030  159.4096  132.4353 H   0  0  0  0  0  0  0  0  0  0  0  0
  142.9340  160.0280  132.3370 H   0  0  0  0  0  0  0  0  0  0  0  0
  142.6150  161.1880  134.1310 H   0  0  0  0  0  0  0  0  0  0  0  0
  147.5527  161.4041  133.4508 H   0  0  0  0  0  0  0  0  0  0  0  0
  149.4469  159.3395  132.8568 H   0  0  0  0  0  0  0  0  0  0  0  0
  149.6549  156.8548  132.5023 H   0  0  0  0  0  0  0  0  0  0  0  0
  146.8020  154.6122  132.0457 H   0  0  0  0  0  0  0  0  0  0  0  0
  148.5933  154.7695  132.0773 H   0  0  0  0  0  0  0  0  0  0  0  0
  145.3773  156.3950  133.2151 H   0  0  0  0  0  0  0  0  0  0  0  0
  1  2  1  0
  2  3  1  0
  3  4  1  0
  4  5  1  0
  2  6  1  0
  6  7  2  0
  6  8  1  0
  8  9  1  0
  9 10  1  0
 10 11  2  0
 10 12  1  0
 12 13  1  0
 13 14  1  0
 14 15  1  0
 14 16  2  0
 13 17  2  0
 17 18  1  0
 18 19  2  0
 19 20  1  0
 20 21  2  0
 21 22  1  0
 22 23  1  0
 21 24  1  0
 24 25  2  0
 25 12  1  0
 25 18  1  0
  1 26  1  0
  1 27  1  0
  1 28  1  0
  3 29  1  0
  3 30  1  0
  4 31  1  0
  4 32  1  0
  5 33  1  0
  8 34  1  0
  8 35  1  0
  9 36  1  0
 15 37  1  0
 17 38  1  0
 19 39  1  0
 20 40  1  0
 22 41  1  0
 22 42  1  0
 24 43  1  0
M  CHG  1  15  -1
M  END
>  <UniqueID>  (33) 
32

>  <SMILES>  (33) 
CN(CCO)C(=O)CNC(=O)n1c(C([NH-])=O)cc2ccc(CCl)cc21

>  <Energy>  (33) 
75.16766493805024

>  <Genealogy>  (33) 
CN(CCO)C(=O)CNC(=O)n1c(C([NH-])=O)cc2ccc(CCl)cc21 (protonated)
CN(CCO)C(=O)CNC(=O)n1c(C([NH-])=O)cc2ccc(CCl)cc21 (3D coordinates assigned)
CN(CCO)C(=O)CNC(=O)n1c(C([NH-])=O)cc2ccc(CCl)cc21 (optimized conformer: 75.16766493805024 kcal/mol)

>  <smiles>  (33) 
CN(CCO)C(=O)CNC(=O)n1c(C(N)=O)cc2ccc(CCl)cc21

>  <score_type>  (33) 
oracle

>  <origin>  (33) 
adg

>  <m_score__min__energy>  (33) 
-6.8099999999999996

>  <m_primary>  (33) 
energy

$$$$
33:0
     RDKit          3D

 38 39  0  0  0  0  0  0  0  0999 V2000
  138.2910  160.1500  130.0030 C   0  0  0  0  0  0  0  0  0  0  0  0
  138.5280  160.0460  131.5060 C   0  0  0  0  0  0  0  0  0  0  0  0
  139.7020  159.1650  131.7930 C   0  0  0  0  0  0  0  0  0  0  0  0
  140.5920  159.0010  130.9150 O   0  0  0  0  0  0  0  0  0  0  0  0
  139.8210  158.5670  133.0520 O   0  0  0  0  0  0  0  0  0  0  0  0
  139.1620  157.3530  133.3950 C   0  0  0  0  0  0  0  0  0  0  0  0
  140.1250  156.3750  133.7710 O   0  0  0  0  0  0  0  0  0  0  0  0
  140.2410  155.1390  133.1280 C   0  0  0  0  0  0  0  0  0  0  0  0
  139.2160  154.5660  132.6700 O   0  0  0  0  0  0  0  0  0  0  0  0
  141.5330  154.5240  132.9930 N   0  0  0  0  0  0  0  0  0  0  0  0
  142.7450  155.1490  132.9900 C   0  0  0  0  0  0  0  0  0  0  0  0
  142.9660  156.6080  132.9520 C   0  0  0  0  0  0  0  0  0  0  0  0
  141.9820  157.4920  132.4140 N   0  0  0  0  0  0  0  0  0  0  0  0
  144.0650  157.0780  133.3510 O   0  0  0  0  0  0  0  0  0  0  0  0
  143.7800  154.2180  132.9790 C   0  0  0  0  0  0  0  0  0  0  0  0
  143.1620  152.9900  132.9620 C   0  0  0  0  0  0  0  0  0  0  0  0
  143.7160  151.7120  132.9640 C   0  0  0  0  0  0  0  0  0  0  0  0
  142.8390  150.6150  132.9870 C   0  0  0  0  0  0  0  0  0  0  0  0
  141.4370  150.8110  133.0160 C   0  0  0  0  0  0  0  0  0  0  0  0
  140.5190  149.6230  133.0600 C   0  0  0  0  0  0  0  0  0  0  0  0
  140.2600  149.2840  134.3750 F   0  0  0  0  0  0  0  0  0  0  0  0
  141.1130  148.5500  132.4200 F   0  0  0  0  0  0  0  0  0  0  0  0
  140.9110  152.1230  133.0180 C   0  0  0  0  0  0  0  0  0  0  0  0
  141.8060  153.1990  132.9730 C   0  0  0  0  0  0  0  0  0  0  0  0
  137.2981  160.5856  129.8177 H   0  0  0  0  0  0  0  0  0  0  0  0
  139.0629  160.7921  129.5537 H   0  0  0  0  0  0  0  0  0  0  0  0
  138.3411  159.1472  129.5537 H   0  0  0  0  0  0  0  0  0  0  0  0
  138.7213  161.0499  131.9120 H   0  0  0  0  0  0  0  0  0  0  0  0
  137.6342  159.6112  131.9772 H   0  0  0  0  0  0  0  0  0  0  0  0
  138.4767  157.5338  134.2362 H   0  0  0  0  0  0  0  0  0  0  0  0
  138.5927  156.9893  132.5269 H   0  0  0  0  0  0  0  0  0  0  0  0
  142.1380  158.5250  132.4330 H   0  0  0  0  0  0  0  0  0  0  0  0
  141.1350  157.1240  131.9270 H   0  0  0  0  0  0  0  0  0  0  0  0
  144.8610  154.4214  132.9830 H   0  0  0  0  0  0  0  0  0  0  0  0
  144.8062  151.5664  132.9481 H   0  0  0  0  0  0  0  0  0  0  0  0
  143.2457  149.5929  132.9824 H   0  0  0  0  0  0  0  0  0  0  0  0
  139.5766  149.8769  132.5527 H   0  0  0  0  0  0  0  0  0  0  0  0
  139.8251  152.2946  133.0540 H   0  0  0  0  0  0  0  0  0  0  0  0
  1  2  1  0
  2  3  1  0
  3  4  2  0
  3  5  1  0
  5  6  1  0
  6  7  1  0
  7  8  1  0
  8  9  2  0
  8 10  1  0
 10 11  1  0
 11 12  1  0
 12 13  1  0
 12 14  2  0
 11 15  2  0
 15 16  1  0
 16 17  2  0
 17 18  1  0
 18 19  2  0
 19 20  1  0
 20 21  1  0
 20 22  1  0
 19 23  1  0
 23 24  2  0
 24 10  1  0
 24 16  1  0
  1 25  1  0
  1 26  1  0
  1 27  1  0
  2 28  1  0
  2 29  1  0
  6 30  1  0
  6 31  1  0
 13 32  1  0
 13 33  1  0
 15 34  1  0
 17 35  1  0
 18 36  1  0
 20 37  1  0
 23 38  1  0
M  END
>  <UniqueID>  (34) 
33

>  <SMILES>  (34) 
CCC(=O)OCOC(=O)n1c(C(N)=O)cc2ccc(C(F)F)cc21

>  <Energy>  (34) 
69.17379363743117

>  <Genealogy>  (34) 
CCC(=O)OCOC(=O)n1c(C(N)=O)cc2ccc(C(F)F)cc21 (3D coordinates assigned)
CCC(=O)OCOC(=O)n1c(C(N)=O)cc2ccc(C(F)F)cc21 (optimized conformer: 69.17379363743117 kcal/mol)

>  <smiles>  (34) 
CCC(=O)OCOC(=O)n1c(C(N)=O)cc2ccc(C(F)F)cc21

>  <score_type>  (34) 
oracle

>  <origin>  (34) 
adg

>  <m_score__min__energy>  (34) 
-5.7999999999999998

>  <m_primary>  (34) 
energy

$$$$
34:0
     RDKit          3D

 46 47  0  0  0  0  0  0  0  0999 V2000
  149.6380  151.5180  131.4470 C   0  0  0  0  0  0  0  0  0  0  0  0
  149.2390  152.7790  131.9360 O   0  0  0  0  0  0  0  0  0  0  0  0
  148.7960  152.6730  133.2770 C   0  0  0  0  0  0  0  0  0  0  0  0
  147.8750  153.8430  133.6350 C   0  0  0  0  0  0  0  0  0  0  0  0
  147.8290  154.8270  132.5520 N   0  0  0  0  0  0  0  0  0  0  0  0
  147.6250  156.2420  132.7350 C   0  0  0  0  0  0  0  0  0  0  0  0
  148.6930  157.1750  132.6280 C   0  0  0  0  0  0  0  0  0  0  0  0
  148.4700  158.5480  132.8210 C   0  0  0  0  0  0  0  0  0  0  0  0
  147.1730  158.9650  133.1070 C   0  0  0  0  0  0  0  0  0  0  0  0
  146.6870  160.2260  133.3700 C   0  0  0  0  0  0  0  0  0  0  0  0
  145.3250  160.0540  133.6070 C   0  0  0  0  0  0  0  0  0  0  0  0
  144.3930  161.1720  133.8590 C   0  0  0  0  0  0  0  0  0  0  0  0
  143.0270  161.0590  133.4680 N   0  0  0  0  0  0  0  0  0  0  0  0
  144.7810  162.2140  134.4500 O   0  0  0  0  0  0  0  0  0  0  0  0
  144.9850  158.7380  133.4980 N   0  0  0  0  0  0  0  0  0  0  0  0
  143.7060  158.1380  133.7560 C   0  0  0  0  0  0  0  0  0  0  0  0
  142.7340  158.3780  132.9900 O   0  0  0  0  0  0  0  0  0  0  0  0
  143.5560  157.2710  134.8450 O   0  0  0  0  0  0  0  0  0  0  0  0
  142.3050  157.0040  135.4820 C   0  0  0  0  0  0  0  0  0  0  0  0
  141.6070  158.3090  135.9430 C   0  0  1  0  0  0  0  0  0  0  0  0
  141.2070  158.1910  137.4240 C   0  0  0  0  0  0  0  0  0  0  0  0
  142.5070  159.3890  135.8400 O   0  0  0  0  0  0  0  0  0  0  0  0
  140.3840  158.5890  135.0910 C   0  0  0  0  0  0  0  0  0  0  0  0
  140.4400  159.4380  134.1620 O   0  0  0  0  0  0  0  0  0  0  0  0
  139.2070  157.8710  135.2780 O   0  0  0  0  0  0  0  0  0  0  0  0
  146.1270  158.0860  133.1910 C   0  0  0  0  0  0  0  0  0  0  0  0
  146.3230  156.7110  133.0200 C   0  0  0  0  0  0  0  0  0  0  0  0
  149.8502  150.8472  132.2926 H   0  0  0  0  0  0  0  0  0  0  0  0
  148.8312  151.0906  130.8335 H   0  0  0  0  0  0  0  0  0  0  0  0
  150.5438  151.6325  130.8335 H   0  0  0  0  0  0  0  0  0  0  0  0
  148.2460  151.7286  133.4024 H   0  0  0  0  0  0  0  0  0  0  0  0
  149.6717  152.6949  133.9423 H   0  0  0  0  0  0  0  0  0  0  0  0
  146.8600  153.4593  133.8153 H   0  0  0  0  0  0  0  0  0  0  0  0
  148.2682  154.3342  134.5373 H   0  0  0  0  0  0  0  0  0  0  0  0
  147.9400  154.4650  131.5790 H   0  0  0  0  0  0  0  0  0  0  0  0
  149.7058  156.8169  132.3913 H   0  0  0  0  0  0  0  0  0  0  0  0
  149.2950  159.2719  132.7484 H   0  0  0  0  0  0  0  0  0  0  0  0
  147.2535  161.1687  133.3890 H   0  0  0  0  0  0  0  0  0  0  0  0
  142.4150  160.3100  133.8610 H   0  0  0  0  0  0  0  0  0  0  0  0
  141.6481  156.4798  134.7722 H   0  0  0  0  0  0  0  0  0  0  0  0
  142.4977  156.3854  136.3710 H   0  0  0  0  0  0  0  0  0  0  0  0
  142.0691  158.4454  138.0580 H   0  0  0  0  0  0  0  0  0  0  0  0
  140.3788  158.8831  137.6364 H   0  0  0  0  0  0  0  0  0  0  0  0
  140.8871  157.1602  137.6364 H   0  0  0  0  0  0  0  0  0  0  0  0
  142.6150  159.6190  134.8800 H   0  0  0  0  0  0  0  0  0  0  0  0
  145.4802  156.0093  133.1058 H   0  0  0  0  0  0  0  0  0  0  0  0
  1  2  1  0
  2  3  1  0
  3  4  1  0
  4  5  1  0
  5  6  1  0
  6  7  2  0
  7  8  1  0
  8  9  2  0
  9 10  1  0
 10 11  2  0
 11 12  1  0
 12 13  1  0
 12 14  2  0
 11 15  1  0
 15 16  1  0
 16 17  2  0
 16 18  1  0
 18 19  1  0
 19 20  1  0
 20 21  1  0
 20 22  1  1
 20 23  1  0
 23 24  2  0
 23 25  1  0
 15 26  1  0
 26 27  2  0
 27  6  1  0
 26  9  1  0
  1 28  1  0
  1 29  1  0
  1 30  1  0
  3 31  1  0
  3 32  1  0
  4 33  1  0
  4 34  1  0
  5 35  1  0
  7 36  1  0
  8 37  1  0
 10 38  1  0
 13 39  1  0
 19 40  1  0
 19 41  1  0
 21 42  1  0
 21 43  1  0
 21 44  1  0
 22 45  1  0
 27 46  1  0
M  CHG  2  13  -1  25  -1
M  END
>  <UniqueID>  (35) 
34

>  <SMILES>  (35) 
COCCNc1ccc2cc(C([NH-])=O)n(C(=O)OC[C@@](C)(O)C(=O)[O-])c2c1

>  <Energy>  (35) 
83.17887048328504

>  <Genealogy>  (35) 
COCCNc1ccc2cc(C([NH-])=O)n(C(=O)OCC(C)(O)C(=O)[O-])c2c1 (protonated)
COCCNc1ccc2cc(C([NH-])=O)n(C(=O)OC[C@@](C)(O)C(=O)[O-])c2c1 (chirality)
COCCNc1ccc2cc(C([NH-])=O)n(C(=O)OC[C@@](C)(O)C(=O)[O-])c2c1 (3D coordinates assigned)
COCCNc1ccc2cc(C([NH-])=O)n(C(=O)OC[C@@](C)(O)C(=O)[O-])c2c1 (optimized conformer: 83.17887048328504 kcal/mol)

>  <smiles>  (35) 
COCCNc1ccc2cc(C(N)=O)n(C(=O)OCC(C)(O)C(=O)O)c2c1

>  <score_type>  (35) 
oracle

>  <origin>  (35) 
adg

>  <m_score__min__energy>  (35) 
-6.8300000000000001

>  <m_primary>  (35) 
energy

$$$$
35:0
     RDKit          3D

 39 40  0  0  0  0  0  0  0  0999 V2000
  144.0680  154.2420  136.0830 C   0  0  0  0  0  0  0  0  0  0  0  0
  145.1620  154.9200  135.3060 C   0  0  0  0  0  0  0  0  0  0  0  0
  144.8180  155.6900  134.2530 C   0  0  0  0  0  0  0  0  0  0  0  0
  145.7220  156.5750  133.4790 C   0  0  0  0  0  0  0  0  0  0  0  0
  146.7050  156.1110  132.8430 O   0  0  0  0  0  0  0  0  0  0  0  0
  145.5020  157.9940  133.4820 N   0  0  0  0  0  0  0  0  0  0  0  0
  146.4420  158.9710  133.6050 C   0  0  0  0  0  0  0  0  0  0  0  0
  147.9050  158.7620  133.6270 C   0  0  0  0  0  0  0  0  0  0  0  0
  148.4830  157.6060  134.2350 N   0  0  0  0  0  0  0  0  0  0  0  0
  148.6550  159.5990  133.0590 O   0  0  0  0  0  0  0  0  0  0  0  0
  145.8380  160.2210  133.7120 C   0  0  0  0  0  0  0  0  0  0  0  0
  144.4840  159.9760  133.6500 C   0  0  0  0  0  0  0  0  0  0  0  0
  143.4120  160.8540  133.7390 C   0  0  0  0  0  0  0  0  0  0  0  0
  142.1140  160.3190  133.7030 C   0  0  0  0  0  0  0  0  0  0  0  0
  141.9000  158.9150  133.5940 C   0  0  0  0  0  0  0  0  0  0  0  0
  140.5550  158.3690  133.5730 N   0  0  0  0  0  0  0  0  0  0  0  0
  139.7780  158.3450  132.3270 C   0  0  0  0  0  0  0  0  0  0  0  0
  139.9490  157.8300  134.7970 C   0  0  0  0  0  0  0  0  0  0  0  0
  143.0280  158.0580  133.5140 C   0  0  0  0  0  0  0  0  0  0  0  0
  144.3070  158.6240  133.5190 C   0  0  0  0  0  0  0  0  0  0  0  0
  146.5560  154.7170  135.7560 C   0  0  0  0  0  0  0  0  0  0  0  0
  147.4380  155.5890  135.5420 O   0  0  0  0  0  0  0  0  0  0  0  0
  146.9240  153.5130  136.3460 O   0  0  0  0  0  0  0  0  0  0  0  0
  144.2568  154.3590  137.1603 H   0  0  0  0  0  0  0  0  0  0  0  0
  143.1003  154.6989  135.8286 H   0  0  0  0  0  0  0  0  0  0  0  0
  144.0465  153.1720  135.8286 H   0  0  0  0  0  0  0  0  0  0  0  0
  143.7646  155.6584  133.9379 H   0  0  0  0  0  0  0  0  0  0  0  0
  149.5220  157.5120  134.2950 H   0  0  0  0  0  0  0  0  0  0  0  0
  147.8950  156.7970  134.5290 H   0  0  0  0  0  0  0  0  0  0  0  0
  146.3357  161.1957  133.8224 H   0  0  0  0  0  0  0  0  0  0  0  0
  143.5748  161.9377  133.8350 H   0  0  0  0  0  0  0  0  0  0  0  0
  141.2484  160.9953  133.7599 H   0  0  0  0  0  0  0  0  0  0  0  0
  138.7045  158.3118  132.5649 H   0  0  0  0  0  0  0  0  0  0  0  0
  139.9960  159.2503  131.7414 H   0  0  0  0  0  0  0  0  0  0  0  0
  140.0515  157.4549  131.7414 H   0  0  0  0  0  0  0  0  0  0  0  0
  140.4437  158.2700  135.6755 H   0  0  0  0  0  0  0  0  0  0  0  0
  138.8778  158.0792  134.8162 H   0  0  0  0  0  0  0  0  0  0  0  0
  140.0716  156.7370  134.8162 H   0  0  0  0  0  0  0  0  0  0  0  0
  142.8989  156.9675  133.4492 H   0  0  0  0  0  0  0  0  0  0  0  0
  1  2  1  0
  2  3  2  3
  3  4  1  0
  4  5  2  0
  4  6  1  0
  6  7  1  0
  7  8  1  0
  8  9  1  0
  8 10  2  0
  7 11  2  0
 11 12  1  0
 12 13  2  0
 13 14  1  0
 14 15  2  0
 15 16  1  0
 16 17  1  0
 16 18  1  0
 15 19  1  0
 19 20  2  0
  2 21  1  0
 21 22  2  0
 21 23  1  0
 20  6  1  0
 20 12  1  0
  1 24  1  0
  1 25  1  0
  1 26  1  0
  3 27  1  0
  9 28  1  0
  9 29  1  0
 11 30  1  0
 13 31  1  0
 14 32  1  0
 17 33  1  0
 17 34  1  0
 17 35  1  0
 18 36  1  0
 18 37  1  0
 18 38  1  0
 19 39  1  0
M  CHG  1  23  -1
M  END
>  <UniqueID>  (36) 
35

>  <SMILES>  (36) 
CC(=CC(=O)n1c(C(N)=O)cc2ccc(N(C)C)cc21)C(=O)[O-]

>  <Energy>  (36) 
87.31570258866306

>  <Genealogy>  (36) 
CC(=CC(=O)n1c(C(N)=O)cc2ccc(N(C)C)cc21)C(=O)[O-] (protonated)
CC(=CC(=O)n1c(C(N)=O)cc2ccc(N(C)C)cc21)C(=O)[O-] (3D coordinates assigned)
CC(=CC(=O)n1c(C(N)=O)cc2ccc(N(C)C)cc21)C(=O)[O-] (optimized conformer: 87.31570258866306 kcal/mol)

>  <smiles>  (36) 
CC(=CC(=O)n1c(C(N)=O)cc2ccc(N(C)C)cc21)C(=O)O

>  <score_type>  (36) 
oracle

>  <origin>  (36) 
adg

>  <m_score__min__energy>  (36) 
-7.0099999999999998

>  <m_primary>  (36) 
energy

$$$$
36:0
     RDKit          3D

 39 40  0  0  0  0  0  0  0  0999 V2000
  139.4770  157.0260  132.7970 C   0  0  0  0  0  0  0  0  0  0  0  0
  139.7100  158.4370  132.4810 N   0  0  0  0  0  0  0  0  0  0  0  0
  139.2180  159.0170  131.2280 C   0  0  0  0  0  0  0  0  0  0  0  0
  140.4270  159.2590  133.4170 C   0  0  0  0  0  0  0  0  0  0  0  0
  140.6260  160.4800  133.1650 O   0  0  0  0  0  0  0  0  0  0  0  0
  140.9020  158.7010  134.6080 O   0  0  0  0  0  0  0  0  0  0  0  0
  142.0670  159.1780  135.2740 C   0  0  0  0  0  0  0  0  0  0  0  0
  143.1860  158.3750  134.9130 O   0  0  0  0  0  0  0  0  0  0  0  0
  143.8180  158.4690  133.6690 C   0  0  0  0  0  0  0  0  0  0  0  0
  143.2270  158.0860  132.6230 O   0  0  0  0  0  0  0  0  0  0  0  0
  145.1360  159.0310  133.5810 N   0  0  0  0  0  0  0  0  0  0  0  0
  145.4810  160.3490  133.5560 C   0  0  0  0  0  0  0  0  0  0  0  0
  144.5700  161.4900  133.7920 C   0  0  0  0  0  0  0  0  0  0  0  0
  143.1570  161.3270  133.7070 N   0  0  0  0  0  0  0  0  0  0  0  0
  145.0440  162.6090  134.1180 O   0  0  0  0  0  0  0  0  0  0  0  0
  146.8520  160.4920  133.3520 C   0  0  0  0  0  0  0  0  0  0  0  0
  147.3420  159.2100  133.2590 C   0  0  0  0  0  0  0  0  0  0  0  0
  148.6400  158.7630  133.0310 C   0  0  0  0  0  0  0  0  0  0  0  0
  148.8530  157.3770  132.9400 C   0  0  0  0  0  0  0  0  0  0  0  0
  147.7760  156.4660  133.0890 C   0  0  0  0  0  0  0  0  0  0  0  0
  148.0070  154.9860  132.9250 C   0  0  0  0  0  0  0  0  0  0  0  0
  146.9420  154.4310  132.2410 F   0  0  0  0  0  0  0  0  0  0  0  0
  148.1190  154.3690  134.1600 F   0  0  0  0  0  0  0  0  0  0  0  0
  149.1720  154.7480  132.2160 F   0  0  0  0  0  0  0  0  0  0  0  0
  146.4680  156.9620  133.2960 C   0  0  0  0  0  0  0  0  0  0  0  0
  146.2870  158.3460  133.4010 C   0  0  0  0  0  0  0  0  0  0  0  0
  139.4551  156.8935  133.8888 H   0  0  0  0  0  0  0  0  0  0  0  0
  138.5143  156.7087  132.3698 H   0  0  0  0  0  0  0  0  0  0  0  0
  140.2866  156.4160  132.3698 H   0  0  0  0  0  0  0  0  0  0  0  0
  138.5214  159.8382  131.4527 H   0  0  0  0  0  0  0  0  0  0  0  0
  140.0666  159.4051  130.6455 H   0  0  0  0  0  0  0  0  0  0  0  0
  138.6968  158.2431  130.6455 H   0  0  0  0  0  0  0  0  0  0  0  0
  142.2552  160.2213  134.9805 H   0  0  0  0  0  0  0  0  0  0  0  0
  141.9140  159.1234  136.3619 H   0  0  0  0  0  0  0  0  0  0  0  0
  142.7250  160.3770  133.6860 H   0  0  0  0  0  0  0  0  0  0  0  0
  147.4214  161.4305  133.2805 H   0  0  0  0  0  0  0  0  0  0  0  0
  149.4737  159.4728  132.9253 H   0  0  0  0  0  0  0  0  0  0  0  0
  149.8667  156.9941  132.7510 H   0  0  0  0  0  0  0  0  0  0  0  0
  145.6119  156.2755  133.3728 H   0  0  0  0  0  0  0  0  0  0  0  0
  1  2  1  0
  2  3  1  0
  2  4  1  0
  4  5  2  0
  4  6  1  0
  6  7  1  0
  7  8  1  0
  8  9  1  0
  9 10  2  0
  9 11  1  0
 11 12  1  0
 12 13  1  0
 13 14  1  0
 13 15  2  0
 12 16  2  0
 16 17  1  0
 17 18  2  0
 18 19  1  0
 19 20  2  0
 20 21  1  0
 21 22  1  0
 21 23  1  0
 21 24  1  0
 20 25  1  0
 25 26  2  0
 26 11  1  0
 26 17  1  0
  1 27  1  0
  1 28  1  0
  1 29  1  0
  3 30  1  0
  3 31  1  0
  3 32  1  0
  7 33  1  0
  7 34  1  0
 14 35  1  0
 16 36  1  0
 18 37  1  0
 19 38  1  0
 25 39  1  0
M  CHG  1  14  -1
M  END
>  <UniqueID>  (37) 
36

>  <SMILES>  (37) 
CN(C)C(=O)OCOC(=O)n1c(C([NH-])=O)cc2ccc(C(F)(F)F)cc21

>  <Energy>  (37) 
71.64235208713045

>  <Genealogy>  (37) 
CN(C)C(=O)OCOC(=O)n1c(C([NH-])=O)cc2ccc(C(F)(F)F)cc21 (protonated)
CN(C)C(=O)OCOC(=O)n1c(C([NH-])=O)cc2ccc(C(F)(F)F)cc21 (3D coordinates assigned)
CN(C)C(=O)OCOC(=O)n1c(C([NH-])=O)cc2ccc(C(F)(F)F)cc21 (optimized conformer: 71.64235208713045 kcal/mol)

>  <smiles>  (37) 
CN(C)C(=O)OCOC(=O)n1c(C(N)=O)cc2ccc(C(F)(F)F)cc21

>  <score_type>  (37) 
oracle

>  <origin>  (37) 
adg

>  <m_score__min__energy>  (37) 
-5.9699999999999998

>  <m_primary>  (37) 
energy

$$$$
37:0
     RDKit          3D

 45 46  0  0  0  0  0  0  0  0999 V2000
  148.8790  160.9030  130.7410 C   0  0  0  0  0  0  0  0  0  0  0  0
  148.5980  159.9710  131.9140 C   0  0  0  0  0  0  0  0  0  0  0  0
  147.5760  160.5090  132.7510 O   0  0  0  0  0  0  0  0  0  0  0  0
  146.4010  159.8210  133.0720 C   0  0  0  0  0  0  0  0  0  0  0  0
  145.3410  160.4480  133.3490 O   0  0  0  0  0  0  0  0  0  0  0  0
  146.4070  158.3250  133.1110 C   0  0  0  0  0  0  0  0  0  0  0  0
  145.0600  157.8130  133.3610 N   0  0  0  0  0  0  0  0  0  0  0  0
  144.7050  156.4170  133.3420 C   0  0  0  0  0  0  0  0  0  0  0  0
  145.7370  155.4450  133.3130 C   0  0  0  0  0  0  0  0  0  0  0  0
  145.4370  154.0730  133.3030 C   0  0  0  0  0  0  0  0  0  0  0  0
  144.0980  153.6980  133.3320 C   0  0  0  0  0  0  0  0  0  0  0  0
  143.5260  152.4470  133.3190 C   0  0  0  0  0  0  0  0  0  0  0  0
  142.1500  152.6690  133.3550 C   0  0  0  0  0  0  0  0  0  0  0  0
  141.1440  151.5850  133.4020 C   0  0  0  0  0  0  0  0  0  0  0  0
  140.2630  151.3510  132.3080 N   0  0  0  0  0  0  0  0  0  0  0  0
  141.0430  150.8730  134.4370 O   0  0  0  0  0  0  0  0  0  0  0  0
  141.8840  154.0040  133.3910 N   0  0  0  0  0  0  0  0  0  0  0  0
  140.5980  154.6450  133.3490 C   0  0  0  0  0  0  0  0  0  0  0  0
  139.6840  154.1480  132.6390 O   0  0  0  0  0  0  0  0  0  0  0  0
  140.3200  155.8860  134.1000 C   0  0  0  0  0  0  0  0  0  0  0  0
  139.9530  157.0230  133.5020 C   0  0  0  0  0  0  0  0  0  0  0  0
  139.6820  158.2370  134.2950 C   0  0  0  0  0  0  0  0  0  0  0  0
  140.6230  159.0880  134.7310 C   0  0  0  0  0  0  0  0  0  0  0  0
  142.0510  159.0580  134.3610 C   0  0  0  0  0  0  0  0  0  0  0  0
  142.8730  158.5010  135.1340 O   0  0  0  0  0  0  0  0  0  0  0  0
  142.5230  159.6950  133.2200 O   0  0  0  0  0  0  0  0  0  0  0  0
  143.0870  154.6210  133.3680 C   0  0  0  0  0  0  0  0  0  0  0  0
  143.3540  155.9930  133.3590 C   0  0  0  0  0  0  0  0  0  0  0  0
  149.1770  161.8913  131.1211 H   0  0  0  0  0  0  0  0  0  0  0  0
  149.6913  160.4859  130.1277 H   0  0  0  0  0  0  0  0  0  0  0  0
  147.9715  161.0044  130.1277 H   0  0  0  0  0  0  0  0  0  0  0  0
  148.2721  158.9936  131.5287 H   0  0  0  0  0  0  0  0  0  0  0  0
  149.5184  159.8598  132.5061 H   0  0  0  0  0  0  0  0  0  0  0  0
  146.7674  157.9393  132.1459 H   0  0  0  0  0  0  0  0  0  0  0  0
  147.0699  157.9933  133.9237 H   0  0  0  0  0  0  0  0  0  0  0  0
  144.3060  158.5180  133.5280 H   0  0  0  0  0  0  0  0  0  0  0  0
  146.7877  155.7703  133.2981 H   0  0  0  0  0  0  0  0  0  0  0  0
  146.2365  153.3181  133.2731 H   0  0  0  0  0  0  0  0  0  0  0  0
  144.0442  151.4773  133.2870 H   0  0  0  0  0  0  0  0  0  0  0  0
  139.7570  152.1390  131.8470 H   0  0  0  0  0  0  0  0  0  0  0  0
  140.4191  155.8737  135.1955 H   0  0  0  0  0  0  0  0  0  0  0  0
  139.8519  157.0542  132.4071 H   0  0  0  0  0  0  0  0  0  0  0  0
  138.6347  158.4602  134.5465 H   0  0  0  0  0  0  0  0  0  0  0  0
  140.3015  159.8779  135.4257 H   0  0  0  0  0  0  0  0  0  0  0  0
  142.5339  156.7261  133.3650 H   0  0  0  0  0  0  0  0  0  0  0  0
  1  2  1  0
  2  3  1  0
  3  4  1  0
  4  5  2  0
  4  6  1  0
  6  7  1  0
  7  8  1  0
  8  9  2  0
  9 10  1  0
 10 11  2  0
 11 12  1  0
 12 13  2  0
 13 14  1  0
 14 15  1  0
 14 16  2  0
 13 17  1  0
 17 18  1  0
 18 19  2  0
 18 20  1  0
 20 21  2  3
 21 22  1  0
 22 23  2  3
 23 24  1  0
 24 25  2  0
 24 26  1  0
 17 27  1  0
 27 28  2  0
 28  8  1  0
 27 11  1  0
  1 29  1  0
  1 30  1  0
  1 31  1  0
  2 32  1  0
  2 33  1  0
  6 34  1  0
  6 35  1  0
  7 36  1  0
  9 37  1  0
 10 38  1  0
 12 39  1  0
 15 40  1  0
 20 41  1  0
 21 42  1  0
 22 43  1  0
 23 44  1  0
 28 45  1  0
M  CHG  2  15  -1  26  -1
M  END
>  <UniqueID>  (38) 
37

>  <SMILES>  (38) 
CCOC(=O)CNc1ccc2cc(C([NH-])=O)n(C(=O)C=CC=CC(=O)[O-])c2c1

>  <Energy>  (38) 
79.27254581379113

>  <Genealogy>  (38) 
CCOC(=O)CNc1ccc2cc(C([NH-])=O)n(C(=O)C=CC=CC(=O)[O-])c2c1 (protonated)
CCOC(=O)CNc1ccc2cc(C([NH-])=O)n(C(=O)C=CC=CC(=O)[O-])c2c1 (3D coordinates assigned)
CCOC(=O)CNc1ccc2cc(C([NH-])=O)n(C(=O)C=CC=CC(=O)[O-])c2c1 (optimized conformer: 79.27254581379113 kcal/mol)

>  <smiles>  (38) 
CCOC(=O)CNc1ccc2cc(C(N)=O)n(C(=O)C=CC=CC(=O)O)c2c1

>  <score_type>  (38) 
oracle

>  <origin>  (38) 
adg

>  <m_score__min__energy>  (38) 
-7.2800000000000002

>  <m_primary>  (38) 
energy

$$$$
38:0
     RDKit          3D

 41 42  0  0  0  0  0  0  0  0999 V2000
  146.3730  154.1230  132.9250 C   0  0  0  0  0  0  0  0  0  0  0  0
  147.5780  154.9580  132.8530 N   0  0  0  0  0  0  0  0  0  0  0  0
  148.8740  154.3130  132.6040 C   0  0  0  0  0  0  0  0  0  0  0  0
  147.4920  156.3970  133.0270 C   0  0  0  0  0  0  0  0  0  0  0  0
  148.6610  157.2070  132.9690 C   0  0  0  0  0  0  0  0  0  0  0  0
  148.5870  158.6010  133.1230 C   0  0  0  0  0  0  0  0  0  0  0  0
  147.3380  159.1680  133.3420 C   0  0  0  0  0  0  0  0  0  0  0  0
  146.9820  160.4880  133.4980 C   0  0  0  0  0  0  0  0  0  0  0  0
  145.6000  160.4790  133.6750 C   0  0  0  0  0  0  0  0  0  0  0  0
  144.7960  161.6870  133.9690 C   0  0  0  0  0  0  0  0  0  0  0  0
  143.4060  161.7340  133.6450 N   0  0  0  0  0  0  0  0  0  0  0  0
  145.3410  162.6990  134.4820 O   0  0  0  0  0  0  0  0  0  0  0  0
  145.1220  159.2030  133.6290 N   0  0  0  0  0  0  0  0  0  0  0  0
  143.7500  158.7840  133.6960 C   0  0  0  0  0  0  0  0  0  0  0  0
  142.9990  159.2290  134.6070 O   0  0  0  0  0  0  0  0  0  0  0  0
  143.2540  157.8770  132.7520 O   0  0  0  0  0  0  0  0  0  0  0  0
  142.2510  156.9060  133.0470 C   0  0  0  0  0  0  0  0  0  0  0  0
  140.9380  157.5960  133.4380 C   0  0  0  0  0  0  0  0  0  0  0  0
  140.5190  158.6470  132.4060 C   0  0  0  0  0  0  0  0  0  0  0  0
  141.2030  159.8530  132.6120 O   0  0  0  0  0  0  0  0  0  0  0  0
  146.1990  158.4130  133.4220 C   0  0  0  0  0  0  0  0  0  0  0  0
  146.2390  157.0240  133.2530 C   0  0  0  0  0  0  0  0  0  0  0  0
  146.1138  153.9434  133.9788 H   0  0  0  0  0  0  0  0  0  0  0  0
  145.5395  154.6382  132.4251 H   0  0  0  0  0  0  0  0  0  0  0  0
  146.5626  153.1617  132.4251 H   0  0  0  0  0  0  0  0  0  0  0  0
  149.3549  154.0737  133.5639 H   0  0  0  0  0  0  0  0  0  0  0  0
  148.7186  153.3871  132.0308 H   0  0  0  0  0  0  0  0  0  0  0  0
  149.5190  154.9952  132.0308 H   0  0  0  0  0  0  0  0  0  0  0  0
  149.6392  156.7330  132.8006 H   0  0  0  0  0  0  0  0  0  0  0  0
  149.4913  159.2253  133.0717 H   0  0  0  0  0  0  0  0  0  0  0  0
  147.6471  161.3641  133.4856 H   0  0  0  0  0  0  0  0  0  0  0  0
  142.8570  162.6050  133.8210 H   0  0  0  0  0  0  0  0  0  0  0  0
  142.9070  160.8980  133.2700 H   0  0  0  0  0  0  0  0  0  0  0  0
  142.0808  156.2793  132.1591 H   0  0  0  0  0  0  0  0  0  0  0  0
  142.5921  156.2847  133.8882 H   0  0  0  0  0  0  0  0  0  0  0  0
  140.1458  156.8367  133.5148 H   0  0  0  0  0  0  0  0  0  0  0  0
  141.0925  158.1047  134.4010 H   0  0  0  0  0  0  0  0  0  0  0  0
  140.7469  158.2718  131.3974 H   0  0  0  0  0  0  0  0  0  0  0  0
  139.4401  158.8330  132.5130 H   0  0  0  0  0  0  0  0  0  0  0  0
  142.1720  159.6400  132.5780 H   0  0  0  0  0  0  0  0  0  0  0  0
  145.3150  156.4286  133.2947 H   0  0  0  0  0  0  0  0  0  0  0  0
  1  2  1  0
  2  3  1  0
  2  4  1  0
  4  5  2  0
  5  6  1  0
  6  7  2  0
  7  8  1  0
  8  9  2  0
  9 10  1  0
 10 11  1  0
 10 12  2  0
  9 13  1  0
 13 14  1  0
 14 15  2  0
 14 16  1  0
 16 17  1  0
 17 18  1  0
 18 19  1  0
 19 20  1  0
 13 21  1  0
 21 22  2  0
 22  4  1  0
 21  7  1  0
  1 23  1  0
  1 24  1  0
  1 25  1  0
  3 26  1  0
  3 27  1  0
  3 28  1  0
  5 29  1  0
  6 30  1  0
  8 31  1  0
 11 32  1  0
 11 33  1  0
 17 34  1  0
 17 35  1  0
 18 36  1  0
 18 37  1  0
 19 38  1  0
 19 39  1  0
 20 40  1  0
 22 41  1  0
M  END
>  <UniqueID>  (39) 
38

>  <SMILES>  (39) 
CN(C)c1ccc2cc(C(N)=O)n(C(=O)OCCCO)c2c1

>  <Energy>  (39) 
75.25511266997623

>  <Genealogy>  (39) 
CN(C)c1ccc2cc(C(N)=O)n(C(=O)OCCCO)c2c1 (3D coordinates assigned)
CN(C)c1ccc2cc(C(N)=O)n(C(=O)OCCCO)c2c1 (optimized conformer: 75.25511266997623 kcal/mol)

>  <smiles>  (39) 
CN(C)c1ccc2cc(C(N)=O)n(C(=O)OCCCO)c2c1

>  <score_type>  (39) 
oracle

>  <origin>  (39) 
adg

>  <m_score__min__energy>  (39) 
-6.1200000000000001

>  <m_primary>  (39) 
energy

$$$$
39:0
     RDKit          3D

 40 42  0  0  0  0  0  0  0  0999 V2000
  148.4800  161.5200  131.2940 N   0  0  0  0  0  0  0  0  0  0  0  0
  149.1980  160.2890  131.3170 C   0  0  0  0  0  0  0  0  0  0  0  0
  150.3600  160.2440  130.8330 O   0  0  0  0  0  0  0  0  0  0  0  0
  148.6230  159.0830  131.9490 C   0  0  0  0  0  0  0  0  0  0  0  0
  149.1990  157.8180  131.8510 C   0  0  0  0  0  0  0  0  0  0  0  0
  148.4260  157.0030  132.6450 C   0  0  0  0  0  0  0  0  0  0  0  0
  148.5470  155.6430  132.9190 C   0  0  0  0  0  0  0  0  0  0  0  0
  147.5920  155.0550  133.7650 C   0  0  0  0  0  0  0  0  0  0  0  0
  146.5320  155.8250  134.3030 C   0  0  0  0  0  0  0  0  0  0  0  0
  145.5380  155.1940  135.2360 C   0  0  0  0  0  0  0  0  0  0  0  0
  144.3160  154.8680  134.5060 N   0  0  0  0  0  0  0  0  0  0  0  0
  143.9200  153.6330  134.1370 C   0  0  0  0  0  0  0  0  0  0  0  0
  142.6770  153.7560  133.5510 C   0  0  0  0  0  0  0  0  0  0  0  0
  141.8730  152.6970  133.0240 N   0  0  0  0  0  0  0  0  0  0  0  0
  140.7140  152.9260  132.6200 O   0  0  0  0  0  0  0  0  0  0  0  0
  142.3710  151.4170  132.9580 O   0  0  0  0  0  0  0  0  0  0  0  0
  142.3550  155.0990  133.6000 C   0  0  0  0  0  0  0  0  0  0  0  0
  143.3750  155.7470  134.1930 N   0  0  0  0  0  0  0  0  0  0  0  0
  146.4490  157.2040  134.0130 C   0  0  0  0  0  0  0  0  0  0  0  0
  147.4250  157.7690  133.1840 C   0  0  0  0  0  0  0  0  0  0  0  0
  147.5300  159.0490  132.7640 N   0  0  0  0  0  0  0  0  0  0  0  0
  146.6210  160.1170  133.0670 C   0  0  0  0  0  0  0  0  0  0  0  0
  147.0260  161.1270  133.7060 O   0  0  0  0  0  0  0  0  0  0  0  0
  145.2930  160.0430  132.6300 O   0  0  0  0  0  0  0  0  0  0  0  0
  144.1730  160.0970  133.5100 C   0  0  0  0  0  0  0  0  0  0  0  0
  143.5550  158.7420  133.6490 C   0  0  0  0  0  0  0  0  0  0  0  0
  143.4350  157.9970  132.6420 O   0  0  0  0  0  0  0  0  0  0  0  0
  143.1390  158.2900  134.8940 O   0  0  0  0  0  0  0  0  0  0  0  0
  147.7670  161.7400  132.0250 H   0  0  0  0  0  0  0  0  0  0  0  0
  150.0839  157.5319  131.2635 H   0  0  0  0  0  0  0  0  0  0  0  0
  149.3648  155.0478  132.4865 H   0  0  0  0  0  0  0  0  0  0  0  0
  147.6682  153.9858  134.0121 H   0  0  0  0  0  0  0  0  0  0  0  0
  145.9672  154.2741  135.6598 H   0  0  0  0  0  0  0  0  0  0  0  0
  145.3010  155.8987  136.0467 H   0  0  0  0  0  0  0  0  0  0  0  0
  144.4842  152.6992  134.2774 H   0  0  0  0  0  0  0  0  0  0  0  0
  141.4293  155.5572  133.2216 H   0  0  0  0  0  0  0  0  0  0  0  0
  143.4190  156.7700  134.3950 H   0  0  0  0  0  0  0  0  0  0  0  0
  145.6373  157.8194  134.4283 H   0  0  0  0  0  0  0  0  0  0  0  0
  144.5050  160.4474  134.4985 H   0  0  0  0  0  0  0  0  0  0  0  0
  143.4259  160.7898  133.0954 H   0  0  0  0  0  0  0  0  0  0  0  0
  1  2  1  0
  2  3  2  0
  2  4  1  0
  4  5  2  0
  5  6  1  0
  6  7  2  0
  7  8  1  0
  8  9  2  0
  9 10  1  0
 10 11  1  0
 11 12  1  0
 12 13  2  0
 13 14  1  0
 14 15  2  0
 14 16  1  0
 13 17  1  0
 17 18  2  0
  9 19  1  0
 19 20  2  0
 20 21  1  0
 21 22  1  0
 22 23  2  0
 22 24  1  0
 24 25  1  0
 25 26  1  0
 26 27  2  0
 26 28  1  0
 21  4  1  0
 20  6  1  0
 18 11  1  0
  1 29  1  0
  5 30  1  0
  7 31  1  0
  8 32  1  0
 10 33  1  0
 10 34  1  0
 12 35  1  0
 17 36  1  0
 18 37  1  0
 19 38  1  0
 25 39  1  0
 25 40  1  0
M  CHG  5   1  -1  14   1  16  -1  18   1  28  -1
M  END
>  <UniqueID>  (40) 
39

>  <SMILES>  (40) 
[NH-]C(=O)c1cc2ccc(Cn3cc([N+](=O)[O-])c[nH+]3)cc2n1C(=O)OCC(=O)[O-]

>  <Energy>  (40) 
108.5031842768492

>  <Genealogy>  (40) 
[NH-]C(=O)c1cc2ccc(Cn3cc([N+](=O)[O-])c[nH+]3)cc2n1C(=O)OCC(=O)[O-] (protonated)
[NH-]C(=O)c1cc2ccc(Cn3cc([N+](=O)[O-])c[nH+]3)cc2n1C(=O)OCC(=O)[O-] (3D coordinates assigned)
[NH-]C(=O)c1cc2ccc(Cn3cc([N+](=O)[O-])c[nH+]3)cc2n1C(=O)OCC(=O)[O-] (optimized conformer: 108.5031842768492 kcal/mol)

>  <smiles>  (40) 
NC(=O)c1cc2ccc(Cn3cc([N+](=O)[O-])cn3)cc2n1C(=O)OCC(=O)O

>  <score_type>  (40) 
oracle

>  <origin>  (40) 
adg

>  <m_score__min__energy>  (40) 
-6.6699999999999999

>  <m_primary>  (40) 
energy

$$$$
40:0
     RDKit          3D

 41 42  0  0  0  0  0  0  0  0999 V2000
  148.8520  153.8280  132.4570 C   0  0  0  0  0  0  0  0  0  0  0  0
  148.4450  154.9520  132.6140 C   0  0  0  0  0  0  0  0  0  0  0  0
  147.9590  156.2940  132.8000 C   0  0  0  0  0  0  0  0  0  0  0  0
  148.8660  157.3790  132.7970 C   0  0  0  0  0  0  0  0  0  0  0  0
  148.4010  158.6960  132.9690 C   0  0  0  0  0  0  0  0  0  0  0  0
  147.0330  158.8870  133.1400 C   0  0  0  0  0  0  0  0  0  0  0  0
  146.3100  160.0480  133.3110 C   0  0  0  0  0  0  0  0  0  0  0  0
  144.9810  159.6440  133.4160 C   0  0  0  0  0  0  0  0  0  0  0  0
  143.8530  160.5720  133.6460 C   0  0  0  0  0  0  0  0  0  0  0  0
  142.5120  160.1850  133.3570 N   0  0  0  0  0  0  0  0  0  0  0  0
  144.0750  161.7200  134.1150 O   0  0  0  0  0  0  0  0  0  0  0  0
  144.8870  158.2890  133.3020 N   0  0  0  0  0  0  0  0  0  0  0  0
  143.7020  157.4800  133.3170 C   0  0  0  0  0  0  0  0  0  0  0  0
  142.9370  157.4970  132.3130 O   0  0  0  0  0  0  0  0  0  0  0  0
  143.3650  156.6760  134.4680 N   0  0  0  0  0  0  0  0  0  0  0  0
  141.9770  156.6420  134.9340 C   0  0  0  0  0  0  0  0  0  0  0  0
  144.4050  155.9460  135.2060 C   0  0  0  0  0  0  0  0  0  0  0  0
  144.0130  154.4740  135.3660 C   0  0  0  0  0  0  0  0  0  0  0  0
  144.7610  153.8660  136.4740 N   0  0  0  0  0  0  0  0  0  0  0  0
  144.0470  153.3610  137.6500 C   0  0  0  0  0  0  0  0  0  0  0  0
  146.1970  153.7900  136.4380 C   0  0  0  0  0  0  0  0  0  0  0  0
  146.8680  154.6420  135.7950 O   0  0  0  0  0  0  0  0  0  0  0  0
  146.8630  152.7730  137.1110 O   0  0  0  0  0  0  0  0  0  0  0  0
  146.1480  157.8400  133.1470 C   0  0  0  0  0  0  0  0  0  0  0  0
  146.5800  156.5210  132.9790 C   0  0  0  0  0  0  0  0  0  0  0  0
  149.2233  152.8025  132.3138 H   0  0  0  0  0  0  0  0  0  0  0  0
  149.9413  157.1924  132.6594 H   0  0  0  0  0  0  0  0  0  0  0  0
  149.0969  159.5479  132.9683 H   0  0  0  0  0  0  0  0  0  0  0  0
  146.6998  161.0757  133.3552 H   0  0  0  0  0  0  0  0  0  0  0  0
  142.2960  159.5510  132.5560 H   0  0  0  0  0  0  0  0  0  0  0  0
  141.9594  156.6416  136.0339 H   0  0  0  0  0  0  0  0  0  0  0  0
  141.4426  157.5273  134.5591 H   0  0  0  0  0  0  0  0  0  0  0  0
  141.4865  155.7316  134.5591 H   0  0  0  0  0  0  0  0  0  0  0  0
  145.3541  156.0103  134.6537 H   0  0  0  0  0  0  0  0  0  0  0  0
  144.5168  156.3958  136.2036 H   0  0  0  0  0  0  0  0  0  0  0  0
  142.9352  154.4059  135.5750 H   0  0  0  0  0  0  0  0  0  0  0  0
  144.2506  153.9368  134.4359 H   0  0  0  0  0  0  0  0  0  0  0  0
  144.5478  153.7152  138.5631 H   0  0  0  0  0  0  0  0  0  0  0  0
  143.0100  153.7276  137.6348 H   0  0  0  0  0  0  0  0  0  0  0  0
  144.0473  152.2611  137.6348 H   0  0  0  0  0  0  0  0  0  0  0  0
  145.8647  155.6854  132.9864 H   0  0  0  0  0  0  0  0  0  0  0  0
  1  2  3  0
  2  3  1  0
  3  4  2  0
  4  5  1  0
  5  6  2  0
  6  7  1  0
  7  8  2  0
  8  9  1  0
  9 10  1  0
  9 11  2  0
  8 12  1  0
 12 13  1  0
 13 14  2  0
 13 15  1  0
 15 16  1  0
 15 17  1  0
 17 18  1  0
 18 19  1  0
 19 20  1  0
 19 21  1  0
 21 22  2  0
 21 23  1  0
 12 24  1  0
 24 25  2  0
 25  3  1  0
 24  6  1  0
  1 26  1  0
  4 27  1  0
  5 28  1  0
  7 29  1  0
 10 30  1  0
 16 31  1  0
 16 32  1  0
 16 33  1  0
 17 34  1  0
 17 35  1  0
 18 36  1  0
 18 37  1  0
 20 38  1  0
 20 39  1  0
 20 40  1  0
 25 41  1  0
M  CHG  2  10  -1  23  -1
M  END
>  <UniqueID>  (41) 
40

>  <SMILES>  (41) 
C#Cc1ccc2cc(C([NH-])=O)n(C(=O)N(C)CCN(C)C(=O)[O-])c2c1

>  <Energy>  (41) 
70.27146231947971

>  <Genealogy>  (41) 
C#Cc1ccc2cc(C([NH-])=O)n(C(=O)N(C)CCN(C)C(=O)[O-])c2c1 (protonated)
C#Cc1ccc2cc(C([NH-])=O)n(C(=O)N(C)CCN(C)C(=O)[O-])c2c1 (3D coordinates assigned)
C#Cc1ccc2cc(C([NH-])=O)n(C(=O)N(C)CCN(C)C(=O)[O-])c2c1 (optimized conformer: 70.27146231947971 kcal/mol)

>  <smiles>  (41) 
C#Cc1ccc2cc(C(N)=O)n(C(=O)N(C)CCN(C)C(=O)O)c2c1

>  <score_type>  (41) 
oracle

>  <origin>  (41) 
adg

>  <m_score__min__energy>  (41) 
-7.0999999999999996

>  <m_primary>  (41) 
energy

$$$$
41:0
     RDKit          3D

 39 40  0  0  0  0  0  0  0  0999 V2000
  142.9640  161.1270  133.7360 N   0  0  0  0  0  0  0  0  0  0  0  0
  144.3660  161.3810  133.7470 C   0  0  0  0  0  0  0  0  0  0  0  0
  144.7760  162.5660  133.8680 O   0  0  0  0  0  0  0  0  0  0  0  0
  145.3400  160.2850  133.5600 C   0  0  0  0  0  0  0  0  0  0  0  0
  146.7090  160.5000  133.4180 C   0  0  0  0  0  0  0  0  0  0  0  0
  147.2500  159.2590  133.1800 C   0  0  0  0  0  0  0  0  0  0  0  0
  148.5760  158.8860  132.9740 C   0  0  0  0  0  0  0  0  0  0  0  0
  148.8540  157.5220  132.7820 C   0  0  0  0  0  0  0  0  0  0  0  0
  147.8120  156.5620  132.8090 C   0  0  0  0  0  0  0  0  0  0  0  0
  148.1160  155.1030  132.6240 C   0  0  0  0  0  0  0  0  0  0  0  0
  149.4830  154.9250  132.5050 F   0  0  0  0  0  0  0  0  0  0  0  0
  147.6560  154.3870  133.7140 F   0  0  0  0  0  0  0  0  0  0  0  0
  146.4790  156.9780  133.0240 C   0  0  0  0  0  0  0  0  0  0  0  0
  146.2280  158.3460  133.1910 C   0  0  0  0  0  0  0  0  0  0  0  0
  145.0460  158.9600  133.4270 N   0  0  0  0  0  0  0  0  0  0  0  0
  143.7710  158.3170  133.5820 C   0  0  0  0  0  0  0  0  0  0  0  0
  143.1740  157.8530  132.5740 O   0  0  0  0  0  0  0  0  0  0  0  0
  143.1820  158.2440  134.8510 O   0  0  0  0  0  0  0  0  0  0  0  0
  142.2700  157.2200  135.2510 C   0  0  0  0  0  0  0  0  0  0  0  0
  140.8090  157.7100  135.1910 C   0  0  0  0  0  0  0  0  0  0  0  0
  140.3840  157.9630  133.7290 C   0  0  0  0  0  0  0  0  0  0  0  0
  140.8480  159.2100  133.2840 O   0  0  0  0  0  0  0  0  0  0  0  0
  140.6020  158.9560  136.0710 C   0  0  0  0  0  0  0  0  0  0  0  0
  141.3380  160.0350  135.5640 O   0  0  0  0  0  0  0  0  0  0  0  0
  142.5880  160.1730  133.9310 H   0  0  0  0  0  0  0  0  0  0  0  0
  147.2436  161.4592  133.4826 H   0  0  0  0  0  0  0  0  0  0  0  0
  149.3807  159.6359  132.9620 H   0  0  0  0  0  0  0  0  0  0  0  0
  149.8904  157.1964  132.6091 H   0  0  0  0  0  0  0  0  0  0  0  0
  147.6158  154.7440  131.7124 H   0  0  0  0  0  0  0  0  0  0  0  0
  145.6587  156.2459  133.0594 H   0  0  0  0  0  0  0  0  0  0  0  0
  142.3853  156.3563  134.5796 H   0  0  0  0  0  0  0  0  0  0  0  0
  142.4982  156.9410  136.2903 H   0  0  0  0  0  0  0  0  0  0  0  0
  140.1608  156.9195  135.5970 H   0  0  0  0  0  0  0  0  0  0  0  0
  140.8040  157.1727  133.0894 H   0  0  0  0  0  0  0  0  0  0  0  0
  139.2854  157.9558  133.6749 H   0  0  0  0  0  0  0  0  0  0  0  0
  141.8020  159.2780  133.5530 H   0  0  0  0  0  0  0  0  0  0  0  0
  139.5339  159.2187  136.0832 H   0  0  0  0  0  0  0  0  0  0  0  0
  140.9465  158.7351  137.0920 H   0  0  0  0  0  0  0  0  0  0  0  0
  142.0610  159.6400  135.0110 H   0  0  0  0  0  0  0  0  0  0  0  0
  1  2  1  0
  2  3  2  0
  2  4  1  0
  4  5  2  0
  5  6  1  0
  6  7  2  0
  7  8  1  0
  8  9  2  0
  9 10  1  0
 10 11  1  0
 10 12  1  0
  9 13  1  0
 13 14  2  0
 14 15  1  0
 15 16  1  0
 16 17  2  0
 16 18  1  0
 18 19  1  0
 19 20  1  0
 20 21  1  0
 21 22  1  0
 20 23  1  0
 23 24  1  0
 15  4  1  0
 14  6  1  0
  1 25  1  0
  5 26  1  0
  7 27  1  0
  8 28  1  0
 10 29  1  0
 13 30  1  0
 19 31  1  0
 19 32  1  0
 20 33  1  0
 21 34  1  0
 21 35  1  0
 22 36  1  0
 23 37  1  0
 23 38  1  0
 24 39  1  0
M  CHG  1   1  -1
M  END
>  <UniqueID>  (42) 
41

>  <SMILES>  (42) 
[NH-]C(=O)c1cc2ccc(C(F)F)cc2n1C(=O)OCC(CO)CO

>  <Energy>  (42) 
73.47057498031066

>  <Genealogy>  (42) 
[NH-]C(=O)c1cc2ccc(C(F)F)cc2n1C(=O)OCC(CO)CO (protonated)
[NH-]C(=O)c1cc2ccc(C(F)F)cc2n1C(=O)OCC(CO)CO (3D coordinates assigned)
[NH-]C(=O)c1cc2ccc(C(F)F)cc2n1C(=O)OCC(CO)CO (optimized conformer: 73.47057498031066 kcal/mol)

>  <smiles>  (42) 
NC(=O)c1cc2ccc(C(F)F)cc2n1C(=O)OCC(CO)CO

>  <score_type>  (42) 
oracle

>  <origin>  (42) 
adg

>  <m_score__min__energy>  (42) 
-4.4000000000000004

>  <m_primary>  (42) 
energy

$$$$
42:0
     RDKit          3D

 37 38  0  0  0  0  0  0  0  0999 V2000
  147.6090  152.5670  134.2700 H   0  0  0  0  0  0  0  0  0  0  0  0
  148.5790  152.7950  133.9590 N   0  0  0  0  0  0  0  0  0  0  0  0
  148.8280  153.8850  133.0750 C   0  0  0  0  0  0  0  0  0  0  0  0
  149.7630  153.7980  132.2370 O   0  0  0  0  0  0  0  0  0  0  0  0
  148.0160  155.1140  133.1750 C   0  0  0  0  0  0  0  0  0  0  0  0
  148.4450  156.3610  132.7230 C   0  0  0  0  0  0  0  0  0  0  0  0
  149.4277  156.6153  132.2992 H   0  0  0  0  0  0  0  0  0  0  0  0
  147.3770  157.2060  132.9200 C   0  0  0  0  0  0  0  0  0  0  0  0
  147.2480  158.5650  132.6520 C   0  0  0  0  0  0  0  0  0  0  0  0
  148.0718  159.1336  132.1958 H   0  0  0  0  0  0  0  0  0  0  0  0
  146.0330  159.1890  132.9820 C   0  0  0  0  0  0  0  0  0  0  0  0
  145.8948  160.2583  132.7640 H   0  0  0  0  0  0  0  0  0  0  0  0
  144.9820  158.4570  133.5930 C   0  0  0  0  0  0  0  0  0  0  0  0
  143.6700  159.1290  133.9070 C   0  0  0  0  0  0  0  0  0  0  0  0
  143.8410  160.5000  133.8690 F   0  0  0  0  0  0  0  0  0  0  0  0
  142.7030  158.7690  132.9850 F   0  0  0  0  0  0  0  0  0  0  0  0
  143.2240  158.7650  135.1660 F   0  0  0  0  0  0  0  0  0  0  0  0
  145.1450  157.0720  133.8260 C   0  0  0  0  0  0  0  0  0  0  0  0
  144.3355  156.4782  134.2755 H   0  0  0  0  0  0  0  0  0  0  0  0
  146.3590  156.4740  133.4720 C   0  0  0  0  0  0  0  0  0  0  0  0
  146.7380  155.1890  133.6410 N   0  0  0  0  0  0  0  0  0  0  0  0
  145.9630  154.1530  134.2670 C   0  0  0  0  0  0  0  0  0  0  0  0
  146.2550  153.7850  135.4370 O   0  0  0  0  0  0  0  0  0  0  0  0
  144.9040  153.4450  133.5060 C   0  0  0  0  0  0  0  0  0  0  0  0
  145.1850  152.4080  132.6930 C   0  0  0  0  0  0  0  0  0  0  0  0
  144.3764  152.0066  132.0645 H   0  0  0  0  0  0  0  0  0  0  0  0
  146.4470  151.8140  132.6040 O   0  0  0  0  0  0  0  0  0  0  0  0
  147.1280  151.8370  133.3510 H   0  0  0  0  0  0  0  0  0  0  0  0
  143.5370  153.9000  133.6250 N   0  0  0  0  0  0  0  0  0  0  0  0
  143.1100  154.6760  134.7910 C   0  0  0  0  0  0  0  0  0  0  0  0
  143.4012  154.1468  135.7103 H   0  0  0  0  0  0  0  0  0  0  0  0
  143.5909  155.6651  134.7693 H   0  0  0  0  0  0  0  0  0  0  0  0
  142.0171  154.7991  134.7693 H   0  0  0  0  0  0  0  0  0  0  0  0
  142.5210  153.4330  132.6770 C   0  0  0  0  0  0  0  0  0  0  0  0
  141.6575  153.0361  133.2310 H   0  0  0  0  0  0  0  0  0  0  0  0
  142.1965  154.2723  132.0444 H   0  0  0  0  0  0  0  0  0  0  0  0
  142.9467  152.6402  132.0444 H   0  0  0  0  0  0  0  0  0  0  0  0
  1  2  1  0
  2  3  1  0
  3  4  2  0
  3  5  1  0
  5  6  2  0
  6  7  1  0
  6  8  1  0
  8  9  2  0
  9 10  1  0
  9 11  1  0
 11 12  1  0
 11 13  2  0
 13 14  1  0
 14 15  1  0
 14 16  1  0
 14 17  1  0
 13 18  1  0
 18 19  1  0
 18 20  2  0
 20 21  1  0
 21 22  1  0
 22 23  2  0
 22 24  1  0
 24 25  2  0
 25 26  1  0
 25 27  1  0
 27 28  1  0
 24 29  1  0
 29 30  1  0
 30 31  1  0
 30 32  1  0
 30 33  1  0
 29 34  1  0
 34 35  1  0
 34 36  1  0
 34 37  1  0
 21  5  1  0
 20  8  1  0
M  CHG  1   2  -1
M  END
>  <UniqueID>  (43) 
42

>  <SMILES>  (43) 
CN(C)/C(=C/O)C(=O)n1c(C([NH-])=O)cc2ccc(C(F)(F)F)cc21

>  <Energy>  (43) 
81.58243951436161

>  <Genealogy>  (43) 
CN(C)/C(=C/O)C(=O)n1c(C([NH-])=O)cc2ccc(C(F)(F)F)cc21 (protonated)
CN(C)/C(=C/O)C(=O)n1c(C([NH-])=O)cc2ccc(C(F)(F)F)cc21 (cis-trans isomerization)
CN(C)/C(=C/O)C(=O)n1c(C([NH-])=O)cc2ccc(C(F)(F)F)cc21 (3D coordinates assigned)
CN(C)/C(=C/O)C(=O)n1c(C([NH-])=O)cc2ccc(C(F)(F)F)cc21 (optimized conformer: 81.58243951436161 kcal/mol)

>  <smiles>  (43) 
CN(C)/C(=C/O)C(=O)n1c(C(N)=O)cc2ccc(C(F)(F)F)cc21

>  <score_type>  (43) 
oracle

>  <origin>  (43) 
adg

>  <m_score__min__energy>  (43) 
-5.3300000000000001

>  <m_primary>  (43) 
energy

$$$$
43:0
     RDKit          3D

 39 40  0  0  0  0  0  0  0  0999 V2000
  141.7490  158.6240  138.0550 C   0  0  0  0  0  0  0  0  0  0  0  0
  141.0150  159.2880  137.0320 O   0  0  0  0  0  0  0  0  0  0  0  0
  140.1850  158.6070  136.1370 C   0  0  0  0  0  0  0  0  0  0  0  0
  139.0380  158.2270  136.4980 O   0  0  0  0  0  0  0  0  0  0  0  0
  140.6580  158.3480  134.8080 N   0  0  0  0  0  0  0  0  0  0  0  0
  139.9050  157.6580  133.8010 C   0  0  0  0  0  0  0  0  0  0  0  0
  138.7420  157.2330  134.0450 O   0  0  0  0  0  0  0  0  0  0  0  0
  140.4780  157.4610  132.5410 O   0  0  0  0  0  0  0  0  0  0  0  0
  141.8170  157.8340  132.2330 C   0  0  0  0  0  0  0  0  0  0  0  0
  142.7210  157.0960  133.0480 O   0  0  0  0  0  0  0  0  0  0  0  0
  143.4950  157.6900  134.0480 C   0  0  0  0  0  0  0  0  0  0  0  0
  143.1820  157.5510  135.2610 O   0  0  0  0  0  0  0  0  0  0  0  0
  144.6410  158.4790  133.6890 N   0  0  0  0  0  0  0  0  0  0  0  0
  144.7530  159.8380  133.7040 C   0  0  0  0  0  0  0  0  0  0  0  0
  143.6540  160.7960  133.9450 C   0  0  0  0  0  0  0  0  0  0  0  0
  142.4190  160.3360  134.4920 N   0  0  0  0  0  0  0  0  0  0  0  0
  143.8060  162.0240  133.7110 O   0  0  0  0  0  0  0  0  0  0  0  0
  146.0510  160.2250  133.3770 C   0  0  0  0  0  0  0  0  0  0  0  0
  146.7360  159.0530  133.1530 C   0  0  0  0  0  0  0  0  0  0  0  0
  148.0690  158.8480  132.8090 C   0  0  0  0  0  0  0  0  0  0  0  0
  148.5180  157.5250  132.6710 C   0  0  0  0  0  0  0  0  0  0  0  0
  147.6330  156.4370  132.8850 C   0  0  0  0  0  0  0  0  0  0  0  0
  148.1220  155.0230  132.7560 C   0  0  0  0  0  0  0  0  0  0  0  0
  147.8040  154.3110  133.8990 F   0  0  0  0  0  0  0  0  0  0  0  0
  149.4940  155.0190  132.5820 F   0  0  0  0  0  0  0  0  0  0  0  0
  146.2880  156.6850  133.2350 C   0  0  0  0  0  0  0  0  0  0  0  0
  145.8630  158.0140  133.3470 C   0  0  0  0  0  0  0  0  0  0  0  0
  141.3853  158.9530  139.0396 H   0  0  0  0  0  0  0  0  0  0  0  0
  141.6119  157.5369  137.9579 H   0  0  0  0  0  0  0  0  0  0  0  0
  142.8170  158.8690  137.9579 H   0  0  0  0  0  0  0  0  0  0  0  0
  141.6150  158.6810  134.5570 H   0  0  0  0  0  0  0  0  0  0  0  0
  142.0216  157.6197  131.1737 H   0  0  0  0  0  0  0  0  0  0  0  0
  141.9486  158.9091  132.4250 H   0  0  0  0  0  0  0  0  0  0  0  0
  142.4020  159.6080  135.2380 H   0  0  0  0  0  0  0  0  0  0  0  0
  146.4446  161.2501  133.3118 H   0  0  0  0  0  0  0  0  0  0  0  0
  148.7501  159.6970  132.6501 H   0  0  0  0  0  0  0  0  0  0  0  0
  149.5648  157.3303  132.3946 H   0  0  0  0  0  0  0  0  0  0  0  0
  147.6390  154.5538  131.8862 H   0  0  0  0  0  0  0  0  0  0  0  0
  145.5906  155.8537  133.4154 H   0  0  0  0  0  0  0  0  0  0  0  0
  1  2  1  0
  2  3  1  0
  3  4  2  0
  3  5  1  0
  5  6  1  0
  6  7  2  0
  6  8  1  0
  8  9  1  0
  9 10  1  0
 10 11  1  0
 11 12  2  0
 11 13  1  0
 13 14  1  0
 14 15  1  0
 15 16  1  0
 15 17  2  0
 14 18  2  0
 18 19  1  0
 19 20  2  0
 20 21  1  0
 21 22  2  0
 22 23  1  0
 23 24  1  0
 23 25  1  0
 22 26  1  0
 26 27  2  0
 27 13  1  0
 27 19  1  0
  1 28  1  0
  1 29  1  0
  1 30  1  0
  5 31  1  0
  9 32  1  0
  9 33  1  0
 16 34  1  0
 18 35  1  0
 20 36  1  0
 21 37  1  0
 23 38  1  0
 26 39  1  0
M  CHG  1  16  -1
M  END
>  <UniqueID>  (44) 
43

>  <SMILES>  (44) 
COC(=O)NC(=O)OCOC(=O)n1c(C([NH-])=O)cc2ccc(C(F)F)cc21

>  <Energy>  (44) 
71.26644470155996

>  <Genealogy>  (44) 
COC(=O)NC(=O)OCOC(=O)n1c(C([NH-])=O)cc2ccc(C(F)F)cc21 (protonated)
COC(=O)NC(=O)OCOC(=O)n1c(C([NH-])=O)cc2ccc(C(F)F)cc21 (3D coordinates assigned)
COC(=O)NC(=O)OCOC(=O)n1c(C([NH-])=O)cc2ccc(C(F)F)cc21 (optimized conformer: 71.26644470155996 kcal/mol)

>  <smiles>  (44) 
COC(=O)NC(=O)OCOC(=O)n1c(C(N)=O)cc2ccc(C(F)F)cc21

>  <score_type>  (44) 
oracle

>  <origin>  (44) 
adg

>  <m_score__min__energy>  (44) 
-5.7199999999999998

>  <m_primary>  (44) 
energy

$$$$
44:0
     RDKit          3D

 49 51  0  0  0  0  0  0  0  0999 V2000
  139.0830  156.6980  133.6230 N   0  0  0  0  0  0  0  0  0  0  0  0
  139.9920  155.6440  133.3120 C   0  0  0  0  0  0  0  0  0  0  0  0
  139.5390  154.5160  132.9860 O   0  0  0  0  0  0  0  0  0  0  0  0
  141.4470  155.8950  133.3400 C   0  0  0  0  0  0  0  0  0  0  0  0
  142.3990  154.8990  133.5570 C   0  0  0  0  0  0  0  0  0  0  0  0
  143.6110  155.5510  133.5780 C   0  0  0  0  0  0  0  0  0  0  0  0
  144.8990  155.0460  133.7410 C   0  0  0  0  0  0  0  0  0  0  0  0
  145.9730  155.9510  133.6820 C   0  0  0  0  0  0  0  0  0  0  0  0
  145.7450  157.3310  133.4480 C   0  0  0  0  0  0  0  0  0  0  0  0
  146.8530  158.2490  133.3790 N   0  0  0  0  0  0  0  0  0  0  0  0
  146.5920  159.6880  133.2270 C   0  0  0  0  0  0  0  0  0  0  0  0
  147.8810  160.4740  132.9420 C   0  0  0  0  0  0  0  0  0  0  0  0
  148.7190  159.7560  131.9670 N   0  0  0  0  0  0  0  0  0  0  0  0
  149.4170  160.4650  130.9280 C   0  0  0  0  0  0  0  0  0  0  0  0
  149.3390  161.7200  130.8400 O   0  0  0  0  0  0  0  0  0  0  0  0
  150.1920  159.7710  130.0050 O   0  0  0  0  0  0  0  0  0  0  0  0
  148.9480  158.3090  132.1150 C   0  0  0  0  0  0  0  0  0  0  0  0
  148.2340  157.7520  133.3480 C   0  0  0  0  0  0  0  0  0  0  0  0
  144.4220  157.8050  133.2970 C   0  0  0  0  0  0  0  0  0  0  0  0
  143.3720  156.8850  133.3780 C   0  0  0  0  0  0  0  0  0  0  0  0
  142.0490  157.1120  133.2330 N   0  0  0  0  0  0  0  0  0  0  0  0
  141.4380  158.3770  132.9360 C   0  0  0  0  0  0  0  0  0  0  0  0
  140.4390  158.4240  132.1660 O   0  0  0  0  0  0  0  0  0  0  0  0
  141.9240  159.5440  133.5340 O   0  0  0  0  0  0  0  0  0  0  0  0
  141.3620  160.0810  134.7270 C   0  0  0  0  0  0  0  0  0  0  0  0
  140.1810  159.3570  135.0570 O   0  0  0  0  0  0  0  0  0  0  0  0
  140.1740  158.2820  135.9490 C   0  0  0  0  0  0  0  0  0  0  0  0
  139.1250  157.6040  136.1340 O   0  0  0  0  0  0  0  0  0  0  0  0
  141.4330  157.9210  136.6690 C   0  0  0  0  0  0  0  0  0  0  0  0
  141.4790  158.6100  137.9940 C   0  0  0  0  0  0  0  0  0  0  0  0
  140.9860  159.7620  138.1270 O   0  0  0  0  0  0  0  0  0  0  0  0
  142.1090  158.0030  139.0720 O   0  0  0  0  0  0  0  0  0  0  0  0
  139.4280  157.6260  133.9510 H   0  0  0  0  0  0  0  0  0  0  0  0
  142.2193  153.8213  133.6843 H   0  0  0  0  0  0  0  0  0  0  0  0
  145.0703  153.9727  133.9105 H   0  0  0  0  0  0  0  0  0  0  0  0
  147.0012  155.5849  133.8188 H   0  0  0  0  0  0  0  0  0  0  0  0
  145.8920  159.8367  132.3916 H   0  0  0  0  0  0  0  0  0  0  0  0
  146.1659  160.0600  134.1704 H   0  0  0  0  0  0  0  0  0  0  0  0
  147.6198  161.4624  132.5361 H   0  0  0  0  0  0  0  0  0  0  0  0
  148.4440  160.5856  133.8804 H   0  0  0  0  0  0  0  0  0  0  0  0
  148.5699  157.7938  131.2197 H   0  0  0  0  0  0  0  0  0  0  0  0
  150.0283  158.1410  132.2363 H   0  0  0  0  0  0  0  0  0  0  0  0
  148.2274  156.6529  133.3028 H   0  0  0  0  0  0  0  0  0  0  0  0
  148.7619  158.0781  134.2563 H   0  0  0  0  0  0  0  0  0  0  0  0
  144.2231  158.8723  133.1200 H   0  0  0  0  0  0  0  0  0  0  0  0
  142.0888  159.9927  135.5479 H   0  0  0  0  0  0  0  0  0  0  0  0
  141.1137  161.1415  134.5731 H   0  0  0  0  0  0  0  0  0  0  0  0
  141.4652  156.8323  136.8231 H   0  0  0  0  0  0  0  0  0  0  0  0
  142.2972  158.2381  136.0668 H   0  0  0  0  0  0  0  0  0  0  0  0
  1  2  1  0
  2  3  2  0
  2  4  1  0
  4  5  2  0
  5  6  1  0
  6  7  2  0
  7  8  1  0
  8  9  2  0
  9 10  1  0
 10 11  1  0
 11 12  1  0
 12 13  1  0
 13 14  1  0
 14 15  2  0
 14 16  1  0
 13 17  1  0
 17 18  1  0
  9 19  1  0
 19 20  2  0
 20 21  1  0
 21 22  1  0
 22 23  2  0
 22 24  1  0
 24 25  1  0
 25 26  1  0
 26 27  1  0
 27 28  2  0
 27 29  1  0
 29 30  1  0
 30 31  2  0
 30 32  1  0
 21  4  1  0
 20  6  1  0
 18 10  1  0
  1 33  1  0
  5 34  1  0
  7 35  1  0
  8 36  1  0
 11 37  1  0
 11 38  1  0
 12 39  1  0
 12 40  1  0
 17 41  1  0
 17 42  1  0
 18 43  1  0
 18 44  1  0
 19 45  1  0
 25 46  1  0
 25 47  1  0
 29 48  1  0
 29 49  1  0
M  CHG  3   1  -1  16  -1  32  -1
M  END
>  <UniqueID>  (45) 
44

>  <SMILES>  (45) 
[NH-]C(=O)c1cc2ccc(N3CCN(C(=O)[O-])CC3)cc2n1C(=O)OCOC(=O)CC(=O)[O-]

>  <Energy>  (45) 
86.54570370542615

>  <Genealogy>  (45) 
[NH-]C(=O)c1cc2ccc(N3CCN(C(=O)[O-])CC3)cc2n1C(=O)OCOC(=O)CC(=O)[O-] (protonated)
[NH-]C(=O)c1cc2ccc(N3CCN(C(=O)[O-])CC3)cc2n1C(=O)OCOC(=O)CC(=O)[O-] (3D coordinates assigned)
[NH-]C(=O)c1cc2ccc(N3CCN(C(=O)[O-])CC3)cc2n1C(=O)OCOC(=O)CC(=O)[O-] (nonaromatic ring conformer: 86.54570370542615 kcal/mol)

>  <smiles>  (45) 
NC(=O)c1cc2ccc(N3CCN(C(=O)O)CC3)cc2n1C(=O)OCOC(=O)CC(=O)O

>  <score_type>  (45) 
oracle

>  <origin>  (45) 
adg

>  <m_score__min__energy>  (45) 
-7.6399999999999997

>  <m_primary>  (45) 
energy

$$$$
45:0
     RDKit          3D

 47 48  0  0  0  0  0  0  0  0999 V2000
  139.7640  150.7400  132.1080 C   0  0  0  0  0  0  0  0  0  0  0  0
  141.2200  150.5990  132.2470 N   0  0  0  0  0  0  0  0  0  0  0  0
  141.6640  149.2510  131.8570 C   0  0  0  0  0  0  0  0  0  0  0  0
  141.7300  151.0180  133.5740 C   0  0  0  0  0  0  0  0  0  0  0  0
  141.3580  152.4530  133.9880 C   0  0  0  0  0  0  0  0  0  0  0  0
  141.8710  153.3900  133.0460 O   0  0  0  0  0  0  0  0  0  0  0  0
  141.9200  154.7630  133.2990 C   0  0  0  0  0  0  0  0  0  0  0  0
  143.0190  155.3800  133.2720 O   0  0  0  0  0  0  0  0  0  0  0  0
  140.6800  155.4880  133.6080 C   0  0  0  0  0  0  0  0  0  0  0  0
  139.6310  155.2320  132.9590 O   0  0  0  0  0  0  0  0  0  0  0  0
  140.6480  156.4690  134.6560 N   0  0  0  0  0  0  0  0  0  0  0  0
  140.1870  157.7480  134.5930 C   0  0  0  0  0  0  0  0  0  0  0  0
  139.7010  158.4360  133.3780 C   0  0  0  0  0  0  0  0  0  0  0  0
  138.6200  157.9060  132.6150 N   0  0  0  0  0  0  0  0  0  0  0  0
  140.2660  159.4940  132.9910 O   0  0  0  0  0  0  0  0  0  0  0  0
  140.2840  158.3610  135.8420 C   0  0  0  0  0  0  0  0  0  0  0  0
  140.8240  157.4080  136.6770 C   0  0  0  0  0  0  0  0  0  0  0  0
  141.1380  157.4740  138.0310 C   0  0  0  0  0  0  0  0  0  0  0  0
  141.6730  156.3240  138.6380 C   0  0  0  0  0  0  0  0  0  0  0  0
  141.8680  155.1350  137.8910 C   0  0  0  0  0  0  0  0  0  0  0  0
  142.4630  153.9160  138.5460 C   0  0  0  0  0  0  0  0  0  0  0  0
  142.5150  152.7120  137.5970 C   0  0  0  0  0  0  0  0  0  0  0  0
  141.1300  151.5520  137.8640 P   0  0  0  0  0  0  0  0  0  0  0  0
  141.5680  150.4260  138.7710 O   0  0  0  0  0  0  0  0  0  0  0  0
  140.6120  150.9160  136.3840 O   0  0  0  0  0  0  0  0  0  0  0  0
  139.8490  152.3810  138.5910 O   0  0  0  0  0  0  0  0  0  0  0  0
  141.5310  155.1080  136.5190 C   0  0  0  0  0  0  0  0  0  0  0  0
  141.0270  156.2740  135.9370 C   0  0  0  0  0  0  0  0  0  0  0  0
  139.3030  150.7846  133.1058 H   0  0  0  0  0  0  0  0  0  0  0  0
  139.5361  151.6644  131.5571 H   0  0  0  0  0  0  0  0  0  0  0  0
  139.3629  149.8765  131.5571 H   0  0  0  0  0  0  0  0  0  0  0  0
  141.8606  148.6542  132.7599 H   0  0  0  0  0  0  0  0  0  0  0  0
  140.8786  148.7647  131.2598 H   0  0  0  0  0  0  0  0  0  0  0  0
  142.5847  149.3267  131.2598 H   0  0  0  0  0  0  0  0  0  0  0  0
  141.3244  150.3286  134.3291 H   0  0  0  0  0  0  0  0  0  0  0  0
  142.8275  150.9917  133.5049 H   0  0  0  0  0  0  0  0  0  0  0  0
  140.2627  152.5453  134.0315 H   0  0  0  0  0  0  0  0  0  0  0  0
  141.7945  152.6641  134.9754 H   0  0  0  0  0  0  0  0  0  0  0  0
  138.3220  156.9110  132.7230 H   0  0  0  0  0  0  0  0  0  0  0  0
  139.9912  159.3883  136.1046 H   0  0  0  0  0  0  0  0  0  0  0  0
  140.9730  158.3960  138.6078 H   0  0  0  0  0  0  0  0  0  0  0  0
  141.9432  156.3472  139.7041 H   0  0  0  0  0  0  0  0  0  0  0  0
  143.4863  154.1537  138.8723 H   0  0  0  0  0  0  0  0  0  0  0  0
  141.8222  153.6453  139.3982 H   0  0  0  0  0  0  0  0  0  0  0  0
  142.4742  153.0777  136.5604 H   0  0  0  0  0  0  0  0  0  0  0  0
  143.4501  152.1684  137.7971 H   0  0  0  0  0  0  0  0  0  0  0  0
  141.6622  154.1921  135.9241 H   0  0  0  0  0  0  0  0  0  0  0  0
  1  2  1  0
  2  3  1  0
  2  4  1  0
  4  5  1  0
  5  6  1  0
  6  7  1  0
  7  8  2  0
  7  9  1  0
  9 10  2  0
  9 11  1  0
 11 12  1  0
 12 13  1  0
 13 14  1  0
 13 15  2  0
 12 16  2  0
 16 17  1  0
 17 18  2  0
 18 19  1  0
 19 20  2  0
 20 21  1  0
 21 22  1  0
 22 23  1  0
 23 24  2  0
 23 25  1  0
 23 26  1  0
 20 27  1  0
 27 28  2  0
 28 11  1  0
 28 17  1  0
  1 29  1  0
  1 30  1  0
  1 31  1  0
  3 32  1  0
  3 33  1  0
  3 34  1  0
  4 35  1  0
  4 36  1  0
  5 37  1  0
  5 38  1  0
 14 39  1  0
 16 40  1  0
 18 41  1  0
 19 42  1  0
 21 43  1  0
 21 44  1  0
 22 45  1  0
 22 46  1  0
 27 47  1  0
M  CHG  3  14  -1  25  -1  26  -1
M  END
>  <UniqueID>  (46) 
45

>  <SMILES>  (46) 
CN(C)CCOC(=O)C(=O)n1c(C([NH-])=O)cc2ccc(CCP(=O)([O-])[O-])cc21

>  <Energy>  (46) 
78.70880127267664

>  <Genealogy>  (46) 
CN(C)CCOC(=O)C(=O)n1c(C([NH-])=O)cc2ccc(CCP(=O)([O-])[O-])cc21 (protonated)
CN(C)CCOC(=O)C(=O)n1c(C([NH-])=O)cc2ccc(CCP(=O)([O-])[O-])cc21 (3D coordinates assigned)
CN(C)CCOC(=O)C(=O)n1c(C([NH-])=O)cc2ccc(CCP(=O)([O-])[O-])cc21 (optimized conformer: 78.70880127267664 kcal/mol)

>  <smiles>  (46) 
CN(C)CCOC(=O)C(=O)n1c(C(N)=O)cc2ccc(CCP(=O)(O)O)cc21

>  <score_type>  (46) 
oracle

>  <origin>  (46) 
adg

>  <m_score__min__energy>  (46) 
-7.2599999999999998

>  <m_primary>  (46) 
energy

$$$$
46:0
     RDKit          3D

 43 44  0  0  0  0  0  0  0  0999 V2000
  143.3510  156.0900  135.2280 C   0  0  0  0  0  0  0  0  0  0  0  0
  142.7950  157.3220  134.6630 N   0  0  0  0  0  0  0  0  0  0  0  0
  141.7570  158.0250  135.3740 C   0  0  0  0  0  0  0  0  0  0  0  0
  141.7010  157.9620  136.6320 O   0  0  0  0  0  0  0  0  0  0  0  0
  140.8020  158.8210  134.6600 N   0  0  0  0  0  0  0  0  0  0  0  0
  139.8530  158.2710  133.6990 C   0  0  0  0  0  0  0  0  0  0  0  0
  139.4450  159.3200  132.7140 C   0  0  0  0  0  0  0  0  0  0  0  0
  138.4070  159.1650  132.0180 O   0  0  0  0  0  0  0  0  0  0  0  0
  140.1940  160.4830  132.5840 O   0  0  0  0  0  0  0  0  0  0  0  0
  143.3340  157.8500  133.4350 C   0  0  0  0  0  0  0  0  0  0  0  0
  142.6800  157.7410  132.3610 O   0  0  0  0  0  0  0  0  0  0  0  0
  144.6240  158.4820  133.4140 N   0  0  0  0  0  0  0  0  0  0  0  0
  144.9060  159.7980  133.6170 C   0  0  0  0  0  0  0  0  0  0  0  0
  143.9140  160.8850  133.7460 C   0  0  0  0  0  0  0  0  0  0  0  0
  142.5170  160.6420  133.5760 N   0  0  0  0  0  0  0  0  0  0  0  0
  144.3120  162.0600  133.9660 O   0  0  0  0  0  0  0  0  0  0  0  0
  146.2840  160.0020  133.6590 C   0  0  0  0  0  0  0  0  0  0  0  0
  146.8400  158.7570  133.4680 C   0  0  0  0  0  0  0  0  0  0  0  0
  148.1740  158.3680  133.4370 C   0  0  0  0  0  0  0  0  0  0  0  0
  148.4600  157.0040  133.2620 C   0  0  0  0  0  0  0  0  0  0  0  0
  147.4160  156.0430  133.1360 C   0  0  0  0  0  0  0  0  0  0  0  0
  147.7200  154.6350  132.9610 N   0  0  0  0  0  0  0  0  0  0  0  0
  146.6710  153.6220  133.1250 C   0  0  0  0  0  0  0  0  0  0  0  0
  149.0780  154.2020  132.6120 C   0  0  0  0  0  0  0  0  0  0  0  0
  146.0700  156.4900  133.1840 C   0  0  0  0  0  0  0  0  0  0  0  0
  145.8180  157.8570  133.3290 C   0  0  0  0  0  0  0  0  0  0  0  0
  143.3256  156.1462  136.3263 H   0  0  0  0  0  0  0  0  0  0  0  0
  142.7538  155.2299  134.8910 H   0  0  0  0  0  0  0  0  0  0  0  0
  144.3911  155.9688  134.8910 H   0  0  0  0  0  0  0  0  0  0  0  0
  140.3234  157.4334  133.1632 H   0  0  0  0  0  0  0  0  0  0  0  0
  138.9607  157.9199  134.2380 H   0  0  0  0  0  0  0  0  0  0  0  0
  142.1660  159.7280  133.2160 H   0  0  0  0  0  0  0  0  0  0  0  0
  141.8300  161.4170  133.7160 H   0  0  0  0  0  0  0  0  0  0  0  0
  146.8139  160.9537  133.8120 H   0  0  0  0  0  0  0  0  0  0  0  0
  148.9819  159.1065  133.5463 H   0  0  0  0  0  0  0  0  0  0  0  0
  149.5080  156.6722  133.2215 H   0  0  0  0  0  0  0  0  0  0  0  0
  146.4923  153.4494  134.1966 H   0  0  0  0  0  0  0  0  0  0  0  0
  145.7433  153.9747  132.6507 H   0  0  0  0  0  0  0  0  0  0  0  0
  146.9911  152.6826  132.6507 H   0  0  0  0  0  0  0  0  0  0  0  0
  149.6523  154.0189  133.5321 H   0  0  0  0  0  0  0  0  0  0  0  0
  149.0270  153.2756  132.0211 H   0  0  0  0  0  0  0  0  0  0  0  0
  149.5727  154.9870  132.0211 H   0  0  0  0  0  0  0  0  0  0  0  0
  145.2393  155.7729  133.1084 H   0  0  0  0  0  0  0  0  0  0  0  0
  1  2  1  0
  2  3  1  0
  3  4  2  0
  3  5  1  0
  5  6  1  0
  6  7  1  0
  7  8  2  0
  7  9  1  0
  2 10  1  0
 10 11  2  0
 10 12  1  0
 12 13  1  0
 13 14  1  0
 14 15  1  0
 14 16  2  0
 13 17  2  0
 17 18  1  0
 18 19  2  0
 19 20  1  0
 20 21  2  0
 21 22  1  0
 22 23  1  0
 22 24  1  0
 21 25  1  0
 25 26  2  0
 26 12  1  0
 26 18  1  0
  1 27  1  0
  1 28  1  0
  1 29  1  0
  6 30  1  0
  6 31  1  0
 15 32  1  0
 15 33  1  0
 17 34  1  0
 19 35  1  0
 20 36  1  0
 23 37  1  0
 23 38  1  0
 23 39  1  0
 24 40  1  0
 24 41  1  0
 24 42  1  0
 25 43  1  0
M  CHG  2   5  -1   9  -1
M  END
>  <UniqueID>  (47) 
46

>  <SMILES>  (47) 
CN(C(=O)[N-]CC(=O)[O-])C(=O)n1c(C(N)=O)cc2ccc(N(C)C)cc21

>  <Energy>  (47) 
82.62170777833302

>  <Genealogy>  (47) 
CN(C(=O)[N-]CC(=O)[O-])C(=O)n1c(C(N)=O)cc2ccc(N(C)C)cc21 (protonated)
CN(C(=O)[N-]CC(=O)[O-])C(=O)n1c(C(N)=O)cc2ccc(N(C)C)cc21 (3D coordinates assigned)
CN(C(=O)[N-]CC(=O)[O-])C(=O)n1c(C(N)=O)cc2ccc(N(C)C)cc21 (optimized conformer: 82.62170777833302 kcal/mol)

>  <smiles>  (47) 
CN(C(=O)NCC(=O)O)C(=O)n1c(C(N)=O)cc2ccc(N(C)C)cc21

>  <score_type>  (47) 
oracle

>  <origin>  (47) 
adg

>  <m_score__min__energy>  (47) 
-7.1900000000000004

>  <m_primary>  (47) 
energy

$$$$
47:0
     RDKit          3D

 35 37  0  0  0  0  0  0  0  0999 V2000
  149.9730  151.0520  134.4380 N   0  0  0  0  0  0  0  0  0  0  0  0
  149.5120  151.6610  133.5700 C   0  0  0  0  0  0  0  0  0  0  0  0
  148.9250  152.4370  132.4640 C   0  0  0  0  0  0  0  0  0  0  0  0
  149.5920  153.7600  132.2450 C   0  0  0  0  0  0  0  0  0  0  0  0
  148.4400  154.5840  132.6580 N   0  0  0  0  0  0  0  0  0  0  0  0
  148.1250  155.9720  132.7780 C   0  0  0  0  0  0  0  0  0  0  0  0
  149.1340  156.9460  132.5960 C   0  0  0  0  0  0  0  0  0  0  0  0
  148.8330  158.3140  132.7000 C   0  0  0  0  0  0  0  0  0  0  0  0
  147.5200  158.6730  132.9950 C   0  0  0  0  0  0  0  0  0  0  0  0
  146.9510  159.9180  133.1280 C   0  0  0  0  0  0  0  0  0  0  0  0
  145.6070  159.6810  133.4140 C   0  0  0  0  0  0  0  0  0  0  0  0
  144.6420  160.7570  133.7180 C   0  0  0  0  0  0  0  0  0  0  0  0
  143.2620  160.6220  133.3830 N   0  0  0  0  0  0  0  0  0  0  0  0
  145.0290  161.7900  134.3280 O   0  0  0  0  0  0  0  0  0  0  0  0
  145.3540  158.3420  133.4470 N   0  0  0  0  0  0  0  0  0  0  0  0
  144.0890  157.6860  133.6250 C   0  0  0  0  0  0  0  0  0  0  0  0
  143.8810  156.9890  134.6560 O   0  0  0  0  0  0  0  0  0  0  0  0
  143.0850  157.8440  132.6630 O   0  0  0  0  0  0  0  0  0  0  0  0
  141.6980  157.8770  132.9840 C   0  0  0  0  0  0  0  0  0  0  0  0
  141.5360  158.4580  134.2270 F   0  0  0  0  0  0  0  0  0  0  0  0
  141.0120  158.6250  132.0450 F   0  0  0  0  0  0  0  0  0  0  0  0
  141.1890  156.5920  133.0170 F   0  0  0  0  0  0  0  0  0  0  0  0
  146.5360  157.7380  133.1930 C   0  0  0  0  0  0  0  0  0  0  0  0
  146.8040  156.3690  133.0750 C   0  0  0  0  0  0  0  0  0  0  0  0
  147.7680  153.2910  132.8840 C   0  0  0  0  0  0  0  0  0  0  0  0
  148.8637  151.6427  131.7055 H   0  0  0  0  0  0  0  0  0  0  0  0
  150.4710  153.9047  132.8903 H   0  0  0  0  0  0  0  0  0  0  0  0
  150.0129  153.9505  131.2467 H   0  0  0  0  0  0  0  0  0  0  0  0
  150.1632  156.6296  132.3711 H   0  0  0  0  0  0  0  0  0  0  0  0
  149.6103  159.0783  132.5530 H   0  0  0  0  0  0  0  0  0  0  0  0
  147.4500  160.8933  133.0297 H   0  0  0  0  0  0  0  0  0  0  0  0
  142.9580  159.9930  132.6060 H   0  0  0  0  0  0  0  0  0  0  0  0
  146.0067  155.6234  133.2101 H   0  0  0  0  0  0  0  0  0  0  0  0
  147.4860  153.1369  133.9360 H   0  0  0  0  0  0  0  0  0  0  0  0
  146.8102  153.1267  132.3687 H   0  0  0  0  0  0  0  0  0  0  0  0
  1  2  3  0
  2  3  1  0
  3  4  1  0
  4  5  1  0
  5  6  1  0
  6  7  2  0
  7  8  1  0
  8  9  2  0
  9 10  1  0
 10 11  2  0
 11 12  1  0
 12 13  1  0
 12 14  2  0
 11 15  1  0
 15 16  1  0
 16 17  2  0
 16 18  1  0
 18 19  1  0
 19 20  1  0
 19 21  1  0
 19 22  1  0
 15 23  1  0
 23 24  2  0
  5 25  1  0
 25  3  1  0
 24  6  1  0
 23  9  1  0
  3 26  1  0
  4 27  1  0
  4 28  1  0
  7 29  1  0
  8 30  1  0
 10 31  1  0
 13 32  1  0
 24 33  1  0
 25 34  1  0
 25 35  1  0
M  CHG  1  13  -1
M  END
>  <UniqueID>  (48) 
47

>  <SMILES>  (48) 
N#CC1CN(c2ccc3cc(C([NH-])=O)n(C(=O)OC(F)(F)F)c3c2)C1

>  <Energy>  (48) 
117.69189989316652

>  <Genealogy>  (48) 
N#CC1CN(c2ccc3cc(C([NH-])=O)n(C(=O)OC(F)(F)F)c3c2)C1 (protonated)
N#CC1CN(c2ccc3cc(C([NH-])=O)n(C(=O)OC(F)(F)F)c3c2)C1 (3D coordinates assigned)
N#CC1CN(c2ccc3cc(C([NH-])=O)n(C(=O)OC(F)(F)F)c3c2)C1 (nonaromatic ring conformer: 117.69189989316652 kcal/mol)

>  <smiles>  (48) 
N#CC1CN(c2ccc3cc(C(N)=O)n(C(=O)OC(F)(F)F)c3c2)C1

>  <score_type>  (48) 
oracle

>  <origin>  (48) 
adg

>  <m_score__min__energy>  (48) 
-7.21

>  <m_primary>  (48) 
energy

$$$$
48:0
     RDKit          3D

 52 54  0  0  0  0  0  0  0  0999 V2000
  143.9800  155.1120  135.5410 C   0  0  0  0  0  0  0  0  0  0  0  0
  143.6510  154.6890  134.1660 N   0  0  2  0  0  0  0  0  0  0  0  0
  144.6120  153.6960  133.7170 C   0  0  0  0  0  0  0  0  0  0  0  0
  145.7310  153.6540  134.2160 O   0  0  0  0  0  0  0  0  0  0  0  0
  144.2550  152.7180  132.6190 C   0  0  0  0  0  0  0  0  0  0  0  0
  143.1630  151.7270  133.0550 C   0  0  0  0  0  0  0  0  0  0  0  0
  141.9470  152.4300  133.5780 C   0  0  0  0  0  0  0  0  0  0  0  0
  141.3290  153.2530  132.8520 O   0  0  0  0  0  0  0  0  0  0  0  0
  141.4900  152.1690  134.8630 O   0  0  0  0  0  0  0  0  0  0  0  0
  143.6250  155.7980  133.2300 C   0  0  0  0  0  0  0  0  0  0  0  0
  143.9900  155.6230  132.0330 O   0  0  0  0  0  0  0  0  0  0  0  0
  143.0850  157.0790  133.5990 N   0  0  0  0  0  0  0  0  0  0  0  0
  141.8540  157.3460  134.1170 C   0  0  0  0  0  0  0  0  0  0  0  0
  140.7730  156.3600  134.3300 C   0  0  0  0  0  0  0  0  0  0  0  0
  140.9900  155.1870  135.1100 N   0  0  0  0  0  0  0  0  0  0  0  0
  139.6440  156.5480  133.8030 O   0  0  0  0  0  0  0  0  0  0  0  0
  141.7350  158.7060  134.4070 C   0  0  0  0  0  0  0  0  0  0  0  0
  142.9470  159.2610  134.0610 C   0  0  0  0  0  0  0  0  0  0  0  0
  143.3900  160.5760  134.1460 C   0  0  0  0  0  0  0  0  0  0  0  0
  144.7030  160.8580  133.7290 C   0  0  0  0  0  0  0  0  0  0  0  0
  145.5500  159.8280  133.2440 C   0  0  0  0  0  0  0  0  0  0  0  0
  146.8920  160.1620  132.8380 N   0  0  0  0  0  0  0  0  0  0  0  0
  148.1020  159.6770  133.5190 C   0  0  0  0  0  0  0  0  0  0  0  0
  147.9320  158.2270  133.9740 C   0  0  0  0  0  0  0  0  0  0  0  0
  148.4010  157.3580  132.8100 C   0  0  0  0  0  0  0  0  0  0  0  0
  149.1660  158.2740  131.8550 C   0  0  0  0  0  0  0  0  0  0  0  0
  149.2750  159.6250  132.5470 C   0  0  0  0  0  0  0  0  0  0  0  0
  145.0580  158.5000  133.1760 C   0  0  0  0  0  0  0  0  0  0  0  0
  143.7460  158.2560  133.5850 C   0  0  0  0  0  0  0  0  0  0  0  0
  143.4685  154.4543  136.2592 H   0  0  0  0  0  0  0  0  0  0  0  0
  145.0673  155.0471  135.6943 H   0  0  0  0  0  0  0  0  0  0  0  0
  143.6494  156.1499  135.6943 H   0  0  0  0  0  0  0  0  0  0  0  0
  142.6920  154.2710  134.1860 H   0  0  0  0  0  0  0  0  0  0  0  0
  143.8935  153.2818  131.7464 H   0  0  0  0  0  0  0  0  0  0  0  0
  145.1583  152.1392  132.3761 H   0  0  0  0  0  0  0  0  0  0  0  0
  142.8740  151.1128  132.1894 H   0  0  0  0  0  0  0  0  0  0  0  0
  143.5713  151.1041  133.8645 H   0  0  0  0  0  0  0  0  0  0  0  0
  141.4400  154.3400  134.7000 H   0  0  0  0  0  0  0  0  0  0  0  0
  140.8589  159.2246  134.8236 H   0  0  0  0  0  0  0  0  0  0  0  0
  142.7334  161.3717  134.5278 H   0  0  0  0  0  0  0  0  0  0  0  0
  145.0785  161.8907  133.7794 H   0  0  0  0  0  0  0  0  0  0  0  0
  147.0040  160.7880  132.0070 H   0  0  0  0  0  0  0  0  0  0  0  0
  148.2745  160.3621  134.3622 H   0  0  0  0  0  0  0  0  0  0  0  0
  148.5454  158.0329  134.8662 H   0  0  0  0  0  0  0  0  0  0  0  0
  146.8870  158.0103  134.2406 H   0  0  0  0  0  0  0  0  0  0  0  0
  149.0605  156.5577  133.1767 H   0  0  0  0  0  0  0  0  0  0  0  0
  147.5479  156.8835  132.3030 H   0  0  0  0  0  0  0  0  0  0  0  0
  150.1683  157.8659  131.6581 H   0  0  0  0  0  0  0  0  0  0  0  0
  148.6483  158.3626  130.8885 H   0  0  0  0  0  0  0  0  0  0  0  0
  150.2285  159.7037  133.0898 H   0  0  0  0  0  0  0  0  0  0  0  0
  149.2477  160.4567  131.8277 H   0  0  0  0  0  0  0  0  0  0  0  0
  145.6951  157.6815  132.8096 H   0  0  0  0  0  0  0  0  0  0  0  0
  1  2  1  0
  2  3  1  0
  3  4  2  0
  3  5  1  0
  5  6  1  0
  6  7  1  0
  7  8  2  0
  7  9  1  0
  2 10  1  0
 10 11  2  0
 10 12  1  0
 12 13  1  0
 13 14  1  0
 14 15  1  0
 14 16  2  0
 13 17  2  0
 17 18  1  0
 18 19  2  0
 19 20  1  0
 20 21  2  0
 21 22  1  0
 22 23  1  0
 23 24  1  0
 24 25  1  0
 25 26  1  0
 26 27  1  0
 21 28  1  0
 28 29  2  0
 29 12  1  0
 29 18  1  0
 27 23  1  0
  1 30  1  0
  1 31  1  0
  1 32  1  0
  2 33  1  1
  5 34  1  0
  5 35  1  0
  6 36  1  0
  6 37  1  0
 15 38  1  0
 17 39  1  0
 19 40  1  0
 20 41  1  0
 22 42  1  0
 23 43  1  0
 24 44  1  0
 24 45  1  0
 25 46  1  0
 25 47  1  0
 26 48  1  0
 26 49  1  0
 27 50  1  0
 27 51  1  0
 28 52  1  0
M  CHG  3   2   1   9  -1  15  -1
M  END
>  <UniqueID>  (49) 
48

>  <SMILES>  (49) 
C[NH+](C(=O)CCC(=O)[O-])C(=O)n1c(C([NH-])=O)cc2ccc(NC3CCCC3)cc21

>  <Energy>  (49) 
93.9577300143814

>  <Genealogy>  (49) 
C[NH+](C(=O)CCC(=O)[O-])C(=O)n1c(C([NH-])=O)cc2ccc(NC3CCCC3)cc21 (protonated)
C[NH+](C(=O)CCC(=O)[O-])C(=O)n1c(C([NH-])=O)cc2ccc(NC3CCCC3)cc21 (3D coordinates assigned)
C[NH+](C(=O)CCC(=O)[O-])C(=O)n1c(C([NH-])=O)cc2ccc(NC3CCCC3)cc21 (nonaromatic ring conformer: 93.9577300143814 kcal/mol)

>  <smiles>  (49) 
CN(C(=O)CCC(=O)O)C(=O)n1c(C(N)=O)cc2ccc(NC3CCCC3)cc21

>  <score_type>  (49) 
oracle

>  <origin>  (49) 
adg

>  <m_score__min__energy>  (49) 
-7.7699999999999996

>  <m_primary>  (49) 
energy

$$$$
49:0
     RDKit          3D

 53 54  0  0  0  0  0  0  0  0999 V2000
  142.6720  154.2020  135.5160 C   0  0  0  0  0  0  0  0  0  0  0  0
  143.5200  154.1750  134.3080 N   0  0  2  0  0  0  0  0  0  0  0  0
  143.0940  155.1920  133.2980 C   0  0  0  0  0  0  0  0  0  0  0  0
  141.9740  156.1840  133.7080 C   0  0  0  0  0  0  0  0  0  0  0  0
  142.3980  157.2990  134.6790 C   0  0  0  0  0  0  0  0  0  0  0  0
  143.5730  158.0960  134.1660 C   0  0  0  0  0  0  0  0  0  0  0  0
  143.4250  159.4800  133.8920 C   0  0  0  0  0  0  0  0  0  0  0  0
  144.5000  160.2320  133.3870 C   0  0  0  0  0  0  0  0  0  0  0  0
  145.7100  159.5760  133.1760 C   0  0  0  0  0  0  0  0  0  0  0  0
  146.9000  160.0520  132.6710 C   0  0  0  0  0  0  0  0  0  0  0  0
  147.7610  158.9550  132.6660 C   0  0  0  0  0  0  0  0  0  0  0  0
  149.1750  159.0220  132.2380 C   0  0  0  0  0  0  0  0  0  0  0  0
  149.9170  157.8200  132.0450 N   0  0  0  0  0  0  0  0  0  0  0  0
  149.7300  160.1310  132.0210 O   0  0  0  0  0  0  0  0  0  0  0  0
  147.1300  157.8520  133.1530 N   0  0  0  0  0  0  0  0  0  0  0  0
  147.6540  156.5200  133.2630 C   0  0  0  0  0  0  0  0  0  0  0  0
  148.0590  155.9190  132.2320 O   0  0  0  0  0  0  0  0  0  0  0  0
  147.7390  155.8400  134.5970 C   0  0  0  0  0  0  0  0  0  0  0  0
  146.5560  154.9480  134.7950 C   0  0  0  0  0  0  0  0  0  0  0  0
  145.6890  155.2280  135.6640 O   0  0  0  0  0  0  0  0  0  0  0  0
  146.4350  153.7790  134.0530 O   0  0  0  0  0  0  0  0  0  0  0  0
  145.8750  158.2470  133.4580 C   0  0  0  0  0  0  0  0  0  0  0  0
  144.8210  157.4710  133.9500 C   0  0  0  0  0  0  0  0  0  0  0  0
  143.6510  152.7800  133.8140 C   0  0  0  0  0  0  0  0  0  0  0  0
  142.7250  152.4590  132.6180 C   0  0  0  0  0  0  0  0  0  0  0  0
  141.0490  152.0730  133.1210 S   0  0  0  0  0  0  0  0  0  0  0  0
  140.3470  150.7620  132.1430 C   0  0  0  0  0  0  0  0  0  0  0  0
  140.2030  153.3040  132.9530 O   0  0  0  0  0  0  0  0  0  0  0  0
  141.0380  151.6690  134.5690 O   0  0  0  0  0  0  0  0  0  0  0  0
  143.3096  154.1817  136.4121 H   0  0  0  0  0  0  0  0  0  0  0  0
  142.0658  155.1199  135.5180 H   0  0  0  0  0  0  0  0  0  0  0  0
  142.0087  153.3245  135.5180 H   0  0  0  0  0  0  0  0  0  0  0  0
  144.4660  154.4770  134.6370 H   0  0  0  0  0  0  0  0  0  0  0  0
  143.9811  155.7870  133.0354 H   0  0  0  0  0  0  0  0  0  0  0  0
  142.6604  154.6048  132.4751 H   0  0  0  0  0  0  0  0  0  0  0  0
  141.5910  156.6594  132.7929 H   0  0  0  0  0  0  0  0  0  0  0  0
  141.2234  155.5858  134.2453 H   0  0  0  0  0  0  0  0  0  0  0  0
  141.5472  157.9803  134.8270 H   0  0  0  0  0  0  0  0  0  0  0  0
  142.7033  156.8226  135.6223 H   0  0  0  0  0  0  0  0  0  0  0  0
  142.4579  159.9704  134.0768 H   0  0  0  0  0  0  0  0  0  0  0  0
  144.3889  161.3038  133.1657 H   0  0  0  0  0  0  0  0  0  0  0  0
  147.1232  161.0777  132.3422 H   0  0  0  0  0  0  0  0  0  0  0  0
  149.6120  157.1070  131.3450 H   0  0  0  0  0  0  0  0  0  0  0  0
  148.6593  155.2390  134.6411 H   0  0  0  0  0  0  0  0  0  0  0  0
  147.7517  156.6025  135.3897 H   0  0  0  0  0  0  0  0  0  0  0  0
  144.9603  156.4009  134.1634 H   0  0  0  0  0  0  0  0  0  0  0  0
  144.6929  152.6181  133.5007 H   0  0  0  0  0  0  0  0  0  0  0  0
  143.3551  152.1157  134.6393 H   0  0  0  0  0  0  0  0  0  0  0  0
  142.6990  153.3322  131.9495 H   0  0  0  0  0  0  0  0  0  0  0  0
  143.1321  151.5705  132.1133 H   0  0  0  0  0  0  0  0  0  0  0  0
  139.9334  149.9896  132.8080 H   0  0  0  0  0  0  0  0  0  0  0  0
  139.5451  151.1671  131.5083 H   0  0  0  0  0  0  0  0  0  0  0  0
  141.1287  150.3191  131.5083 H   0  0  0  0  0  0  0  0  0  0  0  0
  1  2  1  0
  2  3  1  0
  3  4  1  0
  4  5  1  0
  5  6  1  0
  6  7  2  0
  7  8  1  0
  8  9  2  0
  9 10  1  0
 10 11  2  0
 11 12  1  0
 12 13  1  0
 12 14  2  0
 11 15  1  0
 15 16  1  0
 16 17  2  0
 16 18  1  0
 18 19  1  0
 19 20  2  0
 19 21  1  0
 15 22  1  0
 22 23  2  0
  2 24  1  0
 24 25  1  0
 25 26  1  0
 26 27  1  0
 26 28  2  0
 26 29  2  0
 23  6  1  0
 22  9  1  0
  1 30  1  0
  1 31  1  0
  1 32  1  0
  2 33  1  1
  3 34  1  0
  3 35  1  0
  4 36  1  0
  4 37  1  0
  5 38  1  0
  5 39  1  0
  7 40  1  0
  8 41  1  0
 10 42  1  0
 13 43  1  0
 18 44  1  0
 18 45  1  0
 23 46  1  0
 24 47  1  0
 24 48  1  0
 25 49  1  0
 25 50  1  0
 27 51  1  0
 27 52  1  0
 27 53  1  0
M  CHG  3   2   1  13  -1  21  -1
M  END
>  <UniqueID>  (50) 
49

>  <SMILES>  (50) 
C[N@H+](CCCc1ccc2cc(C([NH-])=O)n(C(=O)CC(=O)[O-])c2c1)CCS(C)(=O)=O

>  <Energy>  (50) 
89.93846288208377

>  <Genealogy>  (50) 
C[NH+](CCCc1ccc2cc(C([NH-])=O)n(C(=O)CC(=O)[O-])c2c1)CCS(C)(=O)=O (protonated)
C[N@H+](CCCc1ccc2cc(C([NH-])=O)n(C(=O)CC(=O)[O-])c2c1)CCS(C)(=O)=O (chirality)
C[N@H+](CCCc1ccc2cc(C([NH-])=O)n(C(=O)CC(=O)[O-])c2c1)CCS(C)(=O)=O (3D coordinates assigned)
C[N@H+](CCCc1ccc2cc(C([NH-])=O)n(C(=O)CC(=O)[O-])c2c1)CCS(C)(=O)=O (optimized conformer: 89.93846288208377 kcal/mol)

>  <smiles>  (50) 
CN(CCCc1ccc2cc(C(N)=O)n(C(=O)CC(=O)O)c2c1)CCS(C)(=O)=O

>  <score_type>  (50) 
oracle

>  <origin>  (50) 
adg

>  <m_score__min__energy>  (50) 
-6.6399999999999997

>  <m_primary>  (50) 
energy

$$$$
50:0
     RDKit          3D

 39 40  0  0  0  0  0  0  0  0999 V2000
  140.9730  159.5940  134.3890 N   0  0  0  0  0  0  0  0  0  0  0  0
  142.0130  160.4320  133.8910 C   0  0  0  0  0  0  0  0  0  0  0  0
  141.7800  161.6550  133.7010 O   0  0  0  0  0  0  0  0  0  0  0  0
  143.3710  159.9000  133.6530 C   0  0  0  0  0  0  0  0  0  0  0  0
  144.4860  160.7110  133.4580 C   0  0  0  0  0  0  0  0  0  0  0  0
  145.5540  159.8480  133.3650 C   0  0  0  0  0  0  0  0  0  0  0  0
  146.9020  160.1120  133.1480 C   0  0  0  0  0  0  0  0  0  0  0  0
  147.7820  159.0220  133.0580 C   0  0  0  0  0  0  0  0  0  0  0  0
  147.3050  157.6920  133.1940 C   0  0  0  0  0  0  0  0  0  0  0  0
  148.2490  156.5280  133.0330 C   0  0  0  0  0  0  0  0  0  0  0  0
  148.4650  155.9010  134.2490 F   0  0  0  0  0  0  0  0  0  0  0  0
  149.4730  156.9540  132.5440 F   0  0  0  0  0  0  0  0  0  0  0  0
  147.7030  155.6180  132.1480 F   0  0  0  0  0  0  0  0  0  0  0  0
  145.9230  157.4640  133.3890 C   0  0  0  0  0  0  0  0  0  0  0  0
  145.0730  158.5710  133.4950 C   0  0  0  0  0  0  0  0  0  0  0  0
  143.7330  158.5850  133.6680 N   0  0  0  0  0  0  0  0  0  0  0  0
  142.8780  157.4360  133.7600 C   0  0  0  0  0  0  0  0  0  0  0  0
  143.0630  156.5820  134.6710 O   0  0  0  0  0  0  0  0  0  0  0  0
  141.8250  157.2790  132.8520 O   0  0  0  0  0  0  0  0  0  0  0  0
  140.8450  156.2570  132.9810 C   0  0  0  0  0  0  0  0  0  0  0  0
  139.7620  156.7480  133.7610 O   0  0  0  0  0  0  0  0  0  0  0  0
  138.9130  157.7640  133.3140 C   0  0  0  0  0  0  0  0  0  0  0  0
  138.4300  158.6000  134.1280 O   0  0  0  0  0  0  0  0  0  0  0  0
  138.6150  157.8450  131.9500 O   0  0  0  0  0  0  0  0  0  0  0  0
  138.2770  159.0640  131.2900 C   0  0  0  0  0  0  0  0  0  0  0  0
  139.4540  160.0350  131.3190 C   0  0  0  0  0  0  0  0  0  0  0  0
  140.6220  159.3440  131.6650 O   0  0  0  0  0  0  0  0  0  0  0  0
  140.6000  158.8030  133.8180 H   0  0  0  0  0  0  0  0  0  0  0  0
  144.5084  161.8088  133.3922 H   0  0  0  0  0  0  0  0  0  0  0  0
  147.2680  161.1447  133.0497 H   0  0  0  0  0  0  0  0  0  0  0  0
  148.8528  159.2005  132.8802 H   0  0  0  0  0  0  0  0  0  0  0  0
  145.5253  156.4406  133.4558 H   0  0  0  0  0  0  0  0  0  0  0  0
  140.4802  155.9683  131.9842 H   0  0  0  0  0  0  0  0  0  0  0  0
  141.2878  155.3782  133.4726 H   0  0  0  0  0  0  0  0  0  0  0  0
  138.0126  158.8476  130.2444 H   0  0  0  0  0  0  0  0  0  0  0  0
  137.4245  159.5245  131.8107 H   0  0  0  0  0  0  0  0  0  0  0  0
  139.5782  160.4902  130.3253 H   0  0  0  0  0  0  0  0  0  0  0  0
  139.2607  160.8227  132.0621 H   0  0  0  0  0  0  0  0  0  0  0  0
  140.4240  158.8820  132.5220 H   0  0  0  0  0  0  0  0  0  0  0  0
  1  2  1  0
  2  3  2  0
  2  4  1  0
  4  5  2  0
  5  6  1  0
  6  7  2  0
  7  8  1  0
  8  9  2  0
  9 10  1  0
 10 11  1  0
 10 12  1  0
 10 13  1  0
  9 14  1  0
 14 15  2  0
 15 16  1  0
 16 17  1  0
 17 18  2  0
 17 19  1  0
 19 20  1  0
 20 21  1  0
 21 22  1  0
 22 23  2  0
 22 24  1  0
 24 25  1  0
 25 26  1  0
 26 27  1  0
 16  4  1  0
 15  6  1  0
  1 28  1  0
  5 29  1  0
  7 30  1  0
  8 31  1  0
 14 32  1  0
 20 33  1  0
 20 34  1  0
 25 35  1  0
 25 36  1  0
 26 37  1  0
 26 38  1  0
 27 39  1  0
M  CHG  1   1  -1
M  END
>  <UniqueID>  (51) 
50

>  <SMILES>  (51) 
[NH-]C(=O)c1cc2ccc(C(F)(F)F)cc2n1C(=O)OCOC(=O)OCCO

>  <Energy>  (51) 
71.41160018680478

>  <Genealogy>  (51) 
[NH-]C(=O)c1cc2ccc(C(F)(F)F)cc2n1C(=O)OCOC(=O)OCCO (protonated)
[NH-]C(=O)c1cc2ccc(C(F)(F)F)cc2n1C(=O)OCOC(=O)OCCO (3D coordinates assigned)
[NH-]C(=O)c1cc2ccc(C(F)(F)F)cc2n1C(=O)OCOC(=O)OCCO (optimized conformer: 71.41160018680478 kcal/mol)

>  <smiles>  (51) 
NC(=O)c1cc2ccc(C(F)(F)F)cc2n1C(=O)OCOC(=O)OCCO

>  <score_type>  (51) 
oracle

>  <origin>  (51) 
adg

>  <m_score__min__energy>  (51) 
-4.6799999999999997

>  <m_primary>  (51) 
energy

$$$$
51:0
     RDKit          3D

 52 54  0  0  0  0  0  0  0  0999 V2000
  149.9790  152.2110  131.7820 N   0  0  0  0  0  0  0  0  0  0  0  0
  148.8900  151.4830  132.3450 C   0  0  0  0  0  0  0  0  0  0  0  0
  149.0720  150.3020  132.7430 O   0  0  0  0  0  0  0  0  0  0  0  0
  147.5730  152.1150  132.5340 C   0  0  0  0  0  0  0  0  0  0  0  0
  146.3680  151.4960  132.2100 C   0  0  0  0  0  0  0  0  0  0  0  0
  145.3880  152.3640  132.6330 C   0  0  0  0  0  0  0  0  0  0  0  0
  144.0040  152.2410  132.5830 C   0  0  0  0  0  0  0  0  0  0  0  0
  143.2310  153.2940  133.0930 C   0  0  0  0  0  0  0  0  0  0  0  0
  143.8510  154.4500  133.6400 C   0  0  0  0  0  0  0  0  0  0  0  0
  143.0790  155.5390  134.1730 N   0  0  0  0  0  0  0  0  0  0  0  0
  142.9110  155.7700  135.6100 C   0  0  0  0  0  0  0  0  0  0  0  0
  141.6150  156.5290  135.9100 C   0  0  0  0  0  0  0  0  0  0  0  0
  140.8400  156.7500  134.6930 N   0  0  0  0  0  0  0  0  0  0  0  0
  140.2290  157.9780  134.2740 C   0  0  0  0  0  0  0  0  0  0  0  0
  139.0680  158.2390  134.6840 O   0  0  0  0  0  0  0  0  0  0  0  0
  140.9480  159.0030  133.4340 C   0  0  0  0  0  0  0  0  0  0  0  0
  142.2360  159.5030  134.1040 C   0  0  0  0  0  0  0  0  0  0  0  0
  143.4680  158.9850  133.4190 C   0  0  0  0  0  0  0  0  0  0  0  0
  143.3780  157.9910  132.6550 O   0  0  0  0  0  0  0  0  0  0  0  0
  144.7240  159.6520  133.6250 N   0  0  0  0  0  0  0  0  0  0  0  0
  146.0300  159.1900  133.2610 C   0  0  0  0  0  0  0  0  0  0  0  0
  146.4780  157.9690  133.7820 C   0  0  0  0  0  0  0  0  0  0  0  0
  147.7220  157.4500  133.4060 C   0  0  0  0  0  0  0  0  0  0  0  0
  148.5260  158.1430  132.4970 C   0  0  0  0  0  0  0  0  0  0  0  0
  148.0880  159.3620  131.9700 C   0  0  0  0  0  0  0  0  0  0  0  0
  149.3050  160.4190  130.6080 I   0  0  0  0  0  0  0  0  0  0  0  0
  146.8410  159.8800  132.3390 C   0  0  0  0  0  0  0  0  0  0  0  0
  145.2600  154.5340  133.6710 C   0  0  0  0  0  0  0  0  0  0  0  0
  146.0050  153.4600  133.1710 C   0  0  0  0  0  0  0  0  0  0  0  0
  147.3490  153.3240  133.1170 N   0  0  0  0  0  0  0  0  0  0  0  0
  148.3300  154.2880  133.5290 C   0  0  0  0  0  0  0  0  0  0  0  0
  148.3050  154.7650  134.6930 O   0  0  0  0  0  0  0  0  0  0  0  0
  149.3090  154.7070  132.6410 O   0  0  0  0  0  0  0  0  0  0  0  0
  150.8940  151.7380  131.6130 H   0  0  0  0  0  0  0  0  0  0  0  0
  149.8980  153.2330  131.5890 H   0  0  0  0  0  0  0  0  0  0  0  0
  146.2294  150.5208  131.7202 H   0  0  0  0  0  0  0  0  0  0  0  0
  143.5298  151.3449  132.1563 H   0  0  0  0  0  0  0  0  0  0  0  0
  142.1334  153.2246  133.0695 H   0  0  0  0  0  0  0  0  0  0  0  0
  142.6470  156.2160  133.5020 H   0  0  0  0  0  0  0  0  0  0  0  0
  142.8844  154.7995  136.1271 H   0  0  0  0  0  0  0  0  0  0  0  0
  143.7565  156.3791  135.9623 H   0  0  0  0  0  0  0  0  0  0  0  0
  141.0114  155.9427  136.6185 H   0  0  0  0  0  0  0  0  0  0  0  0
  141.8754  157.5074  136.3401 H   0  0  0  0  0  0  0  0  0  0  0  0
  141.2057  158.5494  132.4656 H   0  0  0  0  0  0  0  0  0  0  0  0
  140.2772  159.8655  133.3068 H   0  0  0  0  0  0  0  0  0  0  0  0
  142.2484  160.6025  134.0721 H   0  0  0  0  0  0  0  0  0  0  0  0
  142.2440  159.1332  135.1399 H   0  0  0  0  0  0  0  0  0  0  0  0
  145.8471  157.4141  134.4920 H   0  0  0  0  0  0  0  0  0  0  0  0
  148.0678  156.4944  133.8269 H   0  0  0  0  0  0  0  0  0  0  0  0
  149.5007  157.7308  132.1969 H   0  0  0  0  0  0  0  0  0  0  0  0
  146.4930  160.8299  131.9071 H   0  0  0  0  0  0  0  0  0  0  0  0
  145.7612  155.4241  134.0792 H   0  0  0  0  0  0  0  0  0  0  0  0
  1  2  1  0
  2  3  2  0
  2  4  1  0
  4  5  2  0
  5  6  1  0
  6  7  2  0
  7  8  1  0
  8  9  2  0
  9 10  1  0
 10 11  1  0
 11 12  1  0
 12 13  1  0
 13 14  1  0
 14 15  2  0
 14 16  1  0
 16 17  1  0
 17 18  1  0
 18 19  2  0
 18 20  1  0
 20 21  1  0
 21 22  2  0
 22 23  1  0
 23 24  2  0
 24 25  1  0
 25 26  1  0
 25 27  2  0
  9 28  1  0
 28 29  2  0
 29 30  1  0
 30 31  1  0
 31 32  2  0
 31 33  1  0
 30  4  1  0
 29  6  1  0
 27 21  1  0
  1 34  1  0
  1 35  1  0
  5 36  1  0
  7 37  1  0
  8 38  1  0
 10 39  1  0
 11 40  1  0
 11 41  1  0
 12 42  1  0
 12 43  1  0
 16 44  1  0
 16 45  1  0
 17 46  1  0
 17 47  1  0
 22 48  1  0
 23 49  1  0
 24 50  1  0
 27 51  1  0
 28 52  1  0
M  CHG  3  13  -1  20  -1  33  -1
M  END
>  <UniqueID>  (52) 
51

>  <SMILES>  (52) 
NC(=O)c1cc2ccc(NCC[N-]C(=O)CCC(=O)[N-]c3cccc(I)c3)cc2n1C(=O)[O-]

>  <Energy>  (52) 
81.83884429883328

>  <Genealogy>  (52) 
NC(=O)c1cc2ccc(NCC[N-]C(=O)CCC(=O)[N-]c3cccc(I)c3)cc2n1C(=O)[O-] (protonated)
NC(=O)c1cc2ccc(NCC[N-]C(=O)CCC(=O)[N-]c3cccc(I)c3)cc2n1C(=O)[O-] (3D coordinates assigned)
NC(=O)c1cc2ccc(NCC[N-]C(=O)CCC(=O)[N-]c3cccc(I)c3)cc2n1C(=O)[O-] (optimized conformer: 81.83884429883328 kcal/mol)

>  <smiles>  (52) 
NC(=O)c1cc2ccc(NCCNC(=O)CCC(=O)Nc3cccc(I)c3)cc2n1C(=O)O

>  <score_type>  (52) 
oracle

>  <origin>  (52) 
adg

>  <m_score__min__energy>  (52) 
-9.8399999999999999

>  <m_primary>  (52) 
energy

$$$$
52:0
     RDKit          3D

 55 57  0  0  0  0  0  0  0  0999 V2000
  142.9590  159.3240  133.4310 N   0  0  0  0  0  0  0  0  0  0  0  0
  144.3760  159.4550  133.5020 C   0  0  0  0  0  0  0  0  0  0  0  0
  144.8840  160.6030  133.6000 O   0  0  0  0  0  0  0  0  0  0  0  0
  145.2530  158.2690  133.4260 C   0  0  0  0  0  0  0  0  0  0  0  0
  146.6170  158.2930  133.7180 C   0  0  0  0  0  0  0  0  0  0  0  0
  147.0640  157.0110  133.4770 C   0  0  0  0  0  0  0  0  0  0  0  0
  148.3290  156.4550  133.6380 C   0  0  0  0  0  0  0  0  0  0  0  0
  148.4860  155.0870  133.3520 C   0  0  0  0  0  0  0  0  0  0  0  0
  147.3860  154.3060  132.9070 C   0  0  0  0  0  0  0  0  0  0  0  0
  147.5560  152.9000  132.6330 N   0  0  0  0  0  0  0  0  0  0  0  0
  148.9580  152.5680  132.3160 C   0  0  0  0  0  0  0  0  0  0  0  0
  149.1550  151.1260  131.8060 C   0  0  0  0  0  0  0  0  0  0  0  0
  148.1810  150.1260  132.4410 C   0  0  0  0  0  0  0  0  0  0  0  0
  146.8580  150.5290  132.2110 O   0  0  0  0  0  0  0  0  0  0  0  0
  146.1180  154.9120  132.7570 C   0  0  0  0  0  0  0  0  0  0  0  0
  145.9920  156.2700  133.0540 C   0  0  0  0  0  0  0  0  0  0  0  0
  144.8740  157.0210  133.0380 N   0  0  0  0  0  0  0  0  0  0  0  0
  143.5600  156.5510  132.7090 C   0  0  0  0  0  0  0  0  0  0  0  0
  142.8750  157.2110  131.8820 O   0  0  0  0  0  0  0  0  0  0  0  0
  142.9720  155.3200  133.3870 C   0  0  1  0  0  0  0  0  0  0  0  0
  143.2090  154.0280  132.5650 C   0  0  0  0  0  0  0  0  0  0  0  0
  143.8270  152.9130  133.3610 C   0  0  0  0  0  0  0  0  0  0  0  0
  143.2120  152.4250  134.3450 O   0  0  0  0  0  0  0  0  0  0  0  0
  145.0780  152.4120  133.0190 O   0  0  0  0  0  0  0  0  0  0  0  0
  143.4680  155.1330  134.8490 C   0  0  0  0  0  0  0  0  0  0  0  0
  142.5930  155.8010  135.8850 C   0  0  0  0  0  0  0  0  0  0  0  0
  142.1120  157.1070  135.6830 C   0  0  0  0  0  0  0  0  0  0  0  0
  141.3050  157.7210  136.6460 C   0  0  0  0  0  0  0  0  0  0  0  0
  140.9520  157.0310  137.8080 C   0  0  0  0  0  0  0  0  0  0  0  0
  141.3910  155.7180  138.0020 C   0  0  0  0  0  0  0  0  0  0  0  0
  142.1970  155.1010  137.0400 C   0  0  0  0  0  0  0  0  0  0  0  0
  142.4730  159.2300  132.5120 H   0  0  0  0  0  0  0  0  0  0  0  0
  147.2097  159.1517  134.0663 H   0  0  0  0  0  0  0  0  0  0  0  0
  149.1787  157.0654  133.9779 H   0  0  0  0  0  0  0  0  0  0  0  0
  149.4725  154.6161  133.4744 H   0  0  0  0  0  0  0  0  0  0  0  0
  147.2100  152.3200  133.4310 H   0  0  0  0  0  0  0  0  0  0  0  0
  146.9660  152.6480  131.8080 H   0  0  0  0  0  0  0  0  0  0  0  0
  149.3119  153.2621  131.5395 H   0  0  0  0  0  0  0  0  0  0  0  0
  149.5286  152.6580  133.2521 H   0  0  0  0  0  0  0  0  0  0  0  0
  149.0058  151.1165  130.7162 H   0  0  0  0  0  0  0  0  0  0  0  0
  150.1728  150.8153  132.0846 H   0  0  0  0  0  0  0  0  0  0  0  0
  148.3405  149.1317  131.9983 H   0  0  0  0  0  0  0  0  0  0  0  0
  148.3618  150.0866  133.5253 H   0  0  0  0  0  0  0  0  0  0  0  0
  146.4850  150.7910  133.0910 H   0  0  0  0  0  0  0  0  0  0  0  0
  145.2513  154.3275  132.4145 H   0  0  0  0  0  0  0  0  0  0  0  0
  141.8885  155.5044  133.4317 H   0  0  0  0  0  0  0  0  0  0  0  0
  142.2406  153.6815  132.1750 H   0  0  0  0  0  0  0  0  0  0  0  0
  143.9169  154.2819  131.7622 H   0  0  0  0  0  0  0  0  0  0  0  0
  143.5019  154.0555  135.0676 H   0  0  0  0  0  0  0  0  0  0  0  0
  144.4574  155.6094  134.9129 H   0  0  0  0  0  0  0  0  0  0  0  0
  142.3722  157.6489  134.7618 H   0  0  0  0  0  0  0  0  0  0  0  0
  140.9475  158.7492  136.4881 H   0  0  0  0  0  0  0  0  0  0  0  0
  140.3285  157.5208  138.5705 H   0  0  0  0  0  0  0  0  0  0  0  0
  141.1025  155.1702  138.9112 H   0  0  0  0  0  0  0  0  0  0  0  0
  142.5238  154.0610  137.1871 H   0  0  0  0  0  0  0  0  0  0  0  0
  1  2  1  0
  2  3  2  0
  2  4  1  0
  4  5  2  0
  5  6  1  0
  6  7  2  0
  7  8  1  0
  8  9  2  0
  9 10  1  0
 10 11  1  0
 11 12  1  0
 12 13  1  0
 13 14  1  0
  9 15  1  0
 15 16  2  0
 16 17  1  0
 17 18  1  0
 18 19  2  0
 18 20  1  0
 20 21  1  0
 21 22  1  0
 22 23  2  0
 22 24  1  0
 20 25  1  0
 25 26  1  0
 26 27  2  0
 27 28  1  0
 28 29  2  0
 29 30  1  0
 30 31  2  0
 17  4  1  0
 31 26  1  0
 16  6  1  0
  1 32  1  0
  5 33  1  0
  7 34  1  0
  8 35  1  0
 10 36  1  0
 10 37  1  0
 11 38  1  0
 11 39  1  0
 12 40  1  0
 12 41  1  0
 13 42  1  0
 13 43  1  0
 14 44  1  0
 15 45  1  0
 20 46  1  1
 21 47  1  0
 21 48  1  0
 25 49  1  0
 25 50  1  0
 27 51  1  0
 28 52  1  0
 29 53  1  0
 30 54  1  0
 31 55  1  0
M  CHG  3   1  -1  10   1  24  -1
M  END
>  <UniqueID>  (53) 
52

>  <SMILES>  (53) 
[NH-]C(=O)c1cc2ccc([NH2+]CCCO)cc2n1C(=O)[C@@H](CC(=O)[O-])Cc1ccccc1

>  <Energy>  (53) 
90.35141391742805

>  <Genealogy>  (53) 
[NH-]C(=O)c1cc2ccc([NH2+]CCCO)cc2n1C(=O)C(CC(=O)[O-])Cc1ccccc1 (protonated)
[NH-]C(=O)c1cc2ccc([NH2+]CCCO)cc2n1C(=O)[C@@H](CC(=O)[O-])Cc1ccccc1 (chirality)
[NH-]C(=O)c1cc2ccc([NH2+]CCCO)cc2n1C(=O)[C@@H](CC(=O)[O-])Cc1ccccc1 (3D coordinates assigned)
[NH-]C(=O)c1cc2ccc([NH2+]CCCO)cc2n1C(=O)[C@@H](CC(=O)[O-])Cc1ccccc1 (optimized conformer: 90.35141391742805 kcal/mol)

>  <smiles>  (53) 
NC(=O)c1cc2ccc(NCCCO)cc2n1C(=O)C(CC(=O)O)Cc1ccccc1

>  <score_type>  (53) 
oracle

>  <origin>  (53) 
adg

>  <m_score__min__energy>  (53) 
-7.54

>  <m_primary>  (53) 
energy

$$$$
53:0
     RDKit          3D

 49 50  0  0  0  0  0  0  0  0999 V2000
  148.4830  158.3700  134.3400 C   0  0  0  0  0  0  0  0  0  0  0  0
  148.1030  158.1220  132.8670 C   0  0  0  0  0  0  0  0  0  0  0  0
  149.2550  158.5960  131.9690 C   0  0  0  0  0  0  0  0  0  0  0  0
  147.8570  156.6220  132.6110 C   0  0  0  0  0  0  0  0  0  0  0  0
  146.9450  158.8880  132.5080 O   0  0  0  0  0  0  0  0  0  0  0  0
  146.4490  160.0150  133.1810 C   0  0  0  0  0  0  0  0  0  0  0  0
  147.2270  160.9140  133.6000 O   0  0  0  0  0  0  0  0  0  0  0  0
  145.0390  160.1180  133.4320 N   0  0  0  0  0  0  0  0  0  0  0  0
  144.3450  161.1990  133.8900 C   0  0  0  0  0  0  0  0  0  0  0  0
  144.8770  162.5670  134.0600 C   0  0  0  0  0  0  0  0  0  0  0  0
  145.9790  162.8230  134.9260 N   0  0  0  0  0  0  0  0  0  0  0  0
  144.3820  163.5150  133.3950 O   0  0  0  0  0  0  0  0  0  0  0  0
  143.0100  160.8600  134.1110 C   0  0  0  0  0  0  0  0  0  0  0  0
  142.9080  159.5320  133.7660 C   0  0  0  0  0  0  0  0  0  0  0  0
  141.8110  158.6780  133.8070 C   0  0  0  0  0  0  0  0  0  0  0  0
  142.0040  157.3390  133.4260 C   0  0  0  0  0  0  0  0  0  0  0  0
  143.2810  156.8740  133.0200 C   0  0  0  0  0  0  0  0  0  0  0  0
  143.4350  155.4870  132.6590 N   0  0  0  0  0  0  0  0  0  0  0  0
  144.5430  154.6320  133.0890 C   0  0  0  0  0  0  0  0  0  0  0  0
  144.2250  153.1480  132.8770 C   0  0  0  0  0  0  0  0  0  0  0  0
  142.7910  152.9680  132.5920 N   0  0  0  0  0  0  0  0  0  0  0  0
  141.9970  152.6960  133.8010 C   0  0  0  0  0  0  0  0  0  0  0  0
  141.6200  151.2460  133.9080 C   0  0  0  0  0  0  0  0  0  0  0  0
  141.8560  150.4570  132.9560 O   0  0  0  0  0  0  0  0  0  0  0  0
  140.9930  150.7750  135.0550 O   0  0  0  0  0  0  0  0  0  0  0  0
  144.3690  157.7790  132.9850 C   0  0  0  0  0  0  0  0  0  0  0  0
  144.1450  159.1090  133.3570 C   0  0  0  0  0  0  0  0  0  0  0  0
  147.7434  157.8873  134.9957 H   0  0  0  0  0  0  0  0  0  0  0  0
  149.4793  157.9477  134.5378 H   0  0  0  0  0  0  0  0  0  0  0  0
  148.4975  159.4520  134.5378 H   0  0  0  0  0  0  0  0  0  0  0  0
  150.0909  158.9399  132.5959 H   0  0  0  0  0  0  0  0  0  0  0  0
  149.5914  157.7632  131.3339 H   0  0  0  0  0  0  0  0  0  0  0  0
  148.9079  159.4244  131.3339 H   0  0  0  0  0  0  0  0  0  0  0  0
  147.7706  156.0952  133.5728 H   0  0  0  0  0  0  0  0  0  0  0  0
  146.9261  156.4955  132.0388 H   0  0  0  0  0  0  0  0  0  0  0  0
  148.6987  156.2048  132.0388 H   0  0  0  0  0  0  0  0  0  0  0  0
  146.9580  162.8190  134.5660 H   0  0  0  0  0  0  0  0  0  0  0  0
  142.2086  161.5156  134.4824 H   0  0  0  0  0  0  0  0  0  0  0  0
  140.8228  159.0394  134.1277 H   0  0  0  0  0  0  0  0  0  0  0  0
  141.1531  156.6421  133.4429 H   0  0  0  0  0  0  0  0  0  0  0  0
  142.7180  155.0550  132.0340 H   0  0  0  0  0  0  0  0  0  0  0  0
  145.4404  154.8914  132.5081 H   0  0  0  0  0  0  0  0  0  0  0  0
  144.7092  154.7983  134.1636 H   0  0  0  0  0  0  0  0  0  0  0  0
  144.8139  152.7682  132.0291 H   0  0  0  0  0  0  0  0  0  0  0  0
  144.4804  152.5931  133.7918 H   0  0  0  0  0  0  0  0  0  0  0  0
  142.6680  152.1760  131.9170 H   0  0  0  0  0  0  0  0  0  0  0  0
  142.5881  152.9761  134.6854 H   0  0  0  0  0  0  0  0  0  0  0  0
  141.0705  153.2859  133.7407 H   0  0  0  0  0  0  0  0  0  0  0  0
  145.3689  157.4438  132.6721 H   0  0  0  0  0  0  0  0  0  0  0  0
  1  2  1  0
  2  3  1  0
  2  4  1  0
  2  5  1  0
  5  6  1  0
  6  7  2  0
  6  8  1  0
  8  9  1  0
  9 10  1  0
 10 11  1  0
 10 12  2  0
  9 13  2  0
 13 14  1  0
 14 15  2  0
 15 16  1  0
 16 17  2  0
 17 18  1  0
 18 19  1  0
 19 20  1  0
 20 21  1  0
 21 22  1  0
 22 23  1  0
 23 24  2  0
 23 25  1  0
 17 26  1  0
 26 27  2  0
 27  8  1  0
 27 14  1  0
  1 28  1  0
  1 29  1  0
  1 30  1  0
  3 31  1  0
  3 32  1  0
  3 33  1  0
  4 34  1  0
  4 35  1  0
  4 36  1  0
 11 37  1  0
 13 38  1  0
 15 39  1  0
 16 40  1  0
 18 41  1  0
 19 42  1  0
 19 43  1  0
 20 44  1  0
 20 45  1  0
 21 46  1  0
 22 47  1  0
 22 48  1  0
 26 49  1  0
M  CHG  2  11  -1  25  -1
M  END
>  <UniqueID>  (54) 
53

>  <SMILES>  (54) 
CC(C)(C)OC(=O)n1c(C([NH-])=O)cc2ccc(NCCNCC(=O)[O-])cc21

>  <Energy>  (54) 
80.1158529846617

>  <Genealogy>  (54) 
CC(C)(C)OC(=O)n1c(C([NH-])=O)cc2ccc(NCCNCC(=O)[O-])cc21 (protonated)
CC(C)(C)OC(=O)n1c(C([NH-])=O)cc2ccc(NCCNCC(=O)[O-])cc21 (3D coordinates assigned)
CC(C)(C)OC(=O)n1c(C([NH-])=O)cc2ccc(NCCNCC(=O)[O-])cc21 (optimized conformer: 80.1158529846617 kcal/mol)

>  <smiles>  (54) 
CC(C)(C)OC(=O)n1c(C(N)=O)cc2ccc(NCCNCC(=O)O)cc21

>  <score_type>  (54) 
oracle

>  <origin>  (54) 
adg

>  <m_score__min__energy>  (54) 
-7.4699999999999998

>  <m_primary>  (54) 
energy

$$$$
54:0
     RDKit          3D

 39 40  0  0  0  0  0  0  0  0999 V2000
  139.0480  149.3980  131.7320 C   0  0  0  0  0  0  0  0  0  0  0  0
  140.3690  150.0360  132.0420 C   0  0  0  0  0  0  0  0  0  0  0  0
  141.5650  149.2870  131.9160 C   0  0  0  0  0  0  0  0  0  0  0  0
  142.8050  149.8580  132.2500 C   0  0  0  0  0  0  0  0  0  0  0  0
  142.8150  151.1720  132.7100 C   0  0  0  0  0  0  0  0  0  0  0  0
  143.8650  151.9540  133.1330 C   0  0  0  0  0  0  0  0  0  0  0  0
  143.2960  153.1700  133.5020 C   0  0  0  0  0  0  0  0  0  0  0  0
  144.0870  154.3380  133.9440 C   0  0  0  0  0  0  0  0  0  0  0  0
  143.5480  155.6550  133.8800 N   0  0  0  0  0  0  0  0  0  0  0  0
  145.2730  154.1750  134.3370 O   0  0  0  0  0  0  0  0  0  0  0  0
  141.9450  153.1400  133.3230 N   0  0  0  0  0  0  0  0  0  0  0  0
  140.9900  154.1510  133.6780 C   0  0  0  0  0  0  0  0  0  0  0  0
  140.9860  154.6300  134.8450 O   0  0  0  0  0  0  0  0  0  0  0  0
  140.0790  154.6120  132.7200 O   0  0  0  0  0  0  0  0  0  0  0  0
  139.1090  155.6240  132.9810 C   0  0  0  0  0  0  0  0  0  0  0  0
  139.6950  157.0120  132.7020 C   0  0  0  0  0  0  0  0  0  0  0  0
  139.9570  157.7750  134.0000 C   0  0  0  0  0  0  0  0  0  0  0  0
  141.3090  157.6120  134.3590 O   0  0  0  0  0  0  0  0  0  0  0  0
  141.3990  157.4370  136.0530 P   0  0  2  0  0  0  0  0  0  0  0  0
  140.0270  157.1400  136.6170 O   0  0  0  0  0  0  0  0  0  0  0  0
  141.9690  158.8810  136.7230 O   0  0  0  0  0  0  0  0  0  0  0  0
  142.4610  156.1820  136.4620 O   0  0  0  0  0  0  0  0  0  0  0  0
  141.6660  151.9120  132.8340 C   0  0  0  0  0  0  0  0  0  0  0  0
  140.4160  151.3620  132.5260 C   0  0  0  0  0  0  0  0  0  0  0  0
  138.5319  149.1487  132.6709 H   0  0  0  0  0  0  0  0  0  0  0  0
  138.4309  150.0974  131.1488 H   0  0  0  0  0  0  0  0  0  0  0  0
  139.2121  148.4798  131.1488 H   0  0  0  0  0  0  0  0  0  0  0  0
  141.5227  148.2493  131.5535 H   0  0  0  0  0  0  0  0  0  0  0  0
  143.7385  149.2846  132.1511 H   0  0  0  0  0  0  0  0  0  0  0  0
  144.9289  151.6771  133.1715 H   0  0  0  0  0  0  0  0  0  0  0  0
  142.6560  155.8950  134.3680 H   0  0  0  0  0  0  0  0  0  0  0  0
  138.2345  155.4632  132.3334 H   0  0  0  0  0  0  0  0  0  0  0  0
  138.8121  155.5686  134.0387 H   0  0  0  0  0  0  0  0  0  0  0  0
  140.6430  156.8976  132.1559 H   0  0  0  0  0  0  0  0  0  0  0  0
  138.9683  157.5821  132.1046 H   0  0  0  0  0  0  0  0  0  0  0  0
  139.7406  158.8431  133.8508 H   0  0  0  0  0  0  0  0  0  0  0  0
  139.3092  157.3853  134.7991 H   0  0  0  0  0  0  0  0  0  0  0  0
  142.6880  155.7550  135.5980 H   0  0  0  0  0  0  0  0  0  0  0  0
  139.4941  151.9475  132.6576 H   0  0  0  0  0  0  0  0  0  0  0  0
  1  2  1  0
  2  3  2  0
  3  4  1  0
  4  5  2  0
  5  6  1  0
  6  7  2  0
  7  8  1  0
  8  9  1  0
  8 10  2  0
  7 11  1  0
 11 12  1  0
 12 13  2  0
 12 14  1  0
 14 15  1  0
 15 16  1  0
 16 17  1  0
 17 18  1  0
 18 19  1  0
 19 20  2  0
 19 21  1  1
 19 22  1  0
 11 23  1  0
 23 24  2  0
 24  2  1  0
 23  5  1  0
  1 25  1  0
  1 26  1  0
  1 27  1  0
  3 28  1  0
  4 29  1  0
  6 30  1  0
  9 31  1  0
 15 32  1  0
 15 33  1  0
 16 34  1  0
 16 35  1  0
 17 36  1  0
 17 37  1  0
 22 38  1  0
 24 39  1  0
M  CHG  2   9  -1  21  -1
M  END
>  <UniqueID>  (55) 
54

>  <SMILES>  (55) 
Cc1ccc2cc(C([NH-])=O)n(C(=O)OCCCO[P@](=O)([O-])O)c2c1

>  <Energy>  (55) 
69.4742606272487

>  <Genealogy>  (55) 
Cc1ccc2cc(C([NH-])=O)n(C(=O)OCCCOP(=O)([O-])O)c2c1 (protonated)
Cc1ccc2cc(C([NH-])=O)n(C(=O)OCCCO[P@](=O)([O-])O)c2c1 (chirality)
Cc1ccc2cc(C([NH-])=O)n(C(=O)OCCCO[P@](=O)([O-])O)c2c1 (3D coordinates assigned)
Cc1ccc2cc(C([NH-])=O)n(C(=O)OCCCO[P@](=O)([O-])O)c2c1 (optimized conformer: 69.4742606272487 kcal/mol)

>  <smiles>  (55) 
Cc1ccc2cc(C(N)=O)n(C(=O)OCCCOP(=O)(O)O)c2c1

>  <score_type>  (55) 
oracle

>  <origin>  (55) 
adg

>  <m_score__min__energy>  (55) 
-5.8300000000000001

>  <m_primary>  (55) 
energy

$$$$
55:0
     RDKit          3D

 40 41  0  0  0  0  0  0  0  0999 V2000
  145.9980  162.9250  134.5410 C   0  0  0  0  0  0  0  0  0  0  0  0
  144.7250  162.6100  133.8790 N   0  0  0  0  0  0  0  0  0  0  0  0
  143.9070  163.7100  133.3540 C   0  0  0  0  0  0  0  0  0  0  0  0
  144.2880  161.2330  133.7410 C   0  0  0  0  0  0  0  0  0  0  0  0
  142.9070  160.8990  133.8140 C   0  0  0  0  0  0  0  0  0  0  0  0
  142.4760  159.5690  133.6890 C   0  0  0  0  0  0  0  0  0  0  0  0
  143.4360  158.5860  133.4820 C   0  0  0  0  0  0  0  0  0  0  0  0
  143.2910  157.2240  133.3530 C   0  0  0  0  0  0  0  0  0  0  0  0
  144.5810  156.7350  133.1690 C   0  0  0  0  0  0  0  0  0  0  0  0
  144.8800  155.3120  132.9140 C   0  0  0  0  0  0  0  0  0  0  0  0
  145.7690  154.9200  131.8680 N   0  0  0  0  0  0  0  0  0  0  0  0
  144.2950  154.4250  133.5910 O   0  0  0  0  0  0  0  0  0  0  0  0
  145.4910  157.7500  133.2010 N   0  0  0  0  0  0  0  0  0  0  0  0
  146.9230  157.6430  133.1440 C   0  0  0  0  0  0  0  0  0  0  0  0
  147.4710  156.9740  132.2240 O   0  0  0  0  0  0  0  0  0  0  0  0
  147.7060  158.2750  134.1120 O   0  0  0  0  0  0  0  0  0  0  0  0
  148.6230  159.3200  133.8110 C   0  0  0  0  0  0  0  0  0  0  0  0
  148.3780  159.8460  132.3930 C   0  0  0  0  0  0  0  0  0  0  0  0
  149.5430  159.5540  131.4410 C   0  0  0  0  0  0  0  0  0  0  0  0
  149.2450  160.2210  129.8110 Cl  0  0  0  0  0  0  0  0  0  0  0  0
  144.7710  158.8800  133.3890 C   0  0  0  0  0  0  0  0  0  0  0  0
  145.2320  160.1940  133.5340 C   0  0  0  0  0  0  0  0  0  0  0  0
  145.8621  162.8914  135.6320 H   0  0  0  0  0  0  0  0  0  0  0  0
  146.7583  162.1879  134.2433 H   0  0  0  0  0  0  0  0  0  0  0  0
  146.3268  163.9316  134.2433 H   0  0  0  0  0  0  0  0  0  0  0  0
  143.4813  164.2824  134.1914 H   0  0  0  0  0  0  0  0  0  0  0  0
  144.5340  164.3719  132.7386 H   0  0  0  0  0  0  0  0  0  0  0  0
  143.0926  163.3000  132.7386 H   0  0  0  0  0  0  0  0  0  0  0  0
  142.1651  161.6958  133.9709 H   0  0  0  0  0  0  0  0  0  0  0  0
  141.4083  159.3122  133.7531 H   0  0  0  0  0  0  0  0  0  0  0  0
  142.3560  156.6455  133.3878 H   0  0  0  0  0  0  0  0  0  0  0  0
  145.9980  153.9110  131.7240 H   0  0  0  0  0  0  0  0  0  0  0  0
  146.1380  155.6180  131.1830 H   0  0  0  0  0  0  0  0  0  0  0  0
  148.4883  160.1404  134.5313 H   0  0  0  0  0  0  0  0  0  0  0  0
  149.6486  158.9278  133.8764 H   0  0  0  0  0  0  0  0  0  0  0  0
  147.4702  159.3701  131.9937 H   0  0  0  0  0  0  0  0  0  0  0  0
  148.2708  160.9387  132.4593 H   0  0  0  0  0  0  0  0  0  0  0  0
  150.4591  160.0057  131.8493 H   0  0  0  0  0  0  0  0  0  0  0  0
  149.6484  158.4627  131.3516 H   0  0  0  0  0  0  0  0  0  0  0  0
  146.3081  160.4172  133.4882 H   0  0  0  0  0  0  0  0  0  0  0  0
  1  2  1  0
  2  3  1  0
  2  4  1  0
  4  5  2  0
  5  6  1  0
  6  7  2  0
  7  8  1  0
  8  9  2  0
  9 10  1  0
 10 11  1  0
 10 12  2  0
  9 13  1  0
 13 14  1  0
 14 15  2  0
 14 16  1  0
 16 17  1  0
 17 18  1  0
 18 19  1  0
 19 20  1  0
 13 21  1  0
 21 22  2  0
 22  4  1  0
 21  7  1  0
  1 23  1  0
  1 24  1  0
  1 25  1  0
  3 26  1  0
  3 27  1  0
  3 28  1  0
  5 29  1  0
  6 30  1  0
  8 31  1  0
 11 32  1  0
 11 33  1  0
 17 34  1  0
 17 35  1  0
 18 36  1  0
 18 37  1  0
 19 38  1  0
 19 39  1  0
 22 40  1  0
M  END
>  <UniqueID>  (56) 
55

>  <SMILES>  (56) 
CN(C)c1ccc2cc(C(N)=O)n(C(=O)OCCCCl)c2c1

>  <Energy>  (56) 
73.71757075224276

>  <Genealogy>  (56) 
CN(C)c1ccc2cc(C(N)=O)n(C(=O)OCCCCl)c2c1 (3D coordinates assigned)
CN(C)c1ccc2cc(C(N)=O)n(C(=O)OCCCCl)c2c1 (optimized conformer: 73.71757075224276 kcal/mol)

>  <smiles>  (56) 
CN(C)c1ccc2cc(C(N)=O)n(C(=O)OCCCCl)c2c1

>  <score_type>  (56) 
oracle

>  <origin>  (56) 
adg

>  <m_score__min__energy>  (56) 
-6.6600000000000001

>  <m_primary>  (56) 
energy

$$$$
56:0
     RDKit          3D

 42 44  0  0  0  0  0  0  0  0999 V2000
  141.2910  160.0210  135.4300 N   0  0  0  0  0  0  0  0  0  0  0  0
  141.9540  160.3320  134.2070 C   0  0  0  0  0  0  0  0  0  0  0  0
  141.3400  160.9850  133.3230 O   0  0  0  0  0  0  0  0  0  0  0  0
  143.3610  159.9250  134.0090 C   0  0  0  0  0  0  0  0  0  0  0  0
  144.3970  160.8270  133.7800 C   0  0  0  0  0  0  0  0  0  0  0  0
  145.5140  160.0540  133.5610 C   0  0  0  0  0  0  0  0  0  0  0  0
  146.8270  160.4330  133.2980 C   0  0  0  0  0  0  0  0  0  0  0  0
  147.7870  159.4180  133.1460 C   0  0  0  0  0  0  0  0  0  0  0  0
  147.4190  158.0540  133.2580 C   0  0  0  0  0  0  0  0  0  0  0  0
  148.4640  156.9770  133.1420 C   0  0  0  0  0  0  0  0  0  0  0  0
  147.8270  155.6320  132.7520 C   0  0  0  0  0  0  0  0  0  0  0  0
  146.8940  155.6110  131.6190 N   0  0  0  0  0  0  0  0  0  0  0  0
  148.6440  154.3640  132.9560 C   0  0  0  0  0  0  0  0  0  0  0  0
  147.4800  154.6840  133.8940 C   0  0  0  0  0  0  0  0  0  0  0  0
  146.0780  157.7090  133.5330 C   0  0  0  0  0  0  0  0  0  0  0  0
  145.1400  158.7400  133.6630 C   0  0  0  0  0  0  0  0  0  0  0  0
  143.8220  158.6430  133.9430 N   0  0  0  0  0  0  0  0  0  0  0  0
  143.0910  157.4290  134.1800 C   0  0  0  0  0  0  0  0  0  0  0  0
  142.3320  157.3370  135.1830 O   0  0  0  0  0  0  0  0  0  0  0  0
  143.2530  156.3430  133.3110 O   0  0  0  0  0  0  0  0  0  0  0  0
  143.6040  155.0290  133.7430 C   0  0  0  0  0  0  0  0  0  0  0  0
  144.0730  154.1770  132.5650 C   0  0  0  0  0  0  0  0  0  0  0  0
  144.3910  154.9940  131.4740 O   0  0  0  0  0  0  0  0  0  0  0  0
  141.5520  159.1740  135.9810 H   0  0  0  0  0  0  0  0  0  0  0  0
  144.3354  161.9253  133.7752 H   0  0  0  0  0  0  0  0  0  0  0  0
  147.1047  161.4939  133.2118 H   0  0  0  0  0  0  0  0  0  0  0  0
  148.8337  159.6847  132.9382 H   0  0  0  0  0  0  0  0  0  0  0  0
  149.1947  157.2659  132.3721 H   0  0  0  0  0  0  0  0  0  0  0  0
  148.9585  156.8613  134.1177 H   0  0  0  0  0  0  0  0  0  0  0  0
  146.5150  154.6430  131.5050 H   0  0  0  0  0  0  0  0  0  0  0  0
  147.3500  155.9000  130.7230 H   0  0  0  0  0  0  0  0  0  0  0  0
  146.1040  156.2680  131.8120 H   0  0  0  0  0  0  0  0  0  0  0  0
  148.5604  153.5343  132.2386 H   0  0  0  0  0  0  0  0  0  0  0  0
  149.7126  154.1400  133.0902 H   0  0  0  0  0  0  0  0  0  0  0  0
  146.5582  154.0852  133.8516 H   0  0  0  0  0  0  0  0  0  0  0  0
  147.3626  154.7863  134.9829 H   0  0  0  0  0  0  0  0  0  0  0  0
  145.7777  156.6565  133.6424 H   0  0  0  0  0  0  0  0  0  0  0  0
  144.4145  155.0975  134.4836 H   0  0  0  0  0  0  0  0  0  0  0  0
  142.7165  154.5559  134.1886 H   0  0  0  0  0  0  0  0  0  0  0  0
  144.9642  153.6048  132.8624 H   0  0  0  0  0  0  0  0  0  0  0  0
  143.2648  153.4894  132.2750 H   0  0  0  0  0  0  0  0  0  0  0  0
  143.6010  155.5760  131.3270 H   0  0  0  0  0  0  0  0  0  0  0  0
  1  2  1  0
  2  3  2  0
  2  4  1  0
  4  5  2  0
  5  6  1  0
  6  7  2  0
  7  8  1  0
  8  9  2  0
  9 10  1  0
 10 11  1  0
 11 12  1  0
 11 13  1  0
 13 14  1  0
  9 15  1  0
 15 16  2  0
 16 17  1  0
 17 18  1  0
 18 19  2  0
 18 20  1  0
 20 21  1  0
 21 22  1  0
 22 23  1  0
 17  4  1  0
 16  6  1  0
 14 11  1  0
  1 24  1  0
  5 25  1  0
  7 26  1  0
  8 27  1  0
 10 28  1  0
 10 29  1  0
 12 30  1  0
 12 31  1  0
 12 32  1  0
 13 33  1  0
 13 34  1  0
 14 35  1  0
 14 36  1  0
 15 37  1  0
 21 38  1  0
 21 39  1  0
 22 40  1  0
 22 41  1  0
 23 42  1  0
M  CHG  2   1  -1  12   1
M  END
>  <UniqueID>  (57) 
56

>  <SMILES>  (57) 
[NH-]C(=O)c1cc2ccc(CC3([NH3+])CC3)cc2n1C(=O)OCCO

>  <Energy>  (57) 
344.40703656961136

>  <Genealogy>  (57) 
[NH-]C(=O)c1cc2ccc(CC3([NH3+])CC3)cc2n1C(=O)OCCO (protonated)
[NH-]C(=O)c1cc2ccc(CC3([NH3+])CC3)cc2n1C(=O)OCCO (3D coordinates assigned)
[NH-]C(=O)c1cc2ccc(CC3([NH3+])CC3)cc2n1C(=O)OCCO (nonaromatic ring conformer: 344.40703656961136 kcal/mol)

>  <smiles>  (57) 
NC(=O)c1cc2ccc(CC3(N)CC3)cc2n1C(=O)OCCO

>  <score_type>  (57) 
oracle

>  <origin>  (57) 
adg

>  <m_score__min__energy>  (57) 
-6.2999999999999998

>  <m_primary>  (57) 
energy

$$$$
57:0
     RDKit          3D

 38 39  0  0  0  0  0  0  0  0999 V2000
  148.0170  154.0610  136.8050 C   0  0  0  0  0  0  0  0  0  0  0  0
  146.8070  153.4500  136.4150 O   0  0  0  0  0  0  0  0  0  0  0  0
  145.9210  154.4230  135.8990 C   0  0  0  0  0  0  0  0  0  0  0  0
  145.4160  154.0240  134.6260 O   0  0  0  0  0  0  0  0  0  0  0  0
  145.5360  154.8120  133.4760 C   0  0  0  0  0  0  0  0  0  0  0  0
  144.6440  154.7760  132.5850 O   0  0  0  0  0  0  0  0  0  0  0  0
  146.6800  155.6640  133.3110 N   0  0  0  0  0  0  0  0  0  0  0  0
  147.9680  155.2850  133.0720 C   0  0  0  0  0  0  0  0  0  0  0  0
  148.4800  153.9010  133.0950 C   0  0  0  0  0  0  0  0  0  0  0  0
  147.7490  152.8520  133.7320 N   0  0  0  0  0  0  0  0  0  0  0  0
  149.6080  153.6500  132.5920 O   0  0  0  0  0  0  0  0  0  0  0  0
  148.7740  156.3980  132.8480 C   0  0  0  0  0  0  0  0  0  0  0  0
  147.9380  157.4840  132.9740 C   0  0  0  0  0  0  0  0  0  0  0  0
  148.2090  158.8410  132.8340 C   0  0  0  0  0  0  0  0  0  0  0  0
  147.1410  159.7440  132.9780 C   0  0  0  0  0  0  0  0  0  0  0  0
  145.8320  159.2760  133.2530 C   0  0  0  0  0  0  0  0  0  0  0  0
  144.6850  160.2490  133.3580 C   0  0  0  0  0  0  0  0  0  0  0  0
  144.8180  161.1510  134.5910 C   0  0  0  0  0  0  0  0  0  0  0  0
  145.0920  162.5740  134.2070 C   0  0  0  0  0  0  0  0  0  0  0  0
  146.2000  163.1030  134.4870 O   0  0  0  0  0  0  0  0  0  0  0  0
  144.1080  163.3260  133.5790 O   0  0  0  0  0  0  0  0  0  0  0  0
  145.5930  157.8900  133.3800 C   0  0  0  0  0  0  0  0  0  0  0  0
  146.6790  157.0140  133.2530 C   0  0  0  0  0  0  0  0  0  0  0  0
  148.0756  154.0906  137.9030 H   0  0  0  0  0  0  0  0  0  0  0  0
  148.8644  153.4827  136.4080 H   0  0  0  0  0  0  0  0  0  0  0  0
  148.0547  155.0862  136.4080 H   0  0  0  0  0  0  0  0  0  0  0  0
  145.0801  154.5511  136.5965 H   0  0  0  0  0  0  0  0  0  0  0  0
  146.4678  155.3701  135.7803 H   0  0  0  0  0  0  0  0  0  0  0  0
  146.9010  153.0550  134.3060 H   0  0  0  0  0  0  0  0  0  0  0  0
  148.1080  151.8720  133.7020 H   0  0  0  0  0  0  0  0  0  0  0  0
  149.8499  156.4073  132.6191 H   0  0  0  0  0  0  0  0  0  0  0  0
  149.2271  159.1966  132.6174 H   0  0  0  0  0  0  0  0  0  0  0  0
  147.3233  160.8240  132.8762 H   0  0  0  0  0  0  0  0  0  0  0  0
  144.6676  160.8784  132.4560 H   0  0  0  0  0  0  0  0  0  0  0  0
  143.7534  159.6720  133.4539 H   0  0  0  0  0  0  0  0  0  0  0  0
  143.8809  161.1105  135.1657 H   0  0  0  0  0  0  0  0  0  0  0  0
  145.6641  160.7881  135.1930 H   0  0  0  0  0  0  0  0  0  0  0  0
  144.5799  157.5079  133.5737 H   0  0  0  0  0  0  0  0  0  0  0  0
  1  2  1  0
  2  3  1  0
  3  4  1  0
  4  5  1  0
  5  6  2  0
  5  7  1  0
  7  8  1  0
  8  9  1  0
  9 10  1  0
  9 11  2  0
  8 12  2  0
 12 13  1  0
 13 14  2  0
 14 15  1  0
 15 16  2  0
 16 17  1  0
 17 18  1  0
 18 19  1  0
 19 20  2  0
 19 21  1  0
 16 22  1  0
 22 23  2  0
 23  7  1  0
 23 13  1  0
  1 24  1  0
  1 25  1  0
  1 26  1  0
  3 27  1  0
  3 28  1  0
 10 29  1  0
 10 30  1  0
 12 31  1  0
 14 32  1  0
 15 33  1  0
 17 34  1  0
 17 35  1  0
 18 36  1  0
 18 37  1  0
 22 38  1  0
M  CHG  1  21  -1
M  END
>  <UniqueID>  (58) 
57

>  <SMILES>  (58) 
COCOC(=O)n1c(C(N)=O)cc2ccc(CCC(=O)[O-])cc21

>  <Energy>  (58) 
73.55497029710354

>  <Genealogy>  (58) 
COCOC(=O)n1c(C(N)=O)cc2ccc(CCC(=O)[O-])cc21 (protonated)
COCOC(=O)n1c(C(N)=O)cc2ccc(CCC(=O)[O-])cc21 (3D coordinates assigned)
COCOC(=O)n1c(C(N)=O)cc2ccc(CCC(=O)[O-])cc21 (optimized conformer: 73.55497029710354 kcal/mol)

>  <smiles>  (58) 
COCOC(=O)n1c(C(N)=O)cc2ccc(CCC(=O)O)cc21

>  <score_type>  (58) 
oracle

>  <origin>  (58) 
adg

>  <m_score__min__energy>  (58) 
-6.5199999999999996

>  <m_primary>  (58) 
energy

$$$$
58:0
     RDKit          3D

 31 32  0  0  0  0  0  0  0  0999 V2000
  142.9460  163.5240  133.5380 H   0  0  0  0  0  0  0  0  0  0  0  0
  143.9670  163.4100  133.3560 N   0  0  0  0  0  0  0  0  0  0  0  0
  144.7700  162.5660  134.1790 C   0  0  0  0  0  0  0  0  0  0  0  0
  145.4050  163.0700  135.1440 O   0  0  0  0  0  0  0  0  0  0  0  0
  144.8740  161.1240  133.8750 C   0  0  0  0  0  0  0  0  0  0  0  0
  146.0840  160.4620  133.6760 C   0  0  0  0  0  0  0  0  0  0  0  0
  147.0919  160.9025  133.6703 H   0  0  0  0  0  0  0  0  0  0  0  0
  145.7500  159.1390  133.4880 C   0  0  0  0  0  0  0  0  0  0  0  0
  146.5620  158.0370  133.2290 C   0  0  0  0  0  0  0  0  0  0  0  0
  147.6556  158.1393  133.1688 H   0  0  0  0  0  0  0  0  0  0  0  0
  145.9390  156.7900  133.0470 C   0  0  0  0  0  0  0  0  0  0  0  0
  146.5518  155.9001  132.8404 H   0  0  0  0  0  0  0  0  0  0  0  0
  144.5300  156.6680  133.1270 C   0  0  0  0  0  0  0  0  0  0  0  0
  143.8720  155.3410  132.8860 C   0  0  0  0  0  0  0  0  0  0  0  0
  142.8020  155.4952  132.6824 H   0  0  0  0  0  0  0  0  0  0  0  0
  144.3458  154.8512  132.0225 H   0  0  0  0  0  0  0  0  0  0  0  0
  144.0740  154.2180  134.4500 Br  0  0  0  0  0  0  0  0  0  0  0  0
  143.7400  157.8110  133.3740 C   0  0  0  0  0  0  0  0  0  0  0  0
  142.6429  157.7404  133.4107 H   0  0  0  0  0  0  0  0  0  0  0  0
  144.3860  159.0360  133.5710 C   0  0  0  0  0  0  0  0  0  0  0  0
  143.8340  160.2450  133.8110 N   0  0  0  0  0  0  0  0  0  0  0  0
  142.4290  160.5340  133.9060 C   0  0  0  0  0  0  0  0  0  0  0  0
  141.9810  161.6010  133.4080 O   0  0  0  0  0  0  0  0  0  0  0  0
  141.5340  159.5970  134.6180 C   0  0  0  0  0  0  0  0  0  0  0  0
  141.8480  159.2920  135.9400 O   0  0  0  0  0  0  0  0  0  0  0  0
  140.4630  159.0130  134.0510 C   0  0  0  0  0  0  0  0  0  0  0  0
  139.9680  159.2590  132.2120 Br  0  0  0  0  0  0  0  0  0  0  0  0
  139.4530  157.8730  135.0010 S   0  0  0  0  0  0  0  0  0  0  0  0
  140.0550  156.4470  134.1030 C   0  0  0  0  0  0  0  0  0  0  0  0
  139.4900  156.0900  133.0380 O   0  0  0  0  0  0  0  0  0  0  0  0
  141.1500  155.7390  134.5800 O   0  0  0  0  0  0  0  0  0  0  0  0
  1  2  1  0
  2  3  1  0
  3  4  2  0
  3  5  1  0
  5  6  2  0
  6  7  1  0
  6  8  1  0
  8  9  2  0
  9 10  1  0
  9 11  1  0
 11 12  1  0
 11 13  2  0
 13 14  1  0
 14 15  1  0
 14 16  1  0
 14 17  1  0
 13 18  1  0
 18 19  1  0
 18 20  2  0
 20 21  1  0
 21 22  1  0
 22 23  2  0
 22 24  1  0
 24 25  1  0
 24 26  2  0
 26 27  1  0
 26 28  1  0
 28 29  1  0
 29 30  2  0
 29 31  1  0
 21  5  1  0
 20  8  1  0
M  CHG  3   2  -1  25  -1  31  -1
M  END
>  <UniqueID>  (59) 
58

>  <SMILES>  (59) 
[NH-]C(=O)c1cc2ccc(CBr)cc2n1C(=O)/C([O-])=C(\Br)SC(=O)[O-]

>  <Energy>  (59) 
69.38949831611818

>  <Genealogy>  (59) 
[NH-]C(=O)c1cc2ccc(CBr)cc2n1C(=O)/C([O-])=C(\Br)SC(=O)[O-] (protonated)
[NH-]C(=O)c1cc2ccc(CBr)cc2n1C(=O)/C([O-])=C(\Br)SC(=O)[O-] (cis-trans isomerization)
[NH-]C(=O)c1cc2ccc(CBr)cc2n1C(=O)/C([O-])=C(\Br)SC(=O)[O-] (3D coordinates assigned)
[NH-]C(=O)c1cc2ccc(CBr)cc2n1C(=O)/C([O-])=C(\Br)SC(=O)[O-] (optimized conformer: 69.38949831611818 kcal/mol)

>  <smiles>  (59) 
NC(=O)c1cc2ccc(CBr)cc2n1C(=O)/C(O)=C(\Br)SC(=O)O

>  <score_type>  (59) 
oracle

>  <origin>  (59) 
adg

>  <m_score__min__energy>  (59) 
-7.7800000000000002

>  <m_primary>  (59) 
energy

$$$$
59:0
     RDKit          3D

 43 45  0  0  0  0  0  0  0  0999 V2000
  138.7490  157.5700  132.1280 N   0  0  0  0  0  0  0  0  0  0  0  0
  139.2570  158.4740  133.1070 C   0  0  0  0  0  0  0  0  0  0  0  0
  139.1730  159.7140  132.9050 O   0  0  0  0  0  0  0  0  0  0  0  0
  139.9080  157.9480  134.3250 C   0  0  0  0  0  0  0  0  0  0  0  0
  139.8660  158.5900  135.5630 C   0  0  0  0  0  0  0  0  0  0  0  0
  140.5340  157.7540  136.4300 C   0  0  0  0  0  0  0  0  0  0  0  0
  140.8260  157.9130  137.7800 C   0  0  0  0  0  0  0  0  0  0  0  0
  141.5840  156.9120  138.4130 C   0  0  0  0  0  0  0  0  0  0  0  0
  142.0330  155.7760  137.6890 C   0  0  0  0  0  0  0  0  0  0  0  0
  142.8610  154.7870  138.3310 N   0  0  0  0  0  0  0  0  0  0  0  0
  142.0550  153.6500  138.6970 C   0  0  0  0  0  0  0  0  0  0  0  0
  141.5670  153.5160  140.0110 C   0  0  0  0  0  0  0  0  0  0  0  0
  140.7560  152.4310  140.3550 C   0  0  0  0  0  0  0  0  0  0  0  0
  140.4190  151.4740  139.3940 C   0  0  0  0  0  0  0  0  0  0  0  0
  140.8900  151.6030  138.0840 C   0  0  0  0  0  0  0  0  0  0  0  0
  140.5570  150.6770  137.1500 F   0  0  0  0  0  0  0  0  0  0  0  0
  141.7010  152.6880  137.7340 C   0  0  0  0  0  0  0  0  0  0  0  0
  141.7150  155.6540  136.3170 C   0  0  0  0  0  0  0  0  0  0  0  0
  140.9490  156.6590  135.7180 C   0  0  0  0  0  0  0  0  0  0  0  0
  140.5740  156.7640  134.4260 N   0  0  0  0  0  0  0  0  0  0  0  0
  140.9170  155.8540  133.3710 C   0  0  0  0  0  0  0  0  0  0  0  0
  140.0140  155.1790  132.8050 O   0  0  0  0  0  0  0  0  0  0  0  0
  142.2570  155.7010  132.9980 O   0  0  0  0  0  0  0  0  0  0  0  0
  143.0680  154.5980  133.4020 C   0  0  0  0  0  0  0  0  0  0  0  0
  144.3240  155.0680  134.1480 C   0  0  0  0  0  0  0  0  0  0  0  0
  145.4540  154.7900  133.3960 F   0  0  0  0  0  0  0  0  0  0  0  0
  144.2540  156.4380  134.3290 F   0  0  0  0  0  0  0  0  0  0  0  0
  144.4350  154.3940  135.4830 C   0  0  0  0  0  0  0  0  0  0  0  0
  145.2840  154.7910  136.3240 O   0  0  0  0  0  0  0  0  0  0  0  0
  143.5670  153.3630  135.8200 O   0  0  0  0  0  0  0  0  0  0  0  0
  138.4500  156.6060  132.3950 H   0  0  0  0  0  0  0  0  0  0  0  0
  139.3987  159.5580  135.7969 H   0  0  0  0  0  0  0  0  0  0  0  0
  140.4748  158.7948  138.3359 H   0  0  0  0  0  0  0  0  0  0  0  0
  141.8317  157.0100  139.4802 H   0  0  0  0  0  0  0  0  0  0  0  0
  143.6340  154.4920  137.6880 H   0  0  0  0  0  0  0  0  0  0  0  0
  143.3140  155.1950  139.1820 H   0  0  0  0  0  0  0  0  0  0  0  0
  141.8253  154.2688  140.7703 H   0  0  0  0  0  0  0  0  0  0  0  0
  140.3821  152.3301  141.3846 H   0  0  0  0  0  0  0  0  0  0  0  0
  139.7832  150.6193  139.6683 H   0  0  0  0  0  0  0  0  0  0  0  0
  142.0636  152.7892  136.7004 H   0  0  0  0  0  0  0  0  0  0  0  0
  142.0622  154.7883  135.7339 H   0  0  0  0  0  0  0  0  0  0  0  0
  142.4806  153.9465  134.0657 H   0  0  0  0  0  0  0  0  0  0  0  0
  143.3851  154.0538  132.5002 H   0  0  0  0  0  0  0  0  0  0  0  0
  1  2  1  0
  2  3  2  0
  2  4  1  0
  4  5  2  0
  5  6  1  0
  6  7  2  0
  7  8  1  0
  8  9  2  0
  9 10  1  0
 10 11  1  0
 11 12  2  0
 12 13  1  0
 13 14  2  0
 14 15  1  0
 15 16  1  0
 15 17  2  0
  9 18  1  0
 18 19  2  0
 19 20  1  0
 20 21  1  0
 21 22  2  0
 21 23  1  0
 23 24  1  0
 24 25  1  0
 25 26  1  0
 25 27  1  0
 25 28  1  0
 28 29  2  0
 28 30  1  0
 20  4  1  0
 19  6  1  0
 17 11  1  0
  1 31  1  0
  5 32  1  0
  7 33  1  0
  8 34  1  0
 10 35  1  0
 10 36  1  0
 12 37  1  0
 13 38  1  0
 14 39  1  0
 17 40  1  0
 18 41  1  0
 24 42  1  0
 24 43  1  0
M  CHG  3   1  -1  10   1  30  -1
M  END
>  <UniqueID>  (60) 
59

>  <SMILES>  (60) 
[NH-]C(=O)c1cc2ccc([NH2+]c3cccc(F)c3)cc2n1C(=O)OCC(F)(F)C(=O)[O-]

>  <Energy>  (60) 
82.38904832724263

>  <Genealogy>  (60) 
[NH-]C(=O)c1cc2ccc([NH2+]c3cccc(F)c3)cc2n1C(=O)OCC(F)(F)C(=O)[O-] (protonated)
[NH-]C(=O)c1cc2ccc([NH2+]c3cccc(F)c3)cc2n1C(=O)OCC(F)(F)C(=O)[O-] (3D coordinates assigned)
[NH-]C(=O)c1cc2ccc([NH2+]c3cccc(F)c3)cc2n1C(=O)OCC(F)(F)C(=O)[O-] (optimized conformer: 82.38904832724263 kcal/mol)

>  <smiles>  (60) 
NC(=O)c1cc2ccc(Nc3cccc(F)c3)cc2n1C(=O)OCC(F)(F)C(=O)O

>  <score_type>  (60) 
oracle

>  <origin>  (60) 
adg

>  <m_score__min__energy>  (60) 
-5.8099999999999996

>  <m_primary>  (60) 
energy

$$$$
60:0
     RDKit          3D

 38 39  0  0  0  0  0  0  0  0999 V2000
  149.6970  150.9600  133.9790 C   0  0  0  0  0  0  0  0  0  0  0  0
  149.6300  151.5200  132.5550 C   0  0  0  0  0  0  0  0  0  0  0  0
  148.2510  151.2470  131.9460 C   0  0  0  0  0  0  0  0  0  0  0  0
  149.9050  152.9630  132.5650 N   0  0  0  0  0  0  0  0  0  0  0  0
  148.9750  153.9720  133.0120 C   0  0  0  0  0  0  0  0  0  0  0  0
  147.8790  153.6630  133.8660 C   0  0  0  0  0  0  0  0  0  0  0  0
  146.9840  154.6660  134.2770 C   0  0  0  0  0  0  0  0  0  0  0  0
  147.2110  155.9660  133.8390 C   0  0  0  0  0  0  0  0  0  0  0  0
  146.4870  157.1150  134.0580 C   0  0  0  0  0  0  0  0  0  0  0  0
  147.1610  158.1160  133.3600 C   0  0  0  0  0  0  0  0  0  0  0  0
  146.7400  159.5340  133.3460 C   0  0  0  0  0  0  0  0  0  0  0  0
  145.4390  159.8820  132.8780 N   0  0  0  0  0  0  0  0  0  0  0  0
  147.5100  160.4410  133.7550 O   0  0  0  0  0  0  0  0  0  0  0  0
  148.2610  157.6040  132.7410 N   0  0  0  0  0  0  0  0  0  0  0  0
  149.2010  158.3000  131.9090 C   0  0  0  0  0  0  0  0  0  0  0  0
  150.4380  158.1410  132.0920 O   0  0  0  0  0  0  0  0  0  0  0  0
  148.7280  159.1810  130.7880 C   0  0  0  0  0  0  0  0  0  0  0  0
  148.6780  160.6480  131.2170 C   0  0  0  0  0  0  0  0  0  0  0  0
  149.6270  161.6740  130.1060 Cl  0  0  0  0  0  0  0  0  0  0  0  0
  148.2740  156.2870  133.0380 C   0  0  0  0  0  0  0  0  0  0  0  0
  149.1680  155.3070  132.5920 C   0  0  0  0  0  0  0  0  0  0  0  0
  149.5985  151.7833  134.7018 H   0  0  0  0  0  0  0  0  0  0  0  0
  148.8785  150.2406  134.1290 H   0  0  0  0  0  0  0  0  0  0  0  0
  150.6621  150.4539  134.1290 H   0  0  0  0  0  0  0  0  0  0  0  0
  150.3931  151.0200  131.9403 H   0  0  0  0  0  0  0  0  0  0  0  0
  147.5166  151.1016  132.7519 H   0  0  0  0  0  0  0  0  0  0  0  0
  147.9487  152.1027  131.3244 H   0  0  0  0  0  0  0  0  0  0  0  0
  148.2976  150.3406  131.3244 H   0  0  0  0  0  0  0  0  0  0  0  0
  150.8360  153.2890  132.2160 H   0  0  0  0  0  0  0  0  0  0  0  0
  147.7308  152.6281  134.2081 H   0  0  0  0  0  0  0  0  0  0  0  0
  146.1284  154.4292  134.9266 H   0  0  0  0  0  0  0  0  0  0  0  0
  145.5705  157.2214  134.6569 H   0  0  0  0  0  0  0  0  0  0  0  0
  145.2400  160.8390  132.5090 H   0  0  0  0  0  0  0  0  0  0  0  0
  149.4180  159.0798  129.9373 H   0  0  0  0  0  0  0  0  0  0  0  0
  147.7123  158.8674  130.5050 H   0  0  0  0  0  0  0  0  0  0  0  0
  147.6318  160.9877  131.2147 H   0  0  0  0  0  0  0  0  0  0  0  0
  149.1091  160.7325  132.2254 H   0  0  0  0  0  0  0  0  0  0  0  0
  150.0042  155.5709  131.9278 H   0  0  0  0  0  0  0  0  0  0  0  0
  1  2  1  0
  2  3  1  0
  2  4  1  0
  4  5  1  0
  5  6  2  0
  6  7  1  0
  7  8  2  0
  8  9  1  0
  9 10  2  0
 10 11  1  0
 11 12  1  0
 11 13  2  0
 10 14  1  0
 14 15  1  0
 15 16  2  0
 15 17  1  0
 17 18  1  0
 18 19  1  0
 14 20  1  0
 20 21  2  0
 21  5  1  0
 20  8  1  0
  1 22  1  0
  1 23  1  0
  1 24  1  0
  2 25  1  0
  3 26  1  0
  3 27  1  0
  3 28  1  0
  4 29  1  0
  6 30  1  0
  7 31  1  0
  9 32  1  0
 12 33  1  0
 17 34  1  0
 17 35  1  0
 18 36  1  0
 18 37  1  0
 21 38  1  0
M  CHG  1  12  -1
M  END
>  <UniqueID>  (61) 
60

>  <SMILES>  (61) 
CC(C)Nc1ccc2cc(C([NH-])=O)n(C(=O)CCCl)c2c1

>  <Energy>  (61) 
69.9645697077539

>  <Genealogy>  (61) 
CC(C)Nc1ccc2cc(C([NH-])=O)n(C(=O)CCCl)c2c1 (protonated)
CC(C)Nc1ccc2cc(C([NH-])=O)n(C(=O)CCCl)c2c1 (3D coordinates assigned)
CC(C)Nc1ccc2cc(C([NH-])=O)n(C(=O)CCCl)c2c1 (optimized conformer: 69.9645697077539 kcal/mol)

>  <smiles>  (61) 
CC(C)Nc1ccc2cc(C(N)=O)n(C(=O)CCCl)c2c1

>  <score_type>  (61) 
oracle

>  <origin>  (61) 
adg

>  <m_score__min__energy>  (61) 
-7.8399999999999999

>  <m_primary>  (61) 
energy

$$$$
61:0
     RDKit          3D

 43 44  0  0  0  0  0  0  0  0999 V2000
  149.5480  158.3220  131.8930 C   0  0  0  0  0  0  0  0  0  0  0  0
  148.5170  157.6710  132.8080 C   0  0  0  0  0  0  0  0  0  0  0  0
  147.3940  158.6250  133.1070 C   0  0  0  0  0  0  0  0  0  0  0  0
  147.6730  159.9810  133.4120 C   0  0  0  0  0  0  0  0  0  0  0  0
  146.6320  160.8740  133.7180 C   0  0  0  0  0  0  0  0  0  0  0  0
  145.3300  160.3850  133.7190 C   0  0  0  0  0  0  0  0  0  0  0  0
  144.1390  161.0230  133.9850 C   0  0  0  0  0  0  0  0  0  0  0  0
  143.1590  160.0400  133.8630 C   0  0  0  0  0  0  0  0  0  0  0  0
  141.7280  160.2750  134.1420 C   0  0  0  0  0  0  0  0  0  0  0  0
  141.1000  159.7380  135.3060 N   0  0  0  0  0  0  0  0  0  0  0  0
  141.0580  161.0010  133.3600 O   0  0  0  0  0  0  0  0  0  0  0  0
  143.7180  158.8520  133.4990 N   0  0  0  0  0  0  0  0  0  0  0  0
  143.0550  157.6050  133.2390 C   0  0  0  0  0  0  0  0  0  0  0  0
  142.8520  157.2590  132.0430 O   0  0  0  0  0  0  0  0  0  0  0  0
  142.6280  156.7400  134.3140 N   0  0  0  0  0  0  0  0  0  0  0  0
  143.6370  155.8770  134.9380 C   0  0  0  0  0  0  0  0  0  0  0  0
  141.1990  156.5360  134.6410 C   0  0  2  0  0  0  0  0  0  0  0  0
  140.9880  156.2270  136.1370 C   0  0  0  0  0  0  0  0  0  0  0  0
  140.9770  157.4820  136.9560 C   0  0  0  0  0  0  0  0  0  0  0  0
  141.9950  157.8170  137.6170 O   0  0  0  0  0  0  0  0  0  0  0  0
  139.8550  158.3010  136.9600 O   0  0  0  0  0  0  0  0  0  0  0  0
  140.5850  155.4900  133.7530 C   0  0  0  0  0  0  0  0  0  0  0  0
  139.5950  155.7870  133.0340 O   0  0  0  0  0  0  0  0  0  0  0  0
  141.0950  154.1960  133.7080 O   0  0  0  0  0  0  0  0  0  0  0  0
  145.0470  159.0730  133.4400 C   0  0  0  0  0  0  0  0  0  0  0  0
  146.0610  158.1600  133.1320 C   0  0  0  0  0  0  0  0  0  0  0  0
  150.3223  158.8109  132.5024 H   0  0  0  0  0  0  0  0  0  0  0  0
  150.0123  157.5530  131.2582 H   0  0  0  0  0  0  0  0  0  0  0  0
  149.0533  159.0718  131.2582 H   0  0  0  0  0  0  0  0  0  0  0  0
  148.1092  156.7768  132.3139 H   0  0  0  0  0  0  0  0  0  0  0  0
  149.0074  157.3947  133.7531 H   0  0  0  0  0  0  0  0  0  0  0  0
  148.7137  160.3374  133.4091 H   0  0  0  0  0  0  0  0  0  0  0  0
  146.8408  161.9288  133.9499 H   0  0  0  0  0  0  0  0  0  0  0  0
  143.9925  162.0830  134.2396 H   0  0  0  0  0  0  0  0  0  0  0  0
  141.6640  159.3300  136.0840 H   0  0  0  0  0  0  0  0  0  0  0  0
  140.0720  159.8500  135.4440 H   0  0  0  0  0  0  0  0  0  0  0  0
  143.5539  155.9480  136.0326 H   0  0  0  0  0  0  0  0  0  0  0  0
  143.4730  154.8354  134.6247 H   0  0  0  0  0  0  0  0  0  0  0  0
  144.6406  156.2005  134.6247 H   0  0  0  0  0  0  0  0  0  0  0  0
  140.6746  157.4825  134.4433 H   0  0  0  0  0  0  0  0  0  0  0  0
  140.0264  155.7081  136.2635 H   0  0  0  0  0  0  0  0  0  0  0  0
  141.8197  155.5948  136.4816 H   0  0  0  0  0  0  0  0  0  0  0  0
  145.8261  157.1075  132.9150 H   0  0  0  0  0  0  0  0  0  0  0  0
  1  2  1  0
  2  3  1  0
  3  4  2  0
  4  5  1  0
  5  6  2  0
  6  7  1  0
  7  8  2  0
  8  9  1  0
  9 10  1  0
  9 11  2  0
  8 12  1  0
 12 13  1  0
 13 14  2  0
 13 15  1  0
 15 16  1  0
 15 17  1  0
 17 18  1  0
 18 19  1  0
 19 20  2  0
 19 21  1  0
 17 22  1  0
 22 23  2  0
 22 24  1  0
 12 25  1  0
 25 26  2  0
 26  3  1  0
 25  6  1  0
  1 27  1  0
  1 28  1  0
  1 29  1  0
  2 30  1  0
  2 31  1  0
  4 32  1  0
  5 33  1  0
  7 34  1  0
 10 35  1  0
 10 36  1  0
 16 37  1  0
 16 38  1  0
 16 39  1  0
 17 40  1  6
 18 41  1  0
 18 42  1  0
 26 43  1  0
M  CHG  2  21  -1  24  -1
M  END
>  <UniqueID>  (62) 
61

>  <SMILES>  (62) 
CCc1ccc2cc(C(N)=O)n(C(=O)N(C)[C@H](CC(=O)[O-])C(=O)[O-])c2c1

>  <Energy>  (62) 
78.41100157529094

>  <Genealogy>  (62) 
CCc1ccc2cc(C(N)=O)n(C(=O)N(C)C(CC(=O)[O-])C(=O)[O-])c2c1 (protonated)
CCc1ccc2cc(C(N)=O)n(C(=O)N(C)[C@H](CC(=O)[O-])C(=O)[O-])c2c1 (chirality)
CCc1ccc2cc(C(N)=O)n(C(=O)N(C)[C@H](CC(=O)[O-])C(=O)[O-])c2c1 (3D coordinates assigned)
CCc1ccc2cc(C(N)=O)n(C(=O)N(C)[C@H](CC(=O)[O-])C(=O)[O-])c2c1 (optimized conformer: 78.41100157529094 kcal/mol)

>  <smiles>  (62) 
CCc1ccc2cc(C(N)=O)n(C(=O)N(C)C(CC(=O)O)C(=O)O)c2c1

>  <score_type>  (62) 
oracle

>  <origin>  (62) 
adg

>  <m_score__min__energy>  (62) 
-7.1100000000000003

>  <m_primary>  (62) 
energy

$$$$
62:0
     RDKit          3D

 35 36  0  0  0  0  0  0  0  0999 V2000
  145.1300  154.7870  132.2720 C   0  0  0  0  0  0  0  0  0  0  0  0
  145.2490  155.2030  133.6750 N   0  0  0  0  0  0  0  0  0  0  0  0
  146.2780  154.5790  134.5260 C   0  0  0  0  0  0  0  0  0  0  0  0
  147.6330  155.1480  134.2370 C   0  0  0  0  0  0  0  0  0  0  0  0
  148.3090  154.7140  133.2680 O   0  0  0  0  0  0  0  0  0  0  0  0
  148.1300  156.1900  135.0100 O   0  0  0  0  0  0  0  0  0  0  0  0
  144.2830  156.1570  134.1830 C   0  0  0  0  0  0  0  0  0  0  0  0
  143.8240  155.9970  135.3470 O   0  0  0  0  0  0  0  0  0  0  0  0
  143.7920  157.3150  133.3980 C   0  0  0  0  0  0  0  0  0  0  0  0
  142.7430  157.2350  132.7060 O   0  0  0  0  0  0  0  0  0  0  0  0
  144.5030  158.5610  133.4350 N   0  0  0  0  0  0  0  0  0  0  0  0
  144.0060  159.7930  133.7350 C   0  0  0  0  0  0  0  0  0  0  0  0
  142.5850  160.1060  133.9970 C   0  0  0  0  0  0  0  0  0  0  0  0
  141.7580  159.1520  134.6590 N   0  0  0  0  0  0  0  0  0  0  0  0
  142.0960  161.2140  133.6540 O   0  0  0  0  0  0  0  0  0  0  0  0
  145.0240  160.7450  133.7240 C   0  0  0  0  0  0  0  0  0  0  0  0
  146.1710  160.0490  133.4120 C   0  0  0  0  0  0  0  0  0  0  0  0
  147.4850  160.4940  133.2840 C   0  0  0  0  0  0  0  0  0  0  0  0
  148.4740  159.5410  132.9820 C   0  0  0  0  0  0  0  0  0  0  0  0
  148.1360  158.1760  132.8240 C   0  0  0  0  0  0  0  0  0  0  0  0
  149.1540  157.2160  132.5270 N   0  0  0  0  0  0  0  0  0  0  0  0
  146.7950  157.7610  132.9630 C   0  0  0  0  0  0  0  0  0  0  0  0
  145.8290  158.7320  133.2460 C   0  0  0  0  0  0  0  0  0  0  0  0
  144.8278  153.7303  132.2273 H   0  0  0  0  0  0  0  0  0  0  0  0
  144.3730  155.4065  131.7688 H   0  0  0  0  0  0  0  0  0  0  0  0
  146.1001  154.9125  131.7688 H   0  0  0  0  0  0  0  0  0  0  0  0
  146.0296  154.7607  135.5821 H   0  0  0  0  0  0  0  0  0  0  0  0
  146.2994  153.4997  134.3145 H   0  0  0  0  0  0  0  0  0  0  0  0
  141.8720  158.1290  134.4840 H   0  0  0  0  0  0  0  0  0  0  0  0
  144.9312  161.8230  133.9223 H   0  0  0  0  0  0  0  0  0  0  0  0
  147.7404  161.5559  133.4149 H   0  0  0  0  0  0  0  0  0  0  0  0
  149.5206  159.8597  132.8675 H   0  0  0  0  0  0  0  0  0  0  0  0
  149.5080  156.5680  133.2660 H   0  0  0  0  0  0  0  0  0  0  0  0
  149.5580  157.1460  131.5680 H   0  0  0  0  0  0  0  0  0  0  0  0
  146.5166  156.7026  132.8518 H   0  0  0  0  0  0  0  0  0  0  0  0
  1  2  1  0
  2  3  1  0
  3  4  1  0
  4  5  2  0
  4  6  1  0
  2  7  1  0
  7  8  2  0
  7  9  1  0
  9 10  2  0
  9 11  1  0
 11 12  1  0
 12 13  1  0
 13 14  1  0
 13 15  2  0
 12 16  2  0
 16 17  1  0
 17 18  2  0
 18 19  1  0
 19 20  2  0
 20 21  1  0
 20 22  1  0
 22 23  2  0
 23 11  1  0
 23 17  1  0
  1 24  1  0
  1 25  1  0
  1 26  1  0
  3 27  1  0
  3 28  1  0
 14 29  1  0
 16 30  1  0
 18 31  1  0
 19 32  1  0
 21 33  1  0
 21 34  1  0
 22 35  1  0
M  CHG  2   6  -1  14  -1
M  END
>  <UniqueID>  (63) 
62

>  <SMILES>  (63) 
CN(CC(=O)[O-])C(=O)C(=O)n1c(C([NH-])=O)cc2ccc(N)cc21

>  <Energy>  (63) 
75.02085141346666

>  <Genealogy>  (63) 
CN(CC(=O)[O-])C(=O)C(=O)n1c(C([NH-])=O)cc2ccc(N)cc21 (protonated)
CN(CC(=O)[O-])C(=O)C(=O)n1c(C([NH-])=O)cc2ccc(N)cc21 (3D coordinates assigned)
CN(CC(=O)[O-])C(=O)C(=O)n1c(C([NH-])=O)cc2ccc(N)cc21 (optimized conformer: 75.02085141346666 kcal/mol)

>  <smiles>  (63) 
CN(CC(=O)O)C(=O)C(=O)n1c(C(N)=O)cc2ccc(N)cc21

>  <score_type>  (63) 
oracle

>  <origin>  (63) 
adg

>  <m_score__min__energy>  (63) 
-6.5499999999999998

>  <m_primary>  (63) 
energy

$$$$
63:0
     RDKit          3D

 44 45  0  0  0  0  0  0  0  0999 V2000
  141.8200  156.3010  138.3090 C   0  0  0  0  0  0  0  0  0  0  0  0
  140.8130  157.3100  137.7500 C   0  0  0  0  0  0  0  0  0  0  0  0
  141.4080  158.7180  137.7500 C   0  0  0  0  0  0  0  0  0  0  0  0
  140.4430  156.9490  136.3850 N   0  0  0  0  0  0  0  0  0  0  0  0
  139.9480  157.8830  135.4170 C   0  0  0  0  0  0  0  0  0  0  0  0
  138.7280  158.2070  135.4200 O   0  0  0  0  0  0  0  0  0  0  0  0
  140.8630  158.4660  134.3710 C   0  0  2  0  0  0  0  0  0  0  0  0
  140.4430  158.1320  132.9240 C   0  0  0  0  0  0  0  0  0  0  0  0
  140.0770  159.3710  132.1670 C   0  0  0  0  0  0  0  0  0  0  0  0
  139.5110  159.2830  131.0450 O   0  0  0  0  0  0  0  0  0  0  0  0
  140.3100  160.6230  132.7240 O   0  0  0  0  0  0  0  0  0  0  0  0
  142.2610  158.0880  134.6290 N   0  0  0  0  0  0  0  0  0  0  0  0
  143.4400  158.8020  134.1970 C   0  0  0  0  0  0  0  0  0  0  0  0
  143.4960  160.2230  134.1510 C   0  0  0  0  0  0  0  0  0  0  0  0
  144.6600  160.8840  133.7270 C   0  0  0  0  0  0  0  0  0  0  0  0
  145.7490  160.1100  133.3440 C   0  0  0  0  0  0  0  0  0  0  0  0
  146.9980  160.4940  132.9130 C   0  0  0  0  0  0  0  0  0  0  0  0
  147.6860  159.3060  132.6700 C   0  0  0  0  0  0  0  0  0  0  0  0
  149.0450  159.2460  132.0890 C   0  0  0  0  0  0  0  0  0  0  0  0
  149.9650  158.2290  132.4870 N   0  0  0  0  0  0  0  0  0  0  0  0
  149.4170  160.1190  131.2610 O   0  0  0  0  0  0  0  0  0  0  0  0
  146.8930  158.2310  132.9460 N   0  0  0  0  0  0  0  0  0  0  0  0
  147.2560  156.8410  132.8860 C   0  0  0  0  0  0  0  0  0  0  0  0
  146.5490  156.0250  132.2390 O   0  0  0  0  0  0  0  0  0  0  0  0
  148.3800  156.3790  133.5610 O   0  0  0  0  0  0  0  0  0  0  0  0
  145.7110  158.7420  133.3570 C   0  0  0  0  0  0  0  0  0  0  0  0
  144.5690  158.0570  133.7900 C   0  0  0  0  0  0  0  0  0  0  0  0
  141.7937  156.3274  139.4084 H   0  0  0  0  0  0  0  0  0  0  0  0
  141.5592  155.2909  137.9601 H   0  0  0  0  0  0  0  0  0  0  0  0
  142.8306  156.5598  137.9601 H   0  0  0  0  0  0  0  0  0  0  0  0
  139.9198  157.2933  138.3918 H   0  0  0  0  0  0  0  0  0  0  0  0
  141.5507  159.0557  138.7871 H   0  0  0  0  0  0  0  0  0  0  0  0
  142.3780  158.7061  137.2315 H   0  0  0  0  0  0  0  0  0  0  0  0
  140.7234  159.4054  137.2315 H   0  0  0  0  0  0  0  0  0  0  0  0
  140.7727  159.5589  134.4576 H   0  0  0  0  0  0  0  0  0  0  0  0
  141.2801  157.6336  132.4133 H   0  0  0  0  0  0  0  0  0  0  0  0
  139.5630  157.4729  132.9599 H   0  0  0  0  0  0  0  0  0  0  0  0
  142.4040  157.2530  135.2420 H   0  0  0  0  0  0  0  0  0  0  0  0
  142.6163  160.8112  134.4514 H   0  0  0  0  0  0  0  0  0  0  0  0
  144.7086  161.9826  133.6988 H   0  0  0  0  0  0  0  0  0  0  0  0
  147.3738  161.5201  132.7870 H   0  0  0  0  0  0  0  0  0  0  0  0
  150.9370  158.2220  132.1050 H   0  0  0  0  0  0  0  0  0  0  0  0
  149.6760  157.4560  133.1260 H   0  0  0  0  0  0  0  0  0  0  0  0
  144.5514  156.9574  133.8128 H   0  0  0  0  0  0  0  0  0  0  0  0
  1  2  1  0
  2  3  1  0
  2  4  1  0
  4  5  1  0
  5  6  2  0
  5  7  1  0
  7  8  1  0
  8  9  1  0
  9 10  2  0
  9 11  1  0
  7 12  1  0
 12 13  1  0
 13 14  2  0
 14 15  1  0
 15 16  2  0
 16 17  1  0
 17 18  2  0
 18 19  1  0
 19 20  1  0
 19 21  2  0
 18 22  1  0
 22 23  1  0
 23 24  2  0
 23 25  1  0
 22 26  1  0
 26 27  2  0
 27 13  1  0
 26 16  1  0
  1 28  1  0
  1 29  1  0
  1 30  1  0
  2 31  1  0
  3 32  1  0
  3 33  1  0
  3 34  1  0
  7 35  1  6
  8 36  1  0
  8 37  1  0
 12 38  1  0
 14 39  1  0
 15 40  1  0
 17 41  1  0
 20 42  1  0
 20 43  1  0
 27 44  1  0
M  CHG  3   4  -1  11  -1  25  -1
M  END
>  <UniqueID>  (64) 
63

>  <SMILES>  (64) 
CC(C)[N-]C(=O)[C@H](CC(=O)[O-])Nc1ccc2cc(C(N)=O)n(C(=O)[O-])c2c1

>  <Energy>  (64) 
76.66176975298507

>  <Genealogy>  (64) 
CC(C)[N-]C(=O)C(CC(=O)[O-])Nc1ccc2cc(C(N)=O)n(C(=O)[O-])c2c1 (protonated)
CC(C)[N-]C(=O)[C@H](CC(=O)[O-])Nc1ccc2cc(C(N)=O)n(C(=O)[O-])c2c1 (chirality)
CC(C)[N-]C(=O)[C@H](CC(=O)[O-])Nc1ccc2cc(C(N)=O)n(C(=O)[O-])c2c1 (3D coordinates assigned)
CC(C)[N-]C(=O)[C@H](CC(=O)[O-])Nc1ccc2cc(C(N)=O)n(C(=O)[O-])c2c1 (optimized conformer: 76.66176975298507 kcal/mol)

>  <smiles>  (64) 
CC(C)NC(=O)C(CC(=O)O)Nc1ccc2cc(C(N)=O)n(C(=O)O)c2c1

>  <score_type>  (64) 
oracle

>  <origin>  (64) 
adg

>  <m_score__min__energy>  (64) 
-7.9900000000000002

>  <m_primary>  (64) 
energy

$$$$
64:0
     RDKit          3D

 37 39  0  0  0  0  0  0  0  0999 V2000
  149.7330  157.5600  131.8860 N   0  0  0  0  0  0  0  0  0  0  0  0
  149.1810  158.8320  132.2130 C   0  0  0  0  0  0  0  0  0  0  0  0
  149.9250  159.8490  132.1960 O   0  0  0  0  0  0  0  0  0  0  0  0
  147.7690  158.9650  132.6270 C   0  0  0  0  0  0  0  0  0  0  0  0
  147.1550  160.1930  132.8690 C   0  0  0  0  0  0  0  0  0  0  0  0
  145.8910  159.8870  133.3170 C   0  0  0  0  0  0  0  0  0  0  0  0
  144.8530  160.7270  133.7080 C   0  0  0  0  0  0  0  0  0  0  0  0
  143.6440  160.1350  134.1100 C   0  0  0  0  0  0  0  0  0  0  0  0
  143.4850  158.7290  134.0970 C   0  0  0  0  0  0  0  0  0  0  0  0
  142.2370  158.1610  134.5300 N   0  0  0  0  0  0  0  0  0  0  0  0
  141.0060  158.2710  133.8040 C   0  0  0  0  0  0  0  0  0  0  0  0
  140.8330  159.0610  132.7210 N   0  0  0  0  0  0  0  0  0  0  0  0
  139.5540  159.0110  132.2650 C   0  0  0  0  0  0  0  0  0  0  0  0
  138.6980  158.1930  132.9930 C   0  0  0  0  0  0  0  0  0  0  0  0
  139.5790  157.5080  134.2530 S   0  0  0  0  0  0  0  0  0  0  0  0
  144.5710  157.9070  133.7120 C   0  0  0  0  0  0  0  0  0  0  0  0
  145.7700  158.5220  133.3300 C   0  0  0  0  0  0  0  0  0  0  0  0
  146.9130  157.9400  132.9050 N   0  0  0  0  0  0  0  0  0  0  0  0
  147.1250  156.5340  132.6980 C   0  0  0  0  0  0  0  0  0  0  0  0
  146.9820  156.0370  131.5470 O   0  0  0  0  0  0  0  0  0  0  0  0
  147.4550  155.7150  133.7820 O   0  0  0  0  0  0  0  0  0  0  0  0
  147.4140  154.2940  133.7160 C   0  0  0  0  0  0  0  0  0  0  0  0
  148.5360  153.7870  132.8160 C   0  0  0  0  0  0  0  0  0  0  0  0
  149.4810  154.7980  132.5920 O   0  0  0  0  0  0  0  0  0  0  0  0
  149.1160  156.7370  131.7000 H   0  0  0  0  0  0  0  0  0  0  0  0
  147.5892  161.1942  132.7310 H   0  0  0  0  0  0  0  0  0  0  0  0
  144.9751  161.8202  133.7025 H   0  0  0  0  0  0  0  0  0  0  0  0
  142.8103  160.7726  134.4391 H   0  0  0  0  0  0  0  0  0  0  0  0
  142.2030  157.6990  135.4670 H   0  0  0  0  0  0  0  0  0  0  0  0
  139.2200  159.5772  131.3830 H   0  0  0  0  0  0  0  0  0  0  0  0
  137.6318  158.0231  132.7826 H   0  0  0  0  0  0  0  0  0  0  0  0
  144.4756  156.8111  133.7128 H   0  0  0  0  0  0  0  0  0  0  0  0
  147.5397  153.8776  134.7263 H   0  0  0  0  0  0  0  0  0  0  0  0
  146.4451  153.9770  133.3028 H   0  0  0  0  0  0  0  0  0  0  0  0
  149.0294  152.9312  133.2999 H   0  0  0  0  0  0  0  0  0  0  0  0
  148.1067  153.4813  131.8505 H   0  0  0  0  0  0  0  0  0  0  0  0
  148.9840  155.5770  132.2280 H   0  0  0  0  0  0  0  0  0  0  0  0
  1  2  1  0
  2  3  2  0
  2  4  1  0
  4  5  2  0
  5  6  1  0
  6  7  2  0
  7  8  1  0
  8  9  2  0
  9 10  1  0
 10 11  1  0
 11 12  2  0
 12 13  1  0
 13 14  2  0
 14 15  1  0
  9 16  1  0
 16 17  2  0
 17 18  1  0
 18 19  1  0
 19 20  2  0
 19 21  1  0
 21 22  1  0
 22 23  1  0
 23 24  1  0
 18  4  1  0
 17  6  1  0
 15 11  1  0
  1 25  1  0
  5 26  1  0
  7 27  1  0
  8 28  1  0
 10 29  1  0
 13 30  1  0
 14 31  1  0
 16 32  1  0
 22 33  1  0
 22 34  1  0
 23 35  1  0
 23 36  1  0
 24 37  1  0
M  CHG  1   1  -1
M  END
>  <UniqueID>  (65) 
64

>  <SMILES>  (65) 
[NH-]C(=O)c1cc2ccc(Nc3nccs3)cc2n1C(=O)OCCO

>  <Energy>  (65) 
106.61412789817652

>  <Genealogy>  (65) 
[NH-]C(=O)c1cc2ccc(Nc3nccs3)cc2n1C(=O)OCCO (protonated)
[NH-]C(=O)c1cc2ccc(Nc3nccs3)cc2n1C(=O)OCCO (3D coordinates assigned)
[NH-]C(=O)c1cc2ccc(Nc3nccs3)cc2n1C(=O)OCCO (optimized conformer: 106.61412789817652 kcal/mol)

>  <smiles>  (65) 
NC(=O)c1cc2ccc(Nc3nccs3)cc2n1C(=O)OCCO

>  <score_type>  (65) 
oracle

>  <origin>  (65) 
adg

>  <m_score__min__energy>  (65) 
-6.54

>  <m_primary>  (65) 
energy

$$$$
65:0
     RDKit          3D

 45 46  0  0  0  0  0  0  0  0999 V2000
  138.7550  160.8010  130.5910 C   0  0  0  0  0  0  0  0  0  0  0  0
  137.8950  159.6840  130.5420 O   0  0  0  0  0  0  0  0  0  0  0  0
  138.0060  158.9170  131.7270 C   0  0  0  0  0  0  0  0  0  0  0  0
  139.1410  159.4590  132.5990 C   0  0  0  0  0  0  0  0  0  0  0  0
  139.1650  158.8100  133.8590 O   0  0  0  0  0  0  0  0  0  0  0  0
  138.9690  157.4150  133.7220 C   0  0  0  0  0  0  0  0  0  0  0  0
  140.2530  156.7490  133.3310 C   0  0  0  0  0  0  0  0  0  0  0  0
  140.2870  155.4970  133.1890 O   0  0  0  0  0  0  0  0  0  0  0  0
  141.4370  157.5340  133.1360 N   0  0  0  0  0  0  0  0  0  0  0  0
  142.6920  156.9530  132.6650 C   0  0  0  0  0  0  0  0  0  0  0  0
  143.7910  157.2300  133.6470 C   0  0  0  0  0  0  0  0  0  0  0  0
  144.1280  156.3340  134.4670 O   0  0  0  0  0  0  0  0  0  0  0  0
  144.4740  158.4920  133.6470 N   0  0  0  0  0  0  0  0  0  0  0  0
  143.9380  159.7340  133.8150 C   0  0  0  0  0  0  0  0  0  0  0  0
  142.5200  160.0410  134.1080 C   0  0  0  0  0  0  0  0  0  0  0  0
  141.8590  159.4660  135.2310 N   0  0  0  0  0  0  0  0  0  0  0  0
  141.8880  160.8340  133.3620 O   0  0  0  0  0  0  0  0  0  0  0  0
  144.9280  160.7100  133.7010 C   0  0  0  0  0  0  0  0  0  0  0  0
  146.0940  160.0220  133.4520 C   0  0  0  0  0  0  0  0  0  0  0  0
  147.3820  160.4960  133.2210 C   0  0  0  0  0  0  0  0  0  0  0  0
  148.3890  159.5550  132.9430 C   0  0  0  0  0  0  0  0  0  0  0  0
  148.0920  158.1690  132.9020 C   0  0  0  0  0  0  0  0  0  0  0  0
  149.1600  157.1780  132.5510 C   0  0  0  0  0  0  0  0  0  0  0  0
  146.7690  157.7280  133.1230 C   0  0  0  0  0  0  0  0  0  0  0  0
  145.7910  158.6860  133.4200 C   0  0  0  0  0  0  0  0  0  0  0  0
  138.9566  161.0628  131.6402 H   0  0  0  0  0  0  0  0  0  0  0  0
  139.7012  160.5577  130.0855 H   0  0  0  0  0  0  0  0  0  0  0  0
  138.2779  161.6535  130.0855 H   0  0  0  0  0  0  0  0  0  0  0  0
  137.0600  158.9714  132.2857 H   0  0  0  0  0  0  0  0  0  0  0  0
  138.2235  157.8721  131.4609 H   0  0  0  0  0  0  0  0  0  0  0  0
  140.1002  159.2892  132.0881 H   0  0  0  0  0  0  0  0  0  0  0  0
  138.9770  160.5346  132.7608 H   0  0  0  0  0  0  0  0  0  0  0  0
  138.6217  157.0009  134.6801 H   0  0  0  0  0  0  0  0  0  0  0  0
  138.2171  157.2328  132.9401 H   0  0  0  0  0  0  0  0  0  0  0  0
  141.3890  158.5680  133.2780 H   0  0  0  0  0  0  0  0  0  0  0  0
  142.5698  155.8655  132.5535 H   0  0  0  0  0  0  0  0  0  0  0  0
  142.9545  157.4025  131.6959 H   0  0  0  0  0  0  0  0  0  0  0  0
  140.8830  159.1020  135.1490 H   0  0  0  0  0  0  0  0  0  0  0  0
  144.8033  161.7992  133.7910 H   0  0  0  0  0  0  0  0  0  0  0  0
  147.6051  161.5726  133.2548 H   0  0  0  0  0  0  0  0  0  0  0  0
  149.4174  159.8973  132.7554 H   0  0  0  0  0  0  0  0  0  0  0  0
  149.5994  156.7703  133.4734 H   0  0  0  0  0  0  0  0  0  0  0  0
  148.7214  156.3598  131.9610 H   0  0  0  0  0  0  0  0  0  0  0  0
  149.9432  157.6765  131.9610 H   0  0  0  0  0  0  0  0  0  0  0  0
  146.5129  156.6599  133.0635 H   0  0  0  0  0  0  0  0  0  0  0  0
  1  2  1  0
  2  3  1  0
  3  4  1  0
  4  5  1  0
  5  6  1  0
  6  7  1  0
  7  8  2  0
  7  9  1  0
  9 10  1  0
 10 11  1  0
 11 12  2  0
 11 13  1  0
 13 14  1  0
 14 15  1  0
 15 16  1  0
 15 17  2  0
 14 18  2  0
 18 19  1  0
 19 20  2  0
 20 21  1  0
 21 22  2  0
 22 23  1  0
 22 24  1  0
 24 25  2  0
 25 13  1  0
 25 19  1  0
  1 26  1  0
  1 27  1  0
  1 28  1  0
  3 29  1  0
  3 30  1  0
  4 31  1  0
  4 32  1  0
  6 33  1  0
  6 34  1  0
  9 35  1  0
 10 36  1  0
 10 37  1  0
 16 38  1  0
 18 39  1  0
 20 40  1  0
 21 41  1  0
 23 42  1  0
 23 43  1  0
 23 44  1  0
 24 45  1  0
M  CHG  1  16  -1
M  END
>  <UniqueID>  (66) 
65

>  <SMILES>  (66) 
COCCOCC(=O)NCC(=O)n1c(C([NH-])=O)cc2ccc(C)cc21

>  <Energy>  (66) 
81.7579629958967

>  <Genealogy>  (66) 
COCCOCC(=O)NCC(=O)n1c(C([NH-])=O)cc2ccc(C)cc21 (protonated)
COCCOCC(=O)NCC(=O)n1c(C([NH-])=O)cc2ccc(C)cc21 (3D coordinates assigned)
COCCOCC(=O)NCC(=O)n1c(C([NH-])=O)cc2ccc(C)cc21 (optimized conformer: 81.7579629958967 kcal/mol)

>  <smiles>  (66) 
COCCOCC(=O)NCC(=O)n1c(C(N)=O)cc2ccc(C)cc21

>  <score_type>  (66) 
oracle

>  <origin>  (66) 
adg

>  <m_score__min__energy>  (66) 
-7.1600000000000001

>  <m_primary>  (66) 
energy

$$$$
66:0
     RDKit          3D

 36 38  0  0  0  0  0  0  0  0999 V2000
  142.6360  159.9890  132.5150 H   0  0  0  0  0  0  0  0  0  0  0  0
  142.9070  160.5230  133.3700 N   0  0  0  0  0  0  0  0  0  0  0  0
  144.2780  160.7200  133.7060 C   0  0  0  0  0  0  0  0  0  0  0  0
  144.6330  161.8100  134.2290 O   0  0  0  0  0  0  0  0  0  0  0  0
  145.2790  159.6580  133.4760 C   0  0  0  0  0  0  0  0  0  0  0  0
  146.6390  159.9030  133.2860 C   0  0  0  0  0  0  0  0  0  0  0  0
  147.1416  160.8809  133.2520 H   0  0  0  0  0  0  0  0  0  0  0  0
  147.2190  158.6620  133.1500 C   0  0  0  0  0  0  0  0  0  0  0  0
  148.5460  158.3100  132.9280 C   0  0  0  0  0  0  0  0  0  0  0  0
  149.3303  159.0774  132.8510 H   0  0  0  0  0  0  0  0  0  0  0  0
  148.8550  156.9450  132.8050 C   0  0  0  0  0  0  0  0  0  0  0  0
  149.8973  156.6375  132.6345 H   0  0  0  0  0  0  0  0  0  0  0  0
  147.8390  155.9570  132.8980 C   0  0  0  0  0  0  0  0  0  0  0  0
  148.1760  154.5170  132.7640 C   0  0  0  0  0  0  0  0  0  0  0  0
  149.4280  154.1050  132.2860 C   0  0  0  0  0  0  0  0  0  0  0  0
  150.1801  154.8553  132.0008 H   0  0  0  0  0  0  0  0  0  0  0  0
  149.7150  152.7820  132.1740 N   0  0  0  0  0  0  0  0  0  0  0  0
  148.8040  151.8370  132.5150 C   0  0  0  0  0  0  0  0  0  0  0  0
  149.0545  150.7707  132.4143 H   0  0  0  0  0  0  0  0  0  0  0  0
  147.5820  152.2060  132.9810 N   0  0  0  0  0  0  0  0  0  0  0  0
  146.8850  151.4710  133.2380 H   0  0  0  0  0  0  0  0  0  0  0  0
  147.2530  153.5180  133.1110 C   0  0  0  0  0  0  0  0  0  0  0  0
  146.2591  153.7984  133.4898 H   0  0  0  0  0  0  0  0  0  0  0  0
  146.5000  156.3590  133.1190 C   0  0  0  0  0  0  0  0  0  0  0  0
  145.6929  155.6145  133.1839 H   0  0  0  0  0  0  0  0  0  0  0  0
  146.2260  157.7240  133.2530 C   0  0  0  0  0  0  0  0  0  0  0  0
  145.0320  158.3180  133.4620 N   0  0  0  0  0  0  0  0  0  0  0  0
  143.7590  157.6590  133.5430 C   0  0  0  0  0  0  0  0  0  0  0  0
  142.9030  157.8560  132.6410 O   0  0  0  0  0  0  0  0  0  0  0  0
  143.4310  156.7420  134.6510 C   0  0  0  0  0  0  0  0  0  0  0  0
  142.8201  157.1178  135.4850 H   0  0  0  0  0  0  0  0  0  0  0  0
  143.8480  155.4700  134.6810 C   0  0  0  0  0  0  0  0  0  0  0  0
  144.4564  155.0912  133.8465 H   0  0  0  0  0  0  0  0  0  0  0  0
  143.5210  154.5610  135.7910 C   0  0  0  0  0  0  0  0  0  0  0  0
  142.3660  154.5380  136.2960 O   0  0  0  0  0  0  0  0  0  0  0  0
  144.5000  153.7120  136.2880 O   0  0  0  0  0  0  0  0  0  0  0  0
  1  2  1  0
  2  3  1  0
  3  4  2  0
  3  5  1  0
  5  6  2  0
  6  7  1  0
  6  8  1  0
  8  9  2  0
  9 10  1  0
  9 11  1  0
 11 12  1  0
 11 13  2  0
 13 14  1  0
 14 15  2  0
 15 16  1  0
 15 17  1  0
 17 18  2  0
 18 19  1  0
 18 20  1  0
 20 21  1  0
 20 22  2  0
 22 23  1  0
 13 24  1  0
 24 25  1  0
 24 26  2  0
 26 27  1  0
 27 28  1  0
 28 29  2  0
 28 30  1  0
 30 31  1  0
 30 32  2  0
 32 33  1  0
 32 34  1  0
 34 35  2  0
 34 36  1  0
 27  5  1  0
 26  8  1  0
 22 14  1  0
M  CHG  3   2  -1  20   1  36  -1
M  END
>  <UniqueID>  (67) 
66

>  <SMILES>  (67) 
[NH-]C(=O)c1cc2ccc(-c3cnc[nH+]c3)cc2n1C(=O)/C=C/C(=O)[O-]

>  <Energy>  (67) 
82.47345354773405

>  <Genealogy>  (67) 
[NH-]C(=O)c1cc2ccc(-c3cnc[nH+]c3)cc2n1C(=O)/C=C/C(=O)[O-] (protonated)
[NH-]C(=O)c1cc2ccc(-c3cnc[nH+]c3)cc2n1C(=O)/C=C/C(=O)[O-] (cis-trans isomerization)
[NH-]C(=O)c1cc2ccc(-c3cnc[nH+]c3)cc2n1C(=O)/C=C/C(=O)[O-] (3D coordinates assigned)
[NH-]C(=O)c1cc2ccc(-c3cnc[nH+]c3)cc2n1C(=O)/C=C/C(=O)[O-] (optimized conformer: 82.47345354773405 kcal/mol)

>  <smiles>  (67) 
NC(=O)c1cc2ccc(-c3cncnc3)cc2n1C(=O)/C=C/C(=O)O

>  <score_type>  (67) 
oracle

>  <origin>  (67) 
adg

>  <m_score__min__energy>  (67) 
-7.7400000000000002

>  <m_primary>  (67) 
energy

$$$$
67:0
     RDKit          3D

 47 48  0  0  0  0  0  0  0  0999 V2000
  144.0080  154.9700  131.7610 C   0  0  0  0  0  0  0  0  0  0  0  0
  144.2330  155.7050  133.0190 N   0  0  1  0  0  0  0  0  0  0  0  0
  145.6390  156.1430  133.1950 C   0  0  0  0  0  0  0  0  0  0  0  0
  146.2240  155.8980  134.6030 C   0  0  0  0  0  0  0  0  0  0  0  0
  145.2190  155.5540  135.5180 O   0  0  0  0  0  0  0  0  0  0  0  0
  143.3120  156.8060  133.1870 C   0  0  0  0  0  0  0  0  0  0  0  0
  143.0860  157.6150  132.2430 O   0  0  0  0  0  0  0  0  0  0  0  0
  142.7020  156.9950  134.4300 O   0  0  0  0  0  0  0  0  0  0  0  0
  141.3060  156.8020  134.6450 C   0  0  0  0  0  0  0  0  0  0  0  0
  141.0240  155.3190  134.8420 C   0  0  0  0  0  0  0  0  0  0  0  0
  141.7300  154.5660  133.8630 O   0  0  0  0  0  0  0  0  0  0  0  0
  141.1560  153.5000  133.1660 C   0  0  0  0  0  0  0  0  0  0  0  0
  140.0120  153.6210  132.6460 O   0  0  0  0  0  0  0  0  0  0  0  0
  141.8800  152.2680  133.0310 N   0  0  0  0  0  0  0  0  0  0  0  0
  143.1800  152.0300  133.3650 C   0  0  0  0  0  0  0  0  0  0  0  0
  144.0650  152.9490  134.1120 C   0  0  0  0  0  0  0  0  0  0  0  0
  143.6310  153.5590  135.3250 N   0  0  0  0  0  0  0  0  0  0  0  0
  145.2380  153.1570  133.7020 O   0  0  0  0  0  0  0  0  0  0  0  0
  143.5580  150.7470  132.9790 C   0  0  0  0  0  0  0  0  0  0  0  0
  142.4380  150.1960  132.3990 C   0  0  0  0  0  0  0  0  0  0  0  0
  142.2500  148.9370  131.8390 C   0  0  0  0  0  0  0  0  0  0  0  0
  140.9900  148.6440  131.2890 C   0  0  0  0  0  0  0  0  0  0  0  0
  139.9560  149.6140  131.2840 C   0  0  0  0  0  0  0  0  0  0  0  0
  138.5990  149.2730  130.7230 C   0  0  0  0  0  0  0  0  0  0  0  0
  138.3640  147.9120  130.8080 F   0  0  0  0  0  0  0  0  0  0  0  0
  137.6270  149.9430  131.4440 F   0  0  0  0  0  0  0  0  0  0  0  0
  138.5100  149.6450  129.3920 F   0  0  0  0  0  0  0  0  0  0  0  0
  140.1810  150.8760  131.8840 C   0  0  0  0  0  0  0  0  0  0  0  0
  141.4390  151.1340  132.4410 C   0  0  0  0  0  0  0  0  0  0  0  0
  143.6930  153.9410  131.9889 H   0  0  0  0  0  0  0  0  0  0  0  0
  143.2228  155.4732  131.1777 H   0  0  0  0  0  0  0  0  0  0  0  0
  144.9404  154.9474  131.1777 H   0  0  0  0  0  0  0  0  0  0  0  0
  144.0330  155.0290  133.7920 H   0  0  0  0  0  0  0  0  0  0  0  0
  146.2600  155.5997  132.4675 H   0  0  0  0  0  0  0  0  0  0  0  0
  145.6444  157.2325  133.0436 H   0  0  0  0  0  0  0  0  0  0  0  0
  146.9560  155.0787  134.5496 H   0  0  0  0  0  0  0  0  0  0  0  0
  146.7042  156.8262  134.9464 H   0  0  0  0  0  0  0  0  0  0  0  0
  144.9150  154.6400  135.2800 H   0  0  0  0  0  0  0  0  0  0  0  0
  140.9927  157.3572  135.5414 H   0  0  0  0  0  0  0  0  0  0  0  0
  140.7460  157.1693  133.7724 H   0  0  0  0  0  0  0  0  0  0  0  0
  141.3530  155.0138  135.8463 H   0  0  0  0  0  0  0  0  0  0  0  0
  139.9446  155.1348  134.7369 H   0  0  0  0  0  0  0  0  0  0  0  0
  143.3120  154.5530  135.3420 H   0  0  0  0  0  0  0  0  0  0  0  0
  144.5425  150.2741  133.1097 H   0  0  0  0  0  0  0  0  0  0  0  0
  143.0613  148.1943  131.8269 H   0  0  0  0  0  0  0  0  0  0  0  0
  140.8039  147.6496  130.8571 H   0  0  0  0  0  0  0  0  0  0  0  0
  139.3862  151.6360  131.9119 H   0  0  0  0  0  0  0  0  0  0  0  0
  1  2  1  0
  2  3  1  0
  3  4  1  0
  4  5  1  0
  2  6  1  0
  6  7  2  0
  6  8  1  0
  8  9  1  0
  9 10  1  0
 10 11  1  0
 11 12  1  0
 12 13  2  0
 12 14  1  0
 14 15  1  0
 15 16  1  0
 16 17  1  0
 16 18  2  0
 15 19  2  0
 19 20  1  0
 20 21  2  0
 21 22  1  0
 22 23  2  0
 23 24  1  0
 24 25  1  0
 24 26  1  0
 24 27  1  0
 23 28  1  0
 28 29  2  0
 29 14  1  0
 29 20  1  0
  1 30  1  0
  1 31  1  0
  1 32  1  0
  2 33  1  1
  3 34  1  0
  3 35  1  0
  4 36  1  0
  4 37  1  0
  5 38  1  0
  9 39  1  0
  9 40  1  0
 10 41  1  0
 10 42  1  0
 17 43  1  0
 19 44  1  0
 21 45  1  0
 22 46  1  0
 28 47  1  0
M  CHG  2   2   1  17  -1
M  END
>  <UniqueID>  (68) 
67

>  <SMILES>  (68) 
C[N@@H+](CCO)C(=O)OCCOC(=O)n1c(C([NH-])=O)cc2ccc(C(F)(F)F)cc21

>  <Energy>  (68) 
83.44913918840392

>  <Genealogy>  (68) 
C[NH+](CCO)C(=O)OCCOC(=O)n1c(C([NH-])=O)cc2ccc(C(F)(F)F)cc21 (protonated)
C[N@@H+](CCO)C(=O)OCCOC(=O)n1c(C([NH-])=O)cc2ccc(C(F)(F)F)cc21 (chirality)
C[N@@H+](CCO)C(=O)OCCOC(=O)n1c(C([NH-])=O)cc2ccc(C(F)(F)F)cc21 (3D coordinates assigned)
C[N@@H+](CCO)C(=O)OCCOC(=O)n1c(C([NH-])=O)cc2ccc(C(F)(F)F)cc21 (optimized conformer: 83.44913918840392 kcal/mol)

>  <smiles>  (68) 
CN(CCO)C(=O)OCCOC(=O)n1c(C(N)=O)cc2ccc(C(F)(F)F)cc21

>  <score_type>  (68) 
oracle

>  <origin>  (68) 
adg

>  <m_score__min__energy>  (68) 
-4.1299999999999999

>  <m_primary>  (68) 
energy

$$$$
68:0
     RDKit          3D

 38 40  0  0  0  0  0  0  0  0999 V2000
  146.6690  156.1220  135.2230 C   0  0  0  0  0  0  0  0  0  0  0  0
  146.7760  155.5720  133.8680 N   0  0  0  0  0  0  0  0  0  0  0  0
  146.7770  154.1190  133.6590 C   0  0  0  0  0  0  0  0  0  0  0  0
  148.1100  153.6810  133.1450 C   0  0  0  0  0  0  0  0  0  0  0  0
  149.0060  154.4890  132.5560 N   0  0  0  0  0  0  0  0  0  0  0  0
  150.0400  153.7460  132.2060 N   0  0  0  0  0  0  0  0  0  0  0  0
  149.7360  152.4920  132.5960 C   0  0  0  0  0  0  0  0  0  0  0  0
  148.5520  152.4470  133.1690 O   0  0  0  0  0  0  0  0  0  0  0  0
  146.8670  156.4650  132.7410 C   0  0  0  0  0  0  0  0  0  0  0  0
  146.9750  156.0050  131.5710 O   0  0  0  0  0  0  0  0  0  0  0  0
  146.8150  157.8850  132.9270 N   0  0  0  0  0  0  0  0  0  0  0  0
  147.8200  158.7860  132.7610 C   0  0  0  0  0  0  0  0  0  0  0  0
  149.1910  158.4660  132.3110 C   0  0  0  0  0  0  0  0  0  0  0  0
  149.6150  157.1080  132.2290 N   0  0  0  0  0  0  0  0  0  0  0  0
  149.9960  159.3850  132.0040 O   0  0  0  0  0  0  0  0  0  0  0  0
  147.3710  160.0740  133.0500 C   0  0  0  0  0  0  0  0  0  0  0  0
  146.0450  159.9270  133.3940 C   0  0  0  0  0  0  0  0  0  0  0  0
  145.1010  160.8800  133.7650 C   0  0  0  0  0  0  0  0  0  0  0  0
  143.8000  160.4370  134.0650 C   0  0  0  0  0  0  0  0  0  0  0  0
  143.4710  159.0560  134.0100 C   0  0  0  0  0  0  0  0  0  0  0  0
  142.0620  158.6000  134.2890 C   0  0  0  0  0  0  0  0  0  0  0  0
  141.5390  159.2700  135.3820 F   0  0  0  0  0  0  0  0  0  0  0  0
  141.2450  158.8450  133.2000 F   0  0  0  0  0  0  0  0  0  0  0  0
  142.0670  157.2430  134.5540 F   0  0  0  0  0  0  0  0  0  0  0  0
  144.4550  158.1230  133.6040 C   0  0  0  0  0  0  0  0  0  0  0  0
  145.7350  158.5960  133.3090 C   0  0  0  0  0  0  0  0  0  0  0  0
  146.8253  155.3188  135.9581 H   0  0  0  0  0  0  0  0  0  0  0  0
  147.4324  156.9014  135.3637 H   0  0  0  0  0  0  0  0  0  0  0  0
  145.6691  156.5584  135.3637 H   0  0  0  0  0  0  0  0  0  0  0  0
  146.5696  153.6129  134.6134 H   0  0  0  0  0  0  0  0  0  0  0  0
  146.0014  153.8579  132.9240 H   0  0  0  0  0  0  0  0  0  0  0  0
  148.9200  155.5170  132.3880 H   0  0  0  0  0  0  0  0  0  0  0  0
  150.3917  151.6203  132.4539 H   0  0  0  0  0  0  0  0  0  0  0  0
  149.1150  156.4250  131.6170 H   0  0  0  0  0  0  0  0  0  0  0  0
  147.9513  161.0077  133.0116 H   0  0  0  0  0  0  0  0  0  0  0  0
  145.3641  161.9466  133.8219 H   0  0  0  0  0  0  0  0  0  0  0  0
  143.0281  161.1687  134.3456 H   0  0  0  0  0  0  0  0  0  0  0  0
  144.2171  157.0521  133.5230 H   0  0  0  0  0  0  0  0  0  0  0  0
  1  2  1  0
  2  3  1  0
  3  4  1  0
  4  5  2  0
  5  6  1  0
  6  7  2  0
  7  8  1  0
  2  9  1  0
  9 10  2  0
  9 11  1  0
 11 12  1  0
 12 13  1  0
 13 14  1  0
 13 15  2  0
 12 16  2  0
 16 17  1  0
 17 18  2  0
 18 19  1  0
 19 20  2  0
 20 21  1  0
 21 22  1  0
 21 23  1  0
 21 24  1  0
 20 25  1  0
 25 26  2  0
  8  4  1  0
 26 11  1  0
 26 17  1  0
  1 27  1  0
  1 28  1  0
  1 29  1  0
  3 30  1  0
  3 31  1  0
  5 32  1  0
  7 33  1  0
 14 34  1  0
 16 35  1  0
 18 36  1  0
 19 37  1  0
 25 38  1  0
M  CHG  2   5   1  14  -1
M  END
>  <UniqueID>  (69) 
68

>  <SMILES>  (69) 
CN(Cc1[nH+]nco1)C(=O)n1c(C([NH-])=O)cc2ccc(C(F)(F)F)cc21

>  <Energy>  (69) 
111.58656791900286

>  <Genealogy>  (69) 
CN(Cc1[nH+]nco1)C(=O)n1c(C([NH-])=O)cc2ccc(C(F)(F)F)cc21 (protonated)
CN(Cc1[nH+]nco1)C(=O)n1c(C([NH-])=O)cc2ccc(C(F)(F)F)cc21 (3D coordinates assigned)
CN(Cc1[nH+]nco1)C(=O)n1c(C([NH-])=O)cc2ccc(C(F)(F)F)cc21 (optimized conformer: 111.58656791900286 kcal/mol)

>  <smiles>  (69) 
CN(Cc1nnco1)C(=O)n1c(C(N)=O)cc2ccc(C(F)(F)F)cc21

>  <score_type>  (69) 
oracle

>  <origin>  (69) 
adg

>  <m_score__min__energy>  (69) 
-5.7300000000000004

>  <m_primary>  (69) 
energy

$$$$
69:0
     RDKit          3D

 47 49  0  0  0  0  0  0  0  0999 V2000
  142.9140  161.0400  133.7390 N   0  0  0  0  0  0  0  0  0  0  0  0
  144.3180  161.2840  133.7990 C   0  0  0  0  0  0  0  0  0  0  0  0
  144.7310  162.4510  134.0210 O   0  0  0  0  0  0  0  0  0  0  0  0
  145.2670  160.1740  133.5800 C   0  0  0  0  0  0  0  0  0  0  0  0
  146.5940  160.3570  133.1960 C   0  0  0  0  0  0  0  0  0  0  0  0
  147.1300  159.0920  133.1190 C   0  0  0  0  0  0  0  0  0  0  0  0
  148.4030  158.6820  132.7380 C   0  0  0  0  0  0  0  0  0  0  0  0
  148.6650  157.3020  132.6910 C   0  0  0  0  0  0  0  0  0  0  0  0
  147.6530  156.3600  133.0140 C   0  0  0  0  0  0  0  0  0  0  0  0
  147.9330  154.9040  132.9390 C   0  0  0  0  0  0  0  0  0  0  0  0
  149.2050  154.4330  132.5730 C   0  0  0  0  0  0  0  0  0  0  0  0
  149.4530  153.0610  132.5080 C   0  0  0  0  0  0  0  0  0  0  0  0
  148.4280  152.1640  132.8060 C   0  0  0  0  0  0  0  0  0  0  0  0
  147.1980  152.6270  133.1590 N   0  0  0  0  0  0  0  0  0  0  0  0
  146.9320  153.9600  133.2310 C   0  0  0  0  0  0  0  0  0  0  0  0
  146.3710  156.8200  133.3960 C   0  0  0  0  0  0  0  0  0  0  0  0
  146.1470  158.1990  133.4500 C   0  0  0  0  0  0  0  0  0  0  0  0
  144.9970  158.8460  133.7360 N   0  0  0  0  0  0  0  0  0  0  0  0
  143.7300  158.2240  134.0200 C   0  0  0  0  0  0  0  0  0  0  0  0
  143.2140  158.3710  135.1600 O   0  0  0  0  0  0  0  0  0  0  0  0
  143.0810  157.3850  133.0430 N   0  0  0  0  0  0  0  0  0  0  0  0
  141.9430  157.8040  132.3690 O   0  0  0  0  0  0  0  0  0  0  0  0
  140.7390  158.1480  132.9990 C   0  0  0  0  0  0  0  0  0  0  0  0
  140.6850  159.1060  133.8180 O   0  0  0  0  0  0  0  0  0  0  0  0
  139.4990  157.3740  132.6930 C   0  0  0  0  0  0  0  0  0  0  0  0
  138.9790  157.7820  131.4770 F   0  0  0  0  0  0  0  0  0  0  0  0
  138.5620  157.5950  133.6850 F   0  0  0  0  0  0  0  0  0  0  0  0
  139.7840  156.0220  132.6290 F   0  0  0  0  0  0  0  0  0  0  0  0
  143.4500  156.0050  132.9190 C   0  0  0  0  0  0  0  0  0  0  0  0
  144.0620  155.6130  131.8880 O   0  0  0  0  0  0  0  0  0  0  0  0
  143.1170  155.0940  133.9270 O   0  0  0  0  0  0  0  0  0  0  0  0
  142.8260  153.7250  133.6790 C   0  0  0  0  0  0  0  0  0  0  0  0
  144.1040  152.9550  133.6700 C   0  0  0  0  0  0  0  0  0  0  0  0
  144.3930  152.2220  132.6900 O   0  0  0  0  0  0  0  0  0  0  0  0
  144.9460  152.9940  134.7740 O   0  0  0  0  0  0  0  0  0  0  0  0
  142.5190  160.1120  134.0090 H   0  0  0  0  0  0  0  0  0  0  0  0
  147.1048  161.3106  132.9967 H   0  0  0  0  0  0  0  0  0  0  0  0
  149.1814  159.4156  132.4812 H   0  0  0  0  0  0  0  0  0  0  0  0
  149.6651  156.9478  132.4007 H   0  0  0  0  0  0  0  0  0  0  0  0
  150.0075  155.1473  132.3371 H   0  0  0  0  0  0  0  0  0  0  0  0
  150.4490  152.6904  132.2240 H   0  0  0  0  0  0  0  0  0  0  0  0
  148.6138  151.0810  132.7557 H   0  0  0  0  0  0  0  0  0  0  0  0
  146.4390  151.9430  133.3760 H   0  0  0  0  0  0  0  0  0  0  0  0
  145.9270  154.3014  133.5196 H   0  0  0  0  0  0  0  0  0  0  0  0
  145.5691  156.1094  133.6447 H   0  0  0  0  0  0  0  0  0  0  0  0
  142.1670  153.3381  134.4702 H   0  0  0  0  0  0  0  0  0  0  0  0
  142.3203  153.6207  132.7077 H   0  0  0  0  0  0  0  0  0  0  0  0
  1  2  1  0
  2  3  2  0
  2  4  1  0
  4  5  2  0
  5  6  1  0
  6  7  2  0
  7  8  1  0
  8  9  2  0
  9 10  1  0
 10 11  2  0
 11 12  1  0
 12 13  2  0
 13 14  1  0
 14 15  2  0
  9 16  1  0
 16 17  2  0
 17 18  1  0
 18 19  1  0
 19 20  2  0
 19 21  1  0
 21 22  1  0
 22 23  1  0
 23 24  2  0
 23 25  1  0
 25 26  1  0
 25 27  1  0
 25 28  1  0
 21 29  1  0
 29 30  2  0
 29 31  1  0
 31 32  1  0
 32 33  1  0
 33 34  2  0
 33 35  1  0
 18  4  1  0
 17  6  1  0
 15 10  1  0
  1 36  1  0
  5 37  1  0
  7 38  1  0
  8 39  1  0
 11 40  1  0
 12 41  1  0
 13 42  1  0
 14 43  1  0
 15 44  1  0
 16 45  1  0
 32 46  1  0
 32 47  1  0
M  CHG  3   1  -1  14   1  35  -1
M  END
>  <UniqueID>  (70) 
69

>  <SMILES>  (70) 
[NH-]C(=O)c1cc2ccc(-c3ccc[nH+]c3)cc2n1C(=O)N(OC(=O)C(F)(F)F)C(=O)OCC(=O)[O-]

>  <Energy>  (70) 
92.16817909960668

>  <Genealogy>  (70) 
[NH-]C(=O)c1cc2ccc(-c3ccc[nH+]c3)cc2n1C(=O)N(OC(=O)C(F)(F)F)C(=O)OCC(=O)[O-] (protonated)
[NH-]C(=O)c1cc2ccc(-c3ccc[nH+]c3)cc2n1C(=O)N(OC(=O)C(F)(F)F)C(=O)OCC(=O)[O-] (3D coordinates assigned)
[NH-]C(=O)c1cc2ccc(-c3ccc[nH+]c3)cc2n1C(=O)N(OC(=O)C(F)(F)F)C(=O)OCC(=O)[O-] (optimized conformer: 92.16817909960668 kcal/mol)

>  <smiles>  (70) 
NC(=O)c1cc2ccc(-c3cccnc3)cc2n1C(=O)N(OC(=O)C(F)(F)F)C(=O)OCC(=O)O

>  <score_type>  (70) 
oracle

>  <origin>  (70) 
adg

>  <m_score__min__energy>  (70) 
-7.8300000000000001

>  <m_primary>  (70) 
energy

$$$$
70:0
     RDKit          3D

 46 48  0  0  0  0  0  0  0  0999 V2000
  148.1600  157.1110  131.4490 H   0  0  0  0  0  0  0  0  0  0  0  0
  148.5510  158.0610  131.6460 N   0  0  0  0  0  0  0  0  0  0  0  0
  148.2620  158.7290  132.8700 C   0  0  0  0  0  0  0  0  0  0  0  0
  149.2100  159.0730  133.6250 O   0  0  0  0  0  0  0  0  0  0  0  0
  146.8610  158.9870  133.2560 C   0  0  0  0  0  0  0  0  0  0  0  0
  146.2920  160.2590  133.3230 C   0  0  0  0  0  0  0  0  0  0  0  0
  146.7962  161.2235  133.1636 H   0  0  0  0  0  0  0  0  0  0  0  0
  144.9650  160.0520  133.6310 C   0  0  0  0  0  0  0  0  0  0  0  0
  143.9290  160.9640  133.8060 C   0  0  0  0  0  0  0  0  0  0  0  0
  144.1036  162.0459  133.7109 H   0  0  0  0  0  0  0  0  0  0  0  0
  142.6530  160.4600  134.1080 C   0  0  0  0  0  0  0  0  0  0  0  0
  141.8112  161.1547  134.2449 H   0  0  0  0  0  0  0  0  0  0  0  0
  142.4400  159.0640  134.2380 C   0  0  0  0  0  0  0  0  0  0  0  0
  141.0550  158.5390  134.4950 C   0  0  0  0  0  0  0  0  0  0  0  0
  141.1131  157.4730  134.7602 H   0  0  0  0  0  0  0  0  0  0  0  0
  140.6023  159.1056  135.3220 H   0  0  0  0  0  0  0  0  0  0  0  0
  140.2280  158.6960  133.2960 N   0  0  0  0  0  0  0  0  0  0  0  0
  139.5540  157.7470  132.6080 C   0  0  0  0  0  0  0  0  0  0  0  0
  139.4910  156.3000  132.9850 C   0  0  0  0  0  0  0  0  0  0  0  0
  139.4869  156.2065  134.0810 H   0  0  0  0  0  0  0  0  0  0  0  0
  138.5726  155.8541  132.5755 H   0  0  0  0  0  0  0  0  0  0  0  0
  140.3672  155.7759  132.5755 H   0  0  0  0  0  0  0  0  0  0  0  0
  138.9990  158.2270  131.4720 N   0  0  0  0  0  0  0  0  0  0  0  0
  139.3360  159.5300  131.4620 C   0  0  0  0  0  0  0  0  0  0  0  0
  139.0472  160.2529  130.6848 H   0  0  0  0  0  0  0  0  0  0  0  0
  140.0970  159.8210  132.5720 C   0  0  0  0  0  0  0  0  0  0  0  0
  140.5236  160.8034  132.8228 H   0  0  0  0  0  0  0  0  0  0  0  0
  143.5170  158.1690  134.0560 C   0  0  0  0  0  0  0  0  0  0  0  0
  143.3735  157.0835  134.1609 H   0  0  0  0  0  0  0  0  0  0  0  0
  144.7700  158.7000  133.7390 C   0  0  0  0  0  0  0  0  0  0  0  0
  145.9230  158.0360  133.5180 N   0  0  0  0  0  0  0  0  0  0  0  0
  146.0970  156.6130  133.5770 C   0  0  0  0  0  0  0  0  0  0  0  0
  146.7150  156.0210  132.6510 O   0  0  0  0  0  0  0  0  0  0  0  0
  145.4560  155.8150  134.6730 C   0  0  0  0  0  0  0  0  0  0  0  0
  144.3951  155.6514  134.4328 H   0  0  0  0  0  0  0  0  0  0  0  0
  145.5411  156.3667  135.6208 H   0  0  0  0  0  0  0  0  0  0  0  0
  146.1500  154.4820  134.8090 C   0  0  0  0  0  0  0  0  0  0  0  0
  145.8960  153.5050  133.9910 N   0  0  0  0  0  0  0  0  0  0  0  0
  145.0160  153.6330  132.9380 O   0  0  0  0  0  0  0  0  0  0  0  0
  144.1240  152.5770  132.6180 C   0  0  0  0  0  0  0  0  0  0  0  0
  143.7425  152.1254  133.5457 H   0  0  0  0  0  0  0  0  0  0  0  0
  143.2828  152.9730  132.0301 H   0  0  0  0  0  0  0  0  0  0  0  0
  144.6551  151.8139  132.0301 H   0  0  0  0  0  0  0  0  0  0  0  0
  147.0690  154.2460  135.9390 C   0  0  0  0  0  0  0  0  0  0  0  0
  147.9890  155.0670  136.1910 O   0  0  0  0  0  0  0  0  0  0  0  0
  146.9410  153.1050  136.7260 O   0  0  0  0  0  0  0  0  0  0  0  0
  1  2  1  0
  2  3  1  0
  3  4  2  0
  3  5  1  0
  5  6  2  0
  6  7  1  0
  6  8  1  0
  8  9  2  0
  9 10  1  0
  9 11  1  0
 11 12  1  0
 11 13  2  0
 13 14  1  0
 14 15  1  0
 14 16  1  0
 14 17  1  0
 17 18  1  0
 18 19  1  0
 19 20  1  0
 19 21  1  0
 19 22  1  0
 18 23  2  0
 23 24  1  0
 24 25  1  0
 24 26  2  0
 26 27  1  0
 13 28  1  0
 28 29  1  0
 28 30  2  0
 30 31  1  0
 31 32  1  0
 32 33  2  0
 32 34  1  0
 34 35  1  0
 34 36  1  0
 34 37  1  0
 37 38  2  0
 38 39  1  0
 39 40  1  0
 40 41  1  0
 40 42  1  0
 40 43  1  0
 37 44  1  0
 44 45  2  0
 44 46  1  0
 31  5  1  0
 30  8  1  0
 26 17  1  0
M  CHG  2   2  -1  46  -1
M  END
>  <UniqueID>  (71) 
70

>  <SMILES>  (71) 
CO/N=C(\CC(=O)n1c(C([NH-])=O)cc2ccc(Cn3ccnc3C)cc21)C(=O)[O-]

>  <Energy>  (71) 
107.03443882642512

>  <Genealogy>  (71) 
CO/N=C(\CC(=O)n1c(C([NH-])=O)cc2ccc(Cn3ccnc3C)cc21)C(=O)[O-] (protonated)
CO/N=C(\CC(=O)n1c(C([NH-])=O)cc2ccc(Cn3ccnc3C)cc21)C(=O)[O-] (cis-trans isomerization)
CO/N=C(\CC(=O)n1c(C([NH-])=O)cc2ccc(Cn3ccnc3C)cc21)C(=O)[O-] (3D coordinates assigned)
CO/N=C(\CC(=O)n1c(C([NH-])=O)cc2ccc(Cn3ccnc3C)cc21)C(=O)[O-] (optimized conformer: 107.03443882642512 kcal/mol)

>  <smiles>  (71) 
CO/N=C(\CC(=O)n1c(C(N)=O)cc2ccc(Cn3ccnc3C)cc21)C(=O)O

>  <score_type>  (71) 
oracle

>  <origin>  (71) 
adg

>  <m_score__min__energy>  (71) 
-7.8799999999999999

>  <m_primary>  (71) 
energy

$$$$
71:0
     RDKit          3D

 64 65  0  0  0  0  0  0  0  0999 V2000
  141.9620  149.5710  132.4910 C   0  0  0  0  0  0  0  0  0  0  0  0
  142.1400  151.0240  132.5460 N   0  0  0  0  0  0  0  0  0  0  0  0
  143.4970  151.5900  132.6120 C   0  0  0  0  0  0  0  0  0  0  0  0
  143.6350  152.5940  133.7760 C   0  0  0  0  0  0  0  0  0  0  0  0
  144.2590  153.8750  133.3660 N   0  0  2  0  0  0  0  0  0  0  0  0
  144.0980  154.0820  131.9180 C   0  0  0  0  0  0  0  0  0  0  0  0
  145.6630  153.9230  133.6960 C   0  0  0  0  0  0  0  0  0  0  0  0
  146.5390  153.8630  132.7860 O   0  0  0  0  0  0  0  0  0  0  0  0
  146.0480  154.0890  135.0330 O   0  0  0  0  0  0  0  0  0  0  0  0
  146.5630  155.3120  135.5460 C   0  0  0  0  0  0  0  0  0  0  0  0
  147.7950  155.6240  134.9020 O   0  0  0  0  0  0  0  0  0  0  0  0
  147.8970  156.6050  133.9120 C   0  0  0  0  0  0  0  0  0  0  0  0
  148.5550  156.3910  132.8580 O   0  0  0  0  0  0  0  0  0  0  0  0
  147.2360  157.9320  134.1210 C   0  0  0  0  0  0  0  0  0  0  0  0
  146.3120  158.2940  132.9550 C   0  0  0  0  0  0  0  0  0  0  0  0
  144.8870  157.9340  133.2500 C   0  0  0  0  0  0  0  0  0  0  0  0
  143.9650  158.7650  133.0380 O   0  0  0  0  0  0  0  0  0  0  0  0
  144.5740  156.6650  133.7200 O   0  0  0  0  0  0  0  0  0  0  0  0
  140.9740  151.8700  132.5100 C   0  0  0  0  0  0  0  0  0  0  0  0
  139.8220  151.3670  132.3980 O   0  0  0  0  0  0  0  0  0  0  0  0
  141.1240  153.2580  132.5960 O   0  0  0  0  0  0  0  0  0  0  0  0
  140.9890  153.9740  133.8180 C   0  0  0  0  0  0  0  0  0  0  0  0
  140.2200  155.2280  133.5590 C   0  0  0  0  0  0  0  0  0  0  0  0
  139.1850  155.1860  132.8410 O   0  0  0  0  0  0  0  0  0  0  0  0
  140.7250  156.4930  134.0080 N   0  0  0  0  0  0  0  0  0  0  0  0
  141.6080  156.7360  135.0150 C   0  0  0  0  0  0  0  0  0  0  0  0
  142.1690  155.7240  135.9360 C   0  0  0  0  0  0  0  0  0  0  0  0
  143.2140  154.8500  135.5170 N   0  0  0  0  0  0  0  0  0  0  0  0
  141.6990  155.6090  137.1000 O   0  0  0  0  0  0  0  0  0  0  0  0
  141.8910  158.1000  135.0920 C   0  0  0  0  0  0  0  0  0  0  0  0
  141.1460  158.6840  134.0920 C   0  0  0  0  0  0  0  0  0  0  0  0
  141.0510  160.0170  133.7020 C   0  0  0  0  0  0  0  0  0  0  0  0
  140.2170  160.3290  132.6140 C   0  0  0  0  0  0  0  0  0  0  0  0
  139.4870  159.3120  131.9440 C   0  0  0  0  0  0  0  0  0  0  0  0
  138.6510  159.6530  130.7370 C   0  0  0  0  0  0  0  0  0  0  0  0
  137.3080  159.7180  131.0700 F   0  0  0  0  0  0  0  0  0  0  0  0
  139.0280  160.8780  130.2160 F   0  0  0  0  0  0  0  0  0  0  0  0
  138.8280  158.6790  129.7720 F   0  0  0  0  0  0  0  0  0  0  0  0
  139.6260  157.9660  132.3590 C   0  0  0  0  0  0  0  0  0  0  0  0
  140.4520  157.6910  133.4530 C   0  0  0  0  0  0  0  0  0  0  0  0
  141.9127  149.1687  133.5136 H   0  0  0  0  0  0  0  0  0  0  0  0
  141.0283  149.3358  131.9590 H   0  0  0  0  0  0  0  0  0  0  0  0
  142.8113  149.1174  131.9590 H   0  0  0  0  0  0  0  0  0  0  0  0
  144.2185  150.7726  132.7576 H   0  0  0  0  0  0  0  0  0  0  0  0
  143.6946  152.1236  131.6706 H   0  0  0  0  0  0  0  0  0  0  0  0
  142.6328  152.8050  134.1774 H   0  0  0  0  0  0  0  0  0  0  0  0
  144.2914  152.1350  134.5300 H   0  0  0  0  0  0  0  0  0  0  0  0
  143.7710  154.6630  133.8520 H   0  0  0  0  0  0  0  0  0  0  0  0
  143.4314  154.9391  131.7420 H   0  0  0  0  0  0  0  0  0  0  0  0
  145.0801  154.2822  131.4648 H   0  0  0  0  0  0  0  0  0  0  0  0
  143.6622  153.1794  131.4648 H   0  0  0  0  0  0  0  0  0  0  0  0
  145.8393  156.1194  135.3608 H   0  0  0  0  0  0  0  0  0  0  0  0
  146.7342  155.2090  136.6277 H   0  0  0  0  0  0  0  0  0  0  0  0
  146.6433  157.8932  135.0468 H   0  0  0  0  0  0  0  0  0  0  0  0
  148.0211  158.6996  134.1876 H   0  0  0  0  0  0  0  0  0  0  0  0
  146.3763  159.3766  132.7710 H   0  0  0  0  0  0  0  0  0  0  0  0
  146.6350  157.7261  132.0700 H   0  0  0  0  0  0  0  0  0  0  0  0
  140.4511  153.3553  134.5514 H   0  0  0  0  0  0  0  0  0  0  0  0
  141.9834  154.2214  134.2179 H   0  0  0  0  0  0  0  0  0  0  0  0
  144.1500  155.2250  135.2440 H   0  0  0  0  0  0  0  0  0  0  0  0
  142.5658  158.6022  135.8008 H   0  0  0  0  0  0  0  0  0  0  0  0
  141.6117  160.8028  134.2294 H   0  0  0  0  0  0  0  0  0  0  0  0
  140.1290  161.3727  132.2780 H   0  0  0  0  0  0  0  0  0  0  0  0
  139.0975  157.1567  131.8340 H   0  0  0  0  0  0  0  0  0  0  0  0
  1  2  1  0
  2  3  1  0
  3  4  1  0
  4  5  1  0
  5  6  1  0
  5  7  1  0
  7  8  2  0
  7  9  1  0
  9 10  1  0
 10 11  1  0
 11 12  1  0
 12 13  2  0
 12 14  1  0
 14 15  1  0
 15 16  1  0
 16 17  2  0
 16 18  1  0
  2 19  1  0
 19 20  2  0
 19 21  1  0
 21 22  1  0
 22 23  1  0
 23 24  2  0
 23 25  1  0
 25 26  1  0
 26 27  1  0
 27 28  1  0
 27 29  2  0
 26 30  2  0
 30 31  1  0
 31 32  2  0
 32 33  1  0
 33 34  2  0
 34 35  1  0
 35 36  1  0
 35 37  1  0
 35 38  1  0
 34 39  1  0
 39 40  2  0
 40 25  1  0
 40 31  1  0
  1 41  1  0
  1 42  1  0
  1 43  1  0
  3 44  1  0
  3 45  1  0
  4 46  1  0
  4 47  1  0
  5 48  1  1
  6 49  1  0
  6 50  1  0
  6 51  1  0
 10 52  1  0
 10 53  1  0
 14 54  1  0
 14 55  1  0
 15 56  1  0
 15 57  1  0
 22 58  1  0
 22 59  1  0
 28 60  1  0
 30 61  1  0
 32 62  1  0
 33 63  1  0
 39 64  1  0
M  CHG  3   5   1  18  -1  28  -1
M  END
>  <UniqueID>  (72) 
71

>  <SMILES>  (72) 
CN(CC[N@H+](C)C(=O)OCOC(=O)CCC(=O)[O-])C(=O)OCC(=O)n1c(C([NH-])=O)cc2ccc(C(F)(F)F)cc21

>  <Energy>  (72) 
90.67012383017958

>  <Genealogy>  (72) 
CN(CC[NH+](C)C(=O)OCOC(=O)CCC(=O)[O-])C(=O)OCC(=O)n1c(C([NH-])=O)cc2ccc(C(F)(F)F)cc21 (protonated)
CN(CC[N@H+](C)C(=O)OCOC(=O)CCC(=O)[O-])C(=O)OCC(=O)n1c(C([NH-])=O)cc2ccc(C(F)(F)F)cc21 (chirality)
CN(CC[N@H+](C)C(=O)OCOC(=O)CCC(=O)[O-])C(=O)OCC(=O)n1c(C([NH-])=O)cc2ccc(C(F)(F)F)cc21 (3D coordinates assigned)
CN(CC[N@H+](C)C(=O)OCOC(=O)CCC(=O)[O-])C(=O)OCC(=O)n1c(C([NH-])=O)cc2ccc(C(F)(F)F)cc21 (optimized conformer: 90.67012383017958 kcal/mol)

>  <smiles>  (72) 
CN(CCN(C)C(=O)OCC(=O)n1c(C(N)=O)cc2ccc(C(F)(F)F)cc21)C(=O)OCOC(=O)CCC(=O)O

>  <score_type>  (72) 
oracle

>  <origin>  (72) 
adg

>  <m_score__min__energy>  (72) 
-6.8700000000000001

>  <m_primary>  (72) 
energy

$$$$
72:0
     RDKit          3D

 45 46  0  0  0  0  0  0  0  0999 V2000
  140.3510  158.9380  132.6700 C   0  0  0  0  0  0  0  0  0  0  0  0
  140.4860  157.9460  133.8490 C   0  0  0  0  0  0  0  0  0  0  0  0
  140.6610  156.5270  133.2600 C   0  0  0  0  0  0  0  0  0  0  0  0
  139.2200  157.9690  134.7370 C   0  0  0  0  0  0  0  0  0  0  0  0
  139.5590  158.1520  136.0850 O   0  0  0  0  0  0  0  0  0  0  0  0
  141.6730  158.2510  134.6790 N   0  0  0  0  0  0  0  0  0  0  0  0
  142.9170  158.8120  134.2180 C   0  0  0  0  0  0  0  0  0  0  0  0
  143.1420  160.2140  134.1800 C   0  0  0  0  0  0  0  0  0  0  0  0
  144.3770  160.7330  133.7600 C   0  0  0  0  0  0  0  0  0  0  0  0
  145.3740  159.8340  133.3940 C   0  0  0  0  0  0  0  0  0  0  0  0
  146.6670  160.0650  132.9830 C   0  0  0  0  0  0  0  0  0  0  0  0
  147.2190  158.8030  132.7730 C   0  0  0  0  0  0  0  0  0  0  0  0
  148.5790  158.5760  132.2360 C   0  0  0  0  0  0  0  0  0  0  0  0
  149.0050  157.2680  131.8520 N   0  0  0  0  0  0  0  0  0  0  0  0
  149.3890  159.5370  132.1410 O   0  0  0  0  0  0  0  0  0  0  0  0
  146.3040  157.8310  133.0460 N   0  0  0  0  0  0  0  0  0  0  0  0
  146.5070  156.4090  133.0280 C   0  0  0  0  0  0  0  0  0  0  0  0
  145.7380  155.6700  132.3550 O   0  0  0  0  0  0  0  0  0  0  0  0
  147.5520  155.8490  133.7740 O   0  0  0  0  0  0  0  0  0  0  0  0
  147.5970  154.4750  134.1570 C   0  0  0  0  0  0  0  0  0  0  0  0
  148.4630  153.6680  133.1920 C   0  0  0  0  0  0  0  0  0  0  0  0
  148.5160  154.3120  131.9500 O   0  0  0  0  0  0  0  0  0  0  0  0
  145.1790  158.4790  133.4260 C   0  0  0  0  0  0  0  0  0  0  0  0
  143.9630  157.9350  133.8560 C   0  0  0  0  0  0  0  0  0  0  0  0
  140.2124  159.9565  133.0618 H   0  0  0  0  0  0  0  0  0  0  0  0
  141.2622  158.9026  132.0549 H   0  0  0  0  0  0  0  0  0  0  0  0
  139.4824  158.6604  132.0549 H   0  0  0  0  0  0  0  0  0  0  0  0
  140.7508  155.7985  134.0792 H   0  0  0  0  0  0  0  0  0  0  0  0
  139.7869  156.2766  132.6409 H   0  0  0  0  0  0  0  0  0  0  0  0
  141.5697  156.4965  132.6409 H   0  0  0  0  0  0  0  0  0  0  0  0
  138.5683  158.7942  134.4141 H   0  0  0  0  0  0  0  0  0  0  0  0
  138.6994  157.0056  134.6327 H   0  0  0  0  0  0  0  0  0  0  0  0
  139.1230  158.9990  136.3690 H   0  0  0  0  0  0  0  0  0  0  0  0
  141.6920  157.8560  135.6480 H   0  0  0  0  0  0  0  0  0  0  0  0
  142.3387  160.9015  134.4834 H   0  0  0  0  0  0  0  0  0  0  0  0
  144.5514  161.8184  133.7214 H   0  0  0  0  0  0  0  0  0  0  0  0
  147.1600  161.0391  132.8488 H   0  0  0  0  0  0  0  0  0  0  0  0
  149.9800  157.1130  131.5130 H   0  0  0  0  0  0  0  0  0  0  0  0
  148.3440  156.4600  131.8540 H   0  0  0  0  0  0  0  0  0  0  0  0
  148.0184  154.3972  135.1701 H   0  0  0  0  0  0  0  0  0  0  0  0
  146.5745  154.0702  134.1339 H   0  0  0  0  0  0  0  0  0  0  0  0
  149.4803  153.5795  133.6011 H   0  0  0  0  0  0  0  0  0  0  0  0
  148.0266  152.6665  133.0633 H   0  0  0  0  0  0  0  0  0  0  0  0
  147.6340  154.7540  131.8330 H   0  0  0  0  0  0  0  0  0  0  0  0
  143.8248  156.8451  133.9109 H   0  0  0  0  0  0  0  0  0  0  0  0
  1  2  1  0
  2  3  1  0
  2  4  1  0
  4  5  1  0
  2  6  1  0
  6  7  1  0
  7  8  2  0
  8  9  1  0
  9 10  2  0
 10 11  1  0
 11 12  2  0
 12 13  1  0
 13 14  1  0
 13 15  2  0
 12 16  1  0
 16 17  1  0
 17 18  2  0
 17 19  1  0
 19 20  1  0
 20 21  1  0
 21 22  1  0
 16 23  1  0
 23 24  2  0
 24  7  1  0
 23 10  1  0
  1 25  1  0
  1 26  1  0
  1 27  1  0
  3 28  1  0
  3 29  1  0
  3 30  1  0
  4 31  1  0
  4 32  1  0
  5 33  1  0
  6 34  1  0
  8 35  1  0
  9 36  1  0
 11 37  1  0
 14 38  1  0
 14 39  1  0
 20 40  1  0
 20 41  1  0
 21 42  1  0
 21 43  1  0
 22 44  1  0
 24 45  1  0
M  END
>  <UniqueID>  (73) 
72

>  <SMILES>  (73) 
CC(C)(CO)Nc1ccc2cc(C(N)=O)n(C(=O)OCCO)c2c1

>  <Energy>  (73) 
82.05553520917522

>  <Genealogy>  (73) 
CC(C)(CO)Nc1ccc2cc(C(N)=O)n(C(=O)OCCO)c2c1 (3D coordinates assigned)
CC(C)(CO)Nc1ccc2cc(C(N)=O)n(C(=O)OCCO)c2c1 (optimized conformer: 82.05553520917522 kcal/mol)

>  <smiles>  (73) 
CC(C)(CO)Nc1ccc2cc(C(N)=O)n(C(=O)OCCO)c2c1

>  <score_type>  (73) 
oracle

>  <origin>  (73) 
adg

>  <m_score__min__energy>  (73) 
-6.75

>  <m_primary>  (73) 
energy

$$$$
73:0
     RDKit          3D

 50 52  0  0  0  0  0  0  0  0999 V2000
  146.2360  160.8980  133.7310 C   0  0  0  0  0  0  0  0  0  0  0  0
  146.7320  159.5240  133.6100 N   0  0  0  0  0  0  0  0  0  0  0  0
  148.1810  159.3010  133.4900 C   0  0  0  0  0  0  0  0  0  0  0  0
  148.6780  159.7980  132.1680 C   0  0  0  0  0  0  0  0  0  0  0  0
  149.2770  159.0330  131.1870 C   0  0  0  0  0  0  0  0  0  0  0  0
  149.5380  159.9010  130.1510 C   0  0  0  0  0  0  0  0  0  0  0  0
  149.0800  161.1380  130.5600 C   0  0  0  0  0  0  0  0  0  0  0  0
  148.5710  161.0430  131.7650 O   0  0  0  0  0  0  0  0  0  0  0  0
  145.8000  158.4260  133.4720 C   0  0  0  0  0  0  0  0  0  0  0  0
  146.2740  157.1000  133.2820 C   0  0  0  0  0  0  0  0  0  0  0  0
  145.3770  156.0260  133.1540 C   0  0  0  0  0  0  0  0  0  0  0  0
  144.0160  156.2980  133.2350 C   0  0  0  0  0  0  0  0  0  0  0  0
  142.9350  155.4530  133.1340 C   0  0  0  0  0  0  0  0  0  0  0  0
  141.8130  156.2650  133.2950 C   0  0  0  0  0  0  0  0  0  0  0  0
  140.4260  155.7540  133.3540 C   0  0  0  0  0  0  0  0  0  0  0  0
  139.3270  156.5750  132.9540 N   0  0  0  0  0  0  0  0  0  0  0  0
  140.2020  154.5730  133.7310 O   0  0  0  0  0  0  0  0  0  0  0  0
  142.1890  157.5620  133.4840 N   0  0  0  0  0  0  0  0  0  0  0  0
  141.3410  158.7090  133.6600 C   0  0  0  0  0  0  0  0  0  0  0  0
  140.7140  159.1800  132.6740 O   0  0  0  0  0  0  0  0  0  0  0  0
  141.2410  159.3000  134.9290 O   0  0  0  0  0  0  0  0  0  0  0  0
  140.7200  158.6880  136.1160 C   0  0  0  0  0  0  0  0  0  0  0  0
  139.3490  158.0430  135.8370 C   0  0  0  0  0  0  0  0  0  0  0  0
  140.6150  159.7190  137.2560 C   0  0  0  0  0  0  0  0  0  0  0  0
  141.7110  157.5900  136.5310 C   0  0  0  0  0  0  0  0  0  0  0  0
  143.5390  157.5660  133.4420 C   0  0  0  0  0  0  0  0  0  0  0  0
  144.4070  158.6580  133.5430 C   0  0  0  0  0  0  0  0  0  0  0  0
  146.1410  161.1612  134.7948 H   0  0  0  0  0  0  0  0  0  0  0  0
  146.9422  161.5869  133.2445 H   0  0  0  0  0  0  0  0  0  0  0  0
  145.2526  160.9770  133.2445 H   0  0  0  0  0  0  0  0  0  0  0  0
  148.6987  159.8395  134.2975 H   0  0  0  0  0  0  0  0  0  0  0  0
  148.3833  158.2223  133.5646 H   0  0  0  0  0  0  0  0  0  0  0  0
  149.4990  157.9563  131.2253 H   0  0  0  0  0  0  0  0  0  0  0  0
  150.0155  159.6581  129.1903 H   0  0  0  0  0  0  0  0  0  0  0  0
  149.1339  162.0621  129.9657 H   0  0  0  0  0  0  0  0  0  0  0  0
  147.3568  156.9119  133.2345 H   0  0  0  0  0  0  0  0  0  0  0  0
  145.7409  155.0003  132.9944 H   0  0  0  0  0  0  0  0  0  0  0  0
  142.9522  154.3666  132.9625 H   0  0  0  0  0  0  0  0  0  0  0  0
  139.4650  157.5740  132.6860 H   0  0  0  0  0  0  0  0  0  0  0  0
  138.3550  156.1920  132.9660 H   0  0  0  0  0  0  0  0  0  0  0  0
  138.8528  157.8095  136.7906 H   0  0  0  0  0  0  0  0  0  0  0  0
  138.7253  158.7422  135.2606 H   0  0  0  0  0  0  0  0  0  0  0  0
  139.4900  157.1168  135.2606 H   0  0  0  0  0  0  0  0  0  0  0  0
  140.6678  159.2009  138.2249 H   0  0  0  0  0  0  0  0  0  0  0  0
  141.4447  160.4371  137.1785 H   0  0  0  0  0  0  0  0  0  0  0  0
  139.6576  160.2551  137.1785 H   0  0  0  0  0  0  0  0  0  0  0  0
  141.7598  157.5359  137.6286 H   0  0  0  0  0  0  0  0  0  0  0  0
  141.3747  156.6222  136.1308 H   0  0  0  0  0  0  0  0  0  0  0  0
  142.7081  157.8257  136.1308 H   0  0  0  0  0  0  0  0  0  0  0  0
  144.0139  159.6769  133.6750 H   0  0  0  0  0  0  0  0  0  0  0  0
  1  2  1  0
  2  3  1  0
  3  4  1  0
  4  5  2  0
  5  6  1  0
  6  7  2  0
  7  8  1  0
  2  9  1  0
  9 10  2  0
 10 11  1  0
 11 12  2  0
 12 13  1  0
 13 14  2  0
 14 15  1  0
 15 16  1  0
 15 17  2  0
 14 18  1  0
 18 19  1  0
 19 20  2  0
 19 21  1  0
 21 22  1  0
 22 23  1  0
 22 24  1  0
 22 25  1  0
 18 26  1  0
 26 27  2  0
  8  4  1  0
 27  9  1  0
 26 12  1  0
  1 28  1  0
  1 29  1  0
  1 30  1  0
  3 31  1  0
  3 32  1  0
  5 33  1  0
  6 34  1  0
  7 35  1  0
 10 36  1  0
 11 37  1  0
 13 38  1  0
 16 39  1  0
 16 40  1  0
 23 41  1  0
 23 42  1  0
 23 43  1  0
 24 44  1  0
 24 45  1  0
 24 46  1  0
 25 47  1  0
 25 48  1  0
 25 49  1  0
 27 50  1  0
M  END
>  <UniqueID>  (74) 
73

>  <SMILES>  (74) 
CN(Cc1ccco1)c1ccc2cc(C(N)=O)n(C(=O)OC(C)(C)C)c2c1

>  <Energy>  (74) 
110.74187608605358

>  <Genealogy>  (74) 
CN(Cc1ccco1)c1ccc2cc(C(N)=O)n(C(=O)OC(C)(C)C)c2c1 (3D coordinates assigned)
CN(Cc1ccco1)c1ccc2cc(C(N)=O)n(C(=O)OC(C)(C)C)c2c1 (optimized conformer: 110.74187608605358 kcal/mol)

>  <smiles>  (74) 
CN(Cc1ccco1)c1ccc2cc(C(N)=O)n(C(=O)OC(C)(C)C)c2c1

>  <score_type>  (74) 
oracle

>  <origin>  (74) 
adg

>  <m_score__min__energy>  (74) 
-8.1300000000000008

>  <m_primary>  (74) 
energy

$$$$
74:0
     RDKit          3D

 28 29  0  0  0  0  0  0  0  0999 V2000
  139.4230  146.2400  129.8670 N   0  0  0  0  0  0  0  0  0  0  0  0
  138.9520  147.2900  129.9820 C   0  0  0  0  0  0  0  0  0  0  0  0
  138.3550  148.6220  130.1270 C   0  0  0  0  0  0  0  0  0  0  0  0
  138.6160  149.1520  131.4650 N   0  0  0  0  0  0  0  0  0  0  0  0
  139.8470  149.7840  131.8680 C   0  0  0  0  0  0  0  0  0  0  0  0
  141.0350  149.0130  131.9030 C   0  0  0  0  0  0  0  0  0  0  0  0
  142.2600  149.5870  132.2780 C   0  0  0  0  0  0  0  0  0  0  0  0
  142.2700  150.9360  132.6190 C   0  0  0  0  0  0  0  0  0  0  0  0
  143.3170  151.7440  132.9950 C   0  0  0  0  0  0  0  0  0  0  0  0
  142.7550  153.0020  133.2080 C   0  0  0  0  0  0  0  0  0  0  0  0
  143.5120  154.1660  133.7200 C   0  0  0  0  0  0  0  0  0  0  0  0
  143.4750  155.4190  133.0330 N   0  0  0  0  0  0  0  0  0  0  0  0
  144.2250  154.0530  134.7510 O   0  0  0  0  0  0  0  0  0  0  0  0
  141.4130  152.9710  132.9690 N   0  0  0  0  0  0  0  0  0  0  0  0
  140.4940  154.0770  133.0130 C   0  0  0  0  0  0  0  0  0  0  0  0
  140.9200  155.2570  133.1150 O   0  0  0  0  0  0  0  0  0  0  0  0
  139.1230  153.8520  132.9620 O   0  0  0  0  0  0  0  0  0  0  0  0
  141.1310  151.6990  132.6090 C   0  0  0  0  0  0  0  0  0  0  0  0
  139.9000  151.1560  132.2200 C   0  0  0  0  0  0  0  0  0  0  0  0
  138.7909  149.2986  129.3772 H   0  0  0  0  0  0  0  0  0  0  0  0
  137.2678  148.5451  129.9782 H   0  0  0  0  0  0  0  0  0  0  0  0
  137.8630  149.0300  132.1800 H   0  0  0  0  0  0  0  0  0  0  0  0
  140.9970  147.9476  131.6320 H   0  0  0  0  0  0  0  0  0  0  0  0
  143.1830  148.9891  132.3015 H   0  0  0  0  0  0  0  0  0  0  0  0
  144.3737  151.4585  133.1045 H   0  0  0  0  0  0  0  0  0  0  0  0
  144.0430  156.2230  133.3810 H   0  0  0  0  0  0  0  0  0  0  0  0
  142.8550  155.5660  132.2080 H   0  0  0  0  0  0  0  0  0  0  0  0
  138.9948  151.7802  132.1884 H   0  0  0  0  0  0  0  0  0  0  0  0
  1  2  3  0
  2  3  1  0
  3  4  1  0
  4  5  1  0
  5  6  2  0
  6  7  1  0
  7  8  2  0
  8  9  1  0
  9 10  2  0
 10 11  1  0
 11 12  1  0
 11 13  2  0
 10 14  1  0
 14 15  1  0
 15 16  2  0
 15 17  1  0
 14 18  1  0
 18 19  2  0
 19  5  1  0
 18  8  1  0
  3 20  1  0
  3 21  1  0
  4 22  1  0
  6 23  1  0
  7 24  1  0
  9 25  1  0
 12 26  1  0
 12 27  1  0
 19 28  1  0
M  CHG  1  17  -1
M  END
>  <UniqueID>  (75) 
74

>  <SMILES>  (75) 
N#CCNc1ccc2cc(C(N)=O)n(C(=O)[O-])c2c1

>  <Energy>  (75) 
65.80210373029632

>  <Genealogy>  (75) 
N#CCNc1ccc2cc(C(N)=O)n(C(=O)[O-])c2c1 (protonated)
N#CCNc1ccc2cc(C(N)=O)n(C(=O)[O-])c2c1 (3D coordinates assigned)
N#CCNc1ccc2cc(C(N)=O)n(C(=O)[O-])c2c1 (optimized conformer: 65.80210373029632 kcal/mol)

>  <smiles>  (75) 
N#CCNc1ccc2cc(C(N)=O)n(C(=O)O)c2c1

>  <score_type>  (75) 
oracle

>  <origin>  (75) 
adg

>  <m_score__min__energy>  (75) 
-6.75

>  <m_primary>  (75) 
energy

$$$$
75:0
     RDKit          3D

 50 52  0  0  0  0  0  0  0  0999 V2000
  149.6060  161.4810  129.7340 C   0  0  0  0  0  0  0  0  0  0  0  0
  149.2220  161.3240  131.0970 O   0  0  0  0  0  0  0  0  0  0  0  0
  148.7920  160.1140  131.6630 C   0  0  0  0  0  0  0  0  0  0  0  0
  149.5780  158.9500  131.6380 C   0  0  0  0  0  0  0  0  0  0  0  0
  149.1060  157.7700  132.2140 C   0  0  0  0  0  0  0  0  0  0  0  0
  147.8420  157.7280  132.8230 C   0  0  0  0  0  0  0  0  0  0  0  0
  147.3410  156.4380  133.4280 C   0  0  0  0  0  0  0  0  0  0  0  0
  145.9960  156.1290  132.9390 N   0  0  0  0  0  0  0  0  0  0  0  0
  145.4520  154.7990  132.8510 C   0  0  0  0  0  0  0  0  0  0  0  0
  146.2820  153.6690  132.6200 C   0  0  0  0  0  0  0  0  0  0  0  0
  145.7300  152.3770  132.5470 C   0  0  0  0  0  0  0  0  0  0  0  0
  144.3550  152.2430  132.7060 C   0  0  0  0  0  0  0  0  0  0  0  0
  143.5650  151.1170  132.7020 C   0  0  0  0  0  0  0  0  0  0  0  0
  142.2670  151.5740  132.9190 C   0  0  0  0  0  0  0  0  0  0  0  0
  141.0800  150.6950  132.9220 C   0  0  0  0  0  0  0  0  0  0  0  0
  139.9970  150.9230  132.0230 N   0  0  0  0  0  0  0  0  0  0  0  0
  141.0330  149.7100  133.7060 O   0  0  0  0  0  0  0  0  0  0  0  0
  142.2590  152.9300  133.0590 N   0  0  0  0  0  0  0  0  0  0  0  0
  141.1520  153.7850  133.3740 C   0  0  0  0  0  0  0  0  0  0  0  0
  140.1490  153.8020  132.6100 O   0  0  0  0  0  0  0  0  0  0  0  0
  141.2710  154.7800  134.4960 C   0  0  0  0  0  0  0  0  0  0  0  0
  142.0010  154.0500  135.9990 P   0  0  0  0  0  0  0  0  0  0  0  0
  141.7380  152.5620  136.0360 O   0  0  0  0  0  0  0  0  0  0  0  0
  141.3260  154.7730  137.3700 O   0  0  0  0  0  0  0  0  0  0  0  0
  143.6700  154.3200  135.9920 O   0  0  0  0  0  0  0  0  0  0  0  0
  143.5420  153.3220  132.9230 C   0  0  0  0  0  0  0  0  0  0  0  0
  144.0610  154.6170  133.0140 C   0  0  0  0  0  0  0  0  0  0  0  0
  147.0500  158.8920  132.8620 C   0  0  0  0  0  0  0  0  0  0  0  0
  145.7930  158.8380  133.4870 O   0  0  0  0  0  0  0  0  0  0  0  0
  144.8030  159.8580  133.4080 C   0  0  0  0  0  0  0  0  0  0  0  0
  147.5350  160.0780  132.2760 C   0  0  0  0  0  0  0  0  0  0  0  0
  150.6232  161.8969  129.6852 H   0  0  0  0  0  0  0  0  0  0  0  0
  149.5855  160.5023  129.2322 H   0  0  0  0  0  0  0  0  0  0  0  0
  148.9058  162.1650  129.2322 H   0  0  0  0  0  0  0  0  0  0  0  0
  150.5697  158.9688  131.1624 H   0  0  0  0  0  0  0  0  0  0  0  0
  149.7301  156.8645  132.1906 H   0  0  0  0  0  0  0  0  0  0  0  0
  148.0230  155.6202  133.1520 H   0  0  0  0  0  0  0  0  0  0  0  0
  147.3043  156.5494  134.5217 H   0  0  0  0  0  0  0  0  0  0  0  0
  145.4400  156.9210  132.5420 H   0  0  0  0  0  0  0  0  0  0  0  0
  147.3665  153.8058  132.4971 H   0  0  0  0  0  0  0  0  0  0  0  0
  146.3675  151.4984  132.3693 H   0  0  0  0  0  0  0  0  0  0  0  0
  143.8895  150.0759  132.5579 H   0  0  0  0  0  0  0  0  0  0  0  0
  139.7750  151.8840  131.6820 H   0  0  0  0  0  0  0  0  0  0  0  0
  141.9074  155.6131  134.1631 H   0  0  0  0  0  0  0  0  0  0  0  0
  140.2568  155.1230  134.7487 H   0  0  0  0  0  0  0  0  0  0  0  0
  143.4006  155.4750  133.2082 H   0  0  0  0  0  0  0  0  0  0  0  0
  144.5079  160.1620  134.4232 H   0  0  0  0  0  0  0  0  0  0  0  0
  145.2125  160.7256  132.8699 H   0  0  0  0  0  0  0  0  0  0  0  0
  143.9236  159.4745  132.8699 H   0  0  0  0  0  0  0  0  0  0  0  0
  146.9171  160.9877  132.3008 H   0  0  0  0  0  0  0  0  0  0  0  0
  1  2  1  0
  2  3  1  0
  3  4  2  0
  4  5  1  0
  5  6  2  0
  6  7  1  0
  7  8  1  0
  8  9  1  0
  9 10  2  0
 10 11  1  0
 11 12  2  0
 12 13  1  0
 13 14  2  0
 14 15  1  0
 15 16  1  0
 15 17  2  0
 14 18  1  0
 18 19  1  0
 19 20  2  0
 19 21  1  0
 21 22  1  0
 22 23  2  0
 22 24  1  0
 22 25  1  0
 18 26  1  0
 26 27  2  0
  6 28  1  0
 28 29  1  0
 29 30  1  0
 28 31  2  0
 31  3  1  0
 27  9  1  0
 26 12  1  0
  1 32  1  0
  1 33  1  0
  1 34  1  0
  4 35  1  0
  5 36  1  0
  7 37  1  0
  7 38  1  0
  8 39  1  0
 10 40  1  0
 11 41  1  0
 13 42  1  0
 16 43  1  0
 21 44  1  0
 21 45  1  0
 27 46  1  0
 30 47  1  0
 30 48  1  0
 30 49  1  0
 31 50  1  0
M  CHG  3  16  -1  24  -1  25  -1
M  END
>  <UniqueID>  (76) 
75

>  <SMILES>  (76) 
COc1ccc(CNc2ccc3cc(C([NH-])=O)n(C(=O)CP(=O)([O-])[O-])c3c2)c(OC)c1

>  <Energy>  (76) 
87.48463396464763

>  <Genealogy>  (76) 
COc1ccc(CNc2ccc3cc(C([NH-])=O)n(C(=O)CP(=O)([O-])[O-])c3c2)c(OC)c1 (protonated)
COc1ccc(CNc2ccc3cc(C([NH-])=O)n(C(=O)CP(=O)([O-])[O-])c3c2)c(OC)c1 (3D coordinates assigned)
COc1ccc(CNc2ccc3cc(C([NH-])=O)n(C(=O)CP(=O)([O-])[O-])c3c2)c(OC)c1 (optimized conformer: 87.48463396464763 kcal/mol)

>  <smiles>  (76) 
COc1ccc(CNc2ccc3cc(C(N)=O)n(C(=O)CP(=O)(O)O)c3c2)c(OC)c1

>  <score_type>  (76) 
oracle

>  <origin>  (76) 
adg

>  <m_score__min__energy>  (76) 
-8

>  <m_primary>  (76) 
energy

$$$$
76:0
     RDKit          3D

 65 68  0  0  0  0  0  0  0  0999 V2000
  140.9780  148.5070  130.0240 C   0  0  0  0  0  0  0  0  0  0  0  0
  139.4940  148.6290  130.4200 C   0  0  0  0  0  0  0  0  0  0  0  0
  138.8320  147.2470  130.2900 C   0  0  0  0  0  0  0  0  0  0  0  0
  138.7630  149.6190  129.4930 C   0  0  0  0  0  0  0  0  0  0  0  0
  139.3700  149.0300  131.7920 O   0  0  0  0  0  0  0  0  0  0  0  0
  139.4390  150.3440  132.2870 C   0  0  0  0  0  0  0  0  0  0  0  0
  138.4840  151.1460  132.1110 O   0  0  0  0  0  0  0  0  0  0  0  0
  140.6150  150.7800  132.9950 N   0  0  0  0  0  0  0  0  0  0  0  0
  141.7410  149.8590  133.2170 C   0  0  0  0  0  0  0  0  0  0  0  0
  143.0720  150.5670  132.9270 C   0  0  0  0  0  0  0  0  0  0  0  0
  143.0960  151.9320  133.4760 N   0  0  0  0  0  0  0  0  0  0  0  0
  144.1630  152.8240  133.1010 C   0  0  0  0  0  0  0  0  0  0  0  0
  145.4670  152.6140  133.5770 C   0  0  0  0  0  0  0  0  0  0  0  0
  146.4900  153.5090  133.2570 C   0  0  0  0  0  0  0  0  0  0  0  0
  146.2330  154.6250  132.4490 C   0  0  0  0  0  0  0  0  0  0  0  0
  147.2910  155.5660  132.1900 N   0  0  0  0  0  0  0  0  0  0  0  0
  147.2590  156.9500  132.5720 C   0  0  0  0  0  0  0  0  0  0  0  0
  148.4590  157.7000  132.5600 C   0  0  0  0  0  0  0  0  0  0  0  0
  148.4620  159.0570  132.9200 C   0  0  0  0  0  0  0  0  0  0  0  0
  147.2470  159.6430  133.2600 C   0  0  0  0  0  0  0  0  0  0  0  0
  146.9670  160.9290  133.6620 C   0  0  0  0  0  0  0  0  0  0  0  0
  145.5890  160.9610  133.8630 C   0  0  0  0  0  0  0  0  0  0  0  0
  144.8470  162.1890  134.2160 C   0  0  0  0  0  0  0  0  0  0  0  0
  143.5620  162.4550  133.6590 N   0  0  0  0  0  0  0  0  0  0  0  0
  145.3760  163.0400  134.9790 O   0  0  0  0  0  0  0  0  0  0  0  0
  145.0390  159.7400  133.6040 N   0  0  0  0  0  0  0  0  0  0  0  0
  143.6680  159.3440  133.7660 C   0  0  0  0  0  0  0  0  0  0  0  0
  143.1680  158.4930  132.9810 O   0  0  0  0  0  0  0  0  0  0  0  0
  142.9130  159.8840  134.8150 O   0  0  0  0  0  0  0  0  0  0  0  0
  141.5330  160.1200  134.7670 C   0  0  0  0  0  0  0  0  0  0  0  0
  140.9760  160.5690  133.7300 O   0  0  0  0  0  0  0  0  0  0  0  0
  146.0680  158.9440  133.2370 C   0  0  0  0  0  0  0  0  0  0  0  0
  146.0390  157.5840  132.9030 C   0  0  0  0  0  0  0  0  0  0  0  0
  144.9250  154.8420  131.9800 C   0  0  0  0  0  0  0  0  0  0  0  0
  143.9010  153.9470  132.3010 C   0  0  0  0  0  0  0  0  0  0  0  0
  141.9730  152.4040  134.2930 C   0  0  0  0  0  0  0  0  0  0  0  0
  140.6570  152.1410  133.5540 C   0  0  0  0  0  0  0  0  0  0  0  0
  141.5968  148.4561  130.9320 H   0  0  0  0  0  0  0  0  0  0  0  0
  141.1247  147.5938  129.4286 H   0  0  0  0  0  0  0  0  0  0  0  0
  141.2719  149.3840  129.4286 H   0  0  0  0  0  0  0  0  0  0  0  0
  138.6363  146.8384  131.2924 H   0  0  0  0  0  0  0  0  0  0  0  0
  137.8831  147.3450  129.7423 H   0  0  0  0  0  0  0  0  0  0  0  0
  139.5031  146.5690  129.7423 H   0  0  0  0  0  0  0  0  0  0  0  0
  138.2184  150.3566  130.1008 H   0  0  0  0  0  0  0  0  0  0  0  0
  139.4969  150.1371  128.8582 H   0  0  0  0  0  0  0  0  0  0  0  0
  138.0518  149.0701  128.8582 H   0  0  0  0  0  0  0  0  0  0  0  0
  141.7310  149.5188  134.2630 H   0  0  0  0  0  0  0  0  0  0  0  0
  141.6383  148.9978  132.5403 H   0  0  0  0  0  0  0  0  0  0  0  0
  143.8898  149.9869  133.3794 H   0  0  0  0  0  0  0  0  0  0  0  0
  143.1922  150.6353  131.8357 H   0  0  0  0  0  0  0  0  0  0  0  0
  145.6843  151.7384  134.2063 H   0  0  0  0  0  0  0  0  0  0  0  0
  147.5058  153.3367  133.6422 H   0  0  0  0  0  0  0  0  0  0  0  0
  148.1630  155.2080  131.7360 H   0  0  0  0  0  0  0  0  0  0  0  0
  149.4007  157.2139  132.2651 H   0  0  0  0  0  0  0  0  0  0  0  0
  149.3956  159.6385  132.9328 H   0  0  0  0  0  0  0  0  0  0  0  0
  147.6799  161.7559  133.7961 H   0  0  0  0  0  0  0  0  0  0  0  0
  142.8090  161.7310  133.6780 H   0  0  0  0  0  0  0  0  0  0  0  0
  140.9210  159.9082  135.6561 H   0  0  0  0  0  0  0  0  0  0  0  0
  145.0923  157.0239  132.8983 H   0  0  0  0  0  0  0  0  0  0  0  0
  144.7067  155.7216  131.3566 H   0  0  0  0  0  0  0  0  0  0  0  0
  142.8828  154.1238  131.9242 H   0  0  0  0  0  0  0  0  0  0  0  0
  141.9676  151.8678  135.2534 H   0  0  0  0  0  0  0  0  0  0  0  0
  142.0812  153.4833  134.4759 H   0  0  0  0  0  0  0  0  0  0  0  0
  139.8209  152.2642  134.2581 H   0  0  0  0  0  0  0  0  0  0  0  0
  140.5783  152.8579  132.7234 H   0  0  0  0  0  0  0  0  0  0  0  0
  1  2  1  0
  2  3  1  0
  2  4  1  0
  2  5  1  0
  5  6  1  0
  6  7  2  0
  6  8  1  0
  8  9  1  0
  9 10  1  0
 10 11  1  0
 11 12  1  0
 12 13  2  0
 13 14  1  0
 14 15  2  0
 15 16  1  0
 16 17  1  0
 17 18  2  0
 18 19  1  0
 19 20  2  0
 20 21  1  0
 21 22  2  0
 22 23  1  0
 23 24  1  0
 23 25  2  0
 22 26  1  0
 26 27  1  0
 27 28  2  0
 27 29  1  0
 29 30  1  0
 30 31  2  0
 26 32  1  0
 32 33  2  0
 15 34  1  0
 34 35  2  0
 11 36  1  0
 36 37  1  0
 37  8  1  0
 35 12  1  0
 33 17  1  0
 32 20  1  0
  1 38  1  0
  1 39  1  0
  1 40  1  0
  3 41  1  0
  3 42  1  0
  3 43  1  0
  4 44  1  0
  4 45  1  0
  4 46  1  0
  9 47  1  0
  9 48  1  0
 10 49  1  0
 10 50  1  0
 13 51  1  0
 14 52  1  0
 16 53  1  0
 18 54  1  0
 19 55  1  0
 21 56  1  0
 24 57  1  0
 30 58  1  0
 33 59  1  0
 34 60  1  0
 35 61  1  0
 36 62  1  0
 36 63  1  0
 37 64  1  0
 37 65  1  0
M  CHG  1  24  -1
M  END
>  <UniqueID>  (77) 
76

>  <SMILES>  (77) 
CC(C)(C)OC(=O)N1CCN(c2ccc(Nc3ccc4cc(C([NH-])=O)n(C(=O)OC=O)c4c3)cc2)CC1

>  <Energy>  (77) 
113.42964475234832

>  <Genealogy>  (77) 
CC(C)(C)OC(=O)N1CCN(c2ccc(Nc3ccc4cc(C([NH-])=O)n(C(=O)OC=O)c4c3)cc2)CC1 (protonated)
CC(C)(C)OC(=O)N1CCN(c2ccc(Nc3ccc4cc(C([NH-])=O)n(C(=O)OC=O)c4c3)cc2)CC1 (3D coordinates assigned)
CC(C)(C)OC(=O)N1CCN(c2ccc(Nc3ccc4cc(C([NH-])=O)n(C(=O)OC=O)c4c3)cc2)CC1 (nonaromatic ring conformer: 113.42964475234832 kcal/mol)

>  <smiles>  (77) 
CC(C)(C)OC(=O)N1CCN(c2ccc(Nc3ccc4cc(C(N)=O)n(C(=O)OC=O)c4c3)cc2)CC1

>  <score_type>  (77) 
oracle

>  <origin>  (77) 
adg

>  <m_score__min__energy>  (77) 
-9.3699999999999992

>  <m_primary>  (77) 
energy

$$$$
77:0
     RDKit          3D

 46 47  0  0  0  0  0  0  0  0999 V2000
  141.1600  159.6960  136.1690 C   0  0  0  0  0  0  0  0  0  0  0  0
  140.9660  158.8770  134.9790 N   0  0  0  0  0  0  0  0  0  0  0  0
  140.1370  157.7080  134.9950 C   0  0  0  0  0  0  0  0  0  0  0  0
  139.5920  157.3340  136.0700 O   0  0  0  0  0  0  0  0  0  0  0  0
  139.9590  156.8890  133.7440 C   0  0  1  0  0  0  0  0  0  0  0  0
  139.3920  157.7700  132.6190 C   0  0  0  0  0  0  0  0  0  0  0  0
  140.2860  158.8030  132.3020 O   0  0  0  0  0  0  0  0  0  0  0  0
  141.2540  156.3350  133.3480 N   0  0  0  0  0  0  0  0  0  0  0  0
  142.4730  157.0420  133.0640 C   0  0  0  0  0  0  0  0  0  0  0  0
  142.6360  157.4860  131.8970 O   0  0  0  0  0  0  0  0  0  0  0  0
  143.5400  157.2810  134.0650 C   0  0  0  0  0  0  0  0  0  0  0  0
  143.4370  156.8500  135.2430 O   0  0  0  0  0  0  0  0  0  0  0  0
  144.7180  158.0140  133.6960 N   0  0  0  0  0  0  0  0  0  0  0  0
  144.8340  159.3580  133.5080 C   0  0  0  0  0  0  0  0  0  0  0  0
  143.7690  160.3550  133.7450 C   0  0  0  0  0  0  0  0  0  0  0  0
  142.4640  160.1410  133.2120 N   0  0  0  0  0  0  0  0  0  0  0  0
  144.0020  161.4040  134.4010 O   0  0  0  0  0  0  0  0  0  0  0  0
  146.1260  159.6800  133.0970 C   0  0  0  0  0  0  0  0  0  0  0  0
  146.7990  158.4810  133.0350 C   0  0  0  0  0  0  0  0  0  0  0  0
  148.1100  158.2070  132.6630 C   0  0  0  0  0  0  0  0  0  0  0  0
  148.5300  156.8670  132.6640 C   0  0  0  0  0  0  0  0  0  0  0  0
  147.6390  155.8160  133.0260 C   0  0  0  0  0  0  0  0  0  0  0  0
  148.0810  154.4330  133.0190 N   0  0  0  0  0  0  0  0  0  0  0  0
  147.1770  153.3590  133.4520 C   0  0  0  0  0  0  0  0  0  0  0  0
  149.4370  154.0860  132.5790 C   0  0  0  0  0  0  0  0  0  0  0  0
  146.3090  156.1470  133.3930 C   0  0  0  0  0  0  0  0  0  0  0  0
  145.9270  157.4920  133.3980 C   0  0  0  0  0  0  0  0  0  0  0  0
  141.0136  159.0781  137.0672 H   0  0  0  0  0  0  0  0  0  0  0  0
  142.1803  160.1070  136.1689 H   0  0  0  0  0  0  0  0  0  0  0  0
  140.4324  160.5210  136.1689 H   0  0  0  0  0  0  0  0  0  0  0  0
  141.4470  159.1570  134.0940 H   0  0  0  0  0  0  0  0  0  0  0  0
  139.2530  156.0674  133.9350 H   0  0  0  0  0  0  0  0  0  0  0  0
  139.2234  157.1510  131.7254 H   0  0  0  0  0  0  0  0  0  0  0  0
  138.4446  158.2133  132.9595 H   0  0  0  0  0  0  0  0  0  0  0  0
  141.1790  158.5140  132.6270 H   0  0  0  0  0  0  0  0  0  0  0  0
  142.3230  159.5700  132.3510 H   0  0  0  0  0  0  0  0  0  0  0  0
  146.5237  160.6802  132.8702 H   0  0  0  0  0  0  0  0  0  0  0  0
  148.7981  159.0159  132.3763 H   0  0  0  0  0  0  0  0  0  0  0  0
  149.5648  156.6247  132.3804 H   0  0  0  0  0  0  0  0  0  0  0  0
  147.1482  153.3248  134.5511 H   0  0  0  0  0  0  0  0  0  0  0  0
  146.1658  153.5524  133.0646 H   0  0  0  0  0  0  0  0  0  0  0  0
  147.5401  152.3956  133.0646 H   0  0  0  0  0  0  0  0  0  0  0  0
  150.0772  153.9222  133.4584 H   0  0  0  0  0  0  0  0  0  0  0  0
  149.4026  153.1677  131.9744 H   0  0  0  0  0  0  0  0  0  0  0  0
  149.8479  154.9079  131.9744 H   0  0  0  0  0  0  0  0  0  0  0  0
  145.5916  155.3600  133.6685 H   0  0  0  0  0  0  0  0  0  0  0  0
  1  2  1  0
  2  3  1  0
  3  4  2  0
  3  5  1  0
  5  6  1  0
  6  7  1  0
  5  8  1  0
  8  9  1  0
  9 10  2  0
  9 11  1  0
 11 12  2  0
 11 13  1  0
 13 14  1  0
 14 15  1  0
 15 16  1  0
 15 17  2  0
 14 18  2  0
 18 19  1  0
 19 20  2  0
 20 21  1  0
 21 22  2  0
 22 23  1  0
 23 24  1  0
 23 25  1  0
 22 26  1  0
 26 27  2  0
 27 13  1  0
 27 19  1  0
  1 28  1  0
  1 29  1  0
  1 30  1  0
  2 31  1  0
  5 32  1  1
  6 33  1  0
  6 34  1  0
  7 35  1  0
 16 36  1  0
 18 37  1  0
 20 38  1  0
 21 39  1  0
 24 40  1  0
 24 41  1  0
 24 42  1  0
 25 43  1  0
 25 44  1  0
 25 45  1  0
 26 46  1  0
M  CHG  2   8  -1  16  -1
M  END
>  <UniqueID>  (78) 
77

>  <SMILES>  (78) 
CNC(=O)[C@@H](CO)[N-]C(=O)C(=O)n1c(C([NH-])=O)cc2ccc(N(C)C)cc21

>  <Energy>  (78) 
82.23459264637653

>  <Genealogy>  (78) 
CNC(=O)C(CO)[N-]C(=O)C(=O)n1c(C([NH-])=O)cc2ccc(N(C)C)cc21 (protonated)
CNC(=O)[C@@H](CO)[N-]C(=O)C(=O)n1c(C([NH-])=O)cc2ccc(N(C)C)cc21 (chirality)
CNC(=O)[C@@H](CO)[N-]C(=O)C(=O)n1c(C([NH-])=O)cc2ccc(N(C)C)cc21 (3D coordinates assigned)
CNC(=O)[C@@H](CO)[N-]C(=O)C(=O)n1c(C([NH-])=O)cc2ccc(N(C)C)cc21 (optimized conformer: 82.23459264637653 kcal/mol)

>  <smiles>  (78) 
CNC(=O)C(CO)NC(=O)C(=O)n1c(C(N)=O)cc2ccc(N(C)C)cc21

>  <score_type>  (78) 
oracle

>  <origin>  (78) 
adg

>  <m_score__min__energy>  (78) 
-6.3600000000000003

>  <m_primary>  (78) 
energy

$$$$
78:0
     RDKit          3D

 41 42  0  0  0  0  0  0  0  0999 V2000
  140.4920  157.2100  135.3690 C   0  0  0  0  0  0  0  0  0  0  0  0
  139.8490  157.0460  134.0620 N   0  0  0  0  0  0  0  0  0  0  0  0
  139.1140  158.1640  133.4600 C   0  0  0  0  0  0  0  0  0  0  0  0
  140.0490  159.0430  132.6930 C   0  0  0  0  0  0  0  0  0  0  0  0
  140.0870  158.9850  131.4340 O   0  0  0  0  0  0  0  0  0  0  0  0
  140.9060  159.9050  133.3710 O   0  0  0  0  0  0  0  0  0  0  0  0
  139.9630  155.7910  133.3660 C   0  0  0  0  0  0  0  0  0  0  0  0
  139.3970  155.6390  132.2470 O   0  0  0  0  0  0  0  0  0  0  0  0
  140.6970  154.7430  133.9400 O   0  0  0  0  0  0  0  0  0  0  0  0
  140.9770  153.5200  133.3130 C   0  0  0  0  0  0  0  0  0  0  0  0
  140.0460  152.7830  132.8850 O   0  0  0  0  0  0  0  0  0  0  0  0
  142.3440  153.1290  133.1150 N   0  0  0  0  0  0  0  0  0  0  0  0
  142.8350  151.8630  132.9900 C   0  0  0  0  0  0  0  0  0  0  0  0
  142.0260  150.6360  132.8510 C   0  0  0  0  0  0  0  0  0  0  0  0
  141.0020  150.3470  133.8040 N   0  0  0  0  0  0  0  0  0  0  0  0
  142.2500  149.8210  131.9160 O   0  0  0  0  0  0  0  0  0  0  0  0
  144.2270  151.8810  132.9240 C   0  0  0  0  0  0  0  0  0  0  0  0
  144.5780  153.2100  133.0090 C   0  0  0  0  0  0  0  0  0  0  0  0
  145.8350  153.8060  132.9990 C   0  0  0  0  0  0  0  0  0  0  0  0
  145.9010  155.2050  133.1230 C   0  0  0  0  0  0  0  0  0  0  0  0
  144.7180  155.9750  133.2700 C   0  0  0  0  0  0  0  0  0  0  0  0
  144.8030  157.4720  133.3840 C   0  0  0  0  0  0  0  0  0  0  0  0
  143.4060  158.0880  133.4580 C   0  0  0  0  0  0  0  0  0  0  0  0
  142.7140  157.8570  132.2630 O   0  0  0  0  0  0  0  0  0  0  0  0
  143.4590  155.3350  133.2620 C   0  0  0  0  0  0  0  0  0  0  0  0
  143.4230  153.9420  133.1210 C   0  0  0  0  0  0  0  0  0  0  0  0
  139.7568  157.0225  136.1654 H   0  0  0  0  0  0  0  0  0  0  0  0
  141.3228  156.4950  135.4612 H   0  0  0  0  0  0  0  0  0  0  0  0
  140.8789  158.2356  135.4612 H   0  0  0  0  0  0  0  0  0  0  0  0
  138.3456  157.7691  132.7791 H   0  0  0  0  0  0  0  0  0  0  0  0
  138.6405  158.7539  134.2587 H   0  0  0  0  0  0  0  0  0  0  0  0
  140.0540  150.7770  133.7210 H   0  0  0  0  0  0  0  0  0  0  0  0
  144.9015  151.0177  132.8251 H   0  0  0  0  0  0  0  0  0  0  0  0
  146.7485  153.2018  132.8973 H   0  0  0  0  0  0  0  0  0  0  0  0
  146.8793  155.7076  133.1059 H   0  0  0  0  0  0  0  0  0  0  0  0
  145.3618  157.7337  134.2946 H   0  0  0  0  0  0  0  0  0  0  0  0
  145.3168  157.8660  132.4947 H   0  0  0  0  0  0  0  0  0  0  0  0
  142.8520  157.6339  134.2928 H   0  0  0  0  0  0  0  0  0  0  0  0
  143.4989  159.1726  133.6162 H   0  0  0  0  0  0  0  0  0  0  0  0
  142.1160  158.6390  132.1240 H   0  0  0  0  0  0  0  0  0  0  0  0
  142.5304  155.9158  133.3639 H   0  0  0  0  0  0  0  0  0  0  0  0
  1  2  1  0
  2  3  1  0
  3  4  1  0
  4  5  2  0
  4  6  1  0
  2  7  1  0
  7  8  2  0
  7  9  1  0
  9 10  1  0
 10 11  2  0
 10 12  1  0
 12 13  1  0
 13 14  1  0
 14 15  1  0
 14 16  2  0
 13 17  2  0
 17 18  1  0
 18 19  2  0
 19 20  1  0
 20 21  2  0
 21 22  1  0
 22 23  1  0
 23 24  1  0
 21 25  1  0
 25 26  2  0
 26 12  1  0
 26 18  1  0
  1 27  1  0
  1 28  1  0
  1 29  1  0
  3 30  1  0
  3 31  1  0
 15 32  1  0
 17 33  1  0
 19 34  1  0
 20 35  1  0
 22 36  1  0
 22 37  1  0
 23 38  1  0
 23 39  1  0
 24 40  1  0
 25 41  1  0
M  CHG  2   6  -1  15  -1
M  END
>  <UniqueID>  (79) 
78

>  <SMILES>  (79) 
CN(CC(=O)[O-])C(=O)OC(=O)n1c(C([NH-])=O)cc2ccc(CCO)cc21

>  <Energy>  (79) 
73.78551966274006

>  <Genealogy>  (79) 
CN(CC(=O)[O-])C(=O)OC(=O)n1c(C([NH-])=O)cc2ccc(CCO)cc21 (protonated)
CN(CC(=O)[O-])C(=O)OC(=O)n1c(C([NH-])=O)cc2ccc(CCO)cc21 (3D coordinates assigned)
CN(CC(=O)[O-])C(=O)OC(=O)n1c(C([NH-])=O)cc2ccc(CCO)cc21 (optimized conformer: 73.78551966274006 kcal/mol)

>  <smiles>  (79) 
CN(CC(=O)O)C(=O)OC(=O)n1c(C(N)=O)cc2ccc(CCO)cc21

>  <score_type>  (79) 
oracle

>  <origin>  (79) 
adg

>  <m_score__min__energy>  (79) 
-6.5499999999999998

>  <m_primary>  (79) 
energy

$$$$
79:0
     RDKit          3D

 32 33  0  0  0  0  0  0  0  0999 V2000
  143.0500  160.6520  133.4270 N   0  0  0  0  0  0  0  0  0  0  0  0
  144.4040  160.8070  133.8470 C   0  0  0  0  0  0  0  0  0  0  0  0
  144.7410  161.8480  134.4680 O   0  0  0  0  0  0  0  0  0  0  0  0
  145.3970  159.7580  133.5320 C   0  0  0  0  0  0  0  0  0  0  0  0
  146.7540  160.0090  133.3310 C   0  0  0  0  0  0  0  0  0  0  0  0
  147.3230  158.7750  133.1090 C   0  0  0  0  0  0  0  0  0  0  0  0
  148.6430  158.4340  132.8330 C   0  0  0  0  0  0  0  0  0  0  0  0
  148.9420  157.0780  132.6140 C   0  0  0  0  0  0  0  0  0  0  0  0
  147.9200  156.0910  132.6640 C   0  0  0  0  0  0  0  0  0  0  0  0
  148.2040  154.6980  132.4320 N   0  0  0  0  0  0  0  0  0  0  0  0
  148.5270  153.7560  133.5060 C   0  0  0  0  0  0  0  0  0  0  0  0
  149.2490  152.5180  132.9680 C   0  0  0  0  0  0  0  0  0  0  0  0
  149.5830  152.6890  131.6170 O   0  0  0  0  0  0  0  0  0  0  0  0
  146.5920  156.4830  132.9460 C   0  0  0  0  0  0  0  0  0  0  0  0
  146.3290  157.8360  133.1780 C   0  0  0  0  0  0  0  0  0  0  0  0
  145.1420  158.4230  133.4430 N   0  0  0  0  0  0  0  0  0  0  0  0
  143.8670  157.7680  133.5350 C   0  0  0  0  0  0  0  0  0  0  0  0
  143.0260  157.9060  132.6070 O   0  0  0  0  0  0  0  0  0  0  0  0
  143.5260  156.9420  134.7020 C   0  0  0  0  0  0  0  0  0  0  0  0
  142.4610  157.1490  135.3400 O   0  0  0  0  0  0  0  0  0  0  0  0
  144.3710  155.9120  135.0970 O   0  0  0  0  0  0  0  0  0  0  0  0
  142.8080  160.0570  132.6040 H   0  0  0  0  0  0  0  0  0  0  0  0
  147.2616  160.9848  133.3465 H   0  0  0  0  0  0  0  0  0  0  0  0
  149.4291  159.2021  132.7875 H   0  0  0  0  0  0  0  0  0  0  0  0
  149.9785  156.7772  132.4015 H   0  0  0  0  0  0  0  0  0  0  0  0
  148.1630  154.3490  131.4470 H   0  0  0  0  0  0  0  0  0  0  0  0
  149.1759  154.2581  134.2387 H   0  0  0  0  0  0  0  0  0  0  0  0
  147.5863  153.4307  133.9743 H   0  0  0  0  0  0  0  0  0  0  0  0
  150.1682  152.3545  133.5496 H   0  0  0  0  0  0  0  0  0  0  0  0
  148.5802  151.6496  133.0605 H   0  0  0  0  0  0  0  0  0  0  0  0
  150.4910  153.0890  131.5910 H   0  0  0  0  0  0  0  0  0  0  0  0
  145.7824  155.7392  132.9822 H   0  0  0  0  0  0  0  0  0  0  0  0
  1  2  1  0
  2  3  2  0
  2  4  1  0
  4  5  2  0
  5  6  1  0
  6  7  2  0
  7  8  1  0
  8  9  2  0
  9 10  1  0
 10 11  1  0
 11 12  1  0
 12 13  1  0
  9 14  1  0
 14 15  2  0
 15 16  1  0
 16 17  1  0
 17 18  2  0
 17 19  1  0
 19 20  2  0
 19 21  1  0
 16  4  1  0
 15  6  1  0
  1 22  1  0
  5 23  1  0
  7 24  1  0
  8 25  1  0
 10 26  1  0
 11 27  1  0
 11 28  1  0
 12 29  1  0
 12 30  1  0
 13 31  1  0
 14 32  1  0
M  CHG  2   1  -1  21  -1
M  END
>  <UniqueID>  (80) 
79

>  <SMILES>  (80) 
[NH-]C(=O)c1cc2ccc(NCCO)cc2n1C(=O)C(=O)[O-]

>  <Energy>  (80) 
68.95191527633601

>  <Genealogy>  (80) 
[NH-]C(=O)c1cc2ccc(NCCO)cc2n1C(=O)C(=O)[O-] (protonated)
[NH-]C(=O)c1cc2ccc(NCCO)cc2n1C(=O)C(=O)[O-] (3D coordinates assigned)
[NH-]C(=O)c1cc2ccc(NCCO)cc2n1C(=O)C(=O)[O-] (optimized conformer: 68.95191527633601 kcal/mol)

>  <smiles>  (80) 
NC(=O)c1cc2ccc(NCCO)cc2n1C(=O)C(=O)O

>  <score_type>  (80) 
oracle

>  <origin>  (80) 
adg

>  <m_score__min__energy>  (80) 
-5.96

>  <m_primary>  (80) 
energy

$$$$
80:0
     RDKit          3D

 36 37  0  0  0  0  0  0  0  0999 V2000
  140.2040  157.7660  133.1160 C   0  0  0  0  0  0  0  0  0  0  0  0
  140.5490  158.9610  134.0120 C   0  0  1  0  0  0  0  0  0  0  0  0
  140.2080  158.6930  135.4540 C   0  0  0  0  0  0  0  0  0  0  0  0
  140.9050  159.2090  136.3680 O   0  0  0  0  0  0  0  0  0  0  0  0
  139.1610  157.8450  135.7930 O   0  0  0  0  0  0  0  0  0  0  0  0
  142.0080  159.3430  133.8700 C   0  0  0  0  0  0  0  0  0  0  0  0
  142.4060  160.7070  133.8640 C   0  0  0  0  0  0  0  0  0  0  0  0
  143.7590  161.0610  133.7290 C   0  0  0  0  0  0  0  0  0  0  0  0
  144.6920  160.0360  133.6140 C   0  0  0  0  0  0  0  0  0  0  0  0
  146.0570  160.0980  133.4510 C   0  0  0  0  0  0  0  0  0  0  0  0
  146.4830  158.7720  133.3870 C   0  0  0  0  0  0  0  0  0  0  0  0
  147.9030  158.3640  133.3090 C   0  0  0  0  0  0  0  0  0  0  0  0
  148.4380  157.4050  134.2220 N   0  0  0  0  0  0  0  0  0  0  0  0
  148.6480  158.8360  132.4110 O   0  0  0  0  0  0  0  0  0  0  0  0
  145.4210  157.9250  133.5070 N   0  0  0  0  0  0  0  0  0  0  0  0
  145.4370  156.4910  133.4280 C   0  0  0  0  0  0  0  0  0  0  0  0
  144.6740  155.8960  132.6200 O   0  0  0  0  0  0  0  0  0  0  0  0
  146.3090  155.7590  134.2440 O   0  0  0  0  0  0  0  0  0  0  0  0
  145.8640  154.8360  135.2350 C   0  0  0  0  0  0  0  0  0  0  0  0
  146.9980  154.4400  136.1240 C   0  0  0  0  0  0  0  0  0  0  0  0
  146.9730  153.3370  136.7310 O   0  0  0  0  0  0  0  0  0  0  0  0
  148.1020  155.2710  136.2510 O   0  0  0  0  0  0  0  0  0  0  0  0
  144.3330  158.7140  133.6430 C   0  0  0  0  0  0  0  0  0  0  0  0
  142.9900  158.3320  133.7570 C   0  0  0  0  0  0  0  0  0  0  0  0
  139.9533  156.8978  133.7432 H   0  0  0  0  0  0  0  0  0  0  0  0
  139.3426  158.0205  132.4809 H   0  0  0  0  0  0  0  0  0  0  0  0
  141.0684  157.5222  132.4809 H   0  0  0  0  0  0  0  0  0  0  0  0
  139.9340  159.8089  133.6761 H   0  0  0  0  0  0  0  0  0  0  0  0
  141.6457  161.4953  133.9663 H   0  0  0  0  0  0  0  0  0  0  0  0
  144.0706  162.1159  133.7147 H   0  0  0  0  0  0  0  0  0  0  0  0
  146.6800  161.0022  133.3852 H   0  0  0  0  0  0  0  0  0  0  0  0
  149.4300  157.0910  134.1310 H   0  0  0  0  0  0  0  0  0  0  0  0
  147.8660  157.0260  135.0090 H   0  0  0  0  0  0  0  0  0  0  0  0
  145.0757  155.3066  135.8408 H   0  0  0  0  0  0  0  0  0  0  0  0
  145.4713  153.9379  134.7358 H   0  0  0  0  0  0  0  0  0  0  0  0
  142.7058  157.2693  133.7586 H   0  0  0  0  0  0  0  0  0  0  0  0
  1  2  1  0
  2  3  1  0
  3  4  2  0
  3  5  1  0
  2  6  1  0
  6  7  2  0
  7  8  1  0
  8  9  2  0
  9 10  1  0
 10 11  2  0
 11 12  1  0
 12 13  1  0
 12 14  2  0
 11 15  1  0
 15 16  1  0
 16 17  2  0
 16 18  1  0
 18 19  1  0
 19 20  1  0
 20 21  2  0
 20 22  1  0
 15 23  1  0
 23 24  2  0
 24  6  1  0
 23  9  1  0
  1 25  1  0
  1 26  1  0
  1 27  1  0
  2 28  1  6
  7 29  1  0
  8 30  1  0
 10 31  1  0
 13 32  1  0
 13 33  1  0
 19 34  1  0
 19 35  1  0
 24 36  1  0
M  CHG  2   5  -1  22  -1
M  END
>  <UniqueID>  (81) 
80

>  <SMILES>  (81) 
C[C@@H](C(=O)[O-])c1ccc2cc(C(N)=O)n(C(=O)OCC(=O)[O-])c2c1

>  <Energy>  (81) 
71.14375812893607

>  <Genealogy>  (81) 
CC(C(=O)[O-])c1ccc2cc(C(N)=O)n(C(=O)OCC(=O)[O-])c2c1 (protonated)
C[C@@H](C(=O)[O-])c1ccc2cc(C(N)=O)n(C(=O)OCC(=O)[O-])c2c1 (chirality)
C[C@@H](C(=O)[O-])c1ccc2cc(C(N)=O)n(C(=O)OCC(=O)[O-])c2c1 (3D coordinates assigned)
C[C@@H](C(=O)[O-])c1ccc2cc(C(N)=O)n(C(=O)OCC(=O)[O-])c2c1 (optimized conformer: 71.14375812893607 kcal/mol)

>  <smiles>  (81) 
CC(C(=O)O)c1ccc2cc(C(N)=O)n(C(=O)OCC(=O)O)c2c1

>  <score_type>  (81) 
oracle

>  <origin>  (81) 
adg

>  <m_score__min__energy>  (81) 
-6.96

>  <m_primary>  (81) 
energy

$$$$
81:0
     RDKit          3D

 51 54  0  0  0  0  0  0  0  0999 V2000
  142.5810  159.9680  134.3360 C   0  0  0  0  0  0  0  0  0  0  0  0
  143.9540  159.5830  133.8270 C   0  0  0  0  0  0  0  0  0  0  0  0
  144.2310  158.2330  133.4440 C   0  0  0  0  0  0  0  0  0  0  0  0
  143.1840  157.1870  133.4030 C   0  0  0  0  0  0  0  0  0  0  0  0
  141.8130  157.5490  133.4080 C   0  0  0  0  0  0  0  0  0  0  0  0
  140.8110  156.5630  133.3810 C   0  0  0  0  0  0  0  0  0  0  0  0
  141.2090  155.2290  133.3480 C   0  0  0  0  0  0  0  0  0  0  0  0
  140.4570  154.0740  133.3300 C   0  0  0  0  0  0  0  0  0  0  0  0
  141.3840  153.0310  133.3130 C   0  0  0  0  0  0  0  0  0  0  0  0
  141.0130  151.6010  133.2540 C   0  0  0  0  0  0  0  0  0  0  0  0
  140.3350  151.0640  132.1200 N   0  0  0  0  0  0  0  0  0  0  0  0
  141.2820  150.8450  134.2260 O   0  0  0  0  0  0  0  0  0  0  0  0
  142.6520  153.5240  133.3150 N   0  0  0  0  0  0  0  0  0  0  0  0
  143.8830  152.7910  133.3500 C   0  0  0  0  0  0  0  0  0  0  0  0
  143.9370  151.6560  132.8020 O   0  0  0  0  0  0  0  0  0  0  0  0
  145.0470  153.3380  134.0030 N   0  0  0  0  0  0  0  0  0  0  0  0
  146.3350  153.3520  133.3040 C   0  0  0  0  0  0  0  0  0  0  0  0
  144.9770  153.7560  135.4080 C   0  0  0  0  0  0  0  0  0  0  0  0
  146.3410  154.1170  135.9050 C   0  0  0  0  0  0  0  0  0  0  0  0
  146.8570  155.2220  135.5930 O   0  0  0  0  0  0  0  0  0  0  0  0
  147.0270  153.2490  136.7450 O   0  0  0  0  0  0  0  0  0  0  0  0
  142.5300  154.8660  133.3440 C   0  0  0  0  0  0  0  0  0  0  0  0
  143.5480  155.8220  133.3890 C   0  0  0  0  0  0  0  0  0  0  0  0
  145.5410  157.8790  133.0760 C   0  0  0  0  0  0  0  0  0  0  0  0
  146.4950  158.8370  133.0680 N   0  0  0  0  0  0  0  0  0  0  0  0
  147.8010  158.7350  132.7710 C   0  0  0  0  0  0  0  0  0  0  0  0
  148.3550  159.9960  132.9100 C   0  0  0  0  0  0  0  0  0  0  0  0
  147.3920  160.8650  133.2870 N   0  0  0  0  0  0  0  0  0  0  0  0
  146.2660  160.1240  133.3690 C   0  0  0  0  0  0  0  0  0  0  0  0
  144.9810  160.5680  133.7250 C   0  0  0  0  0  0  0  0  0  0  0  0
  144.7340  162.0230  134.0410 C   0  0  0  0  0  0  0  0  0  0  0  0
  142.5842  159.9671  135.4360 H   0  0  0  0  0  0  0  0  0  0  0  0
  142.3231  160.9731  133.9709 H   0  0  0  0  0  0  0  0  0  0  0  0
  141.8381  159.2435  133.9709 H   0  0  0  0  0  0  0  0  0  0  0  0
  141.5305  158.6118  133.4333 H   0  0  0  0  0  0  0  0  0  0  0  0
  139.7457  156.8369  133.3858 H   0  0  0  0  0  0  0  0  0  0  0  0
  139.3601  153.9919  133.3292 H   0  0  0  0  0  0  0  0  0  0  0  0
  139.8690  151.6900  131.4270 H   0  0  0  0  0  0  0  0  0  0  0  0
  147.1519  153.3609  134.0406 H   0  0  0  0  0  0  0  0  0  0  0  0
  146.4197  152.4547  132.6734 H   0  0  0  0  0  0  0  0  0  0  0  0
  146.4002  154.2509  132.6734 H   0  0  0  0  0  0  0  0  0  0  0  0
  144.3148  154.6300  135.4951 H   0  0  0  0  0  0  0  0  0  0  0  0
  144.5818  152.9257  136.0116 H   0  0  0  0  0  0  0  0  0  0  0  0
  144.6054  155.5197  133.4129 H   0  0  0  0  0  0  0  0  0  0  0  0
  145.7850  156.8425  132.7999 H   0  0  0  0  0  0  0  0  0  0  0  0
  148.3320  157.8190  132.4726 H   0  0  0  0  0  0  0  0  0  0  0  0
  149.4117  160.2500  132.7404 H   0  0  0  0  0  0  0  0  0  0  0  0
  147.5190  161.8820  133.4810 H   0  0  0  0  0  0  0  0  0  0  0  0
  144.7103  162.1624  135.1319 H   0  0  0  0  0  0  0  0  0  0  0  0
  145.5413  162.6338  133.6107 H   0  0  0  0  0  0  0  0  0  0  0  0
  143.7703  162.3332  133.6107 H   0  0  0  0  0  0  0  0  0  0  0  0
  1  2  1  0
  2  3  1  0
  3  4  1  0
  4  5  2  0
  5  6  1  0
  6  7  2  0
  7  8  1  0
  8  9  2  0
  9 10  1  0
 10 11  1  0
 10 12  2  0
  9 13  1  0
 13 14  1  0
 14 15  2  0
 14 16  1  0
 16 17  1  0
 16 18  1  0
 18 19  1  0
 19 20  2  0
 19 21  1  0
 13 22  1  0
 22 23  2  0
  3 24  2  0
 24 25  1  0
 25 26  1  0
 26 27  2  0
 27 28  1  0
 28 29  2  0
 29 30  1  0
 30 31  1  0
 30  2  2  0
 23  4  1  0
 29 25  1  0
 22  7  1  0
  1 32  1  0
  1 33  1  0
  1 34  1  0
  5 35  1  0
  6 36  1  0
  8 37  1  0
 11 38  1  0
 17 39  1  0
 17 40  1  0
 17 41  1  0
 18 42  1  0
 18 43  1  0
 23 44  1  0
 24 45  1  0
 26 46  1  0
 27 47  1  0
 28 48  1  0
 31 49  1  0
 31 50  1  0
 31 51  1  0
M  CHG  3  11  -1  21  -1  28   1
M  END
>  <UniqueID>  (82) 
81

>  <SMILES>  (82) 
Cc1c(-c2ccc3cc(C([NH-])=O)n(C(=O)N(C)CC(=O)[O-])c3c2)cn2cc[nH+]c2c1C

>  <Energy>  (82) 
135.9362764364082

>  <Genealogy>  (82) 
Cc1c(-c2ccc3cc(C([NH-])=O)n(C(=O)N(C)CC(=O)[O-])c3c2)cn2cc[nH+]c2c1C (protonated)
Cc1c(-c2ccc3cc(C([NH-])=O)n(C(=O)N(C)CC(=O)[O-])c3c2)cn2cc[nH+]c2c1C (3D coordinates assigned)
Cc1c(-c2ccc3cc(C([NH-])=O)n(C(=O)N(C)CC(=O)[O-])c3c2)cn2cc[nH+]c2c1C (optimized conformer: 135.9362764364082 kcal/mol)

>  <smiles>  (82) 
Cc1c(-c2ccc3cc(C(N)=O)n(C(=O)N(C)CC(=O)O)c3c2)cn2ccnc2c1C

>  <score_type>  (82) 
oracle

>  <origin>  (82) 
adg

>  <m_score__min__energy>  (82) 
-8.4399999999999995

>  <m_primary>  (82) 
energy

$$$$
82:0
     RDKit          3D

 47 48  0  0  0  0  0  0  0  0999 V2000
  141.3060  160.0040  134.7990 C   0  0  0  0  0  0  0  0  0  0  0  0
  140.7510  159.0620  135.7780 N   0  0  0  0  0  0  0  0  0  0  0  0
  141.3050  159.0060  137.1350 C   0  0  0  0  0  0  0  0  0  0  0  0
  139.6420  158.1970  135.4420 C   0  0  0  0  0  0  0  0  0  0  0  0
  139.1170  157.4810  136.3400 O   0  0  0  0  0  0  0  0  0  0  0  0
  139.0540  158.1400  134.0540 C   0  0  0  0  0  0  0  0  0  0  0  0
  139.3570  156.8700  133.3930 N   0  0  0  0  0  0  0  0  0  0  0  0
  140.6550  156.2460  133.3590 C   0  0  0  0  0  0  0  0  0  0  0  0
  140.7350  154.8340  133.2760 C   0  0  0  0  0  0  0  0  0  0  0  0
  141.9780  154.1780  133.2630 C   0  0  0  0  0  0  0  0  0  0  0  0
  143.1260  154.9600  133.3280 C   0  0  0  0  0  0  0  0  0  0  0  0
  144.4530  154.5920  133.3190 C   0  0  0  0  0  0  0  0  0  0  0  0
  145.1650  155.7880  133.3960 C   0  0  0  0  0  0  0  0  0  0  0  0
  146.6330  155.8670  133.3010 C   0  0  0  0  0  0  0  0  0  0  0  0
  147.2650  156.4600  132.1690 N   0  0  0  0  0  0  0  0  0  0  0  0
  147.3390  155.4430  134.2530 O   0  0  0  0  0  0  0  0  0  0  0  0
  144.3150  156.8520  133.4350 N   0  0  0  0  0  0  0  0  0  0  0  0
  144.6450  158.2400  133.2830 C   0  0  0  0  0  0  0  0  0  0  0  0
  143.8500  159.1310  133.6870 O   0  0  0  0  0  0  0  0  0  0  0  0
  145.8570  158.5940  132.6850 O   0  0  0  0  0  0  0  0  0  0  0  0
  146.5600  159.7890  133.0130 C   0  0  0  0  0  0  0  0  0  0  0  0
  148.0370  159.4790  133.2520 C   0  0  0  0  0  0  0  0  0  0  0  0
  148.7880  159.4120  131.9590 C   0  0  0  0  0  0  0  0  0  0  0  0
  148.5320  158.3530  131.0410 N   0  0  0  0  0  0  0  0  0  0  0  0
  149.6800  160.2620  131.7020 O   0  0  0  0  0  0  0  0  0  0  0  0
  143.0730  156.3260  133.3920 C   0  0  0  0  0  0  0  0  0  0  0  0
  141.8510  157.0060  133.4210 C   0  0  0  0  0  0  0  0  0  0  0  0
  141.7958  160.8354  135.3270 H   0  0  0  0  0  0  0  0  0  0  0  0
  142.0429  159.4854  134.1681 H   0  0  0  0  0  0  0  0  0  0  0  0
  140.4952  160.3972  134.1681 H   0  0  0  0  0  0  0  0  0  0  0  0
  140.4889  159.0885  137.8679 H   0  0  0  0  0  0  0  0  0  0  0  0
  141.8304  158.0502  137.2774 H   0  0  0  0  0  0  0  0  0  0  0  0
  142.0111  159.8373  137.2774 H   0  0  0  0  0  0  0  0  0  0  0  0
  137.9622  158.2547  134.1237 H   0  0  0  0  0  0  0  0  0  0  0  0
  139.4968  158.9522  133.4588 H   0  0  0  0  0  0  0  0  0  0  0  0
  138.5500  156.3470  132.9850 H   0  0  0  0  0  0  0  0  0  0  0  0
  139.8097  154.2417  133.2209 H   0  0  0  0  0  0  0  0  0  0  0  0
  142.0406  153.0814  133.2033 H   0  0  0  0  0  0  0  0  0  0  0  0
  144.8632  153.5729  133.2631 H   0  0  0  0  0  0  0  0  0  0  0  0
  146.7100  157.0100  131.4770 H   0  0  0  0  0  0  0  0  0  0  0  0
  148.3040  156.4280  132.0760 H   0  0  0  0  0  0  0  0  0  0  0  0
  146.4680  160.5050  132.1830 H   0  0  0  0  0  0  0  0  0  0  0  0
  146.1295  160.2209  133.9285 H   0  0  0  0  0  0  0  0  0  0  0  0
  148.4731  160.2694  133.8806 H   0  0  0  0  0  0  0  0  0  0  0  0
  148.1132  158.5022  133.7521 H   0  0  0  0  0  0  0  0  0  0  0  0
  149.1010  157.4770  131.0580 H   0  0  0  0  0  0  0  0  0  0  0  0
  141.8183  158.1033  133.4902 H   0  0  0  0  0  0  0  0  0  0  0  0
  1  2  1  0
  2  3  1  0
  2  4  1  0
  4  5  2  0
  4  6  1  0
  6  7  1  0
  7  8  1  0
  8  9  2  0
  9 10  1  0
 10 11  2  0
 11 12  1  0
 12 13  2  0
 13 14  1  0
 14 15  1  0
 14 16  2  0
 13 17  1  0
 17 18  1  0
 18 19  2  0
 18 20  1  0
 20 21  1  0
 21 22  1  0
 22 23  1  0
 23 24  1  0
 23 25  2  0
 17 26  1  0
 26 27  2  0
 27  8  1  0
 26 11  1  0
  1 28  1  0
  1 29  1  0
  1 30  1  0
  3 31  1  0
  3 32  1  0
  3 33  1  0
  6 34  1  0
  6 35  1  0
  7 36  1  0
  9 37  1  0
 10 38  1  0
 12 39  1  0
 15 40  1  0
 15 41  1  0
 21 42  1  0
 21 43  1  0
 22 44  1  0
 22 45  1  0
 24 46  1  0
 27 47  1  0
M  CHG  1  24  -1
M  END
>  <UniqueID>  (83) 
82

>  <SMILES>  (83) 
CN(C)C(=O)CNc1ccc2cc(C(N)=O)n(C(=O)OCCC([NH-])=O)c2c1

>  <Energy>  (83) 
79.10541629751343

>  <Genealogy>  (83) 
CN(C)C(=O)CNc1ccc2cc(C(N)=O)n(C(=O)OCCC([NH-])=O)c2c1 (protonated)
CN(C)C(=O)CNc1ccc2cc(C(N)=O)n(C(=O)OCCC([NH-])=O)c2c1 (3D coordinates assigned)
CN(C)C(=O)CNc1ccc2cc(C(N)=O)n(C(=O)OCCC([NH-])=O)c2c1 (optimized conformer: 79.10541629751343 kcal/mol)

>  <smiles>  (83) 
CN(C)C(=O)CNc1ccc2cc(C(N)=O)n(C(=O)OCCC(N)=O)c2c1

>  <score_type>  (83) 
oracle

>  <origin>  (83) 
adg

>  <m_score__min__energy>  (83) 
-7.3700000000000001

>  <m_primary>  (83) 
energy

$$$$
83:0
     RDKit          3D

 40 42  0  0  0  0  0  0  0  0999 V2000
  149.6880  152.0960  132.3420 C   0  0  0  0  0  0  0  0  0  0  0  0
  148.7260  153.1710  132.5320 N   0  0  0  0  0  0  0  0  0  0  0  0
  147.4400  152.9860  132.7740 N   0  0  0  0  0  0  0  0  0  0  0  0
  146.8680  154.1640  132.9650 N   0  0  0  0  0  0  0  0  0  0  0  0
  147.8680  155.0630  132.8410 C   0  0  0  0  0  0  0  0  0  0  0  0
  147.7010  156.5230  132.9840 C   0  0  0  0  0  0  0  0  0  0  0  0
  148.8170  157.3880  132.8440 C   0  0  0  0  0  0  0  0  0  0  0  0
  148.6660  158.7810  132.9630 C   0  0  0  0  0  0  0  0  0  0  0  0
  147.3940  159.2780  133.2310 C   0  0  0  0  0  0  0  0  0  0  0  0
  146.9620  160.5790  133.3620 C   0  0  0  0  0  0  0  0  0  0  0  0
  145.5930  160.4900  133.6040 C   0  0  0  0  0  0  0  0  0  0  0  0
  144.7350  161.6600  133.8810 C   0  0  0  0  0  0  0  0  0  0  0  0
  143.3200  161.5530  133.7320 N   0  0  0  0  0  0  0  0  0  0  0  0
  145.2370  162.7650  134.2150 O   0  0  0  0  0  0  0  0  0  0  0  0
  145.1950  159.1870  133.6180 N   0  0  0  0  0  0  0  0  0  0  0  0
  143.8600  158.6760  133.7560 C   0  0  0  0  0  0  0  0  0  0  0  0
  143.2760  158.7440  134.8710 O   0  0  0  0  0  0  0  0  0  0  0  0
  143.2280  158.0830  132.6570 O   0  0  0  0  0  0  0  0  0  0  0  0
  142.2890  157.0140  132.7650 C   0  0  0  0  0  0  0  0  0  0  0  0
  140.8790  157.5440  133.0490 C   0  0  0  0  0  0  0  0  0  0  0  0
  140.6360  158.9290  132.4490 C   0  0  0  0  0  0  0  0  0  0  0  0
  141.0950  159.9090  133.3380 O   0  0  0  0  0  0  0  0  0  0  0  0
  146.3090  158.4580  133.3880 C   0  0  0  0  0  0  0  0  0  0  0  0
  146.4250  157.0690  133.2560 C   0  0  0  0  0  0  0  0  0  0  0  0
  149.0410  154.4530  132.5780 N   0  0  0  0  0  0  0  0  0  0  0  0
  150.0207  151.7242  133.3223 H   0  0  0  0  0  0  0  0  0  0  0  0
  149.2160  151.2766  131.7800 H   0  0  0  0  0  0  0  0  0  0  0  0
  150.5546  152.4745  131.7800 H   0  0  0  0  0  0  0  0  0  0  0  0
  149.8114  156.9642  132.6401 H   0  0  0  0  0  0  0  0  0  0  0  0
  149.5263  159.4567  132.8479 H   0  0  0  0  0  0  0  0  0  0  0  0
  147.5688  161.4937  133.2907 H   0  0  0  0  0  0  0  0  0  0  0  0
  142.8120  160.6950  134.0380 H   0  0  0  0  0  0  0  0  0  0  0  0
  142.2772  156.4496  131.8209 H   0  0  0  0  0  0  0  0  0  0  0  0
  142.5929  156.3653  133.5998 H   0  0  0  0  0  0  0  0  0  0  0  0
  140.1470  156.8425  132.6222 H   0  0  0  0  0  0  0  0  0  0  0  0
  140.7711  157.6316  134.1402 H   0  0  0  0  0  0  0  0  0  0  0  0
  141.1777  159.0159  131.4956 H   0  0  0  0  0  0  0  0  0  0  0  0
  139.5593  159.0688  132.2725 H   0  0  0  0  0  0  0  0  0  0  0  0
  142.0810  159.7980  133.3830 H   0  0  0  0  0  0  0  0  0  0  0  0
  145.5447  156.4179  133.3613 H   0  0  0  0  0  0  0  0  0  0  0  0
  1  2  1  0
  2  3  1  0
  3  4  2  0
  4  5  1  0
  5  6  1  0
  6  7  2  0
  7  8  1  0
  8  9  2  0
  9 10  1  0
 10 11  2  0
 11 12  1  0
 12 13  1  0
 12 14  2  0
 11 15  1  0
 15 16  1  0
 16 17  2  0
 16 18  1  0
 18 19  1  0
 19 20  1  0
 20 21  1  0
 21 22  1  0
 15 23  1  0
 23 24  2  0
  5 25  2  0
 25  2  1  0
 24  6  1  0
 23  9  1  0
  1 26  1  0
  1 27  1  0
  1 28  1  0
  7 29  1  0
  8 30  1  0
 10 31  1  0
 13 32  1  0
 19 33  1  0
 19 34  1  0
 20 35  1  0
 20 36  1  0
 21 37  1  0
 21 38  1  0
 22 39  1  0
 24 40  1  0
M  CHG  1  13  -1
M  END
>  <UniqueID>  (84) 
83

>  <SMILES>  (84) 
Cn1nnc(-c2ccc3cc(C([NH-])=O)n(C(=O)OCCCO)c3c2)n1

>  <Energy>  (84) 
113.34937418602584

>  <Genealogy>  (84) 
Cn1nnc(-c2ccc3cc(C([NH-])=O)n(C(=O)OCCCO)c3c2)n1 (protonated)
Cn1nnc(-c2ccc3cc(C([NH-])=O)n(C(=O)OCCCO)c3c2)n1 (3D coordinates assigned)
Cn1nnc(-c2ccc3cc(C([NH-])=O)n(C(=O)OCCCO)c3c2)n1 (optimized conformer: 113.34937418602584 kcal/mol)

>  <smiles>  (84) 
Cn1nnc(-c2ccc3cc(C(N)=O)n(C(=O)OCCCO)c3c2)n1

>  <score_type>  (84) 
oracle

>  <origin>  (84) 
adg

>  <m_score__min__energy>  (84) 
-6.8399999999999999

>  <m_primary>  (84) 
energy

$$$$
84:0
     RDKit          3D

 44 45  0  0  0  0  0  0  0  0999 V2000
  140.4180  158.6150  134.7240 C   0  0  0  0  0  0  0  0  0  0  0  0
  140.5190  158.5320  133.1890 C   0  0  0  0  0  0  0  0  0  0  0  0
  139.5090  157.5120  132.6300 C   0  0  0  0  0  0  0  0  0  0  0  0
  140.2120  159.9140  132.5930 C   0  0  0  0  0  0  0  0  0  0  0  0
  141.8550  158.1900  132.7900 O   0  0  0  0  0  0  0  0  0  0  0  0
  143.0470  158.6580  133.3630 C   0  0  0  0  0  0  0  0  0  0  0  0
  143.1560  159.8660  133.6990 O   0  0  0  0  0  0  0  0  0  0  0  0
  144.1620  157.7560  133.5250 N   0  0  0  0  0  0  0  0  0  0  0  0
  144.1400  156.4970  134.0520 C   0  0  0  0  0  0  0  0  0  0  0  0
  142.9370  155.7320  134.4200 C   0  0  0  0  0  0  0  0  0  0  0  0
  141.8410  155.6180  133.5130 N   0  0  0  0  0  0  0  0  0  0  0  0
  142.9070  155.1120  135.5150 O   0  0  0  0  0  0  0  0  0  0  0  0
  145.4290  156.0120  134.2400 C   0  0  0  0  0  0  0  0  0  0  0  0
  146.2600  157.0070  133.7820 C   0  0  0  0  0  0  0  0  0  0  0  0
  147.6490  157.0500  133.7230 C   0  0  0  0  0  0  0  0  0  0  0  0
  148.2510  158.2020  133.1910 C   0  0  0  0  0  0  0  0  0  0  0  0
  147.4580  159.2750  132.7140 C   0  0  0  0  0  0  0  0  0  0  0  0
  148.1120  160.5100  132.1510 C   0  0  0  0  0  0  0  0  0  0  0  0
  149.4100  160.1810  131.4000 C   0  0  0  0  0  0  0  0  0  0  0  0
  149.5410  160.9640  130.0940 C   0  0  0  0  0  0  0  0  0  0  0  0
  149.5670  162.3200  130.3680 F   0  0  0  0  0  0  0  0  0  0  0  0
  146.0510  159.1960  132.7910 C   0  0  0  0  0  0  0  0  0  0  0  0
  145.4740  158.0460  133.3500 C   0  0  0  0  0  0  0  0  0  0  0  0
  141.1923  157.9786  135.1773 H   0  0  0  0  0  0  0  0  0  0  0  0
  140.5651  159.6567  135.0453 H   0  0  0  0  0  0  0  0  0  0  0  0
  139.4245  158.2690  135.0453 H   0  0  0  0  0  0  0  0  0  0  0  0
  139.0038  157.0018  133.4634 H   0  0  0  0  0  0  0  0  0  0  0  0
  138.7628  158.0349  132.0137 H   0  0  0  0  0  0  0  0  0  0  0  0
  140.0392  156.7710  132.0137 H   0  0  0  0  0  0  0  0  0  0  0  0
  140.0515  160.6367  133.4066 H   0  0  0  0  0  0  0  0  0  0  0  0
  141.0591  160.2423  131.9728 H   0  0  0  0  0  0  0  0  0  0  0  0
  139.3056  159.8527  131.9728 H   0  0  0  0  0  0  0  0  0  0  0  0
  141.9000  156.0200  132.5510 H   0  0  0  0  0  0  0  0  0  0  0  0
  140.9860  155.0830  133.7850 H   0  0  0  0  0  0  0  0  0  0  0  0
  145.7216  155.0402  134.6643 H   0  0  0  0  0  0  0  0  0  0  0  0
  148.2577  156.2071  134.0822 H   0  0  0  0  0  0  0  0  0  0  0  0
  149.3478  158.2719  133.1442 H   0  0  0  0  0  0  0  0  0  0  0  0
  147.4126  160.9966  131.4553 H   0  0  0  0  0  0  0  0  0  0  0  0
  148.3640  161.1743  132.9908 H   0  0  0  0  0  0  0  0  0  0  0  0
  150.2648  160.4273  132.0470 H   0  0  0  0  0  0  0  0  0  0  0  0
  149.3905  159.1102  131.1490 H   0  0  0  0  0  0  0  0  0  0  0  0
  150.4726  160.6751  129.5855 H   0  0  0  0  0  0  0  0  0  0  0  0
  148.6825  160.7383  129.4443 H   0  0  0  0  0  0  0  0  0  0  0  0
  145.4207  160.0180  132.4208 H   0  0  0  0  0  0  0  0  0  0  0  0
  1  2  1  0
  2  3  1  0
  2  4  1  0
  2  5  1  0
  5  6  1  0
  6  7  2  0
  6  8  1  0
  8  9  1  0
  9 10  1  0
 10 11  1  0
 10 12  2  0
  9 13  2  0
 13 14  1  0
 14 15  2  0
 15 16  1  0
 16 17  2  0
 17 18  1  0
 18 19  1  0
 19 20  1  0
 20 21  1  0
 17 22  1  0
 22 23  2  0
 23  8  1  0
 23 14  1  0
  1 24  1  0
  1 25  1  0
  1 26  1  0
  3 27  1  0
  3 28  1  0
  3 29  1  0
  4 30  1  0
  4 31  1  0
  4 32  1  0
 11 33  1  0
 11 34  1  0
 13 35  1  0
 15 36  1  0
 16 37  1  0
 18 38  1  0
 18 39  1  0
 19 40  1  0
 19 41  1  0
 20 42  1  0
 20 43  1  0
 22 44  1  0
M  END
>  <UniqueID>  (85) 
84

>  <SMILES>  (85) 
CC(C)(C)OC(=O)n1c(C(N)=O)cc2ccc(CCCF)cc21

>  <Energy>  (85) 
75.6061531881498

>  <Genealogy>  (85) 
CC(C)(C)OC(=O)n1c(C(N)=O)cc2ccc(CCCF)cc21 (3D coordinates assigned)
CC(C)(C)OC(=O)n1c(C(N)=O)cc2ccc(CCCF)cc21 (optimized conformer: 75.6061531881498 kcal/mol)

>  <smiles>  (85) 
CC(C)(C)OC(=O)n1c(C(N)=O)cc2ccc(CCCF)cc21

>  <score_type>  (85) 
oracle

>  <origin>  (85) 
adg

>  <m_score__min__energy>  (85) 
-7.1100000000000003

>  <m_primary>  (85) 
energy

$$$$
85:0
     RDKit          3D

 51 52  0  0  0  0  0  0  0  0999 V2000
  143.8290  155.0580  134.0580 C   0  0  0  0  0  0  0  0  0  0  0  0
  143.0530  156.3020  134.1080 N   0  0  0  0  0  0  0  0  0  0  0  0
  141.9580  156.4200  135.0800 C   0  0  0  0  0  0  0  0  0  0  0  0
  140.6570  156.7090  134.3750 C   0  0  0  0  0  0  0  0  0  0  0  0
  139.9400  155.7710  134.0530 O   0  0  0  0  0  0  0  0  0  0  0  0
  140.2630  158.0760  134.0790 N   0  0  2  0  0  0  0  0  0  0  0  0
  140.2100  158.8970  135.3010 C   0  0  0  0  0  0  0  0  0  0  0  0
  139.0220  158.1360  133.2660 C   0  0  0  0  0  0  0  0  0  0  0  0
  138.9090  159.3460  132.2960 C   0  0  1  0  0  0  0  0  0  0  0  0
  139.7740  160.3850  132.6790 O   0  0  0  0  0  0  0  0  0  0  0  0
  139.2170  158.9280  130.8470 C   0  0  0  0  0  0  0  0  0  0  0  0
  140.5960  159.0110  130.5920 O   0  0  0  0  0  0  0  0  0  0  0  0
  143.2910  157.3340  133.1270 C   0  0  0  0  0  0  0  0  0  0  0  0
  142.4880  157.5040  132.1700 O   0  0  0  0  0  0  0  0  0  0  0  0
  144.4660  158.1540  133.2000 N   0  0  0  0  0  0  0  0  0  0  0  0
  144.5390  159.4980  133.4090 C   0  0  0  0  0  0  0  0  0  0  0  0
  143.3900  160.4230  133.4960 C   0  0  0  0  0  0  0  0  0  0  0  0
  142.0670  159.9770  133.2070 N   0  0  0  0  0  0  0  0  0  0  0  0
  143.5790  161.6290  133.8080 O   0  0  0  0  0  0  0  0  0  0  0  0
  145.8720  159.9030  133.4880 C   0  0  0  0  0  0  0  0  0  0  0  0
  146.6140  158.7540  133.3100 C   0  0  0  0  0  0  0  0  0  0  0  0
  147.9930  158.5650  133.2960 C   0  0  0  0  0  0  0  0  0  0  0  0
  148.4780  157.2610  133.0940 C   0  0  0  0  0  0  0  0  0  0  0  0
  147.5810  156.1780  132.9160 C   0  0  0  0  0  0  0  0  0  0  0  0
  148.1050  154.7950  132.6700 C   0  0  0  0  0  0  0  0  0  0  0  0
  149.4870  154.8200  132.6570 F   0  0  0  0  0  0  0  0  0  0  0  0
  146.1890  156.4130  132.9110 C   0  0  0  0  0  0  0  0  0  0  0  0
  145.7390  157.7170  133.1280 C   0  0  0  0  0  0  0  0  0  0  0  0
  144.0417  154.7171  135.0820 H   0  0  0  0  0  0  0  0  0  0  0  0
  143.2516  154.2867  133.5273 H   0  0  0  0  0  0  0  0  0  0  0  0
  144.7756  155.2374  133.5273 H   0  0  0  0  0  0  0  0  0  0  0  0
  141.8658  155.4766  135.6381 H   0  0  0  0  0  0  0  0  0  0  0  0
  142.1812  157.2475  135.7696 H   0  0  0  0  0  0  0  0  0  0  0  0
  141.0150  158.4990  133.4850 H   0  0  0  0  0  0  0  0  0  0  0  0
  140.2522  158.2428  136.1843 H   0  0  0  0  0  0  0  0  0  0  0  0
  141.0654  159.5885  135.3156 H   0  0  0  0  0  0  0  0  0  0  0  0
  139.2728  159.4728  135.3156 H   0  0  0  0  0  0  0  0  0  0  0  0
  138.9662  157.2156  132.6661 H   0  0  0  0  0  0  0  0  0  0  0  0
  138.1977  158.2505  133.9853 H   0  0  0  0  0  0  0  0  0  0  0  0
  137.8717  159.7083  132.3485 H   0  0  0  0  0  0  0  0  0  0  0  0
  140.6840  160.1540  132.3570 H   0  0  0  0  0  0  0  0  0  0  0  0
  138.8819  157.8920  130.6904 H   0  0  0  0  0  0  0  0  0  0  0  0
  138.6877  159.6063  130.1616 H   0  0  0  0  0  0  0  0  0  0  0  0
  141.0560  159.0490  131.4710 H   0  0  0  0  0  0  0  0  0  0  0  0
  141.8290  159.5700  132.2750 H   0  0  0  0  0  0  0  0  0  0  0  0
  146.2506  160.9220  133.6564 H   0  0  0  0  0  0  0  0  0  0  0  0
  148.6823  159.4103  133.4387 H   0  0  0  0  0  0  0  0  0  0  0  0
  149.5628  157.0796  133.0739 H   0  0  0  0  0  0  0  0  0  0  0  0
  147.7582  154.1241  133.4698 H   0  0  0  0  0  0  0  0  0  0  0  0
  147.7363  154.4311  131.6996 H   0  0  0  0  0  0  0  0  0  0  0  0
  145.4780  155.5911  132.7407 H   0  0  0  0  0  0  0  0  0  0  0  0
  1  2  1  0
  2  3  1  0
  3  4  1  0
  4  5  2  0
  4  6  1  0
  6  7  1  0
  6  8  1  0
  8  9  1  0
  9 10  1  0
  9 11  1  0
 11 12  1  0
  2 13  1  0
 13 14  2  0
 13 15  1  0
 15 16  1  0
 16 17  1  0
 17 18  1  0
 17 19  2  0
 16 20  2  0
 20 21  1  0
 21 22  2  0
 22 23  1  0
 23 24  2  0
 24 25  1  0
 25 26  1  0
 24 27  1  0
 27 28  2  0
 28 15  1  0
 28 21  1  0
  1 29  1  0
  1 30  1  0
  1 31  1  0
  3 32  1  0
  3 33  1  0
  6 34  1  6
  7 35  1  0
  7 36  1  0
  7 37  1  0
  8 38  1  0
  8 39  1  0
  9 40  1  6
 10 41  1  0
 11 42  1  0
 11 43  1  0
 12 44  1  0
 18 45  1  0
 20 46  1  0
 22 47  1  0
 23 48  1  0
 25 49  1  0
 25 50  1  0
 27 51  1  0
M  CHG  2   6   1  18  -1
M  END
>  <UniqueID>  (86) 
85

>  <SMILES>  (86) 
CN(CC(=O)[N@H+](C)C[C@@H](O)CO)C(=O)n1c(C([NH-])=O)cc2ccc(CF)cc21

>  <Energy>  (86) 
88.06700823257188

>  <Genealogy>  (86) 
CN(CC(=O)[NH+](C)CC(O)CO)C(=O)n1c(C([NH-])=O)cc2ccc(CF)cc21 (protonated)
CN(CC(=O)[N@H+](C)C[C@@H](O)CO)C(=O)n1c(C([NH-])=O)cc2ccc(CF)cc21 (chirality)
CN(CC(=O)[N@H+](C)C[C@@H](O)CO)C(=O)n1c(C([NH-])=O)cc2ccc(CF)cc21 (3D coordinates assigned)
CN(CC(=O)[N@H+](C)C[C@@H](O)CO)C(=O)n1c(C([NH-])=O)cc2ccc(CF)cc21 (optimized conformer: 88.06700823257188 kcal/mol)

>  <smiles>  (86) 
CN(CC(O)CO)C(=O)CN(C)C(=O)n1c(C(N)=O)cc2ccc(CF)cc21

>  <score_type>  (86) 
oracle

>  <origin>  (86) 
adg

>  <m_score__min__energy>  (86) 
-4.6799999999999997

>  <m_primary>  (86) 
energy

$$$$
86:0
     RDKit          3D

 35 37  0  0  0  0  0  0  0  0999 V2000
  149.5350  151.6540  132.8660 C   0  0  0  0  0  0  0  0  0  0  0  0
  148.3850  152.4800  132.9990 O   0  0  0  0  0  0  0  0  0  0  0  0
  148.3860  153.8360  132.6580 C   0  0  0  0  0  0  0  0  0  0  0  0
  149.4410  154.3820  132.2360 O   0  0  0  0  0  0  0  0  0  0  0  0
  147.1800  154.6070  132.7950 N   0  0  0  0  0  0  0  0  0  0  0  0
  145.9060  154.1340  132.8850 C   0  0  0  0  0  0  0  0  0  0  0  0
  145.4860  152.7330  132.6830 C   0  0  0  0  0  0  0  0  0  0  0  0
  146.2440  151.8450  131.8600 N   0  0  0  0  0  0  0  0  0  0  0  0
  144.4130  152.3270  133.2020 O   0  0  0  0  0  0  0  0  0  0  0  0
  145.0120  155.1690  133.1470 C   0  0  0  0  0  0  0  0  0  0  0  0
  145.7830  156.3070  133.2040 C   0  0  0  0  0  0  0  0  0  0  0  0
  145.4130  157.6240  133.4620 C   0  0  0  0  0  0  0  0  0  0  0  0
  146.4260  158.5960  133.5060 C   0  0  0  0  0  0  0  0  0  0  0  0
  147.7800  158.2370  133.2920 C   0  0  0  0  0  0  0  0  0  0  0  0
  148.8590  159.2750  133.4020 C   0  0  0  0  0  0  0  0  0  0  0  0
  149.1010  159.8800  132.0970 N   0  0  0  0  0  0  0  0  0  0  0  0
  149.8800  159.3940  131.1170 C   0  0  0  0  0  0  0  0  0  0  0  0
  149.7400  160.2530  130.0500 C   0  0  0  0  0  0  0  0  0  0  0  0
  148.8750  161.2250  130.4080 N   0  0  0  0  0  0  0  0  0  0  0  0
  148.4970  160.9700  131.6530 N   0  0  0  0  0  0  0  0  0  0  0  0
  148.1190  156.8880  133.0490 C   0  0  0  0  0  0  0  0  0  0  0  0
  147.0880  155.9430  132.9900 C   0  0  0  0  0  0  0  0  0  0  0  0
  149.9103  151.3845  133.8643 H   0  0  0  0  0  0  0  0  0  0  0  0
  149.2682  150.7398  132.3154 H   0  0  0  0  0  0  0  0  0  0  0  0
  150.3161  152.1988  132.3154 H   0  0  0  0  0  0  0  0  0  0  0  0
  145.9550  150.8470  131.7610 H   0  0  0  0  0  0  0  0  0  0  0  0
  147.0440  152.1920  131.2850 H   0  0  0  0  0  0  0  0  0  0  0  0
  143.9227  155.0930  133.2799 H   0  0  0  0  0  0  0  0  0  0  0  0
  144.3597  157.8951  133.6264 H   0  0  0  0  0  0  0  0  0  0  0  0
  146.1659  159.6455  133.7084 H   0  0  0  0  0  0  0  0  0  0  0  0
  148.5448  160.0538  134.1124 H   0  0  0  0  0  0  0  0  0  0  0  0
  149.7846  158.7988  133.7576 H   0  0  0  0  0  0  0  0  0  0  0  0
  150.5053  158.4899  131.1584 H   0  0  0  0  0  0  0  0  0  0  0  0
  150.2446  160.1628  129.0767 H   0  0  0  0  0  0  0  0  0  0  0  0
  149.1678  156.5870  132.9094 H   0  0  0  0  0  0  0  0  0  0  0  0
  1  2  1  0
  2  3  1  0
  3  4  2  0
  3  5  1  0
  5  6  1  0
  6  7  1  0
  7  8  1  0
  7  9  2  0
  6 10  2  0
 10 11  1  0
 11 12  2  0
 12 13  1  0
 13 14  2  0
 14 15  1  0
 15 16  1  0
 16 17  1  0
 17 18  2  0
 18 19  1  0
 19 20  2  0
 14 21  1  0
 21 22  2  0
 22  5  1  0
 22 11  1  0
 20 16  1  0
  1 23  1  0
  1 24  1  0
  1 25  1  0
  8 26  1  0
  8 27  1  0
 10 28  1  0
 12 29  1  0
 13 30  1  0
 15 31  1  0
 15 32  1  0
 17 33  1  0
 18 34  1  0
 21 35  1  0
M  END
>  <UniqueID>  (87) 
86

>  <SMILES>  (87) 
COC(=O)n1c(C(N)=O)cc2ccc(Cn3ccnn3)cc21

>  <Energy>  (87) 
107.3592006230445

>  <Genealogy>  (87) 
COC(=O)n1c(C(N)=O)cc2ccc(Cn3ccnn3)cc21 (3D coordinates assigned)
COC(=O)n1c(C(N)=O)cc2ccc(Cn3ccnn3)cc21 (optimized conformer: 107.3592006230445 kcal/mol)

>  <smiles>  (87) 
COC(=O)n1c(C(N)=O)cc2ccc(Cn3ccnn3)cc21

>  <score_type>  (87) 
oracle

>  <origin>  (87) 
adg

>  <m_score__min__energy>  (87) 
-7.3099999999999996

>  <m_primary>  (87) 
energy

$$$$
87:0
     RDKit          3D

 58 59  0  0  0  0  0  0  0  0999 V2000
  140.0290  159.3690  131.9750 C   0  0  0  0  0  0  0  0  0  0  0  0
  140.3820  158.6180  133.1850 N   0  0  0  0  0  0  0  0  0  0  0  0
  139.5150  157.5160  133.6260 C   0  0  0  0  0  0  0  0  0  0  0  0
  140.1800  156.1560  133.3870 C   0  0  0  0  0  0  0  0  0  0  0  0
  141.5200  156.3140  133.0090 O   0  0  0  0  0  0  0  0  0  0  0  0
  141.5000  159.0330  133.9980 C   0  0  0  0  0  0  0  0  0  0  0  0
  141.8150  158.3550  135.0160 O   0  0  0  0  0  0  0  0  0  0  0  0
  142.2590  160.3040  133.6970 C   0  0  0  0  0  0  0  0  0  0  0  0
  143.6020  160.4190  134.4440 C   0  0  0  0  0  0  0  0  0  0  0  0
  144.7790  160.8210  133.5370 C   0  0  0  0  0  0  0  0  0  0  0  0
  145.7800  159.7080  133.3640 C   0  0  0  0  0  0  0  0  0  0  0  0
  147.1600  160.0110  133.2500 C   0  0  0  0  0  0  0  0  0  0  0  0
  148.1110  158.9850  133.1400 C   0  0  0  0  0  0  0  0  0  0  0  0
  147.6570  157.6700  133.1500 C   0  0  0  0  0  0  0  0  0  0  0  0
  148.3600  156.4920  133.0460 C   0  0  0  0  0  0  0  0  0  0  0  0
  147.4000  155.4860  133.1070 C   0  0  0  0  0  0  0  0  0  0  0  0
  147.7300  154.0470  133.1010 C   0  0  0  0  0  0  0  0  0  0  0  0
  146.7450  153.0620  133.4190 N   0  0  0  0  0  0  0  0  0  0  0  0
  148.9120  153.6820  132.8640 O   0  0  0  0  0  0  0  0  0  0  0  0
  146.1520  156.0170  133.2280 N   0  0  0  0  0  0  0  0  0  0  0  0
  144.9000  155.3150  133.1870 C   0  0  0  0  0  0  0  0  0  0  0  0
  144.7040  154.4470  132.2940 O   0  0  0  0  0  0  0  0  0  0  0  0
  143.9100  155.6040  134.1370 O   0  0  0  0  0  0  0  0  0  0  0  0
  143.4340  154.7180  135.1610 C   0  0  0  0  0  0  0  0  0  0  0  0
  144.6110  154.1640  135.9890 C   0  0  0  0  0  0  0  0  0  0  0  0
  142.5220  155.5380  136.0840 C   0  0  0  0  0  0  0  0  0  0  0  0
  142.6130  153.5690  134.5440 C   0  0  0  0  0  0  0  0  0  0  0  0
  146.3250  157.3570  133.2590 C   0  0  0  0  0  0  0  0  0  0  0  0
  145.3530  158.3600  133.3540 C   0  0  0  0  0  0  0  0  0  0  0  0
  139.5770  160.3307  132.2592 H   0  0  0  0  0  0  0  0  0  0  0  0
  140.9355  159.5517  131.3793 H   0  0  0  0  0  0  0  0  0  0  0  0
  139.3099  158.7876  131.3793 H   0  0  0  0  0  0  0  0  0  0  0  0
  139.3084  157.6302  134.7004 H   0  0  0  0  0  0  0  0  0  0  0  0
  138.5819  157.5537  133.0448 H   0  0  0  0  0  0  0  0  0  0  0  0
  140.1345  155.5651  134.3137 H   0  0  0  0  0  0  0  0  0  0  0  0
  139.6445  155.6407  132.5760 H   0  0  0  0  0  0  0  0  0  0  0  0
  142.0170  156.5650  133.8320 H   0  0  0  0  0  0  0  0  0  0  0  0
  142.4593  160.3404  132.6160 H   0  0  0  0  0  0  0  0  0  0  0  0
  141.6307  161.1402  134.0375 H   0  0  0  0  0  0  0  0  0  0  0  0
  143.4968  161.1773  135.2339 H   0  0  0  0  0  0  0  0  0  0  0  0
  143.8324  159.4225  134.8489 H   0  0  0  0  0  0  0  0  0  0  0  0
  144.3841  161.0973  132.5482 H   0  0  0  0  0  0  0  0  0  0  0  0
  145.2969  161.6652  134.0157 H   0  0  0  0  0  0  0  0  0  0  0  0
  147.4887  161.0607  133.2477 H   0  0  0  0  0  0  0  0  0  0  0  0
  149.1831  159.2136  133.0486 H   0  0  0  0  0  0  0  0  0  0  0  0
  149.4480  156.3710  132.9378 H   0  0  0  0  0  0  0  0  0  0  0  0
  145.8070  153.3350  133.7870 H   0  0  0  0  0  0  0  0  0  0  0  0
  146.9850  152.0460  133.3690 H   0  0  0  0  0  0  0  0  0  0  0  0
  144.3870  154.2694  137.0608 H   0  0  0  0  0  0  0  0  0  0  0  0
  144.7603  153.1011  135.7484 H   0  0  0  0  0  0  0  0  0  0  0  0
  145.5253  154.7263  135.7484 H   0  0  0  0  0  0  0  0  0  0  0  0
  142.7679  155.3169  137.1331 H   0  0  0  0  0  0  0  0  0  0  0  0
  142.6728  156.6102  135.8902 H   0  0  0  0  0  0  0  0  0  0  0  0
  141.4718  155.2745  135.8902 H   0  0  0  0  0  0  0  0  0  0  0  0
  142.1763  152.9578  135.3476 H   0  0  0  0  0  0  0  0  0  0  0  0
  141.8076  153.9867  133.9220 H   0  0  0  0  0  0  0  0  0  0  0  0
  143.2691  152.9424  133.9220 H   0  0  0  0  0  0  0  0  0  0  0  0
  144.2847  158.1061  133.4192 H   0  0  0  0  0  0  0  0  0  0  0  0
  1  2  1  0
  2  3  1  0
  3  4  1  0
  4  5  1  0
  2  6  1  0
  6  7  2  0
  6  8  1  0
  8  9  1  0
  9 10  1  0
 10 11  1  0
 11 12  2  0
 12 13  1  0
 13 14  2  0
 14 15  1  0
 15 16  2  0
 16 17  1  0
 17 18  1  0
 17 19  2  0
 16 20  1  0
 20 21  1  0
 21 22  2  0
 21 23  1  0
 23 24  1  0
 24 25  1  0
 24 26  1  0
 24 27  1  0
 20 28  1  0
 28 29  2  0
 29 11  1  0
 28 14  1  0
  1 30  1  0
  1 31  1  0
  1 32  1  0
  3 33  1  0
  3 34  1  0
  4 35  1  0
  4 36  1  0
  5 37  1  0
  8 38  1  0
  8 39  1  0
  9 40  1  0
  9 41  1  0
 10 42  1  0
 10 43  1  0
 12 44  1  0
 13 45  1  0
 15 46  1  0
 18 47  1  0
 18 48  1  0
 25 49  1  0
 25 50  1  0
 25 51  1  0
 26 52  1  0
 26 53  1  0
 26 54  1  0
 27 55  1  0
 27 56  1  0
 27 57  1  0
 29 58  1  0
M  END
>  <UniqueID>  (88) 
87

>  <SMILES>  (88) 
CN(CCO)C(=O)CCCc1ccc2cc(C(N)=O)n(C(=O)OC(C)(C)C)c2c1

>  <Energy>  (88) 
80.36893480984274

>  <Genealogy>  (88) 
CN(CCO)C(=O)CCCc1ccc2cc(C(N)=O)n(C(=O)OC(C)(C)C)c2c1 (3D coordinates assigned)
CN(CCO)C(=O)CCCc1ccc2cc(C(N)=O)n(C(=O)OC(C)(C)C)c2c1 (optimized conformer: 80.36893480984274 kcal/mol)

>  <smiles>  (88) 
CN(CCO)C(=O)CCCc1ccc2cc(C(N)=O)n(C(=O)OC(C)(C)C)c2c1

>  <score_type>  (88) 
oracle

>  <origin>  (88) 
adg

>  <m_score__min__energy>  (88) 
-8.0099999999999998

>  <m_primary>  (88) 
energy

$$$$
88:0
     RDKit          3D

 37 38  0  0  0  0  0  0  0  0999 V2000
  145.4762  155.4778  135.6758 H   0  0  0  0  0  0  0  0  0  0  0  0
  146.3640  154.9660  135.2760 C   0  0  0  0  0  0  0  0  0  0  0  0
  147.2900  154.3150  136.2150 C   0  0  0  0  0  0  0  0  0  0  0  0
  148.3620  154.8830  136.5620 O   0  0  0  0  0  0  0  0  0  0  0  0
  146.9620  153.0240  136.7340 N   0  0  0  0  0  0  0  0  0  0  0  0
  147.6650  152.4270  137.8600 C   0  0  0  0  0  0  0  0  0  0  0  0
  147.2305  152.7960  138.8008 H   0  0  0  0  0  0  0  0  0  0  0  0
  147.5665  151.3323  137.8151 H   0  0  0  0  0  0  0  0  0  0  0  0
  148.7292  152.7015  137.8151 H   0  0  0  0  0  0  0  0  0  0  0  0
  146.5630  154.9580  133.9520 C   0  0  0  0  0  0  0  0  0  0  0  0
  147.4501  154.4448  133.5524 H   0  0  0  0  0  0  0  0  0  0  0  0
  145.6350  155.6130  133.0090 C   0  0  0  0  0  0  0  0  0  0  0  0
  145.1340  154.9620  132.0520 O   0  0  0  0  0  0  0  0  0  0  0  0
  145.3200  157.0070  133.1570 N   0  0  0  0  0  0  0  0  0  0  0  0
  144.1430  157.5450  133.5820 C   0  0  0  0  0  0  0  0  0  0  0  0
  142.8950  156.7970  133.8440 C   0  0  0  0  0  0  0  0  0  0  0  0
  142.1380  157.1690  134.7790 O   0  0  0  0  0  0  0  0  0  0  0  0
  142.5050  155.6930  133.0260 N   0  0  0  0  0  0  0  0  0  0  0  0
  143.0030  155.4770  132.1340 H   0  0  0  0  0  0  0  0  0  0  0  0
  141.6470  155.1460  133.2620 H   0  0  0  0  0  0  0  0  0  0  0  0
  144.2580  158.9250  133.7270 C   0  0  0  0  0  0  0  0  0  0  0  0
  143.4798  159.6285  134.0579 H   0  0  0  0  0  0  0  0  0  0  0  0
  145.5530  159.2210  133.3680 C   0  0  0  0  0  0  0  0  0  0  0  0
  146.2190  160.4420  133.3520 C   0  0  0  0  0  0  0  0  0  0  0  0
  145.6993  161.3745  133.6172 H   0  0  0  0  0  0  0  0  0  0  0  0
  147.5750  160.4480  132.9870 C   0  0  0  0  0  0  0  0  0  0  0  0
  148.1236  161.4009  132.9534 H   0  0  0  0  0  0  0  0  0  0  0  0
  148.2470  159.2420  132.6610 C   0  0  0  0  0  0  0  0  0  0  0  0
  149.6410  159.2910  132.3070 N   0  0  0  0  0  0  0  0  0  0  0  0
  150.3520  158.9990  133.0160 H   0  0  0  0  0  0  0  0  0  0  0  0
  150.1270  159.7370  131.0060 C   0  0  0  0  0  0  0  0  0  0  0  0
  150.9307  160.4745  131.1479 H   0  0  0  0  0  0  0  0  0  0  0  0
  150.5157  158.8747  130.4445 H   0  0  0  0  0  0  0  0  0  0  0  0
  149.3011  160.1981  130.4445 H   0  0  0  0  0  0  0  0  0  0  0  0
  147.5340  158.0180  132.6960 C   0  0  0  0  0  0  0  0  0  0  0  0
  148.0360  157.0676  132.4622 H   0  0  0  0  0  0  0  0  0  0  0  0
  146.1760  158.0460  133.0350 C   0  0  0  0  0  0  0  0  0  0  0  0
  1  2  1  0
  2  3  1  0
  3  4  2  0
  3  5  1  0
  5  6  1  0
  6  7  1  0
  6  8  1  0
  6  9  1  0
  2 10  2  0
 10 11  1  0
 10 12  1  0
 12 13  2  0
 12 14  1  0
 14 15  1  0
 15 16  1  0
 16 17  2  0
 16 18  1  0
 18 19  1  0
 18 20  1  0
 15 21  2  0
 21 22  1  0
 21 23  1  0
 23 24  2  0
 24 25  1  0
 24 26  1  0
 26 27  1  0
 26 28  2  0
 28 29  1  0
 29 30  1  0
 29 31  1  0
 31 32  1  0
 31 33  1  0
 31 34  1  0
 28 35  1  0
 35 36  1  0
 35 37  2  0
 37 14  1  0
 37 23  1  0
M  CHG  1   5  -1
M  END
>  <UniqueID>  (89) 
88

>  <SMILES>  (89) 
C[N-]C(=O)/C=C/C(=O)n1c(C(N)=O)cc2ccc(NC)cc21

>  <Energy>  (89) 
71.40772643827191

>  <Genealogy>  (89) 
C[N-]C(=O)/C=C/C(=O)n1c(C(N)=O)cc2ccc(NC)cc21 (protonated)
C[N-]C(=O)/C=C/C(=O)n1c(C(N)=O)cc2ccc(NC)cc21 (cis-trans isomerization)
C[N-]C(=O)/C=C/C(=O)n1c(C(N)=O)cc2ccc(NC)cc21 (3D coordinates assigned)
C[N-]C(=O)/C=C/C(=O)n1c(C(N)=O)cc2ccc(NC)cc21 (optimized conformer: 71.40772643827191 kcal/mol)

>  <smiles>  (89) 
CNC(=O)/C=C/C(=O)n1c(C(N)=O)cc2ccc(NC)cc21

>  <score_type>  (89) 
oracle

>  <origin>  (89) 
adg

>  <m_score__min__energy>  (89) 
-6.8600000000000003

>  <m_primary>  (89) 
energy

$$$$
89:0
     RDKit          3D

 48 50  0  0  0  0  0  0  0  0999 V2000
  144.1020  153.1610  133.2950 C   0  0  0  0  0  0  0  0  0  0  0  0
  142.9270  153.9880  133.8300 C   0  0  1  0  0  0  0  0  0  0  0  0
  142.7690  155.2130  133.0350 N   0  0  0  0  0  0  0  0  0  0  0  0
  143.6210  156.3730  133.1370 C   0  0  0  0  0  0  0  0  0  0  0  0
  145.0390  156.2800  133.0670 C   0  0  0  0  0  0  0  0  0  0  0  0
  145.8410  157.4290  133.1970 C   0  0  0  0  0  0  0  0  0  0  0  0
  145.2060  158.6480  133.4120 C   0  0  0  0  0  0  0  0  0  0  0  0
  145.7320  159.9070  133.5940 C   0  0  0  0  0  0  0  0  0  0  0  0
  144.6340  160.7430  133.7980 C   0  0  0  0  0  0  0  0  0  0  0  0
  144.7460  162.1840  134.1170 C   0  0  0  0  0  0  0  0  0  0  0  0
  144.0240  163.1610  133.3750 N   0  0  0  0  0  0  0  0  0  0  0  0
  145.4810  162.5540  135.0710 O   0  0  0  0  0  0  0  0  0  0  0  0
  143.4770  160.0250  133.7350 N   0  0  0  0  0  0  0  0  0  0  0  0
  142.1320  160.4980  133.9160 C   0  0  0  0  0  0  0  0  0  0  0  0
  141.7820  161.5820  133.3750 O   0  0  0  0  0  0  0  0  0  0  0  0
  141.1820  159.7380  134.6910 N   0  0  0  0  0  0  0  0  0  0  0  0
  141.3120  159.6880  136.1490 C   0  0  0  0  0  0  0  0  0  0  0  0
  140.3240  158.7880  134.0340 C   0  0  0  0  0  0  0  0  0  0  0  0
  140.2020  157.6350  134.5310 O   0  0  0  0  0  0  0  0  0  0  0  0
  139.6200  159.1240  132.7670 C   0  0  0  0  0  0  0  0  0  0  0  0
  139.1130  158.0960  131.9470 C   0  0  0  0  0  0  0  0  0  0  0  0
  138.4890  158.4000  130.7320 C   0  0  0  0  0  0  0  0  0  0  0  0
  138.3670  159.7280  130.3190 C   0  0  0  0  0  0  0  0  0  0  0  0
  138.8650  160.7570  131.1230 C   0  0  0  0  0  0  0  0  0  0  0  0
  139.4860  160.4590  132.3390 C   0  0  0  0  0  0  0  0  0  0  0  0
  143.8440  158.7510  133.4920 C   0  0  0  0  0  0  0  0  0  0  0  0
  143.0220  157.6360  133.3230 C   0  0  0  0  0  0  0  0  0  0  0  0
  141.6580  153.1780  133.7970 C   0  0  0  0  0  0  0  0  0  0  0  0
  140.7110  153.5040  133.0310 O   0  0  0  0  0  0  0  0  0  0  0  0
  141.5190  152.0650  134.6210 O   0  0  0  0  0  0  0  0  0  0  0  0
  144.6789  152.7549  134.1390 H   0  0  0  0  0  0  0  0  0  0  0  0
  143.7181  152.3329  132.6811 H   0  0  0  0  0  0  0  0  0  0  0  0
  144.7520  153.8018  132.6811 H   0  0  0  0  0  0  0  0  0  0  0  0
  143.1374  154.2663  134.8732 H   0  0  0  0  0  0  0  0  0  0  0  0
  141.9800  155.2550  132.3450 H   0  0  0  0  0  0  0  0  0  0  0  0
  145.5132  155.3000  132.9097 H   0  0  0  0  0  0  0  0  0  0  0  0
  146.9371  157.3652  133.1306 H   0  0  0  0  0  0  0  0  0  0  0  0
  146.7940  160.1934  133.5812 H   0  0  0  0  0  0  0  0  0  0  0  0
  143.0110  163.3360  133.5600 H   0  0  0  0  0  0  0  0  0  0  0  0
  140.3810  160.0461  136.6126 H   0  0  0  0  0  0  0  0  0  0  0  0
  141.5039  158.6519  136.4647 H   0  0  0  0  0  0  0  0  0  0  0  0
  142.1488  160.3284  136.4647 H   0  0  0  0  0  0  0  0  0  0  0  0
  139.2085  157.0471  132.2644 H   0  0  0  0  0  0  0  0  0  0  0  0
  138.0936  157.5906  130.1007 H   0  0  0  0  0  0  0  0  0  0  0  0
  137.8794  159.9642  129.3617 H   0  0  0  0  0  0  0  0  0  0  0  0
  138.7680  161.8034  130.7981 H   0  0  0  0  0  0  0  0  0  0  0  0
  139.8735  161.2744  132.9674 H   0  0  0  0  0  0  0  0  0  0  0  0
  141.9270  157.7404  133.3347 H   0  0  0  0  0  0  0  0  0  0  0  0
  1  2  1  0
  2  3  1  0
  3  4  1  0
  4  5  2  0
  5  6  1  0
  6  7  2  0
  7  8  1  0
  8  9  2  0
  9 10  1  0
 10 11  1  0
 10 12  2  0
  9 13  1  0
 13 14  1  0
 14 15  2  0
 14 16  1  0
 16 17  1  0
 16 18  1  0
 18 19  2  0
 18 20  1  0
 20 21  2  0
 21 22  1  0
 22 23  2  0
 23 24  1  0
 24 25  2  0
 13 26  1  0
 26 27  2  0
  2 28  1  0
 28 29  2  0
 28 30  1  0
 27  4  1  0
 26  7  1  0
 25 20  1  0
  1 31  1  0
  1 32  1  0
  1 33  1  0
  2 34  1  1
  3 35  1  0
  5 36  1  0
  6 37  1  0
  8 38  1  0
 11 39  1  0
 17 40  1  0
 17 41  1  0
 17 42  1  0
 21 43  1  0
 22 44  1  0
 23 45  1  0
 24 46  1  0
 25 47  1  0
 27 48  1  0
M  CHG  2  11  -1  30  -1
M  END
>  <UniqueID>  (90) 
89

>  <SMILES>  (90) 
C[C@@H](Nc1ccc2cc(C([NH-])=O)n(C(=O)N(C)C(=O)c3ccccc3)c2c1)C(=O)[O-]

>  <Energy>  (90) 
92.41721232211428

>  <Genealogy>  (90) 
CC(Nc1ccc2cc(C([NH-])=O)n(C(=O)N(C)C(=O)c3ccccc3)c2c1)C(=O)[O-] (protonated)
C[C@@H](Nc1ccc2cc(C([NH-])=O)n(C(=O)N(C)C(=O)c3ccccc3)c2c1)C(=O)[O-] (chirality)
C[C@@H](Nc1ccc2cc(C([NH-])=O)n(C(=O)N(C)C(=O)c3ccccc3)c2c1)C(=O)[O-] (3D coordinates assigned)
C[C@@H](Nc1ccc2cc(C([NH-])=O)n(C(=O)N(C)C(=O)c3ccccc3)c2c1)C(=O)[O-] (optimized conformer: 92.41721232211428 kcal/mol)

>  <smiles>  (90) 
CC(Nc1ccc2cc(C(N)=O)n(C(=O)N(C)C(=O)c3ccccc3)c2c1)C(=O)O

>  <score_type>  (90) 
oracle

>  <origin>  (90) 
adg

>  <m_score__min__energy>  (90) 
-9.3599999999999994

>  <m_primary>  (90) 
energy

$$$$
90:0
     RDKit          3D

 45 47  0  0  0  0  0  0  0  0999 V2000
  143.2460  162.4730  133.3580 N   0  0  0  0  0  0  0  0  0  0  0  0
  144.3640  161.7820  133.9090 C   0  0  0  0  0  0  0  0  0  0  0  0
  145.2380  162.4320  134.5430 O   0  0  0  0  0  0  0  0  0  0  0  0
  144.5200  160.3230  133.7330 C   0  0  0  0  0  0  0  0  0  0  0  0
  145.7530  159.6740  133.6570 C   0  0  0  0  0  0  0  0  0  0  0  0
  145.4530  158.3430  133.4550 C   0  0  0  0  0  0  0  0  0  0  0  0
  146.2930  157.2470  133.2940 C   0  0  0  0  0  0  0  0  0  0  0  0
  145.7020  155.9870  133.0930 C   0  0  0  0  0  0  0  0  0  0  0  0
  144.2890  155.8430  133.0700 C   0  0  0  0  0  0  0  0  0  0  0  0
  143.6650  154.4980  132.7960 C   0  0  0  0  0  0  0  0  0  0  0  0
  144.1870  153.5340  133.6400 F   0  0  0  0  0  0  0  0  0  0  0  0
  142.2950  154.5470  132.9890 F   0  0  0  0  0  0  0  0  0  0  0  0
  143.9210  154.1390  131.4850 F   0  0  0  0  0  0  0  0  0  0  0  0
  143.4710  156.9870  133.2210 C   0  0  0  0  0  0  0  0  0  0  0  0
  144.0900  158.2240  133.4200 C   0  0  0  0  0  0  0  0  0  0  0  0
  143.5050  159.4250  133.5940 N   0  0  0  0  0  0  0  0  0  0  0  0
  142.0930  159.6730  133.6350 C   0  0  0  0  0  0  0  0  0  0  0  0
  141.5250  160.1240  132.6040 O   0  0  0  0  0  0  0  0  0  0  0  0
  141.2660  159.3980  134.8790 C   0  0  1  0  0  0  0  0  0  0  0  0
  140.3710  158.1400  134.6960 C   0  0  0  0  0  0  0  0  0  0  0  0
  140.9680  156.8970  135.3700 C   0  0  0  0  0  0  0  0  0  0  0  0
  141.1690  157.0880  136.8960 C   0  0  2  0  0  0  0  0  0  0  0  0
  140.0290  156.6100  137.5900 O   0  0  0  0  0  0  0  0  0  0  0  0
  140.4870  155.4120  138.7180 P   0  0  2  0  0  0  0  0  0  0  0  0
  140.9850  156.0710  139.9850 O   0  0  0  0  0  0  0  0  0  0  0  0
  141.7090  154.4310  138.0770 O   0  0  0  0  0  0  0  0  0  0  0  0
  139.1450  154.4530  139.0850 O   0  0  0  0  0  0  0  0  0  0  0  0
  141.3860  158.5690  137.2810 C   0  0  0  0  0  0  0  0  0  0  0  0
  142.1220  159.3290  136.1740 C   0  0  0  0  0  0  0  0  0  0  0  0
  142.4210  161.9520  132.9900 H   0  0  0  0  0  0  0  0  0  0  0  0
  146.7517  160.1274  133.7404 H   0  0  0  0  0  0  0  0  0  0  0  0
  147.3866  157.3619  133.3230 H   0  0  0  0  0  0  0  0  0  0  0  0
  146.3411  155.1029  132.9520 H   0  0  0  0  0  0  0  0  0  0  0  0
  142.3747  156.9050  133.1827 H   0  0  0  0  0  0  0  0  0  0  0  0
  140.5983  160.2620  135.0117 H   0  0  0  0  0  0  0  0  0  0  0  0
  140.2585  157.9394  133.6203 H   0  0  0  0  0  0  0  0  0  0  0  0
  139.4000  158.3461  135.1701 H   0  0  0  0  0  0  0  0  0  0  0  0
  141.9435  156.6804  134.9100 H   0  0  0  0  0  0  0  0  0  0  0  0
  140.2605  156.0669  135.2272 H   0  0  0  0  0  0  0  0  0  0  0  0
  142.0703  156.5223  137.1746 H   0  0  0  0  0  0  0  0  0  0  0  0
  138.6110  154.9980  139.7170 H   0  0  0  0  0  0  0  0  0  0  0  0
  141.9815  158.6157  138.2047 H   0  0  0  0  0  0  0  0  0  0  0  0
  140.4017  159.0374  137.4287 H   0  0  0  0  0  0  0  0  0  0  0  0
  143.0682  158.8137  135.9523 H   0  0  0  0  0  0  0  0  0  0  0  0
  142.3130  160.3549  136.5218 H   0  0  0  0  0  0  0  0  0  0  0  0
  1  2  1  0
  2  3  2  0
  2  4  1  0
  4  5  2  0
  5  6  1  0
  6  7  2  0
  7  8  1  0
  8  9  2  0
  9 10  1  0
 10 11  1  0
 10 12  1  0
 10 13  1  0
  9 14  1  0
 14 15  2  0
 15 16  1  0
 16 17  1  0
 17 18  2  0
 17 19  1  0
 19 20  1  0
 20 21  1  0
 21 22  1  0
 22 23  1  0
 23 24  1  0
 24 25  2  0
 24 26  1  6
 24 27  1  0
 22 28  1  0
 28 29  1  0
 16  4  1  0
 29 19  1  0
 15  6  1  0
  1 30  1  0
  5 31  1  0
  7 32  1  0
  8 33  1  0
 14 34  1  0
 19 35  1  1
 20 36  1  0
 20 37  1  0
 21 38  1  0
 21 39  1  0
 22 40  1  1
 27 41  1  0
 28 42  1  0
 28 43  1  0
 29 44  1  0
 29 45  1  0
M  CHG  2   1  -1  26  -1
M  END
>  <UniqueID>  (91) 
90

>  <SMILES>  (91) 
[NH-]C(=O)c1cc2ccc(C(F)(F)F)cc2n1C(=O)C1CCC(O[P@](=O)([O-])O)CC1

>  <Energy>  (91) 
90.52731035821868

>  <Genealogy>  (91) 
[NH-]C(=O)c1cc2ccc(C(F)(F)F)cc2n1C(=O)C1CCC(OP(=O)([O-])O)CC1 (protonated)
[NH-]C(=O)c1cc2ccc(C(F)(F)F)cc2n1C(=O)C1CCC(O[P@](=O)([O-])O)CC1 (chirality)
[NH-]C(=O)c1cc2ccc(C(F)(F)F)cc2n1C(=O)C1CCC(O[P@](=O)([O-])O)CC1 (3D coordinates assigned)
[NH-]C(=O)c1cc2ccc(C(F)(F)F)cc2n1C(=O)C1CCC(O[P@](=O)([O-])O)CC1 (nonaromatic ring conformer: 90.52731035821868 kcal/mol)

>  <smiles>  (91) 
NC(=O)c1cc2ccc(C(F)(F)F)cc2n1C(=O)C1CCC(OP(=O)(O)O)CC1

>  <score_type>  (91) 
oracle

>  <origin>  (91) 
adg

>  <m_score__min__energy>  (91) 
-7.7699999999999996

>  <m_primary>  (91) 
energy

$$$$
91:0
     RDKit          3D

 37 38  0  0  0  0  0  0  0  0999 V2000
  139.3830  159.7530  131.0690 C   0  0  0  0  0  0  0  0  0  0  0  0
  139.7880  159.7190  132.5460 C   0  0  1  0  0  0  0  0  0  0  0  0
  139.1530  158.5140  133.2500 C   0  0  0  0  0  0  0  0  0  0  0  0
  139.7260  158.3270  134.5160 O   0  0  0  0  0  0  0  0  0  0  0  0
  141.2430  159.6380  132.6600 N   0  0  0  0  0  0  0  0  0  0  0  0
  141.9810  160.1060  133.7940 C   0  0  0  0  0  0  0  0  0  0  0  0
  141.3760  160.4790  134.8360 O   0  0  0  0  0  0  0  0  0  0  0  0
  143.4490  160.1550  133.7390 C   0  0  0  0  0  0  0  0  0  0  0  0
  144.0340  161.2720  133.7370 O   0  0  0  0  0  0  0  0  0  0  0  0
  144.2240  158.9470  133.6940 N   0  0  0  0  0  0  0  0  0  0  0  0
  143.8650  157.7120  134.1420 C   0  0  0  0  0  0  0  0  0  0  0  0
  142.5410  157.3430  134.6850 C   0  0  0  0  0  0  0  0  0  0  0  0
  142.1010  157.9010  135.9220 N   0  0  0  0  0  0  0  0  0  0  0  0
  141.7990  156.5270  134.0780 O   0  0  0  0  0  0  0  0  0  0  0  0
  144.9140  156.8100  133.9740 C   0  0  0  0  0  0  0  0  0  0  0  0
  145.9370  157.5390  133.4090 C   0  0  0  0  0  0  0  0  0  0  0  0
  147.2220  157.1500  133.0450 C   0  0  0  0  0  0  0  0  0  0  0  0
  148.0800  158.1260  132.5110 C   0  0  0  0  0  0  0  0  0  0  0  0
  147.6430  159.4660  132.3580 C   0  0  0  0  0  0  0  0  0  0  0  0
  148.5680  160.5110  131.8020 C   0  0  0  0  0  0  0  0  0  0  0  0
  148.2130  160.7970  130.4960 F   0  0  0  0  0  0  0  0  0  0  0  0
  149.8700  160.0450  131.8290 F   0  0  0  0  0  0  0  0  0  0  0  0
  146.3320  159.8250  132.7430 C   0  0  0  0  0  0  0  0  0  0  0  0
  145.4950  158.8270  133.2540 C   0  0  0  0  0  0  0  0  0  0  0  0
  138.2896  159.8448  130.9906 H   0  0  0  0  0  0  0  0  0  0  0  0
  139.8594  160.6143  130.5779 H   0  0  0  0  0  0  0  0  0  0  0  0
  139.7091  158.8243  130.5779 H   0  0  0  0  0  0  0  0  0  0  0  0
  139.4311  160.6416  133.0270 H   0  0  0  0  0  0  0  0  0  0  0  0
  138.0730  158.6890  133.3637 H   0  0  0  0  0  0  0  0  0  0  0  0
  139.3294  157.6137  132.6431 H   0  0  0  0  0  0  0  0  0  0  0  0
  140.7050  158.4410  134.4080 H   0  0  0  0  0  0  0  0  0  0  0  0
  141.3340  158.6100  135.9480 H   0  0  0  0  0  0  0  0  0  0  0  0
  144.9231  155.7419  134.2370 H   0  0  0  0  0  0  0  0  0  0  0  0
  147.5563  156.1097  133.1714 H   0  0  0  0  0  0  0  0  0  0  0  0
  149.1004  157.8479  132.2088 H   0  0  0  0  0  0  0  0  0  0  0  0
  148.4919  161.4220  132.4138 H   0  0  0  0  0  0  0  0  0  0  0  0
  145.9785  160.8619  132.6436 H   0  0  0  0  0  0  0  0  0  0  0  0
  1  2  1  0
  2  3  1  0
  3  4  1  0
  2  5  1  0
  5  6  1  0
  6  7  2  0
  6  8  1  0
  8  9  2  0
  8 10  1  0
 10 11  1  0
 11 12  1  0
 12 13  1  0
 12 14  2  0
 11 15  2  0
 15 16  1  0
 16 17  2  0
 17 18  1  0
 18 19  2  0
 19 20  1  0
 20 21  1  0
 20 22  1  0
 19 23  1  0
 23 24  2  0
 24 10  1  0
 24 16  1  0
  1 25  1  0
  1 26  1  0
  1 27  1  0
  2 28  1  1
  3 29  1  0
  3 30  1  0
  4 31  1  0
 13 32  1  0
 15 33  1  0
 17 34  1  0
 18 35  1  0
 20 36  1  0
 23 37  1  0
M  CHG  2   5  -1  13  -1
M  END
>  <UniqueID>  (92) 
91

>  <SMILES>  (92) 
C[C@@H](CO)[N-]C(=O)C(=O)n1c(C([NH-])=O)cc2ccc(C(F)F)cc21

>  <Energy>  (92) 
69.64099085627322

>  <Genealogy>  (92) 
C[C@@H](CO)[N-]C(=O)C(=O)n1c(C([NH-])=O)cc2ccc(C(F)F)cc21 (protonated)
C[C@@H](CO)[N-]C(=O)C(=O)n1c(C([NH-])=O)cc2ccc(C(F)F)cc21 (3D coordinates assigned)
C[C@@H](CO)[N-]C(=O)C(=O)n1c(C([NH-])=O)cc2ccc(C(F)F)cc21 (optimized conformer: 69.64099085627322 kcal/mol)

>  <smiles>  (92) 
C[C@@H](CO)NC(=O)C(=O)n1c(C(N)=O)cc2ccc(C(F)F)cc21

>  <score_type>  (92) 
oracle

>  <origin>  (92) 
adg

>  <m_score__min__energy>  (92) 
-5.8200000000000003

>  <m_primary>  (92) 
energy

$$$$
92:0
     RDKit          3D

 37 38  0  0  0  0  0  0  0  0999 V2000
  146.1720  162.8110  134.8700 N   0  0  0  0  0  0  0  0  0  0  0  0
  144.9760  162.5710  134.1330 C   0  0  0  0  0  0  0  0  0  0  0  0
  144.3560  163.5470  133.6310 O   0  0  0  0  0  0  0  0  0  0  0  0
  144.4870  161.1960  133.9020 C   0  0  0  0  0  0  0  0  0  0  0  0
  143.1370  160.8500  133.9160 C   0  0  0  0  0  0  0  0  0  0  0  0
  143.0970  159.5190  133.5710 C   0  0  0  0  0  0  0  0  0  0  0  0
  142.0110  158.6600  133.4460 C   0  0  0  0  0  0  0  0  0  0  0  0
  142.2660  157.3190  133.1080 C   0  0  0  0  0  0  0  0  0  0  0  0
  143.5950  156.8630  132.9070 C   0  0  0  0  0  0  0  0  0  0  0  0
  143.8450  155.4770  132.5910 N   0  0  0  0  0  0  0  0  0  0  0  0
  143.5450  154.5970  133.7330 C   0  0  0  0  0  0  0  0  0  0  0  0
  144.8140  154.0300  134.3800 C   0  0  0  0  0  0  0  0  0  0  0  0
  145.7830  153.8140  133.3920 O   0  0  0  0  0  0  0  0  0  0  0  0
  144.6720  157.7690  133.0450 C   0  0  0  0  0  0  0  0  0  0  0  0
  144.3870  159.1000  133.3670 C   0  0  0  0  0  0  0  0  0  0  0  0
  145.2530  160.1180  133.5700 N   0  0  0  0  0  0  0  0  0  0  0  0
  146.6850  160.0320  133.5270 C   0  0  0  0  0  0  0  0  0  0  0  0
  147.3540  160.9550  132.9860 O   0  0  0  0  0  0  0  0  0  0  0  0
  147.3330  158.9360  134.1070 O   0  0  0  0  0  0  0  0  0  0  0  0
  148.0720  157.9760  133.3560 C   0  0  0  0  0  0  0  0  0  0  0  0
  147.4740  156.6150  133.5200 C   0  0  0  0  0  0  0  0  0  0  0  0
  147.5150  156.0340  134.6370 O   0  0  0  0  0  0  0  0  0  0  0  0
  146.8980  155.9750  132.4310 O   0  0  0  0  0  0  0  0  0  0  0  0
  147.0790  162.3890  134.5750 H   0  0  0  0  0  0  0  0  0  0  0  0
  142.2841  161.5030  134.1528 H   0  0  0  0  0  0  0  0  0  0  0  0
  140.9835  159.0184  133.6066 H   0  0  0  0  0  0  0  0  0  0  0  0
  141.4269  156.6162  132.9983 H   0  0  0  0  0  0  0  0  0  0  0  0
  143.2340  155.1990  131.7860 H   0  0  0  0  0  0  0  0  0  0  0  0
  144.8360  155.3390  132.2830 H   0  0  0  0  0  0  0  0  0  0  0  0
  142.9905  155.1738  134.4879 H   0  0  0  0  0  0  0  0  0  0  0  0
  142.9512  153.7502  133.3583 H   0  0  0  0  0  0  0  0  0  0  0  0
  145.1990  154.7455  135.1215 H   0  0  0  0  0  0  0  0  0  0  0  0
  144.5786  153.0780  134.8783 H   0  0  0  0  0  0  0  0  0  0  0  0
  146.4480  154.5440  133.4930 H   0  0  0  0  0  0  0  0  0  0  0  0
  145.7102  157.4346  132.9024 H   0  0  0  0  0  0  0  0  0  0  0  0
  148.0526  158.2549  132.2921 H   0  0  0  0  0  0  0  0  0  0  0  0
  149.1090  157.9572  133.7224 H   0  0  0  0  0  0  0  0  0  0  0  0
  1  2  1  0
  2  3  2  0
  2  4  1  0
  4  5  2  0
  5  6  1  0
  6  7  2  0
  7  8  1  0
  8  9  2  0
  9 10  1  0
 10 11  1  0
 11 12  1  0
 12 13  1  0
  9 14  1  0
 14 15  2  0
 15 16  1  0
 16 17  1  0
 17 18  2  0
 17 19  1  0
 19 20  1  0
 20 21  1  0
 21 22  2  0
 21 23  1  0
 16  4  1  0
 15  6  1  0
  1 24  1  0
  5 25  1  0
  7 26  1  0
  8 27  1  0
 10 28  1  0
 10 29  1  0
 11 30  1  0
 11 31  1  0
 12 32  1  0
 12 33  1  0
 13 34  1  0
 14 35  1  0
 20 36  1  0
 20 37  1  0
M  CHG  3   1  -1  10   1  23  -1
M  END
>  <UniqueID>  (93) 
92

>  <SMILES>  (93) 
[NH-]C(=O)c1cc2ccc([NH2+]CCO)cc2n1C(=O)OCC(=O)[O-]

>  <Energy>  (93) 
72.80065880093898

>  <Genealogy>  (93) 
[NH-]C(=O)c1cc2ccc([NH2+]CCO)cc2n1C(=O)OCC(=O)[O-] (protonated)
[NH-]C(=O)c1cc2ccc([NH2+]CCO)cc2n1C(=O)OCC(=O)[O-] (3D coordinates assigned)
[NH-]C(=O)c1cc2ccc([NH2+]CCO)cc2n1C(=O)OCC(=O)[O-] (optimized conformer: 72.80065880093898 kcal/mol)

>  <smiles>  (93) 
NC(=O)c1cc2ccc(NCCO)cc2n1C(=O)OCC(=O)O

>  <score_type>  (93) 
oracle

>  <origin>  (93) 
adg

>  <m_score__min__energy>  (93) 
-4.9199999999999999

>  <m_primary>  (93) 
energy

$$$$
93:0
     RDKit          3D

 39 40  0  0  0  0  0  0  0  0999 V2000
  150.7230  150.2050  130.1120 C   0  0  0  0  0  0  0  0  0  0  0  0
  149.6460  151.0690  130.7550 C   0  0  0  0  0  0  0  0  0  0  0  0
  149.6340  150.8650  132.5280 S   0  0  0  0  0  0  0  0  0  0  0  0
  148.8670  149.6210  132.8810 O   0  0  0  0  0  0  0  0  0  0  0  0
  151.0460  150.7270  133.0250 O   0  0  0  0  0  0  0  0  0  0  0  0
  148.8540  152.2590  133.3360 C   0  0  0  0  0  0  0  0  0  0  0  0
  148.2920  153.2850  132.3350 C   0  0  0  0  0  0  0  0  0  0  0  0
  148.7860  154.6790  132.6150 C   0  0  0  0  0  0  0  0  0  0  0  0
  149.9800  154.9750  132.3420 O   0  0  0  0  0  0  0  0  0  0  0  0
  147.9350  155.6630  133.2270 N   0  0  0  0  0  0  0  0  0  0  0  0
  147.0390  155.4910  134.2390 C   0  0  0  0  0  0  0  0  0  0  0  0
  146.6070  154.1970  134.8030 C   0  0  0  0  0  0  0  0  0  0  0  0
  145.7200  153.3450  134.0820 N   0  0  0  0  0  0  0  0  0  0  0  0
  146.9870  153.8590  135.9560 O   0  0  0  0  0  0  0  0  0  0  0  0
  146.4900  156.7150  134.6180 C   0  0  0  0  0  0  0  0  0  0  0  0
  147.0700  157.6470  133.7880 C   0  0  0  0  0  0  0  0  0  0  0  0
  146.8920  159.0240  133.7240 C   0  0  0  0  0  0  0  0  0  0  0  0
  147.6420  159.7440  132.7780 C   0  0  0  0  0  0  0  0  0  0  0  0
  148.5680  159.0800  131.9300 C   0  0  0  0  0  0  0  0  0  0  0  0
  149.3440  159.8550  130.8960 C   0  0  0  0  0  0  0  0  0  0  0  0
  150.6820  159.5250  130.9900 F   0  0  0  0  0  0  0  0  0  0  0  0
  149.1990  161.2160  131.0990 F   0  0  0  0  0  0  0  0  0  0  0  0
  148.8940  159.5580  129.6210 F   0  0  0  0  0  0  0  0  0  0  0  0
  148.6970  157.6740  132.0070 C   0  0  0  0  0  0  0  0  0  0  0  0
  147.9310  156.9850  132.9530 C   0  0  0  0  0  0  0  0  0  0  0  0
  151.3238  149.7230  130.8974 H   0  0  0  0  0  0  0  0  0  0  0  0
  150.2495  149.4334  129.4871 H   0  0  0  0  0  0  0  0  0  0  0  0
  151.3735  150.8346  129.4871 H   0  0  0  0  0  0  0  0  0  0  0  0
  149.8418  152.1247  130.5160 H   0  0  0  0  0  0  0  0  0  0  0  0
  148.6671  150.7590  130.3606 H   0  0  0  0  0  0  0  0  0  0  0  0
  148.0283  151.8874  133.9606 H   0  0  0  0  0  0  0  0  0  0  0  0
  149.6214  152.7671  133.9384 H   0  0  0  0  0  0  0  0  0  0  0  0
  148.6017  152.9963  131.3198 H   0  0  0  0  0  0  0  0  0  0  0  0
  147.1963  153.2881  132.4326 H   0  0  0  0  0  0  0  0  0  0  0  0
  146.0330  152.4100  133.7400 H   0  0  0  0  0  0  0  0  0  0  0  0
  145.7505  156.8972  135.4117 H   0  0  0  0  0  0  0  0  0  0  0  0
  146.1850  159.5353  134.3939 H   0  0  0  0  0  0  0  0  0  0  0  0
  147.5104  160.8328  132.6936 H   0  0  0  0  0  0  0  0  0  0  0  0
  149.3839  157.1345  131.3384 H   0  0  0  0  0  0  0  0  0  0  0  0
  1  2  1  0
  2  3  1  0
  3  4  2  0
  3  5  2  0
  3  6  1  0
  6  7  1  0
  7  8  1  0
  8  9  2  0
  8 10  1  0
 10 11  1  0
 11 12  1  0
 12 13  1  0
 12 14  2  0
 11 15  2  0
 15 16  1  0
 16 17  2  0
 17 18  1  0
 18 19  2  0
 19 20  1  0
 20 21  1  0
 20 22  1  0
 20 23  1  0
 19 24  1  0
 24 25  2  0
 25 10  1  0
 25 16  1  0
  1 26  1  0
  1 27  1  0
  1 28  1  0
  2 29  1  0
  2 30  1  0
  6 31  1  0
  6 32  1  0
  7 33  1  0
  7 34  1  0
 13 35  1  0
 15 36  1  0
 17 37  1  0
 18 38  1  0
 24 39  1  0
M  CHG  1  13  -1
M  END
>  <UniqueID>  (94) 
93

>  <SMILES>  (94) 
CCS(=O)(=O)CCC(=O)n1c(C([NH-])=O)cc2ccc(C(F)(F)F)cc21

>  <Energy>  (94) 
67.20054752895597

>  <Genealogy>  (94) 
CCS(=O)(=O)CCC(=O)n1c(C([NH-])=O)cc2ccc(C(F)(F)F)cc21 (protonated)
CCS(=O)(=O)CCC(=O)n1c(C([NH-])=O)cc2ccc(C(F)(F)F)cc21 (3D coordinates assigned)
CCS(=O)(=O)CCC(=O)n1c(C([NH-])=O)cc2ccc(C(F)(F)F)cc21 (optimized conformer: 67.20054752895597 kcal/mol)

>  <smiles>  (94) 
CCS(=O)(=O)CCC(=O)n1c(C(N)=O)cc2ccc(C(F)(F)F)cc21

>  <score_type>  (94) 
oracle

>  <origin>  (94) 
adg

>  <m_score__min__energy>  (94) 
-7.3200000000000003

>  <m_primary>  (94) 
energy

$$$$
94:0
     RDKit          3D

 37 38  0  0  0  0  0  0  0  0999 V2000
  144.1130  154.4120  132.6530 C   0  0  0  0  0  0  0  0  0  0  0  0
  144.6870  155.3350  133.6360 N   0  0  0  0  0  0  0  0  0  0  0  0
  144.3440  155.2190  135.0330 C   0  0  0  0  0  0  0  0  0  0  0  0
  143.6170  156.1000  135.5700 O   0  0  0  0  0  0  0  0  0  0  0  0
  144.8860  154.0970  135.8780 C   0  0  0  0  0  0  0  0  0  0  0  0
  146.3630  154.2340  136.0800 C   0  0  0  0  0  0  0  0  0  0  0  0
  147.0000  153.3600  136.7240 O   0  0  0  0  0  0  0  0  0  0  0  0
  147.0290  155.3530  135.5950 O   0  0  0  0  0  0  0  0  0  0  0  0
  145.5530  156.4000  133.1920 C   0  0  0  0  0  0  0  0  0  0  0  0
  146.5980  156.1320  132.5400 O   0  0  0  0  0  0  0  0  0  0  0  0
  145.2390  157.7720  133.4800 N   0  0  0  0  0  0  0  0  0  0  0  0
  146.1120  158.8020  133.6610 C   0  0  0  0  0  0  0  0  0  0  0  0
  147.5820  158.6840  133.7370 C   0  0  0  0  0  0  0  0  0  0  0  0
  148.2160  157.4390  134.0360 N   0  0  0  0  0  0  0  0  0  0  0  0
  148.2930  159.7120  133.5780 O   0  0  0  0  0  0  0  0  0  0  0  0
  145.4270  160.0080  133.7890 C   0  0  0  0  0  0  0  0  0  0  0  0
  144.0930  159.6810  133.6820 C   0  0  0  0  0  0  0  0  0  0  0  0
  142.9650  160.4950  133.7170 C   0  0  0  0  0  0  0  0  0  0  0  0
  141.7110  159.8890  133.5360 C   0  0  0  0  0  0  0  0  0  0  0  0
  141.6030  158.4920  133.3140 C   0  0  0  0  0  0  0  0  0  0  0  0
  140.2390  157.8850  133.1030 C   0  0  0  0  0  0  0  0  0  0  0  0
  139.4160  158.2250  134.1620 F   0  0  0  0  0  0  0  0  0  0  0  0
  140.3500  156.5080  133.0420 F   0  0  0  0  0  0  0  0  0  0  0  0
  139.6560  158.3310  131.9280 F   0  0  0  0  0  0  0  0  0  0  0  0
  142.7740  157.7000  133.2740 C   0  0  0  0  0  0  0  0  0  0  0  0
  144.0070  158.3270  133.4880 C   0  0  0  0  0  0  0  0  0  0  0  0
  143.6020  153.5903  133.1762 H   0  0  0  0  0  0  0  0  0  0  0  0
  143.3904  154.9507  132.0225 H   0  0  0  0  0  0  0  0  0  0  0  0
  144.9158  154.0021  132.0225 H   0  0  0  0  0  0  0  0  0  0  0  0
  144.3871  154.1132  136.8582 H   0  0  0  0  0  0  0  0  0  0  0  0
  144.6928  153.1465  135.3592 H   0  0  0  0  0  0  0  0  0  0  0  0
  149.2580  157.3670  134.0300 H   0  0  0  0  0  0  0  0  0  0  0  0
  147.6650  156.6190  134.3740 H   0  0  0  0  0  0  0  0  0  0  0  0
  145.8589  161.0079  133.9427 H   0  0  0  0  0  0  0  0  0  0  0  0
  143.0527  161.5791  133.8813 H   0  0  0  0  0  0  0  0  0  0  0  0
  140.8006  160.5057  133.5668 H   0  0  0  0  0  0  0  0  0  0  0  0
  142.7173  156.6188  133.0797 H   0  0  0  0  0  0  0  0  0  0  0  0
  1  2  1  0
  2  3  1  0
  3  4  2  0
  3  5  1  0
  5  6  1  0
  6  7  2  0
  6  8  1  0
  2  9  1  0
  9 10  2  0
  9 11  1  0
 11 12  1  0
 12 13  1  0
 13 14  1  0
 13 15  2  0
 12 16  2  0
 16 17  1  0
 17 18  2  0
 18 19  1  0
 19 20  2  0
 20 21  1  0
 21 22  1  0
 21 23  1  0
 21 24  1  0
 20 25  1  0
 25 26  2  0
 26 11  1  0
 26 17  1  0
  1 27  1  0
  1 28  1  0
  1 29  1  0
  5 30  1  0
  5 31  1  0
 14 32  1  0
 14 33  1  0
 16 34  1  0
 18 35  1  0
 19 36  1  0
 25 37  1  0
M  CHG  1   8  -1
M  END
>  <UniqueID>  (95) 
94

>  <SMILES>  (95) 
CN(C(=O)CC(=O)[O-])C(=O)n1c(C(N)=O)cc2ccc(C(F)(F)F)cc21

>  <Energy>  (95) 
78.03028345837663

>  <Genealogy>  (95) 
CN(C(=O)CC(=O)[O-])C(=O)n1c(C(N)=O)cc2ccc(C(F)(F)F)cc21 (protonated)
CN(C(=O)CC(=O)[O-])C(=O)n1c(C(N)=O)cc2ccc(C(F)(F)F)cc21 (3D coordinates assigned)
CN(C(=O)CC(=O)[O-])C(=O)n1c(C(N)=O)cc2ccc(C(F)(F)F)cc21 (optimized conformer: 78.03028345837663 kcal/mol)

>  <smiles>  (95) 
CN(C(=O)CC(=O)O)C(=O)n1c(C(N)=O)cc2ccc(C(F)(F)F)cc21

>  <score_type>  (95) 
oracle

>  <origin>  (95) 
adg

>  <m_score__min__energy>  (95) 
-6.5599999999999996

>  <m_primary>  (95) 
energy

$$$$
95:0
     RDKit          3D

 44 45  0  0  0  0  0  0  0  0999 V2000
  149.1360  157.5010  131.0850 H   0  0  0  0  0  0  0  0  0  0  0  0
  149.0810  158.5430  131.1000 N   0  0  0  0  0  0  0  0  0  0  0  0
  148.5360  159.2320  132.2240 C   0  0  0  0  0  0  0  0  0  0  0  0
  149.2250  160.1140  132.8000 O   0  0  0  0  0  0  0  0  0  0  0  0
  147.1860  158.8860  132.7160 C   0  0  0  0  0  0  0  0  0  0  0  0
  146.0990  159.7560  132.6690 C   0  0  0  0  0  0  0  0  0  0  0  0
  146.0920  160.7956  132.3097 H   0  0  0  0  0  0  0  0  0  0  0  0
  145.0350  159.0380  133.1680 C   0  0  0  0  0  0  0  0  0  0  0  0
  143.7130  159.4140  133.3590 C   0  0  0  0  0  0  0  0  0  0  0  0
  143.3660  160.4210  133.0840 H   0  0  0  0  0  0  0  0  0  0  0  0
  142.8310  158.4730  133.9130 C   0  0  0  0  0  0  0  0  0  0  0  0
  141.7780  158.7488  134.0714 H   0  0  0  0  0  0  0  0  0  0  0  0
  143.2730  157.1680  134.2740 C   0  0  0  0  0  0  0  0  0  0  0  0
  142.3590  156.1960  134.8560 N   0  0  0  0  0  0  0  0  0  0  0  0
  141.0630  155.9290  134.2150 C   0  0  0  0  0  0  0  0  0  0  0  0
  140.2970  155.7712  134.9885 H   0  0  0  0  0  0  0  0  0  0  0  0
  140.7800  156.7877  133.5885 H   0  0  0  0  0  0  0  0  0  0  0  0
  141.1425  155.0284  133.5885 H   0  0  0  0  0  0  0  0  0  0  0  0
  142.6490  155.5130  136.1310 C   0  0  0  0  0  0  0  0  0  0  0  0
  143.1037  156.2355  136.8247 H   0  0  0  0  0  0  0  0  0  0  0  0
  141.7011  155.1202  136.5274 H   0  0  0  0  0  0  0  0  0  0  0  0
  143.6130  154.3270  135.9480 C   0  0  0  0  0  0  0  0  0  0  0  0
  143.0229  153.4158  135.7706 H   0  0  0  0  0  0  0  0  0  0  0  0
  144.2678  154.5547  135.0939 H   0  0  0  0  0  0  0  0  0  0  0  0
  144.4630  154.1160  137.1190 N   0  0  0  0  0  0  0  0  0  0  0  0
  144.7180  153.1060  137.2000 H   0  0  0  0  0  0  0  0  0  0  0  0
  145.3420  154.6700  137.0020 H   0  0  0  0  0  0  0  0  0  0  0  0
  143.9780  154.4420  137.9860 H   0  0  0  0  0  0  0  0  0  0  0  0
  144.6400  156.8370  134.0670 C   0  0  0  0  0  0  0  0  0  0  0  0
  145.0238  155.8460  134.3511 H   0  0  0  0  0  0  0  0  0  0  0  0
  145.4890  157.7900  133.4970 C   0  0  0  0  0  0  0  0  0  0  0  0
  146.8060  157.6770  133.2150 N   0  0  0  0  0  0  0  0  0  0  0  0
  147.6450  156.5410  133.4890 C   0  0  0  0  0  0  0  0  0  0  0  0
  148.4420  156.1360  132.6020 O   0  0  0  0  0  0  0  0  0  0  0  0
  147.6730  155.8870  134.8150 C   0  0  0  0  0  0  0  0  0  0  0  0
  147.7028  156.5404  135.6994 H   0  0  0  0  0  0  0  0  0  0  0  0
  147.6650  154.5520  135.0300 C   0  0  0  0  0  0  0  0  0  0  0  0
  147.5790  154.0300  136.4170 C   0  0  0  0  0  0  0  0  0  0  0  0
  148.2990  154.5080  137.3340 O   0  0  0  0  0  0  0  0  0  0  0  0
  146.6910  153.0070  136.7280 O   0  0  0  0  0  0  0  0  0  0  0  0
  147.7280  153.5600  133.8940 C   0  0  0  0  0  0  0  0  0  0  0  0
  147.7928  152.5401  134.3010 H   0  0  0  0  0  0  0  0  0  0  0  0
  146.8222  153.6516  133.2766 H   0  0  0  0  0  0  0  0  0  0  0  0
  148.6149  153.7654  133.2766 H   0  0  0  0  0  0  0  0  0  0  0  0
  1  2  1  0
  2  3  1  0
  3  4  2  0
  3  5  1  0
  5  6  2  0
  6  7  1  0
  6  8  1  0
  8  9  2  0
  9 10  1  0
  9 11  1  0
 11 12  1  0
 11 13  2  0
 13 14  1  0
 14 15  1  0
 15 16  1  0
 15 17  1  0
 15 18  1  0
 14 19  1  0
 19 20  1  0
 19 21  1  0
 19 22  1  0
 22 23  1  0
 22 24  1  0
 22 25  1  0
 25 26  1  0
 25 27  1  0
 25 28  1  0
 13 29  1  0
 29 30  1  0
 29 31  2  0
 31 32  1  0
 32 33  1  0
 33 34  2  0
 33 35  1  0
 35 36  1  0
 35 37  2  0
 37 38  1  0
 38 39  2  0
 38 40  1  0
 37 41  1  0
 41 42  1  0
 41 43  1  0
 41 44  1  0
 32  5  1  0
 31  8  1  0
M  CHG  3   2  -1  25   1  40  -1
M  END
>  <UniqueID>  (96) 
95

>  <SMILES>  (96) 
C/C(=C\C(=O)n1c(C([NH-])=O)cc2ccc(N(C)CC[NH3+])cc21)C(=O)[O-]

>  <Energy>  (96) 
86.72313839680601

>  <Genealogy>  (96) 
CC(=CC(=O)n1c(C([NH-])=O)cc2ccc(N(C)CC[NH3+])cc21)C(=O)[O-] (protonated)
C/C(=C\C(=O)n1c(C([NH-])=O)cc2ccc(N(C)CC[NH3+])cc21)C(=O)[O-] (cis-trans isomerization)
C/C(=C\C(=O)n1c(C([NH-])=O)cc2ccc(N(C)CC[NH3+])cc21)C(=O)[O-] (3D coordinates assigned)
C/C(=C\C(=O)n1c(C([NH-])=O)cc2ccc(N(C)CC[NH3+])cc21)C(=O)[O-] (optimized conformer: 86.72313839680601 kcal/mol)

>  <smiles>  (96) 
CC(=CC(=O)n1c(C(N)=O)cc2ccc(N(C)CCN)cc21)C(=O)O

>  <score_type>  (96) 
oracle

>  <origin>  (96) 
adg

>  <m_score__min__energy>  (96) 
-6.6299999999999999

>  <m_primary>  (96) 
energy

$$$$
96:0
     RDKit          3D

 47 48  0  0  0  0  0  0  0  0999 V2000
  142.6340  151.7380  132.9640 C   0  0  0  0  0  0  0  0  0  0  0  0
  142.5160  153.1920  132.8220 N   0  0  0  0  0  0  0  0  0  0  0  0
  143.6170  153.9670  132.2340 C   0  0  0  0  0  0  0  0  0  0  0  0
  144.5120  154.5080  133.3170 C   0  0  0  0  0  0  0  0  0  0  0  0
  144.2980  155.6290  133.7570 O   0  0  0  0  0  0  0  0  0  0  0  0
  145.6410  153.7300  133.7940 N   0  0  1  0  0  0  0  0  0  0  0  0
  145.9380  152.6160  132.8770 C   0  0  0  0  0  0  0  0  0  0  0  0
  146.8220  154.5780  134.0950 C   0  0  0  0  0  0  0  0  0  0  0  0
  147.1000  154.8070  135.5920 C   0  0  0  0  0  0  0  0  0  0  0  0
  146.5950  153.7230  136.3220 O   0  0  0  0  0  0  0  0  0  0  0  0
  141.2800  153.8340  133.1980 C   0  0  0  0  0  0  0  0  0  0  0  0
  140.2030  153.5160  132.6240 O   0  0  0  0  0  0  0  0  0  0  0  0
  141.2550  154.8560  134.2050 N   0  0  0  0  0  0  0  0  0  0  0  0
  141.8690  154.8470  135.4200 C   0  0  0  0  0  0  0  0  0  0  0  0
  142.6620  153.7310  135.9730 C   0  0  0  0  0  0  0  0  0  0  0  0
  144.0520  153.9100  136.2400 N   0  0  0  0  0  0  0  0  0  0  0  0
  142.1240  152.6200  136.2200 O   0  0  0  0  0  0  0  0  0  0  0  0
  141.6170  156.0390  136.0990 C   0  0  0  0  0  0  0  0  0  0  0  0
  140.8140  156.7760  135.2560 C   0  0  0  0  0  0  0  0  0  0  0  0
  140.2790  158.0520  135.4110 C   0  0  0  0  0  0  0  0  0  0  0  0
  139.5060  158.5730  134.3580 C   0  0  0  0  0  0  0  0  0  0  0  0
  139.2750  157.8100  133.1840 C   0  0  0  0  0  0  0  0  0  0  0  0
  138.4900  158.3980  132.0490 C   0  0  0  0  0  0  0  0  0  0  0  0
  139.5610  159.3890  131.0290 Cl  0  0  0  0  0  0  0  0  0  0  0  0
  139.8390  156.5220  133.0620 C   0  0  0  0  0  0  0  0  0  0  0  0
  140.6030  156.0320  134.1240 C   0  0  0  0  0  0  0  0  0  0  0  0
  142.6554  151.4744  134.0317 H   0  0  0  0  0  0  0  0  0  0  0  0
  141.7724  151.2515  132.4834 H   0  0  0  0  0  0  0  0  0  0  0  0
  143.5628  151.3968  132.4834 H   0  0  0  0  0  0  0  0  0  0  0  0
  144.2042  153.3163  131.5693 H   0  0  0  0  0  0  0  0  0  0  0  0
  143.1973  154.8084  131.6632 H   0  0  0  0  0  0  0  0  0  0  0  0
  145.3650  153.2910  134.7040 H   0  0  0  0  0  0  0  0  0  0  0  0
  146.1782  151.7149  133.4604 H   0  0  0  0  0  0  0  0  0  0  0  0
  145.0609  152.4192  132.2429 H   0  0  0  0  0  0  0  0  0  0  0  0
  146.7966  152.8820  132.2429 H   0  0  0  0  0  0  0  0  0  0  0  0
  147.7076  154.0970  133.6541 H   0  0  0  0  0  0  0  0  0  0  0  0
  146.6028  155.5687  133.6701 H   0  0  0  0  0  0  0  0  0  0  0  0
  148.1844  154.8894  135.7571 H   0  0  0  0  0  0  0  0  0  0  0  0
  146.6124  155.7361  135.9221 H   0  0  0  0  0  0  0  0  0  0  0  0
  145.6630  153.9640  136.5660 H   0  0  0  0  0  0  0  0  0  0  0  0
  144.6680  154.4080  135.5610 H   0  0  0  0  0  0  0  0  0  0  0  0
  141.9817  156.3290  137.0954 H   0  0  0  0  0  0  0  0  0  0  0  0
  140.4553  158.6339  136.3277 H   0  0  0  0  0  0  0  0  0  0  0  0
  139.0762  159.5818  134.4452 H   0  0  0  0  0  0  0  0  0  0  0  0
  138.0572  157.5870  131.4449 H   0  0  0  0  0  0  0  0  0  0  0  0
  137.6840  159.0290  132.4517 H   0  0  0  0  0  0  0  0  0  0  0  0
  139.6812  155.9201  132.1549 H   0  0  0  0  0  0  0  0  0  0  0  0
  1  2  1  0
  2  3  1  0
  3  4  1  0
  4  5  2  0
  4  6  1  0
  6  7  1  0
  6  8  1  0
  8  9  1  0
  9 10  1  0
  2 11  1  0
 11 12  2  0
 11 13  1  0
 13 14  1  0
 14 15  1  0
 15 16  1  0
 15 17  2  0
 14 18  2  0
 18 19  1  0
 19 20  2  0
 20 21  1  0
 21 22  2  0
 22 23  1  0
 23 24  1  0
 22 25  1  0
 25 26  2  0
 26 13  1  0
 26 19  1  0
  1 27  1  0
  1 28  1  0
  1 29  1  0
  3 30  1  0
  3 31  1  0
  6 32  1  1
  7 33  1  0
  7 34  1  0
  7 35  1  0
  8 36  1  0
  8 37  1  0
  9 38  1  0
  9 39  1  0
 10 40  1  0
 16 41  1  0
 18 42  1  0
 20 43  1  0
 21 44  1  0
 23 45  1  0
 23 46  1  0
 25 47  1  0
M  CHG  2   6   1  16  -1
M  END
>  <UniqueID>  (97) 
96

>  <SMILES>  (97) 
CN(CC(=O)[N@@H+](C)CCO)C(=O)n1c(C([NH-])=O)cc2ccc(CCl)cc21

>  <Energy>  (97) 
81.20312615027542

>  <Genealogy>  (97) 
CN(CC(=O)[NH+](C)CCO)C(=O)n1c(C([NH-])=O)cc2ccc(CCl)cc21 (protonated)
CN(CC(=O)[N@@H+](C)CCO)C(=O)n1c(C([NH-])=O)cc2ccc(CCl)cc21 (chirality)
CN(CC(=O)[N@@H+](C)CCO)C(=O)n1c(C([NH-])=O)cc2ccc(CCl)cc21 (3D coordinates assigned)
CN(CC(=O)[N@@H+](C)CCO)C(=O)n1c(C([NH-])=O)cc2ccc(CCl)cc21 (optimized conformer: 81.20312615027542 kcal/mol)

>  <smiles>  (97) 
CN(CCO)C(=O)CN(C)C(=O)n1c(C(N)=O)cc2ccc(CCl)cc21

>  <score_type>  (97) 
oracle

>  <origin>  (97) 
adg

>  <m_score__min__energy>  (97) 
-5.3399999999999999

>  <m_primary>  (97) 
energy

$$$$
97:0
     RDKit          3D

 38 39  0  0  0  0  0  0  0  0999 V2000
  143.8610  156.2480  134.8220 N   0  0  0  0  0  0  0  0  0  0  0  0
  145.1740  155.8680  134.4070 C   0  0  0  0  0  0  0  0  0  0  0  0
  145.5490  154.6760  134.5720 O   0  0  0  0  0  0  0  0  0  0  0  0
  146.1000  156.8600  133.8190 C   0  0  0  0  0  0  0  0  0  0  0  0
  147.4810  156.6830  133.7230 C   0  0  0  0  0  0  0  0  0  0  0  0
  147.9380  157.7650  133.0060 C   0  0  0  0  0  0  0  0  0  0  0  0
  149.2300  158.0960  132.6070 C   0  0  0  0  0  0  0  0  0  0  0  0
  149.4100  159.2830  131.8750 C   0  0  0  0  0  0  0  0  0  0  0  0
  148.3040  160.1150  131.5670 C   0  0  0  0  0  0  0  0  0  0  0  0
  148.5070  161.3640  130.7610 C   0  0  0  0  0  0  0  0  0  0  0  0
  149.8580  161.5550  130.5390 F   0  0  0  0  0  0  0  0  0  0  0  0
  147.0060  159.7360  131.9710 C   0  0  0  0  0  0  0  0  0  0  0  0
  146.8580  158.5490  132.6950 C   0  0  0  0  0  0  0  0  0  0  0  0
  145.7250  158.0130  133.1950 N   0  0  0  0  0  0  0  0  0  0  0  0
  144.4120  158.5890  133.1200 C   0  0  0  0  0  0  0  0  0  0  0  0
  143.4730  157.9330  132.5930 O   0  0  0  0  0  0  0  0  0  0  0  0
  144.1620  159.9970  133.5750 C   0  0  0  0  0  0  0  0  0  0  0  0
  142.3800  160.2930  133.8010 P   0  0  1  0  0  0  0  0  0  0  0  0
  142.1190  161.7800  133.7130 O   0  0  0  0  0  0  0  0  0  0  0  0
  141.5340  159.5260  132.5510 O   0  0  0  0  0  0  0  0  0  0  0  0
  141.7710  159.6670  135.4030 C   0  0  0  0  0  0  0  0  0  0  0  0
  141.2170  157.9370  135.2820 P   0  0  0  0  0  0  0  0  0  0  0  0
  141.4620  157.4100  133.8860 O   0  0  0  0  0  0  0  0  0  0  0  0
  142.0920  157.0040  136.3870 O   0  0  0  0  0  0  0  0  0  0  0  0
  139.5710  157.8180  135.6480 O   0  0  0  0  0  0  0  0  0  0  0  0
  143.4920  157.2080  134.6410 H   0  0  0  0  0  0  0  0  0  0  0  0
  143.2300  155.5470  135.2700 H   0  0  0  0  0  0  0  0  0  0  0  0
  148.0774  155.8547  134.1333 H   0  0  0  0  0  0  0  0  0  0  0  0
  150.0838  157.4489  132.8567 H   0  0  0  0  0  0  0  0  0  0  0  0
  150.4176  159.5686  131.5384 H   0  0  0  0  0  0  0  0  0  0  0  0
  147.9872  161.2664  129.7965 H   0  0  0  0  0  0  0  0  0  0  0  0
  148.1006  162.2254  131.3113 H   0  0  0  0  0  0  0  0  0  0  0  0
  146.1335  160.3582  131.7228 H   0  0  0  0  0  0  0  0  0  0  0  0
  144.6801  160.1651  134.5307 H   0  0  0  0  0  0  0  0  0  0  0  0
  144.5412  160.6890  132.8086 H   0  0  0  0  0  0  0  0  0  0  0  0
  142.0950  158.7530  132.2970 H   0  0  0  0  0  0  0  0  0  0  0  0
  142.5827  159.7307  136.1427 H   0  0  0  0  0  0  0  0  0  0  0  0
  140.9115  160.2822  135.7077 H   0  0  0  0  0  0  0  0  0  0  0  0
  1  2  1  0
  2  3  2  0
  2  4  1  0
  4  5  2  0
  5  6  1  0
  6  7  2  0
  7  8  1  0
  8  9  2  0
  9 10  1  0
 10 11  1  0
  9 12  1  0
 12 13  2  0
 13 14  1  0
 14 15  1  0
 15 16  2  0
 15 17  1  0
 17 18  1  0
 18 19  2  0
 18 20  1  6
 18 21  1  0
 21 22  1  0
 22 23  2  0
 22 24  1  0
 22 25  1  0
 14  4  1  0
 13  6  1  0
  1 26  1  0
  1 27  1  0
  5 28  1  0
  7 29  1  0
  8 30  1  0
 10 31  1  0
 10 32  1  0
 12 33  1  0
 17 34  1  0
 17 35  1  0
 20 36  1  0
 21 37  1  0
 21 38  1  0
M  CHG  2  24  -1  25  -1
M  END
>  <UniqueID>  (98) 
97

>  <SMILES>  (98) 
NC(=O)c1cc2ccc(CF)cc2n1C(=O)C[P@@](=O)(O)CP(=O)([O-])[O-]

>  <Energy>  (98) 
62.64987012174484

>  <Genealogy>  (98) 
NC(=O)c1cc2ccc(CF)cc2n1C(=O)CP(=O)(O)CP(=O)([O-])[O-] (protonated)
NC(=O)c1cc2ccc(CF)cc2n1C(=O)C[P@@](=O)(O)CP(=O)([O-])[O-] (chirality)
NC(=O)c1cc2ccc(CF)cc2n1C(=O)C[P@@](=O)(O)CP(=O)([O-])[O-] (3D coordinates assigned)
NC(=O)c1cc2ccc(CF)cc2n1C(=O)C[P@@](=O)(O)CP(=O)([O-])[O-] (optimized conformer: 62.64987012174484 kcal/mol)

>  <smiles>  (98) 
NC(=O)c1cc2ccc(CF)cc2n1C(=O)CP(=O)(O)CP(=O)(O)O

>  <score_type>  (98) 
oracle

>  <origin>  (98) 
adg

>  <m_score__min__energy>  (98) 
-5.75

>  <m_primary>  (98) 
energy

$$$$
98:0
     RDKit          3D

 46 47  0  0  0  0  0  0  0  0999 V2000
  139.2520  149.2090  130.5080 C   0  0  0  0  0  0  0  0  0  0  0  0
  139.1540  149.7460  131.9330 C   0  0  0  0  0  0  0  0  0  0  0  0
  140.4110  150.4800  132.3120 C   0  0  0  0  0  0  0  0  0  0  0  0
  141.6600  149.8100  132.2920 C   0  0  0  0  0  0  0  0  0  0  0  0
  142.8470  150.4960  132.6070 C   0  0  0  0  0  0  0  0  0  0  0  0
  142.7520  151.8480  132.9290 C   0  0  0  0  0  0  0  0  0  0  0  0
  143.7350  152.7540  133.2540 C   0  0  0  0  0  0  0  0  0  0  0  0
  143.0700  153.9610  133.4660 C   0  0  0  0  0  0  0  0  0  0  0  0
  143.7410  155.2000  133.9080 C   0  0  0  0  0  0  0  0  0  0  0  0
  143.8110  156.3220  133.0310 N   0  0  0  0  0  0  0  0  0  0  0  0
  144.2740  155.2720  135.0460 O   0  0  0  0  0  0  0  0  0  0  0  0
  141.7300  153.8050  133.2720 N   0  0  0  0  0  0  0  0  0  0  0  0
  140.6940  154.7990  133.3380 C   0  0  0  0  0  0  0  0  0  0  0  0
  139.5010  154.4560  133.1250 O   0  0  0  0  0  0  0  0  0  0  0  0
  141.0310  156.2230  133.5640 C   0  0  0  0  0  0  0  0  0  0  0  0
  140.8190  157.0500  132.6330 O   0  0  0  0  0  0  0  0  0  0  0  0
  141.5470  156.6860  134.8450 N   0  0  2  0  0  0  0  0  0  0  0  0
  141.3340  155.6240  135.8560 C   0  0  0  0  0  0  0  0  0  0  0  0
  141.0030  158.0310  135.2430 C   0  0  0  0  0  0  0  0  0  0  0  0
  139.5190  158.1760  134.8110 C   0  0  0  0  0  0  0  0  0  0  0  0
  141.0100  158.1680  136.7900 C   0  0  0  0  0  0  0  0  0  0  0  0
  141.8070  159.1780  134.6330 C   0  0  0  0  0  0  0  0  0  0  0  0
  141.4050  160.3680  134.7300 O   0  0  0  0  0  0  0  0  0  0  0  0
  143.0210  158.9330  133.9980 O   0  0  0  0  0  0  0  0  0  0  0  0
  141.5520  152.5070  132.9510 C   0  0  0  0  0  0  0  0  0  0  0  0
  140.3570  151.8540  132.6330 C   0  0  0  0  0  0  0  0  0  0  0  0
  139.4494  148.1272  130.5366 H   0  0  0  0  0  0  0  0  0  0  0  0
  138.3051  149.3951  129.9801 H   0  0  0  0  0  0  0  0  0  0  0  0
  140.0722  149.7176  129.9801 H   0  0  0  0  0  0  0  0  0  0  0  0
  138.2991  150.4348  132.0014 H   0  0  0  0  0  0  0  0  0  0  0  0
  139.0177  148.8991  132.6216 H   0  0  0  0  0  0  0  0  0  0  0  0
  141.7015  148.7431  132.0276 H   0  0  0  0  0  0  0  0  0  0  0  0
  143.8191  149.9813  132.5993 H   0  0  0  0  0  0  0  0  0  0  0  0
  144.8161  152.5660  133.3304 H   0  0  0  0  0  0  0  0  0  0  0  0
  143.0230  157.0040  132.9700 H   0  0  0  0  0  0  0  0  0  0  0  0
  142.5880  156.7770  134.7640 H   0  0  0  0  0  0  0  0  0  0  0  0
  141.4204  156.0550  136.8643 H   0  0  0  0  0  0  0  0  0  0  0  0
  140.3311  155.1909  135.7271 H   0  0  0  0  0  0  0  0  0  0  0  0
  142.0923  154.8376  135.7271 H   0  0  0  0  0  0  0  0  0  0  0  0
  138.8813  158.2383  135.7051 H   0  0  0  0  0  0  0  0  0  0  0  0
  139.3994  159.0901  134.2109 H   0  0  0  0  0  0  0  0  0  0  0  0
  139.2248  157.3023  134.2109 H   0  0  0  0  0  0  0  0  0  0  0  0
  140.9590  157.1686  137.2468 H   0  0  0  0  0  0  0  0  0  0  0  0
  141.9349  158.6704  137.1094 H   0  0  0  0  0  0  0  0  0  0  0  0
  140.1410  158.7619  137.1094 H   0  0  0  0  0  0  0  0  0  0  0  0
  139.4001  152.3965  132.6329 H   0  0  0  0  0  0  0  0  0  0  0  0
  1  2  1  0
  2  3  1  0
  3  4  2  0
  4  5  1  0
  5  6  2  0
  6  7  1  0
  7  8  2  0
  8  9  1  0
  9 10  1  0
  9 11  2  0
  8 12  1  0
 12 13  1  0
 13 14  2  0
 13 15  1  0
 15 16  2  0
 15 17  1  0
 17 18  1  0
 17 19  1  0
 19 20  1  0
 19 21  1  0
 19 22  1  0
 22 23  2  0
 22 24  1  0
 12 25  1  0
 25 26  2  0
 26  3  1  0
 25  6  1  0
  1 27  1  0
  1 28  1  0
  1 29  1  0
  2 30  1  0
  2 31  1  0
  4 32  1  0
  5 33  1  0
  7 34  1  0
 10 35  1  0
 17 36  1  6
 18 37  1  0
 18 38  1  0
 18 39  1  0
 20 40  1  0
 20 41  1  0
 20 42  1  0
 21 43  1  0
 21 44  1  0
 21 45  1  0
 26 46  1  0
M  CHG  3  10  -1  17   1  24  -1
M  END
>  <UniqueID>  (99) 
98

>  <SMILES>  (99) 
CCc1ccc2cc(C([NH-])=O)n(C(=O)C(=O)[N@H+](C)C(C)(C)C(=O)[O-])c2c1

>  <Energy>  (99) 
92.04128678352721

>  <Genealogy>  (99) 
CCc1ccc2cc(C([NH-])=O)n(C(=O)C(=O)[NH+](C)C(C)(C)C(=O)[O-])c2c1 (protonated)
CCc1ccc2cc(C([NH-])=O)n(C(=O)C(=O)[N@H+](C)C(C)(C)C(=O)[O-])c2c1 (chirality)
CCc1ccc2cc(C([NH-])=O)n(C(=O)C(=O)[N@H+](C)C(C)(C)C(=O)[O-])c2c1 (3D coordinates assigned)
CCc1ccc2cc(C([NH-])=O)n(C(=O)C(=O)[N@H+](C)C(C)(C)C(=O)[O-])c2c1 (optimized conformer: 92.04128678352721 kcal/mol)

>  <smiles>  (99) 
CCc1ccc2cc(C(N)=O)n(C(=O)C(=O)N(C)C(C)(C)C(=O)O)c2c1

>  <score_type>  (99) 
oracle

>  <origin>  (99) 
adg

>  <m_score__min__energy>  (99) 
-7.2699999999999996

>  <m_primary>  (99) 
energy

$$$$
