0:0
     RDKit          3D

 25 26  0  0  0  0  0  0  0  0999 V2000
  145.3040  160.7390  133.7500 N   0  0  0  0  0  0  0  0  0  0  0  0
  145.3870  159.4640  133.1160 C   0  0  0  0  0  0  0  0  0  0  0  0
  144.3470  158.9480  132.6250 O   0  0  0  0  0  0  0  0  0  0  0  0
  146.6410  158.7660  133.0460 N   0  0  0  0  0  0  0  0  0  0  0  0
  146.9210  157.5200  133.5230 C   0  0  0  0  0  0  0  0  0  0  0  0
  146.0260  156.6900  134.3530 C   0  0  0  0  0  0  0  0  0  0  0  0
  144.6080  156.7310  134.1840 N   0  0  0  0  0  0  0  0  0  0  0  0
  146.5160  155.9730  135.2660 O   0  0  0  0  0  0  0  0  0  0  0  0
  148.2050  157.1280  133.1550 C   0  0  0  0  0  0  0  0  0  0  0  0
  148.7160  158.1870  132.4420 C   0  0  0  0  0  0  0  0  0  0  0  0
  149.9550  158.3300  131.8220 C   0  0  0  0  0  0  0  0  0  0  0  0
  150.2030  159.5170  131.1120 C   0  0  0  0  0  0  0  0  0  0  0  0
  149.2120  160.5230  131.0270 C   0  0  0  0  0  0  0  0  0  0  0  0
  149.4700  161.7200  130.2880 N   0  0  0  0  0  0  0  0  0  0  0  0
  147.9660  160.3440  131.6650 C   0  0  0  0  0  0  0  0  0  0  0  0
  147.7540  159.1620  132.3860 C   0  0  0  0  0  0  0  0  0  0  0  0
  145.6100  161.6050  133.2550 H   0  0  0  0  0  0  0  0  0  0  0  0
  143.9940  156.1060  134.7520 H   0  0  0  0  0  0  0  0  0  0  0  0
  144.1600  157.4390  133.5620 H   0  0  0  0  0  0  0  0  0  0  0  0
  148.7040  156.1751  133.3853 H   0  0  0  0  0  0  0  0  0  0  0  0
  150.7159  157.5382  131.8862 H   0  0  0  0  0  0  0  0  0  0  0  0
  151.1749  159.6651  130.6186 H   0  0  0  0  0  0  0  0  0  0  0  0
  150.3910  162.2080  130.3650 H   0  0  0  0  0  0  0  0  0  0  0  0
  148.7430  162.1270  129.6580 H   0  0  0  0  0  0  0  0  0  0  0  0
  147.1819  161.1125  131.5978 H   0  0  0  0  0  0  0  0  0  0  0  0
  1  2  1  0
  2  3  2  0
  2  4  1  0
  4  5  1  0
  5  6  1  0
  6  7  1  0
  6  8  2  0
  5  9  2  0
  9 10  1  0
 10 11  2  0
 11 12  1  0
 12 13  2  0
 13 14  1  0
 13 15  1  0
 15 16  2  0
 16  4  1  0
 16 10  1  0
  1 17  1  0
  7 18  1  0
  7 19  1  0
  9 20  1  0
 11 21  1  0
 12 22  1  0
 14 23  1  0
 14 24  1  0
 15 25  1  0
M  CHG  1   1  -1
M  END
>  <UniqueID>  (1) 
1

>  <SMILES>  (1) 
[NH-]C(=O)n1c(C(N)=O)cc2ccc(N)cc21

>  <Energy>  (1) 
64.39261791988704

>  <Genealogy>  (1) 
[NH-]C(=O)n1c(C(N)=O)cc2ccc(N)cc21 (protonated)
[NH-]C(=O)n1c(C(N)=O)cc2ccc(N)cc21 (3D coordinates assigned)
[NH-]C(=O)n1c(C(N)=O)cc2ccc(N)cc21 (optimized conformer: 64.39261791988704 kcal/mol)

>  <smiles>  (1) 
NC(=O)c1cc2ccc(N)cc2n1C(N)=O

>  <score_type>  (1) 
oracle

>  <origin>  (1) 
adg

>  <m_score__min__energy>  (1) 
-6.1699999999999999

>  <m_primary>  (1) 
energy

$$$$
1:0
     RDKit          3D

 55 57  0  0  0  0  0  0  0  0999 V2000
  148.3760  153.2360  137.5620 C   0  0  0  0  0  0  0  0  0  0  0  0
  147.2230  153.3270  136.7340 O   0  0  0  0  0  0  0  0  0  0  0  0
  147.0840  154.2940  135.7330 C   0  0  0  0  0  0  0  0  0  0  0  0
  147.7820  155.3470  135.7590 O   0  0  0  0  0  0  0  0  0  0  0  0
  146.1030  154.0740  134.6580 C   0  0  0  0  0  0  0  0  0  0  0  0
  146.4860  153.8860  133.3230 C   0  0  0  0  0  0  0  0  0  0  0  0
  145.5320  153.7450  132.3640 N   0  0  0  0  0  0  0  0  0  0  0  0
  144.2080  153.7880  132.6730 C   0  0  0  0  0  0  0  0  0  0  0  0
  143.8200  153.9570  134.0070 C   0  0  0  0  0  0  0  0  0  0  0  0
  142.3740  154.0910  134.3960 C   0  0  0  0  0  0  0  0  0  0  0  0
  141.5720  154.9010  133.3620 C   0  0  0  0  0  0  0  0  0  0  0  0
  141.6680  156.3890  133.6030 C   0  0  0  0  0  0  0  0  0  0  0  0
  140.4920  157.1820  133.6220 C   0  0  0  0  0  0  0  0  0  0  0  0
  140.5730  158.5820  133.6960 C   0  0  0  0  0  0  0  0  0  0  0  0
  141.8370  159.1610  133.7490 C   0  0  0  0  0  0  0  0  0  0  0  0
  142.2030  160.4870  133.7330 C   0  0  0  0  0  0  0  0  0  0  0  0
  143.5960  160.4860  133.7250 C   0  0  0  0  0  0  0  0  0  0  0  0
  144.4150  161.7160  133.7450 C   0  0  0  0  0  0  0  0  0  0  0  0
  145.7980  161.6710  134.0900 N   0  0  0  0  0  0  0  0  0  0  0  0
  143.8760  162.8290  133.4930 O   0  0  0  0  0  0  0  0  0  0  0  0
  144.0720  159.2090  133.7350 N   0  0  0  0  0  0  0  0  0  0  0  0
  145.4320  158.7820  133.5760 C   0  0  0  0  0  0  0  0  0  0  0  0
  145.8400  157.7590  134.1920 O   0  0  0  0  0  0  0  0  0  0  0  0
  146.2750  159.4880  132.7060 O   0  0  0  0  0  0  0  0  0  0  0  0
  147.6730  159.2490  132.4920 C   0  0  0  0  0  0  0  0  0  0  0  0
  148.4930  159.6840  133.7220 C   0  0  0  0  0  0  0  0  0  0  0  0
  148.0980  160.1000  131.2870 C   0  0  0  0  0  0  0  0  0  0  0  0
  147.9280  157.7650  132.1650 C   0  0  0  0  0  0  0  0  0  0  0  0
  142.9830  158.4090  133.7520 C   0  0  0  0  0  0  0  0  0  0  0  0
  142.9340  157.0120  133.6770 C   0  0  0  0  0  0  0  0  0  0  0  0
  144.7790  154.0970  134.9600 N   0  0  0  0  0  0  0  0  0  0  0  0
  148.0714  153.2600  138.6187 H   0  0  0  0  0  0  0  0  0  0  0  0
  148.9035  152.2934  137.3538 H   0  0  0  0  0  0  0  0  0  0  0  0
  149.0448  154.0841  137.3538 H   0  0  0  0  0  0  0  0  0  0  0  0
  147.5517  153.8527  133.0525 H   0  0  0  0  0  0  0  0  0  0  0  0
  145.8210  153.6110  131.3700 H   0  0  0  0  0  0  0  0  0  0  0  0
  143.4497  153.6909  131.8821 H   0  0  0  0  0  0  0  0  0  0  0  0
  141.9339  153.0863  134.4790 H   0  0  0  0  0  0  0  0  0  0  0  0
  142.3284  154.6257  135.3562 H   0  0  0  0  0  0  0  0  0  0  0  0
  141.9627  154.6789  132.3580 H   0  0  0  0  0  0  0  0  0  0  0  0
  140.5146  154.6119  133.4535 H   0  0  0  0  0  0  0  0  0  0  0  0
  139.5065  156.6953  133.5783 H   0  0  0  0  0  0  0  0  0  0  0  0
  139.6646  159.2021  133.7116 H   0  0  0  0  0  0  0  0  0  0  0  0
  141.5369  161.3624  133.7277 H   0  0  0  0  0  0  0  0  0  0  0  0
  146.5300  161.5400  133.3570 H   0  0  0  0  0  0  0  0  0  0  0  0
  147.9568  159.3996  134.6394 H   0  0  0  0  0  0  0  0  0  0  0  0
  149.4747  159.1881  133.7023 H   0  0  0  0  0  0  0  0  0  0  0  0
  148.6328  160.7749  133.7023 H   0  0  0  0  0  0  0  0  0  0  0  0
  148.5632  161.0315  131.6418 H   0  0  0  0  0  0  0  0  0  0  0  0
  148.8212  159.5379  130.6779 H   0  0  0  0  0  0  0  0  0  0  0  0
  147.2142  160.3404  130.6779 H   0  0  0  0  0  0  0  0  0  0  0  0
  148.0259  157.1949  133.1006 H   0  0  0  0  0  0  0  0  0  0  0  0
  147.0849  157.3682  131.5804 H   0  0  0  0  0  0  0  0  0  0  0  0
  148.8552  157.6724  131.5804 H   0  0  0  0  0  0  0  0  0  0  0  0
  143.8576  156.4145  133.6757 H   0  0  0  0  0  0  0  0  0  0  0  0
  1  2  1  0
  2  3  1  0
  3  4  2  0
  3  5  1  0
  5  6  2  0
  6  7  1  0
  7  8  2  0
  8  9  1  0
  9 10  1  0
 10 11  1  0
 11 12  1  0
 12 13  2  0
 13 14  1  0
 14 15  2  0
 15 16  1  0
 16 17  2  0
 17 18  1  0
 18 19  1  0
 18 20  2  0
 17 21  1  0
 21 22  1  0
 22 23  2  0
 22 24  1  0
 24 25  1  0
 25 26  1  0
 25 27  1  0
 25 28  1  0
 21 29  1  0
 29 30  2  0
  9 31  2  0
 31  5  1  0
 30 12  1  0
 29 15  1  0
  1 32  1  0
  1 33  1  0
  1 34  1  0
  6 35  1  0
  7 36  1  0
  8 37  1  0
 10 38  1  0
 10 39  1  0
 11 40  1  0
 11 41  1  0
 13 42  1  0
 14 43  1  0
 16 44  1  0
 19 45  1  0
 26 46  1  0
 26 47  1  0
 26 48  1  0
 27 49  1  0
 27 50  1  0
 27 51  1  0
 28 52  1  0
 28 53  1  0
 28 54  1  0
 30 55  1  0
M  CHG  2   7   1  19  -1
M  END
>  <UniqueID>  (2) 
2

>  <SMILES>  (2) 
COC(=O)c1c[nH+]cc(CCc2ccc3cc(C([NH-])=O)n(C(=O)OC(C)(C)C)c3c2)n1

>  <Energy>  (2) 
82.73559718948351

>  <Genealogy>  (2) 
COC(=O)c1c[nH+]cc(CCc2ccc3cc(C([NH-])=O)n(C(=O)OC(C)(C)C)c3c2)n1 (protonated)
COC(=O)c1c[nH+]cc(CCc2ccc3cc(C([NH-])=O)n(C(=O)OC(C)(C)C)c3c2)n1 (3D coordinates assigned)
COC(=O)c1c[nH+]cc(CCc2ccc3cc(C([NH-])=O)n(C(=O)OC(C)(C)C)c3c2)n1 (optimized conformer: 82.73559718948351 kcal/mol)

>  <smiles>  (2) 
COC(=O)c1cncc(CCc2ccc3cc(C(N)=O)n(C(=O)OC(C)(C)C)c3c2)n1

>  <score_type>  (2) 
oracle

>  <origin>  (2) 
adg

>  <m_score__min__energy>  (2) 
-8.1099999999999994

>  <m_primary>  (2) 
energy

$$$$
2:0
     RDKit          3D

 82 86  0  0  0  0  0  0  0  0999 V2000
  148.1030  153.7580  134.3290 C   0  0  0  0  0  0  0  0  0  0  0  0
  146.8450  154.6090  134.5620 C   0  0  0  0  0  0  0  0  0  0  0  0
  145.8720  154.3920  133.3870 C   0  0  0  0  0  0  0  0  0  0  0  0
  146.1950  154.1840  135.8920 C   0  0  0  0  0  0  0  0  0  0  0  0
  147.2680  155.9800  134.6180 O   0  0  0  0  0  0  0  0  0  0  0  0
  147.4120  156.8550  133.5310 C   0  0  0  0  0  0  0  0  0  0  0  0
  148.2760  156.6340  132.6370 O   0  0  0  0  0  0  0  0  0  0  0  0
  146.5820  158.0270  133.4480 N   0  0  0  0  0  0  0  0  0  0  0  0
  146.9340  159.2560  132.9700 C   0  0  0  0  0  0  0  0  0  0  0  0
  148.3000  159.6740  132.5870 C   0  0  0  0  0  0  0  0  0  0  0  0
  149.4420  158.9560  133.0590 N   0  0  0  0  0  0  0  0  0  0  0  0
  148.4730  160.6620  131.8230 O   0  0  0  0  0  0  0  0  0  0  0  0
  145.8370  160.1160  132.9800 C   0  0  0  0  0  0  0  0  0  0  0  0
  144.7960  159.3750  133.4870 C   0  0  0  0  0  0  0  0  0  0  0  0
  143.4730  159.7360  133.7170 C   0  0  0  0  0  0  0  0  0  0  0  0
  142.6030  158.7620  134.2340 C   0  0  0  0  0  0  0  0  0  0  0  0
  143.0620  157.4430  134.4960 C   0  0  0  0  0  0  0  0  0  0  0  0
  142.1210  156.3950  135.0640 C   0  0  2  0  0  0  0  0  0  0  0  0
  141.3980  156.8800  136.3560 C   0  0  0  0  0  0  0  0  0  0  0  0
  141.8310  156.1470  137.6410 C   0  0  0  0  0  0  0  0  0  0  0  0
  141.8630  154.5890  137.5270 C   0  0  1  0  0  0  0  0  0  0  0  0
  140.7450  153.8720  138.2160 N   0  0  0  0  0  0  0  0  0  0  0  0
  139.8960  154.7270  139.0600 C   0  0  0  0  0  0  0  0  0  0  0  0
  140.2180  154.4280  140.5220 C   0  0  0  0  0  0  0  0  0  0  0  0
  141.0560  153.1610  140.5160 C   0  0  0  0  0  0  0  0  0  0  0  0
  141.0650  152.6980  139.0600 C   0  0  2  0  0  0  0  0  0  0  0  0
  142.3410  151.8930  138.6970 C   0  0  0  0  0  0  0  0  0  0  0  0
  143.4260  152.0540  139.6970 N   0  0  0  0  0  0  0  0  0  0  0  0
  143.5150  150.8680  140.5920 C   0  0  0  0  0  0  0  0  0  0  0  0
  144.5950  149.8730  140.1450 C   0  0  0  0  0  0  0  0  0  0  0  0
  145.9930  150.5320  140.1640 C   0  0  0  0  0  0  0  0  0  0  0  0
  146.8470  149.9110  139.2350 O   0  0  0  0  0  0  0  0  0  0  0  0
  145.9310  152.0580  139.9280 C   0  0  0  0  0  0  0  0  0  0  0  0
  144.7190  152.4380  139.0660 C   0  0  0  0  0  0  0  0  0  0  0  0
  142.0060  154.0850  136.0690 C   0  0  0  0  0  0  0  0  0  0  0  0
  142.8530  155.0490  135.2380 C   0  0  0  0  0  0  0  0  0  0  0  0
  144.4180  157.1180  134.2570 C   0  0  0  0  0  0  0  0  0  0  0  0
  145.2680  158.1160  133.7610 C   0  0  0  0  0  0  0  0  0  0  0  0
  148.5334  153.4668  135.2985 H   0  0  0  0  0  0  0  0  0  0  0  0
  147.8348  152.8551  133.7608 H   0  0  0  0  0  0  0  0  0  0  0  0
  148.8413  154.3429  133.7608 H   0  0  0  0  0  0  0  0  0  0  0  0
  144.8686  154.1682  133.7784 H   0  0  0  0  0  0  0  0  0  0  0  0
  145.8309  155.3030  132.7719 H   0  0  0  0  0  0  0  0  0  0  0  0
  146.2219  153.5498  132.7719 H   0  0  0  0  0  0  0  0  0  0  0  0
  146.7899  154.5729  136.7316 H   0  0  0  0  0  0  0  0  0  0  0  0
  145.1740  154.5895  135.9472 H   0  0  0  0  0  0  0  0  0  0  0  0
  146.1570  153.0860  135.9472 H   0  0  0  0  0  0  0  0  0  0  0  0
  150.4010  159.2520  132.7720 H   0  0  0  0  0  0  0  0  0  0  0  0
  149.3430  158.1700  133.7390 H   0  0  0  0  0  0  0  0  0  0  0  0
  145.8100  161.1655  132.6517 H   0  0  0  0  0  0  0  0  0  0  0  0
  143.1182  160.7544  133.5004 H   0  0  0  0  0  0  0  0  0  0  0  0
  141.5542  159.0233  134.4384 H   0  0  0  0  0  0  0  0  0  0  0  0
  141.3132  156.2303  134.3358 H   0  0  0  0  0  0  0  0  0  0  0  0
  141.6062  157.9524  136.4848 H   0  0  0  0  0  0  0  0  0  0  0  0
  140.3283  156.6647  136.2169 H   0  0  0  0  0  0  0  0  0  0  0  0
  142.8410  156.4915  137.9077 H   0  0  0  0  0  0  0  0  0  0  0  0
  141.0755  156.3864  138.4038 H   0  0  0  0  0  0  0  0  0  0  0  0
  142.7779  154.3281  138.0792 H   0  0  0  0  0  0  0  0  0  0  0  0
  140.1016  155.7856  138.8428 H   0  0  0  0  0  0  0  0  0  0  0  0
  138.8339  154.5252  138.8568 H   0  0  0  0  0  0  0  0  0  0  0  0
  140.7853  155.2592  140.9661 H   0  0  0  0  0  0  0  0  0  0  0  0
  139.3023  154.3024  141.1185 H   0  0  0  0  0  0  0  0  0  0  0  0
  142.0790  153.3727  140.8604 H   0  0  0  0  0  0  0  0  0  0  0  0
  140.6484  152.3936  141.1905 H   0  0  0  0  0  0  0  0  0  0  0  0
  140.2844  151.9476  138.8661 H   0  0  0  0  0  0  0  0  0  0  0  0
  142.0776  150.8269  138.6326 H   0  0  0  0  0  0  0  0  0  0  0  0
  142.7148  152.2794  137.7374 H   0  0  0  0  0  0  0  0  0  0  0  0
  143.7515  151.2114  141.6099 H   0  0  0  0  0  0  0  0  0  0  0  0
  142.5462  150.3482  140.5549 H   0  0  0  0  0  0  0  0  0  0  0  0
  144.5942  149.0100  140.8271 H   0  0  0  0  0  0  0  0  0  0  0  0
  144.3722  149.5503  139.1173 H   0  0  0  0  0  0  0  0  0  0  0  0
  146.4054  150.3858  141.1732 H   0  0  0  0  0  0  0  0  0  0  0  0
  147.4250  149.2770  139.7330 H   0  0  0  0  0  0  0  0  0  0  0  0
  145.8545  152.5684  140.8994 H   0  0  0  0  0  0  0  0  0  0  0  0
  146.8449  152.3659  139.3988 H   0  0  0  0  0  0  0  0  0  0  0  0
  144.7252  153.5268  138.9094 H   0  0  0  0  0  0  0  0  0  0  0  0
  144.8014  151.8915  138.1149 H   0  0  0  0  0  0  0  0  0  0  0  0
  142.4881  153.0963  136.0756 H   0  0  0  0  0  0  0  0  0  0  0  0
  141.0039  154.0215  135.6197 H   0  0  0  0  0  0  0  0  0  0  0  0
  143.8119  155.2213  135.7486 H   0  0  0  0  0  0  0  0  0  0  0  0
  143.0270  154.6067  134.2460 H   0  0  0  0  0  0  0  0  0  0  0  0
  144.7968  156.1046  134.4560 H   0  0  0  0  0  0  0  0  0  0  0  0
  1  2  1  0
  2  3  1  0
  2  4  1  0
  2  5  1  0
  5  6  1  0
  6  7  2  0
  6  8  1  0
  8  9  1  0
  9 10  1  0
 10 11  1  0
 10 12  2  0
  9 13  2  0
 13 14  1  0
 14 15  2  0
 15 16  1  0
 16 17  2  0
 17 18  1  0
 18 19  1  0
 19 20  1  0
 20 21  1  0
 21 22  1  0
 22 23  1  0
 23 24  1  0
 24 25  1  0
 25 26  1  0
 26 27  1  0
 27 28  1  0
 28 29  1  0
 29 30  1  0
 30 31  1  0
 31 32  1  0
 31 33  1  0
 33 34  1  0
 21 35  1  0
 35 36  1  0
 17 37  1  0
 37 38  2  0
 38  8  1  0
 38 14  1  0
 36 18  1  0
 26 22  1  0
 34 28  1  0
  1 39  1  0
  1 40  1  0
  1 41  1  0
  3 42  1  0
  3 43  1  0
  3 44  1  0
  4 45  1  0
  4 46  1  0
  4 47  1  0
 11 48  1  0
 11 49  1  0
 13 50  1  0
 15 51  1  0
 16 52  1  0
 18 53  1  6
 19 54  1  0
 19 55  1  0
 20 56  1  0
 20 57  1  0
 21 58  1  1
 23 59  1  0
 23 60  1  0
 24 61  1  0
 24 62  1  0
 25 63  1  0
 25 64  1  0
 26 65  1  1
 27 66  1  0
 27 67  1  0
 29 68  1  0
 29 69  1  0
 30 70  1  0
 30 71  1  0
 31 72  1  0
 32 73  1  0
 33 74  1  0
 33 75  1  0
 34 76  1  0
 34 77  1  0
 35 78  1  0
 35 79  1  0
 36 80  1  0
 36 81  1  0
 37 82  1  0
M  END
>  <UniqueID>  (3) 
3

>  <SMILES>  (3) 
CC(C)(C)OC(=O)n1c(C(N)=O)cc2ccc(C3CCC(N4CCC[C@@H]4CN4CCC(O)CC4)CC3)cc21

>  <Energy>  (3) 
147.7056977578252

>  <Genealogy>  (3) 
CC(C)(C)OC(=O)n1c(C(N)=O)cc2ccc(C3CCC(N4CCC[C@@H]4CN4CCC(O)CC4)CC3)cc21 (3D coordinates assigned)
CC(C)(C)OC(=O)n1c(C(N)=O)cc2ccc(C3CCC(N4CCC[C@@H]4CN4CCC(O)CC4)CC3)cc21 (nonaromatic ring conformer: 147.7056977578252 kcal/mol)

>  <smiles>  (3) 
CC(C)(C)OC(=O)n1c(C(N)=O)cc2ccc(C3CCC(N4CCC[C@@H]4CN4CCC(O)CC4)CC3)cc21

>  <score_type>  (3) 
oracle

>  <origin>  (3) 
adg

>  <m_score__min__energy>  (3) 
-11.02

>  <m_primary>  (3) 
energy

$$$$
3:0
     RDKit          3D

 62 67  0  0  0  0  0  0  0  0999 V2000
  139.1010  148.7930  128.4850 C   0  0  0  0  0  0  0  0  0  0  0  0
  139.1970  147.8020  129.5730 N   0  0  0  0  0  0  0  0  0  0  0  0
  138.2450  148.0990  130.6790 C   0  0  0  0  0  0  0  0  0  0  0  0
  138.9220  148.6360  131.9560 C   0  0  0  0  0  0  0  0  0  0  0  0
  140.0810  149.4640  131.6030 N   0  0  0  0  0  0  0  0  0  0  0  0
  140.2070  150.8290  132.0570 C   0  0  0  0  0  0  0  0  0  0  0  0
  141.4650  151.3940  132.3110 C   0  0  0  0  0  0  0  0  0  0  0  0
  141.5640  152.6890  132.7080 N   0  0  0  0  0  0  0  0  0  0  0  0
  140.4600  153.4660  132.8710 C   0  0  0  0  0  0  0  0  0  0  0  0
  140.5970  154.8780  133.3000 C   0  0  0  0  0  0  0  0  0  0  0  0
  139.4420  155.6620  133.5740 C   0  0  0  0  0  0  0  0  0  0  0  0
  139.5630  157.0020  133.9890 C   0  0  0  0  0  0  0  0  0  0  0  0
  140.8430  157.5290  134.1180 C   0  0  0  0  0  0  0  0  0  0  0  0
  141.1840  158.7690  134.4940 N   0  0  0  0  0  0  0  0  0  0  0  0
  142.5390  158.7240  134.4450 C   0  0  0  0  0  0  0  0  0  0  0  0
  143.3470  159.8700  134.7430 N   0  0  0  0  0  0  0  0  0  0  0  0
  144.6690  160.0840  134.2210 C   0  0  0  0  0  0  0  0  0  0  0  0
  145.2230  161.3880  134.2520 C   0  0  0  0  0  0  0  0  0  0  0  0
  146.5220  161.6290  133.7720 C   0  0  0  0  0  0  0  0  0  0  0  0
  147.2390  160.5490  133.2620 C   0  0  0  0  0  0  0  0  0  0  0  0
  148.5200  160.4920  132.7620 C   0  0  0  0  0  0  0  0  0  0  0  0
  148.7270  159.1560  132.4250 C   0  0  0  0  0  0  0  0  0  0  0  0
  149.9650  158.6590  131.7880 C   0  0  0  0  0  0  0  0  0  0  0  0
  150.6150  159.4060  130.7640 N   0  0  0  0  0  0  0  0  0  0  0  0
  150.4720  157.5710  132.1770 O   0  0  0  0  0  0  0  0  0  0  0  0
  147.6200  158.4150  132.7130 N   0  0  0  0  0  0  0  0  0  0  0  0
  147.4400  156.9960  132.5480 C   0  0  0  0  0  0  0  0  0  0  0  0
  148.5540  156.1090  132.6660 N   0  0  0  0  0  0  0  0  0  0  0  0
  146.2940  156.5270  132.3090 O   0  0  0  0  0  0  0  0  0  0  0  0
  146.7200  159.2810  133.2260 C   0  0  0  0  0  0  0  0  0  0  0  0
  145.4430  159.0070  133.7280 C   0  0  0  0  0  0  0  0  0  0  0  0
  143.0540  157.5300  134.0460 N   0  0  0  0  0  0  0  0  0  0  0  0
  141.9530  156.7910  133.8540 C   0  0  0  0  0  0  0  0  0  0  0  0
  141.8800  155.4630  133.4460 C   0  0  0  0  0  0  0  0  0  0  0  0
  139.2310  152.9390  132.6240 N   0  0  0  0  0  0  0  0  0  0  0  0
  139.0810  151.6500  132.2210 C   0  0  0  0  0  0  0  0  0  0  0  0
  141.1230  148.8720  130.7530 C   0  0  0  0  0  0  0  0  0  0  0  0
  140.5940  147.6220  130.0290 C   0  0  0  0  0  0  0  0  0  0  0  0
  139.0034  149.8009  128.9146 H   0  0  0  0  0  0  0  0  0  0  0  0
  140.0080  148.7452  127.8644 H   0  0  0  0  0  0  0  0  0  0  0  0
  138.2201  148.5720  127.8644 H   0  0  0  0  0  0  0  0  0  0  0  0
  137.5260  148.8524  130.3247 H   0  0  0  0  0  0  0  0  0  0  0  0
  137.7609  147.1488  130.9486 H   0  0  0  0  0  0  0  0  0  0  0  0
  138.2004  149.2430  132.5225 H   0  0  0  0  0  0  0  0  0  0  0  0
  139.2596  147.7869  132.5684 H   0  0  0  0  0  0  0  0  0  0  0  0
  142.3740  150.7868  132.1884 H   0  0  0  0  0  0  0  0  0  0  0  0
  138.4428  155.2162  133.4603 H   0  0  0  0  0  0  0  0  0  0  0  0
  138.6734  157.6122  134.2042 H   0  0  0  0  0  0  0  0  0  0  0  0
  142.9070  160.6360  135.3020 H   0  0  0  0  0  0  0  0  0  0  0  0
  144.6296  162.2213  134.6564 H   0  0  0  0  0  0  0  0  0  0  0  0
  146.9585  162.6383  133.7983 H   0  0  0  0  0  0  0  0  0  0  0  0
  149.2301  161.3249  132.6518 H   0  0  0  0  0  0  0  0  0  0  0  0
  151.1420  160.2760  130.9890 H   0  0  0  0  0  0  0  0  0  0  0  0
  149.4910  156.4680  132.9580 H   0  0  0  0  0  0  0  0  0  0  0  0
  148.4260  155.0820  132.5340 H   0  0  0  0  0  0  0  0  0  0  0  0
  145.0504  157.9795  133.7391 H   0  0  0  0  0  0  0  0  0  0  0  0
  142.7923  154.8831  133.2424 H   0  0  0  0  0  0  0  0  0  0  0  0
  138.0757  151.2497  132.0231 H   0  0  0  0  0  0  0  0  0  0  0  0
  141.4427  149.6131  130.0057 H   0  0  0  0  0  0  0  0  0  0  0  0
  141.9712  148.5782  131.3888 H   0  0  0  0  0  0  0  0  0  0  0  0
  141.2308  147.4202  129.1551 H   0  0  0  0  0  0  0  0  0  0  0  0
  140.6173  146.7806  130.7372 H   0  0  0  0  0  0  0  0  0  0  0  0
  1  2  1  0
  2  3  1  0
  3  4  1  0
  4  5  1  0
  5  6  1  0
  6  7  2  0
  7  8  1  0
  8  9  2  0
  9 10  1  0
 10 11  2  0
 11 12  1  0
 12 13  2  0
 13 14  1  0
 14 15  2  0
 15 16  1  0
 16 17  1  0
 17 18  2  0
 18 19  1  0
 19 20  2  0
 20 21  1  0
 21 22  2  0
 22 23  1  0
 23 24  1  0
 23 25  2  0
 22 26  1  0
 26 27  1  0
 27 28  1  0
 27 29  2  0
 26 30  1  0
 30 31  2  0
 15 32  1  0
 32 33  1  0
 33 34  2  0
  9 35  1  0
 35 36  2  0
  5 37  1  0
 37 38  1  0
 38  2  1  0
 36  6  1  0
 34 10  1  0
 33 13  1  0
 31 17  1  0
 30 20  1  0
  1 39  1  0
  1 40  1  0
  1 41  1  0
  3 42  1  0
  3 43  1  0
  4 44  1  0
  4 45  1  0
  7 46  1  0
 11 47  1  0
 12 48  1  0
 16 49  1  0
 18 50  1  0
 19 51  1  0
 21 52  1  0
 24 53  1  0
 28 54  1  0
 28 55  1  0
 31 56  1  0
 34 57  1  0
 36 58  1  0
 37 59  1  0
 37 60  1  0
 38 61  1  0
 38 62  1  0
M  CHG  2  24  -1  32  -1
M  END
>  <UniqueID>  (4) 
4

>  <SMILES>  (4) 
CN1CCN(c2cnc(-c3ccc4nc(Nc5ccc6cc(C([NH-])=O)n(C(N)=O)c6c5)[n-]c4c3)nc2)CC1

>  <Energy>  (4) 
159.78790662052776

>  <Genealogy>  (4) 
CN1CCN(c2cnc(-c3ccc4nc(Nc5ccc6cc(C([NH-])=O)n(C(N)=O)c6c5)[n-]c4c3)nc2)CC1 (protonated)
CN1CCN(c2cnc(-c3ccc4nc(Nc5ccc6cc(C([NH-])=O)n(C(N)=O)c6c5)[n-]c4c3)nc2)CC1 (3D coordinates assigned)
CN1CCN(c2cnc(-c3ccc4nc(Nc5ccc6cc(C([NH-])=O)n(C(N)=O)c6c5)[n-]c4c3)nc2)CC1 (nonaromatic ring conformer: 159.78790662052776 kcal/mol)

>  <smiles>  (4) 
CN1CCN(c2cnc(-c3ccc4nc(Nc5ccc6cc(C(N)=O)n(C(N)=O)c6c5)[nH]c4c3)nc2)CC1

>  <score_type>  (4) 
oracle

>  <origin>  (4) 
adg

>  <m_score__min__energy>  (4) 
-9.0500000000000007

>  <m_primary>  (4) 
energy

$$$$
4:0
     RDKit          3D

 67 69  0  0  0  0  0  0  0  0999 V2000
  145.6350  162.4370  134.4870 C   0  0  0  0  0  0  0  0  0  0  0  0
  144.2760  162.2630  134.0960 O   0  0  0  0  0  0  0  0  0  0  0  0
  143.6720  161.0190  133.8590 C   0  0  0  0  0  0  0  0  0  0  0  0
  144.4950  159.8930  133.7390 C   0  0  0  0  0  0  0  0  0  0  0  0
  143.9430  158.6310  133.4990 C   0  0  0  0  0  0  0  0  0  0  0  0
  142.5540  158.4790  133.3770 C   0  0  0  0  0  0  0  0  0  0  0  0
  141.9580  157.1370  133.0410 C   0  0  0  0  0  0  0  0  0  0  0  0
  142.3890  156.1090  134.0070 N   0  0  0  0  0  0  0  0  0  0  0  0
  141.5970  155.8850  135.2270 C   0  0  0  0  0  0  0  0  0  0  0  0
  141.7230  157.0610  136.1650 C   0  0  0  0  0  0  0  0  0  0  0  0
  140.7510  157.9780  136.3410 C   0  0  0  0  0  0  0  0  0  0  0  0
  140.9970  159.1190  137.2920 C   0  0  0  0  0  0  0  0  0  0  0  0
  139.4380  157.8910  135.5980 C   0  0  0  0  0  0  0  0  0  0  0  0
  143.4390  155.1770  133.6640 C   0  0  0  0  0  0  0  0  0  0  0  0
  143.1170  153.8960  133.1450 C   0  0  0  0  0  0  0  0  0  0  0  0
  144.1270  152.9940  132.7740 C   0  0  0  0  0  0  0  0  0  0  0  0
  145.4500  153.3970  132.9200 C   0  0  0  0  0  0  0  0  0  0  0  0
  146.6140  152.7220  132.6390 C   0  0  0  0  0  0  0  0  0  0  0  0
  147.6410  153.6020  132.9740 C   0  0  0  0  0  0  0  0  0  0  0  0
  149.0750  153.3150  132.7430 C   0  0  0  0  0  0  0  0  0  0  0  0
  149.9440  154.3180  132.2140 N   0  0  0  0  0  0  0  0  0  0  0  0
  149.5500  152.1850  133.0330 O   0  0  0  0  0  0  0  0  0  0  0  0
  147.1310  154.7750  133.4490 N   0  0  0  0  0  0  0  0  0  0  0  0
  147.8580  155.9000  133.9760 C   0  0  0  0  0  0  0  0  0  0  0  0
  147.8060  156.1560  135.2090 O   0  0  0  0  0  0  0  0  0  0  0  0
  148.5990  156.7140  133.1060 O   0  0  0  0  0  0  0  0  0  0  0  0
  148.4840  158.1370  132.9620 C   0  0  0  0  0  0  0  0  0  0  0  0
  148.7960  158.8360  134.2970 C   0  0  0  0  0  0  0  0  0  0  0  0
  149.5190  158.5710  131.9120 C   0  0  0  0  0  0  0  0  0  0  0  0
  147.0780  158.5240  132.4600 C   0  0  0  0  0  0  0  0  0  0  0  0
  145.7860  154.6330  133.4070 C   0  0  0  0  0  0  0  0  0  0  0  0
  144.7990  155.5460  133.8020 C   0  0  0  0  0  0  0  0  0  0  0  0
  141.7260  159.6050  133.4940 C   0  0  0  0  0  0  0  0  0  0  0  0
  142.2780  160.8670  133.7380 C   0  0  0  0  0  0  0  0  0  0  0  0
  145.7024  162.4456  135.5849 H   0  0  0  0  0  0  0  0  0  0  0  0
  146.2399  161.6090  134.0890 H   0  0  0  0  0  0  0  0  0  0  0  0
  146.0118  163.3907  134.0890 H   0  0  0  0  0  0  0  0  0  0  0  0
  145.5854  160.0020  133.8344 H   0  0  0  0  0  0  0  0  0  0  0  0
  144.6005  157.7541  133.4055 H   0  0  0  0  0  0  0  0  0  0  0  0
  140.8610  157.2148  133.0644 H   0  0  0  0  0  0  0  0  0  0  0  0
  142.3028  156.8420  132.0390 H   0  0  0  0  0  0  0  0  0  0  0  0
  140.5400  155.7528  134.9527 H   0  0  0  0  0  0  0  0  0  0  0  0
  141.9737  154.9845  135.7343 H   0  0  0  0  0  0  0  0  0  0  0  0
  142.6570  157.1756  136.7347 H   0  0  0  0  0  0  0  0  0  0  0  0
  140.9188  158.7565  138.3276 H   0  0  0  0  0  0  0  0  0  0  0  0
  142.0039  159.5278  137.1216 H   0  0  0  0  0  0  0  0  0  0  0  0
  140.2480  159.9063  137.1216 H   0  0  0  0  0  0  0  0  0  0  0  0
  138.6106  157.8362  136.3208 H   0  0  0  0  0  0  0  0  0  0  0  0
  139.3144  158.7829  134.9662 H   0  0  0  0  0  0  0  0  0  0  0  0
  139.4332  156.9906  134.9662 H   0  0  0  0  0  0  0  0  0  0  0  0
  142.0620  153.6059  133.0319 H   0  0  0  0  0  0  0  0  0  0  0  0
  143.8791  151.9976  132.3794 H   0  0  0  0  0  0  0  0  0  0  0  0
  146.7135  151.7036  132.2355 H   0  0  0  0  0  0  0  0  0  0  0  0
  150.9610  154.1160  132.0890 H   0  0  0  0  0  0  0  0  0  0  0  0
  149.5790  155.2440  131.9010 H   0  0  0  0  0  0  0  0  0  0  0  0
  148.5036  158.1810  135.1310 H   0  0  0  0  0  0  0  0  0  0  0  0
  149.8739  159.0472  134.3571 H   0  0  0  0  0  0  0  0  0  0  0  0
  148.2336  159.7794  134.3571 H   0  0  0  0  0  0  0  0  0  0  0  0
  150.4193  158.9485  132.4188 H   0  0  0  0  0  0  0  0  0  0  0  0
  149.7865  157.7093  131.2828 H   0  0  0  0  0  0  0  0  0  0  0  0
  149.0919  159.3658  131.2828 H   0  0  0  0  0  0  0  0  0  0  0  0
  146.4183  158.7056  133.3213 H   0  0  0  0  0  0  0  0  0  0  0  0
  147.1448  159.4372  131.8504 H   0  0  0  0  0  0  0  0  0  0  0  0
  146.6681  157.7053  131.8504 H   0  0  0  0  0  0  0  0  0  0  0  0
  145.0751  156.5292  134.2109 H   0  0  0  0  0  0  0  0  0  0  0  0
  140.6361  159.4951  133.3933 H   0  0  0  0  0  0  0  0  0  0  0  0
  141.6205  161.7434  133.8356 H   0  0  0  0  0  0  0  0  0  0  0  0
  1  2  1  0
  2  3  1  0
  3  4  2  0
  4  5  1  0
  5  6  2  0
  6  7  1  0
  7  8  1  0
  8  9  1  0
  9 10  1  0
 10 11  2  3
 11 12  1  0
 11 13  1  0
  8 14  1  0
 14 15  2  0
 15 16  1  0
 16 17  2  0
 17 18  1  0
 18 19  2  0
 19 20  1  0
 20 21  1  0
 20 22  2  0
 19 23  1  0
 23 24  1  0
 24 25  2  0
 24 26  1  0
 26 27  1  0
 27 28  1  0
 27 29  1  0
 27 30  1  0
 23 31  1  0
 31 32  2  0
  6 33  1  0
 33 34  2  0
 34  3  1  0
 32 14  1  0
 31 17  1  0
  1 35  1  0
  1 36  1  0
  1 37  1  0
  4 38  1  0
  5 39  1  0
  7 40  1  0
  7 41  1  0
  9 42  1  0
  9 43  1  0
 10 44  1  0
 12 45  1  0
 12 46  1  0
 12 47  1  0
 13 48  1  0
 13 49  1  0
 13 50  1  0
 15 51  1  0
 16 52  1  0
 18 53  1  0
 21 54  1  0
 21 55  1  0
 28 56  1  0
 28 57  1  0
 28 58  1  0
 29 59  1  0
 29 60  1  0
 29 61  1  0
 30 62  1  0
 30 63  1  0
 30 64  1  0
 32 65  1  0
 33 66  1  0
 34 67  1  0
M  END
>  <UniqueID>  (5) 
5

>  <SMILES>  (5) 
COc1ccc(CN(CC=C(C)C)c2ccc3cc(C(N)=O)n(C(=O)OC(C)(C)C)c3c2)cc1

>  <Energy>  (5) 
97.88291883330922

>  <Genealogy>  (5) 
COc1ccc(CN(CC=C(C)C)c2ccc3cc(C(N)=O)n(C(=O)OC(C)(C)C)c3c2)cc1 (3D coordinates assigned)
COc1ccc(CN(CC=C(C)C)c2ccc3cc(C(N)=O)n(C(=O)OC(C)(C)C)c3c2)cc1 (optimized conformer: 97.88291883330922 kcal/mol)

>  <smiles>  (5) 
COc1ccc(CN(CC=C(C)C)c2ccc3cc(C(N)=O)n(C(=O)OC(C)(C)C)c3c2)cc1

>  <score_type>  (5) 
oracle

>  <origin>  (5) 
adg

>  <m_score__min__energy>  (5) 
-9.8800000000000008

>  <m_primary>  (5) 
energy

$$$$
5:0
     RDKit          3D

 37 38  0  0  0  0  0  0  0  0999 V2000
  148.8810  154.8850  132.6220 C   0  0  0  0  0  0  0  0  0  0  0  0
  147.6130  155.6020  132.9780 C   0  0  0  0  0  0  0  0  0  0  0  0
  146.4550  154.8640  133.3280 C   0  0  0  0  0  0  0  0  0  0  0  0
  145.2480  155.5210  133.6170 C   0  0  0  0  0  0  0  0  0  0  0  0
  145.2290  156.9110  133.5440 C   0  0  0  0  0  0  0  0  0  0  0  0
  144.1930  157.7940  133.7450 C   0  0  0  0  0  0  0  0  0  0  0  0
  144.7350  159.0580  133.5230 C   0  0  0  0  0  0  0  0  0  0  0  0
  143.9790  160.3140  133.7170 C   0  0  0  0  0  0  0  0  0  0  0  0
  144.6790  161.5290  133.9770 N   0  0  0  0  0  0  0  0  0  0  0  0
  142.7240  160.3330  133.6210 O   0  0  0  0  0  0  0  0  0  0  0  0
  146.0540  158.9600  133.1890 N   0  0  0  0  0  0  0  0  0  0  0  0
  146.9560  160.0160  132.8280 C   0  0  0  0  0  0  0  0  0  0  0  0
  147.3260  160.8480  133.7000 O   0  0  0  0  0  0  0  0  0  0  0  0
  147.3940  160.1210  131.5000 O   0  0  0  0  0  0  0  0  0  0  0  0
  148.7560  160.1110  131.0480 C   0  0  0  0  0  0  0  0  0  0  0  0
  149.6090  159.5470  132.1940 C   0  0  0  0  0  0  0  0  0  0  0  0
  149.2320  161.5410  130.7290 C   0  0  0  0  0  0  0  0  0  0  0  0
  148.9110  159.1980  129.8170 C   0  0  0  0  0  0  0  0  0  0  0  0
  146.3410  157.6400  133.2100 C   0  0  0  0  0  0  0  0  0  0  0  0
  147.5520  157.0100  132.8990 C   0  0  0  0  0  0  0  0  0  0  0  0
  149.4054  154.5885  133.5424 H   0  0  0  0  0  0  0  0  0  0  0  0
  148.6418  153.9885  132.0312 H   0  0  0  0  0  0  0  0  0  0  0  0
  149.5260  155.5521  132.0312 H   0  0  0  0  0  0  0  0  0  0  0  0
  146.5020  153.7660  133.3738 H   0  0  0  0  0  0  0  0  0  0  0  0
  144.3459  154.9550  133.8924 H   0  0  0  0  0  0  0  0  0  0  0  0
  143.1562  157.5529  134.0223 H   0  0  0  0  0  0  0  0  0  0  0  0
  145.4490  161.8490  133.3490 H   0  0  0  0  0  0  0  0  0  0  0  0
  149.1671  159.8391  133.1581 H   0  0  0  0  0  0  0  0  0  0  0  0
  149.6400  158.4498  132.1223 H   0  0  0  0  0  0  0  0  0  0  0  0
  150.6307  159.9482  132.1223 H   0  0  0  0  0  0  0  0  0  0  0  0
  149.4131  162.0851  131.6677 H   0  0  0  0  0  0  0  0  0  0  0  0
  150.1636  161.4958  130.1458 H   0  0  0  0  0  0  0  0  0  0  0  0
  148.4592  162.0631  130.1458 H   0  0  0  0  0  0  0  0  0  0  0  0
  149.0866  158.1636  130.1475 H   0  0  0  0  0  0  0  0  0  0  0  0
  147.9931  159.2389  129.2123 H   0  0  0  0  0  0  0  0  0  0  0  0
  149.7640  159.5395  129.2123 H   0  0  0  0  0  0  0  0  0  0  0  0
  148.4331  157.5971  132.6008 H   0  0  0  0  0  0  0  0  0  0  0  0
  1  2  1  0
  2  3  2  0
  3  4  1  0
  4  5  2  0
  5  6  1  0
  6  7  2  0
  7  8  1  0
  8  9  1  0
  8 10  2  0
  7 11  1  0
 11 12  1  0
 12 13  2  0
 12 14  1  0
 14 15  1  0
 15 16  1  0
 15 17  1  0
 15 18  1  0
 11 19  1  0
 19 20  2  0
 20  2  1  0
 19  5  1  0
  1 21  1  0
  1 22  1  0
  1 23  1  0
  3 24  1  0
  4 25  1  0
  6 26  1  0
  9 27  1  0
 16 28  1  0
 16 29  1  0
 16 30  1  0
 17 31  1  0
 17 32  1  0
 17 33  1  0
 18 34  1  0
 18 35  1  0
 18 36  1  0
 20 37  1  0
M  CHG  1   9  -1
M  END
>  <UniqueID>  (6) 
6

>  <SMILES>  (6) 
Cc1ccc2cc(C([NH-])=O)n(C(=O)OC(C)(C)C)c2c1

>  <Energy>  (6) 
69.99940825517238

>  <Genealogy>  (6) 
Cc1ccc2cc(C([NH-])=O)n(C(=O)OC(C)(C)C)c2c1 (protonated)
Cc1ccc2cc(C([NH-])=O)n(C(=O)OC(C)(C)C)c2c1 (3D coordinates assigned)
Cc1ccc2cc(C([NH-])=O)n(C(=O)OC(C)(C)C)c2c1 (optimized conformer: 69.99940825517238 kcal/mol)

>  <smiles>  (6) 
Cc1ccc2cc(C(N)=O)n(C(=O)OC(C)(C)C)c2c1

>  <score_type>  (6) 
oracle

>  <origin>  (6) 
adg

>  <m_score__min__energy>  (6) 
-6.6500000000000004

>  <m_primary>  (6) 
energy

$$$$
6:0
     RDKit          3D

 26 27  0  0  0  0  0  0  0  0999 V2000
  149.4240  157.8580  132.1590 C   0  0  0  0  0  0  0  0  0  0  0  0
  148.2450  158.6930  132.5570 C   0  0  0  0  0  0  0  0  0  0  0  0
  148.4270  160.0490  132.9230 C   0  0  0  0  0  0  0  0  0  0  0  0
  147.3370  160.8300  133.3460 C   0  0  0  0  0  0  0  0  0  0  0  0
  146.0830  160.2250  133.3960 C   0  0  0  0  0  0  0  0  0  0  0  0
  144.8710  160.7340  133.8030 C   0  0  0  0  0  0  0  0  0  0  0  0
  143.9660  159.6810  133.6720 C   0  0  0  0  0  0  0  0  0  0  0  0
  142.5190  159.8110  133.9460 C   0  0  0  0  0  0  0  0  0  0  0  0
  141.5590  159.6800  132.9010 N   0  0  0  0  0  0  0  0  0  0  0  0
  142.1260  160.0780  135.1130 O   0  0  0  0  0  0  0  0  0  0  0  0
  144.5960  158.5670  133.2050 N   0  0  0  0  0  0  0  0  0  0  0  0
  144.0380  157.2590  133.0060 C   0  0  0  0  0  0  0  0  0  0  0  0
  142.8480  157.0910  132.2360 N   0  0  0  0  0  0  0  0  0  0  0  0
  144.6040  156.2500  133.5040 O   0  0  0  0  0  0  0  0  0  0  0  0
  145.8910  158.9150  133.0420 C   0  0  0  0  0  0  0  0  0  0  0  0
  146.9620  158.1100  132.6380 C   0  0  0  0  0  0  0  0  0  0  0  0
  149.9373  157.4945  133.0615 H   0  0  0  0  0  0  0  0  0  0  0  0
  149.0810  157.0003  131.5617 H   0  0  0  0  0  0  0  0  0  0  0  0
  150.1192  158.4662  131.5617 H   0  0  0  0  0  0  0  0  0  0  0  0
  149.4311  160.4956  132.8759 H   0  0  0  0  0  0  0  0  0  0  0  0
  147.4701  161.8848  133.6284 H   0  0  0  0  0  0  0  0  0  0  0  0
  144.6607  161.7542  134.1564 H   0  0  0  0  0  0  0  0  0  0  0  0
  141.8500  159.4150  131.9340 H   0  0  0  0  0  0  0  0  0  0  0  0
  142.4590  156.1380  132.0660 H   0  0  0  0  0  0  0  0  0  0  0  0
  142.3310  157.9220  131.8690 H   0  0  0  0  0  0  0  0  0  0  0  0
  146.8079  157.0495  132.3898 H   0  0  0  0  0  0  0  0  0  0  0  0
  1  2  1  0
  2  3  2  0
  3  4  1  0
  4  5  2  0
  5  6  1  0
  6  7  2  0
  7  8  1  0
  8  9  1  0
  8 10  2  0
  7 11  1  0
 11 12  1  0
 12 13  1  0
 12 14  2  0
 11 15  1  0
 15 16  2  0
 16  2  1  0
 15  5  1  0
  1 17  1  0
  1 18  1  0
  1 19  1  0
  3 20  1  0
  4 21  1  0
  6 22  1  0
  9 23  1  0
 13 24  1  0
 13 25  1  0
 16 26  1  0
M  CHG  1   9  -1
M  END
>  <UniqueID>  (7) 
7

>  <SMILES>  (7) 
Cc1ccc2cc(C([NH-])=O)n(C(N)=O)c2c1

>  <Energy>  (7) 
64.28610487437545

>  <Genealogy>  (7) 
Cc1ccc2cc(C([NH-])=O)n(C(N)=O)c2c1 (protonated)
Cc1ccc2cc(C([NH-])=O)n(C(N)=O)c2c1 (3D coordinates assigned)
Cc1ccc2cc(C([NH-])=O)n(C(N)=O)c2c1 (optimized conformer: 64.28610487437545 kcal/mol)

>  <smiles>  (7) 
Cc1ccc2cc(C(N)=O)n(C(N)=O)c2c1

>  <score_type>  (7) 
oracle

>  <origin>  (7) 
adg

>  <m_score__min__energy>  (7) 
-6.1100000000000003

>  <m_primary>  (7) 
energy

$$$$
7:0
     RDKit          3D

 40 42  0  0  0  0  0  0  0  0999 V2000
  138.4020  160.4220  130.1680 C   0  0  0  0  0  0  0  0  0  0  0  0
  138.1510  159.4500  131.2790 C   0  0  0  0  0  0  0  0  0  0  0  0
  136.9850  159.0020  131.4500 O   0  0  0  0  0  0  0  0  0  0  0  0
  139.2130  159.0320  132.1530 N   0  0  0  0  0  0  0  0  0  0  0  0
  139.4330  157.6550  132.5650 C   0  0  0  0  0  0  0  0  0  0  0  0
  140.7400  157.6590  133.3480 C   0  0  0  0  0  0  0  0  0  0  0  0
  140.9990  159.1270  133.7130 C   0  0  1  0  0  0  0  0  0  0  0  0
  142.4720  159.4890  133.7200 C   0  0  0  0  0  0  0  0  0  0  0  0
  142.8590  160.8540  133.7350 C   0  0  0  0  0  0  0  0  0  0  0  0
  144.2170  161.2170  133.7290 C   0  0  0  0  0  0  0  0  0  0  0  0
  145.1640  160.1990  133.7190 C   0  0  0  0  0  0  0  0  0  0  0  0
  146.5380  160.2710  133.6800 C   0  0  0  0  0  0  0  0  0  0  0  0
  146.9750  158.9500  133.6720 C   0  0  0  0  0  0  0  0  0  0  0  0
  148.4000  158.5670  133.7010 C   0  0  0  0  0  0  0  0  0  0  0  0
  148.9520  157.6950  132.7140 N   0  0  0  0  0  0  0  0  0  0  0  0
  149.1310  158.9710  134.6450 O   0  0  0  0  0  0  0  0  0  0  0  0
  145.9170  158.0920  133.6920 N   0  0  0  0  0  0  0  0  0  0  0  0
  145.9490  156.6590  133.5710 C   0  0  0  0  0  0  0  0  0  0  0  0
  146.6050  156.0460  132.4640 N   0  0  0  0  0  0  0  0  0  0  0  0
  145.3880  155.9360  134.4380 O   0  0  0  0  0  0  0  0  0  0  0  0
  144.8140  158.8740  133.7240 C   0  0  0  0  0  0  0  0  0  0  0  0
  143.4690  158.4850  133.7080 C   0  0  0  0  0  0  0  0  0  0  0  0
  140.1790  159.9570  132.7190 C   0  0  0  0  0  0  0  0  0  0  0  0
  138.6558  161.4051  130.5912 H   0  0  0  0  0  0  0  0  0  0  0  0
  139.2369  160.0629  129.5483 H   0  0  0  0  0  0  0  0  0  0  0  0
  137.4976  160.5120  129.5483 H   0  0  0  0  0  0  0  0  0  0  0  0
  138.6058  157.3092  133.2024 H   0  0  0  0  0  0  0  0  0  0  0  0
  139.4815  156.9768  131.7003 H   0  0  0  0  0  0  0  0  0  0  0  0
  140.6442  157.0484  134.2579 H   0  0  0  0  0  0  0  0  0  0  0  0
  141.5672  157.2339  132.7606 H   0  0  0  0  0  0  0  0  0  0  0  0
  140.6855  159.3338  134.7469 H   0  0  0  0  0  0  0  0  0  0  0  0
  142.0871  161.6375  133.7515 H   0  0  0  0  0  0  0  0  0  0  0  0
  144.5212  162.2741  133.7321 H   0  0  0  0  0  0  0  0  0  0  0  0
  147.1583  161.1792  133.6595 H   0  0  0  0  0  0  0  0  0  0  0  0
  148.3410  157.2140  132.0180 H   0  0  0  0  0  0  0  0  0  0  0  0
  149.9700  157.4650  132.7280 H   0  0  0  0  0  0  0  0  0  0  0  0
  146.2220  156.1350  131.4970 H   0  0  0  0  0  0  0  0  0  0  0  0
  143.1930  157.4204  133.6865 H   0  0  0  0  0  0  0  0  0  0  0  0
  139.6660  160.7812  133.2362 H   0  0  0  0  0  0  0  0  0  0  0  0
  140.8129  160.4131  131.9443 H   0  0  0  0  0  0  0  0  0  0  0  0
  1  2  1  0
  2  3  2  0
  2  4  1  0
  4  5  1  0
  5  6  1  0
  6  7  1  0
  7  8  1  0
  8  9  2  0
  9 10  1  0
 10 11  2  0
 11 12  1  0
 12 13  2  0
 13 14  1  0
 14 15  1  0
 14 16  2  0
 13 17  1  0
 17 18  1  0
 18 19  1  0
 18 20  2  0
 17 21  1  0
 21 22  2  0
  7 23  1  0
 23  4  1  0
 22  8  1  0
 21 11  1  0
  1 24  1  0
  1 25  1  0
  1 26  1  0
  5 27  1  0
  5 28  1  0
  6 29  1  0
  6 30  1  0
  7 31  1  1
  9 32  1  0
 10 33  1  0
 12 34  1  0
 15 35  1  0
 15 36  1  0
 19 37  1  0
 22 38  1  0
 23 39  1  0
 23 40  1  0
M  CHG  1  19  -1
M  END
>  <UniqueID>  (8) 
8

>  <SMILES>  (8) 
CC(=O)N1CC[C@@H](c2ccc3cc(C(N)=O)n(C([NH-])=O)c3c2)C1

>  <Energy>  (8) 
80.52830945696283

>  <Genealogy>  (8) 
CC(=O)N1CC[C@@H](c2ccc3cc(C(N)=O)n(C([NH-])=O)c3c2)C1 (protonated)
CC(=O)N1CC[C@@H](c2ccc3cc(C(N)=O)n(C([NH-])=O)c3c2)C1 (3D coordinates assigned)
CC(=O)N1CC[C@@H](c2ccc3cc(C(N)=O)n(C([NH-])=O)c3c2)C1 (nonaromatic ring conformer: 80.52830945696283 kcal/mol)

>  <smiles>  (8) 
CC(=O)N1CC[C@@H](c2ccc3cc(C(N)=O)n(C(N)=O)c3c2)C1

>  <score_type>  (8) 
oracle

>  <origin>  (8) 
adg

>  <m_score__min__energy>  (8) 
-8.1899999999999995

>  <m_primary>  (8) 
energy

$$$$
8:0
     RDKit          3D

 48 50  0  0  0  0  0  0  0  0999 V2000
  148.6580  152.8930  134.1500 N   0  0  0  0  0  0  0  0  0  0  0  0
  148.9490  153.7660  133.0620 C   0  0  0  0  0  0  0  0  0  0  0  0
  149.6300  153.3370  132.0930 O   0  0  0  0  0  0  0  0  0  0  0  0
  148.4190  155.1450  133.0300 C   0  0  0  0  0  0  0  0  0  0  0  0
  149.1650  156.2420  132.6000 C   0  0  0  0  0  0  0  0  0  0  0  0
  148.3000  157.3100  132.6430 C   0  0  0  0  0  0  0  0  0  0  0  0
  148.5200  158.6520  132.3430 C   0  0  0  0  0  0  0  0  0  0  0  0
  147.4520  159.5480  132.5140 C   0  0  0  0  0  0  0  0  0  0  0  0
  146.1890  159.0910  132.9740 C   0  0  0  0  0  0  0  0  0  0  0  0
  145.1030  160.0070  133.1910 N   0  0  0  0  0  0  0  0  0  0  0  0
  143.7350  159.6120  133.3890 C   0  0  0  0  0  0  0  0  0  0  0  0
  143.3440  158.2660  133.3010 C   0  0  0  0  0  0  0  0  0  0  0  0
  142.0130  157.9000  133.5210 C   0  0  0  0  0  0  0  0  0  0  0  0
  141.0470  158.8700  133.8440 C   0  0  0  0  0  0  0  0  0  0  0  0
  139.6680  158.4870  134.0660 N   0  0  0  0  0  0  0  0  0  0  0  0
  138.7000  158.4630  132.9540 C   0  0  0  0  0  0  0  0  0  0  0  0
  138.7260  159.7610  132.1380 C   0  0  0  0  0  0  0  0  0  0  0  0
  139.0830  159.4520  130.4200 Cl  0  0  0  0  0  0  0  0  0  0  0  0
  139.1860  158.2740  135.4420 C   0  0  0  0  0  0  0  0  0  0  0  0
  140.2880  157.7260  136.3560 C   0  0  0  0  0  0  0  0  0  0  0  0
  141.0460  159.0180  137.3220 Cl  0  0  0  0  0  0  0  0  0  0  0  0
  141.4510  160.2130  133.9630 C   0  0  0  0  0  0  0  0  0  0  0  0
  142.7830  160.5770  133.7430 C   0  0  0  0  0  0  0  0  0  0  0  0
  146.0140  157.7270  133.2880 C   0  0  0  0  0  0  0  0  0  0  0  0
  147.0880  156.8520  133.0900 C   0  0  0  0  0  0  0  0  0  0  0  0
  147.1440  155.5240  133.3330 N   0  0  0  0  0  0  0  0  0  0  0  0
  146.0950  154.7140  133.8860 C   0  0  0  0  0  0  0  0  0  0  0  0
  145.8850  153.3860  133.4110 N   0  0  0  0  0  0  0  0  0  0  0  0
  145.3440  155.1780  134.7860 O   0  0  0  0  0  0  0  0  0  0  0  0
  147.6750  152.6130  134.3670 H   0  0  0  0  0  0  0  0  0  0  0  0
  150.2209  156.2510  132.2919 H   0  0  0  0  0  0  0  0  0  0  0  0
  149.4997  158.9995  131.9833 H   0  0  0  0  0  0  0  0  0  0  0  0
  147.5957  160.6152  132.2891 H   0  0  0  0  0  0  0  0  0  0  0  0
  145.3220  161.0290  133.2070 H   0  0  0  0  0  0  0  0  0  0  0  0
  144.0898  157.4950  133.0574 H   0  0  0  0  0  0  0  0  0  0  0  0
  141.7182  156.8433  133.4408 H   0  0  0  0  0  0  0  0  0  0  0  0
  138.9443  157.6213  132.2893 H   0  0  0  0  0  0  0  0  0  0  0  0
  137.6934  158.3533  133.3837 H   0  0  0  0  0  0  0  0  0  0  0  0
  137.7441  160.2507  132.2156 H   0  0  0  0  0  0  0  0  0  0  0  0
  139.5206  160.4049  132.5430 H   0  0  0  0  0  0  0  0  0  0  0  0
  138.8324  159.2335  135.8473 H   0  0  0  0  0  0  0  0  0  0  0  0
  138.3729  157.5340  135.4074 H   0  0  0  0  0  0  0  0  0  0  0  0
  139.8490  156.9823  137.0373 H   0  0  0  0  0  0  0  0  0  0  0  0
  141.0639  157.2709  135.7229 H   0  0  0  0  0  0  0  0  0  0  0  0
  140.7125  160.9828  134.2314 H   0  0  0  0  0  0  0  0  0  0  0  0
  143.0858  161.6292  133.8487 H   0  0  0  0  0  0  0  0  0  0  0  0
  145.0543  157.3592  133.6799 H   0  0  0  0  0  0  0  0  0  0  0  0
  146.5740  152.6290  133.6150 H   0  0  0  0  0  0  0  0  0  0  0  0
  1  2  1  0
  2  3  2  0
  2  4  1  0
  4  5  2  0
  5  6  1  0
  6  7  2  0
  7  8  1  0
  8  9  2  0
  9 10  1  0
 10 11  1  0
 11 12  2  0
 12 13  1  0
 13 14  2  0
 14 15  1  0
 15 16  1  0
 16 17  1  0
 17 18  1  0
 15 19  1  0
 19 20  1  0
 20 21  1  0
 14 22  1  0
 22 23  2  0
  9 24  1  0
 24 25  2  0
 25 26  1  0
 26 27  1  0
 27 28  1  0
 27 29  2  0
 26  4  1  0
 25  6  1  0
 23 11  1  0
  1 30  1  0
  5 31  1  0
  7 32  1  0
  8 33  1  0
 10 34  1  0
 12 35  1  0
 13 36  1  0
 16 37  1  0
 16 38  1  0
 17 39  1  0
 17 40  1  0
 19 41  1  0
 19 42  1  0
 20 43  1  0
 20 44  1  0
 22 45  1  0
 23 46  1  0
 24 47  1  0
 28 48  1  0
M  CHG  2   1  -1  28  -1
M  END
>  <UniqueID>  (9) 
9

>  <SMILES>  (9) 
[NH-]C(=O)c1cc2ccc(Nc3ccc(N(CCCl)CCCl)cc3)cc2n1C([NH-])=O

>  <Energy>  (9) 
94.63946661865124

>  <Genealogy>  (9) 
[NH-]C(=O)c1cc2ccc(Nc3ccc(N(CCCl)CCCl)cc3)cc2n1C([NH-])=O (protonated)
[NH-]C(=O)c1cc2ccc(Nc3ccc(N(CCCl)CCCl)cc3)cc2n1C([NH-])=O (3D coordinates assigned)
[NH-]C(=O)c1cc2ccc(Nc3ccc(N(CCCl)CCCl)cc3)cc2n1C([NH-])=O (optimized conformer: 94.63946661865124 kcal/mol)

>  <smiles>  (9) 
NC(=O)c1cc2ccc(Nc3ccc(N(CCCl)CCCl)cc3)cc2n1C(N)=O

>  <score_type>  (9) 
oracle

>  <origin>  (9) 
adg

>  <m_score__min__energy>  (9) 
-8.6400000000000006

>  <m_primary>  (9) 
energy

$$$$
9:0
     RDKit          3D

 36 38  0  0  0  0  0  0  0  0999 V2000
  148.8080  158.3020  131.4260 N   0  0  0  0  0  0  0  0  0  0  0  0
  148.3940  158.7400  132.7180 C   0  0  0  0  0  0  0  0  0  0  0  0
  149.2670  159.0040  133.5880 O   0  0  0  0  0  0  0  0  0  0  0  0
  146.9630  158.9310  133.0360 C   0  0  0  0  0  0  0  0  0  0  0  0
  146.3900  160.1760  133.2920 C   0  0  0  0  0  0  0  0  0  0  0  0
  145.0490  159.9300  133.4760 C   0  0  0  0  0  0  0  0  0  0  0  0
  144.0110  160.8060  133.7850 C   0  0  0  0  0  0  0  0  0  0  0  0
  142.7260  160.2670  133.9620 C   0  0  0  0  0  0  0  0  0  0  0  0
  142.5020  158.8740  133.8280 C   0  0  0  0  0  0  0  0  0  0  0  0
  141.1330  158.3030  134.0750 C   0  0  0  0  0  0  0  0  0  0  0  0
  140.1810  158.7570  133.0010 C   0  0  0  0  0  0  0  0  0  0  0  0
  140.0170  160.1260  132.7310 C   0  0  0  0  0  0  0  0  0  0  0  0
  139.1600  160.5440  131.7090 C   0  0  0  0  0  0  0  0  0  0  0  0
  138.4680  159.6000  130.9440 C   0  0  0  0  0  0  0  0  0  0  0  0
  137.6390  160.0070  129.9520 F   0  0  0  0  0  0  0  0  0  0  0  0
  138.6360  158.2360  131.1990 C   0  0  0  0  0  0  0  0  0  0  0  0
  139.4910  157.8140  132.2210 C   0  0  0  0  0  0  0  0  0  0  0  0
  143.5820  158.0150  133.5250 C   0  0  0  0  0  0  0  0  0  0  0  0
  144.8460  158.5810  133.3340 C   0  0  0  0  0  0  0  0  0  0  0  0
  146.0120  157.9540  133.0640 N   0  0  0  0  0  0  0  0  0  0  0  0
  146.2010  156.5370  132.9290 C   0  0  0  0  0  0  0  0  0  0  0  0
  146.9860  156.0120  131.8600 N   0  0  0  0  0  0  0  0  0  0  0  0
  145.6650  155.7490  133.7530 O   0  0  0  0  0  0  0  0  0  0  0  0
  148.8480  157.2850  131.1910 H   0  0  0  0  0  0  0  0  0  0  0  0
  146.9017  161.1487  133.3373 H   0  0  0  0  0  0  0  0  0  0  0  0
  144.1920  161.8862  133.8872 H   0  0  0  0  0  0  0  0  0  0  0  0
  141.8853  160.9327  134.2070 H   0  0  0  0  0  0  0  0  0  0  0  0
  141.1906  157.2045  134.0693 H   0  0  0  0  0  0  0  0  0  0  0  0
  140.7676  158.6539  135.0514 H   0  0  0  0  0  0  0  0  0  0  0  0
  140.5650  160.8715  133.3260 H   0  0  0  0  0  0  0  0  0  0  0  0
  139.0297  161.6173  131.5062 H   0  0  0  0  0  0  0  0  0  0  0  0
  138.0945  157.4935  130.5944 H   0  0  0  0  0  0  0  0  0  0  0  0
  139.6241  156.7395  132.4153 H   0  0  0  0  0  0  0  0  0  0  0  0
  143.4321  156.9285  133.4415 H   0  0  0  0  0  0  0  0  0  0  0  0
  147.4890  156.6530  131.2050 H   0  0  0  0  0  0  0  0  0  0  0  0
  147.0980  154.9800  131.7440 H   0  0  0  0  0  0  0  0  0  0  0  0
  1  2  1  0
  2  3  2  0
  2  4  1  0
  4  5  2  0
  5  6  1  0
  6  7  2  0
  7  8  1  0
  8  9  2  0
  9 10  1  0
 10 11  1  0
 11 12  2  0
 12 13  1  0
 13 14  2  0
 14 15  1  0
 14 16  1  0
 16 17  2  0
  9 18  1  0
 18 19  2  0
 19 20  1  0
 20 21  1  0
 21 22  1  0
 21 23  2  0
 20  4  1  0
 19  6  1  0
 17 11  1  0
  1 24  1  0
  5 25  1  0
  7 26  1  0
  8 27  1  0
 10 28  1  0
 10 29  1  0
 12 30  1  0
 13 31  1  0
 16 32  1  0
 17 33  1  0
 18 34  1  0
 22 35  1  0
 22 36  1  0
M  CHG  1   1  -1
M  END
>  <UniqueID>  (10) 
10

>  <SMILES>  (10) 
[NH-]C(=O)c1cc2ccc(Cc3ccc(F)cc3)cc2n1C(N)=O

>  <Energy>  (10) 
75.62982507216144

>  <Genealogy>  (10) 
[NH-]C(=O)c1cc2ccc(Cc3ccc(F)cc3)cc2n1C(N)=O (protonated)
[NH-]C(=O)c1cc2ccc(Cc3ccc(F)cc3)cc2n1C(N)=O (3D coordinates assigned)
[NH-]C(=O)c1cc2ccc(Cc3ccc(F)cc3)cc2n1C(N)=O (optimized conformer: 75.62982507216144 kcal/mol)

>  <smiles>  (10) 
NC(=O)c1cc2ccc(Cc3ccc(F)cc3)cc2n1C(N)=O

>  <score_type>  (10) 
oracle

>  <origin>  (10) 
adg

>  <m_score__min__energy>  (10) 
-8.1099999999999994

>  <m_primary>  (10) 
energy

$$$$
10:0
     RDKit          3D

 45 47  0  0  0  0  0  0  0  0999 V2000
  138.7870  158.9140  130.2820 C   0  0  0  0  0  0  0  0  0  0  0  0
  139.2230  159.2970  131.7040 C   0  0  0  0  0  0  0  0  0  0  0  0
  138.3090  158.5810  132.7160 C   0  0  0  0  0  0  0  0  0  0  0  0
  139.1170  160.8260  131.8610 C   0  0  0  0  0  0  0  0  0  0  0  0
  140.5830  158.8660  131.8600 O   0  0  0  0  0  0  0  0  0  0  0  0
  141.2570  158.6600  133.0730 C   0  0  0  0  0  0  0  0  0  0  0  0
  141.0040  159.3720  134.0820 O   0  0  0  0  0  0  0  0  0  0  0  0
  142.2310  157.6100  133.1700 N   0  0  0  0  0  0  0  0  0  0  0  0
  142.0040  156.2820  133.3810 C   0  0  0  0  0  0  0  0  0  0  0  0
  140.6840  155.6200  133.3970 C   0  0  0  0  0  0  0  0  0  0  0  0
  140.5690  154.2570  132.9960 N   0  0  0  0  0  0  0  0  0  0  0  0
  139.6480  156.2560  133.7250 O   0  0  0  0  0  0  0  0  0  0  0  0
  143.2100  155.5940  133.5020 C   0  0  0  0  0  0  0  0  0  0  0  0
  144.1910  156.5470  133.3520 C   0  0  0  0  0  0  0  0  0  0  0  0
  145.5750  156.4210  133.3950 C   0  0  0  0  0  0  0  0  0  0  0  0
  146.3490  157.5820  133.2380 C   0  0  0  0  0  0  0  0  0  0  0  0
  145.7300  158.8480  133.0450 C   0  0  0  0  0  0  0  0  0  0  0  0
  146.5030  160.0540  132.8890 N   0  0  0  0  0  0  0  0  0  0  0  0
  147.9600  160.1220  132.9980 C   0  0  0  0  0  0  0  0  0  0  0  0
  148.5870  160.1580  131.6390 C   0  0  0  0  0  0  0  0  0  0  0  0
  149.0950  159.0690  130.9420 C   0  0  0  0  0  0  0  0  0  0  0  0
  149.6450  159.3740  129.7350 N   0  0  0  0  0  0  0  0  0  0  0  0
  149.5860  160.6970  129.4660 C   0  0  0  0  0  0  0  0  0  0  0  0
  148.8520  161.5420  130.7210 S   0  0  0  0  0  0  0  0  0  0  0  0
  144.3200  158.9310  133.0130 C   0  0  0  0  0  0  0  0  0  0  0  0
  143.5750  157.7550  133.1540 C   0  0  0  0  0  0  0  0  0  0  0  0
  137.9615  158.1889  130.3344 H   0  0  0  0  0  0  0  0  0  0  0  0
  138.4509  159.8142  129.7466 H   0  0  0  0  0  0  0  0  0  0  0  0
  139.6364  158.4646  129.7466 H   0  0  0  0  0  0  0  0  0  0  0  0
  138.6279  158.8308  133.7387 H   0  0  0  0  0  0  0  0  0  0  0  0
  137.2693  158.9075  132.5660 H   0  0  0  0  0  0  0  0  0  0  0  0
  138.3771  157.4934  132.5660 H   0  0  0  0  0  0  0  0  0  0  0  0
  139.0991  161.0845  132.9300 H   0  0  0  0  0  0  0  0  0  0  0  0
  139.9841  161.3047  131.3825 H   0  0  0  0  0  0  0  0  0  0  0  0
  138.1921  161.1805  131.3825 H   0  0  0  0  0  0  0  0  0  0  0  0
  139.9070  153.9740  132.2400 H   0  0  0  0  0  0  0  0  0  0  0  0
  143.3483  154.5173  133.6797 H   0  0  0  0  0  0  0  0  0  0  0  0
  146.0497  155.4405  133.5475 H   0  0  0  0  0  0  0  0  0  0  0  0
  147.4464  157.5117  133.2646 H   0  0  0  0  0  0  0  0  0  0  0  0
  146.0010  160.9420  132.6580 H   0  0  0  0  0  0  0  0  0  0  0  0
  148.2396  161.0316  133.5497 H   0  0  0  0  0  0  0  0  0  0  0  0
  148.3186  159.2293  133.5314 H   0  0  0  0  0  0  0  0  0  0  0  0
  149.0559  158.0421  131.3343 H   0  0  0  0  0  0  0  0  0  0  0  0
  149.9687  161.1612  128.5451 H   0  0  0  0  0  0  0  0  0  0  0  0
  143.8179  159.9007  132.8799 H   0  0  0  0  0  0  0  0  0  0  0  0
  1  2  1  0
  2  3  1  0
  2  4  1  0
  2  5  1  0
  5  6  1  0
  6  7  2  0
  6  8  1  0
  8  9  1  0
  9 10  1  0
 10 11  1  0
 10 12  2  0
  9 13  2  0
 13 14  1  0
 14 15  2  0
 15 16  1  0
 16 17  2  0
 17 18  1  0
 18 19  1  0
 19 20  1  0
 20 21  2  0
 21 22  1  0
 22 23  2  0
 23 24  1  0
 17 25  1  0
 25 26  2  0
 26  8  1  0
 26 14  1  0
 24 20  1  0
  1 27  1  0
  1 28  1  0
  1 29  1  0
  3 30  1  0
  3 31  1  0
  3 32  1  0
  4 33  1  0
  4 34  1  0
  4 35  1  0
 11 36  1  0
 13 37  1  0
 15 38  1  0
 16 39  1  0
 18 40  1  0
 19 41  1  0
 19 42  1  0
 21 43  1  0
 23 44  1  0
 25 45  1  0
M  CHG  1  11  -1
M  END
>  <UniqueID>  (11) 
11

>  <SMILES>  (11) 
CC(C)(C)OC(=O)n1c(C([NH-])=O)cc2ccc(NCc3cncs3)cc21

>  <Energy>  (11) 
109.11337966146122

>  <Genealogy>  (11) 
CC(C)(C)OC(=O)n1c(C([NH-])=O)cc2ccc(NCc3cncs3)cc21 (protonated)
CC(C)(C)OC(=O)n1c(C([NH-])=O)cc2ccc(NCc3cncs3)cc21 (3D coordinates assigned)
CC(C)(C)OC(=O)n1c(C([NH-])=O)cc2ccc(NCc3cncs3)cc21 (optimized conformer: 109.11337966146122 kcal/mol)

>  <smiles>  (11) 
CC(C)(C)OC(=O)n1c(C(N)=O)cc2ccc(NCc3cncs3)cc21

>  <score_type>  (11) 
oracle

>  <origin>  (11) 
adg

>  <m_score__min__energy>  (11) 
-8.1199999999999992

>  <m_primary>  (11) 
energy

$$$$
11:0
     RDKit          3D

 29 30  0  0  0  0  0  0  0  0999 V2000
  140.9190  159.7570  133.3150 C   0  0  0  0  0  0  0  0  0  0  0  0
  141.8350  159.2260  134.4130 C   0  0  0  0  0  0  0  0  0  0  0  0
  143.2760  159.5130  134.0860 C   0  0  0  0  0  0  0  0  0  0  0  0
  143.7520  160.8480  134.0850 C   0  0  0  0  0  0  0  0  0  0  0  0
  145.0900  161.1300  133.7640 C   0  0  0  0  0  0  0  0  0  0  0  0
  145.9200  160.0630  133.4310 C   0  0  0  0  0  0  0  0  0  0  0  0
  147.2570  160.0480  133.1040 C   0  0  0  0  0  0  0  0  0  0  0  0
  147.5680  158.7090  132.8780 C   0  0  0  0  0  0  0  0  0  0  0  0
  148.9000  158.2400  132.4380 C   0  0  0  0  0  0  0  0  0  0  0  0
  149.7930  159.1460  131.7940 N   0  0  0  0  0  0  0  0  0  0  0  0
  149.2480  157.0420  132.6010 O   0  0  0  0  0  0  0  0  0  0  0  0
  146.4660  157.9270  133.0580 N   0  0  0  0  0  0  0  0  0  0  0  0
  146.3790  156.4960  132.9670 C   0  0  0  0  0  0  0  0  0  0  0  0
  147.0700  155.7940  131.9340 N   0  0  0  0  0  0  0  0  0  0  0  0
  145.6840  155.8540  133.7990 O   0  0  0  0  0  0  0  0  0  0  0  0
  145.4670  158.7700  133.3980 C   0  0  0  0  0  0  0  0  0  0  0  0
  144.1450  158.4570  133.7350 C   0  0  0  0  0  0  0  0  0  0  0  0
  140.0529  160.2591  133.7709 H   0  0  0  0  0  0  0  0  0  0  0  0
  141.4722  160.4745  132.6911 H   0  0  0  0  0  0  0  0  0  0  0  0
  140.5713  158.9204  132.6911 H   0  0  0  0  0  0  0  0  0  0  0  0
  141.5768  159.7119  135.3655 H   0  0  0  0  0  0  0  0  0  0  0  0
  141.6995  158.1372  134.4920 H   0  0  0  0  0  0  0  0  0  0  0  0
  143.0672  161.6709  134.3380 H   0  0  0  0  0  0  0  0  0  0  0  0
  145.4704  162.1621  133.7754 H   0  0  0  0  0  0  0  0  0  0  0  0
  147.9361  160.9106  133.0356 H   0  0  0  0  0  0  0  0  0  0  0  0
  150.7280  159.3620  132.2070 H   0  0  0  0  0  0  0  0  0  0  0  0
  147.7040  156.3040  131.2790 H   0  0  0  0  0  0  0  0  0  0  0  0
  146.9820  154.7580  131.8500 H   0  0  0  0  0  0  0  0  0  0  0  0
  143.7922  157.4151  133.7266 H   0  0  0  0  0  0  0  0  0  0  0  0
  1  2  1  0
  2  3  1  0
  3  4  2  0
  4  5  1  0
  5  6  2  0
  6  7  1  0
  7  8  2  0
  8  9  1  0
  9 10  1  0
  9 11  2  0
  8 12  1  0
 12 13  1  0
 13 14  1  0
 13 15  2  0
 12 16  1  0
 16 17  2  0
 17  3  1  0
 16  6  1  0
  1 18  1  0
  1 19  1  0
  1 20  1  0
  2 21  1  0
  2 22  1  0
  4 23  1  0
  5 24  1  0
  7 25  1  0
 10 26  1  0
 14 27  1  0
 14 28  1  0
 17 29  1  0
M  CHG  1  10  -1
M  END
>  <UniqueID>  (12) 
12

>  <SMILES>  (12) 
CCc1ccc2cc(C([NH-])=O)n(C(N)=O)c2c1

>  <Energy>  (12) 
63.977845598700306

>  <Genealogy>  (12) 
CCc1ccc2cc(C([NH-])=O)n(C(N)=O)c2c1 (protonated)
CCc1ccc2cc(C([NH-])=O)n(C(N)=O)c2c1 (3D coordinates assigned)
CCc1ccc2cc(C([NH-])=O)n(C(N)=O)c2c1 (optimized conformer: 63.977845598700306 kcal/mol)

>  <smiles>  (12) 
CCc1ccc2cc(C(N)=O)n(C(N)=O)c2c1

>  <score_type>  (12) 
oracle

>  <origin>  (12) 
adg

>  <m_score__min__energy>  (12) 
-6.3799999999999999

>  <m_primary>  (12) 
energy

$$$$
12:0
     RDKit          3D

 48 51  0  0  0  0  0  0  0  0999 V2000
  141.3040  159.3320  135.7330 C   0  0  0  0  0  0  0  0  0  0  0  0
  142.6620  159.2460  135.3180 O   0  0  0  0  0  0  0  0  0  0  0  0
  143.1320  159.8460  134.1440 C   0  0  0  0  0  0  0  0  0  0  0  0
  142.3260  160.3950  133.3450 O   0  0  0  0  0  0  0  0  0  0  0  0
  144.5360  159.8110  133.8400 N   0  0  0  0  0  0  0  0  0  0  0  0
  145.4030  160.8610  133.7670 C   0  0  0  0  0  0  0  0  0  0  0  0
  145.1020  162.2650  134.1200 C   0  0  0  0  0  0  0  0  0  0  0  0
  143.9840  162.9210  133.5260 N   0  0  0  0  0  0  0  0  0  0  0  0
  145.8430  162.9050  134.9110 O   0  0  0  0  0  0  0  0  0  0  0  0
  146.6690  160.4210  133.3840 C   0  0  0  0  0  0  0  0  0  0  0  0
  146.5520  159.0590  133.2320 C   0  0  0  0  0  0  0  0  0  0  0  0
  147.5020  158.1150  132.8590 C   0  0  0  0  0  0  0  0  0  0  0  0
  147.0970  156.7740  132.7600 C   0  0  0  0  0  0  0  0  0  0  0  0
  145.7510  156.3980  133.0180 C   0  0  0  0  0  0  0  0  0  0  0  0
  145.3110  154.9840  132.9130 C   0  0  0  0  0  0  0  0  0  0  0  0
  146.2270  153.9360  132.7100 C   0  0  0  0  0  0  0  0  0  0  0  0
  145.7660  152.6210  132.6120 C   0  0  0  0  0  0  0  0  0  0  0  0
  144.3960  152.3520  132.7110 C   0  0  0  0  0  0  0  0  0  0  0  0
  143.9030  151.0440  132.6140 C   0  0  0  0  0  0  0  0  0  0  0  0
  142.5190  150.7970  132.7110 C   0  0  0  0  0  0  0  0  0  0  0  0
  141.9850  149.5020  132.6210 O   0  0  0  0  0  0  0  0  0  0  0  0
  141.6120  148.8660  131.4030 C   0  0  0  0  0  0  0  0  0  0  0  0
  141.6310  151.8700  132.9040 C   0  0  0  0  0  0  0  0  0  0  0  0
  140.2580  151.5890  132.9950 O   0  0  0  0  0  0  0  0  0  0  0  0
  139.4810  151.0140  131.9500 C   0  0  0  0  0  0  0  0  0  0  0  0
  142.1310  153.1830  132.9990 C   0  0  0  0  0  0  0  0  0  0  0  0
  143.5050  153.4240  132.9040 C   0  0  0  0  0  0  0  0  0  0  0  0
  143.9820  154.6940  132.9980 N   0  0  0  0  0  0  0  0  0  0  0  0
  144.8190  157.3910  133.4040 C   0  0  0  0  0  0  0  0  0  0  0  0
  145.2560  158.7160  133.5140 C   0  0  0  0  0  0  0  0  0  0  0  0
  141.2559  159.3350  136.8319 H   0  0  0  0  0  0  0  0  0  0  0  0
  140.8598  160.2601  135.3440 H   0  0  0  0  0  0  0  0  0  0  0  0
  140.7462  158.4674  135.3440 H   0  0  0  0  0  0  0  0  0  0  0  0
  143.1030  162.4000  133.3200 H   0  0  0  0  0  0  0  0  0  0  0  0
  147.5706  161.0333  133.2349 H   0  0  0  0  0  0  0  0  0  0  0  0
  148.5405  158.4098  132.6476 H   0  0  0  0  0  0  0  0  0  0  0  0
  147.8312  156.0046  132.4791 H   0  0  0  0  0  0  0  0  0  0  0  0
  147.3027  154.1512  132.6287 H   0  0  0  0  0  0  0  0  0  0  0  0
  146.4789  151.7977  132.4572 H   0  0  0  0  0  0  0  0  0  0  0  0
  144.5994  150.2063  132.4615 H   0  0  0  0  0  0  0  0  0  0  0  0
  141.0671  147.9369  131.6264 H   0  0  0  0  0  0  0  0  0  0  0  0
  140.9656  149.5392  130.8208 H   0  0  0  0  0  0  0  0  0  0  0  0
  142.5151  148.6305  130.8208 H   0  0  0  0  0  0  0  0  0  0  0  0
  138.6689  150.4130  132.3851 H   0  0  0  0  0  0  0  0  0  0  0  0
  139.0526  151.8143  131.3287 H   0  0  0  0  0  0  0  0  0  0  0  0
  140.1211  150.3704  131.3287 H   0  0  0  0  0  0  0  0  0  0  0  0
  141.4371  154.0233  133.1487 H   0  0  0  0  0  0  0  0  0  0  0  0
  143.7720  157.1265  133.6134 H   0  0  0  0  0  0  0  0  0  0  0  0
  1  2  1  0
  2  3  1  0
  3  4  2  0
  3  5  1  0
  5  6  1  0
  6  7  1  0
  7  8  1  0
  7  9  2  0
  6 10  2  0
 10 11  1  0
 11 12  2  0
 12 13  1  0
 13 14  2  0
 14 15  1  0
 15 16  2  0
 16 17  1  0
 17 18  2  0
 18 19  1  0
 19 20  2  0
 20 21  1  0
 21 22  1  0
 20 23  1  0
 23 24  1  0
 24 25  1  0
 23 26  2  0
 26 27  1  0
 27 28  2  0
 14 29  1  0
 29 30  2  0
 30  5  1  0
 30 11  1  0
 28 15  1  0
 27 18  1  0
  1 31  1  0
  1 32  1  0
  1 33  1  0
  8 34  1  0
 10 35  1  0
 12 36  1  0
 13 37  1  0
 16 38  1  0
 17 39  1  0
 19 40  1  0
 22 41  1  0
 22 42  1  0
 22 43  1  0
 25 44  1  0
 25 45  1  0
 25 46  1  0
 26 47  1  0
 29 48  1  0
M  CHG  1   8  -1
M  END
>  <UniqueID>  (13) 
13

>  <SMILES>  (13) 
COC(=O)n1c(C([NH-])=O)cc2ccc(-c3ccc4cc(OC)c(OC)cc4n3)cc21

>  <Energy>  (13) 
95.2086227429057

>  <Genealogy>  (13) 
COC(=O)n1c(C([NH-])=O)cc2ccc(-c3ccc4cc(OC)c(OC)cc4n3)cc21 (protonated)
COC(=O)n1c(C([NH-])=O)cc2ccc(-c3ccc4cc(OC)c(OC)cc4n3)cc21 (3D coordinates assigned)
COC(=O)n1c(C([NH-])=O)cc2ccc(-c3ccc4cc(OC)c(OC)cc4n3)cc21 (optimized conformer: 95.2086227429057 kcal/mol)

>  <smiles>  (13) 
COC(=O)n1c(C(N)=O)cc2ccc(-c3ccc4cc(OC)c(OC)cc4n3)cc21

>  <score_type>  (13) 
oracle

>  <origin>  (13) 
adg

>  <m_score__min__energy>  (13) 
-8

>  <m_primary>  (13) 
energy

$$$$
13:0
     RDKit          3D

 48 50  0  0  0  0  0  0  0  0999 V2000
  139.0350  147.0520  130.3570 C   0  0  0  0  0  0  0  0  0  0  0  0
  138.7330  148.5240  130.6690 C   0  0  0  0  0  0  0  0  0  0  0  0
  138.3840  149.2980  129.3920 C   0  0  0  0  0  0  0  0  0  0  0  0
  139.8880  149.1780  131.4040 C   0  0  0  0  0  0  0  0  0  0  0  0
  140.9490  148.3910  131.8850 C   0  0  0  0  0  0  0  0  0  0  0  0
  142.0070  148.9790  132.5810 C   0  0  0  0  0  0  0  0  0  0  0  0
  142.0240  150.3560  132.8010 C   0  0  0  0  0  0  0  0  0  0  0  0
  140.9890  151.1650  132.3120 C   0  0  0  0  0  0  0  0  0  0  0  0
  141.0220  152.5790  132.5690 N   0  0  0  0  0  0  0  0  0  0  0  0
  141.5440  153.1650  133.7720 C   0  0  0  0  0  0  0  0  0  0  0  0
  141.8670  152.4410  134.7530 O   0  0  0  0  0  0  0  0  0  0  0  0
  141.6130  154.6550  133.9110 C   0  0  0  0  0  0  0  0  0  0  0  0
  143.0140  155.1320  133.6460 C   0  0  0  0  0  0  0  0  0  0  0  0
  144.0410  154.2020  133.3560 C   0  0  0  0  0  0  0  0  0  0  0  0
  145.3570  154.6350  133.1250 C   0  0  0  0  0  0  0  0  0  0  0  0
  145.6180  155.9990  133.2090 C   0  0  0  0  0  0  0  0  0  0  0  0
  146.7920  156.6890  133.0140 C   0  0  0  0  0  0  0  0  0  0  0  0
  146.4740  158.0270  133.2290 C   0  0  0  0  0  0  0  0  0  0  0  0
  147.4740  159.1120  133.2140 C   0  0  0  0  0  0  0  0  0  0  0  0
  147.4510  160.1150  132.2020 N   0  0  0  0  0  0  0  0  0  0  0  0
  148.3290  159.1850  134.1360 O   0  0  0  0  0  0  0  0  0  0  0  0
  145.1510  158.1620  133.5370 N   0  0  0  0  0  0  0  0  0  0  0  0
  144.4160  159.3760  133.7430 C   0  0  0  0  0  0  0  0  0  0  0  0
  145.0350  160.6410  133.5190 N   0  0  0  0  0  0  0  0  0  0  0  0
  143.2050  159.3300  134.0890 O   0  0  0  0  0  0  0  0  0  0  0  0
  144.6430  156.9100  133.5220 C   0  0  0  0  0  0  0  0  0  0  0  0
  143.3200  156.5090  133.7340 C   0  0  0  0  0  0  0  0  0  0  0  0
  139.9140  150.5690  131.6300 C   0  0  0  0  0  0  0  0  0  0  0  0
  139.1495  146.4938  131.2979 H   0  0  0  0  0  0  0  0  0  0  0  0
  138.2062  146.6231  129.7747 H   0  0  0  0  0  0  0  0  0  0  0  0
  139.9658  146.9841  129.7747 H   0  0  0  0  0  0  0  0  0  0  0  0
  137.8555  148.5521  131.3317 H   0  0  0  0  0  0  0  0  0  0  0  0
  137.9456  150.2704  129.6609 H   0  0  0  0  0  0  0  0  0  0  0  0
  139.2968  149.4586  128.7996 H   0  0  0  0  0  0  0  0  0  0  0  0
  137.6593  148.7202  128.7996 H   0  0  0  0  0  0  0  0  0  0  0  0
  140.9456  147.3047  131.7119 H   0  0  0  0  0  0  0  0  0  0  0  0
  142.8302  148.3538  132.9572 H   0  0  0  0  0  0  0  0  0  0  0  0
  142.8545  150.8099  133.3615 H   0  0  0  0  0  0  0  0  0  0  0  0
  140.5420  153.2110  131.8900 H   0  0  0  0  0  0  0  0  0  0  0  0
  140.9269  155.1204  133.1881 H   0  0  0  0  0  0  0  0  0  0  0  0
  141.3235  154.9359  134.9344 H   0  0  0  0  0  0  0  0  0  0  0  0
  143.8058  153.1284  133.3111 H   0  0  0  0  0  0  0  0  0  0  0  0
  146.1562  153.9182  132.8852 H   0  0  0  0  0  0  0  0  0  0  0  0
  147.7737  156.2719  132.7452 H   0  0  0  0  0  0  0  0  0  0  0  0
  146.7790  160.9110  132.2500 H   0  0  0  0  0  0  0  0  0  0  0  0
  145.4670  160.8700  132.5970 H   0  0  0  0  0  0  0  0  0  0  0  0
  142.5372  157.2469  133.9635 H   0  0  0  0  0  0  0  0  0  0  0  0
  139.0845  151.1947  131.2689 H   0  0  0  0  0  0  0  0  0  0  0  0
  1  2  1  0
  2  3  1  0
  2  4  1  0
  4  5  2  0
  5  6  1  0
  6  7  2  0
  7  8  1  0
  8  9  1  0
  9 10  1  0
 10 11  2  0
 10 12  1  0
 12 13  1  0
 13 14  2  0
 14 15  1  0
 15 16  2  0
 16 17  1  0
 17 18  2  0
 18 19  1  0
 19 20  1  0
 19 21  2  0
 18 22  1  0
 22 23  1  0
 23 24  1  0
 23 25  2  0
 22 26  1  0
 26 27  2  0
  8 28  2  0
 28  4  1  0
 27 13  1  0
 26 16  1  0
  1 29  1  0
  1 30  1  0
  1 31  1  0
  2 32  1  0
  3 33  1  0
  3 34  1  0
  3 35  1  0
  5 36  1  0
  6 37  1  0
  7 38  1  0
  9 39  1  0
 12 40  1  0
 12 41  1  0
 14 42  1  0
 15 43  1  0
 17 44  1  0
 20 45  1  0
 24 46  1  0
 27 47  1  0
 28 48  1  0
M  CHG  2  20  -1  24  -1
M  END
>  <UniqueID>  (14) 
14

>  <SMILES>  (14) 
CC(C)c1cccc(NC(=O)Cc2ccc3cc(C([NH-])=O)n(C([NH-])=O)c3c2)c1

>  <Energy>  (14) 
87.00205325877509

>  <Genealogy>  (14) 
CC(C)c1cccc(NC(=O)Cc2ccc3cc(C([NH-])=O)n(C([NH-])=O)c3c2)c1 (protonated)
CC(C)c1cccc(NC(=O)Cc2ccc3cc(C([NH-])=O)n(C([NH-])=O)c3c2)c1 (3D coordinates assigned)
CC(C)c1cccc(NC(=O)Cc2ccc3cc(C([NH-])=O)n(C([NH-])=O)c3c2)c1 (optimized conformer: 87.00205325877509 kcal/mol)

>  <smiles>  (14) 
CC(C)c1cccc(NC(=O)Cc2ccc3cc(C(N)=O)n(C(N)=O)c3c2)c1

>  <score_type>  (14) 
oracle

>  <origin>  (14) 
adg

>  <m_score__min__energy>  (14) 
-9.6799999999999997

>  <m_primary>  (14) 
energy

$$$$
14:0
     RDKit          3D

 40 42  0  0  0  0  0  0  0  0999 V2000
  145.0810  162.7950  134.4800 C   0  0  0  0  0  0  0  0  0  0  0  0
  144.8050  161.3780  134.0780 C   0  0  0  0  0  0  0  0  0  0  0  0
  143.4690  160.9270  133.9380 C   0  0  0  0  0  0  0  0  0  0  0  0
  143.1970  159.5950  133.5850 C   0  0  0  0  0  0  0  0  0  0  0  0
  144.2760  158.7360  133.3990 C   0  0  0  0  0  0  0  0  0  0  0  0
  144.2980  157.4080  133.0370 C   0  0  0  0  0  0  0  0  0  0  0  0
  145.6470  157.0580  132.9980 C   0  0  0  0  0  0  0  0  0  0  0  0
  146.1360  155.6850  132.7400 C   0  0  0  0  0  0  0  0  0  0  0  0
  147.3710  155.4680  132.0560 N   0  0  0  0  0  0  0  0  0  0  0  0
  145.4480  154.6920  133.0950 O   0  0  0  0  0  0  0  0  0  0  0  0
  146.4280  158.1280  133.3220 N   0  0  0  0  0  0  0  0  0  0  0  0
  147.8620  158.1960  133.3240 C   0  0  0  0  0  0  0  0  0  0  0  0
  148.4990  158.0450  134.4020 O   0  0  0  0  0  0  0  0  0  0  0  0
  148.5670  158.4560  132.1050 N   0  0  0  0  0  0  0  0  0  0  0  0
  149.3770  159.6500  131.8740 C   0  0  0  0  0  0  0  0  0  0  0  0
  148.4660  160.8480  131.5340 C   0  0  0  0  0  0  0  0  0  0  0  0
  149.1780  161.8130  130.5740 C   0  0  0  0  0  0  0  0  0  0  0  0
  149.5300  161.2290  129.3240 O   0  0  0  0  0  0  0  0  0  0  0  0
  149.8240  159.8370  129.3890 C   0  0  0  0  0  0  0  0  0  0  0  0
  150.3870  159.3760  130.7430 C   0  0  0  0  0  0  0  0  0  0  0  0
  145.5730  159.1470  133.5640 C   0  0  0  0  0  0  0  0  0  0  0  0
  145.8740  160.4740  133.8980 C   0  0  0  0  0  0  0  0  0  0  0  0
  145.0953  162.8686  135.5774 H   0  0  0  0  0  0  0  0  0  0  0  0
  146.0567  163.1065  134.0788 H   0  0  0  0  0  0  0  0  0  0  0  0
  144.2935  163.4500  134.0788 H   0  0  0  0  0  0  0  0  0  0  0  0
  142.6372  161.6266  134.1073 H   0  0  0  0  0  0  0  0  0  0  0  0
  142.1629  159.2417  133.4594 H   0  0  0  0  0  0  0  0  0  0  0  0
  143.4347  156.7606  132.8238 H   0  0  0  0  0  0  0  0  0  0  0  0
  147.6900  154.4960  131.8460 H   0  0  0  0  0  0  0  0  0  0  0  0
  147.9930  156.2640  131.7930 H   0  0  0  0  0  0  0  0  0  0  0  0
  149.9378  159.9004  132.7866 H   0  0  0  0  0  0  0  0  0  0  0  0
  147.5454  160.4787  131.0585 H   0  0  0  0  0  0  0  0  0  0  0  0
  148.2251  161.3854  132.4631 H   0  0  0  0  0  0  0  0  0  0  0  0
  148.5103  162.6658  130.3820 H   0  0  0  0  0  0  0  0  0  0  0  0
  150.1172  162.1131  131.0617 H   0  0  0  0  0  0  0  0  0  0  0  0
  148.8968  159.2788  129.1925 H   0  0  0  0  0  0  0  0  0  0  0  0
  150.6046  159.6428  128.6387 H   0  0  0  0  0  0  0  0  0  0  0  0
  150.5958  158.2969  130.6988 H   0  0  0  0  0  0  0  0  0  0  0  0
  151.3112  159.9351  130.9508 H   0  0  0  0  0  0  0  0  0  0  0  0
  146.9169  160.8030  134.0169 H   0  0  0  0  0  0  0  0  0  0  0  0
  1  2  1  0
  2  3  2  0
  3  4  1  0
  4  5  2  0
  5  6  1  0
  6  7  2  0
  7  8  1  0
  8  9  1  0
  8 10  2  0
  7 11  1  0
 11 12  1  0
 12 13  2  0
 12 14  1  0
 14 15  1  0
 15 16  1  0
 16 17  1  0
 17 18  1  0
 18 19  1  0
 19 20  1  0
 11 21  1  0
 21 22  2  0
 22  2  1  0
 21  5  1  0
 20 15  1  0
  1 23  1  0
  1 24  1  0
  1 25  1  0
  3 26  1  0
  4 27  1  0
  6 28  1  0
  9 29  1  0
  9 30  1  0
 15 31  1  0
 16 32  1  0
 16 33  1  0
 17 34  1  0
 17 35  1  0
 19 36  1  0
 19 37  1  0
 20 38  1  0
 20 39  1  0
 22 40  1  0
M  CHG  1  14  -1
M  END
>  <UniqueID>  (15) 
15

>  <SMILES>  (15) 
Cc1ccc2cc(C(N)=O)n(C(=O)[N-]C3CCOCC3)c2c1

>  <Energy>  (15) 
87.00459059485625

>  <Genealogy>  (15) 
Cc1ccc2cc(C(N)=O)n(C(=O)[N-]C3CCOCC3)c2c1 (protonated)
Cc1ccc2cc(C(N)=O)n(C(=O)[N-]C3CCOCC3)c2c1 (3D coordinates assigned)
Cc1ccc2cc(C(N)=O)n(C(=O)[N-]C3CCOCC3)c2c1 (nonaromatic ring conformer: 87.00459059485625 kcal/mol)

>  <smiles>  (15) 
Cc1ccc2cc(C(N)=O)n(C(=O)NC3CCOCC3)c2c1

>  <score_type>  (15) 
oracle

>  <origin>  (15) 
adg

>  <m_score__min__energy>  (15) 
-7.7800000000000002

>  <m_primary>  (15) 
energy

$$$$
15:0
     RDKit          3D

 42 43  0  0  0  0  0  0  0  0999 V2000
  145.2680  153.2340  132.7150 C   0  0  0  0  0  0  0  0  0  0  0  0
  144.6560  154.5640  132.2360 C   0  0  0  0  0  0  0  0  0  0  0  0
  143.3400  154.8040  132.9910 C   0  0  0  0  0  0  0  0  0  0  0  0
  144.3610  154.5160  130.7250 C   0  0  0  0  0  0  0  0  0  0  0  0
  145.5260  155.6620  132.5460 O   0  0  0  0  0  0  0  0  0  0  0  0
  145.4540  156.4880  133.6790 C   0  0  0  0  0  0  0  0  0  0  0  0
  145.5600  156.0060  134.8380 O   0  0  0  0  0  0  0  0  0  0  0  0
  145.2720  157.9030  133.5090 N   0  0  0  0  0  0  0  0  0  0  0  0
  146.2130  158.8200  133.1450 C   0  0  0  0  0  0  0  0  0  0  0  0
  147.5850  158.5060  132.6920 C   0  0  0  0  0  0  0  0  0  0  0  0
  147.8390  157.3690  131.8650 N   0  0  0  0  0  0  0  0  0  0  0  0
  148.5520  159.2250  133.0590 O   0  0  0  0  0  0  0  0  0  0  0  0
  145.6750  160.1050  133.1670 C   0  0  0  0  0  0  0  0  0  0  0  0
  144.3650  159.9480  133.5570 C   0  0  0  0  0  0  0  0  0  0  0  0
  143.3690  160.9000  133.7510 C   0  0  0  0  0  0  0  0  0  0  0  0
  142.1080  160.4550  134.1800 C   0  0  0  0  0  0  0  0  0  0  0  0
  141.8720  159.0790  134.4240 C   0  0  0  0  0  0  0  0  0  0  0  0
  140.5110  158.6120  134.8680 C   0  0  0  0  0  0  0  0  0  0  0  0
  140.4890  158.3140  136.3700 C   0  0  0  0  0  0  0  0  0  0  0  0
  140.5910  159.4970  137.1160 O   0  0  0  0  0  0  0  0  0  0  0  0
  142.9050  158.1400  134.2070 C   0  0  0  0  0  0  0  0  0  0  0  0
  144.1460  158.6090  133.7590 C   0  0  0  0  0  0  0  0  0  0  0  0
  145.2789  153.2104  133.8147 H   0  0  0  0  0  0  0  0  0  0  0  0
  144.6652  152.3955  132.3362 H   0  0  0  0  0  0  0  0  0  0  0  0
  146.2970  153.1464  132.3362 H   0  0  0  0  0  0  0  0  0  0  0  0
  143.5273  154.7698  134.0744 H   0  0  0  0  0  0  0  0  0  0  0  0
  142.9363  155.7906  132.7196 H   0  0  0  0  0  0  0  0  0  0  0  0
  142.6140  154.0234  132.7196 H   0  0  0  0  0  0  0  0  0  0  0  0
  143.2866  154.3412  130.5666 H   0  0  0  0  0  0  0  0  0  0  0  0
  144.6486  155.4727  130.2647 H   0  0  0  0  0  0  0  0  0  0  0  0
  144.9371  153.6998  130.2647 H   0  0  0  0  0  0  0  0  0  0  0  0
  147.0580  156.7810  131.4970 H   0  0  0  0  0  0  0  0  0  0  0  0
  148.8160  157.1350  131.5810 H   0  0  0  0  0  0  0  0  0  0  0  0
  146.1892  161.0465  132.9238 H   0  0  0  0  0  0  0  0  0  0  0  0
  143.5633  161.9681  133.5738 H   0  0  0  0  0  0  0  0  0  0  0  0
  141.2955  161.1816  134.3281 H   0  0  0  0  0  0  0  0  0  0  0  0
  139.7729  159.3972  134.6474 H   0  0  0  0  0  0  0  0  0  0  0  0
  140.2672  157.6863  134.3262 H   0  0  0  0  0  0  0  0  0  0  0  0
  139.5453  157.8087  136.6232 H   0  0  0  0  0  0  0  0  0  0  0  0
  141.3468  157.6698  136.6133 H   0  0  0  0  0  0  0  0  0  0  0  0
  139.6840  159.6860  137.4740 H   0  0  0  0  0  0  0  0  0  0  0  0
  142.7386  157.0674  134.3855 H   0  0  0  0  0  0  0  0  0  0  0  0
  1  2  1  0
  2  3  1  0
  2  4  1  0
  2  5  1  0
  5  6  1  0
  6  7  2  0
  6  8  1  0
  8  9  1  0
  9 10  1  0
 10 11  1  0
 10 12  2  0
  9 13  2  0
 13 14  1  0
 14 15  2  0
 15 16  1  0
 16 17  2  0
 17 18  1  0
 18 19  1  0
 19 20  1  0
 17 21  1  0
 21 22  2  0
 22  8  1  0
 22 14  1  0
  1 23  1  0
  1 24  1  0
  1 25  1  0
  3 26  1  0
  3 27  1  0
  3 28  1  0
  4 29  1  0
  4 30  1  0
  4 31  1  0
 11 32  1  0
 11 33  1  0
 13 34  1  0
 15 35  1  0
 16 36  1  0
 18 37  1  0
 18 38  1  0
 19 39  1  0
 19 40  1  0
 20 41  1  0
 21 42  1  0
M  END
>  <UniqueID>  (16) 
16

>  <SMILES>  (16) 
CC(C)(C)OC(=O)n1c(C(N)=O)cc2ccc(CCO)cc21

>  <Energy>  (16) 
72.53256764768689

>  <Genealogy>  (16) 
CC(C)(C)OC(=O)n1c(C(N)=O)cc2ccc(CCO)cc21 (3D coordinates assigned)
CC(C)(C)OC(=O)n1c(C(N)=O)cc2ccc(CCO)cc21 (optimized conformer: 72.53256764768689 kcal/mol)

>  <smiles>  (16) 
CC(C)(C)OC(=O)n1c(C(N)=O)cc2ccc(CCO)cc21

>  <score_type>  (16) 
oracle

>  <origin>  (16) 
adg

>  <m_score__min__energy>  (16) 
-7.1600000000000001

>  <m_primary>  (16) 
energy

$$$$
16:0
     RDKit          3D

 63 67  0  0  0  0  0  0  0  0999 V2000
  144.5610  155.2460  135.7260 C   0  0  0  0  0  0  0  0  0  0  0  0
  145.2270  154.3830  134.6890 C   0  0  0  0  0  0  0  0  0  0  0  0
  146.5810  154.5180  134.3280 C   0  0  0  0  0  0  0  0  0  0  0  0
  147.4880  155.6040  134.7560 C   0  0  0  0  0  0  0  0  0  0  0  0
  148.1360  155.4510  135.8290 O   0  0  0  0  0  0  0  0  0  0  0  0
  147.6570  156.8160  133.9820 N   0  0  0  0  0  0  0  0  0  0  0  0
  148.4580  157.9160  134.5450 C   0  0  0  0  0  0  0  0  0  0  0  0
  147.9720  159.2860  134.0470 C   0  0  0  0  0  0  0  0  0  0  0  0
  147.6510  159.3220  132.5270 C   0  0  0  0  0  0  0  0  0  0  0  0
  148.2750  160.4940  131.8780 N   0  0  0  0  0  0  0  0  0  0  0  0
  148.3950  160.3830  130.4120 C   0  0  0  0  0  0  0  0  0  0  0  0
  149.7400  160.9420  129.9570 C   0  0  0  0  0  0  0  0  0  0  0  0
  149.9650  162.1650  130.5670 F   0  0  0  0  0  0  0  0  0  0  0  0
  150.7560  160.0720  130.3060 F   0  0  0  0  0  0  0  0  0  0  0  0
  149.7350  161.1170  128.5830 F   0  0  0  0  0  0  0  0  0  0  0  0
  147.9620  157.9900  131.8090 C   0  0  0  0  0  0  0  0  0  0  0  0
  147.2940  156.8310  132.5510 C   0  0  0  0  0  0  0  0  0  0  0  0
  146.9940  153.3030  133.2260 S   0  0  0  0  0  0  0  0  0  0  0  0
  145.4750  152.6070  133.2030 C   0  0  0  0  0  0  0  0  0  0  0  0
  145.1010  151.5160  132.4950 N   0  0  0  0  0  0  0  0  0  0  0  0
  143.8100  151.0870  132.5770 C   0  0  0  0  0  0  0  0  0  0  0  0
  142.9060  151.7660  133.3440 N   0  0  0  0  0  0  0  0  0  0  0  0
  143.2640  152.8690  134.0650 C   0  0  0  0  0  0  0  0  0  0  0  0
  142.2510  153.6010  134.7630 N   0  0  0  0  0  0  0  0  0  0  0  0
  141.4440  154.6100  134.1250 C   0  0  0  0  0  0  0  0  0  0  0  0
  140.2900  154.2660  133.3720 C   0  0  0  0  0  0  0  0  0  0  0  0
  139.5070  155.2600  132.7630 C   0  0  0  0  0  0  0  0  0  0  0  0
  139.9060  156.5830  132.9070 C   0  0  0  0  0  0  0  0  0  0  0  0
  139.3190  157.7370  132.4430 C   0  0  0  0  0  0  0  0  0  0  0  0
  140.1430  158.7740  132.8810 C   0  0  0  0  0  0  0  0  0  0  0  0
  139.9200  160.1940  132.5270 C   0  0  0  0  0  0  0  0  0  0  0  0
  138.8630  160.5420  131.6340 N   0  0  0  0  0  0  0  0  0  0  0  0
  140.6800  161.0980  132.9680 O   0  0  0  0  0  0  0  0  0  0  0  0
  141.1940  158.2790  133.5970 N   0  0  0  0  0  0  0  0  0  0  0  0
  142.2370  159.0190  134.2550 C   0  0  0  0  0  0  0  0  0  0  0  0
  143.0620  159.9120  133.5110 N   0  0  0  0  0  0  0  0  0  0  0  0
  142.4420  158.8650  135.4890 O   0  0  0  0  0  0  0  0  0  0  0  0
  141.0320  156.9360  133.6040 C   0  0  0  0  0  0  0  0  0  0  0  0
  141.8130  155.9680  134.2510 C   0  0  0  0  0  0  0  0  0  0  0  0
  144.6020  153.3040  134.0180 C   0  0  0  0  0  0  0  0  0  0  0  0
  144.8354  154.8904  136.7301 H   0  0  0  0  0  0  0  0  0  0  0  0
  144.8914  156.2880  135.6030 H   0  0  0  0  0  0  0  0  0  0  0  0
  143.4693  155.1905  135.6030 H   0  0  0  0  0  0  0  0  0  0  0  0
  148.3811  157.8877  135.6419 H   0  0  0  0  0  0  0  0  0  0  0  0
  149.5001  157.7828  134.2192 H   0  0  0  0  0  0  0  0  0  0  0  0
  147.0597  159.5528  134.6007 H   0  0  0  0  0  0  0  0  0  0  0  0
  148.7918  159.9990  134.2187 H   0  0  0  0  0  0  0  0  0  0  0  0
  146.5620  159.4432  132.4296 H   0  0  0  0  0  0  0  0  0  0  0  0
  147.6980  161.3410  132.0980 H   0  0  0  0  0  0  0  0  0  0  0  0
  148.3218  159.3252  130.1191 H   0  0  0  0  0  0  0  0  0  0  0  0
  147.5853  160.9571  129.9379 H   0  0  0  0  0  0  0  0  0  0  0  0
  147.5789  158.0328  130.7787 H   0  0  0  0  0  0  0  0  0  0  0  0
  149.0505  157.8317  131.7944 H   0  0  0  0  0  0  0  0  0  0  0  0
  146.2024  156.9325  132.4614 H   0  0  0  0  0  0  0  0  0  0  0  0
  147.6413  155.8899  132.0997 H   0  0  0  0  0  0  0  0  0  0  0  0
  143.4946  150.1904  132.0233 H   0  0  0  0  0  0  0  0  0  0  0  0
  142.0490  153.3230  135.7530 H   0  0  0  0  0  0  0  0  0  0  0  0
  140.0062  153.2087  133.2646 H   0  0  0  0  0  0  0  0  0  0  0  0
  138.6053  154.9991  132.1895 H   0  0  0  0  0  0  0  0  0  0  0  0
  138.3955  157.8239  131.8518 H   0  0  0  0  0  0  0  0  0  0  0  0
  138.1550  161.2630  131.8980 H   0  0  0  0  0  0  0  0  0  0  0  0
  142.7220  160.3490  132.6270 H   0  0  0  0  0  0  0  0  0  0  0  0
  142.6930  156.2592  134.8433 H   0  0  0  0  0  0  0  0  0  0  0  0
  1  2  1  0
  2  3  2  0
  3  4  1  0
  4  5  2  0
  4  6  1  0
  6  7  1  0
  7  8  1  0
  8  9  1  0
  9 10  1  0
 10 11  1  0
 11 12  1  0
 12 13  1  0
 12 14  1  0
 12 15  1  0
  9 16  1  0
 16 17  1  0
  3 18  1  0
 18 19  1  0
 19 20  2  0
 20 21  1  0
 21 22  2  0
 22 23  1  0
 23 24  1  0
 24 25  1  0
 25 26  2  0
 26 27  1  0
 27 28  2  0
 28 29  1  0
 29 30  2  0
 30 31  1  0
 31 32  1  0
 31 33  2  0
 30 34  1  0
 34 35  1  0
 35 36  1  0
 35 37  2  0
 34 38  1  0
 38 39  2  0
 23 40  2  0
 40  2  1  0
 17  6  1  0
 40 19  1  0
 39 25  1  0
 38 28  1  0
  1 41  1  0
  1 42  1  0
  1 43  1  0
  7 44  1  0
  7 45  1  0
  8 46  1  0
  8 47  1  0
  9 48  1  0
 10 49  1  0
 11 50  1  0
 11 51  1  0
 16 52  1  0
 16 53  1  0
 17 54  1  0
 17 55  1  0
 21 56  1  0
 24 57  1  0
 26 58  1  0
 27 59  1  0
 29 60  1  0
 32 61  1  0
 36 62  1  0
 39 63  1  0
M  CHG  2  32  -1  36  -1
M  END
>  <UniqueID>  (17) 
17

>  <SMILES>  (17) 
Cc1c(C(=O)N2CCC(NCC(F)(F)F)CC2)sc2ncnc(Nc3ccc4cc(C([NH-])=O)n(C([NH-])=O)c4c3)c12

>  <Energy>  (17) 
157.69937776805824

>  <Genealogy>  (17) 
Cc1c(C(=O)N2CCC(NCC(F)(F)F)CC2)sc2ncnc(Nc3ccc4cc(C([NH-])=O)n(C([NH-])=O)c4c3)c12 (protonated)
Cc1c(C(=O)N2CCC(NCC(F)(F)F)CC2)sc2ncnc(Nc3ccc4cc(C([NH-])=O)n(C([NH-])=O)c4c3)c12 (3D coordinates assigned)
Cc1c(C(=O)N2CCC(NCC(F)(F)F)CC2)sc2ncnc(Nc3ccc4cc(C([NH-])=O)n(C([NH-])=O)c4c3)c12 (nonaromatic ring conformer: 157.69937776805824 kcal/mol)

>  <smiles>  (17) 
Cc1c(C(=O)N2CCC(NCC(F)(F)F)CC2)sc2ncnc(Nc3ccc4cc(C(N)=O)n(C(N)=O)c4c3)c12

>  <score_type>  (17) 
oracle

>  <origin>  (17) 
adg

>  <m_score__min__energy>  (17) 
-10.85

>  <m_primary>  (17) 
energy

$$$$
17:0
     RDKit          3D

 45 48  0  0  0  0  0  0  0  0999 V2000
  145.5920  154.9230  133.6250 C   0  0  0  0  0  0  0  0  0  0  0  0
  144.6900  155.5690  134.6880 C   0  0  2  0  0  0  0  0  0  0  0  0
  143.7730  154.5490  135.3330 C   0  0  0  0  0  0  0  0  0  0  0  0
  143.6030  154.5370  136.7270 C   0  0  0  0  0  0  0  0  0  0  0  0
  142.7440  153.6140  137.3310 C   0  0  0  0  0  0  0  0  0  0  0  0
  142.0320  152.6880  136.5530 C   0  0  0  0  0  0  0  0  0  0  0  0
  141.1170  151.7160  137.1920 C   0  0  0  0  0  0  0  0  0  0  0  0
  140.6030  150.6450  136.5470 N   0  0  0  0  0  0  0  0  0  0  0  0
  139.8470  150.0370  137.4770 C   0  0  0  0  0  0  0  0  0  0  0  0
  139.9180  150.7430  138.6520 C   0  0  0  0  0  0  0  0  0  0  0  0
  140.7210  151.8070  138.4810 N   0  0  0  0  0  0  0  0  0  0  0  0
  142.2000  152.6980  135.1580 C   0  0  0  0  0  0  0  0  0  0  0  0
  143.0610  153.6180  134.5540 C   0  0  0  0  0  0  0  0  0  0  0  0
  143.8920  156.7560  134.1740 C   0  0  0  0  0  0  0  0  0  0  0  0
  144.5300  158.0220  134.0850 C   0  0  0  0  0  0  0  0  0  0  0  0
  143.8200  159.1630  133.6770 C   0  0  0  0  0  0  0  0  0  0  0  0
  142.4720  159.0160  133.3710 C   0  0  0  0  0  0  0  0  0  0  0  0
  141.5450  159.9540  132.9780 C   0  0  0  0  0  0  0  0  0  0  0  0
  140.3500  159.2520  132.8270 C   0  0  0  0  0  0  0  0  0  0  0  0
  139.1030  159.8620  132.3200 C   0  0  0  0  0  0  0  0  0  0  0  0
  139.1080  161.2090  131.8540 N   0  0  0  0  0  0  0  0  0  0  0  0
  138.0380  159.1930  132.2620 O   0  0  0  0  0  0  0  0  0  0  0  0
  140.5300  157.9350  133.1250 N   0  0  0  0  0  0  0  0  0  0  0  0
  139.5410  156.8940  133.1540 C   0  0  0  0  0  0  0  0  0  0  0  0
  138.2430  157.1440  133.6930 N   0  0  0  0  0  0  0  0  0  0  0  0
  139.8280  155.7420  132.7330 O   0  0  0  0  0  0  0  0  0  0  0  0
  141.8350  157.8050  133.4500 C   0  0  0  0  0  0  0  0  0  0  0  0
  142.5120  156.6540  133.8660 C   0  0  0  0  0  0  0  0  0  0  0  0
  146.3906  154.3511  134.1202 H   0  0  0  0  0  0  0  0  0  0  0  0
  144.9926  154.2475  132.9969 H   0  0  0  0  0  0  0  0  0  0  0  0
  146.0385  155.7079  132.9969 H   0  0  0  0  0  0  0  0  0  0  0  0
  145.3761  155.9637  135.4518 H   0  0  0  0  0  0  0  0  0  0  0  0
  144.1506  155.2602  137.3492 H   0  0  0  0  0  0  0  0  0  0  0  0
  142.6253  153.6136  138.4246 H   0  0  0  0  0  0  0  0  0  0  0  0
  139.2630  149.1179  137.3211 H   0  0  0  0  0  0  0  0  0  0  0  0
  139.3997  150.4796  139.5858 H   0  0  0  0  0  0  0  0  0  0  0  0
  141.6496  151.9762  134.5367 H   0  0  0  0  0  0  0  0  0  0  0  0
  143.1833  153.6145  133.4608 H   0  0  0  0  0  0  0  0  0  0  0  0
  145.5965  158.1101  134.3396 H   0  0  0  0  0  0  0  0  0  0  0  0
  144.3151  160.1424  133.6019 H   0  0  0  0  0  0  0  0  0  0  0  0
  141.7115  161.0294  132.8171 H   0  0  0  0  0  0  0  0  0  0  0  0
  138.2630  161.6250  131.4020 H   0  0  0  0  0  0  0  0  0  0  0  0
  138.0160  158.0670  134.1250 H   0  0  0  0  0  0  0  0  0  0  0  0
  137.5170  156.3930  133.6890 H   0  0  0  0  0  0  0  0  0  0  0  0
  141.9858  155.6919  133.9522 H   0  0  0  0  0  0  0  0  0  0  0  0
  1  2  1  0
  2  3  1  0
  3  4  2  0
  4  5  1  0
  5  6  2  0
  6  7  1  0
  7  8  2  0
  8  9  1  0
  9 10  2  0
 10 11  1  0
  6 12  1  0
 12 13  2  0
  2 14  1  0
 14 15  2  0
 15 16  1  0
 16 17  2  0
 17 18  1  0
 18 19  2  0
 19 20  1  0
 20 21  1  0
 20 22  2  0
 19 23  1  0
 23 24  1  0
 24 25  1  0
 24 26  2  0
 23 27  1  0
 27 28  2  0
 13  3  1  0
 28 14  1  0
 11  7  1  0
 27 17  1  0
  1 29  1  0
  1 30  1  0
  1 31  1  0
  2 32  1  1
  4 33  1  0
  5 34  1  0
  9 35  1  0
 10 36  1  0
 12 37  1  0
 13 38  1  0
 15 39  1  0
 16 40  1  0
 18 41  1  0
 21 42  1  0
 25 43  1  0
 25 44  1  0
 28 45  1  0
M  CHG  2  11  -1  21  -1
M  END
>  <UniqueID>  (18) 
18

>  <SMILES>  (18) 
C[C@H](c1ccc(-c2ncc[n-]2)cc1)c1ccc2cc(C([NH-])=O)n(C(N)=O)c2c1

>  <Energy>  (18) 
115.91965909346787

>  <Genealogy>  (18) 
CC(c1ccc(-c2ncc[n-]2)cc1)c1ccc2cc(C([NH-])=O)n(C(N)=O)c2c1 (protonated)
C[C@H](c1ccc(-c2ncc[n-]2)cc1)c1ccc2cc(C([NH-])=O)n(C(N)=O)c2c1 (chirality)
C[C@H](c1ccc(-c2ncc[n-]2)cc1)c1ccc2cc(C([NH-])=O)n(C(N)=O)c2c1 (3D coordinates assigned)
C[C@H](c1ccc(-c2ncc[n-]2)cc1)c1ccc2cc(C([NH-])=O)n(C(N)=O)c2c1 (optimized conformer: 115.91965909346787 kcal/mol)

>  <smiles>  (18) 
CC(c1ccc(-c2ncc[nH]2)cc1)c1ccc2cc(C(N)=O)n(C(N)=O)c2c1

>  <score_type>  (18) 
oracle

>  <origin>  (18) 
adg

>  <m_score__min__energy>  (18) 
-8.9199999999999999

>  <m_primary>  (18) 
energy

$$$$
18:0
     RDKit          3D

 42 44  0  0  0  0  0  0  0  0999 V2000
  140.4100  156.1290  137.9770 C   0  0  0  0  0  0  0  0  0  0  0  0
  141.0140  157.3700  136.8530 S   0  0  0  0  0  0  0  0  0  0  0  0
  141.6290  158.5120  137.6110 O   0  0  0  0  0  0  0  0  0  0  0  0
  142.0590  156.7510  135.9710 O   0  0  0  0  0  0  0  0  0  0  0  0
  139.7160  157.9440  135.8580 N   0  0  0  0  0  0  0  0  0  0  0  0
  139.8020  158.2470  134.4570 C   0  0  0  0  0  0  0  0  0  0  0  0
  138.7070  158.0530  133.5940 C   0  0  0  0  0  0  0  0  0  0  0  0
  138.7930  158.4190  132.2490 C   0  0  0  0  0  0  0  0  0  0  0  0
  139.9650  158.9900  131.7520 C   0  0  0  0  0  0  0  0  0  0  0  0
  141.0600  159.1840  132.5950 C   0  0  0  0  0  0  0  0  0  0  0  0
  140.9980  158.7950  133.9410 C   0  0  0  0  0  0  0  0  0  0  0  0
  142.1510  158.9940  134.7770 N   0  0  0  0  0  0  0  0  0  0  0  0
  143.4480  159.3710  134.2810 C   0  0  0  0  0  0  0  0  0  0  0  0
  143.8380  160.7360  134.2040 C   0  0  0  0  0  0  0  0  0  0  0  0
  145.1110  161.0910  133.7290 C   0  0  0  0  0  0  0  0  0  0  0  0
  145.9720  160.0680  133.3450 C   0  0  0  0  0  0  0  0  0  0  0  0
  147.2670  160.1290  132.8810 C   0  0  0  0  0  0  0  0  0  0  0  0
  147.6490  158.8030  132.6790 C   0  0  0  0  0  0  0  0  0  0  0  0
  148.9590  158.4040  132.1210 C   0  0  0  0  0  0  0  0  0  0  0  0
  149.7530  159.3600  131.4210 N   0  0  0  0  0  0  0  0  0  0  0  0
  149.3750  157.2220  132.2340 O   0  0  0  0  0  0  0  0  0  0  0  0
  146.6290  157.9580  133.0060 N   0  0  0  0  0  0  0  0  0  0  0  0
  146.6370  156.5220  132.9850 C   0  0  0  0  0  0  0  0  0  0  0  0
  147.2260  155.8190  131.8920 N   0  0  0  0  0  0  0  0  0  0  0  0
  146.1170  155.8760  133.9340 O   0  0  0  0  0  0  0  0  0  0  0  0
  145.6130  158.7480  133.4130 C   0  0  0  0  0  0  0  0  0  0  0  0
  144.3590  158.3640  133.9010 C   0  0  0  0  0  0  0  0  0  0  0  0
  140.5722  156.4622  139.0127 H   0  0  0  0  0  0  0  0  0  0  0  0
  139.3347  155.9720  137.8065 H   0  0  0  0  0  0  0  0  0  0  0  0
  140.9499  155.1859  137.8065 H   0  0  0  0  0  0  0  0  0  0  0  0
  137.7776  157.6102  133.9815 H   0  0  0  0  0  0  0  0  0  0  0  0
  137.9350  158.2568  131.5801 H   0  0  0  0  0  0  0  0  0  0  0  0
  140.0259  159.2875  130.6947 H   0  0  0  0  0  0  0  0  0  0  0  0
  141.9778  159.6451  132.2012 H   0  0  0  0  0  0  0  0  0  0  0  0
  142.0170  158.9310  135.8120 H   0  0  0  0  0  0  0  0  0  0  0  0
  143.1358  161.5217  134.5195 H   0  0  0  0  0  0  0  0  0  0  0  0
  145.4178  162.1453  133.6626 H   0  0  0  0  0  0  0  0  0  0  0  0
  147.8715  161.0314  132.7068 H   0  0  0  0  0  0  0  0  0  0  0  0
  150.7570  159.5050  131.6650 H   0  0  0  0  0  0  0  0  0  0  0  0
  147.2040  154.7760  131.8630 H   0  0  0  0  0  0  0  0  0  0  0  0
  147.7210  156.3370  131.1330 H   0  0  0  0  0  0  0  0  0  0  0  0
  144.0900  157.3008  133.9862 H   0  0  0  0  0  0  0  0  0  0  0  0
  1  2  1  0
  2  3  2  0
  2  4  2  0
  2  5  1  0
  5  6  1  0
  6  7  2  0
  7  8  1  0
  8  9  2  0
  9 10  1  0
 10 11  2  0
 11 12  1  0
 12 13  1  0
 13 14  2  0
 14 15  1  0
 15 16  2  0
 16 17  1  0
 17 18  2  0
 18 19  1  0
 19 20  1  0
 19 21  2  0
 18 22  1  0
 22 23  1  0
 23 24  1  0
 23 25  2  0
 22 26  1  0
 26 27  2  0
 11  6  1  0
 27 13  1  0
 26 16  1  0
  1 28  1  0
  1 29  1  0
  1 30  1  0
  7 31  1  0
  8 32  1  0
  9 33  1  0
 10 34  1  0
 12 35  1  0
 14 36  1  0
 15 37  1  0
 17 38  1  0
 20 39  1  0
 24 40  1  0
 24 41  1  0
 27 42  1  0
M  CHG  2   5  -1  20  -1
M  END
>  <UniqueID>  (19) 
19

>  <SMILES>  (19) 
CS(=O)(=O)[N-]c1ccccc1Nc1ccc2cc(C([NH-])=O)n(C(N)=O)c2c1

>  <Energy>  (19) 
87.59551304728525

>  <Genealogy>  (19) 
CS(=O)(=O)[N-]c1ccccc1Nc1ccc2cc(C([NH-])=O)n(C(N)=O)c2c1 (protonated)
CS(=O)(=O)[N-]c1ccccc1Nc1ccc2cc(C([NH-])=O)n(C(N)=O)c2c1 (3D coordinates assigned)
CS(=O)(=O)[N-]c1ccccc1Nc1ccc2cc(C([NH-])=O)n(C(N)=O)c2c1 (optimized conformer: 87.59551304728525 kcal/mol)

>  <smiles>  (19) 
CS(=O)(=O)Nc1ccccc1Nc1ccc2cc(C(N)=O)n(C(N)=O)c2c1

>  <score_type>  (19) 
oracle

>  <origin>  (19) 
adg

>  <m_score__min__energy>  (19) 
-8.8200000000000003

>  <m_primary>  (19) 
energy

$$$$
19:0
     RDKit          3D

 36 38  0  0  0  0  0  0  0  0999 V2000
  139.1240  160.6840  131.4950 C   0  0  0  0  0  0  0  0  0  0  0  0
  139.5810  159.4410  132.1910 C   0  0  0  0  0  0  0  0  0  0  0  0
  139.0150  158.2020  131.8750 C   0  0  0  0  0  0  0  0  0  0  0  0
  139.4550  157.0730  132.5670 C   0  0  0  0  0  0  0  0  0  0  0  0
  140.4100  157.1950  133.5240 N   0  0  0  0  0  0  0  0  0  0  0  0
  140.9570  158.4050  133.8180 C   0  0  0  0  0  0  0  0  0  0  0  0
  141.9740  158.5230  134.9070 C   0  0  0  0  0  0  0  0  0  0  0  0
  143.2490  159.1000  134.3580 C   0  0  0  0  0  0  0  0  0  0  0  0
  143.3800  160.5010  134.1920 C   0  0  0  0  0  0  0  0  0  0  0  0
  144.5840  161.0580  133.7280 C   0  0  0  0  0  0  0  0  0  0  0  0
  145.6350  160.1910  133.4440 C   0  0  0  0  0  0  0  0  0  0  0  0
  146.9140  160.4630  133.0180 C   0  0  0  0  0  0  0  0  0  0  0  0
  147.5430  159.2230  132.9190 C   0  0  0  0  0  0  0  0  0  0  0  0
  148.9230  159.0500  132.4170 C   0  0  0  0  0  0  0  0  0  0  0  0
  149.4420  157.7550  132.1280 N   0  0  0  0  0  0  0  0  0  0  0  0
  149.6380  160.0640  132.1950 O   0  0  0  0  0  0  0  0  0  0  0  0
  146.6880  158.2240  133.2760 N   0  0  0  0  0  0  0  0  0  0  0  0
  146.9740  156.8200  133.3910 C   0  0  0  0  0  0  0  0  0  0  0  0
  147.2250  156.0410  132.2250 N   0  0  0  0  0  0  0  0  0  0  0  0
  146.9900  156.2680  134.5230 O   0  0  0  0  0  0  0  0  0  0  0  0
  145.5240  158.8320  133.5920 C   0  0  0  0  0  0  0  0  0  0  0  0
  144.3420  158.2540  134.0710 C   0  0  0  0  0  0  0  0  0  0  0  0
  140.5310  159.5180  133.1610 N   0  0  0  0  0  0  0  0  0  0  0  0
  138.8455  161.4415  132.2425 H   0  0  0  0  0  0  0  0  0  0  0  0
  139.9382  161.0722  130.8654 H   0  0  0  0  0  0  0  0  0  0  0  0
  138.2523  160.4523  130.8654 H   0  0  0  0  0  0  0  0  0  0  0  0
  138.2404  158.1192  131.0984 H   0  0  0  0  0  0  0  0  0  0  0  0
  139.0285  156.0854  132.3373 H   0  0  0  0  0  0  0  0  0  0  0  0
  141.5864  159.1822  135.6978 H   0  0  0  0  0  0  0  0  0  0  0  0
  142.1779  157.5245  135.3210 H   0  0  0  0  0  0  0  0  0  0  0  0
  142.5310  161.1592  134.4286 H   0  0  0  0  0  0  0  0  0  0  0  0
  144.6922  162.1444  133.5936 H   0  0  0  0  0  0  0  0  0  0  0  0
  147.3486  161.4500  132.8013 H   0  0  0  0  0  0  0  0  0  0  0  0
  148.9540  157.1170  131.4630 H   0  0  0  0  0  0  0  0  0  0  0  0
  147.8710  156.3840  131.4790 H   0  0  0  0  0  0  0  0  0  0  0  0
  144.2669  157.1667  134.2201 H   0  0  0  0  0  0  0  0  0  0  0  0
  1  2  1  0
  2  3  2  0
  3  4  1  0
  4  5  2  0
  5  6  1  0
  6  7  1  0
  7  8  1  0
  8  9  2  0
  9 10  1  0
 10 11  2  0
 11 12  1  0
 12 13  2  0
 13 14  1  0
 14 15  1  0
 14 16  2  0
 13 17  1  0
 17 18  1  0
 18 19  1  0
 18 20  2  0
 17 21  1  0
 21 22  2  0
  6 23  2  0
 23  2  1  0
 22  8  1  0
 21 11  1  0
  1 24  1  0
  1 25  1  0
  1 26  1  0
  3 27  1  0
  4 28  1  0
  7 29  1  0
  7 30  1  0
  9 31  1  0
 10 32  1  0
 12 33  1  0
 15 34  1  0
 19 35  1  0
 22 36  1  0
M  CHG  2  15  -1  19  -1
M  END
>  <UniqueID>  (20) 
20

>  <SMILES>  (20) 
Cc1ccnc(Cc2ccc3cc(C([NH-])=O)n(C([NH-])=O)c3c2)n1

>  <Energy>  (20) 
75.63949527738114

>  <Genealogy>  (20) 
Cc1ccnc(Cc2ccc3cc(C([NH-])=O)n(C([NH-])=O)c3c2)n1 (protonated)
Cc1ccnc(Cc2ccc3cc(C([NH-])=O)n(C([NH-])=O)c3c2)n1 (3D coordinates assigned)
Cc1ccnc(Cc2ccc3cc(C([NH-])=O)n(C([NH-])=O)c3c2)n1 (optimized conformer: 75.63949527738114 kcal/mol)

>  <smiles>  (20) 
Cc1ccnc(Cc2ccc3cc(C(N)=O)n(C(N)=O)c3c2)n1

>  <score_type>  (20) 
oracle

>  <origin>  (20) 
adg

>  <m_score__min__energy>  (20) 
-7.4699999999999998

>  <m_primary>  (20) 
energy

$$$$
20:0
     RDKit          3D

 77 81  0  0  0  0  0  0  0  0999 V2000
  142.2940  151.2000  139.2980 C   0  0  0  0  0  0  0  0  0  0  0  0
  141.3420  151.8210  138.2650 C   0  0  0  0  0  0  0  0  0  0  0  0
  140.6040  153.0100  138.9070 C   0  0  0  0  0  0  0  0  0  0  0  0
  140.3390  150.7420  137.8030 C   0  0  0  0  0  0  0  0  0  0  0  0
  142.1490  152.2790  137.1690 O   0  0  0  0  0  0  0  0  0  0  0  0
  142.9530  153.4290  137.1480 C   0  0  0  0  0  0  0  0  0  0  0  0
  143.7490  153.6690  138.0960 O   0  0  0  0  0  0  0  0  0  0  0  0
  142.8900  154.3190  136.0180 N   0  0  0  0  0  0  0  0  0  0  0  0
  142.1560  155.4650  135.9040 C   0  0  0  0  0  0  0  0  0  0  0  0
  141.4500  156.1630  136.9990 C   0  0  0  0  0  0  0  0  0  0  0  0
  141.9500  156.1310  138.3350 N   0  0  0  0  0  0  0  0  0  0  0  0
  140.4290  156.8600  136.7400 O   0  0  0  0  0  0  0  0  0  0  0  0
  142.2400  155.9770  134.6120 C   0  0  0  0  0  0  0  0  0  0  0  0
  143.0730  155.1210  133.9330 C   0  0  0  0  0  0  0  0  0  0  0  0
  143.5170  155.1720  132.6180 C   0  0  0  0  0  0  0  0  0  0  0  0
  144.4010  154.1730  132.1820 C   0  0  0  0  0  0  0  0  0  0  0  0
  144.8250  153.1460  133.0650 C   0  0  0  0  0  0  0  0  0  0  0  0
  145.7890  152.1680  132.6290 N   0  0  0  0  0  0  0  0  0  0  0  0
  147.1060  152.7470  132.5890 C   0  0  0  0  0  0  0  0  0  0  0  0
  147.2720  154.0630  132.9000 N   0  0  0  0  0  0  0  0  0  0  0  0
  148.5040  154.6320  132.9520 C   0  0  0  0  0  0  0  0  0  0  0  0
  148.6360  156.0130  133.3120 N   0  0  0  0  0  0  0  0  0  0  0  0
  147.5470  156.9500  133.2830 C   0  0  0  0  0  0  0  0  0  0  0  0
  146.3290  156.6140  133.8930 C   0  0  0  0  0  0  0  0  0  0  0  0
  145.2830  157.5400  133.9530 C   0  0  0  0  0  0  0  0  0  0  0  0
  145.4470  158.8360  133.4240 C   0  0  0  0  0  0  0  0  0  0  0  0
  144.4470  159.8230  133.4980 O   0  0  0  0  0  0  0  0  0  0  0  0
  143.2340  159.7260  134.2450 C   0  0  0  0  0  0  0  0  0  0  0  0
  142.0420  160.2010  133.4070 C   0  0  0  0  0  0  0  0  0  0  0  0
  141.0790  159.0980  133.1990 N   0  0  0  0  0  0  0  0  0  0  0  0
  140.3380  158.8100  134.4440 C   0  0  0  0  0  0  0  0  0  0  0  0
  139.1570  157.8520  134.1840 C   0  0  0  0  0  0  0  0  0  0  0  0
  139.2750  157.2430  132.9140 O   0  0  0  0  0  0  0  0  0  0  0  0
  139.1520  158.2250  131.9010 C   0  0  0  0  0  0  0  0  0  0  0  0
  140.1310  159.4040  132.1080 C   0  0  0  0  0  0  0  0  0  0  0  0
  146.6570  159.1680  132.8010 C   0  0  0  0  0  0  0  0  0  0  0  0
  146.8370  160.4130  132.2880 F   0  0  0  0  0  0  0  0  0  0  0  0
  147.7000  158.2370  132.7350 C   0  0  0  0  0  0  0  0  0  0  0  0
  149.6030  153.8830  132.6610 N   0  0  0  0  0  0  0  0  0  0  0  0
  149.4880  152.5740  132.3180 C   0  0  0  0  0  0  0  0  0  0  0  0
  148.2340  151.9710  132.2760 C   0  0  0  0  0  0  0  0  0  0  0  0
  148.1210  150.6580  131.9510 F   0  0  0  0  0  0  0  0  0  0  0  0
  144.3210  153.1100  134.3860 C   0  0  0  0  0  0  0  0  0  0  0  0
  143.4560  154.1290  134.8010 C   0  0  0  0  0  0  0  0  0  0  0  0
  141.9371  151.4328  140.3121 H   0  0  0  0  0  0  0  0  0  0  0  0
  142.3227  150.1090  139.1609 H   0  0  0  0  0  0  0  0  0  0  0  0
  143.3041  151.6135  139.1609 H   0  0  0  0  0  0  0  0  0  0  0  0
  140.6563  152.9257  140.0025 H   0  0  0  0  0  0  0  0  0  0  0  0
  141.0773  153.9505  138.5886 H   0  0  0  0  0  0  0  0  0  0  0  0
  139.5511  153.0032  138.5886 H   0  0  0  0  0  0  0  0  0  0  0  0
  139.8895  150.2585  138.6828 H   0  0  0  0  0  0  0  0  0  0  0  0
  139.5486  151.2109  137.1985 H   0  0  0  0  0  0  0  0  0  0  0  0
  140.8643  149.9879  137.1985 H   0  0  0  0  0  0  0  0  0  0  0  0
  142.8230  155.6050  138.5690 H   0  0  0  0  0  0  0  0  0  0  0  0
  141.7443  156.8766  134.2182 H   0  0  0  0  0  0  0  0  0  0  0  0
  143.1858  155.9713  131.9387 H   0  0  0  0  0  0  0  0  0  0  0  0
  144.7690  154.1861  131.1455 H   0  0  0  0  0  0  0  0  0  0  0  0
  145.7910  151.3590  133.2940 H   0  0  0  0  0  0  0  0  0  0  0  0
  145.5270  151.7880  131.6900 H   0  0  0  0  0  0  0  0  0  0  0  0
  149.5960  156.3760  133.5150 H   0  0  0  0  0  0  0  0  0  0  0  0
  146.1957  155.6126  134.3282 H   0  0  0  0  0  0  0  0  0  0  0  0
  144.3266  157.2553  134.4158 H   0  0  0  0  0  0  0  0  0  0  0  0
  143.0739  158.6782  134.5391 H   0  0  0  0  0  0  0  0  0  0  0  0
  143.3160  160.3646  135.1369 H   0  0  0  0  0  0  0  0  0  0  0  0
  141.5382  161.0268  133.9307 H   0  0  0  0  0  0  0  0  0  0  0  0
  142.4100  160.5398  132.4273 H   0  0  0  0  0  0  0  0  0  0  0  0
  141.0226  158.3463  135.1694 H   0  0  0  0  0  0  0  0  0  0  0  0
  139.9377  159.7563  134.8368 H   0  0  0  0  0  0  0  0  0  0  0  0
  139.1485  157.0714  134.9589 H   0  0  0  0  0  0  0  0  0  0  0  0
  138.2214  158.4298  134.2124 H   0  0  0  0  0  0  0  0  0  0  0  0
  139.3612  157.7577  130.9274 H   0  0  0  0  0  0  0  0  0  0  0  0
  138.1282  158.6253  131.9414 H   0  0  0  0  0  0  0  0  0  0  0  0
  140.6920  159.5774  131.1778 H   0  0  0  0  0  0  0  0  0  0  0  0
  139.5566  160.3033  132.3749 H   0  0  0  0  0  0  0  0  0  0  0  0
  148.6479  158.5139  132.2504 H   0  0  0  0  0  0  0  0  0  0  0  0
  150.3870  151.9894  132.0730 H   0  0  0  0  0  0  0  0  0  0  0  0
  144.6029  152.2983  135.0727 H   0  0  0  0  0  0  0  0  0  0  0  0
  1  2  1  0
  2  3  1  0
  2  4  1  0
  2  5  1  0
  5  6  1  0
  6  7  2  0
  6  8  1  0
  8  9  1  0
  9 10  1  0
 10 11  1  0
 10 12  2  0
  9 13  2  0
 13 14  1  0
 14 15  2  0
 15 16  1  0
 16 17  2  0
 17 18  1  0
 18 19  1  0
 19 20  2  0
 20 21  1  0
 21 22  1  0
 22 23  1  0
 23 24  2  0
 24 25  1  0
 25 26  2  0
 26 27  1  0
 27 28  1  0
 28 29  1  0
 29 30  1  0
 30 31  1  0
 31 32  1  0
 32 33  1  0
 33 34  1  0
 34 35  1  0
 26 36  1  0
 36 37  1  0
 36 38  2  0
 21 39  2  0
 39 40  1  0
 40 41  2  0
 41 42  1  0
 17 43  1  0
 43 44  2  0
 44  8  1  0
 44 14  1  0
 41 19  1  0
 38 23  1  0
 35 30  1  0
  1 45  1  0
  1 46  1  0
  1 47  1  0
  3 48  1  0
  3 49  1  0
  3 50  1  0
  4 51  1  0
  4 52  1  0
  4 53  1  0
 11 54  1  0
 13 55  1  0
 15 56  1  0
 16 57  1  0
 18 58  1  0
 18 59  1  0
 22 60  1  0
 24 61  1  0
 25 62  1  0
 28 63  1  0
 28 64  1  0
 29 65  1  0
 29 66  1  0
 31 67  1  0
 31 68  1  0
 32 69  1  0
 32 70  1  0
 34 71  1  0
 34 72  1  0
 35 73  1  0
 35 74  1  0
 38 75  1  0
 40 76  1  0
 43 77  1  0
M  CHG  2  11  -1  18   1
M  END
>  <UniqueID>  (21) 
21

>  <SMILES>  (21) 
CC(C)(C)OC(=O)n1c(C([NH-])=O)cc2ccc([NH2+]c3nc(Nc4ccc(OCCN5CCOCC5)c(F)c4)ncc3F)cc21

>  <Energy>  (21) 
134.13975571488086

>  <Genealogy>  (21) 
CC(C)(C)OC(=O)n1c(C([NH-])=O)cc2ccc([NH2+]c3nc(Nc4ccc(OCCN5CCOCC5)c(F)c4)ncc3F)cc21 (protonated)
CC(C)(C)OC(=O)n1c(C([NH-])=O)cc2ccc([NH2+]c3nc(Nc4ccc(OCCN5CCOCC5)c(F)c4)ncc3F)cc21 (3D coordinates assigned)
CC(C)(C)OC(=O)n1c(C([NH-])=O)cc2ccc([NH2+]c3nc(Nc4ccc(OCCN5CCOCC5)c(F)c4)ncc3F)cc21 (nonaromatic ring conformer: 134.13975571488086 kcal/mol)

>  <smiles>  (21) 
CC(C)(C)OC(=O)n1c(C(N)=O)cc2ccc(Nc3nc(Nc4ccc(OCCN5CCOCC5)c(F)c4)ncc3F)cc21

>  <score_type>  (21) 
oracle

>  <origin>  (21) 
adg

>  <m_score__min__energy>  (21) 
-10.9

>  <m_primary>  (21) 
energy

$$$$
21:0
     RDKit          3D

 33 35  0  0  0  0  0  0  0  0999 V2000
  149.2940  150.3940  132.3840 C   0  0  0  0  0  0  0  0  0  0  0  0
  148.9320  151.8380  132.5300 C   0  0  0  0  0  0  0  0  0  0  0  0
  149.8410  152.7970  132.2150 N   0  0  0  0  0  0  0  0  0  0  0  0
  149.5360  154.1160  132.3250 C   0  0  0  0  0  0  0  0  0  0  0  0
  148.2640  154.5130  132.7600 C   0  0  0  0  0  0  0  0  0  0  0  0
  147.9080  155.9480  132.8860 C   0  0  0  0  0  0  0  0  0  0  0  0
  148.8980  156.9510  132.7090 C   0  0  0  0  0  0  0  0  0  0  0  0
  148.5750  158.3120  132.8370 C   0  0  0  0  0  0  0  0  0  0  0  0
  147.2580  158.6450  133.1340 C   0  0  0  0  0  0  0  0  0  0  0  0
  146.6820  159.8780  133.3370 C   0  0  0  0  0  0  0  0  0  0  0  0
  145.3410  159.6190  133.6110 C   0  0  0  0  0  0  0  0  0  0  0  0
  144.3340  160.6830  133.8090 C   0  0  0  0  0  0  0  0  0  0  0  0
  142.9890  160.5110  133.3720 N   0  0  0  0  0  0  0  0  0  0  0  0
  144.6790  161.7780  134.3290 O   0  0  0  0  0  0  0  0  0  0  0  0
  145.0990  158.2770  133.5870 N   0  0  0  0  0  0  0  0  0  0  0  0
  143.8720  157.5970  133.9000 C   0  0  0  0  0  0  0  0  0  0  0  0
  143.7860  156.8850  134.9350 O   0  0  0  0  0  0  0  0  0  0  0  0
  142.7770  157.7000  133.0510 O   0  0  0  0  0  0  0  0  0  0  0  0
  146.2830  157.6950  133.2910 C   0  0  0  0  0  0  0  0  0  0  0  0
  146.5780  156.3310  133.1880 C   0  0  0  0  0  0  0  0  0  0  0  0
  147.3410  153.5030  133.0720 C   0  0  0  0  0  0  0  0  0  0  0  0
  147.6870  152.1940  132.9500 N   0  0  0  0  0  0  0  0  0  0  0  0
  149.4074  149.9419  133.3804 H   0  0  0  0  0  0  0  0  0  0  0  0
  148.4992  149.8707  131.8321 H   0  0  0  0  0  0  0  0  0  0  0  0
  150.2416  150.3075  131.8321 H   0  0  0  0  0  0  0  0  0  0  0  0
  150.2902  154.8757  132.0717 H   0  0  0  0  0  0  0  0  0  0  0  0
  149.9307  156.6583  132.4686 H   0  0  0  0  0  0  0  0  0  0  0  0
  149.3407  159.0908  132.7063 H   0  0  0  0  0  0  0  0  0  0  0  0
  147.1757  160.8600  133.2924 H   0  0  0  0  0  0  0  0  0  0  0  0
  142.7510  159.8180  132.6280 H   0  0  0  0  0  0  0  0  0  0  0  0
  145.7948  155.5733  133.3382 H   0  0  0  0  0  0  0  0  0  0  0  0
  146.3318  153.7720  133.4173 H   0  0  0  0  0  0  0  0  0  0  0  0
  146.9840  151.4580  133.1870 H   0  0  0  0  0  0  0  0  0  0  0  0
  1  2  1  0
  2  3  2  0
  3  4  1  0
  4  5  2  0
  5  6  1  0
  6  7  2  0
  7  8  1  0
  8  9  2  0
  9 10  1  0
 10 11  2  0
 11 12  1  0
 12 13  1  0
 12 14  2  0
 11 15  1  0
 15 16  1  0
 16 17  2  0
 16 18  1  0
 15 19  1  0
 19 20  2  0
  5 21  1  0
 21 22  2  0
 22  2  1  0
 20  6  1  0
 19  9  1  0
  1 23  1  0
  1 24  1  0
  1 25  1  0
  4 26  1  0
  7 27  1  0
  8 28  1  0
 10 29  1  0
 13 30  1  0
 20 31  1  0
 21 32  1  0
 22 33  1  0
M  CHG  3  13  -1  18  -1  22   1
M  END
>  <UniqueID>  (22) 
22

>  <SMILES>  (22) 
Cc1ncc(-c2ccc3cc(C([NH-])=O)n(C(=O)[O-])c3c2)c[nH+]1

>  <Energy>  (22) 
79.93988269339917

>  <Genealogy>  (22) 
Cc1ncc(-c2ccc3cc(C([NH-])=O)n(C(=O)[O-])c3c2)c[nH+]1 (protonated)
Cc1ncc(-c2ccc3cc(C([NH-])=O)n(C(=O)[O-])c3c2)c[nH+]1 (3D coordinates assigned)
Cc1ncc(-c2ccc3cc(C([NH-])=O)n(C(=O)[O-])c3c2)c[nH+]1 (optimized conformer: 79.93988269339917 kcal/mol)

>  <smiles>  (22) 
Cc1ncc(-c2ccc3cc(C(N)=O)n(C(=O)O)c3c2)cn1

>  <score_type>  (22) 
oracle

>  <origin>  (22) 
adg

>  <m_score__min__energy>  (22) 
-7.29

>  <m_primary>  (22) 
energy

$$$$
22:0
     RDKit          3D

 55 58  0  0  0  0  0  0  0  0999 V2000
  138.4100  157.9870  132.9620 N   0  0  0  0  0  0  0  0  0  0  0  0
  139.2230  158.0230  134.1350 C   0  0  0  0  0  0  0  0  0  0  0  0
  138.6830  158.2360  135.2520 O   0  0  0  0  0  0  0  0  0  0  0  0
  140.6750  157.7720  134.0300 C   0  0  0  0  0  0  0  0  0  0  0  0
  141.6420  158.7480  134.2580 C   0  0  0  0  0  0  0  0  0  0  0  0
  142.8460  158.1420  133.9840 C   0  0  0  0  0  0  0  0  0  0  0  0
  144.1410  158.6450  134.0650 C   0  0  0  0  0  0  0  0  0  0  0  0
  145.2040  157.7820  133.7550 C   0  0  0  0  0  0  0  0  0  0  0  0
  144.9590  156.4380  133.3680 C   0  0  0  0  0  0  0  0  0  0  0  0
  146.0410  155.5380  133.0790 N   0  0  0  0  0  0  0  0  0  0  0  0
  145.8490  154.1570  132.7300 C   0  0  0  0  0  0  0  0  0  0  0  0
  144.5860  153.6700  132.6080 N   0  0  0  0  0  0  0  0  0  0  0  0
  144.3570  152.3570  132.3630 C   0  0  0  0  0  0  0  0  0  0  0  0
  143.0100  151.8800  132.2380 N   0  0  0  0  0  0  0  0  0  0  0  0
  142.5130  150.7150  132.9840 C   0  0  2  0  0  0  0  0  0  0  0  0
  142.7420  149.4130  132.1770 C   0  0  0  0  0  0  0  0  0  0  0  0
  141.5660  149.1000  131.2500 C   0  0  0  0  0  0  0  0  0  0  0  0
  140.2510  148.8980  132.0300 C   0  0  0  0  0  0  0  0  0  0  0  0
  140.2350  149.5890  133.4090 C   0  0  0  0  0  0  0  0  0  0  0  0
  141.0260  150.9150  133.4260 C   0  0  2  0  0  0  0  0  0  0  0  0
  140.3470  151.9450  132.6270 N   0  0  0  0  0  0  0  0  0  0  0  0
  145.4100  151.5090  132.2550 N   0  0  0  0  0  0  0  0  0  0  0  0
  146.6600  151.9530  132.3700 N   0  0  0  0  0  0  0  0  0  0  0  0
  146.9360  153.2640  132.6020 C   0  0  0  0  0  0  0  0  0  0  0  0
  148.3530  153.6920  132.6560 C   0  0  0  0  0  0  0  0  0  0  0  0
  149.3460  153.0000  131.8970 N   0  0  0  0  0  0  0  0  0  0  0  0
  148.6950  154.6940  133.3390 O   0  0  0  0  0  0  0  0  0  0  0  0
  143.6310  155.9610  133.3160 C   0  0  0  0  0  0  0  0  0  0  0  0
  142.5890  156.8480  133.6100 C   0  0  0  0  0  0  0  0  0  0  0  0
  141.2590  156.6040  133.6350 N   0  0  0  0  0  0  0  0  0  0  0  0
  140.6190  155.3480  133.3610 C   0  0  0  0  0  0  0  0  0  0  0  0
  139.2030  155.2790  133.2170 N   0  0  0  0  0  0  0  0  0  0  0  0
  141.3080  154.3000  133.2340 O   0  0  0  0  0  0  0  0  0  0  0  0
  138.1000  157.0780  132.5530 H   0  0  0  0  0  0  0  0  0  0  0  0
  141.4776  159.7845  134.5876 H   0  0  0  0  0  0  0  0  0  0  0  0
  144.3262  159.6876  134.3630 H   0  0  0  0  0  0  0  0  0  0  0  0
  146.2386  158.1512  133.8126 H   0  0  0  0  0  0  0  0  0  0  0  0
  147.0150  155.8650  133.2700 H   0  0  0  0  0  0  0  0  0  0  0  0
  142.3710  152.3850  131.5830 H   0  0  0  0  0  0  0  0  0  0  0  0
  143.0923  150.6155  133.9138 H   0  0  0  0  0  0  0  0  0  0  0  0
  143.6524  149.5266  131.5701 H   0  0  0  0  0  0  0  0  0  0  0  0
  142.8419  148.5829  132.8918 H   0  0  0  0  0  0  0  0  0  0  0  0
  141.4365  149.9357  130.5466 H   0  0  0  0  0  0  0  0  0  0  0  0
  141.7926  148.1635  130.7193 H   0  0  0  0  0  0  0  0  0  0  0  0
  139.4246  149.3044  131.4284 H   0  0  0  0  0  0  0  0  0  0  0  0
  140.1474  147.8179  132.2107 H   0  0  0  0  0  0  0  0  0  0  0  0
  139.1909  149.7996  133.6839 H   0  0  0  0  0  0  0  0  0  0  0  0
  140.7175  148.9077  134.1252 H   0  0  0  0  0  0  0  0  0  0  0  0
  141.0553  151.2703  134.4666 H   0  0  0  0  0  0  0  0  0  0  0  0
  141.0580  152.4480  132.0470 H   0  0  0  0  0  0  0  0  0  0  0  0
  139.8960  152.6500  133.2520 H   0  0  0  0  0  0  0  0  0  0  0  0
  149.1040  152.1550  131.3310 H   0  0  0  0  0  0  0  0  0  0  0  0
  150.3390  153.3210  131.9150 H   0  0  0  0  0  0  0  0  0  0  0  0
  143.4199  154.9147  133.0501 H   0  0  0  0  0  0  0  0  0  0  0  0
  138.7030  155.8890  132.5330 H   0  0  0  0  0  0  0  0  0  0  0  0
  1  2  1  0
  2  3  2  0
  2  4  1  0
  4  5  2  0
  5  6  1  0
  6  7  2  0
  7  8  1  0
  8  9  2  0
  9 10  1  0
 10 11  1  0
 11 12  2  0
 12 13  1  0
 13 14  1  0
 14 15  1  0
 15 16  1  0
 16 17  1  0
 17 18  1  0
 18 19  1  0
 19 20  1  0
 20 21  1  0
 13 22  2  0
 22 23  1  0
 23 24  2  0
 24 25  1  0
 25 26  1  0
 25 27  2  0
  9 28  1  0
 28 29  2  0
 29 30  1  0
 30 31  1  0
 31 32  1  0
 31 33  2  0
 30  4  1  0
 29  6  1  0
 24 11  1  0
 20 15  1  0
  1 34  1  0
  5 35  1  0
  7 36  1  0
  8 37  1  0
 10 38  1  0
 14 39  1  0
 15 40  1  1
 16 41  1  0
 16 42  1  0
 17 43  1  0
 17 44  1  0
 18 45  1  0
 18 46  1  0
 19 47  1  0
 19 48  1  0
 20 49  1  1
 21 50  1  0
 21 51  1  0
 26 52  1  0
 26 53  1  0
 28 54  1  0
 32 55  1  0
M  CHG  2   1  -1  32  -1
M  END
>  <UniqueID>  (23) 
23

>  <SMILES>  (23) 
[NH-]C(=O)c1cc2ccc(Nc3nc(N[C@@H]4CCCC[C@@H]4N)nnc3C(N)=O)cc2n1C([NH-])=O

>  <Energy>  (23) 
108.48494733907411

>  <Genealogy>  (23) 
[NH-]C(=O)c1cc2ccc(Nc3nc(N[C@@H]4CCCC[C@@H]4N)nnc3C(N)=O)cc2n1C([NH-])=O (protonated)
[NH-]C(=O)c1cc2ccc(Nc3nc(N[C@@H]4CCCC[C@@H]4N)nnc3C(N)=O)cc2n1C([NH-])=O (3D coordinates assigned)
[NH-]C(=O)c1cc2ccc(Nc3nc(N[C@@H]4CCCC[C@@H]4N)nnc3C(N)=O)cc2n1C([NH-])=O (nonaromatic ring conformer: 108.48494733907411 kcal/mol)

>  <smiles>  (23) 
NC(=O)c1nnc(N[C@@H]2CCCC[C@@H]2N)nc1Nc1ccc2cc(C(N)=O)n(C(N)=O)c2c1

>  <score_type>  (23) 
oracle

>  <origin>  (23) 
adg

>  <m_score__min__energy>  (23) 
-10.18

>  <m_primary>  (23) 
energy

$$$$
23:0
     RDKit          3D

 56 58  0  0  0  0  0  0  0  0999 V2000
  141.3650  157.2710  134.9140 C   0  0  0  0  0  0  0  0  0  0  0  0
  141.7170  158.7670  134.9450 C   0  0  0  0  0  0  0  0  0  0  0  0
  141.3350  159.3430  136.3220 C   0  0  0  0  0  0  0  0  0  0  0  0
  140.9450  159.4840  133.8210 C   0  0  0  0  0  0  0  0  0  0  0  0
  143.1300  158.8710  134.7300 O   0  0  0  0  0  0  0  0  0  0  0  0
  143.8210  158.5940  133.5410 C   0  0  0  0  0  0  0  0  0  0  0  0
  143.2770  157.9450  132.6080 O   0  0  0  0  0  0  0  0  0  0  0  0
  145.1770  159.0410  133.4070 N   0  0  0  0  0  0  0  0  0  0  0  0
  145.6850  160.2890  133.6190 C   0  0  0  0  0  0  0  0  0  0  0  0
  144.9250  161.4690  134.0830 C   0  0  0  0  0  0  0  0  0  0  0  0
  143.5450  161.5990  133.7490 N   0  0  0  0  0  0  0  0  0  0  0  0
  145.4870  162.3810  134.7440 O   0  0  0  0  0  0  0  0  0  0  0  0
  147.0670  160.2890  133.4360 C   0  0  0  0  0  0  0  0  0  0  0  0
  147.3940  158.9900  133.1170 C   0  0  0  0  0  0  0  0  0  0  0  0
  148.6340  158.4100  132.8690 C   0  0  0  0  0  0  0  0  0  0  0  0
  148.6750  157.0340  132.5860 C   0  0  0  0  0  0  0  0  0  0  0  0
  147.4800  156.2670  132.5340 C   0  0  0  0  0  0  0  0  0  0  0  0
  147.5320  154.8510  132.2490 N   0  0  0  0  0  0  0  0  0  0  0  0
  147.7060  154.0440  133.4700 C   0  0  0  0  0  0  0  0  0  0  0  0
  146.3660  153.7500  134.1760 C   0  0  0  0  0  0  0  0  0  0  0  0
  145.2150  154.0640  133.3000 N   0  0  0  0  0  0  0  0  0  0  0  0
  144.7990  152.8780  132.5130 C   0  0  0  0  0  0  0  0  0  0  0  0
  143.6050  152.1530  133.1630 C   0  0  0  0  0  0  0  0  0  0  0  0
  142.4480  152.9660  133.3120 O   0  0  0  0  0  0  0  0  0  0  0  0
  142.7350  154.3550  133.4020 C   0  0  0  0  0  0  0  0  0  0  0  0
  144.0890  154.6550  134.0660 C   0  0  0  0  0  0  0  0  0  0  0  0
  146.2390  156.9020  132.7730 C   0  0  0  0  0  0  0  0  0  0  0  0
  146.2350  158.2610  133.0970 C   0  0  0  0  0  0  0  0  0  0  0  0
  141.2763  156.8938  135.9435 H   0  0  0  0  0  0  0  0  0  0  0  0
  140.4092  157.1300  134.3882 H   0  0  0  0  0  0  0  0  0  0  0  0
  142.1577  156.7186  134.3882 H   0  0  0  0  0  0  0  0  0  0  0  0
  141.7564  158.7076  137.1149 H   0  0  0  0  0  0  0  0  0  0  0  0
  141.7365  160.3627  136.4171 H   0  0  0  0  0  0  0  0  0  0  0  0
  140.2395  159.3699  136.4171 H   0  0  0  0  0  0  0  0  0  0  0  0
  140.2069  160.1696  134.2627 H   0  0  0  0  0  0  0  0  0  0  0  0
  141.6497  160.0553  133.1989 H   0  0  0  0  0  0  0  0  0  0  0  0
  140.4273  158.7391  133.1989 H   0  0  0  0  0  0  0  0  0  0  0  0
  142.9310  160.7580  133.6700 H   0  0  0  0  0  0  0  0  0  0  0  0
  147.7514  161.1454  133.5271 H   0  0  0  0  0  0  0  0  0  0  0  0
  149.5552  159.0107  132.8937 H   0  0  0  0  0  0  0  0  0  0  0  0
  149.6432  156.5452  132.4027 H   0  0  0  0  0  0  0  0  0  0  0  0
  146.6320  154.5750  131.7910 H   0  0  0  0  0  0  0  0  0  0  0  0
  148.3050  154.6320  131.5780 H   0  0  0  0  0  0  0  0  0  0  0  0
  148.1790  153.0889  133.1979 H   0  0  0  0  0  0  0  0  0  0  0  0
  148.3330  154.6200  134.1665 H   0  0  0  0  0  0  0  0  0  0  0  0
  146.3300  152.6844  134.4464 H   0  0  0  0  0  0  0  0  0  0  0  0
  146.3011  154.3824  135.0737 H   0  0  0  0  0  0  0  0  0  0  0  0
  144.5111  153.2038  131.5026 H   0  0  0  0  0  0  0  0  0  0  0  0
  145.6462  152.1774  132.4749 H   0  0  0  0  0  0  0  0  0  0  0  0
  143.3421  151.2883  132.5360 H   0  0  0  0  0  0  0  0  0  0  0  0
  143.9219  151.8607  134.1750 H   0  0  0  0  0  0  0  0  0  0  0  0
  142.7436  154.7762  132.3859 H   0  0  0  0  0  0  0  0  0  0  0  0
  141.9557  154.8083  134.0323 H   0  0  0  0  0  0  0  0  0  0  0  0
  144.2268  155.7450  134.1197 H   0  0  0  0  0  0  0  0  0  0  0  0
  144.0855  154.2100  135.0719 H   0  0  0  0  0  0  0  0  0  0  0  0
  145.2971  156.3379  132.7052 H   0  0  0  0  0  0  0  0  0  0  0  0
  1  2  1  0
  2  3  1  0
  2  4  1  0
  2  5  1  0
  5  6  1  0
  6  7  2  0
  6  8  1  0
  8  9  1  0
  9 10  1  0
 10 11  1  0
 10 12  2  0
  9 13  2  0
 13 14  1  0
 14 15  2  0
 15 16  1  0
 16 17  2  0
 17 18  1  0
 18 19  1  0
 19 20  1  0
 20 21  1  0
 21 22  1  0
 22 23  1  0
 23 24  1  0
 24 25  1  0
 25 26  1  0
 17 27  1  0
 27 28  2  0
 28  8  1  0
 28 14  1  0
 26 21  1  0
  1 29  1  0
  1 30  1  0
  1 31  1  0
  3 32  1  0
  3 33  1  0
  3 34  1  0
  4 35  1  0
  4 36  1  0
  4 37  1  0
 11 38  1  0
 13 39  1  0
 15 40  1  0
 16 41  1  0
 18 42  1  0
 18 43  1  0
 19 44  1  0
 19 45  1  0
 20 46  1  0
 20 47  1  0
 22 48  1  0
 22 49  1  0
 23 50  1  0
 23 51  1  0
 25 52  1  0
 25 53  1  0
 26 54  1  0
 26 55  1  0
 27 56  1  0
M  CHG  2  11  -1  18   1
M  END
>  <UniqueID>  (24) 
24

>  <SMILES>  (24) 
CC(C)(C)OC(=O)n1c(C([NH-])=O)cc2ccc([NH2+]CCN3CCOCC3)cc21

>  <Energy>  (24) 
104.39104242382261

>  <Genealogy>  (24) 
CC(C)(C)OC(=O)n1c(C([NH-])=O)cc2ccc([NH2+]CCN3CCOCC3)cc21 (protonated)
CC(C)(C)OC(=O)n1c(C([NH-])=O)cc2ccc([NH2+]CCN3CCOCC3)cc21 (3D coordinates assigned)
CC(C)(C)OC(=O)n1c(C([NH-])=O)cc2ccc([NH2+]CCN3CCOCC3)cc21 (nonaromatic ring conformer: 104.39104242382261 kcal/mol)

>  <smiles>  (24) 
CC(C)(C)OC(=O)n1c(C(N)=O)cc2ccc(NCCN3CCOCC3)cc21

>  <score_type>  (24) 
oracle

>  <origin>  (24) 
adg

>  <m_score__min__energy>  (24) 
-7.9000000000000004

>  <m_primary>  (24) 
energy

$$$$
24:0
     RDKit          3D

 36 38  0  0  0  0  0  0  0  0999 V2000
  149.7310  159.1430  131.8520 N   0  0  0  0  0  0  0  0  0  0  0  0
  148.7940  158.2440  132.4420 C   0  0  0  0  0  0  0  0  0  0  0  0
  149.1190  157.0390  132.6110 O   0  0  0  0  0  0  0  0  0  0  0  0
  147.4370  158.6950  132.8180 C   0  0  0  0  0  0  0  0  0  0  0  0
  147.1010  160.0310  133.0280 C   0  0  0  0  0  0  0  0  0  0  0  0
  145.7820  160.0180  133.4220 C   0  0  0  0  0  0  0  0  0  0  0  0
  144.9340  161.0730  133.7460 C   0  0  0  0  0  0  0  0  0  0  0  0
  143.6060  160.7690  134.0860 C   0  0  0  0  0  0  0  0  0  0  0  0
  143.1450  159.4270  134.0830 C   0  0  0  0  0  0  0  0  0  0  0  0
  141.7790  159.1320  134.4320 N   0  0  0  0  0  0  0  0  0  0  0  0
  140.8230  158.7580  133.3820 C   0  0  0  0  0  0  0  0  0  0  0  0
  139.5310  158.2260  134.0040 C   0  0  0  0  0  0  0  0  0  0  0  0
  139.8450  157.4480  135.1390 O   0  0  0  0  0  0  0  0  0  0  0  0
  140.2490  158.2880  136.2080 C   0  0  0  0  0  0  0  0  0  0  0  0
  141.3020  159.3480  135.8040 C   0  0  0  0  0  0  0  0  0  0  0  0
  144.0400  158.3830  133.7510 C   0  0  0  0  0  0  0  0  0  0  0  0
  145.3620  158.7140  133.4380 C   0  0  0  0  0  0  0  0  0  0  0  0
  146.3670  157.8890  133.0710 N   0  0  0  0  0  0  0  0  0  0  0  0
  146.2770  156.4660  132.9060 C   0  0  0  0  0  0  0  0  0  0  0  0
  147.0320  155.8070  131.8890 N   0  0  0  0  0  0  0  0  0  0  0  0
  145.5340  155.7900  133.6650 O   0  0  0  0  0  0  0  0  0  0  0  0
  150.7560  158.9620  131.9100 H   0  0  0  0  0  0  0  0  0  0  0  0
  147.7516  160.9094  132.9051 H   0  0  0  0  0  0  0  0  0  0  0  0
  145.2930  162.1127  133.7360 H   0  0  0  0  0  0  0  0  0  0  0  0
  142.9150  161.5806  134.3578 H   0  0  0  0  0  0  0  0  0  0  0  0
  140.5932  159.6420  132.7691 H   0  0  0  0  0  0  0  0  0  0  0  0
  141.2691  157.9707  132.7565 H   0  0  0  0  0  0  0  0  0  0  0  0
  138.8923  159.0703  134.3026 H   0  0  0  0  0  0  0  0  0  0  0  0
  138.9965  157.6062  133.2691 H   0  0  0  0  0  0  0  0  0  0  0  0
  139.3610  158.8103  136.5936 H   0  0  0  0  0  0  0  0  0  0  0  0
  140.7180  157.6417  136.9645 H   0  0  0  0  0  0  0  0  0  0  0  0
  140.8482  160.3477  135.8721 H   0  0  0  0  0  0  0  0  0  0  0  0
  142.1600  159.2621  136.4869 H   0  0  0  0  0  0  0  0  0  0  0  0
  143.7039  157.3357  133.7394 H   0  0  0  0  0  0  0  0  0  0  0  0
  146.9890  154.7690  131.7880 H   0  0  0  0  0  0  0  0  0  0  0  0
  147.6030  156.3600  131.2110 H   0  0  0  0  0  0  0  0  0  0  0  0
  1  2  1  0
  2  3  2  0
  2  4  1  0
  4  5  2  0
  5  6  1  0
  6  7  2  0
  7  8  1  0
  8  9  2  0
  9 10  1  0
 10 11  1  0
 11 12  1  0
 12 13  1  0
 13 14  1  0
 14 15  1  0
  9 16  1  0
 16 17  2  0
 17 18  1  0
 18 19  1  0
 19 20  1  0
 19 21  2  0
 18  4  1  0
 17  6  1  0
 15 10  1  0
  1 22  1  0
  5 23  1  0
  7 24  1  0
  8 25  1  0
 11 26  1  0
 11 27  1  0
 12 28  1  0
 12 29  1  0
 14 30  1  0
 14 31  1  0
 15 32  1  0
 15 33  1  0
 16 34  1  0
 20 35  1  0
 20 36  1  0
M  CHG  1   1  -1
M  END
>  <UniqueID>  (25) 
25

>  <SMILES>  (25) 
[NH-]C(=O)c1cc2ccc(N3CCOCC3)cc2n1C(N)=O

>  <Energy>  (25) 
86.68344858014764

>  <Genealogy>  (25) 
[NH-]C(=O)c1cc2ccc(N3CCOCC3)cc2n1C(N)=O (protonated)
[NH-]C(=O)c1cc2ccc(N3CCOCC3)cc2n1C(N)=O (3D coordinates assigned)
[NH-]C(=O)c1cc2ccc(N3CCOCC3)cc2n1C(N)=O (nonaromatic ring conformer: 86.68344858014764 kcal/mol)

>  <smiles>  (25) 
NC(=O)c1cc2ccc(N3CCOCC3)cc2n1C(N)=O

>  <score_type>  (25) 
oracle

>  <origin>  (25) 
adg

>  <m_score__min__energy>  (25) 
-7.0099999999999998

>  <m_primary>  (25) 
energy

$$$$
25:0
     RDKit          3D

 53 57  0  0  0  0  0  0  0  0999 V2000
  143.5240  153.6790  133.1770 C   0  0  0  0  0  0  0  0  0  0  0  0
  142.4980  152.7260  133.8200 C   0  0  0  0  0  0  0  0  0  0  0  0
  142.6320  151.3090  133.2320 C   0  0  0  0  0  0  0  0  0  0  0  0
  141.0840  153.2520  133.5310 C   0  0  0  0  0  0  0  0  0  0  0  0
  142.6570  152.7000  135.2460 O   0  0  0  0  0  0  0  0  0  0  0  0
  141.7140  152.2460  136.1800 C   0  0  0  0  0  0  0  0  0  0  0  0
  141.0120  151.2250  135.9470 O   0  0  0  0  0  0  0  0  0  0  0  0
  141.5380  152.9640  137.4110 N   0  0  0  0  0  0  0  0  0  0  0  0
  141.5610  152.4550  138.6750 C   0  0  0  0  0  0  0  0  0  0  0  0
  141.6110  151.0170  139.0200 C   0  0  0  0  0  0  0  0  0  0  0  0
  142.8300  150.4140  139.4590 N   0  0  0  0  0  0  0  0  0  0  0  0
  140.5670  150.3160  138.9600 O   0  0  0  0  0  0  0  0  0  0  0  0
  141.4370  153.4760  139.6150 C   0  0  0  0  0  0  0  0  0  0  0  0
  141.3370  154.6360  138.8820 C   0  0  0  0  0  0  0  0  0  0  0  0
  141.2090  155.9540  139.3090 C   0  0  0  0  0  0  0  0  0  0  0  0
  141.1570  156.9610  138.3310 C   0  0  0  0  0  0  0  0  0  0  0  0
  141.2360  156.6370  136.9510 C   0  0  0  0  0  0  0  0  0  0  0  0
  141.1980  157.7070  135.9270 C   0  0  0  0  0  0  0  0  0  0  0  0
  141.8230  158.9700  136.1780 C   0  0  0  0  0  0  0  0  0  0  0  0
  141.7800  160.0120  135.2180 C   0  0  0  0  0  0  0  0  0  0  0  0
  141.1140  159.7530  134.0230 C   0  0  0  0  0  0  0  0  0  0  0  0
  140.8600  160.5310  132.9920 O   0  0  0  0  0  0  0  0  0  0  0  0
  140.1450  159.7840  132.1530 C   0  0  0  0  0  0  0  0  0  0  0  0
  139.6780  160.2090  131.0650 O   0  0  0  0  0  0  0  0  0  0  0  0
  139.9540  158.5240  132.6130 N   0  0  0  0  0  0  0  0  0  0  0  0
  140.5610  158.5430  133.7890 C   0  0  0  0  0  0  0  0  0  0  0  0
  140.5570  157.5040  134.6810 C   0  0  0  0  0  0  0  0  0  0  0  0
  139.9070  156.3260  134.2830 O   0  0  0  0  0  0  0  0  0  0  0  0
  139.5290  156.1060  132.9050 C   0  0  0  0  0  0  0  0  0  0  0  0
  139.1030  157.4180  132.1780 C   0  0  0  0  0  0  0  0  0  0  0  0
  141.3710  155.2850  136.5590 C   0  0  0  0  0  0  0  0  0  0  0  0
  141.4020  154.3010  137.5550 C   0  0  0  0  0  0  0  0  0  0  0  0
  144.0852  154.2003  133.9665 H   0  0  0  0  0  0  0  0  0  0  0  0
  144.2208  153.1004  132.5528 H   0  0  0  0  0  0  0  0  0  0  0  0
  142.9984  154.4166  132.5528 H   0  0  0  0  0  0  0  0  0  0  0  0
  142.7012  150.5774  134.0505 H   0  0  0  0  0  0  0  0  0  0  0  0
  141.7511  151.0842  132.6127 H   0  0  0  0  0  0  0  0  0  0  0  0
  143.5394  151.2533  132.6127 H   0  0  0  0  0  0  0  0  0  0  0  0
  140.5636  153.4456  134.4806 H   0  0  0  0  0  0  0  0  0  0  0  0
  141.1511  154.1853  132.9527 H   0  0  0  0  0  0  0  0  0  0  0  0
  140.5248  152.5018  132.9527 H   0  0  0  0  0  0  0  0  0  0  0  0
  142.8450  149.4070  139.7360 H   0  0  0  0  0  0  0  0  0  0  0  0
  143.7260  150.9490  139.4720 H   0  0  0  0  0  0  0  0  0  0  0  0
  141.4222  153.3759  140.7103 H   0  0  0  0  0  0  0  0  0  0  0  0
  141.1503  156.1999  140.3796 H   0  0  0  0  0  0  0  0  0  0  0  0
  141.0539  158.0123  138.6378 H   0  0  0  0  0  0  0  0  0  0  0  0
  142.3454  159.1348  137.1319 H   0  0  0  0  0  0  0  0  0  0  0  0
  142.2538  160.9861  135.4094 H   0  0  0  0  0  0  0  0  0  0  0  0
  140.3863  155.6707  132.3707 H   0  0  0  0  0  0  0  0  0  0  0  0
  138.6612  155.4301  132.9037 H   0  0  0  0  0  0  0  0  0  0  0  0
  139.2064  157.2833  131.0912 H   0  0  0  0  0  0  0  0  0  0  0  0
  138.0558  157.6466  132.4253 H   0  0  0  0  0  0  0  0  0  0  0  0
  141.4499  155.0125  135.4962 H   0  0  0  0  0  0  0  0  0  0  0  0
  1  2  1  0
  2  3  1  0
  2  4  1  0
  2  5  1  0
  5  6  1  0
  6  7  2  0
  6  8  1  0
  8  9  1  0
  9 10  1  0
 10 11  1  0
 10 12  2  0
  9 13  2  0
 13 14  1  0
 14 15  2  0
 15 16  1  0
 16 17  2  0
 17 18  1  0
 18 19  2  0
 19 20  1  0
 20 21  2  0
 21 22  1  0
 22 23  1  0
 23 24  2  0
 23 25  1  0
 25 26  1  0
 26 27  2  0
 27 28  1  0
 28 29  1  0
 29 30  1  0
 17 31  1  0
 31 32  2  0
 32  8  1  0
 32 14  1  0
 27 18  1  0
 26 21  1  0
 30 25  1  0
  1 33  1  0
  1 34  1  0
  1 35  1  0
  3 36  1  0
  3 37  1  0
  3 38  1  0
  4 39  1  0
  4 40  1  0
  4 41  1  0
 11 42  1  0
 11 43  1  0
 13 44  1  0
 15 45  1  0
 16 46  1  0
 19 47  1  0
 20 48  1  0
 29 49  1  0
 29 50  1  0
 30 51  1  0
 30 52  1  0
 31 53  1  0
M  END
>  <UniqueID>  (26) 
26

>  <SMILES>  (26) 
CC(C)(C)OC(=O)n1c(C(N)=O)cc2ccc(-c3ccc4oc(=O)n5c4c3OCC5)cc21

>  <Energy>  (26) 
148.33543064372185

>  <Genealogy>  (26) 
CC(C)(C)OC(=O)n1c(C(N)=O)cc2ccc(-c3ccc4oc(=O)n5c4c3OCC5)cc21 (3D coordinates assigned)
CC(C)(C)OC(=O)n1c(C(N)=O)cc2ccc(-c3ccc4oc(=O)n5c4c3OCC5)cc21 (nonaromatic ring conformer: 148.33543064372185 kcal/mol)

>  <smiles>  (26) 
CC(C)(C)OC(=O)n1c(C(N)=O)cc2ccc(-c3ccc4oc(=O)n5c4c3OCC5)cc21

>  <score_type>  (26) 
oracle

>  <origin>  (26) 
adg

>  <m_score__min__energy>  (26) 
-9.0099999999999998

>  <m_primary>  (26) 
energy

$$$$
26:0
     RDKit          3D

 48 50  0  0  0  0  0  0  0  0999 V2000
  141.6930  155.7700  133.5280 C   0  0  0  0  0  0  0  0  0  0  0  0
  142.4910  155.3040  134.7560 C   0  0  0  0  0  0  0  0  0  0  0  0
  142.0020  156.0850  135.9900 C   0  0  0  0  0  0  0  0  0  0  0  0
  142.2730  153.7900  134.9460 C   0  0  0  0  0  0  0  0  0  0  0  0
  143.8720  155.5870  134.4950 O   0  0  0  0  0  0  0  0  0  0  0  0
  144.4130  156.0560  133.2890 C   0  0  0  0  0  0  0  0  0  0  0  0
  144.3520  155.3600  132.2390 O   0  0  0  0  0  0  0  0  0  0  0  0
  145.0680  157.3340  133.2600 N   0  0  0  0  0  0  0  0  0  0  0  0
  146.3930  157.5910  133.0660 C   0  0  0  0  0  0  0  0  0  0  0  0
  147.4140  156.5930  132.6740 C   0  0  0  0  0  0  0  0  0  0  0  0
  147.1220  155.5990  131.6910 N   0  0  0  0  0  0  0  0  0  0  0  0
  148.5440  156.5940  133.2280 O   0  0  0  0  0  0  0  0  0  0  0  0
  146.6490  158.9560  133.1990 C   0  0  0  0  0  0  0  0  0  0  0  0
  145.4300  159.5300  133.4830 C   0  0  0  0  0  0  0  0  0  0  0  0
  145.1050  160.8590  133.7370 C   0  0  0  0  0  0  0  0  0  0  0  0
  143.7680  161.1630  134.0420 C   0  0  0  0  0  0  0  0  0  0  0  0
  142.7870  160.1410  134.0860 C   0  0  0  0  0  0  0  0  0  0  0  0
  141.3650  160.4640  134.4550 C   0  0  0  0  0  0  0  0  0  0  0  0
  140.4090  159.6970  133.5790 C   0  0  0  0  0  0  0  0  0  0  0  0
  140.1680  160.1220  132.2610 C   0  0  0  0  0  0  0  0  0  0  0  0
  139.3140  159.3920  131.4290 C   0  0  0  0  0  0  0  0  0  0  0  0
  138.6990  158.2320  131.9020 C   0  0  0  0  0  0  0  0  0  0  0  0
  138.9390  157.7940  133.2080 C   0  0  0  0  0  0  0  0  0  0  0  0
  138.3460  156.6610  133.6600 F   0  0  0  0  0  0  0  0  0  0  0  0
  139.7950  158.5190  134.0450 C   0  0  0  0  0  0  0  0  0  0  0  0
  140.0270  158.0730  135.3070 F   0  0  0  0  0  0  0  0  0  0  0  0
  143.1580  158.8040  133.8270 C   0  0  0  0  0  0  0  0  0  0  0  0
  144.4940  158.5300  133.5140 C   0  0  0  0  0  0  0  0  0  0  0  0
  140.7870  156.2991  133.8586 H   0  0  0  0  0  0  0  0  0  0  0  0
  142.3133  156.4478  132.9232 H   0  0  0  0  0  0  0  0  0  0  0  0
  141.4075  154.8967  132.9232 H   0  0  0  0  0  0  0  0  0  0  0  0
  142.3266  155.5666  136.9043 H   0  0  0  0  0  0  0  0  0  0  0  0
  142.4263  157.0997  135.9735 H   0  0  0  0  0  0  0  0  0  0  0  0
  140.9038  156.1465  135.9735 H   0  0  0  0  0  0  0  0  0  0  0  0
  142.2394  153.5564  136.0204 H   0  0  0  0  0  0  0  0  0  0  0  0
  141.3230  153.4946  134.4766 H   0  0  0  0  0  0  0  0  0  0  0  0
  143.1010  153.2386  134.4766 H   0  0  0  0  0  0  0  0  0  0  0  0
  146.2180  155.6000  131.1690 H   0  0  0  0  0  0  0  0  0  0  0  0
  147.8360  154.8760  131.4500 H   0  0  0  0  0  0  0  0  0  0  0  0
  147.6187  159.4655  133.0984 H   0  0  0  0  0  0  0  0  0  0  0  0
  145.8714  161.6471  133.7001 H   0  0  0  0  0  0  0  0  0  0  0  0
  143.4796  162.2042  134.2487 H   0  0  0  0  0  0  0  0  0  0  0  0
  141.1922  160.1908  135.5064 H   0  0  0  0  0  0  0  0  0  0  0  0
  141.1947  161.5413  134.3120 H   0  0  0  0  0  0  0  0  0  0  0  0
  140.6537  161.0334  131.8824 H   0  0  0  0  0  0  0  0  0  0  0  0
  139.1265  159.7325  130.4000 H   0  0  0  0  0  0  0  0  0  0  0  0
  138.0246  157.6615  131.2465 H   0  0  0  0  0  0  0  0  0  0  0  0
  142.4134  157.9954  133.8702 H   0  0  0  0  0  0  0  0  0  0  0  0
  1  2  1  0
  2  3  1  0
  2  4  1  0
  2  5  1  0
  5  6  1  0
  6  7  2  0
  6  8  1  0
  8  9  1  0
  9 10  1  0
 10 11  1  0
 10 12  2  0
  9 13  2  0
 13 14  1  0
 14 15  2  0
 15 16  1  0
 16 17  2  0
 17 18  1  0
 18 19  1  0
 19 20  2  0
 20 21  1  0
 21 22  2  0
 22 23  1  0
 23 24  1  0
 23 25  2  0
 25 26  1  0
 17 27  1  0
 27 28  2  0
 28  8  1  0
 28 14  1  0
 25 19  1  0
  1 29  1  0
  1 30  1  0
  1 31  1  0
  3 32  1  0
  3 33  1  0
  3 34  1  0
  4 35  1  0
  4 36  1  0
  4 37  1  0
 11 38  1  0
 11 39  1  0
 13 40  1  0
 15 41  1  0
 16 42  1  0
 18 43  1  0
 18 44  1  0
 20 45  1  0
 21 46  1  0
 22 47  1  0
 27 48  1  0
M  END
>  <UniqueID>  (27) 
27

>  <SMILES>  (27) 
CC(C)(C)OC(=O)n1c(C(N)=O)cc2ccc(Cc3cccc(F)c3F)cc21

>  <Energy>  (27) 
82.33233038651075

>  <Genealogy>  (27) 
CC(C)(C)OC(=O)n1c(C(N)=O)cc2ccc(Cc3cccc(F)c3F)cc21 (3D coordinates assigned)
CC(C)(C)OC(=O)n1c(C(N)=O)cc2ccc(Cc3cccc(F)c3F)cc21 (optimized conformer: 82.33233038651075 kcal/mol)

>  <smiles>  (27) 
CC(C)(C)OC(=O)n1c(C(N)=O)cc2ccc(Cc3cccc(F)c3F)cc21

>  <score_type>  (27) 
oracle

>  <origin>  (27) 
adg

>  <m_score__min__energy>  (27) 
-8.6500000000000004

>  <m_primary>  (27) 
energy

$$$$
27:0
     RDKit          3D

 42 44  0  0  0  0  0  0  0  0999 V2000
  139.4780  156.1170  132.9180 C   0  0  0  0  0  0  0  0  0  0  0  0
  139.4570  157.5190  133.1670 O   0  0  0  0  0  0  0  0  0  0  0  0
  140.5940  158.2900  133.4530 C   0  0  0  0  0  0  0  0  0  0  0  0
  141.6650  157.6770  134.1140 C   0  0  0  0  0  0  0  0  0  0  0  0
  142.8210  158.4010  134.4150 C   0  0  0  0  0  0  0  0  0  0  0  0
  142.9280  159.7520  134.0520 C   0  0  0  0  0  0  0  0  0  0  0  0
  144.1790  160.5270  134.3730 C   0  0  0  0  0  0  0  0  0  0  0  0
  145.1230  160.4770  133.2550 N   0  0  0  0  0  0  0  0  0  0  0  0
  146.1310  159.4610  133.0850 C   0  0  0  0  0  0  0  0  0  0  0  0
  147.4530  159.8510  132.7550 C   0  0  0  0  0  0  0  0  0  0  0  0
  148.4650  158.8930  132.5830 C   0  0  0  0  0  0  0  0  0  0  0  0
  148.1330  157.5540  132.7530 C   0  0  0  0  0  0  0  0  0  0  0  0
  148.9110  156.4260  132.6300 C   0  0  0  0  0  0  0  0  0  0  0  0
  148.0600  155.3570  132.9080 C   0  0  0  0  0  0  0  0  0  0  0  0
  148.5010  153.9450  132.9760 C   0  0  0  0  0  0  0  0  0  0  0  0
  147.6430  152.9360  133.5110 N   0  0  0  0  0  0  0  0  0  0  0  0
  149.6340  153.6150  132.5350 O   0  0  0  0  0  0  0  0  0  0  0  0
  146.8040  155.8080  133.1910 N   0  0  0  0  0  0  0  0  0  0  0  0
  145.6380  155.0240  133.4910 C   0  0  0  0  0  0  0  0  0  0  0  0
  145.2130  153.9970  132.5970 N   0  0  0  0  0  0  0  0  0  0  0  0
  144.9860  155.2360  134.5480 O   0  0  0  0  0  0  0  0  0  0  0  0
  146.8660  157.1550  133.0890 C   0  0  0  0  0  0  0  0  0  0  0  0
  145.8310  158.0850  133.2370 C   0  0  0  0  0  0  0  0  0  0  0  0
  141.8480  160.3740  133.4030 C   0  0  0  0  0  0  0  0  0  0  0  0
  140.6930  159.6490  133.1000 C   0  0  0  0  0  0  0  0  0  0  0  0
  139.4861  155.5747  133.8750 H   0  0  0  0  0  0  0  0  0  0  0  0
  138.5840  155.8332  132.3433 H   0  0  0  0  0  0  0  0  0  0  0  0
  140.3801  155.8601  132.3433 H   0  0  0  0  0  0  0  0  0  0  0  0
  141.5956  156.6167  134.3986 H   0  0  0  0  0  0  0  0  0  0  0  0
  143.6529  157.9087  134.9400 H   0  0  0  0  0  0  0  0  0  0  0  0
  143.9124  161.5752  134.5732 H   0  0  0  0  0  0  0  0  0  0  0  0
  144.6552  160.0774  135.2568 H   0  0  0  0  0  0  0  0  0  0  0  0
  145.0820  161.2570  132.5600 H   0  0  0  0  0  0  0  0  0  0  0  0
  147.6893  160.9182  132.6320 H   0  0  0  0  0  0  0  0  0  0  0  0
  149.4904  159.1933  132.3214 H   0  0  0  0  0  0  0  0  0  0  0  0
  149.9782  156.3777  132.3679 H   0  0  0  0  0  0  0  0  0  0  0  0
  147.9490  151.9380  133.5170 H   0  0  0  0  0  0  0  0  0  0  0  0
  146.7220  153.1760  133.9390 H   0  0  0  0  0  0  0  0  0  0  0  0
  145.8450  153.6400  131.8480 H   0  0  0  0  0  0  0  0  0  0  0  0
  144.8071  157.7549  133.4663 H   0  0  0  0  0  0  0  0  0  0  0  0
  141.9124  161.4381  133.1319 H   0  0  0  0  0  0  0  0  0  0  0  0
  139.8568  160.1425  132.5831 H   0  0  0  0  0  0  0  0  0  0  0  0
  1  2  1  0
  2  3  1  0
  3  4  2  0
  4  5  1  0
  5  6  2  0
  6  7  1  0
  7  8  1  0
  8  9  1  0
  9 10  2  0
 10 11  1  0
 11 12  2  0
 12 13  1  0
 13 14  2  0
 14 15  1  0
 15 16  1  0
 15 17  2  0
 14 18  1  0
 18 19  1  0
 19 20  1  0
 19 21  2  0
 18 22  1  0
 22 23  2  0
  6 24  1  0
 24 25  2  0
 25  3  1  0
 23  9  1  0
 22 12  1  0
  1 26  1  0
  1 27  1  0
  1 28  1  0
  4 29  1  0
  5 30  1  0
  7 31  1  0
  7 32  1  0
  8 33  1  0
 10 34  1  0
 11 35  1  0
 13 36  1  0
 16 37  1  0
 16 38  1  0
 20 39  1  0
 23 40  1  0
 24 41  1  0
 25 42  1  0
M  CHG  1  20  -1
M  END
>  <UniqueID>  (28) 
28

>  <SMILES>  (28) 
COc1ccc(CNc2ccc3cc(C(N)=O)n(C([NH-])=O)c3c2)cc1

>  <Energy>  (28) 
80.90871475169567

>  <Genealogy>  (28) 
COc1ccc(CNc2ccc3cc(C(N)=O)n(C([NH-])=O)c3c2)cc1 (protonated)
COc1ccc(CNc2ccc3cc(C(N)=O)n(C([NH-])=O)c3c2)cc1 (3D coordinates assigned)
COc1ccc(CNc2ccc3cc(C(N)=O)n(C([NH-])=O)c3c2)cc1 (optimized conformer: 80.90871475169567 kcal/mol)

>  <smiles>  (28) 
COc1ccc(CNc2ccc3cc(C(N)=O)n(C(N)=O)c3c2)cc1

>  <score_type>  (28) 
oracle

>  <origin>  (28) 
adg

>  <m_score__min__energy>  (28) 
-8.1899999999999995

>  <m_primary>  (28) 
energy

$$$$
28:0
     RDKit          3D

 34 35  0  0  0  0  0  0  0  0999 V2000
  138.7260  160.8310  130.7400 C   0  0  0  0  0  0  0  0  0  0  0  0
  138.4930  159.6380  131.6730 C   0  0  0  0  0  0  0  0  0  0  0  0
  138.6410  158.3250  130.9080 C   0  0  0  0  0  0  0  0  0  0  0  0
  139.4380  159.6590  132.7410 O   0  0  0  0  0  0  0  0  0  0  0  0
  139.7150  158.5550  133.5560 C   0  0  0  0  0  0  0  0  0  0  0  0
  138.8730  158.1700  134.4130 O   0  0  0  0  0  0  0  0  0  0  0  0
  140.9620  157.8570  133.4110 N   0  0  0  0  0  0  0  0  0  0  0  0
  141.1560  156.5100  133.3360 C   0  0  0  0  0  0  0  0  0  0  0  0
  140.0970  155.4880  133.2240 C   0  0  0  0  0  0  0  0  0  0  0  0
  138.7370  155.8550  132.9860 N   0  0  0  0  0  0  0  0  0  0  0  0
  140.4050  154.2680  133.2850 O   0  0  0  0  0  0  0  0  0  0  0  0
  142.5160  156.2080  133.3290 C   0  0  0  0  0  0  0  0  0  0  0  0
  143.1580  157.4240  133.3880 C   0  0  0  0  0  0  0  0  0  0  0  0
  144.5180  157.7160  133.4250 C   0  0  0  0  0  0  0  0  0  0  0  0
  144.8990  159.0640  133.5270 C   0  0  0  0  0  0  0  0  0  0  0  0
  143.9220  160.0850  133.6030 C   0  0  0  0  0  0  0  0  0  0  0  0
  144.3230  161.4520  133.7230 N   0  0  0  0  0  0  0  0  0  0  0  0
  142.5510  159.7530  133.5660 C   0  0  0  0  0  0  0  0  0  0  0  0
  142.1980  158.4040  133.4400 C   0  0  0  0  0  0  0  0  0  0  0  0
  138.9028  161.7362  131.3394 H   0  0  0  0  0  0  0  0  0  0  0  0
  139.6027  160.6344  130.1054 H   0  0  0  0  0  0  0  0  0  0  0  0
  137.8397  160.9788  130.1054 H   0  0  0  0  0  0  0  0  0  0  0  0
  137.4727  159.7127  132.0772 H   0  0  0  0  0  0  0  0  0  0  0  0
  138.7348  157.4933  131.6218 H   0  0  0  0  0  0  0  0  0  0  0  0
  137.7550  158.1672  130.2755 H   0  0  0  0  0  0  0  0  0  0  0  0
  139.5399  158.3685  130.2755 H   0  0  0  0  0  0  0  0  0  0  0  0
  137.9960  155.1200  132.9490 H   0  0  0  0  0  0  0  0  0  0  0  0
  138.4750  156.8390  132.7590 H   0  0  0  0  0  0  0  0  0  0  0  0
  142.9781  155.2107  133.2856 H   0  0  0  0  0  0  0  0  0  0  0  0
  145.2713  156.9159  133.3759 H   0  0  0  0  0  0  0  0  0  0  0  0
  145.9665  159.3285  133.5480 H   0  0  0  0  0  0  0  0  0  0  0  0
  144.9820  161.8780  133.0320 H   0  0  0  0  0  0  0  0  0  0  0  0
  143.9650  162.0470  134.5010 H   0  0  0  0  0  0  0  0  0  0  0  0
  141.7794  160.5340  133.6344 H   0  0  0  0  0  0  0  0  0  0  0  0
  1  2  1  0
  2  3  1  0
  2  4  1  0
  4  5  1  0
  5  6  2  0
  5  7  1  0
  7  8  1  0
  8  9  1  0
  9 10  1  0
  9 11  2  0
  8 12  2  0
 12 13  1  0
 13 14  2  0
 14 15  1  0
 15 16  2  0
 16 17  1  0
 16 18  1  0
 18 19  2  0
 19  7  1  0
 19 13  1  0
  1 20  1  0
  1 21  1  0
  1 22  1  0
  2 23  1  0
  3 24  1  0
  3 25  1  0
  3 26  1  0
 10 27  1  0
 10 28  1  0
 12 29  1  0
 14 30  1  0
 15 31  1  0
 17 32  1  0
 17 33  1  0
 18 34  1  0
M  END
>  <UniqueID>  (29) 
29

>  <SMILES>  (29) 
CC(C)OC(=O)n1c(C(N)=O)cc2ccc(N)cc21

>  <Energy>  (29) 
66.41155148772792

>  <Genealogy>  (29) 
CC(C)OC(=O)n1c(C(N)=O)cc2ccc(N)cc21 (3D coordinates assigned)
CC(C)OC(=O)n1c(C(N)=O)cc2ccc(N)cc21 (optimized conformer: 66.41155148772792 kcal/mol)

>  <smiles>  (29) 
CC(C)OC(=O)n1c(C(N)=O)cc2ccc(N)cc21

>  <score_type>  (29) 
oracle

>  <origin>  (29) 
adg

>  <m_score__min__energy>  (29) 
-6.4400000000000004

>  <m_primary>  (29) 
energy

$$$$
29:0
     RDKit          3D

 65 68  0  0  0  0  0  0  0  0999 V2000
  143.2920  151.2320  132.9620 C   0  0  0  0  0  0  0  0  0  0  0  0
  143.9880  152.5980  132.8790 C   0  0  0  0  0  0  0  0  0  0  0  0
  142.9900  153.6300  132.3160 C   0  0  0  0  0  0  0  0  0  0  0  0
  144.4530  153.0080  134.2890 C   0  0  0  0  0  0  0  0  0  0  0  0
  145.1120  152.4490  132.0000 O   0  0  0  0  0  0  0  0  0  0  0  0
  146.3850  151.9720  132.3500 C   0  0  0  0  0  0  0  0  0  0  0  0
  146.5830  150.7450  132.5580 O   0  0  0  0  0  0  0  0  0  0  0  0
  147.4700  152.9010  132.5020 N   0  0  0  0  0  0  0  0  0  0  0  0
  148.8020  152.6560  132.3520 C   0  0  0  0  0  0  0  0  0  0  0  0
  149.4230  151.3280  132.1610 C   0  0  0  0  0  0  0  0  0  0  0  0
  149.2380  150.2880  133.1180 N   0  0  0  0  0  0  0  0  0  0  0  0
  150.1690  151.1260  131.1670 O   0  0  0  0  0  0  0  0  0  0  0  0
  149.5340  153.8320  132.4890 C   0  0  0  0  0  0  0  0  0  0  0  0
  148.6010  154.8140  132.7350 C   0  0  0  0  0  0  0  0  0  0  0  0
  148.7720  156.1770  132.9410 C   0  0  0  0  0  0  0  0  0  0  0  0
  147.6270  156.9630  133.1410 C   0  0  0  0  0  0  0  0  0  0  0  0
  146.3280  156.3840  133.1180 C   0  0  0  0  0  0  0  0  0  0  0  0
  145.1210  157.2320  133.3020 C   0  0  0  0  0  0  0  0  0  0  0  0
  145.1070  158.5180  133.8480 C   0  0  0  0  0  0  0  0  0  0  0  0
  143.7900  158.9160  133.8110 C   0  0  0  0  0  0  0  0  0  0  0  0
  143.0770  157.9130  133.2380 C   0  0  0  0  0  0  0  0  0  0  0  0
  143.8680  156.8720  132.9270 N   0  0  0  0  0  0  0  0  0  0  0  0
  141.6530  158.0620  132.9600 C   0  0  0  0  0  0  0  0  0  0  0  0
  141.0350  159.1690  133.4100 C   0  0  0  0  0  0  0  0  0  0  0  0
  141.6910  160.1170  134.3030 N   0  0  1  0  0  0  0  0  0  0  0  0
  141.3880  159.7600  135.6670 C   0  0  0  0  0  0  0  0  0  0  0  0
  140.6110  160.4830  136.3520 O   0  0  0  0  0  0  0  0  0  0  0  0
  141.9720  158.6080  136.2190 O   0  0  0  0  0  0  0  0  0  0  0  0
  141.2730  157.4530  136.7100 C   0  0  0  0  0  0  0  0  0  0  0  0
  139.7900  157.6360  136.3520 C   0  0  0  0  0  0  0  0  0  0  0  0
  141.4050  157.3460  138.2410 C   0  0  0  0  0  0  0  0  0  0  0  0
  141.7970  156.1760  136.0270 C   0  0  0  0  0  0  0  0  0  0  0  0
  143.1640  160.2470  134.1020 C   0  0  0  0  0  0  0  0  0  0  0  0
  146.2020  154.9890  132.9060 C   0  0  0  0  0  0  0  0  0  0  0  0
  147.3640  154.2280  132.7350 C   0  0  0  0  0  0  0  0  0  0  0  0
  143.1512  150.9557  134.0174 H   0  0  0  0  0  0  0  0  0  0  0  0
  142.3128  151.2885  132.4640 H   0  0  0  0  0  0  0  0  0  0  0  0
  143.9133  150.4730  132.4640 H   0  0  0  0  0  0  0  0  0  0  0  0
  142.4895  154.1476  133.1476 H   0  0  0  0  0  0  0  0  0  0  0  0
  143.5299  154.3637  131.6994 H   0  0  0  0  0  0  0  0  0  0  0  0
  142.2387  153.1149  131.6994 H   0  0  0  0  0  0  0  0  0  0  0  0
  143.8516  152.4777  135.0421 H   0  0  0  0  0  0  0  0  0  0  0  0
  145.5137  152.7459  134.4160 H   0  0  0  0  0  0  0  0  0  0  0  0
  144.3258  154.0932  134.4160 H   0  0  0  0  0  0  0  0  0  0  0  0
  148.3720  150.2360  133.6980 H   0  0  0  0  0  0  0  0  0  0  0  0
  150.6251  153.9513  132.4162 H   0  0  0  0  0  0  0  0  0  0  0  0
  149.7757  156.6270  132.9471 H   0  0  0  0  0  0  0  0  0  0  0  0
  147.7356  158.0432  133.3183 H   0  0  0  0  0  0  0  0  0  0  0  0
  145.9662  159.0908  134.2270 H   0  0  0  0  0  0  0  0  0  0  0  0
  143.5570  155.9810  132.4820 H   0  0  0  0  0  0  0  0  0  0  0  0
  141.1013  157.2929  132.3996 H   0  0  0  0  0  0  0  0  0  0  0  0
  140.0000  159.3657  133.0937 H   0  0  0  0  0  0  0  0  0  0  0  0
  141.2680  161.0570  134.1190 H   0  0  0  0  0  0  0  0  0  0  0  0
  139.1963  157.7093  137.2751 H   0  0  0  0  0  0  0  0  0  0  0  0
  139.6660  158.5563  135.7623 H   0  0  0  0  0  0  0  0  0  0  0  0
  139.4460  156.7735  135.7623 H   0  0  0  0  0  0  0  0  0  0  0  0
  140.6357  157.9696  138.7198 H   0  0  0  0  0  0  0  0  0  0  0  0
  141.2712  156.2983  138.5482 H   0  0  0  0  0  0  0  0  0  0  0  0
  142.4024  157.6937  138.5482 H   0  0  0  0  0  0  0  0  0  0  0  0
  142.0964  155.4465  136.7939 H   0  0  0  0  0  0  0  0  0  0  0  0
  141.0035  155.7438  135.3996 H   0  0  0  0  0  0  0  0  0  0  0  0
  142.6654  156.4257  135.3996 H   0  0  0  0  0  0  0  0  0  0  0  0
  143.3525  160.9249  133.2565 H   0  0  0  0  0  0  0  0  0  0  0  0
  143.6081  160.6468  135.0255 H   0  0  0  0  0  0  0  0  0  0  0  0
  145.2106  154.5134  132.8764 H   0  0  0  0  0  0  0  0  0  0  0  0
  1  2  1  0
  2  3  1  0
  2  4  1  0
  2  5  1  0
  5  6  1  0
  6  7  2  0
  6  8  1  0
  8  9  1  0
  9 10  1  0
 10 11  1  0
 10 12  2  0
  9 13  2  0
 13 14  1  0
 14 15  2  0
 15 16  1  0
 16 17  2  0
 17 18  1  0
 18 19  2  0
 19 20  1  0
 20 21  2  0
 21 22  1  0
 21 23  1  0
 23 24  2  0
 24 25  1  0
 25 26  1  0
 26 27  2  0
 26 28  1  0
 28 29  1  0
 29 30  1  0
 29 31  1  0
 29 32  1  0
 25 33  1  0
 17 34  1  0
 34 35  2  0
 35  8  1  0
 35 14  1  0
 22 18  1  0
 33 20  1  0
  1 36  1  0
  1 37  1  0
  1 38  1  0
  3 39  1  0
  3 40  1  0
  3 41  1  0
  4 42  1  0
  4 43  1  0
  4 44  1  0
 11 45  1  0
 13 46  1  0
 15 47  1  0
 16 48  1  0
 19 49  1  0
 22 50  1  0
 23 51  1  0
 24 52  1  0
 25 53  1  6
 30 54  1  0
 30 55  1  0
 30 56  1  0
 31 57  1  0
 31 58  1  0
 31 59  1  0
 32 60  1  0
 32 61  1  0
 32 62  1  0
 33 63  1  0
 33 64  1  0
 34 65  1  0
M  CHG  2  11  -1  25   1
M  END
>  <UniqueID>  (30) 
30

>  <SMILES>  (30) 
CC(C)(C)OC(=O)n1c(C([NH-])=O)cc2ccc(-c3cc4c([nH]3)C=C[N@@H+](C(=O)OC(C)(C)C)C4)cc21

>  <Energy>  (30) 
137.00360405332847

>  <Genealogy>  (30) 
CC(C)(C)OC(=O)n1c(C([NH-])=O)cc2ccc(-c3cc4c([nH]3)C=C[NH+](C(=O)OC(C)(C)C)C4)cc21 (protonated)
CC(C)(C)OC(=O)n1c(C([NH-])=O)cc2ccc(-c3cc4c([nH]3)C=C[N@@H+](C(=O)OC(C)(C)C)C4)cc21 (chirality)
CC(C)(C)OC(=O)n1c(C([NH-])=O)cc2ccc(-c3cc4c([nH]3)C=C[N@@H+](C(=O)OC(C)(C)C)C4)cc21 (3D coordinates assigned)
CC(C)(C)OC(=O)n1c(C([NH-])=O)cc2ccc(-c3cc4c([nH]3)C=C[N@@H+](C(=O)OC(C)(C)C)C4)cc21 (nonaromatic ring conformer: 137.00360405332847 kcal/mol)

>  <smiles>  (30) 
CC(C)(C)OC(=O)N1C=Cc2[nH]c(-c3ccc4cc(C(N)=O)n(C(=O)OC(C)(C)C)c4c3)cc2C1

>  <score_type>  (30) 
oracle

>  <origin>  (30) 
adg

>  <m_score__min__energy>  (30) 
-9.1400000000000006

>  <m_primary>  (30) 
energy

$$$$
30:0
     RDKit          3D

 63 66  0  0  0  0  0  0  0  0999 V2000
  139.1880  146.2410  129.5480 C   0  0  0  0  0  0  0  0  0  0  0  0
  138.7640  147.0280  130.6550 O   0  0  0  0  0  0  0  0  0  0  0  0
  138.7540  148.4280  130.6260 C   0  0  0  0  0  0  0  0  0  0  0  0
  137.9050  149.0390  129.9190 O   0  0  0  0  0  0  0  0  0  0  0  0
  139.7410  149.1880  131.4240 C   0  0  0  0  0  0  0  0  0  0  0  0
  139.4620  150.4980  131.8550 C   0  0  0  0  0  0  0  0  0  0  0  0
  140.3990  151.2110  132.6100 C   0  0  0  0  0  0  0  0  0  0  0  0
  141.6400  150.6350  132.9310 C   0  0  0  0  0  0  0  0  0  0  0  0
  142.6130  151.3400  133.7210 N   0  0  0  0  0  0  0  0  0  0  0  0
  142.3830  152.6090  134.3490 C   0  0  0  0  0  0  0  0  0  0  0  0
  142.2920  152.6790  135.7030 N   0  0  0  0  0  0  0  0  0  0  0  0
  142.0940  153.8660  136.3320 C   0  0  0  0  0  0  0  0  0  0  0  0
  141.9900  155.0410  135.5900 C   0  0  0  0  0  0  0  0  0  0  0  0
  141.7270  156.2140  136.2170 F   0  0  0  0  0  0  0  0  0  0  0  0
  142.1190  154.9640  134.1940 C   0  0  0  0  0  0  0  0  0  0  0  0
  141.9920  156.1260  133.3600 N   0  0  0  0  0  0  0  0  0  0  0  0
  142.9320  157.2130  133.3360 C   0  0  0  0  0  0  0  0  0  0  0  0
  142.5120  158.5500  133.5610 C   0  0  0  0  0  0  0  0  0  0  0  0
  143.4410  159.6030  133.5470 C   0  0  0  0  0  0  0  0  0  0  0  0
  144.7790  159.2910  133.3280 C   0  0  0  0  0  0  0  0  0  0  0  0
  145.8760  160.1170  133.2270 C   0  0  0  0  0  0  0  0  0  0  0  0
  146.9540  159.2690  132.9860 C   0  0  0  0  0  0  0  0  0  0  0  0
  148.3490  159.7390  132.8630 C   0  0  0  0  0  0  0  0  0  0  0  0
  149.4270  159.0250  133.4700 N   0  0  0  0  0  0  0  0  0  0  0  0
  148.5860  160.8180  132.2570 O   0  0  0  0  0  0  0  0  0  0  0  0
  146.5410  157.9720  132.9270 N   0  0  0  0  0  0  0  0  0  0  0  0
  147.3210  156.8190  132.5820 C   0  0  0  0  0  0  0  0  0  0  0  0
  148.5770  156.9110  132.5170 O   0  0  0  0  0  0  0  0  0  0  0  0
  146.6740  155.6020  132.3170 O   0  0  0  0  0  0  0  0  0  0  0  0
  146.6370  154.4530  133.1760 C   0  0  0  0  0  0  0  0  0  0  0  0
  147.9810  153.7270  133.0160 C   0  0  0  0  0  0  0  0  0  0  0  0
  146.4730  154.8820  134.6450 C   0  0  0  0  0  0  0  0  0  0  0  0
  145.5020  153.4980  132.7570 C   0  0  0  0  0  0  0  0  0  0  0  0
  145.2070  158.0020  133.1430 C   0  0  0  0  0  0  0  0  0  0  0  0
  144.3000  156.9340  133.1340 C   0  0  0  0  0  0  0  0  0  0  0  0
  142.3000  153.7500  133.6100 N   0  0  0  0  0  0  0  0  0  0  0  0
  141.9070  149.3210  132.5230 C   0  0  0  0  0  0  0  0  0  0  0  0
  140.9720  148.6060  131.7700 C   0  0  0  0  0  0  0  0  0  0  0  0
  139.6800  145.3279  129.9143 H   0  0  0  0  0  0  0  0  0  0  0  0
  138.3152  145.9674  128.9370 H   0  0  0  0  0  0  0  0  0  0  0  0
  139.8966  146.8193  128.9370 H   0  0  0  0  0  0  0  0  0  0  0  0
  138.5001  150.9648  131.5963 H   0  0  0  0  0  0  0  0  0  0  0  0
  140.1631  152.2287  132.9546 H   0  0  0  0  0  0  0  0  0  0  0  0
  143.5820  150.9520  133.7660 H   0  0  0  0  0  0  0  0  0  0  0  0
  142.0156  153.9001  137.4287 H   0  0  0  0  0  0  0  0  0  0  0  0
  141.1870  156.1560  132.6940 H   0  0  0  0  0  0  0  0  0  0  0  0
  141.4492  158.7633  133.7480 H   0  0  0  0  0  0  0  0  0  0  0  0
  143.1204  160.6434  133.7045 H   0  0  0  0  0  0  0  0  0  0  0  0
  145.8965  161.2131  133.3174 H   0  0  0  0  0  0  0  0  0  0  0  0
  149.2500  158.2280  134.1180 H   0  0  0  0  0  0  0  0  0  0  0  0
  150.4110  159.3470  133.3310 H   0  0  0  0  0  0  0  0  0  0  0  0
  148.3969  153.5023  134.0093 H   0  0  0  0  0  0  0  0  0  0  0  0
  147.8275  152.7891  132.4621 H   0  0  0  0  0  0  0  0  0  0  0  0
  148.6812  154.3696  132.4621 H   0  0  0  0  0  0  0  0  0  0  0  0
  146.7874  154.0596  135.3044 H   0  0  0  0  0  0  0  0  0  0  0  0
  147.0962  155.7672  134.8402 H   0  0  0  0  0  0  0  0  0  0  0  0
  145.4183  155.1258  134.8402 H   0  0  0  0  0  0  0  0  0  0  0  0
  145.0163  153.0893  133.6554 H   0  0  0  0  0  0  0  0  0  0  0  0
  144.7616  154.0488  132.1583 H   0  0  0  0  0  0  0  0  0  0  0  0
  145.9181  152.6743  132.1583 H   0  0  0  0  0  0  0  0  0  0  0  0
  144.6465  155.9024  132.9732 H   0  0  0  0  0  0  0  0  0  0  0  0
  142.8614  148.8482  132.7981 H   0  0  0  0  0  0  0  0  0  0  0  0
  141.2014  147.5802  131.4458 H   0  0  0  0  0  0  0  0  0  0  0  0
  1  2  1  0
  2  3  1  0
  3  4  2  0
  3  5  1  0
  5  6  2  0
  6  7  1  0
  7  8  2  0
  8  9  1  0
  9 10  1  0
 10 11  2  0
 11 12  1  0
 12 13  2  0
 13 14  1  0
 13 15  1  0
 15 16  1  0
 16 17  1  0
 17 18  2  0
 18 19  1  0
 19 20  2  0
 20 21  1  0
 21 22  2  0
 22 23  1  0
 23 24  1  0
 23 25  2  0
 22 26  1  0
 26 27  1  0
 27 28  2  0
 27 29  1  0
 29 30  1  0
 30 31  1  0
 30 32  1  0
 30 33  1  0
 26 34  1  0
 34 35  2  0
 15 36  2  0
  8 37  1  0
 37 38  2  0
 38  5  1  0
 36 10  1  0
 35 17  1  0
 34 20  1  0
  1 39  1  0
  1 40  1  0
  1 41  1  0
  6 42  1  0
  7 43  1  0
  9 44  1  0
 12 45  1  0
 16 46  1  0
 18 47  1  0
 19 48  1  0
 21 49  1  0
 24 50  1  0
 24 51  1  0
 31 52  1  0
 31 53  1  0
 31 54  1  0
 32 55  1  0
 32 56  1  0
 32 57  1  0
 33 58  1  0
 33 59  1  0
 33 60  1  0
 35 61  1  0
 37 62  1  0
 38 63  1  0
M  END
>  <UniqueID>  (31) 
31

>  <SMILES>  (31) 
COC(=O)c1ccc(Nc2ncc(F)c(Nc3ccc4cc(C(N)=O)n(C(=O)OC(C)(C)C)c4c3)n2)cc1

>  <Energy>  (31) 
110.61637603384357

>  <Genealogy>  (31) 
COC(=O)c1ccc(Nc2ncc(F)c(Nc3ccc4cc(C(N)=O)n(C(=O)OC(C)(C)C)c4c3)n2)cc1 (3D coordinates assigned)
COC(=O)c1ccc(Nc2ncc(F)c(Nc3ccc4cc(C(N)=O)n(C(=O)OC(C)(C)C)c4c3)n2)cc1 (optimized conformer: 110.61637603384357 kcal/mol)

>  <smiles>  (31) 
COC(=O)c1ccc(Nc2ncc(F)c(Nc3ccc4cc(C(N)=O)n(C(=O)OC(C)(C)C)c4c3)n2)cc1

>  <score_type>  (31) 
oracle

>  <origin>  (31) 
adg

>  <m_score__min__energy>  (31) 
-10.289999999999999

>  <m_primary>  (31) 
energy

$$$$
31:0
     RDKit          3D

 31 33  0  0  0  0  0  0  0  0999 V2000
  139.8540  158.6560  134.5650 N   0  0  0  0  0  0  0  0  0  0  0  0
  140.6750  159.0120  133.4540 C   0  0  0  0  0  0  0  0  0  0  0  0
  140.1870  159.7100  132.5260 O   0  0  0  0  0  0  0  0  0  0  0  0
  142.0930  158.5960  133.4250 C   0  0  0  0  0  0  0  0  0  0  0  0
  142.4990  157.2710  133.2810 C   0  0  0  0  0  0  0  0  0  0  0  0
  143.8700  157.2950  133.3910 C   0  0  0  0  0  0  0  0  0  0  0  0
  144.7930  156.2570  133.3080 C   0  0  0  0  0  0  0  0  0  0  0  0
  146.1560  156.5760  133.4230 C   0  0  0  0  0  0  0  0  0  0  0  0
  146.5690  157.9170  133.6200 C   0  0  0  0  0  0  0  0  0  0  0  0
  148.0320  158.2540  133.6900 C   0  0  0  0  0  0  0  0  0  0  0  0
  148.4130  159.1300  132.5370 C   0  0  0  0  0  0  0  0  0  0  0  0
  149.3850  158.6620  131.2420 S   0  0  0  0  0  0  0  0  0  0  0  0
  149.3580  160.1980  130.5600 C   0  0  0  0  0  0  0  0  0  0  0  0
  149.9420  160.5090  129.4900 O   0  0  0  0  0  0  0  0  0  0  0  0
  148.6420  161.0790  131.2900 N   0  0  0  0  0  0  0  0  0  0  0  0
  148.1200  160.4860  132.3960 C   0  0  0  0  0  0  0  0  0  0  0  0
  147.3530  161.1920  133.3170 O   0  0  0  0  0  0  0  0  0  0  0  0
  145.6040  158.9460  133.6910 C   0  0  0  0  0  0  0  0  0  0  0  0
  144.2530  158.5970  133.5900 C   0  0  0  0  0  0  0  0  0  0  0  0
  143.1720  159.4100  133.6090 N   0  0  0  0  0  0  0  0  0  0  0  0
  143.1870  160.8420  133.7320 C   0  0  0  0  0  0  0  0  0  0  0  0
  142.1120  161.4950  133.7050 O   0  0  0  0  0  0  0  0  0  0  0  0
  144.3920  161.5220  133.8560 O   0  0  0  0  0  0  0  0  0  0  0  0
  138.8140  158.6680  134.4880 H   0  0  0  0  0  0  0  0  0  0  0  0
  141.8589  156.3920  133.1146 H   0  0  0  0  0  0  0  0  0  0  0  0
  144.4651  155.2180  133.1569 H   0  0  0  0  0  0  0  0  0  0  0  0
  146.9098  155.7774  133.3596 H   0  0  0  0  0  0  0  0  0  0  0  0
  148.2392  158.7821  134.6324 H   0  0  0  0  0  0  0  0  0  0  0  0
  148.6185  157.3245  133.6457 H   0  0  0  0  0  0  0  0  0  0  0  0
  146.4060  161.4710  133.0950 H   0  0  0  0  0  0  0  0  0  0  0  0
  145.9071  159.9952  133.8224 H   0  0  0  0  0  0  0  0  0  0  0  0
  1  2  1  0
  2  3  2  0
  2  4  1  0
  4  5  2  0
  5  6  1  0
  6  7  2  0
  7  8  1  0
  8  9  2  0
  9 10  1  0
 10 11  1  0
 11 12  1  0
 12 13  1  0
 13 14  2  0
 13 15  1  0
 15 16  1  0
 16 17  1  0
  9 18  1  0
 18 19  2  0
 19 20  1  0
 20 21  1  0
 21 22  2  0
 21 23  1  0
 20  4  1  0
 19  6  1  0
 16 11  2  0
  1 24  1  0
  5 25  1  0
  7 26  1  0
  8 27  1  0
 10 28  1  0
 10 29  1  0
 17 30  1  0
 18 31  1  0
M  CHG  3   1  -1  15  -1  23  -1
M  END
>  <UniqueID>  (32) 
32

>  <SMILES>  (32) 
[NH-]C(=O)c1cc2ccc(Cc3sc(=O)[n-]c3O)cc2n1C(=O)[O-]

>  <Energy>  (32) 
101.15336265892705

>  <Genealogy>  (32) 
[NH-]C(=O)c1cc2ccc(Cc3sc(=O)[n-]c3O)cc2n1C(=O)[O-] (protonated)
[NH-]C(=O)c1cc2ccc(Cc3sc(=O)[n-]c3O)cc2n1C(=O)[O-] (3D coordinates assigned)
[NH-]C(=O)c1cc2ccc(Cc3sc(=O)[n-]c3O)cc2n1C(=O)[O-] (optimized conformer: 101.15336265892705 kcal/mol)

>  <smiles>  (32) 
NC(=O)c1cc2ccc(Cc3sc(=O)[nH]c3O)cc2n1C(=O)O

>  <score_type>  (32) 
oracle

>  <origin>  (32) 
adg

>  <m_score__min__energy>  (32) 
-7.5899999999999999

>  <m_primary>  (32) 
energy

$$$$
32:0
     RDKit          3D

 63 65  0  0  0  0  0  0  0  0999 V2000
  140.9510  159.3770  132.7470 C   0  0  0  0  0  0  0  0  0  0  0  0
  141.7310  158.0840  132.9690 C   0  0  0  0  0  0  0  0  0  0  0  0
  143.1350  158.3330  132.9530 O   0  0  0  0  0  0  0  0  0  0  0  0
  143.7730  159.1870  133.8600 C   0  0  0  0  0  0  0  0  0  0  0  0
  143.1490  159.6440  134.8570 O   0  0  0  0  0  0  0  0  0  0  0  0
  145.1290  159.5880  133.6280 N   0  0  0  0  0  0  0  0  0  0  0  0
  145.6850  160.8210  133.7880 C   0  0  0  0  0  0  0  0  0  0  0  0
  144.9570  162.0630  134.1210 C   0  0  0  0  0  0  0  0  0  0  0  0
  143.6140  162.2650  133.6890 N   0  0  0  0  0  0  0  0  0  0  0  0
  145.5400  162.9740  134.7670 O   0  0  0  0  0  0  0  0  0  0  0  0
  147.0570  160.7700  133.5390 C   0  0  0  0  0  0  0  0  0  0  0  0
  147.3250  159.4550  133.2210 C   0  0  0  0  0  0  0  0  0  0  0  0
  148.5300  158.8260  132.9240 C   0  0  0  0  0  0  0  0  0  0  0  0
  148.5120  157.4360  132.7030 C   0  0  0  0  0  0  0  0  0  0  0  0
  147.2980  156.7070  132.7840 C   0  0  0  0  0  0  0  0  0  0  0  0
  147.2820  155.2330  132.6270 C   0  0  0  0  0  0  0  0  0  0  0  0
  148.4890  154.5140  132.6230 C   0  0  0  0  0  0  0  0  0  0  0  0
  148.4780  153.1180  132.6070 C   0  0  0  0  0  0  0  0  0  0  0  0
  147.2660  152.4260  132.6270 C   0  0  0  0  0  0  0  0  0  0  0  0
  146.0480  153.1260  132.6320 C   0  0  0  0  0  0  0  0  0  0  0  0
  144.7560  152.3610  132.7400 C   0  0  0  0  0  0  0  0  0  0  0  0
  143.6670  153.1750  132.3610 O   0  0  0  0  0  0  0  0  0  0  0  0
  142.4270  153.3140  133.5860 Si  0  0  0  0  0  4  0  0  0  0  0  0
  140.7940  154.0610  133.0300 C   0  0  0  0  0  0  0  0  0  0  0  0
  142.0240  151.5640  134.1110 C   0  0  0  0  0  0  0  0  0  0  0  0
  143.1060  154.2790  135.0840 C   0  0  0  0  0  0  0  0  0  0  0  0
  144.4860  153.7330  135.4870 C   0  0  0  0  0  0  0  0  0  0  0  0
  142.1340  154.1230  136.2660 C   0  0  0  0  0  0  0  0  0  0  0  0
  143.2420  155.7700  134.7260 C   0  0  0  0  0  0  0  0  0  0  0  0
  146.0620  154.5310  132.5790 C   0  0  0  0  0  0  0  0  0  0  0  0
  144.8940  155.2160  132.4670 F   0  0  0  0  0  0  0  0  0  0  0  0
  146.0970  157.3870  133.0860 C   0  0  0  0  0  0  0  0  0  0  0  0
  146.1430  158.7670  133.2840 C   0  0  0  0  0  0  0  0  0  0  0  0
  140.6857  159.8168  133.7197 H   0  0  0  0  0  0  0  0  0  0  0  0
  141.5716  160.0870  132.1806 H   0  0  0  0  0  0  0  0  0  0  0  0
  140.0335  159.1591  132.1806 H   0  0  0  0  0  0  0  0  0  0  0  0
  141.4512  157.6563  133.9431 H   0  0  0  0  0  0  0  0  0  0  0  0
  141.4874  157.3807  132.1591 H   0  0  0  0  0  0  0  0  0  0  0  0
  142.8930  161.5190  133.8110 H   0  0  0  0  0  0  0  0  0  0  0  0
  147.7738  161.6030  133.5864 H   0  0  0  0  0  0  0  0  0  0  0  0
  149.4680  159.3975  132.8637 H   0  0  0  0  0  0  0  0  0  0  0  0
  149.4484  156.9101  132.4652 H   0  0  0  0  0  0  0  0  0  0  0  0
  149.4475  155.0537  132.6325 H   0  0  0  0  0  0  0  0  0  0  0  0
  149.4268  152.5621  132.5785 H   0  0  0  0  0  0  0  0  0  0  0  0
  147.2645  151.3261  132.6389 H   0  0  0  0  0  0  0  0  0  0  0  0
  144.7989  151.4827  132.0791 H   0  0  0  0  0  0  0  0  0  0  0  0
  144.6166  152.0432  133.7838 H   0  0  0  0  0  0  0  0  0  0  0  0
  140.1966  154.3343  133.9122 H   0  0  0  0  0  0  0  0  0  0  0  0
  140.9886  154.9597  132.4262 H   0  0  0  0  0  0  0  0  0  0  0  0
  140.2413  153.3262  132.4262 H   0  0  0  0  0  0  0  0  0  0  0  0
  142.0103  151.5046  135.2093 H   0  0  0  0  0  0  0  0  0  0  0  0
  141.0371  151.2808  133.7162 H   0  0  0  0  0  0  0  0  0  0  0  0
  142.7876  150.8777  133.7162 H   0  0  0  0  0  0  0  0  0  0  0  0
  144.5623  153.7028  136.5839 H   0  0  0  0  0  0  0  0  0  0  0  0
  144.6110  152.7177  135.0827 H   0  0  0  0  0  0  0  0  0  0  0  0
  145.2718  154.3880  135.0827 H   0  0  0  0  0  0  0  0  0  0  0  0
  142.6891  154.2121  137.2115 H   0  0  0  0  0  0  0  0  0  0  0  0
  141.3666  154.9095  136.2159 H   0  0  0  0  0  0  0  0  0  0  0  0
  141.6512  153.1359  136.2159 H   0  0  0  0  0  0  0  0  0  0  0  0
  143.2963  156.3653  135.6494 H   0  0  0  0  0  0  0  0  0  0  0  0
  144.1579  155.9235  134.1364 H   0  0  0  0  0  0  0  0  0  0  0  0
  142.3690  156.0866  134.1364 H   0  0  0  0  0  0  0  0  0  0  0  0
  145.1459  156.8398  133.1633 H   0  0  0  0  0  0  0  0  0  0  0  0
  1  2  1  0
  2  3  1  0
  3  4  1  0
  4  5  2  0
  4  6  1  0
  6  7  1  0
  7  8  1  0
  8  9  1  0
  8 10  2  0
  7 11  2  0
 11 12  1  0
 12 13  2  0
 13 14  1  0
 14 15  2  0
 15 16  1  0
 16 17  2  0
 17 18  1  0
 18 19  2  0
 19 20  1  0
 20 21  1  0
 21 22  1  0
 22 23  1  0
 23 24  1  0
 23 25  1  0
 23 26  1  0
 26 27  1  0
 26 28  1  0
 26 29  1  0
 20 30  2  0
 30 31  1  0
 15 32  1  0
 32 33  2  0
 33  6  1  0
 33 12  1  0
 30 16  1  0
  1 34  1  0
  1 35  1  0
  1 36  1  0
  2 37  1  0
  2 38  1  0
  9 39  1  0
 11 40  1  0
 13 41  1  0
 14 42  1  0
 17 43  1  0
 18 44  1  0
 19 45  1  0
 21 46  1  0
 21 47  1  0
 24 48  1  0
 24 49  1  0
 24 50  1  0
 25 51  1  0
 25 52  1  0
 25 53  1  0
 27 54  1  0
 27 55  1  0
 27 56  1  0
 28 57  1  0
 28 58  1  0
 28 59  1  0
 29 60  1  0
 29 61  1  0
 29 62  1  0
 32 63  1  0
M  CHG  1   9  -1
M  END
>  <UniqueID>  (33) 
33

>  <SMILES>  (33) 
CCOC(=O)n1c(C([NH-])=O)cc2ccc(-c3cccc(CO[Si](C)(C)C(C)(C)C)c3F)cc21

>  <Energy>  (33) 
90.2315682338458

>  <Genealogy>  (33) 
CCOC(=O)n1c(C([NH-])=O)cc2ccc(-c3cccc(CO[Si](C)(C)C(C)(C)C)c3F)cc21 (protonated)
CCOC(=O)n1c(C([NH-])=O)cc2ccc(-c3cccc(CO[Si](C)(C)C(C)(C)C)c3F)cc21 (3D coordinates assigned)
CCOC(=O)n1c(C([NH-])=O)cc2ccc(-c3cccc(CO[Si](C)(C)C(C)(C)C)c3F)cc21 (optimized conformer: 90.2315682338458 kcal/mol)

>  <smiles>  (33) 
CCOC(=O)n1c(C(N)=O)cc2ccc(-c3cccc(CO[Si](C)(C)C(C)(C)C)c3F)cc21

>  <score_type>  (33) 
oracle

>  <origin>  (33) 
adg

>  <m_score__min__energy>  (33) 
-9.75

>  <m_primary>  (33) 
energy

$$$$
33:0
     RDKit          3D

 67 70  0  0  0  0  0  0  0  0999 V2000
  142.1070  152.9500  135.7820 C   0  0  0  0  0  0  0  0  0  0  0  0
  141.9470  153.2040  137.2940 C   0  0  0  0  0  0  0  0  0  0  0  0
  143.2760  153.6820  137.9110 C   0  0  0  0  0  0  0  0  0  0  0  0
  141.5270  151.8920  137.9750 C   0  0  0  0  0  0  0  0  0  0  0  0
  140.9040  154.1590  137.5400 O   0  0  0  0  0  0  0  0  0  0  0  0
  141.0630  155.4640  138.0350 C   0  0  0  0  0  0  0  0  0  0  0  0
  141.0270  155.6840  139.2780 O   0  0  0  0  0  0  0  0  0  0  0  0
  141.2640  156.5570  137.1170 N   0  0  0  0  0  0  0  0  0  0  0  0
  140.8590  157.9270  137.5010 C   0  0  0  0  0  0  0  0  0  0  0  0
  141.8850  158.9710  137.0290 C   0  0  0  0  0  0  0  0  0  0  0  0
  142.2820  158.6890  135.6190 C   0  0  0  0  0  0  0  0  0  0  0  0
  142.7360  159.5890  134.7260 N   0  0  0  0  0  0  0  0  0  0  0  0
  142.9620  158.9500  133.5830 N   0  0  0  0  0  0  0  0  0  0  0  0
  142.6770  157.6450  133.7660 C   0  0  0  0  0  0  0  0  0  0  0  0
  142.7210  156.6760  132.7130 N   0  0  0  0  0  0  0  0  0  0  0  0
  143.6260  155.5610  132.6890 C   0  0  0  0  0  0  0  0  0  0  0  0
  143.1500  154.2240  132.6190 C   0  0  0  0  0  0  0  0  0  0  0  0
  144.0440  153.1420  132.6440 C   0  0  0  0  0  0  0  0  0  0  0  0
  145.4010  153.4190  132.7670 C   0  0  0  0  0  0  0  0  0  0  0  0
  146.4770  152.5620  132.8150 C   0  0  0  0  0  0  0  0  0  0  0  0
  147.5930  153.3820  132.9630 C   0  0  0  0  0  0  0  0  0  0  0  0
  148.9630  152.8610  133.1480 C   0  0  0  0  0  0  0  0  0  0  0  0
  150.0180  153.2220  132.2520 N   0  0  0  0  0  0  0  0  0  0  0  0
  149.2200  152.1330  134.1440 O   0  0  0  0  0  0  0  0  0  0  0  0
  147.2270  154.6960  132.9890 N   0  0  0  0  0  0  0  0  0  0  0  0
  148.0980  155.8390  133.0190 C   0  0  0  0  0  0  0  0  0  0  0  0
  149.2400  155.7730  132.4890 O   0  0  0  0  0  0  0  0  0  0  0  0
  147.6620  157.0210  133.6400 O   0  0  0  0  0  0  0  0  0  0  0  0
  147.8270  158.3570  133.1420 C   0  0  0  0  0  0  0  0  0  0  0  0
  146.4280  158.9910  133.0670 C   0  0  0  0  0  0  0  0  0  0  0  0
  148.7020  159.1860  134.1010 C   0  0  0  0  0  0  0  0  0  0  0  0
  148.4370  158.3410  131.7250 C   0  0  0  0  0  0  0  0  0  0  0  0
  145.8780  154.7010  132.8710 C   0  0  0  0  0  0  0  0  0  0  0  0
  145.0110  155.8000  132.8210 C   0  0  0  0  0  0  0  0  0  0  0  0
  142.2390  157.4430  135.0600 C   0  0  0  0  0  0  0  0  0  0  0  0
  141.5780  156.2620  135.7040 C   0  0  0  0  0  0  0  0  0  0  0  0
  142.6872  152.0289  135.6243 H   0  0  0  0  0  0  0  0  0  0  0  0
  141.1140  152.8413  135.3214 H   0  0  0  0  0  0  0  0  0  0  0  0
  142.6339  153.7986  135.3214 H   0  0  0  0  0  0  0  0  0  0  0  0
  143.2015  153.6552  139.0081 H   0  0  0  0  0  0  0  0  0  0  0  0
  144.0915  153.0208  137.5826 H   0  0  0  0  0  0  0  0  0  0  0  0
  143.4835  154.7111  137.5826 H   0  0  0  0  0  0  0  0  0  0  0  0
  141.5669  152.0167  139.0672 H   0  0  0  0  0  0  0  0  0  0  0  0
  140.5013  151.6339  137.6726 H   0  0  0  0  0  0  0  0  0  0  0  0
  142.2121  151.0863  137.6726 H   0  0  0  0  0  0  0  0  0  0  0  0
  139.8838  158.1526  137.0449 H   0  0  0  0  0  0  0  0  0  0  0  0
  140.7982  157.9742  138.5983 H   0  0  0  0  0  0  0  0  0  0  0  0
  141.4385  159.9745  137.0888 H   0  0  0  0  0  0  0  0  0  0  0  0
  142.7752  158.9219  137.6733 H   0  0  0  0  0  0  0  0  0  0  0  0
  142.1450  156.8640  131.8610 H   0  0  0  0  0  0  0  0  0  0  0  0
  142.0690  154.0347  132.5444 H   0  0  0  0  0  0  0  0  0  0  0  0
  143.6819  152.1061  132.5685 H   0  0  0  0  0  0  0  0  0  0  0  0
  146.4593  151.4640  132.7503 H   0  0  0  0  0  0  0  0  0  0  0  0
  149.8680  153.9390  131.5080 H   0  0  0  0  0  0  0  0  0  0  0  0
  150.9640  152.7920  132.3540 H   0  0  0  0  0  0  0  0  0  0  0  0
  146.0484  159.1630  134.0850 H   0  0  0  0  0  0  0  0  0  0  0  0
  146.4882  159.9498  132.5312 H   0  0  0  0  0  0  0  0  0  0  0  0
  145.7467  158.3137  132.5312 H   0  0  0  0  0  0  0  0  0  0  0  0
  148.4416  158.9393  135.1408 H   0  0  0  0  0  0  0  0  0  0  0  0
  149.7624  158.9534  133.9235 H   0  0  0  0  0  0  0  0  0  0  0  0
  148.5269  160.2574  133.9235 H   0  0  0  0  0  0  0  0  0  0  0  0
  149.5342  158.3122  131.7984 H   0  0  0  0  0  0  0  0  0  0  0  0
  148.0823  157.4518  131.1831 H   0  0  0  0  0  0  0  0  0  0  0  0
  148.1294  159.2475  131.1831 H   0  0  0  0  0  0  0  0  0  0  0  0
  145.4008  156.8267  132.8832 H   0  0  0  0  0  0  0  0  0  0  0  0
  140.6469  156.0295  135.1664 H   0  0  0  0  0  0  0  0  0  0  0  0
  142.2626  155.4020  135.6618 H   0  0  0  0  0  0  0  0  0  0  0  0
  1  2  1  0
  2  3  1  0
  2  4  1  0
  2  5  1  0
  5  6  1  0
  6  7  2  0
  6  8  1  0
  8  9  1  0
  9 10  1  0
 10 11  1  0
 11 12  1  0
 12 13  1  0
 13 14  2  0
 14 15  1  0
 15 16  1  0
 16 17  2  0
 17 18  1  0
 18 19  2  0
 19 20  1  0
 20 21  2  0
 21 22  1  0
 22 23  1  0
 22 24  2  0
 21 25  1  0
 25 26  1  0
 26 27  2  0
 26 28  1  0
 28 29  1  0
 29 30  1  0
 29 31  1  0
 29 32  1  0
 25 33  1  0
 33 34  2  0
 14 35  1  0
 35 36  1  0
 36  8  1  0
 35 11  2  0
 34 16  1  0
 33 19  1  0
  1 37  1  0
  1 38  1  0
  1 39  1  0
  3 40  1  0
  3 41  1  0
  3 42  1  0
  4 43  1  0
  4 44  1  0
  4 45  1  0
  9 46  1  0
  9 47  1  0
 10 48  1  0
 10 49  1  0
 15 50  1  0
 17 51  1  0
 18 52  1  0
 20 53  1  0
 23 54  1  0
 23 55  1  0
 30 56  1  0
 30 57  1  0
 30 58  1  0
 31 59  1  0
 31 60  1  0
 31 61  1  0
 32 62  1  0
 32 63  1  0
 32 64  1  0
 34 65  1  0
 36 66  1  0
 36 67  1  0
M  CHG  1  12  -1
M  END
>  <UniqueID>  (34) 
34

>  <SMILES>  (34) 
CC(C)(C)OC(=O)N1CCc2[n-]nc(Nc3ccc4cc(C(N)=O)n(C(=O)OC(C)(C)C)c4c3)c2C1

>  <Energy>  (34) 
138.3790655652357

>  <Genealogy>  (34) 
CC(C)(C)OC(=O)N1CCc2[n-]nc(Nc3ccc4cc(C(N)=O)n(C(=O)OC(C)(C)C)c4c3)c2C1 (protonated)
CC(C)(C)OC(=O)N1CCc2[n-]nc(Nc3ccc4cc(C(N)=O)n(C(=O)OC(C)(C)C)c4c3)c2C1 (3D coordinates assigned)
CC(C)(C)OC(=O)N1CCc2[n-]nc(Nc3ccc4cc(C(N)=O)n(C(=O)OC(C)(C)C)c4c3)c2C1 (nonaromatic ring conformer: 138.3790655652357 kcal/mol)

>  <smiles>  (34) 
CC(C)(C)OC(=O)N1CCc2[nH]nc(Nc3ccc4cc(C(N)=O)n(C(=O)OC(C)(C)C)c4c3)c2C1

>  <score_type>  (34) 
oracle

>  <origin>  (34) 
adg

>  <m_score__min__energy>  (34) 
-10.1

>  <m_primary>  (34) 
energy

$$$$
34:0
     RDKit          3D

 62 65  0  0  0  0  0  0  0  0999 V2000
  138.8220  148.3600  131.4840 C   0  0  0  0  0  0  0  0  0  0  0  0
  139.5450  149.7180  131.5120 C   0  0  0  0  0  0  0  0  0  0  0  0
  139.8460  150.1740  130.0740 C   0  0  0  0  0  0  0  0  0  0  0  0
  138.6550  150.7640  132.2110 C   0  0  0  0  0  0  0  0  0  0  0  0
  141.0880  149.5450  132.4240 S   0  0  0  0  0  0  0  0  0  0  0  0
  141.1530  148.1600  133.0190 O   0  0  0  0  0  0  0  0  0  0  0  0
  142.2560  149.7390  131.4890 O   0  0  0  0  0  0  0  0  0  0  0  0
  141.1480  150.7460  133.6500 O   0  0  0  0  0  0  0  0  0  0  0  0
  141.8640  151.9450  133.5490 C   0  0  0  0  0  0  0  0  0  0  0  0
  142.3150  152.5550  134.7270 C   0  0  0  0  0  0  0  0  0  0  0  0
  143.0160  153.7650  134.6810 C   0  0  0  0  0  0  0  0  0  0  0  0
  143.3120  154.3620  133.4460 C   0  0  0  0  0  0  0  0  0  0  0  0
  144.0410  155.6480  133.3850 C   0  0  0  0  0  0  0  0  0  0  0  0
  145.4460  155.6570  133.1960 C   0  0  0  0  0  0  0  0  0  0  0  0
  146.1660  156.8630  133.2210 C   0  0  0  0  0  0  0  0  0  0  0  0
  145.4570  158.0410  133.4270 C   0  0  0  0  0  0  0  0  0  0  0  0
  145.9030  159.3410  133.4960 C   0  0  0  0  0  0  0  0  0  0  0  0
  144.7630  160.1110  133.7050 C   0  0  0  0  0  0  0  0  0  0  0  0
  144.8040  161.5650  133.9670 C   0  0  0  0  0  0  0  0  0  0  0  0
  143.6800  162.3930  133.6690 N   0  0  0  0  0  0  0  0  0  0  0  0
  145.8220  162.0740  134.5110 O   0  0  0  0  0  0  0  0  0  0  0  0
  143.6480  159.3250  133.7380 N   0  0  0  0  0  0  0  0  0  0  0  0
  142.2710  159.7490  133.7630 C   0  0  0  0  0  0  0  0  0  0  0  0
  141.8090  160.3300  134.7840 O   0  0  0  0  0  0  0  0  0  0  0  0
  141.4130  159.4770  132.6430 N   0  0  0  0  0  0  0  0  0  0  0  0
  140.0160  159.9290  132.5900 C   0  0  0  0  0  0  0  0  0  0  0  0
  139.0900  158.9060  133.2390 C   0  0  0  0  0  0  0  0  0  0  0  0
  138.7190  157.9380  132.1300 C   0  0  0  0  0  0  0  0  0  0  0  0
  138.7320  158.7570  130.8480 C   0  0  0  0  0  0  0  0  0  0  0  0
  139.5330  160.0290  131.1400 C   0  0  0  0  0  0  0  0  0  0  0  0
  144.0930  158.0560  133.5880 C   0  0  0  0  0  0  0  0  0  0  0  0
  143.3520  156.8680  133.5690 C   0  0  0  0  0  0  0  0  0  0  0  0
  142.8870  153.7380  132.2610 C   0  0  0  0  0  0  0  0  0  0  0  0
  142.1590  152.5460  132.3110 C   0  0  0  0  0  0  0  0  0  0  0  0
  138.6409  148.0197  132.5142 H   0  0  0  0  0  0  0  0  0  0  0  0
  137.8614  148.4668  130.9589 H   0  0  0  0  0  0  0  0  0  0  0  0
  139.4469  147.6226  130.9589 H   0  0  0  0  0  0  0  0  0  0  0  0
  140.4518  151.0918  130.0996 H   0  0  0  0  0  0  0  0  0  0  0  0
  140.4003  149.3834  129.5471 H   0  0  0  0  0  0  0  0  0  0  0  0
  138.9011  150.3729  129.5471 H   0  0  0  0  0  0  0  0  0  0  0  0
  138.7481  150.6546  133.3016 H   0  0  0  0  0  0  0  0  0  0  0  0
  138.9749  151.7740  131.9152 H   0  0  0  0  0  0  0  0  0  0  0  0
  137.6068  150.6100  131.9152 H   0  0  0  0  0  0  0  0  0  0  0  0
  142.1159  152.0777  135.6979 H   0  0  0  0  0  0  0  0  0  0  0  0
  143.3359  154.2495  135.6153 H   0  0  0  0  0  0  0  0  0  0  0  0
  145.9783  154.7091  133.0279 H   0  0  0  0  0  0  0  0  0  0  0  0
  147.2571  156.8749  133.0819 H   0  0  0  0  0  0  0  0  0  0  0  0
  146.9402  159.6960  133.4052 H   0  0  0  0  0  0  0  0  0  0  0  0
  142.7050  162.0460  133.8030 H   0  0  0  0  0  0  0  0  0  0  0  0
  141.7960  158.8950  131.8580 H   0  0  0  0  0  0  0  0  0  0  0  0
  139.9860  160.9001  133.1058 H   0  0  0  0  0  0  0  0  0  0  0  0
  139.6092  158.3785  134.0527 H   0  0  0  0  0  0  0  0  0  0  0  0
  138.2020  159.3807  133.6819 H   0  0  0  0  0  0  0  0  0  0  0  0
  139.4542  157.1219  132.0713 H   0  0  0  0  0  0  0  0  0  0  0  0
  137.7368  157.4752  132.3065 H   0  0  0  0  0  0  0  0  0  0  0  0
  139.2111  158.1858  130.0392 H   0  0  0  0  0  0  0  0  0  0  0  0
  137.7087  159.0015  130.5269 H   0  0  0  0  0  0  0  0  0  0  0  0
  140.3938  160.0985  130.4587 H   0  0  0  0  0  0  0  0  0  0  0  0
  138.9138  160.9262  130.9928 H   0  0  0  0  0  0  0  0  0  0  0  0
  142.2593  156.8840  133.6944 H   0  0  0  0  0  0  0  0  0  0  0  0
  143.1287  154.1905  131.2879 H   0  0  0  0  0  0  0  0  0  0  0  0
  141.8149  152.0753  131.3783 H   0  0  0  0  0  0  0  0  0  0  0  0
  1  2  1  0
  2  3  1  0
  2  4  1  0
  2  5  1  0
  5  6  2  0
  5  7  2  0
  5  8  1  0
  8  9  1  0
  9 10  2  0
 10 11  1  0
 11 12  2  0
 12 13  1  0
 13 14  2  0
 14 15  1  0
 15 16  2  0
 16 17  1  0
 17 18  2  0
 18 19  1  0
 19 20  1  0
 19 21  2  0
 18 22  1  0
 22 23  1  0
 23 24  2  0
 23 25  1  0
 25 26  1  0
 26 27  1  0
 27 28  1  0
 28 29  1  0
 29 30  1  0
 22 31  1  0
 31 32  2  0
 12 33  1  0
 33 34  2  0
 34  9  1  0
 32 13  1  0
 31 16  1  0
 30 26  1  0
  1 35  1  0
  1 36  1  0
  1 37  1  0
  3 38  1  0
  3 39  1  0
  3 40  1  0
  4 41  1  0
  4 42  1  0
  4 43  1  0
 10 44  1  0
 11 45  1  0
 14 46  1  0
 15 47  1  0
 17 48  1  0
 20 49  1  0
 25 50  1  0
 26 51  1  0
 27 52  1  0
 27 53  1  0
 28 54  1  0
 28 55  1  0
 29 56  1  0
 29 57  1  0
 30 58  1  0
 30 59  1  0
 32 60  1  0
 33 61  1  0
 34 62  1  0
M  CHG  1  20  -1
M  END
>  <UniqueID>  (35) 
35

>  <SMILES>  (35) 
CC(C)(C)S(=O)(=O)Oc1ccc(-c2ccc3cc(C([NH-])=O)n(C(=O)NC4CCCC4)c3c2)cc1

>  <Energy>  (35) 
101.22106816485889

>  <Genealogy>  (35) 
CC(C)(C)S(=O)(=O)Oc1ccc(-c2ccc3cc(C([NH-])=O)n(C(=O)NC4CCCC4)c3c2)cc1 (protonated)
CC(C)(C)S(=O)(=O)Oc1ccc(-c2ccc3cc(C([NH-])=O)n(C(=O)NC4CCCC4)c3c2)cc1 (3D coordinates assigned)
CC(C)(C)S(=O)(=O)Oc1ccc(-c2ccc3cc(C([NH-])=O)n(C(=O)NC4CCCC4)c3c2)cc1 (nonaromatic ring conformer: 101.22106816485889 kcal/mol)

>  <smiles>  (35) 
CC(C)(C)S(=O)(=O)Oc1ccc(-c2ccc3cc(C(N)=O)n(C(=O)NC4CCCC4)c3c2)cc1

>  <score_type>  (35) 
oracle

>  <origin>  (35) 
adg

>  <m_score__min__energy>  (35) 
-11.970000000000001

>  <m_primary>  (35) 
energy

$$$$
35:0
     RDKit          3D

 33 35  0  0  0  0  0  0  0  0999 V2000
  139.0380  156.0460  133.3620 N   0  0  0  0  0  0  0  0  0  0  0  0
  140.3740  155.5510  133.3510 C   0  0  0  0  0  0  0  0  0  0  0  0
  140.5720  154.3100  133.2670 O   0  0  0  0  0  0  0  0  0  0  0  0
  141.5080  156.4910  133.4610 C   0  0  0  0  0  0  0  0  0  0  0  0
  142.8440  156.1160  133.3200 C   0  0  0  0  0  0  0  0  0  0  0  0
  143.5640  157.2850  133.4240 C   0  0  0  0  0  0  0  0  0  0  0  0
  144.9380  157.5040  133.3600 C   0  0  0  0  0  0  0  0  0  0  0  0
  145.4030  158.8220  133.5110 C   0  0  0  0  0  0  0  0  0  0  0  0
  144.4930  159.8860  133.7260 C   0  0  0  0  0  0  0  0  0  0  0  0
  144.9790  161.2220  133.8850 N   0  0  0  0  0  0  0  0  0  0  0  0
  143.1070  159.6280  133.7860 C   0  0  0  0  0  0  0  0  0  0  0  0
  142.6750  158.3090  133.6220 C   0  0  0  0  0  0  0  0  0  0  0  0
  141.4120  157.8360  133.6560 N   0  0  0  0  0  0  0  0  0  0  0  0
  140.2250  158.6170  133.8680 C   0  0  0  0  0  0  0  0  0  0  0  0
  139.8760  158.8920  135.0480 O   0  0  0  0  0  0  0  0  0  0  0  0
  139.3940  159.0680  132.7260 C   0  0  0  0  0  0  0  0  0  0  0  0
  139.5400  160.3700  132.2150 C   0  0  0  0  0  0  0  0  0  0  0  0
  138.7570  160.7790  131.1360 C   0  0  0  0  0  0  0  0  0  0  0  0
  137.8310  159.8990  130.5770 C   0  0  0  0  0  0  0  0  0  0  0  0
  137.7010  158.6170  131.1100 C   0  0  0  0  0  0  0  0  0  0  0  0
  138.4720  158.2290  132.1630 N   0  0  0  0  0  0  0  0  0  0  0  0
  138.4220  155.9460  132.5240 H   0  0  0  0  0  0  0  0  0  0  0  0
  143.2386  155.1018  133.1598 H   0  0  0  0  0  0  0  0  0  0  0  0
  145.6378  156.6712  133.1963 H   0  0  0  0  0  0  0  0  0  0  0  0
  146.4823  159.0287  133.4618 H   0  0  0  0  0  0  0  0  0  0  0  0
  145.6450  161.6340  133.1940 H   0  0  0  0  0  0  0  0  0  0  0  0
  144.6760  161.8070  134.6950 H   0  0  0  0  0  0  0  0  0  0  0  0
  142.3870  160.4419  133.9570 H   0  0  0  0  0  0  0  0  0  0  0  0
  140.2678  161.0619  132.6639 H   0  0  0  0  0  0  0  0  0  0  0  0
  138.8696  161.7938  130.7267 H   0  0  0  0  0  0  0  0  0  0  0  0
  137.2099  160.2126  129.7250 H   0  0  0  0  0  0  0  0  0  0  0  0
  136.9720  157.9158  130.6776 H   0  0  0  0  0  0  0  0  0  0  0  0
  138.3320  157.2660  132.5420 H   0  0  0  0  0  0  0  0  0  0  0  0
  1  2  1  0
  2  3  2  0
  2  4  1  0
  4  5  2  0
  5  6  1  0
  6  7  2  0
  7  8  1  0
  8  9  2  0
  9 10  1  0
  9 11  1  0
 11 12  2  0
 12 13  1  0
 13 14  1  0
 14 15  2  0
 14 16  1  0
 16 17  2  0
 17 18  1  0
 18 19  2  0
 19 20  1  0
 20 21  2  0
 13  4  1  0
 21 16  1  0
 12  6  1  0
  1 22  1  0
  5 23  1  0
  7 24  1  0
  8 25  1  0
 10 26  1  0
 10 27  1  0
 11 28  1  0
 17 29  1  0
 18 30  1  0
 19 31  1  0
 20 32  1  0
 21 33  1  0
M  CHG  2   1  -1  21   1
M  END
>  <UniqueID>  (36) 
36

>  <SMILES>  (36) 
[NH-]C(=O)c1cc2ccc(N)cc2n1C(=O)c1cccc[nH+]1

>  <Energy>  (36) 
75.64076753370898

>  <Genealogy>  (36) 
[NH-]C(=O)c1cc2ccc(N)cc2n1C(=O)c1cccc[nH+]1 (protonated)
[NH-]C(=O)c1cc2ccc(N)cc2n1C(=O)c1cccc[nH+]1 (3D coordinates assigned)
[NH-]C(=O)c1cc2ccc(N)cc2n1C(=O)c1cccc[nH+]1 (optimized conformer: 75.64076753370898 kcal/mol)

>  <smiles>  (36) 
NC(=O)c1cc2ccc(N)cc2n1C(=O)c1ccccn1

>  <score_type>  (36) 
oracle

>  <origin>  (36) 
adg

>  <m_score__min__energy>  (36) 
-7.0099999999999998

>  <m_primary>  (36) 
energy

$$$$
36:0
     RDKit          3D

 50 53  0  0  0  0  0  0  0  0999 V2000
  139.1090  145.8100  129.9490 N   0  0  0  0  0  0  0  0  0  0  0  0
  138.7770  146.7540  128.9340 C   0  0  0  0  0  0  0  0  0  0  0  0
  138.5550  146.3610  127.7590 O   0  0  0  0  0  0  0  0  0  0  0  0
  138.6450  148.2050  129.2790 C   0  0  0  0  0  0  0  0  0  0  0  0
  138.6630  148.3960  130.7300 N   0  0  0  0  0  0  0  0  0  0  0  0
  139.5210  149.3460  131.3900 C   0  0  0  0  0  0  0  0  0  0  0  0
  139.0370  150.5790  131.8620 C   0  0  0  0  0  0  0  0  0  0  0  0
  139.8950  151.4810  132.4960 C   0  0  0  0  0  0  0  0  0  0  0  0
  141.2570  151.1740  132.6780 C   0  0  0  0  0  0  0  0  0  0  0  0
  142.1550  152.1650  133.3300 C   0  0  0  0  0  0  0  0  0  0  0  0
  141.6700  153.1880  134.1590 C   0  0  0  0  0  0  0  0  0  0  0  0
  142.5820  154.0670  134.7430 C   0  0  0  0  0  0  0  0  0  0  0  0
  143.9100  153.9290  134.5020 N   0  0  0  0  0  0  0  0  0  0  0  0
  144.3760  152.9400  133.6950 C   0  0  0  0  0  0  0  0  0  0  0  0
  145.7840  152.8400  133.4320 N   0  0  0  0  0  0  0  0  0  0  0  0
  146.6430  153.9680  133.1910 C   0  0  0  0  0  0  0  0  0  0  0  0
  148.0070  153.7430  132.8830 C   0  0  0  0  0  0  0  0  0  0  0  0
  148.8750  154.8190  132.6330 C   0  0  0  0  0  0  0  0  0  0  0  0
  148.3530  156.1070  132.6980 C   0  0  0  0  0  0  0  0  0  0  0  0
  148.9640  157.3210  132.4860 C   0  0  0  0  0  0  0  0  0  0  0  0
  147.9660  158.2760  132.6720 C   0  0  0  0  0  0  0  0  0  0  0  0
  148.2060  159.7360  132.6350 C   0  0  0  0  0  0  0  0  0  0  0  0
  147.1830  160.6530  133.0250 N   0  0  0  0  0  0  0  0  0  0  0  0
  149.3090  160.1850  132.2270 O   0  0  0  0  0  0  0  0  0  0  0  0
  146.7820  157.6730  132.9820 N   0  0  0  0  0  0  0  0  0  0  0  0
  145.5090  158.3020  133.2120 C   0  0  0  0  0  0  0  0  0  0  0  0
  145.1150  159.2340  132.4630 O   0  0  0  0  0  0  0  0  0  0  0  0
  144.6930  157.8750  134.2520 O   0  0  0  0  0  0  0  0  0  0  0  0
  147.0360  156.3460  132.9930 C   0  0  0  0  0  0  0  0  0  0  0  0
  146.1430  155.2920  133.2120 C   0  0  0  0  0  0  0  0  0  0  0  0
  143.4960  152.0840  133.1100 N   0  0  0  0  0  0  0  0  0  0  0  0
  141.7400  149.9440  132.1930 C   0  0  0  0  0  0  0  0  0  0  0  0
  140.8800  149.0420  131.5610 C   0  0  0  0  0  0  0  0  0  0  0  0
  138.3640  145.3630  130.5290 H   0  0  0  0  0  0  0  0  0  0  0  0
  139.4826  148.7601  128.8314 H   0  0  0  0  0  0  0  0  0  0  0  0
  137.6872  148.5761  128.8855 H   0  0  0  0  0  0  0  0  0  0  0  0
  138.0310  147.8100  131.3230 H   0  0  0  0  0  0  0  0  0  0  0  0
  137.9753  150.8351  131.7311 H   0  0  0  0  0  0  0  0  0  0  0  0
  139.5018  152.4427  132.8574 H   0  0  0  0  0  0  0  0  0  0  0  0
  140.5911  153.2947  134.3448 H   0  0  0  0  0  0  0  0  0  0  0  0
  142.2240  154.8734  135.4000 H   0  0  0  0  0  0  0  0  0  0  0  0
  146.2270  151.9000  133.5440 H   0  0  0  0  0  0  0  0  0  0  0  0
  148.3914  152.7133  132.8390 H   0  0  0  0  0  0  0  0  0  0  0  0
  149.9349  154.6484  132.3932 H   0  0  0  0  0  0  0  0  0  0  0  0
  150.0174  157.5002  132.2249 H   0  0  0  0  0  0  0  0  0  0  0  0
  147.3470  161.6820  132.9550 H   0  0  0  0  0  0  0  0  0  0  0  0
  146.2760  160.3200  133.4210 H   0  0  0  0  0  0  0  0  0  0  0  0
  145.0764  155.4876  133.3964 H   0  0  0  0  0  0  0  0  0  0  0  0
  142.8037  149.6906  132.3125 H   0  0  0  0  0  0  0  0  0  0  0  0
  141.2730  148.0826  131.1934 H   0  0  0  0  0  0  0  0  0  0  0  0
  1  2  1  0
  2  3  2  0
  2  4  1  0
  4  5  1  0
  5  6  1  0
  6  7  2  0
  7  8  1  0
  8  9  2  0
  9 10  1  0
 10 11  2  0
 11 12  1  0
 12 13  2  0
 13 14  1  0
 14 15  1  0
 15 16  1  0
 16 17  2  0
 17 18  1  0
 18 19  2  0
 19 20  1  0
 20 21  2  0
 21 22  1  0
 22 23  1  0
 22 24  2  0
 21 25  1  0
 25 26  1  0
 26 27  2  0
 26 28  1  0
 25 29  1  0
 29 30  2  0
 14 31  2  0
  9 32  1  0
 32 33  2  0
 33  6  1  0
 31 10  1  0
 30 16  1  0
 29 19  1  0
  1 34  1  0
  4 35  1  0
  4 36  1  0
  5 37  1  0
  7 38  1  0
  8 39  1  0
 11 40  1  0
 12 41  1  0
 15 42  1  0
 17 43  1  0
 18 44  1  0
 20 45  1  0
 23 46  1  0
 23 47  1  0
 30 48  1  0
 32 49  1  0
 33 50  1  0
M  CHG  2   1  -1  28  -1
M  END
>  <UniqueID>  (37) 
37

>  <SMILES>  (37) 
[NH-]C(=O)CNc1ccc(-c2ccnc(Nc3ccc4cc(C(N)=O)n(C(=O)[O-])c4c3)n2)cc1

>  <Energy>  (37) 
99.13366841215777

>  <Genealogy>  (37) 
[NH-]C(=O)CNc1ccc(-c2ccnc(Nc3ccc4cc(C(N)=O)n(C(=O)[O-])c4c3)n2)cc1 (protonated)
[NH-]C(=O)CNc1ccc(-c2ccnc(Nc3ccc4cc(C(N)=O)n(C(=O)[O-])c4c3)n2)cc1 (3D coordinates assigned)
[NH-]C(=O)CNc1ccc(-c2ccnc(Nc3ccc4cc(C(N)=O)n(C(=O)[O-])c4c3)n2)cc1 (optimized conformer: 99.13366841215777 kcal/mol)

>  <smiles>  (37) 
NC(=O)CNc1ccc(-c2ccnc(Nc3ccc4cc(C(N)=O)n(C(=O)O)c4c3)n2)cc1

>  <score_type>  (37) 
oracle

>  <origin>  (37) 
adg

>  <m_score__min__energy>  (37) 
-10.27

>  <m_primary>  (37) 
energy

$$$$
37:0
     RDKit          3D

 69 72  0  0  0  0  0  0  0  0999 V2000
  147.3410  160.0390  131.6340 C   0  0  0  0  0  0  0  0  0  0  0  0
  148.8120  159.7450  131.3060 C   0  0  0  0  0  0  0  0  0  0  0  0
  149.5610  161.0800  131.1360 C   0  0  0  0  0  0  0  0  0  0  0  0
  148.8760  158.9160  130.0080 C   0  0  0  0  0  0  0  0  0  0  0  0
  149.3510  158.9980  132.4080 O   0  0  0  0  0  0  0  0  0  0  0  0
  148.6440  158.1070  133.2270 C   0  0  0  0  0  0  0  0  0  0  0  0
  148.4310  158.3690  134.4410 O   0  0  0  0  0  0  0  0  0  0  0  0
  148.1720  156.8760  132.6660 N   0  0  0  0  0  0  0  0  0  0  0  0
  147.7500  155.7440  133.4930 C   0  0  0  0  0  0  0  0  0  0  0  0
  146.4360  155.1440  132.9510 C   0  0  2  0  0  0  0  0  0  0  0  0
  145.2270  155.4030  133.8360 C   0  0  0  0  0  0  0  0  0  0  0  0
  144.9760  154.5220  134.9210 C   0  0  0  0  0  0  0  0  0  0  0  0
  143.9060  154.7470  135.8010 C   0  0  0  0  0  0  0  0  0  0  0  0
  143.1110  155.8670  135.5900 C   0  0  0  0  0  0  0  0  0  0  0  0
  142.0060  156.3120  136.2800 C   0  0  0  0  0  0  0  0  0  0  0  0
  141.6100  157.4780  135.6270 C   0  0  0  0  0  0  0  0  0  0  0  0
  140.4980  158.3330  136.0960 C   0  0  0  0  0  0  0  0  0  0  0  0
  140.5730  159.7530  135.9970 N   0  0  0  0  0  0  0  0  0  0  0  0
  139.4890  157.8070  136.6330 O   0  0  0  0  0  0  0  0  0  0  0  0
  142.4320  157.7390  134.5720 N   0  0  0  0  0  0  0  0  0  0  0  0
  142.3100  158.7800  133.5910 C   0  0  0  0  0  0  0  0  0  0  0  0
  142.8430  159.9020  133.8030 O   0  0  0  0  0  0  0  0  0  0  0  0
  141.5670  158.5420  132.4250 O   0  0  0  0  0  0  0  0  0  0  0  0
  140.1710  158.8200  132.2360 C   0  0  0  0  0  0  0  0  0  0  0  0
  139.8580  159.0200  130.7410 C   0  0  0  0  0  0  0  0  0  0  0  0
  139.8640  160.1260  132.9840 C   0  0  0  0  0  0  0  0  0  0  0  0
  139.3060  157.6920  132.8290 C   0  0  0  0  0  0  0  0  0  0  0  0
  143.3480  156.7460  134.5660 C   0  0  0  0  0  0  0  0  0  0  0  0
  144.3960  156.5380  133.6620 C   0  0  0  0  0  0  0  0  0  0  0  0
  146.5800  153.6670  132.6900 C   0  0  0  0  0  0  0  0  0  0  0  0
  145.5520  152.7730  132.3740 C   0  0  0  0  0  0  0  0  0  0  0  0
  146.0480  151.5340  132.1300 N   0  0  0  0  0  0  0  0  0  0  0  0
  147.3760  151.6460  132.2820 C   0  0  0  0  0  0  0  0  0  0  0  0
  148.2990  150.6680  132.1160 N   0  0  0  0  0  0  0  0  0  0  0  0
  149.6170  150.9840  132.2970 C   0  0  0  0  0  0  0  0  0  0  0  0
  149.9870  152.3060  132.6430 C   0  0  0  0  0  0  0  0  0  0  0  0
  149.0290  153.2690  132.7950 N   0  0  0  0  0  0  0  0  0  0  0  0
  147.7330  152.9150  132.6160 C   0  0  0  0  0  0  0  0  0  0  0  0
  147.2070  160.0658  132.7255 H   0  0  0  0  0  0  0  0  0  0  0  0
  147.0572  161.0116  131.2057 H   0  0  0  0  0  0  0  0  0  0  0  0
  146.7051  159.2502  131.2057 H   0  0  0  0  0  0  0  0  0  0  0  0
  149.7953  161.4977  132.1263 H   0  0  0  0  0  0  0  0  0  0  0  0
  150.4946  160.9084  130.5802 H   0  0  0  0  0  0  0  0  0  0  0  0
  148.9280  161.7874  130.5802 H   0  0  0  0  0  0  0  0  0  0  0  0
  148.9585  157.8481  130.2586 H   0  0  0  0  0  0  0  0  0  0  0  0
  147.9621  159.0850  129.4195 H   0  0  0  0  0  0  0  0  0  0  0  0
  149.7531  159.2233  129.4195 H   0  0  0  0  0  0  0  0  0  0  0  0
  148.3230  156.7120  131.6450 H   0  0  0  0  0  0  0  0  0  0  0  0
  148.5339  154.9725  133.4790 H   0  0  0  0  0  0  0  0  0  0  0  0
  147.5847  156.0953  134.5222 H   0  0  0  0  0  0  0  0  0  0  0  0
  146.2463  155.6690  132.0032 H   0  0  0  0  0  0  0  0  0  0  0  0
  145.6296  153.6506  135.0740 H   0  0  0  0  0  0  0  0  0  0  0  0
  143.7027  154.0570  136.6332 H   0  0  0  0  0  0  0  0  0  0  0  0
  141.5360  155.8467  137.1590 H   0  0  0  0  0  0  0  0  0  0  0  0
  141.2200  160.2120  135.3200 H   0  0  0  0  0  0  0  0  0  0  0  0
  138.9354  159.6095  130.6352 H   0  0  0  0  0  0  0  0  0  0  0  0
  140.6912  159.5535  130.2601 H   0  0  0  0  0  0  0  0  0  0  0  0
  139.7240  158.0398  130.2601 H   0  0  0  0  0  0  0  0  0  0  0  0
  139.9063  159.9461  134.0684 H   0  0  0  0  0  0  0  0  0  0  0  0
  140.6072  160.8891  132.7096 H   0  0  0  0  0  0  0  0  0  0  0  0
  138.8586  160.4781  132.7096 H   0  0  0  0  0  0  0  0  0  0  0  0
  139.3431  157.7403  133.9273 H   0  0  0  0  0  0  0  0  0  0  0  0
  138.2659  157.8116  132.4916 H   0  0  0  0  0  0  0  0  0  0  0  0
  139.6913  156.7185  132.4916 H   0  0  0  0  0  0  0  0  0  0  0  0
  144.5711  157.2405  132.8339 H   0  0  0  0  0  0  0  0  0  0  0  0
  144.4855  153.0385  132.3293 H   0  0  0  0  0  0  0  0  0  0  0  0
  145.5110  150.6800  131.8620 H   0  0  0  0  0  0  0  0  0  0  0  0
  150.3898  150.2110  132.1738 H   0  0  0  0  0  0  0  0  0  0  0  0
  151.0475  152.5586  132.7898 H   0  0  0  0  0  0  0  0  0  0  0  0
  1  2  1  0
  2  3  1  0
  2  4  1  0
  2  5  1  0
  5  6  1  0
  6  7  2  0
  6  8  1  0
  8  9  1  0
  9 10  1  0
 10 11  1  0
 11 12  2  0
 12 13  1  0
 13 14  2  0
 14 15  1  0
 15 16  2  0
 16 17  1  0
 17 18  1  0
 17 19  2  0
 16 20  1  0
 20 21  1  0
 21 22  2  0
 21 23  1  0
 23 24  1  0
 24 25  1  0
 24 26  1  0
 24 27  1  0
 20 28  1  0
 28 29  2  0
 10 30  1  0
 30 31  2  0
 31 32  1  0
 32 33  1  0
 33 34  2  0
 34 35  1  0
 35 36  2  0
 36 37  1  0
 37 38  2  0
 29 11  1  0
 38 30  1  0
 28 14  1  0
 38 33  1  0
  1 39  1  0
  1 40  1  0
  1 41  1  0
  3 42  1  0
  3 43  1  0
  3 44  1  0
  4 45  1  0
  4 46  1  0
  4 47  1  0
  8 48  1  0
  9 49  1  0
  9 50  1  0
 10 51  1  6
 12 52  1  0
 13 53  1  0
 15 54  1  0
 18 55  1  0
 25 56  1  0
 25 57  1  0
 25 58  1  0
 26 59  1  0
 26 60  1  0
 26 61  1  0
 27 62  1  0
 27 63  1  0
 27 64  1  0
 29 65  1  0
 31 66  1  0
 32 67  1  0
 35 68  1  0
 36 69  1  0
M  CHG  1  18  -1
M  END
>  <UniqueID>  (38) 
38

>  <SMILES>  (38) 
CC(C)(C)OC(=O)NC[C@H](c1ccc2cc(C([NH-])=O)n(C(=O)OC(C)(C)C)c2c1)c1c[nH]c2nccnc12

>  <Energy>  (38) 
134.4537579350855

>  <Genealogy>  (38) 
CC(C)(C)OC(=O)NCC(c1ccc2cc(C([NH-])=O)n(C(=O)OC(C)(C)C)c2c1)c1c[nH]c2nccnc12 (protonated)
CC(C)(C)OC(=O)NC[C@H](c1ccc2cc(C([NH-])=O)n(C(=O)OC(C)(C)C)c2c1)c1c[nH]c2nccnc12 (chirality)
CC(C)(C)OC(=O)NC[C@H](c1ccc2cc(C([NH-])=O)n(C(=O)OC(C)(C)C)c2c1)c1c[nH]c2nccnc12 (3D coordinates assigned)
CC(C)(C)OC(=O)NC[C@H](c1ccc2cc(C([NH-])=O)n(C(=O)OC(C)(C)C)c2c1)c1c[nH]c2nccnc12 (optimized conformer: 134.4537579350855 kcal/mol)

>  <smiles>  (38) 
CC(C)(C)OC(=O)NCC(c1ccc2cc(C(N)=O)n(C(=O)OC(C)(C)C)c2c1)c1c[nH]c2nccnc12

>  <score_type>  (38) 
oracle

>  <origin>  (38) 
adg

>  <m_score__min__energy>  (38) 
-10.43

>  <m_primary>  (38) 
energy

$$$$
38:0
     RDKit          3D

 52 55  0  0  0  0  0  0  0  0999 V2000
  138.8650  160.0350  131.5480 C   0  0  0  0  0  0  0  0  0  0  0  0
  140.2240  159.3620  131.4170 C   0  0  0  0  0  0  0  0  0  0  0  0
  140.7090  159.0130  132.7090 O   0  0  0  0  0  0  0  0  0  0  0  0
  140.1650  157.9700  133.4630 C   0  0  0  0  0  0  0  0  0  0  0  0
  139.4450  157.0950  132.9080 O   0  0  0  0  0  0  0  0  0  0  0  0
  140.4180  157.9310  134.9140 C   0  0  0  0  0  0  0  0  0  0  0  0
  139.4590  157.4750  135.7680 N   0  0  0  0  0  0  0  0  0  0  0  0
  139.8630  157.4760  137.0570 C   0  0  0  0  0  0  0  0  0  0  0  0
  141.4340  158.0510  137.2010 S   0  0  0  0  0  0  0  0  0  0  0  0
  141.6150  158.2980  135.5450 C   0  0  0  0  0  0  0  0  0  0  0  0
  142.7490  158.9240  134.9240 N   0  0  0  0  0  0  0  0  0  0  0  0
  143.7120  158.2100  134.1380 C   0  0  0  0  0  0  0  0  0  0  0  0
  143.4540  157.0530  133.7090 O   0  0  0  0  0  0  0  0  0  0  0  0
  144.9540  158.8380  133.7810 N   0  0  0  0  0  0  0  0  0  0  0  0
  145.1820  160.1570  133.5290 C   0  0  0  0  0  0  0  0  0  0  0  0
  144.2060  161.2520  133.7060 C   0  0  0  0  0  0  0  0  0  0  0  0
  142.8330  161.0390  133.3830 N   0  0  0  0  0  0  0  0  0  0  0  0
  144.5750  162.3850  134.1110 O   0  0  0  0  0  0  0  0  0  0  0  0
  146.5090  160.3590  133.1530 C   0  0  0  0  0  0  0  0  0  0  0  0
  147.0920  159.1130  133.1910 C   0  0  0  0  0  0  0  0  0  0  0  0
  148.3960  158.7240  132.9010 C   0  0  0  0  0  0  0  0  0  0  0  0
  148.7150  157.3600  133.0020 C   0  0  0  0  0  0  0  0  0  0  0  0
  147.7310  156.4060  133.3800 C   0  0  0  0  0  0  0  0  0  0  0  0
  148.0680  155.0030  133.4700 N   0  0  0  0  0  0  0  0  0  0  0  0
  147.4970  154.1600  134.5280 C   0  0  0  0  0  0  0  0  0  0  0  0
  148.4730  153.0310  134.8840 C   0  0  0  0  0  0  0  0  0  0  0  0
  148.8990  152.2260  133.7200 N   0  0  0  0  0  0  0  0  0  0  0  0
  148.7080  152.8740  132.4120 C   0  0  0  0  0  0  0  0  0  0  0  0
  148.9500  154.3850  132.4710 C   0  0  0  0  0  0  0  0  0  0  0  0
  146.4170  156.8470  133.6690 C   0  0  0  0  0  0  0  0  0  0  0  0
  146.1340  158.2130  133.5740 C   0  0  0  0  0  0  0  0  0  0  0  0
  138.6176  160.1575  132.6128 H   0  0  0  0  0  0  0  0  0  0  0  0
  138.8962  161.0218  131.0629 H   0  0  0  0  0  0  0  0  0  0  0  0
  138.0991  159.4121  131.0629 H   0  0  0  0  0  0  0  0  0  0  0  0
  140.1253  158.4533  130.8050 H   0  0  0  0  0  0  0  0  0  0  0  0
  140.9304  160.0544  130.9357 H   0  0  0  0  0  0  0  0  0  0  0  0
  139.2432  157.1433  137.9027 H   0  0  0  0  0  0  0  0  0  0  0  0
  142.9140  159.9430  135.0800 H   0  0  0  0  0  0  0  0  0  0  0  0
  142.5420  160.2410  132.7750 H   0  0  0  0  0  0  0  0  0  0  0  0
  146.9882  161.3117  132.8833 H   0  0  0  0  0  0  0  0  0  0  0  0
  149.1543  159.4625  132.6016 H   0  0  0  0  0  0  0  0  0  0  0  0
  149.7402  157.0252  132.7857 H   0  0  0  0  0  0  0  0  0  0  0  0
  147.3089  154.7740  135.4211 H   0  0  0  0  0  0  0  0  0  0  0  0
  146.5534  153.7220  134.1706 H   0  0  0  0  0  0  0  0  0  0  0  0
  149.3672  153.4769  135.3440 H   0  0  0  0  0  0  0  0  0  0  0  0
  147.9437  152.3519  135.5686 H   0  0  0  0  0  0  0  0  0  0  0  0
  148.3610  151.3280  133.7170 H   0  0  0  0  0  0  0  0  0  0  0  0
  149.4114  152.4310  131.6917 H   0  0  0  0  0  0  0  0  0  0  0  0
  147.6640  152.7121  132.1056 H   0  0  0  0  0  0  0  0  0  0  0  0
  149.9982  154.5743  132.7455 H   0  0  0  0  0  0  0  0  0  0  0  0
  148.7346  154.8211  131.4843 H   0  0  0  0  0  0  0  0  0  0  0  0
  145.6356  156.1304  133.9620 H   0  0  0  0  0  0  0  0  0  0  0  0
  1  2  1  0
  2  3  1  0
  3  4  1  0
  4  5  2  0
  4  6  1  0
  6  7  1  0
  7  8  2  0
  8  9  1  0
  9 10  1  0
 10 11  1  0
 11 12  1  0
 12 13  2  0
 12 14  1  0
 14 15  1  0
 15 16  1  0
 16 17  1  0
 16 18  2  0
 15 19  2  0
 19 20  1  0
 20 21  2  0
 21 22  1  0
 22 23  2  0
 23 24  1  0
 24 25  1  0
 25 26  1  0
 26 27  1  0
 27 28  1  0
 28 29  1  0
 23 30  1  0
 30 31  2  0
 10  6  2  0
 31 14  1  0
 31 20  1  0
 29 24  1  0
  1 32  1  0
  1 33  1  0
  1 34  1  0
  2 35  1  0
  2 36  1  0
  8 37  1  0
 11 38  1  0
 17 39  1  0
 19 40  1  0
 21 41  1  0
 22 42  1  0
 25 43  1  0
 25 44  1  0
 26 45  1  0
 26 46  1  0
 27 47  1  0
 28 48  1  0
 28 49  1  0
 29 50  1  0
 29 51  1  0
 30 52  1  0
M  CHG  1  17  -1
M  END
>  <UniqueID>  (39) 
39

>  <SMILES>  (39) 
CCOC(=O)c1ncsc1NC(=O)n1c(C([NH-])=O)cc2ccc(N3CCNCC3)cc21

>  <Energy>  (39) 
129.81181528429093

>  <Genealogy>  (39) 
CCOC(=O)c1ncsc1NC(=O)n1c(C([NH-])=O)cc2ccc(N3CCNCC3)cc21 (protonated)
CCOC(=O)c1ncsc1NC(=O)n1c(C([NH-])=O)cc2ccc(N3CCNCC3)cc21 (3D coordinates assigned)
CCOC(=O)c1ncsc1NC(=O)n1c(C([NH-])=O)cc2ccc(N3CCNCC3)cc21 (nonaromatic ring conformer: 129.81181528429093 kcal/mol)

>  <smiles>  (39) 
CCOC(=O)c1ncsc1NC(=O)n1c(C(N)=O)cc2ccc(N3CCNCC3)cc21

>  <score_type>  (39) 
oracle

>  <origin>  (39) 
adg

>  <m_score__min__energy>  (39) 
-9.2599999999999998

>  <m_primary>  (39) 
energy

$$$$
39:0
     RDKit          3D

 40 41  0  0  0  0  0  0  0  0999 V2000
  149.6470  159.5680  132.0710 C   0  0  0  0  0  0  0  0  0  0  0  0
  148.6780  160.0860  130.9900 C   0  0  0  0  0  0  0  0  0  0  0  0
  148.9640  161.5730  130.7380 C   0  0  0  0  0  0  0  0  0  0  0  0
  148.8680  159.3100  129.6730 C   0  0  0  0  0  0  0  0  0  0  0  0
  147.3190  159.9880  131.4420 O   0  0  0  0  0  0  0  0  0  0  0  0
  146.8870  159.9270  132.7760 C   0  0  0  0  0  0  0  0  0  0  0  0
  147.2150  160.8210  133.6030 O   0  0  0  0  0  0  0  0  0  0  0  0
  146.0710  158.8250  133.2040 N   0  0  0  0  0  0  0  0  0  0  0  0
  144.7650  158.8660  133.5950 C   0  0  0  0  0  0  0  0  0  0  0  0
  143.9720  160.0960  133.8100 C   0  0  0  0  0  0  0  0  0  0  0  0
  144.4570  161.3640  133.3660 N   0  0  0  0  0  0  0  0  0  0  0  0
  142.8420  160.0310  134.3620 O   0  0  0  0  0  0  0  0  0  0  0  0
  144.2940  157.5810  133.8580 C   0  0  0  0  0  0  0  0  0  0  0  0
  145.3600  156.7450  133.6170 C   0  0  0  0  0  0  0  0  0  0  0  0
  145.4490  155.3590  133.7150 C   0  0  0  0  0  0  0  0  0  0  0  0
  146.6710  154.7530  133.3800 C   0  0  0  0  0  0  0  0  0  0  0  0
  147.7680  155.5340  132.9390 C   0  0  0  0  0  0  0  0  0  0  0  0
  149.0770  154.8760  132.6000 C   0  0  0  0  0  0  0  0  0  0  0  0
  148.8740  153.4170  132.3270 C   0  0  0  0  0  0  0  0  0  0  0  0
  149.6440  152.5890  132.7890 O   0  0  0  0  0  0  0  0  0  0  0  0
  147.6430  156.9400  132.8630 C   0  0  0  0  0  0  0  0  0  0  0  0
  146.4200  157.5190  133.2210 C   0  0  0  0  0  0  0  0  0  0  0  0
  149.2361  159.7877  133.0674 H   0  0  0  0  0  0  0  0  0  0  0  0
  149.7748  158.4813  131.9585 H   0  0  0  0  0  0  0  0  0  0  0  0
  150.6216  160.0654  131.9585 H   0  0  0  0  0  0  0  0  0  0  0  0
  149.0645  162.0954  131.7008 H   0  0  0  0  0  0  0  0  0  0  0  0
  149.8982  161.6749  130.1663 H   0  0  0  0  0  0  0  0  0  0  0  0
  148.1343  162.0142  130.1663 H   0  0  0  0  0  0  0  0  0  0  0  0
  149.1241  158.2640  129.8974 H   0  0  0  0  0  0  0  0  0  0  0  0
  147.9354  159.3423  129.0906 H   0  0  0  0  0  0  0  0  0  0  0  0
  149.6802  159.7695  129.0906 H   0  0  0  0  0  0  0  0  0  0  0  0
  145.4100  161.4650  132.9530 H   0  0  0  0  0  0  0  0  0  0  0  0
  143.8730  162.2200  133.4890 H   0  0  0  0  0  0  0  0  0  0  0  0
  143.2843  157.2956  134.1882 H   0  0  0  0  0  0  0  0  0  0  0  0
  144.5891  154.7573  134.0445 H   0  0  0  0  0  0  0  0  0  0  0  0
  146.7775  153.6612  133.4608 H   0  0  0  0  0  0  0  0  0  0  0  0
  149.5030  155.3559  131.7066 H   0  0  0  0  0  0  0  0  0  0  0  0
  149.7630  154.9869  133.4527 H   0  0  0  0  0  0  0  0  0  0  0  0
  148.0265  153.0895  131.7069 H   0  0  0  0  0  0  0  0  0  0  0  0
  148.4860  157.5636  132.5308 H   0  0  0  0  0  0  0  0  0  0  0  0
  1  2  1  0
  2  3  1  0
  2  4  1  0
  2  5  1  0
  5  6  1  0
  6  7  2  0
  6  8  1  0
  8  9  1  0
  9 10  1  0
 10 11  1  0
 10 12  2  0
  9 13  2  0
 13 14  1  0
 14 15  2  0
 15 16  1  0
 16 17  2  0
 17 18  1  0
 18 19  1  0
 19 20  2  0
 17 21  1  0
 21 22  2  0
 22  8  1  0
 22 14  1  0
  1 23  1  0
  1 24  1  0
  1 25  1  0
  3 26  1  0
  3 27  1  0
  3 28  1  0
  4 29  1  0
  4 30  1  0
  4 31  1  0
 11 32  1  0
 11 33  1  0
 13 34  1  0
 15 35  1  0
 16 36  1  0
 18 37  1  0
 18 38  1  0
 19 39  1  0
 21 40  1  0
M  END
>  <UniqueID>  (40) 
40

>  <SMILES>  (40) 
CC(C)(C)OC(=O)n1c(C(N)=O)cc2ccc(CC=O)cc21

>  <Energy>  (40) 
71.45362041951978

>  <Genealogy>  (40) 
CC(C)(C)OC(=O)n1c(C(N)=O)cc2ccc(CC=O)cc21 (3D coordinates assigned)
CC(C)(C)OC(=O)n1c(C(N)=O)cc2ccc(CC=O)cc21 (optimized conformer: 71.45362041951978 kcal/mol)

>  <smiles>  (40) 
CC(C)(C)OC(=O)n1c(C(N)=O)cc2ccc(CC=O)cc21

>  <score_type>  (40) 
oracle

>  <origin>  (40) 
adg

>  <m_score__min__energy>  (40) 
-7.1600000000000001

>  <m_primary>  (40) 
energy

$$$$
40:0
     RDKit          3D

 41 43  0  0  0  0  0  0  0  0999 V2000
  138.3530  159.4410  130.7210 C   0  0  0  0  0  0  0  0  0  0  0  0
  138.4280  158.3450  131.6250 O   0  0  0  0  0  0  0  0  0  0  0  0
  139.2220  158.3250  132.7820 C   0  0  0  0  0  0  0  0  0  0  0  0
  138.7330  157.8850  134.0240 C   0  0  0  0  0  0  0  0  0  0  0  0
  139.5610  157.8860  135.1480 C   0  0  0  0  0  0  0  0  0  0  0  0
  140.8950  158.3260  135.0550 C   0  0  0  0  0  0  0  0  0  0  0  0
  141.7370  158.3680  136.1790 O   0  0  0  0  0  0  0  0  0  0  0  0
  141.3310  158.7770  137.4810 C   0  0  0  0  0  0  0  0  0  0  0  0
  141.3940  158.7550  133.8070 C   0  0  0  0  0  0  0  0  0  0  0  0
  142.7980  159.2100  133.6590 C   0  0  0  0  0  0  0  0  0  0  0  0
  143.1200  160.5880  133.7710 C   0  0  0  0  0  0  0  0  0  0  0  0
  144.4500  161.0250  133.6540 C   0  0  0  0  0  0  0  0  0  0  0  0
  145.4320  160.0680  133.4200 C   0  0  0  0  0  0  0  0  0  0  0  0
  146.7960  160.2110  133.2990 C   0  0  0  0  0  0  0  0  0  0  0  0
  147.2870  158.9220  133.0960 C   0  0  0  0  0  0  0  0  0  0  0  0
  148.7140  158.6200  132.8540 C   0  0  0  0  0  0  0  0  0  0  0  0
  149.1070  157.6740  131.8630 N   0  0  0  0  0  0  0  0  0  0  0  0
  149.6000  159.2340  133.5050 O   0  0  0  0  0  0  0  0  0  0  0  0
  146.2650  158.0190  133.0960 N   0  0  0  0  0  0  0  0  0  0  0  0
  146.3550  156.5890  132.9940 C   0  0  0  0  0  0  0  0  0  0  0  0
  146.9640  155.9830  131.8550 N   0  0  0  0  0  0  0  0  0  0  0  0
  145.8890  155.8620  133.9110 O   0  0  0  0  0  0  0  0  0  0  0  0
  145.1380  158.7350  133.2960 C   0  0  0  0  0  0  0  0  0  0  0  0
  143.8270  158.2680  133.4300 C   0  0  0  0  0  0  0  0  0  0  0  0
  140.5470  158.7560  132.6850 C   0  0  0  0  0  0  0  0  0  0  0  0
  138.2887  160.3809  131.2888 H   0  0  0  0  0  0  0  0  0  0  0  0
  139.2522  159.4561  130.0876 H   0  0  0  0  0  0  0  0  0  0  0  0
  137.4601  159.3334  130.0876 H   0  0  0  0  0  0  0  0  0  0  0  0
  137.6927  157.5381  134.1109 H   0  0  0  0  0  0  0  0  0  0  0  0
  139.1675  157.5398  136.1151 H   0  0  0  0  0  0  0  0  0  0  0  0
  141.8946  158.2093  138.2361 H   0  0  0  0  0  0  0  0  0  0  0  0
  141.5298  159.8516  137.6064 H   0  0  0  0  0  0  0  0  0  0  0  0
  140.2550  158.5861  137.6064 H   0  0  0  0  0  0  0  0  0  0  0  0
  142.3199  161.3211  133.9512 H   0  0  0  0  0  0  0  0  0  0  0  0
  144.7068  162.0907  133.7446 H   0  0  0  0  0  0  0  0  0  0  0  0
  147.3756  161.1445  133.3514 H   0  0  0  0  0  0  0  0  0  0  0  0
  148.4900  157.4630  131.0480 H   0  0  0  0  0  0  0  0  0  0  0  0
  147.4120  156.5720  131.1170 H   0  0  0  0  0  0  0  0  0  0  0  0
  147.0020  154.9440  131.7670 H   0  0  0  0  0  0  0  0  0  0  0  0
  143.6016  157.1937  133.3589 H   0  0  0  0  0  0  0  0  0  0  0  0
  140.9340  159.1018  131.7151 H   0  0  0  0  0  0  0  0  0  0  0  0
  1  2  1  0
  2  3  1  0
  3  4  2  0
  4  5  1  0
  5  6  2  0
  6  7  1  0
  7  8  1  0
  6  9  1  0
  9 10  1  0
 10 11  2  0
 11 12  1  0
 12 13  2  0
 13 14  1  0
 14 15  2  0
 15 16  1  0
 16 17  1  0
 16 18  2  0
 15 19  1  0
 19 20  1  0
 20 21  1  0
 20 22  2  0
 19 23  1  0
 23 24  2  0
  9 25  2  0
 25  3  1  0
 24 10  1  0
 23 13  1  0
  1 26  1  0
  1 27  1  0
  1 28  1  0
  4 29  1  0
  5 30  1  0
  8 31  1  0
  8 32  1  0
  8 33  1  0
 11 34  1  0
 12 35  1  0
 14 36  1  0
 17 37  1  0
 21 38  1  0
 21 39  1  0
 24 40  1  0
 25 41  1  0
M  CHG  1  17  -1
M  END
>  <UniqueID>  (41) 
41

>  <SMILES>  (41) 
COc1ccc(OC)c(-c2ccc3cc(C([NH-])=O)n(C(N)=O)c3c2)c1

>  <Energy>  (41) 
87.24264176861034

>  <Genealogy>  (41) 
COc1ccc(OC)c(-c2ccc3cc(C([NH-])=O)n(C(N)=O)c3c2)c1 (protonated)
COc1ccc(OC)c(-c2ccc3cc(C([NH-])=O)n(C(N)=O)c3c2)c1 (3D coordinates assigned)
COc1ccc(OC)c(-c2ccc3cc(C([NH-])=O)n(C(N)=O)c3c2)c1 (optimized conformer: 87.24264176861034 kcal/mol)

>  <smiles>  (41) 
COc1ccc(OC)c(-c2ccc3cc(C(N)=O)n(C(N)=O)c3c2)c1

>  <score_type>  (41) 
oracle

>  <origin>  (41) 
adg

>  <m_score__min__energy>  (41) 
-7.8899999999999997

>  <m_primary>  (41) 
energy

$$$$
41:0
     RDKit          3D

 52 54  0  0  0  0  0  0  0  0999 V2000
  147.3350  153.1250  133.0130 C   0  0  0  0  0  0  0  0  0  0  0  0
  145.9190  152.8000  133.2810 N   0  0  0  0  0  0  0  0  0  0  0  0
  145.4660  153.3710  134.5810 C   0  0  0  0  0  0  0  0  0  0  0  0
  144.6320  154.6600  134.4410 C   0  0  0  0  0  0  0  0  0  0  0  0
  145.0370  155.4030  133.2450 N   0  0  0  0  0  0  0  0  0  0  0  0
  145.4760  156.7720  133.3280 C   0  0  0  0  0  0  0  0  0  0  0  0
  146.8430  157.0970  133.1310 C   0  0  0  0  0  0  0  0  0  0  0  0
  147.2840  158.4290  133.2120 C   0  0  0  0  0  0  0  0  0  0  0  0
  146.3410  159.4110  133.5050 C   0  0  0  0  0  0  0  0  0  0  0  0
  146.4910  160.7740  133.6170 C   0  0  0  0  0  0  0  0  0  0  0  0
  145.2200  161.2600  133.9170 C   0  0  0  0  0  0  0  0  0  0  0  0
  144.9400  162.6830  134.2030 C   0  0  0  0  0  0  0  0  0  0  0  0
  143.9780  163.4080  133.4420 N   0  0  0  0  0  0  0  0  0  0  0  0
  145.5240  163.2540  135.1630 O   0  0  0  0  0  0  0  0  0  0  0  0
  144.3200  160.2390  133.9810 N   0  0  0  0  0  0  0  0  0  0  0  0
  142.8990  160.3330  134.1640 C   0  0  0  0  0  0  0  0  0  0  0  0
  142.2090  161.0120  133.3570 O   0  0  0  0  0  0  0  0  0  0  0  0
  142.3000  159.6860  135.2560 O   0  0  0  0  0  0  0  0  0  0  0  0
  141.3140  158.6450  135.1910 C   0  0  0  0  0  0  0  0  0  0  0  0
  140.2500  158.9640  136.2540 C   0  0  0  0  0  0  0  0  0  0  0  0
  141.9450  157.2770  135.5150 C   0  0  0  0  0  0  0  0  0  0  0  0
  140.6420  158.6200  133.8050 C   0  0  0  0  0  0  0  0  0  0  0  0
  145.0220  159.1130  133.7260 C   0  0  0  0  0  0  0  0  0  0  0  0
  144.5520  157.7990  133.6320 C   0  0  0  0  0  0  0  0  0  0  0  0
  145.0080  154.7160  131.9510 C   0  0  0  0  0  0  0  0  0  0  0  0
  145.0490  153.1890  132.1450 C   0  0  0  0  0  0  0  0  0  0  0  0
  147.8698  153.2477  133.9664 H   0  0  0  0  0  0  0  0  0  0  0  0
  147.7957  152.3092  132.4365 H   0  0  0  0  0  0  0  0  0  0  0  0
  147.3939  154.0600  132.4365 H   0  0  0  0  0  0  0  0  0  0  0  0
  145.8660  151.7560  133.3570 H   0  0  0  0  0  0  0  0  0  0  0  0
  144.8533  152.6164  135.0959 H   0  0  0  0  0  0  0  0  0  0  0  0
  146.3718  153.6368  135.1457 H   0  0  0  0  0  0  0  0  0  0  0  0
  143.5673  154.3958  134.3603 H   0  0  0  0  0  0  0  0  0  0  0  0
  144.7989  155.2909  135.3265 H   0  0  0  0  0  0  0  0  0  0  0  0
  147.5659  156.2973  132.9124 H   0  0  0  0  0  0  0  0  0  0  0  0
  148.3407  158.6877  133.0491 H   0  0  0  0  0  0  0  0  0  0  0  0
  147.4166  161.3558  133.4956 H   0  0  0  0  0  0  0  0  0  0  0  0
  143.1770  162.9190  132.9840 H   0  0  0  0  0  0  0  0  0  0  0  0
  140.6831  158.8342  137.2568 H   0  0  0  0  0  0  0  0  0  0  0  0
  139.9108  160.0034  136.1329 H   0  0  0  0  0  0  0  0  0  0  0  0
  139.3949  158.2827  136.1329 H   0  0  0  0  0  0  0  0  0  0  0  0
  142.0038  157.1495  136.6060 H   0  0  0  0  0  0  0  0  0  0  0  0
  141.3253  156.4763  135.0851 H   0  0  0  0  0  0  0  0  0  0  0  0
  142.9564  157.2287  135.0851 H   0  0  0  0  0  0  0  0  0  0  0  0
  139.5496  158.5793  133.9278 H   0  0  0  0  0  0  0  0  0  0  0  0
  140.9149  159.5289  133.2487 H   0  0  0  0  0  0  0  0  0  0  0  0
  140.9817  157.7339  133.2487 H   0  0  0  0  0  0  0  0  0  0  0  0
  143.4880  157.5694  133.7909 H   0  0  0  0  0  0  0  0  0  0  0  0
  144.0847  154.9878  131.4184 H   0  0  0  0  0  0  0  0  0  0  0  0
  145.8889  155.0224  131.3679 H   0  0  0  0  0  0  0  0  0  0  0  0
  144.0283  152.8274  132.3385 H   0  0  0  0  0  0  0  0  0  0  0  0
  145.4616  152.7396  131.2297 H   0  0  0  0  0  0  0  0  0  0  0  0
  1  2  1  0
  2  3  1  0
  3  4  1  0
  4  5  1  0
  5  6  1  0
  6  7  2  0
  7  8  1  0
  8  9  2  0
  9 10  1  0
 10 11  2  0
 11 12  1  0
 12 13  1  0
 12 14  2  0
 11 15  1  0
 15 16  1  0
 16 17  2  0
 16 18  1  0
 18 19  1  0
 19 20  1  0
 19 21  1  0
 19 22  1  0
 15 23  1  0
 23 24  2  0
  5 25  1  0
 25 26  1  0
 26  2  1  0
 24  6  1  0
 23  9  1  0
  1 27  1  0
  1 28  1  0
  1 29  1  0
  2 30  1  0
  3 31  1  0
  3 32  1  0
  4 33  1  0
  4 34  1  0
  7 35  1  0
  8 36  1  0
 10 37  1  0
 13 38  1  0
 20 39  1  0
 20 40  1  0
 20 41  1  0
 21 42  1  0
 21 43  1  0
 21 44  1  0
 22 45  1  0
 22 46  1  0
 22 47  1  0
 24 48  1  0
 25 49  1  0
 25 50  1  0
 26 51  1  0
 26 52  1  0
M  CHG  2   2   1  13  -1
M  END
>  <UniqueID>  (42) 
42

>  <SMILES>  (42) 
C[NH+]1CCN(c2ccc3cc(C([NH-])=O)n(C(=O)OC(C)(C)C)c3c2)CC1

>  <Energy>  (42) 
98.13762538382937

>  <Genealogy>  (42) 
C[NH+]1CCN(c2ccc3cc(C([NH-])=O)n(C(=O)OC(C)(C)C)c3c2)CC1 (protonated)
C[NH+]1CCN(c2ccc3cc(C([NH-])=O)n(C(=O)OC(C)(C)C)c3c2)CC1 (3D coordinates assigned)
C[NH+]1CCN(c2ccc3cc(C([NH-])=O)n(C(=O)OC(C)(C)C)c3c2)CC1 (nonaromatic ring conformer: 98.13762538382937 kcal/mol)

>  <smiles>  (42) 
CN1CCN(c2ccc3cc(C(N)=O)n(C(=O)OC(C)(C)C)c3c2)CC1

>  <score_type>  (42) 
oracle

>  <origin>  (42) 
adg

>  <m_score__min__energy>  (42) 
-7.1299999999999999

>  <m_primary>  (42) 
energy

$$$$
42:0
     RDKit          3D

 50 54  0  0  0  0  0  0  0  0999 V2000
  143.0580  160.5820  133.3530 N   0  0  0  0  0  0  0  0  0  0  0  0
  144.3940  160.6470  133.8520 C   0  0  0  0  0  0  0  0  0  0  0  0
  144.7250  161.6040  134.6010 O   0  0  0  0  0  0  0  0  0  0  0  0
  145.3910  159.6180  133.4870 C   0  0  0  0  0  0  0  0  0  0  0  0
  146.7500  159.8660  133.3010 C   0  0  0  0  0  0  0  0  0  0  0  0
  147.3150  158.6310  133.0640 C   0  0  0  0  0  0  0  0  0  0  0  0
  148.6390  158.2830  132.8080 C   0  0  0  0  0  0  0  0  0  0  0  0
  148.9300  156.9260  132.5790 C   0  0  0  0  0  0  0  0  0  0  0  0
  147.9000  155.9540  132.6070 C   0  0  0  0  0  0  0  0  0  0  0  0
  148.2080  154.5800  132.3640 N   0  0  0  0  0  0  0  0  0  0  0  0
  146.5700  156.3420  132.8730 C   0  0  0  0  0  0  0  0  0  0  0  0
  146.3140  157.6960  133.1080 C   0  0  0  0  0  0  0  0  0  0  0  0
  145.1290  158.2880  133.3620 N   0  0  0  0  0  0  0  0  0  0  0  0
  143.8490  157.6370  133.4020 C   0  0  0  0  0  0  0  0  0  0  0  0
  142.9970  157.8920  132.5090 O   0  0  0  0  0  0  0  0  0  0  0  0
  143.5180  156.7120  134.5060 C   0  0  0  0  0  0  0  0  0  0  0  0
  144.0380  155.4090  134.5470 C   0  0  0  0  0  0  0  0  0  0  0  0
  143.6730  154.5580  135.5920 C   0  0  0  0  0  0  0  0  0  0  0  0
  142.7980  155.0060  136.5820 C   0  0  0  0  0  0  0  0  0  0  0  0
  142.3100  156.3140  136.5200 C   0  0  0  0  0  0  0  0  0  0  0  0
  141.1980  156.9300  137.7840 S   0  0  0  0  0  0  0  0  0  0  0  0
  139.7910  157.1900  136.6490 C   0  0  0  0  0  0  0  0  0  0  0  0
  140.0940  158.2870  135.6730 C   0  0  0  0  0  0  0  0  0  0  0  0
  140.8540  159.4260  135.9140 C   0  0  0  0  0  0  0  0  0  0  0  0
  140.9870  160.1260  134.8020 O   0  0  0  0  0  0  0  0  0  0  0  0
  140.3530  159.4870  133.8480 C   0  0  0  0  0  0  0  0  0  0  0  0
  140.2460  159.8480  132.5070 C   0  0  0  0  0  0  0  0  0  0  0  0
  139.5330  158.9910  131.6500 C   0  0  0  0  0  0  0  0  0  0  0  0
  138.9480  157.8050  132.1470 C   0  0  0  0  0  0  0  0  0  0  0  0
  139.0680  157.4690  133.5080 C   0  0  0  0  0  0  0  0  0  0  0  0
  139.7800  158.3400  134.3320 C   0  0  0  0  0  0  0  0  0  0  0  0
  142.6720  157.1250  135.4900 N   0  0  0  0  0  0  0  0  0  0  0  0
  142.3710  161.3290  133.5960 H   0  0  0  0  0  0  0  0  0  0  0  0
  142.7300  159.7690  132.7860 H   0  0  0  0  0  0  0  0  0  0  0  0
  147.2621  160.8389  133.3359 H   0  0  0  0  0  0  0  0  0  0  0  0
  149.4319  159.0451  132.7856 H   0  0  0  0  0  0  0  0  0  0  0  0
  149.9661  156.6170  132.3765 H   0  0  0  0  0  0  0  0  0  0  0  0
  148.9370  154.0870  132.9280 H   0  0  0  0  0  0  0  0  0  0  0  0
  147.7100  154.0440  131.6200 H   0  0  0  0  0  0  0  0  0  0  0  0
  145.7578  155.6004  132.8949 H   0  0  0  0  0  0  0  0  0  0  0  0
  144.7268  155.0614  133.7630 H   0  0  0  0  0  0  0  0  0  0  0  0
  144.0751  153.5350  135.6347 H   0  0  0  0  0  0  0  0  0  0  0  0
  142.4958  154.3375  137.4017 H   0  0  0  0  0  0  0  0  0  0  0  0
  139.5956  156.2590  136.0967 H   0  0  0  0  0  0  0  0  0  0  0  0
  138.9080  157.4756  137.2395 H   0  0  0  0  0  0  0  0  0  0  0  0
  141.2820  159.7036  136.8885 H   0  0  0  0  0  0  0  0  0  0  0  0
  140.7047  160.7741  132.1303 H   0  0  0  0  0  0  0  0  0  0  0  0
  139.4300  159.2459  130.5849 H   0  0  0  0  0  0  0  0  0  0  0  0
  138.3957  157.1406  131.4662 H   0  0  0  0  0  0  0  0  0  0  0  0
  138.6153  156.5500  133.9086 H   0  0  0  0  0  0  0  0  0  0  0  0
  1  2  1  0
  2  3  2  0
  2  4  1  0
  4  5  2  0
  5  6  1  0
  6  7  2  0
  7  8  1  0
  8  9  2  0
  9 10  1  0
  9 11  1  0
 11 12  2  0
 12 13  1  0
 13 14  1  0
 14 15  2  0
 14 16  1  0
 16 17  2  0
 17 18  1  0
 18 19  2  0
 19 20  1  0
 20 21  1  0
 21 22  1  0
 22 23  1  0
 23 24  2  0
 24 25  1  0
 25 26  1  0
 26 27  2  0
 27 28  1  0
 28 29  2  0
 29 30  1  0
 30 31  2  0
 20 32  2  0
 13  4  1  0
 32 16  1  0
 12  6  1  0
 31 23  1  0
 31 26  1  0
  1 33  1  0
  1 34  1  0
  5 35  1  0
  7 36  1  0
  8 37  1  0
 10 38  1  0
 10 39  1  0
 11 40  1  0
 17 41  1  0
 18 42  1  0
 19 43  1  0
 22 44  1  0
 22 45  1  0
 24 46  1  0
 27 47  1  0
 28 48  1  0
 29 49  1  0
 30 50  1  0
M  END
>  <UniqueID>  (43) 
43

>  <SMILES>  (43) 
NC(=O)c1cc2ccc(N)cc2n1C(=O)c1cccc(SCc2coc3ccccc23)n1

>  <Energy>  (43) 
122.01739345999846

>  <Genealogy>  (43) 
NC(=O)c1cc2ccc(N)cc2n1C(=O)c1cccc(SCc2coc3ccccc23)n1 (3D coordinates assigned)
NC(=O)c1cc2ccc(N)cc2n1C(=O)c1cccc(SCc2coc3ccccc23)n1 (optimized conformer: 122.01739345999846 kcal/mol)

>  <smiles>  (43) 
NC(=O)c1cc2ccc(N)cc2n1C(=O)c1cccc(SCc2coc3ccccc23)n1

>  <score_type>  (43) 
oracle

>  <origin>  (43) 
adg

>  <m_score__min__energy>  (43) 
-9.5800000000000001

>  <m_primary>  (43) 
energy

$$$$
43:0
     RDKit          3D

 35 37  0  0  0  0  0  0  0  0999 V2000
  147.7120  160.4780  132.9890 C   0  0  0  0  0  0  0  0  0  0  0  0
  147.1080  159.0950  133.0070 C   0  0  0  0  0  0  0  0  0  0  0  0
  147.8700  157.9730  132.6120 C   0  0  0  0  0  0  0  0  0  0  0  0
  149.5480  158.1190  132.0950 Cl  0  0  0  0  0  0  0  0  0  0  0  0
  147.2960  156.6970  132.6100 C   0  0  0  0  0  0  0  0  0  0  0  0
  145.9560  156.5110  132.9810 C   0  0  0  0  0  0  0  0  0  0  0  0
  145.3530  155.1530  132.9790 C   0  0  0  0  0  0  0  0  0  0  0  0
  146.1750  154.0030  132.8540 C   0  0  0  0  0  0  0  0  0  0  0  0
  145.6160  152.7150  132.8640 C   0  0  0  0  0  0  0  0  0  0  0  0
  144.2360  152.6030  132.9900 C   0  0  0  0  0  0  0  0  0  0  0  0
  143.4440  151.4800  133.0610 C   0  0  0  0  0  0  0  0  0  0  0  0
  142.1440  151.9560  133.1990 C   0  0  0  0  0  0  0  0  0  0  0  0
  140.9590  151.0770  133.2490 C   0  0  0  0  0  0  0  0  0  0  0  0
  139.7740  151.3890  132.5150 N   0  0  0  0  0  0  0  0  0  0  0  0
  141.0140  150.0010  133.9030 O   0  0  0  0  0  0  0  0  0  0  0  0
  142.1280  153.3180  133.2250 N   0  0  0  0  0  0  0  0  0  0  0  0
  140.9970  154.1710  133.4740 C   0  0  0  0  0  0  0  0  0  0  0  0
  139.9870  154.1280  132.7230 O   0  0  0  0  0  0  0  0  0  0  0  0
  141.0090  155.0570  134.5450 O   0  0  0  0  0  0  0  0  0  0  0  0
  143.4200  153.7010  133.0920 C   0  0  0  0  0  0  0  0  0  0  0  0
  143.9520  154.9960  133.1060 C   0  0  0  0  0  0  0  0  0  0  0  0
  145.1890  157.6280  133.3430 C   0  0  0  0  0  0  0  0  0  0  0  0
  145.7490  158.9110  133.3490 C   0  0  0  0  0  0  0  0  0  0  0  0
  144.6990  160.2620  133.7690 Cl  0  0  0  0  0  0  0  0  0  0  0  0
  147.8637  160.8253  134.0216 H   0  0  0  0  0  0  0  0  0  0  0  0
  148.6793  160.4489  132.4661 H   0  0  0  0  0  0  0  0  0  0  0  0
  147.0332  161.1678  132.4661 H   0  0  0  0  0  0  0  0  0  0  0  0
  147.9031  155.8288  132.3138 H   0  0  0  0  0  0  0  0  0  0  0  0
  147.2634  154.1221  132.7480 H   0  0  0  0  0  0  0  0  0  0  0  0
  146.2510  151.8212  132.7748 H   0  0  0  0  0  0  0  0  0  0  0  0
  143.7693  150.4301  133.0179 H   0  0  0  0  0  0  0  0  0  0  0  0
  138.9340  150.7740  132.5900 H   0  0  0  0  0  0  0  0  0  0  0  0
  139.7540  152.1820  131.8360 H   0  0  0  0  0  0  0  0  0  0  0  0
  143.2956  155.8722  133.2133 H   0  0  0  0  0  0  0  0  0  0  0  0
  144.1344  157.4943  133.6257 H   0  0  0  0  0  0  0  0  0  0  0  0
  1  2  1  0
  2  3  2  0
  3  4  1  0
  3  5  1  0
  5  6  2  0
  6  7  1  0
  7  8  2  0
  8  9  1  0
  9 10  2  0
 10 11  1  0
 11 12  2  0
 12 13  1  0
 13 14  1  0
 13 15  2  0
 12 16  1  0
 16 17  1  0
 17 18  2  0
 17 19  1  0
 16 20  1  0
 20 21  2  0
  6 22  1  0
 22 23  2  0
 23 24  1  0
 23  2  1  0
 21  7  1  0
 20 10  1  0
  1 25  1  0
  1 26  1  0
  1 27  1  0
  5 28  1  0
  8 29  1  0
  9 30  1  0
 11 31  1  0
 14 32  1  0
 14 33  1  0
 21 34  1  0
 22 35  1  0
M  CHG  1  19  -1
M  END
>  <UniqueID>  (44) 
44

>  <SMILES>  (44) 
Cc1c(Cl)cc(-c2ccc3cc(C(N)=O)n(C(=O)[O-])c3c2)cc1Cl

>  <Energy>  (44) 
85.65684472608632

>  <Genealogy>  (44) 
Cc1c(Cl)cc(-c2ccc3cc(C(N)=O)n(C(=O)[O-])c3c2)cc1Cl (protonated)
Cc1c(Cl)cc(-c2ccc3cc(C(N)=O)n(C(=O)[O-])c3c2)cc1Cl (3D coordinates assigned)
Cc1c(Cl)cc(-c2ccc3cc(C(N)=O)n(C(=O)[O-])c3c2)cc1Cl (optimized conformer: 85.65684472608632 kcal/mol)

>  <smiles>  (44) 
Cc1c(Cl)cc(-c2ccc3cc(C(N)=O)n(C(=O)O)c3c2)cc1Cl

>  <score_type>  (44) 
oracle

>  <origin>  (44) 
adg

>  <m_score__min__energy>  (44) 
-8.5500000000000007

>  <m_primary>  (44) 
energy

$$$$
44:0
     RDKit          3D

 23 24  0  0  0  0  0  0  0  0999 V2000
  144.6080  156.6520  134.3650 N   0  0  0  0  0  0  0  0  0  0  0  0
  146.0270  156.6040  134.4840 C   0  0  0  0  0  0  0  0  0  0  0  0
  146.5460  155.8890  135.3830 O   0  0  0  0  0  0  0  0  0  0  0  0
  146.8910  157.4230  133.6100 C   0  0  0  0  0  0  0  0  0  0  0  0
  148.1660  157.0290  133.2100 C   0  0  0  0  0  0  0  0  0  0  0  0
  148.6690  158.0920  132.4960 C   0  0  0  0  0  0  0  0  0  0  0  0
  149.8980  158.2400  131.8570 C   0  0  0  0  0  0  0  0  0  0  0  0
  150.1390  159.4390  131.1660 C   0  0  0  0  0  0  0  0  0  0  0  0
  149.1550  160.4540  131.1200 C   0  0  0  0  0  0  0  0  0  0  0  0
  149.4090  161.6650  130.4020 N   0  0  0  0  0  0  0  0  0  0  0  0
  147.9210  160.2710  131.7780 C   0  0  0  0  0  0  0  0  0  0  0  0
  147.7120  159.0740  132.4750 C   0  0  0  0  0  0  0  0  0  0  0  0
  146.6110  158.6770  133.1530 N   0  0  0  0  0  0  0  0  0  0  0  0
  145.3740  159.3970  133.2680 C   0  0  0  0  0  0  0  0  0  0  0  0
  144.3540  159.0150  132.6340 O   0  0  0  0  0  0  0  0  0  0  0  0
  145.2820  160.5050  134.1010 O   0  0  0  0  0  0  0  0  0  0  0  0
  144.1110  157.5580  134.2150 H   0  0  0  0  0  0  0  0  0  0  0  0
  148.6646  156.0714  133.4204 H   0  0  0  0  0  0  0  0  0  0  0  0
  150.6556  157.4433  131.8924 H   0  0  0  0  0  0  0  0  0  0  0  0
  151.1019  159.5899  130.6560 H   0  0  0  0  0  0  0  0  0  0  0  0
  148.6370  162.1640  129.9070 H   0  0  0  0  0  0  0  0  0  0  0  0
  150.3710  162.0690  130.3600 H   0  0  0  0  0  0  0  0  0  0  0  0
  147.1430  161.0479  131.7447 H   0  0  0  0  0  0  0  0  0  0  0  0
  1  2  1  0
  2  3  2  0
  2  4  1  0
  4  5  2  0
  5  6  1  0
  6  7  2  0
  7  8  1  0
  8  9  2  0
  9 10  1  0
  9 11  1  0
 11 12  2  0
 12 13  1  0
 13 14  1  0
 14 15  2  0
 14 16  1  0
 13  4  1  0
 12  6  1  0
  1 17  1  0
  5 18  1  0
  7 19  1  0
  8 20  1  0
 10 21  1  0
 10 22  1  0
 11 23  1  0
M  CHG  2   1  -1  16  -1
M  END
>  <UniqueID>  (45) 
45

>  <SMILES>  (45) 
[NH-]C(=O)c1cc2ccc(N)cc2n1C(=O)[O-]

>  <Energy>  (45) 
62.765777687571465

>  <Genealogy>  (45) 
[NH-]C(=O)c1cc2ccc(N)cc2n1C(=O)[O-] (protonated)
[NH-]C(=O)c1cc2ccc(N)cc2n1C(=O)[O-] (3D coordinates assigned)
[NH-]C(=O)c1cc2ccc(N)cc2n1C(=O)[O-] (optimized conformer: 62.765777687571465 kcal/mol)

>  <smiles>  (45) 
NC(=O)c1cc2ccc(N)cc2n1C(=O)O

>  <score_type>  (45) 
oracle

>  <origin>  (45) 
adg

>  <m_score__min__energy>  (45) 
-5.5499999999999998

>  <m_primary>  (45) 
energy

$$$$
45:0
     RDKit          3D

 53 56  0  0  0  0  0  0  0  0999 V2000
  148.2520  156.5250  134.3190 N   0  0  0  0  0  0  0  0  0  0  0  0
  147.4120  156.7990  133.2010 C   0  0  0  0  0  0  0  0  0  0  0  0
  147.3640  155.9770  132.2460 O   0  0  0  0  0  0  0  0  0  0  0  0
  146.6130  157.9950  133.1690 N   0  0  0  0  0  0  0  0  0  0  0  0
  147.0460  159.2760  133.0060 C   0  0  0  0  0  0  0  0  0  0  0  0
  148.4180  159.6880  132.6450 C   0  0  0  0  0  0  0  0  0  0  0  0
  149.5560  159.0010  133.1680 N   0  0  0  0  0  0  0  0  0  0  0  0
  148.5860  160.6270  131.8240 O   0  0  0  0  0  0  0  0  0  0  0  0
  145.9970  160.1760  133.1730 C   0  0  0  0  0  0  0  0  0  0  0  0
  144.8920  159.4000  133.4340 C   0  0  0  0  0  0  0  0  0  0  0  0
  143.5800  159.7760  133.6990 C   0  0  0  0  0  0  0  0  0  0  0  0
  142.6490  158.7640  133.9810 C   0  0  0  0  0  0  0  0  0  0  0  0
  143.0390  157.3990  133.9950 C   0  0  0  0  0  0  0  0  0  0  0  0
  142.0840  156.3700  134.3280 N   0  0  0  0  0  0  0  0  0  0  0  0
  141.1290  155.8940  133.3210 C   0  0  0  0  0  0  0  0  0  0  0  0
  140.6170  154.4870  133.6800 C   0  0  0  0  0  0  0  0  0  0  0  0
  141.6870  153.6570  134.2750 N   0  0  0  0  0  0  0  0  0  0  0  0
  142.7680  153.3740  133.3030 C   0  0  0  0  0  0  0  0  0  0  0  0
  142.9230  151.8900  133.0830 C   0  0  0  0  0  0  0  0  0  0  0  0
  144.0100  151.4440  132.6300 O   0  0  0  0  0  0  0  0  0  0  0  0
  141.9370  150.9580  133.5450 N   0  0  0  0  0  0  0  0  0  0  0  0
  141.0500  150.1940  132.7190 C   0  0  0  0  0  0  0  0  0  0  0  0
  139.8660  150.7520  132.2100 C   0  0  0  0  0  0  0  0  0  0  0  0
  139.0340  149.9970  131.3780 C   0  0  0  0  0  0  0  0  0  0  0  0
  139.3880  148.6890  131.0340 C   0  0  0  0  0  0  0  0  0  0  0  0
  140.5830  148.1410  131.5100 C   0  0  0  0  0  0  0  0  0  0  0  0
  141.4160  148.8960  132.3410 C   0  0  0  0  0  0  0  0  0  0  0  0
  142.2030  154.2240  135.5490 C   0  0  0  0  0  0  0  0  0  0  0  0
  142.0500  155.7540  135.6600 C   0  0  0  0  0  0  0  0  0  0  0  0
  144.3850  157.0600  133.7240 C   0  0  0  0  0  0  0  0  0  0  0  0
  145.2890  158.0880  133.4290 C   0  0  0  0  0  0  0  0  0  0  0  0
  149.2450  156.8450  134.3370 H   0  0  0  0  0  0  0  0  0  0  0  0
  150.5190  159.3340  132.9370 H   0  0  0  0  0  0  0  0  0  0  0  0
  149.4490  158.1210  133.7180 H   0  0  0  0  0  0  0  0  0  0  0  0
  146.0423  161.2732  133.1097 H   0  0  0  0  0  0  0  0  0  0  0  0
  143.2806  160.8344  133.6880 H   0  0  0  0  0  0  0  0  0  0  0  0
  141.6036  159.0321  134.1939 H   0  0  0  0  0  0  0  0  0  0  0  0
  140.2766  156.5878  133.2751 H   0  0  0  0  0  0  0  0  0  0  0  0
  141.6361  155.8481  132.3459 H   0  0  0  0  0  0  0  0  0  0  0  0
  139.7930  154.5800  134.4027 H   0  0  0  0  0  0  0  0  0  0  0  0
  140.2740  153.9981  132.7562 H   0  0  0  0  0  0  0  0  0  0  0  0
  142.5252  153.8562  132.3446 H   0  0  0  0  0  0  0  0  0  0  0  0
  143.7127  153.7690  133.7050 H   0  0  0  0  0  0  0  0  0  0  0  0
  139.5925  151.7861  132.4667 H   0  0  0  0  0  0  0  0  0  0  0  0
  138.0999  150.4325  130.9937 H   0  0  0  0  0  0  0  0  0  0  0  0
  138.7268  148.0914  130.3893 H   0  0  0  0  0  0  0  0  0  0  0  0
  140.8677  147.1159  131.2306 H   0  0  0  0  0  0  0  0  0  0  0  0
  142.3638  148.4684  132.6999 H   0  0  0  0  0  0  0  0  0  0  0  0
  141.6544  153.7599  136.3818 H   0  0  0  0  0  0  0  0  0  0  0  0
  143.2812  154.0082  135.5806 H   0  0  0  0  0  0  0  0  0  0  0  0
  141.0899  155.9881  136.1431 H   0  0  0  0  0  0  0  0  0  0  0  0
  142.8819  156.1531  136.2589 H   0  0  0  0  0  0  0  0  0  0  0  0
  144.7149  156.0108  133.7445 H   0  0  0  0  0  0  0  0  0  0  0  0
  1  2  1  0
  2  3  2  0
  2  4  1  0
  4  5  1  0
  5  6  1  0
  6  7  1  0
  6  8  2  0
  5  9  2  0
  9 10  1  0
 10 11  2  0
 11 12  1  0
 12 13  2  0
 13 14  1  0
 14 15  1  0
 15 16  1  0
 16 17  1  0
 17 18  1  0
 18 19  1  0
 19 20  2  0
 19 21  1  0
 21 22  1  0
 22 23  2  0
 23 24  1  0
 24 25  2  0
 25 26  1  0
 26 27  2  0
 17 28  1  0
 28 29  1  0
 13 30  1  0
 30 31  2  0
 31  4  1  0
 31 10  1  0
 29 14  1  0
 27 22  1  0
  1 32  1  0
  7 33  1  0
  7 34  1  0
  9 35  1  0
 11 36  1  0
 12 37  1  0
 15 38  1  0
 15 39  1  0
 16 40  1  0
 16 41  1  0
 18 42  1  0
 18 43  1  0
 23 44  1  0
 24 45  1  0
 25 46  1  0
 26 47  1  0
 27 48  1  0
 28 49  1  0
 28 50  1  0
 29 51  1  0
 29 52  1  0
 30 53  1  0
M  CHG  2   1  -1  21  -1
M  END
>  <UniqueID>  (46) 
46

>  <SMILES>  (46) 
[NH-]C(=O)n1c(C(N)=O)cc2ccc(N3CCN(CC(=O)[N-]c4ccccc4)CC3)cc21

>  <Energy>  (46) 
111.68930605708321

>  <Genealogy>  (46) 
[NH-]C(=O)n1c(C(N)=O)cc2ccc(N3CCN(CC(=O)[N-]c4ccccc4)CC3)cc21 (protonated)
[NH-]C(=O)n1c(C(N)=O)cc2ccc(N3CCN(CC(=O)[N-]c4ccccc4)CC3)cc21 (3D coordinates assigned)
[NH-]C(=O)n1c(C(N)=O)cc2ccc(N3CCN(CC(=O)[N-]c4ccccc4)CC3)cc21 (nonaromatic ring conformer: 111.68930605708321 kcal/mol)

>  <smiles>  (46) 
NC(=O)c1cc2ccc(N3CCN(CC(=O)Nc4ccccc4)CC3)cc2n1C(N)=O

>  <score_type>  (46) 
oracle

>  <origin>  (46) 
adg

>  <m_score__min__energy>  (46) 
-9.8599999999999994

>  <m_primary>  (46) 
energy

$$$$
46:0
     RDKit          3D

 56 58  0  0  0  0  0  0  0  0999 V2000
  141.2310  156.4370  135.3670 C   0  0  0  0  0  0  0  0  0  0  0  0
  141.3590  157.9550  135.6020 C   0  0  2  0  0  0  0  0  0  0  0  0
  140.3750  158.4390  136.6340 C   0  0  0  0  0  0  0  0  0  0  0  0
  140.6830  159.3470  137.4510 O   0  0  0  0  0  0  0  0  0  0  0  0
  139.1160  157.8550  136.7100 O   0  0  0  0  0  0  0  0  0  0  0  0
  141.3660  158.8460  134.3130 C   0  0  1  0  0  0  0  0  0  0  0  0
  142.7780  159.3330  133.9920 C   0  0  0  0  0  0  0  0  0  0  0  0
  143.0590  160.7250  134.0410 C   0  0  0  0  0  0  0  0  0  0  0  0
  144.3530  161.2110  133.7920 C   0  0  0  0  0  0  0  0  0  0  0  0
  145.3520  160.2890  133.4990 C   0  0  0  0  0  0  0  0  0  0  0  0
  146.6910  160.4820  133.2490 C   0  0  0  0  0  0  0  0  0  0  0  0
  147.2150  159.2080  133.0400 C   0  0  0  0  0  0  0  0  0  0  0  0
  148.6190  158.9590  132.6530 C   0  0  0  0  0  0  0  0  0  0  0  0
  148.9400  158.3800  131.3890 N   0  0  0  0  0  0  0  0  0  0  0  0
  149.5510  159.3050  133.4270 O   0  0  0  0  0  0  0  0  0  0  0  0
  146.2390  158.2640  133.1680 N   0  0  0  0  0  0  0  0  0  0  0  0
  146.3720  156.8370  133.1110 C   0  0  0  0  0  0  0  0  0  0  0  0
  147.1030  156.3120  132.2290 O   0  0  0  0  0  0  0  0  0  0  0  0
  145.7090  156.0470  134.0630 O   0  0  0  0  0  0  0  0  0  0  0  0
  144.9030  154.8910  133.8000 C   0  0  0  0  0  0  0  0  0  0  0  0
  144.0360  154.5460  135.0260 C   0  0  0  0  0  0  0  0  0  0  0  0
  145.7850  153.6930  133.4020 C   0  0  0  0  0  0  0  0  0  0  0  0
  143.9800  155.2420  132.6230 C   0  0  0  0  0  0  0  0  0  0  0  0
  145.1050  158.9440  133.4450 C   0  0  0  0  0  0  0  0  0  0  0  0
  143.8310  158.4300  133.7090 C   0  0  0  0  0  0  0  0  0  0  0  0
  140.5930  158.3340  133.0430 C   0  0  1  0  0  0  0  0  0  0  0  0
  139.1530  157.9930  133.2460 C   0  0  0  0  0  0  0  0  0  0  0  0
  138.3690  158.5610  132.3460 C   0  0  0  0  0  0  0  0  0  0  0  0
  139.1200  159.4130  131.3910 C   0  0  0  0  0  0  0  0  0  0  0  0
  140.5700  159.3480  131.8770 C   0  0  0  0  0  0  0  0  0  0  0  0
  141.1873  155.9183  136.3361 H   0  0  0  0  0  0  0  0  0  0  0  0
  140.3122  156.2301  134.7986 H   0  0  0  0  0  0  0  0  0  0  0  0
  142.1022  156.0792  134.7986 H   0  0  0  0  0  0  0  0  0  0  0  0
  142.3745  158.0865  136.0039 H   0  0  0  0  0  0  0  0  0  0  0  0
  140.7324  159.6975  134.6018 H   0  0  0  0  0  0  0  0  0  0  0  0
  142.2508  161.4327  134.2775 H   0  0  0  0  0  0  0  0  0  0  0  0
  144.5698  162.2888  133.8277 H   0  0  0  0  0  0  0  0  0  0  0  0
  147.2328  161.4389  133.2202 H   0  0  0  0  0  0  0  0  0  0  0  0
  148.5250  157.4690  131.0960 H   0  0  0  0  0  0  0  0  0  0  0  0
  144.5964  154.7690  135.9459 H   0  0  0  0  0  0  0  0  0  0  0  0
  143.1142  155.1458  135.0037 H   0  0  0  0  0  0  0  0  0  0  0  0
  143.7783  153.4768  135.0037 H   0  0  0  0  0  0  0  0  0  0  0  0
  146.1539  153.1919  134.3091 H   0  0  0  0  0  0  0  0  0  0  0  0
  145.1923  152.9832  132.8063 H   0  0  0  0  0  0  0  0  0  0  0  0
  146.6388  154.0482  132.8063 H   0  0  0  0  0  0  0  0  0  0  0  0
  143.0171  155.6082  133.0087 H   0  0  0  0  0  0  0  0  0  0  0  0
  144.4503  156.0241  132.0088 H   0  0  0  0  0  0  0  0  0  0  0  0
  143.8118  154.3451  132.0088 H   0  0  0  0  0  0  0  0  0  0  0  0
  143.6508  157.3449  133.6969 H   0  0  0  0  0  0  0  0  0  0  0  0
  141.1776  157.4302  132.8162 H   0  0  0  0  0  0  0  0  0  0  0  0
  138.7862  157.3424  134.0536 H   0  0  0  0  0  0  0  0  0  0  0  0
  137.2790  158.4178  132.3090 H   0  0  0  0  0  0  0  0  0  0  0  0
  139.0349  159.0182  130.3678 H   0  0  0  0  0  0  0  0  0  0  0  0
  138.7358  160.4432  131.3583 H   0  0  0  0  0  0  0  0  0  0  0  0
  141.2290  159.0086  131.0643 H   0  0  0  0  0  0  0  0  0  0  0  0
  140.9274  160.3367  132.2006 H   0  0  0  0  0  0  0  0  0  0  0  0
  1  2  1  0
  2  3  1  0
  3  4  2  0
  3  5  1  0
  2  6  1  0
  6  7  1  0
  7  8  2  0
  8  9  1  0
  9 10  2  0
 10 11  1  0
 11 12  2  0
 12 13  1  0
 13 14  1  0
 13 15  2  0
 12 16  1  0
 16 17  1  0
 17 18  2  0
 17 19  1  0
 19 20  1  0
 20 21  1  0
 20 22  1  0
 20 23  1  0
 16 24  1  0
 24 25  2  0
  6 26  1  0
 26 27  1  0
 27 28  2  0
 28 29  1  0
 29 30  1  0
 25  7  1  0
 30 26  1  0
 24 10  1  0
  1 31  1  0
  1 32  1  0
  1 33  1  0
  2 34  1  1
  6 35  1  1
  8 36  1  0
  9 37  1  0
 11 38  1  0
 14 39  1  0
 21 40  1  0
 21 41  1  0
 21 42  1  0
 22 43  1  0
 22 44  1  0
 22 45  1  0
 23 46  1  0
 23 47  1  0
 23 48  1  0
 25 49  1  0
 26 50  1  6
 27 51  1  0
 28 52  1  0
 29 53  1  0
 29 54  1  0
 30 55  1  0
 30 56  1  0
M  CHG  2   5  -1  14  -1
M  END
>  <UniqueID>  (47) 
47

>  <SMILES>  (47) 
C[C@H](C(=O)[O-])[C@@H](c1ccc2cc(C([NH-])=O)n(C(=O)OC(C)(C)C)c2c1)[C@H]1C=CCC1

>  <Energy>  (47) 
102.28005500772846

>  <Genealogy>  (47) 
CC(C(=O)[O-])[C@@H](c1ccc2cc(C([NH-])=O)n(C(=O)OC(C)(C)C)c2c1)C1C=CCC1 (protonated)
C[C@H](C(=O)[O-])[C@@H](c1ccc2cc(C([NH-])=O)n(C(=O)OC(C)(C)C)c2c1)[C@H]1C=CCC1 (chirality)
C[C@H](C(=O)[O-])[C@@H](c1ccc2cc(C([NH-])=O)n(C(=O)OC(C)(C)C)c2c1)[C@H]1C=CCC1 (3D coordinates assigned)
C[C@H](C(=O)[O-])[C@@H](c1ccc2cc(C([NH-])=O)n(C(=O)OC(C)(C)C)c2c1)[C@H]1C=CCC1 (nonaromatic ring conformer: 102.28005500772846 kcal/mol)

>  <smiles>  (47) 
CC(C(=O)O)[C@@H](c1ccc2cc(C(N)=O)n(C(=O)OC(C)(C)C)c2c1)C1C=CCC1

>  <score_type>  (47) 
oracle

>  <origin>  (47) 
adg

>  <m_score__min__energy>  (47) 
-9.1400000000000006

>  <m_primary>  (47) 
energy

$$$$
47:0
     RDKit          3D

 79 84  0  0  0  0  0  0  0  0999 V2000
  143.0070  159.5310  134.5250 C   0  0  0  0  0  0  0  0  0  0  0  0
  141.7290  158.6800  134.6010 C   0  0  0  0  0  0  0  0  0  0  0  0
  141.1010  158.8520  136.0000 C   0  0  0  0  0  0  0  0  0  0  0  0
  140.7520  159.1450  133.5040 C   0  0  0  0  0  0  0  0  0  0  0  0
  142.1170  157.3140  134.3830 O   0  0  0  0  0  0  0  0  0  0  0  0
  142.5210  156.7420  133.1680 C   0  0  0  0  0  0  0  0  0  0  0  0
  142.9390  157.4810  132.2370 O   0  0  0  0  0  0  0  0  0  0  0  0
  142.4910  155.3060  132.9970 N   0  0  0  0  0  0  0  0  0  0  0  0
  141.3890  154.4980  133.0090 C   0  0  0  0  0  0  0  0  0  0  0  0
  139.9850  154.9370  133.0490 C   0  0  0  0  0  0  0  0  0  0  0  0
  139.6660  156.3270  133.0620 N   0  0  0  0  0  0  0  0  0  0  0  0
  139.0590  154.0830  132.9980 O   0  0  0  0  0  0  0  0  0  0  0  0
  141.7460  153.1580  132.9570 C   0  0  0  0  0  0  0  0  0  0  0  0
  143.1170  153.1520  132.8860 C   0  0  0  0  0  0  0  0  0  0  0  0
  143.9920  152.0760  132.7850 C   0  0  0  0  0  0  0  0  0  0  0  0
  145.3650  152.3500  132.7070 C   0  0  0  0  0  0  0  0  0  0  0  0
  145.8440  153.6850  132.7460 C   0  0  0  0  0  0  0  0  0  0  0  0
  147.2580  153.9570  132.6130 N   0  0  0  0  0  0  0  0  0  0  0  0
  148.0690  153.1600  133.5110 C   0  0  0  0  0  0  0  0  0  0  0  0
  148.7740  152.0200  133.0460 C   0  0  0  0  0  0  0  0  0  0  0  0
  149.5310  151.2350  133.9370 C   0  0  0  0  0  0  0  0  0  0  0  0
  149.5620  151.5290  135.2670 N   0  0  0  0  0  0  0  0  0  0  0  0
  148.8620  152.5930  135.7270 C   0  0  0  0  0  0  0  0  0  0  0  0
  148.7520  152.9460  137.0180 N   0  0  0  0  0  0  0  0  0  0  0  0
  147.9060  153.9980  137.0380 C   0  0  0  0  0  0  0  0  0  0  0  0
  147.4930  154.3150  135.7490 C   0  0  0  0  0  0  0  0  0  0  0  0
  146.5180  155.3620  135.4190 C   0  0  0  0  0  0  0  0  0  0  0  0
  145.3170  155.1930  135.7680 O   0  0  0  0  0  0  0  0  0  0  0  0
  146.9000  156.5490  134.6930 N   0  0  0  0  0  0  0  0  0  0  0  0
  148.2880  157.0440  134.7100 C   0  0  0  0  0  0  0  0  0  0  0  0
  148.7830  157.3940  133.2940 C   0  0  0  0  0  0  0  0  0  0  0  0
  147.6450  157.8150  132.3310 C   0  0  0  0  0  0  0  0  0  0  0  0
  148.1650  158.6760  131.2340 N   0  0  0  0  0  0  0  0  0  0  0  0
  147.5980  160.0350  131.2330 C   0  0  0  0  0  0  0  0  0  0  0  0
  148.7250  161.0060  131.5310 C   0  0  0  0  0  0  0  0  0  0  0  0
  149.9760  160.2860  131.0880 C   0  0  0  0  0  0  0  0  0  0  0  0
  149.6330  158.8050  131.1630 C   0  0  0  0  0  0  0  0  0  0  0  0
  146.4450  158.4140  133.1060 C   0  0  0  0  0  0  0  0  0  0  0  0
  145.8510  157.3420  134.0320 C   0  0  0  0  0  0  0  0  0  0  0  0
  148.1160  153.4010  134.9010 C   0  0  0  0  0  0  0  0  0  0  0  0
  144.9200  154.7530  132.8340 C   0  0  0  0  0  0  0  0  0  0  0  0
  143.5490  154.4560  132.9140 C   0  0  0  0  0  0  0  0  0  0  0  0
  143.3545  159.7624  135.5427 H   0  0  0  0  0  0  0  0  0  0  0  0
  143.7883  158.9722  133.9890 H   0  0  0  0  0  0  0  0  0  0  0  0
  142.7927  160.4673  133.9890 H   0  0  0  0  0  0  0  0  0  0  0  0
  141.8586  158.6445  136.7700 H   0  0  0  0  0  0  0  0  0  0  0  0
  140.7356  159.8833  136.1136 H   0  0  0  0  0  0  0  0  0  0  0  0
  140.2611  158.1508  136.1136 H   0  0  0  0  0  0  0  0  0  0  0  0
  139.8528  159.5730  133.9712 H   0  0  0  0  0  0  0  0  0  0  0  0
  141.2388  159.9080  132.8788 H   0  0  0  0  0  0  0  0  0  0  0  0
  140.4669  158.2860  132.8788 H   0  0  0  0  0  0  0  0  0  0  0  0
  138.7560  156.6680  132.6750 H   0  0  0  0  0  0  0  0  0  0  0  0
  141.0742  152.2870  132.9699 H   0  0  0  0  0  0  0  0  0  0  0  0
  143.6185  151.0415  132.7669 H   0  0  0  0  0  0  0  0  0  0  0  0
  146.0800  151.5192  132.6144 H   0  0  0  0  0  0  0  0  0  0  0  0
  147.4930  153.7550  131.6190 H   0  0  0  0  0  0  0  0  0  0  0  0
  147.4680  154.9660  132.7980 H   0  0  0  0  0  0  0  0  0  0  0  0
  148.7290  151.7472  131.9813 H   0  0  0  0  0  0  0  0  0  0  0  0
  150.1028  150.3762  133.5555 H   0  0  0  0  0  0  0  0  0  0  0  0
  149.2010  152.4850  137.8410 H   0  0  0  0  0  0  0  0  0  0  0  0
  147.5881  154.5298  137.9469 H   0  0  0  0  0  0  0  0  0  0  0  0
  148.3377  157.9454  135.3384 H   0  0  0  0  0  0  0  0  0  0  0  0
  148.9320  156.2482  135.1125 H   0  0  0  0  0  0  0  0  0  0  0  0
  149.5000  158.2246  133.3707 H   0  0  0  0  0  0  0  0  0  0  0  0
  149.2421  156.4856  132.8767 H   0  0  0  0  0  0  0  0  0  0  0  0
  147.2453  156.9190  131.8336 H   0  0  0  0  0  0  0  0  0  0  0  0
  147.1620  160.2582  130.2481 H   0  0  0  0  0  0  0  0  0  0  0  0
  146.8048  160.1218  131.9902 H   0  0  0  0  0  0  0  0  0  0  0  0
  148.5931  161.9396  130.9644 H   0  0  0  0  0  0  0  0  0  0  0  0
  148.7611  161.2895  132.5932 H   0  0  0  0  0  0  0  0  0  0  0  0
  150.2396  160.5691  130.0582 H   0  0  0  0  0  0  0  0  0  0  0  0
  150.8410  160.5397  131.7184 H   0  0  0  0  0  0  0  0  0  0  0  0
  150.0094  158.2895  130.2671 H   0  0  0  0  0  0  0  0  0  0  0  0
  150.0982  158.3512  132.0505 H   0  0  0  0  0  0  0  0  0  0  0  0
  146.7862  159.2700  133.7067 H   0  0  0  0  0  0  0  0  0  0  0  0
  145.6778  158.7507  132.3933 H   0  0  0  0  0  0  0  0  0  0  0  0
  145.2394  157.8355  134.8017 H   0  0  0  0  0  0  0  0  0  0  0  0
  145.2418  156.6607  133.4199 H   0  0  0  0  0  0  0  0  0  0  0  0
  145.2685  155.7963  132.8397 H   0  0  0  0  0  0  0  0  0  0  0  0
  1  2  1  0
  2  3  1  0
  2  4  1  0
  2  5  1  0
  5  6  1  0
  6  7  2  0
  6  8  1  0
  8  9  1  0
  9 10  1  0
 10 11  1  0
 10 12  2  0
  9 13  2  0
 13 14  1  0
 14 15  2  0
 15 16  1  0
 16 17  2  0
 17 18  1  0
 18 19  1  0
 19 20  2  0
 20 21  1  0
 21 22  2  0
 22 23  1  0
 23 24  1  0
 24 25  1  0
 25 26  2  0
 26 27  1  0
 27 28  2  0
 27 29  1  0
 29 30  1  0
 30 31  1  0
 31 32  1  0
 32 33  1  0
 33 34  1  0
 34 35  1  0
 35 36  1  0
 36 37  1  0
 32 38  1  0
 38 39  1  0
 26 40  1  0
 17 41  1  0
 41 42  2  0
 42  8  1  0
 42 14  1  0
 40 19  1  0
 40 23  2  0
 39 29  1  0
 37 33  1  0
  1 43  1  0
  1 44  1  0
  1 45  1  0
  3 46  1  0
  3 47  1  0
  3 48  1  0
  4 49  1  0
  4 50  1  0
  4 51  1  0
 11 52  1  0
 13 53  1  0
 15 54  1  0
 16 55  1  0
 18 56  1  0
 18 57  1  0
 20 58  1  0
 21 59  1  0
 24 60  1  0
 25 61  1  0
 30 62  1  0
 30 63  1  0
 31 64  1  0
 31 65  1  0
 32 66  1  0
 34 67  1  0
 34 68  1  0
 35 69  1  0
 35 70  1  0
 36 71  1  0
 36 72  1  0
 37 73  1  0
 37 74  1  0
 38 75  1  0
 38 76  1  0
 39 77  1  0
 39 78  1  0
 41 79  1  0
M  CHG  2  11  -1  18   1
M  END
>  <UniqueID>  (48) 
48

>  <SMILES>  (48) 
CC(C)(C)OC(=O)n1c(C([NH-])=O)cc2ccc([NH2+]c3ccnc4[nH]cc(C(=O)N5CCC(N6CCCC6)CC5)c34)cc21

>  <Energy>  (48) 
179.83016558694726

>  <Genealogy>  (48) 
CC(C)(C)OC(=O)n1c(C([NH-])=O)cc2ccc([NH2+]c3ccnc4[nH]cc(C(=O)N5CCC(N6CCCC6)CC5)c34)cc21 (protonated)
CC(C)(C)OC(=O)n1c(C([NH-])=O)cc2ccc([NH2+]c3ccnc4[nH]cc(C(=O)N5CCC(N6CCCC6)CC5)c34)cc21 (3D coordinates assigned)
CC(C)(C)OC(=O)n1c(C([NH-])=O)cc2ccc([NH2+]c3ccnc4[nH]cc(C(=O)N5CCC(N6CCCC6)CC5)c34)cc21 (nonaromatic ring conformer: 179.83016558694726 kcal/mol)

>  <smiles>  (48) 
CC(C)(C)OC(=O)n1c(C(N)=O)cc2ccc(Nc3ccnc4[nH]cc(C(=O)N5CCC(N6CCCC6)CC5)c34)cc21

>  <score_type>  (48) 
oracle

>  <origin>  (48) 
adg

>  <m_score__min__energy>  (48) 
-11.369999999999999

>  <m_primary>  (48) 
energy

$$$$
48:0
     RDKit          3D

 52 56  0  0  0  0  0  0  0  0999 V2000
  138.6750  148.6810  129.8070 C   0  0  0  0  0  0  0  0  0  0  0  0
  138.7900  147.9960  131.1850 C   0  0  0  0  0  0  0  0  0  0  0  0
  140.0900  148.1180  131.8920 N   0  0  0  0  0  0  0  0  0  0  0  0
  140.1100  149.1760  132.9250 C   0  0  0  0  0  0  0  0  0  0  0  0
  141.1760  149.9350  132.1700 C   0  0  0  0  0  0  0  0  0  0  0  0
  141.1580  148.8220  131.1480 C   0  0  0  0  0  0  0  0  0  0  0  0
  142.4310  150.3910  132.8170 C   0  0  0  0  0  0  0  0  0  0  0  0
  142.2540  151.8110  132.4280 N   0  0  0  0  0  0  0  0  0  0  0  0
  142.9540  153.0430  132.5940 C   0  0  0  0  0  0  0  0  0  0  0  0
  144.3380  153.1030  132.4310 C   0  0  0  0  0  0  0  0  0  0  0  0
  144.9910  154.3210  132.6000 C   0  0  0  0  0  0  0  0  0  0  0  0
  144.2450  155.4650  132.9260 C   0  0  0  0  0  0  0  0  0  0  0  0
  144.8830  156.7910  133.1240 C   0  0  0  0  0  0  0  0  0  0  0  0
  146.2910  156.9580  133.0100 C   0  0  0  0  0  0  0  0  0  0  0  0
  146.8860  158.2150  133.2040 C   0  0  0  0  0  0  0  0  0  0  0  0
  146.0560  159.2920  133.4970 C   0  0  0  0  0  0  0  0  0  0  0  0
  146.3690  160.6060  133.7580 C   0  0  0  0  0  0  0  0  0  0  0  0
  145.1490  161.2360  133.9970 C   0  0  0  0  0  0  0  0  0  0  0  0
  145.0130  162.6840  134.2630 C   0  0  0  0  0  0  0  0  0  0  0  0
  144.2480  163.5000  133.3790 N   0  0  0  0  0  0  0  0  0  0  0  0
  145.5430  163.2060  135.2790 O   0  0  0  0  0  0  0  0  0  0  0  0
  144.1230  160.3450  133.8890 N   0  0  0  0  0  0  0  0  0  0  0  0
  142.7240  160.5840  134.1080 C   0  0  0  0  0  0  0  0  0  0  0  0
  142.1260  161.8080  133.6850 N   0  0  0  0  0  0  0  0  0  0  0  0
  142.0160  159.7070  134.6710 O   0  0  0  0  0  0  0  0  0  0  0  0
  144.6950  159.1600  133.5830 C   0  0  0  0  0  0  0  0  0  0  0  0
  144.0760  157.9170  133.4150 C   0  0  0  0  0  0  0  0  0  0  0  0
  142.8970  155.3390  133.0810 N   0  0  0  0  0  0  0  0  0  0  0  0
  142.2730  154.1710  132.9190 N   0  0  0  0  0  0  0  0  0  0  0  0
  140.9990  151.3560  131.7820 C   0  0  0  0  0  0  0  0  0  0  0  0
  138.4944  149.7571  129.9464 H   0  0  0  0  0  0  0  0  0  0  0  0
  139.6101  148.5358  129.2462 H   0  0  0  0  0  0  0  0  0  0  0  0
  137.8386  148.2384  129.2462 H   0  0  0  0  0  0  0  0  0  0  0  0
  138.0162  148.4286  131.8362 H   0  0  0  0  0  0  0  0  0  0  0  0
  138.6759  146.9213  130.9802 H   0  0  0  0  0  0  0  0  0  0  0  0
  139.1596  149.7215  133.0212 H   0  0  0  0  0  0  0  0  0  0  0  0
  140.2731  148.9076  133.9792 H   0  0  0  0  0  0  0  0  0  0  0  0
  140.8582  149.1476  130.1410 H   0  0  0  0  0  0  0  0  0  0  0  0
  142.0899  148.2938  130.8979 H   0  0  0  0  0  0  0  0  0  0  0  0
  142.4338  150.2398  133.9065 H   0  0  0  0  0  0  0  0  0  0  0  0
  143.3688  149.8915  132.5324 H   0  0  0  0  0  0  0  0  0  0  0  0
  144.9072  152.1981  132.1718 H   0  0  0  0  0  0  0  0  0  0  0  0
  146.0824  154.3865  132.4791 H   0  0  0  0  0  0  0  0  0  0  0  0
  146.9223  156.0907  132.7666 H   0  0  0  0  0  0  0  0  0  0  0  0
  147.9757  158.3441  133.1266 H   0  0  0  0  0  0  0  0  0  0  0  0
  147.3697  161.0625  133.7745 H   0  0  0  0  0  0  0  0  0  0  0  0
  143.3000  163.8430  133.6490 H   0  0  0  0  0  0  0  0  0  0  0  0
  141.1020  161.9680  133.8170 H   0  0  0  0  0  0  0  0  0  0  0  0
  142.7100  162.5720  133.2780 H   0  0  0  0  0  0  0  0  0  0  0  0
  142.9845  157.8165  133.5071 H   0  0  0  0  0  0  0  0  0  0  0  0
  140.0990  151.8132  132.2190 H   0  0  0  0  0  0  0  0  0  0  0  0
  140.8554  151.5853  130.7158 H   0  0  0  0  0  0  0  0  0  0  0  0
  1  2  1  0
  2  3  1  0
  3  4  1  0
  4  5  1  0
  5  6  1  0
  5  7  1  0
  7  8  1  0
  8  9  1  0
  9 10  2  0
 10 11  1  0
 11 12  2  0
 12 13  1  0
 13 14  2  0
 14 15  1  0
 15 16  2  0
 16 17  1  0
 17 18  2  0
 18 19  1  0
 19 20  1  0
 19 21  2  0
 18 22  1  0
 22 23  1  0
 23 24  1  0
 23 25  2  0
 22 26  1  0
 26 27  2  0
 12 28  1  0
 28 29  2  0
  8 30  1  0
  6  3  1  0
 29  9  1  0
 30  5  1  0
 27 13  1  0
 26 16  1  0
  1 31  1  0
  1 32  1  0
  1 33  1  0
  2 34  1  0
  2 35  1  0
  4 36  1  0
  4 37  1  0
  6 38  1  0
  6 39  1  0
  7 40  1  0
  7 41  1  0
 10 42  1  0
 11 43  1  0
 14 44  1  0
 15 45  1  0
 17 46  1  0
 20 47  1  0
 24 48  1  0
 24 49  1  0
 27 50  1  0
 30 51  1  0
 30 52  1  0
M  CHG  1  20  -1
M  END
>  <UniqueID>  (49) 
49

>  <SMILES>  (49) 
CCN1CC2(C1)CN(c1ccc(-c3ccc4cc(C([NH-])=O)n(C(N)=O)c4c3)nn1)C2

>  <Energy>  (49) 
233.78242783380466

>  <Genealogy>  (49) 
CCN1CC2(C1)CN(c1ccc(-c3ccc4cc(C([NH-])=O)n(C(N)=O)c4c3)nn1)C2 (protonated)
CCN1CC2(C1)CN(c1ccc(-c3ccc4cc(C([NH-])=O)n(C(N)=O)c4c3)nn1)C2 (3D coordinates assigned)
CCN1CC2(C1)CN(c1ccc(-c3ccc4cc(C([NH-])=O)n(C(N)=O)c4c3)nn1)C2 (nonaromatic ring conformer: 233.78242783380466 kcal/mol)

>  <smiles>  (49) 
CCN1CC2(C1)CN(c1ccc(-c3ccc4cc(C(N)=O)n(C(N)=O)c4c3)nn1)C2

>  <score_type>  (49) 
oracle

>  <origin>  (49) 
adg

>  <m_score__min__energy>  (49) 
-8.9000000000000004

>  <m_primary>  (49) 
energy

$$$$
49:0
     RDKit          3D

 51 52  0  0  0  0  0  0  0  0999 V2000
  142.3310  156.0540  135.7910 C   0  0  0  0  0  0  0  0  0  0  0  0
  142.5650  155.2520  134.5000 C   0  0  0  0  0  0  0  0  0  0  0  0
  142.1080  153.8020  134.7200 C   0  0  0  0  0  0  0  0  0  0  0  0
  141.7590  155.9140  133.3610 C   0  0  0  0  0  0  0  0  0  0  0  0
  143.9730  155.2950  134.2260 O   0  0  0  0  0  0  0  0  0  0  0  0
  144.5960  155.8630  133.1030 C   0  0  0  0  0  0  0  0  0  0  0  0
  144.5560  155.2690  131.9940 O   0  0  0  0  0  0  0  0  0  0  0  0
  145.3050  157.1180  133.2300 N   0  0  0  0  0  0  0  0  0  0  0  0
  146.6360  157.3330  133.0070 C   0  0  0  0  0  0  0  0  0  0  0  0
  147.6540  156.2970  132.7600 C   0  0  0  0  0  0  0  0  0  0  0  0
  147.3960  155.2170  131.8570 N   0  0  0  0  0  0  0  0  0  0  0  0
  148.7460  156.3340  133.3890 O   0  0  0  0  0  0  0  0  0  0  0  0
  146.9490  158.6840  133.1030 C   0  0  0  0  0  0  0  0  0  0  0  0
  145.7660  159.3060  133.4210 C   0  0  0  0  0  0  0  0  0  0  0  0
  145.5120  160.6520  133.6670 C   0  0  0  0  0  0  0  0  0  0  0  0
  144.2010  161.0240  134.0030 C   0  0  0  0  0  0  0  0  0  0  0  0
  143.1720  160.0540  134.0760 C   0  0  0  0  0  0  0  0  0  0  0  0
  141.7790  160.4560  134.4970 C   0  0  0  0  0  0  0  0  0  0  0  0
  140.8390  159.2370  134.5750 C   0  0  2  0  0  0  0  0  0  0  0  0
  139.7200  159.3760  133.6410 N   0  0  0  0  0  0  0  0  0  0  0  0
  139.6530  158.8390  132.3130 C   0  0  0  0  0  0  0  0  0  0  0  0
  140.0690  159.5010  131.3250 O   0  0  0  0  0  0  0  0  0  0  0  0
  139.1210  157.4540  132.1040 C   0  0  0  0  0  0  0  0  0  0  0  0
  138.7590  156.8290  133.3790 N   0  0  0  0  0  0  0  0  0  0  0  0
  140.3310  158.9740  135.9680 C   0  0  0  0  0  0  0  0  0  0  0  0
  140.9380  159.4590  136.9580 O   0  0  0  0  0  0  0  0  0  0  0  0
  139.2290  158.1570  136.1830 O   0  0  0  0  0  0  0  0  0  0  0  0
  143.4630  158.6990  133.8050 C   0  0  0  0  0  0  0  0  0  0  0  0
  144.7850  158.3460  133.4910 C   0  0  0  0  0  0  0  0  0  0  0  0
  142.5191  155.4094  136.6623 H   0  0  0  0  0  0  0  0  0  0  0  0
  143.0154  156.9147  135.8171 H   0  0  0  0  0  0  0  0  0  0  0  0
  141.2911  156.4116  135.8171 H   0  0  0  0  0  0  0  0  0  0  0  0
  142.0436  153.5976  135.7989 H   0  0  0  0  0  0  0  0  0  0  0  0
  141.1200  153.6550  134.2593 H   0  0  0  0  0  0  0  0  0  0  0  0
  142.8332  153.1151  134.2593 H   0  0  0  0  0  0  0  0  0  0  0  0
  140.9766  156.5566  133.7910 H   0  0  0  0  0  0  0  0  0  0  0  0
  142.4332  156.5225  132.7404 H   0  0  0  0  0  0  0  0  0  0  0  0
  141.2931  155.1344  132.7404 H   0  0  0  0  0  0  0  0  0  0  0  0
  148.1350  154.5040  131.6610 H   0  0  0  0  0  0  0  0  0  0  0  0
  146.4650  155.1120  131.4150 H   0  0  0  0  0  0  0  0  0  0  0  0
  147.9326  159.1541  132.9559 H   0  0  0  0  0  0  0  0  0  0  0  0
  146.3143  161.4016  133.6002 H   0  0  0  0  0  0  0  0  0  0  0  0
  143.9707  162.0792  134.2116 H   0  0  0  0  0  0  0  0  0  0  0  0
  141.8284  160.9333  135.4868 H   0  0  0  0  0  0  0  0  0  0  0  0
  141.3789  161.1530  133.7459 H   0  0  0  0  0  0  0  0  0  0  0  0
  141.4424  158.3643  134.2847 H   0  0  0  0  0  0  0  0  0  0  0  0
  138.2286  157.5051  131.4629 H   0  0  0  0  0  0  0  0  0  0  0  0
  139.9053  156.8470  131.6281 H   0  0  0  0  0  0  0  0  0  0  0  0
  138.9260  157.5160  134.1510 H   0  0  0  0  0  0  0  0  0  0  0  0
  137.7350  156.6070  133.3750 H   0  0  0  0  0  0  0  0  0  0  0  0
  142.6709  157.9365  133.8392 H   0  0  0  0  0  0  0  0  0  0  0  0
  1  2  1  0
  2  3  1  0
  2  4  1  0
  2  5  1  0
  5  6  1  0
  6  7  2  0
  6  8  1  0
  8  9  1  0
  9 10  1  0
 10 11  1  0
 10 12  2  0
  9 13  2  0
 13 14  1  0
 14 15  2  0
 15 16  1  0
 16 17  2  0
 17 18  1  0
 18 19  1  0
 19 20  1  0
 20 21  1  0
 21 22  2  0
 21 23  1  0
 23 24  1  0
 19 25  1  0
 25 26  2  0
 25 27  1  0
 17 28  1  0
 28 29  2  0
 29  8  1  0
 29 14  1  0
  1 30  1  0
  1 31  1  0
  1 32  1  0
  3 33  1  0
  3 34  1  0
  3 35  1  0
  4 36  1  0
  4 37  1  0
  4 38  1  0
 11 39  1  0
 11 40  1  0
 13 41  1  0
 15 42  1  0
 16 43  1  0
 18 44  1  0
 18 45  1  0
 19 46  1  6
 23 47  1  0
 23 48  1  0
 24 49  1  0
 24 50  1  0
 28 51  1  0
M  CHG  2  20  -1  27  -1
M  END
>  <UniqueID>  (50) 
50

>  <SMILES>  (50) 
CC(C)(C)OC(=O)n1c(C(N)=O)cc2ccc(C[C@H]([N-]C(=O)CN)C(=O)[O-])cc21

>  <Energy>  (50) 
82.1222533712047

>  <Genealogy>  (50) 
CC(C)(C)OC(=O)n1c(C(N)=O)cc2ccc(C[C@H]([N-]C(=O)CN)C(=O)[O-])cc21 (protonated)
CC(C)(C)OC(=O)n1c(C(N)=O)cc2ccc(C[C@H]([N-]C(=O)CN)C(=O)[O-])cc21 (3D coordinates assigned)
CC(C)(C)OC(=O)n1c(C(N)=O)cc2ccc(C[C@H]([N-]C(=O)CN)C(=O)[O-])cc21 (optimized conformer: 82.1222533712047 kcal/mol)

>  <smiles>  (50) 
CC(C)(C)OC(=O)n1c(C(N)=O)cc2ccc(C[C@H](NC(=O)CN)C(=O)O)cc21

>  <score_type>  (50) 
oracle

>  <origin>  (50) 
adg

>  <m_score__min__energy>  (50) 
-8.4600000000000009

>  <m_primary>  (50) 
energy

$$$$
50:0
     RDKit          3D

 77 81  0  0  0  0  0  0  0  0999 V2000
  142.8620  153.3360  136.8700 C   0  0  0  0  0  0  0  0  0  0  0  0
  142.6630  153.2560  135.4600 O   0  0  0  0  0  0  0  0  0  0  0  0
  141.8680  154.1430  134.7170 C   0  0  0  0  0  0  0  0  0  0  0  0
  141.9520  155.5390  134.8920 C   0  0  0  0  0  0  0  0  0  0  0  0
  141.1950  156.4080  134.0860 C   0  0  0  0  0  0  0  0  0  0  0  0
  141.2870  157.8190  134.1680 C   0  0  0  0  0  0  0  0  0  0  0  0
  142.1880  158.4870  135.0810 N   0  0  0  0  0  0  0  0  0  0  0  0
  143.3710  158.9760  134.4090 C   0  0  0  0  0  0  0  0  0  0  0  0
  143.5780  160.3700  134.2090 C   0  0  0  0  0  0  0  0  0  0  0  0
  144.7570  160.8450  133.6130 C   0  0  0  0  0  0  0  0  0  0  0  0
  145.7300  159.9160  133.2560 C   0  0  0  0  0  0  0  0  0  0  0  0
  146.9770  160.1120  132.7110 C   0  0  0  0  0  0  0  0  0  0  0  0
  147.5380  158.8390  132.6090 C   0  0  0  0  0  0  0  0  0  0  0  0
  148.8560  158.5810  131.9950 C   0  0  0  0  0  0  0  0  0  0  0  0
  149.5540  157.3620  132.2370 N   0  0  0  0  0  0  0  0  0  0  0  0
  149.3370  159.4200  131.1850 O   0  0  0  0  0  0  0  0  0  0  0  0
  146.6700  157.8970  133.0750 N   0  0  0  0  0  0  0  0  0  0  0  0
  146.8990  156.4920  133.2480 C   0  0  0  0  0  0  0  0  0  0  0  0
  147.7750  156.0960  134.0640 O   0  0  0  0  0  0  0  0  0  0  0  0
  146.1200  155.5760  132.5270 O   0  0  0  0  0  0  0  0  0  0  0  0
  145.5250  154.3790  133.0440 C   0  0  0  0  0  0  0  0  0  0  0  0
  145.1670  154.6430  134.5160 C   0  0  0  0  0  0  0  0  0  0  0  0
  146.5320  153.2090  132.9810 C   0  0  0  0  0  0  0  0  0  0  0  0
  144.2390  154.0300  132.2730 C   0  0  0  0  0  0  0  0  0  0  0  0
  145.5630  158.5720  133.4570 C   0  0  0  0  0  0  0  0  0  0  0  0
  144.3940  158.0670  134.0410 C   0  0  0  0  0  0  0  0  0  0  0  0
  140.5200  158.5800  133.3390 N   0  0  0  0  0  0  0  0  0  0  0  0
  139.6640  158.0250  132.4480 C   0  0  0  0  0  0  0  0  0  0  0  0
  139.5550  156.6780  132.3560 N   0  0  0  0  0  0  0  0  0  0  0  0
  140.3000  155.8610  133.1410 C   0  0  0  0  0  0  0  0  0  0  0  0
  140.1820  154.4750  132.9960 C   0  0  0  0  0  0  0  0  0  0  0  0
  140.9930  153.6080  133.7560 C   0  0  0  0  0  0  0  0  0  0  0  0
  140.9880  152.2150  133.5880 O   0  0  0  0  0  0  0  0  0  0  0  0
  142.0900  151.3770  133.2350 C   0  0  0  0  0  0  0  0  0  0  0  0
  141.6580  150.3300  132.2140 C   0  0  0  0  0  0  0  0  0  0  0  0
  140.2080  150.5310  131.7480 C   0  0  0  0  0  0  0  0  0  0  0  0
  139.4500  149.2750  131.9580 N   0  0  0  0  0  0  0  0  0  0  0  0
  140.2210  148.0900  131.5630 C   0  0  0  0  0  0  0  0  0  0  0  0
  139.8880  147.7810  130.1110 C   0  0  0  0  0  0  0  0  0  0  0  0
  138.5850  148.5100  129.8340 C   0  0  0  0  0  0  0  0  0  0  0  0
  138.2380  149.2300  131.1250 C   0  0  0  0  0  0  0  0  0  0  0  0
  141.9619  152.9741  137.3885 H   0  0  0  0  0  0  0  0  0  0  0  0
  143.7238  152.7145  137.1545 H   0  0  0  0  0  0  0  0  0  0  0  0
  143.0538  154.3811  137.1545 H   0  0  0  0  0  0  0  0  0  0  0  0
  142.6155  155.9525  135.6658 H   0  0  0  0  0  0  0  0  0  0  0  0
  141.7040  159.3070  135.5150 H   0  0  0  0  0  0  0  0  0  0  0  0
  142.4310  157.8300  135.8570 H   0  0  0  0  0  0  0  0  0  0  0  0
  142.8039  161.0845  134.5256 H   0  0  0  0  0  0  0  0  0  0  0  0
  144.9074  161.9198  133.4335 H   0  0  0  0  0  0  0  0  0  0  0  0
  147.4345  161.0685  132.4180 H   0  0  0  0  0  0  0  0  0  0  0  0
  149.5770  156.9380  133.1910 H   0  0  0  0  0  0  0  0  0  0  0  0
  145.8806  154.1167  135.1670 H   0  0  0  0  0  0  0  0  0  0  0  0
  145.2152  155.7234  134.7170 H   0  0  0  0  0  0  0  0  0  0  0  0
  144.1491  154.2777  134.7170 H   0  0  0  0  0  0  0  0  0  0  0  0
  146.7986  152.8993  134.0023 H   0  0  0  0  0  0  0  0  0  0  0  0
  146.0765  152.3615  132.4479 H   0  0  0  0  0  0  0  0  0  0  0  0
  147.4379  153.5332  132.4479 H   0  0  0  0  0  0  0  0  0  0  0  0
  143.4314  153.8108  132.9870 H   0  0  0  0  0  0  0  0  0  0  0  0
  143.9481  154.8817  131.6405 H   0  0  0  0  0  0  0  0  0  0  0  0
  144.4186  153.1481  131.6405 H   0  0  0  0  0  0  0  0  0  0  0  0
  144.2727  156.9869  134.2104 H   0  0  0  0  0  0  0  0  0  0  0  0
  139.0555  158.6701  131.7972 H   0  0  0  0  0  0  0  0  0  0  0  0
  139.4526  154.0593  132.2852 H   0  0  0  0  0  0  0  0  0  0  0  0
  142.8911  151.9949  132.8033 H   0  0  0  0  0  0  0  0  0  0  0  0
  142.4519  150.8650  134.1388 H   0  0  0  0  0  0  0  0  0  0  0  0
  142.3223  150.3939  131.3396 H   0  0  0  0  0  0  0  0  0  0  0  0
  141.7218  149.3437  132.6969 H   0  0  0  0  0  0  0  0  0  0  0  0
  139.7441  151.3421  132.3285 H   0  0  0  0  0  0  0  0  0  0  0  0
  140.1963  150.7956  130.6804 H   0  0  0  0  0  0  0  0  0  0  0  0
  141.2973  148.2928  131.6651 H   0  0  0  0  0  0  0  0  0  0  0  0
  139.9667  147.2344  132.2059 H   0  0  0  0  0  0  0  0  0  0  0  0
  140.6839  148.1488  129.4466 H   0  0  0  0  0  0  0  0  0  0  0  0
  139.7984  146.6993  129.9324 H   0  0  0  0  0  0  0  0  0  0  0  0
  138.7157  149.2322  129.0146 H   0  0  0  0  0  0  0  0  0  0  0  0
  137.7878  147.8168  129.5274 H   0  0  0  0  0  0  0  0  0  0  0  0
  137.8990  150.2526  130.9030 H   0  0  0  0  0  0  0  0  0  0  0  0
  137.4300  148.7021  131.6527 H   0  0  0  0  0  0  0  0  0  0  0  0
  1  2  1  0
  2  3  1  0
  3  4  2  0
  4  5  1  0
  5  6  2  0
  6  7  1  0
  7  8  1  0
  8  9  2  0
  9 10  1  0
 10 11  2  0
 11 12  1  0
 12 13  2  0
 13 14  1  0
 14 15  1  0
 14 16  2  0
 13 17  1  0
 17 18  1  0
 18 19  2  0
 18 20  1  0
 20 21  1  0
 21 22  1  0
 21 23  1  0
 21 24  1  0
 17 25  1  0
 25 26  2  0
  6 27  1  0
 27 28  2  0
 28 29  1  0
 29 30  2  0
 30 31  1  0
 31 32  2  0
 32 33  1  0
 33 34  1  0
 34 35  1  0
 35 36  1  0
 36 37  1  0
 37 38  1  0
 38 39  1  0
 39 40  1  0
 40 41  1  0
 32  3  1  0
 41 37  1  0
 30  5  1  0
 26  8  1  0
 25 11  1  0
  1 42  1  0
  1 43  1  0
  1 44  1  0
  4 45  1  0
  7 46  1  0
  7 47  1  0
  9 48  1  0
 10 49  1  0
 12 50  1  0
 15 51  1  0
 22 52  1  0
 22 53  1  0
 22 54  1  0
 23 55  1  0
 23 56  1  0
 23 57  1  0
 24 58  1  0
 24 59  1  0
 24 60  1  0
 26 61  1  0
 28 62  1  0
 31 63  1  0
 34 64  1  0
 34 65  1  0
 35 66  1  0
 35 67  1  0
 36 68  1  0
 36 69  1  0
 38 70  1  0
 38 71  1  0
 39 72  1  0
 39 73  1  0
 40 74  1  0
 40 75  1  0
 41 76  1  0
 41 77  1  0
M  CHG  2   7   1  15  -1
M  END
>  <UniqueID>  (51) 
51

>  <SMILES>  (51) 
COc1cc2c([NH2+]c3ccc4cc(C([NH-])=O)n(C(=O)OC(C)(C)C)c4c3)ncnc2cc1OCCCN1CCCC1

>  <Energy>  (51) 
126.99070854450537

>  <Genealogy>  (51) 
COc1cc2c([NH2+]c3ccc4cc(C([NH-])=O)n(C(=O)OC(C)(C)C)c4c3)ncnc2cc1OCCCN1CCCC1 (protonated)
COc1cc2c([NH2+]c3ccc4cc(C([NH-])=O)n(C(=O)OC(C)(C)C)c4c3)ncnc2cc1OCCCN1CCCC1 (3D coordinates assigned)
COc1cc2c([NH2+]c3ccc4cc(C([NH-])=O)n(C(=O)OC(C)(C)C)c4c3)ncnc2cc1OCCCN1CCCC1 (nonaromatic ring conformer: 126.99070854450537 kcal/mol)

>  <smiles>  (51) 
COc1cc2c(Nc3ccc4cc(C(N)=O)n(C(=O)OC(C)(C)C)c4c3)ncnc2cc1OCCCN1CCCC1

>  <score_type>  (51) 
oracle

>  <origin>  (51) 
adg

>  <m_score__min__energy>  (51) 
-10.210000000000001

>  <m_primary>  (51) 
energy

$$$$
51:0
     RDKit          3D

 60 63  0  0  0  0  0  0  0  0999 V2000
  141.5260  158.7580  137.4620 C   0  0  0  0  0  0  0  0  0  0  0  0
  141.3460  159.3080  136.4040 C   0  0  0  0  0  0  0  0  0  0  0  0
  141.1340  159.9760  135.1160 C   0  0  0  0  0  0  0  0  0  0  0  0
  141.8630  159.2640  134.0540 N   0  0  0  0  0  0  0  0  0  0  0  0
  143.2490  159.5810  133.8340 C   0  0  0  0  0  0  0  0  0  0  0  0
  143.7010  160.9190  133.9360 C   0  0  0  0  0  0  0  0  0  0  0  0
  145.0560  161.2320  133.7380 C   0  0  0  0  0  0  0  0  0  0  0  0
  145.9280  160.1910  133.4290 C   0  0  0  0  0  0  0  0  0  0  0  0
  147.2880  160.2080  133.2180 C   0  0  0  0  0  0  0  0  0  0  0  0
  147.6380  158.8830  132.9620 C   0  0  0  0  0  0  0  0  0  0  0  0
  149.0060  158.4590  132.6020 C   0  0  0  0  0  0  0  0  0  0  0  0
  149.3500  157.0790  132.5270 N   0  0  0  0  0  0  0  0  0  0  0  0
  149.8720  159.3270  132.3100 O   0  0  0  0  0  0  0  0  0  0  0  0
  146.5400  158.0790  133.0170 N   0  0  0  0  0  0  0  0  0  0  0  0
  146.4940  156.6470  132.9070 C   0  0  0  0  0  0  0  0  0  0  0  0
  146.9280  156.0870  131.8650 O   0  0  0  0  0  0  0  0  0  0  0  0
  145.9480  155.8930  133.9560 O   0  0  0  0  0  0  0  0  0  0  0  0
  144.7260  155.1400  133.9150 C   0  0  0  0  0  0  0  0  0  0  0  0
  143.8480  155.4700  135.1370 C   0  0  0  0  0  0  0  0  0  0  0  0
  143.9610  155.4110  132.6060 C   0  0  0  0  0  0  0  0  0  0  0  0
  145.1090  153.6530  133.9660 C   0  0  0  0  0  0  0  0  0  0  0  0
  145.5010  158.8940  133.3050 C   0  0  0  0  0  0  0  0  0  0  0  0
  144.1620  158.5520  133.5190 C   0  0  0  0  0  0  0  0  0  0  0  0
  141.2510  158.1810  133.2590 C   0  0  1  0  0  0  0  0  0  0  0  0
  140.8570  156.9920  134.1600 C   0  0  0  0  0  0  0  0  0  0  0  0
  139.4790  157.1730  134.7960 C   0  0  0  0  0  0  0  0  0  0  0  0
  138.4010  157.3230  133.7190 C   0  0  0  0  0  0  0  0  0  0  0  0
  138.7650  158.3470  132.6730 C   0  0  0  0  0  0  0  0  0  0  0  0
  137.7580  158.8990  131.8690 C   0  0  0  0  0  0  0  0  0  0  0  0
  138.0850  159.7970  130.8520 C   0  0  0  0  0  0  0  0  0  0  0  0
  139.4220  160.1280  130.6370 C   0  0  0  0  0  0  0  0  0  0  0  0
  140.3920  159.5780  131.4120 N   0  0  0  0  0  0  0  0  0  0  0  0
  140.1090  158.6960  132.4100 C   0  0  0  0  0  0  0  0  0  0  0  0
  141.6902  158.2563  138.4271 H   0  0  0  0  0  0  0  0  0  0  0  0
  140.0595  159.9804  134.8804 H   0  0  0  0  0  0  0  0  0  0  0  0
  141.5062  161.0092  135.1794 H   0  0  0  0  0  0  0  0  0  0  0  0
  142.9851  161.7200  134.1723 H   0  0  0  0  0  0  0  0  0  0  0  0
  145.4172  162.2674  133.8244 H   0  0  0  0  0  0  0  0  0  0  0  0
  147.9565  161.0811  133.2455 H   0  0  0  0  0  0  0  0  0  0  0  0
  149.0400  156.4900  131.7230 H   0  0  0  0  0  0  0  0  0  0  0  0
  144.4091  155.2591  136.0593 H   0  0  0  0  0  0  0  0  0  0  0  0
  143.5700  156.5340  135.1121 H   0  0  0  0  0  0  0  0  0  0  0  0
  142.9380  154.8526  135.1121 H   0  0  0  0  0  0  0  0  0  0  0  0
  142.9480  155.7698  132.8409 H   0  0  0  0  0  0  0  0  0  0  0  0
  144.4942  156.1749  132.0211 H   0  0  0  0  0  0  0  0  0  0  0  0
  143.8944  154.4818  132.0211 H   0  0  0  0  0  0  0  0  0  0  0  0
  145.1918  153.3315  135.0147 H   0  0  0  0  0  0  0  0  0  0  0  0
  144.3349  153.0574  133.4599 H   0  0  0  0  0  0  0  0  0  0  0  0
  146.0745  153.5055  133.4599 H   0  0  0  0  0  0  0  0  0  0  0  0
  143.8286  157.5065  133.4436 H   0  0  0  0  0  0  0  0  0  0  0  0
  142.0015  157.7987  132.5514 H   0  0  0  0  0  0  0  0  0  0  0  0
  140.8473  156.0758  133.5513 H   0  0  0  0  0  0  0  0  0  0  0  0
  141.5953  156.9288  134.9729 H   0  0  0  0  0  0  0  0  0  0  0  0
  139.2495  156.2942  135.4166 H   0  0  0  0  0  0  0  0  0  0  0  0
  139.4913  158.0835  135.4131 H   0  0  0  0  0  0  0  0  0  0  0  0
  138.2584  156.3504  133.2253 H   0  0  0  0  0  0  0  0  0  0  0  0
  137.4804  157.6653  134.2143 H   0  0  0  0  0  0  0  0  0  0  0  0
  136.7069  158.6235  132.0402 H   0  0  0  0  0  0  0  0  0  0  0  0
  137.2957  160.2392  130.2263 H   0  0  0  0  0  0  0  0  0  0  0  0
  139.6915  160.8353  129.8388 H   0  0  0  0  0  0  0  0  0  0  0  0
  1  2  3  0
  2  3  1  0
  3  4  1  0
  4  5  1  0
  5  6  2  0
  6  7  1  0
  7  8  2  0
  8  9  1  0
  9 10  2  0
 10 11  1  0
 11 12  1  0
 11 13  2  0
 10 14  1  0
 14 15  1  0
 15 16  2  0
 15 17  1  0
 17 18  1  0
 18 19  1  0
 18 20  1  0
 18 21  1  0
 14 22  1  0
 22 23  2  0
  4 24  1  0
 24 25  1  0
 25 26  1  0
 26 27  1  0
 27 28  1  0
 28 29  2  0
 29 30  1  0
 30 31  2  0
 31 32  1  0
 32 33  2  0
 23  5  1  0
 33 24  1  0
 22  8  1  0
 33 28  1  0
  1 34  1  0
  3 35  1  0
  3 36  1  0
  6 37  1  0
  7 38  1  0
  9 39  1  0
 12 40  1  0
 19 41  1  0
 19 42  1  0
 19 43  1  0
 20 44  1  0
 20 45  1  0
 20 46  1  0
 21 47  1  0
 21 48  1  0
 21 49  1  0
 23 50  1  0
 24 51  1  6
 25 52  1  0
 25 53  1  0
 26 54  1  0
 26 55  1  0
 27 56  1  0
 27 57  1  0
 29 58  1  0
 30 59  1  0
 31 60  1  0
M  CHG  1  12  -1
M  END
>  <UniqueID>  (52) 
52

>  <SMILES>  (52) 
C#CCN(c1ccc2cc(C([NH-])=O)n(C(=O)OC(C)(C)C)c2c1)[C@H]1CCCc2cccnc21

>  <Energy>  (52) 
100.09754180009546

>  <Genealogy>  (52) 
C#CCN(c1ccc2cc(C([NH-])=O)n(C(=O)OC(C)(C)C)c2c1)[C@H]1CCCc2cccnc21 (protonated)
C#CCN(c1ccc2cc(C([NH-])=O)n(C(=O)OC(C)(C)C)c2c1)[C@H]1CCCc2cccnc21 (3D coordinates assigned)
C#CCN(c1ccc2cc(C([NH-])=O)n(C(=O)OC(C)(C)C)c2c1)[C@H]1CCCc2cccnc21 (nonaromatic ring conformer: 100.09754180009546 kcal/mol)

>  <smiles>  (52) 
C#CCN(c1ccc2cc(C(N)=O)n(C(=O)OC(C)(C)C)c2c1)[C@H]1CCCc2cccnc21

>  <score_type>  (52) 
oracle

>  <origin>  (52) 
adg

>  <m_score__min__energy>  (52) 
-9.9299999999999997

>  <m_primary>  (52) 
energy

$$$$
52:0
     RDKit          3D

 58 61  0  0  0  0  0  0  0  0999 V2000
  144.4610  154.5160  131.3260 C   0  0  0  0  0  0  0  0  0  0  0  0
  145.2280  154.5790  132.6620 C   0  0  0  0  0  0  0  0  0  0  0  0
  144.2570  154.7830  133.8420 C   0  0  0  0  0  0  0  0  0  0  0  0
  145.9850  153.2560  132.8600 C   0  0  0  0  0  0  0  0  0  0  0  0
  146.2090  155.6250  132.6250 O   0  0  0  0  0  0  0  0  0  0  0  0
  146.5090  156.5250  133.6590 C   0  0  0  0  0  0  0  0  0  0  0  0
  146.9140  156.1160  134.7800 O   0  0  0  0  0  0  0  0  0  0  0  0
  146.3270  157.9300  133.4380 N   0  0  0  0  0  0  0  0  0  0  0  0
  147.2220  158.8260  132.9330 C   0  0  0  0  0  0  0  0  0  0  0  0
  148.5630  158.4920  132.4020 C   0  0  0  0  0  0  0  0  0  0  0  0
  148.8490  157.1840  131.8980 N   0  0  0  0  0  0  0  0  0  0  0  0
  149.4800  159.3570  132.4130 O   0  0  0  0  0  0  0  0  0  0  0  0
  146.6550  160.1010  132.8880 C   0  0  0  0  0  0  0  0  0  0  0  0
  145.3780  159.9530  133.3810 C   0  0  0  0  0  0  0  0  0  0  0  0
  144.3700  160.8960  133.5610 C   0  0  0  0  0  0  0  0  0  0  0  0
  143.1500  160.4580  134.1030 C   0  0  0  0  0  0  0  0  0  0  0  0
  142.9610  159.0960  134.4510 C   0  0  0  0  0  0  0  0  0  0  0  0
  141.6840  158.6570  135.0490 C   0  0  0  0  0  0  0  0  0  0  0  0
  141.4910  158.8710  136.4250 C   0  0  0  0  0  0  0  0  0  0  0  0
  140.3100  158.4700  137.0490 C   0  0  0  0  0  0  0  0  0  0  0  0
  139.3000  157.8620  136.3060 C   0  0  0  0  0  0  0  0  0  0  0  0
  139.4670  157.6490  134.9360 C   0  0  0  0  0  0  0  0  0  0  0  0
  140.6580  158.0300  134.2880 C   0  0  0  0  0  0  0  0  0  0  0  0
  140.7510  157.8310  132.7900 C   0  0  0  0  0  0  0  0  0  0  0  0
  139.6860  158.6210  132.0780 C   0  0  0  0  0  0  0  0  0  0  0  0
  140.0390  159.7280  131.2850 C   0  0  0  0  0  0  0  0  0  0  0  0
  139.0530  160.4610  130.6170 C   0  0  0  0  0  0  0  0  0  0  0  0
  137.7110  160.0880  130.7250 C   0  0  0  0  0  0  0  0  0  0  0  0
  137.3520  158.9820  131.5020 C   0  0  0  0  0  0  0  0  0  0  0  0
  138.3330  158.2520  132.1810 C   0  0  0  0  0  0  0  0  0  0  0  0
  144.0160  158.1760  134.2780 C   0  0  0  0  0  0  0  0  0  0  0  0
  145.2090  158.6340  133.7090 C   0  0  0  0  0  0  0  0  0  0  0  0
  143.3830  154.4275  131.5259 H   0  0  0  0  0  0  0  0  0  0  0  0
  144.6529  155.4329  130.7494 H   0  0  0  0  0  0  0  0  0  0  0  0
  144.7999  153.6427  130.7494 H   0  0  0  0  0  0  0  0  0  0  0  0
  144.8029  154.6683  134.7901 H   0  0  0  0  0  0  0  0  0  0  0  0
  143.8223  155.7921  133.7889 H   0  0  0  0  0  0  0  0  0  0  0  0
  143.4530  154.0342  133.7889 H   0  0  0  0  0  0  0  0  0  0  0  0
  146.0992  153.0564  133.9357 H   0  0  0  0  0  0  0  0  0  0  0  0
  145.4192  152.4364  132.3930 H   0  0  0  0  0  0  0  0  0  0  0  0
  146.9783  153.3285  132.3930 H   0  0  0  0  0  0  0  0  0  0  0  0
  148.1080  156.4540  131.8310 H   0  0  0  0  0  0  0  0  0  0  0  0
  149.8120  156.9490  131.5670 H   0  0  0  0  0  0  0  0  0  0  0  0
  147.1286  161.0283  132.5334 H   0  0  0  0  0  0  0  0  0  0  0  0
  144.5237  161.9503  133.2877 H   0  0  0  0  0  0  0  0  0  0  0  0
  142.3334  161.1783  134.2590 H   0  0  0  0  0  0  0  0  0  0  0  0
  142.2798  159.3599  137.0157 H   0  0  0  0  0  0  0  0  0  0  0  0
  140.1757  158.6338  138.1284 H   0  0  0  0  0  0  0  0  0  0  0  0
  138.3684  157.5489  136.8001 H   0  0  0  0  0  0  0  0  0  0  0  0
  138.6592  157.1783  134.3564 H   0  0  0  0  0  0  0  0  0  0  0  0
  141.7400  158.1645  132.4427 H   0  0  0  0  0  0  0  0  0  0  0  0
  140.6063  156.7636  132.5668 H   0  0  0  0  0  0  0  0  0  0  0  0
  141.0957  160.0185  131.1899 H   0  0  0  0  0  0  0  0  0  0  0  0
  139.3342  161.3316  130.0063 H   0  0  0  0  0  0  0  0  0  0  0  0
  136.9362  160.6646  130.1985 H   0  0  0  0  0  0  0  0  0  0  0  0
  136.2956  158.6855  131.5793 H   0  0  0  0  0  0  0  0  0  0  0  0
  138.0454  157.3872  132.7970 H   0  0  0  0  0  0  0  0  0  0  0  0
  143.9035  157.1251  134.5828 H   0  0  0  0  0  0  0  0  0  0  0  0
  1  2  1  0
  2  3  1  0
  2  4  1  0
  2  5  1  0
  5  6  1  0
  6  7  2  0
  6  8  1  0
  8  9  1  0
  9 10  1  0
 10 11  1  0
 10 12  2  0
  9 13  2  0
 13 14  1  0
 14 15  2  0
 15 16  1  0
 16 17  2  0
 17 18  1  0
 18 19  2  0
 19 20  1  0
 20 21  2  0
 21 22  1  0
 22 23  2  0
 23 24  1  0
 24 25  1  0
 25 26  2  0
 26 27  1  0
 27 28  2  0
 28 29  1  0
 29 30  2  0
 17 31  1  0
 31 32  2  0
 32  8  1  0
 32 14  1  0
 23 18  1  0
 30 25  1  0
  1 33  1  0
  1 34  1  0
  1 35  1  0
  3 36  1  0
  3 37  1  0
  3 38  1  0
  4 39  1  0
  4 40  1  0
  4 41  1  0
 11 42  1  0
 11 43  1  0
 13 44  1  0
 15 45  1  0
 16 46  1  0
 19 47  1  0
 20 48  1  0
 21 49  1  0
 22 50  1  0
 24 51  1  0
 24 52  1  0
 26 53  1  0
 27 54  1  0
 28 55  1  0
 29 56  1  0
 30 57  1  0
 31 58  1  0
M  END
>  <UniqueID>  (53) 
53

>  <SMILES>  (53) 
CC(C)(C)OC(=O)n1c(C(N)=O)cc2ccc(-c3ccccc3Cc3ccccc3)cc21

>  <Energy>  (53) 
101.38689021898446

>  <Genealogy>  (53) 
CC(C)(C)OC(=O)n1c(C(N)=O)cc2ccc(-c3ccccc3Cc3ccccc3)cc21 (3D coordinates assigned)
CC(C)(C)OC(=O)n1c(C(N)=O)cc2ccc(-c3ccccc3Cc3ccccc3)cc21 (optimized conformer: 101.38689021898446 kcal/mol)

>  <smiles>  (53) 
CC(C)(C)OC(=O)n1c(C(N)=O)cc2ccc(-c3ccccc3Cc3ccccc3)cc21

>  <score_type>  (53) 
oracle

>  <origin>  (53) 
adg

>  <m_score__min__energy>  (53) 
-10.93

>  <m_primary>  (53) 
energy

$$$$
53:0
     RDKit          3D

 46 49  0  0  0  0  0  0  0  0999 V2000
  145.3650  162.4130  134.4890 C   0  0  0  0  0  0  0  0  0  0  0  0
  145.6490  161.0820  133.8810 C   0  0  0  0  0  0  0  0  0  0  0  0
  146.8970  160.6220  133.6500 N   0  0  0  0  0  0  0  0  0  0  0  0
  146.8850  159.3610  133.1390 C   0  0  0  0  0  0  0  0  0  0  0  0
  148.1550  158.6250  132.8420 C   0  0  0  0  0  0  0  0  0  0  0  0
  148.4300  157.6550  133.8970 N   0  0  0  0  0  0  0  0  0  0  0  0
  147.6390  156.4760  134.0930 C   0  0  0  0  0  0  0  0  0  0  0  0
  148.0900  155.2610  133.6770 N   0  0  0  0  0  0  0  0  0  0  0  0
  147.3450  154.1400  133.8510 C   0  0  0  0  0  0  0  0  0  0  0  0
  146.1000  154.2220  134.4730 C   0  0  0  0  0  0  0  0  0  0  0  0
  145.6530  155.4740  134.9190 C   0  0  0  0  0  0  0  0  0  0  0  0
  144.3690  155.6340  135.5430 N   0  0  0  0  0  0  0  0  0  0  0  0
  143.1490  155.9070  134.8340 C   0  0  0  0  0  0  0  0  0  0  0  0
  142.4250  154.8310  134.2670 C   0  0  0  0  0  0  0  0  0  0  0  0
  141.2350  155.0610  133.5590 C   0  0  0  0  0  0  0  0  0  0  0  0
  140.8060  156.3770  133.4120 C   0  0  0  0  0  0  0  0  0  0  0  0
  139.6810  156.8750  132.8000 C   0  0  0  0  0  0  0  0  0  0  0  0
  139.7600  158.2560  132.9550 C   0  0  0  0  0  0  0  0  0  0  0  0
  138.7720  159.1940  132.3850 C   0  0  0  0  0  0  0  0  0  0  0  0
  139.0800  160.5770  132.2090 N   0  0  0  0  0  0  0  0  0  0  0  0
  137.6580  158.7550  131.9940 O   0  0  0  0  0  0  0  0  0  0  0  0
  140.8840  158.6010  133.6460 N   0  0  0  0  0  0  0  0  0  0  0  0
  141.2580  159.9110  134.1070 C   0  0  0  0  0  0  0  0  0  0  0  0
  141.5360  160.8200  133.2800 O   0  0  0  0  0  0  0  0  0  0  0  0
  141.3170  160.1910  135.4650 O   0  0  0  0  0  0  0  0  0  0  0  0
  141.5160  157.4360  133.9180 C   0  0  0  0  0  0  0  0  0  0  0  0
  142.6940  157.2330  134.6460 C   0  0  0  0  0  0  0  0  0  0  0  0
  146.4260  156.5720  134.7020 N   0  0  0  0  0  0  0  0  0  0  0  0
  145.6200  158.7980  132.9820 C   0  0  0  0  0  0  0  0  0  0  0  0
  144.4870  159.9300  133.4960 S   0  0  0  0  0  0  0  0  0  0  0  0
  145.3834  162.3267  135.5855 H   0  0  0  0  0  0  0  0  0  0  0  0
  146.1294  163.1347  134.1651 H   0  0  0  0  0  0  0  0  0  0  0  0
  144.3726  162.7598  134.1651 H   0  0  0  0  0  0  0  0  0  0  0  0
  148.0547  158.0990  131.8811 H   0  0  0  0  0  0  0  0  0  0  0  0
  148.9849  159.3450  132.7892 H   0  0  0  0  0  0  0  0  0  0  0  0
  149.2350  157.8310  134.5400 H   0  0  0  0  0  0  0  0  0  0  0  0
  147.7231  153.1679  133.5017 H   0  0  0  0  0  0  0  0  0  0  0  0
  145.4811  153.3231  134.6111 H   0  0  0  0  0  0  0  0  0  0  0  0
  144.3230  155.5350  136.5820 H   0  0  0  0  0  0  0  0  0  0  0  0
  142.7991  153.8030  134.3825 H   0  0  0  0  0  0  0  0  0  0  0  0
  140.6588  154.2264  133.1332 H   0  0  0  0  0  0  0  0  0  0  0  0
  138.8875  156.3042  132.2954 H   0  0  0  0  0  0  0  0  0  0  0  0
  140.0470  160.9380  132.3700 H   0  0  0  0  0  0  0  0  0  0  0  0
  138.3560  161.2330  131.8420 H   0  0  0  0  0  0  0  0  0  0  0  0
  143.2527  158.0844  135.0620 H   0  0  0  0  0  0  0  0  0  0  0  0
  145.4015  157.7931  132.5917 H   0  0  0  0  0  0  0  0  0  0  0  0
  1  2  1  0
  2  3  2  0
  3  4  1  0
  4  5  1  0
  5  6  1  0
  6  7  1  0
  7  8  2  0
  8  9  1  0
  9 10  2  0
 10 11  1  0
 11 12  1  0
 12 13  1  0
 13 14  2  0
 14 15  1  0
 15 16  2  0
 16 17  1  0
 17 18  2  0
 18 19  1  0
 19 20  1  0
 19 21  2  0
 18 22  1  0
 22 23  1  0
 23 24  2  0
 23 25  1  0
 22 26  1  0
 26 27  2  0
 11 28  2  0
  4 29  2  0
 29 30  1  0
 30  2  1  0
 28  7  1  0
 27 13  1  0
 26 16  1  0
  1 31  1  0
  1 32  1  0
  1 33  1  0
  5 34  1  0
  5 35  1  0
  6 36  1  0
  9 37  1  0
 10 38  1  0
 12 39  1  0
 14 40  1  0
 15 41  1  0
 17 42  1  0
 20 43  1  0
 20 44  1  0
 27 45  1  0
 29 46  1  0
M  CHG  1  25  -1
M  END
>  <UniqueID>  (54) 
54

>  <SMILES>  (54) 
Cc1nc(CNc2nccc(Nc3ccc4cc(C(N)=O)n(C(=O)[O-])c4c3)n2)cs1

>  <Energy>  (54) 
121.11215085293678

>  <Genealogy>  (54) 
Cc1nc(CNc2nccc(Nc3ccc4cc(C(N)=O)n(C(=O)[O-])c4c3)n2)cs1 (protonated)
Cc1nc(CNc2nccc(Nc3ccc4cc(C(N)=O)n(C(=O)[O-])c4c3)n2)cs1 (3D coordinates assigned)
Cc1nc(CNc2nccc(Nc3ccc4cc(C(N)=O)n(C(=O)[O-])c4c3)n2)cs1 (optimized conformer: 121.11215085293678 kcal/mol)

>  <smiles>  (54) 
Cc1nc(CNc2nccc(Nc3ccc4cc(C(N)=O)n(C(=O)O)c4c3)n2)cs1

>  <score_type>  (54) 
oracle

>  <origin>  (54) 
adg

>  <m_score__min__energy>  (54) 
-9.4900000000000002

>  <m_primary>  (54) 
energy

$$$$
54:0
     RDKit          3D

 42 44  0  0  0  0  0  0  0  0999 V2000
  149.6120  160.7660  129.8730 C   0  0  0  0  0  0  0  0  0  0  0  0
  149.4220  160.7660  131.2970 O   0  0  0  0  0  0  0  0  0  0  0  0
  148.6480  159.8200  131.9900 C   0  0  0  0  0  0  0  0  0  0  0  0
  147.3420  160.0920  132.4270 C   0  0  0  0  0  0  0  0  0  0  0  0
  146.5780  159.0960  133.0570 C   0  0  0  0  0  0  0  0  0  0  0  0
  145.1570  159.3380  133.3900 C   0  0  0  0  0  0  0  0  0  0  0  0
  144.6380  160.6590  133.4150 C   0  0  0  0  0  0  0  0  0  0  0  0
  143.2890  160.8990  133.7270 C   0  0  0  0  0  0  0  0  0  0  0  0
  142.4800  159.8010  134.0000 C   0  0  0  0  0  0  0  0  0  0  0  0
  141.1500  159.7420  134.3550 C   0  0  0  0  0  0  0  0  0  0  0  0
  140.8750  158.3860  134.5290 C   0  0  0  0  0  0  0  0  0  0  0  0
  139.5550  157.8530  134.9390 C   0  0  0  0  0  0  0  0  0  0  0  0
  139.1550  157.8700  136.3110 N   0  0  0  0  0  0  0  0  0  0  0  0
  138.7790  157.3640  134.0640 O   0  0  0  0  0  0  0  0  0  0  0  0
  141.9900  157.6390  134.2860 N   0  0  0  0  0  0  0  0  0  0  0  0
  142.1480  156.2160  134.4130 C   0  0  0  0  0  0  0  0  0  0  0  0
  142.4270  155.5340  133.3880 O   0  0  0  0  0  0  0  0  0  0  0  0
  142.0220  155.5820  135.6990 N   0  0  0  0  0  0  0  0  0  0  0  0
  141.9970  156.4060  136.9190 C   0  0  0  0  0  0  0  0  0  0  0  0
  141.9990  154.1150  135.7730 C   0  0  0  0  0  0  0  0  0  0  0  0
  142.9600  158.5170  133.9690 C   0  0  0  0  0  0  0  0  0  0  0  0
  144.3030  158.2480  133.6810 C   0  0  0  0  0  0  0  0  0  0  0  0
  147.1760  157.8510  133.3040 C   0  0  0  0  0  0  0  0  0  0  0  0
  148.4410  157.6090  132.8840 N   0  0  0  0  0  0  0  0  0  0  0  0
  149.1780  158.5480  132.2320 C   0  0  0  0  0  0  0  0  0  0  0  0
  150.3440  158.2700  131.8480 O   0  0  0  0  0  0  0  0  0  0  0  0
  149.6605  159.7289  129.5096 H   0  0  0  0  0  0  0  0  0  0  0  0
  148.7702  161.2846  129.3908 H   0  0  0  0  0  0  0  0  0  0  0  0
  150.5507  161.2846  129.6283 H   0  0  0  0  0  0  0  0  0  0  0  0
  146.9134  161.0936  132.2747 H   0  0  0  0  0  0  0  0  0  0  0  0
  145.3010  161.5066  133.1870 H   0  0  0  0  0  0  0  0  0  0  0  0
  142.8859  161.9221  133.7545 H   0  0  0  0  0  0  0  0  0  0  0  0
  140.4535  160.5849  134.4755 H   0  0  0  0  0  0  0  0  0  0  0  0
  139.1100  158.7720  136.8370 H   0  0  0  0  0  0  0  0  0  0  0  0
  142.0168  155.7523  137.8035 H   0  0  0  0  0  0  0  0  0  0  0  0
  142.8755  157.0679  136.9325 H   0  0  0  0  0  0  0  0  0  0  0  0
  141.0800  157.0134  136.9325 H   0  0  0  0  0  0  0  0  0  0  0  0
  141.9941  153.8011  136.8272 H   0  0  0  0  0  0  0  0  0  0  0  0
  141.0948  153.7368  135.2736 H   0  0  0  0  0  0  0  0  0  0  0  0
  142.8909  153.7086  135.2736 H   0  0  0  0  0  0  0  0  0  0  0  0
  144.6846  157.2163  133.6809 H   0  0  0  0  0  0  0  0  0  0  0  0
  146.6166  157.0699  133.8397 H   0  0  0  0  0  0  0  0  0  0  0  0
  1  2  1  0
  2  3  1  0
  3  4  2  0
  4  5  1  0
  5  6  1  0
  6  7  2  0
  7  8  1  0
  8  9  2  0
  9 10  1  0
 10 11  2  0
 11 12  1  0
 12 13  1  0
 12 14  2  0
 11 15  1  0
 15 16  1  0
 16 17  2  0
 16 18  1  0
 18 19  1  0
 18 20  1  0
 15 21  1  0
 21 22  2  0
  5 23  2  0
 23 24  1  0
 24 25  1  0
 25 26  2  0
 25  3  1  0
 22  6  1  0
 21  9  1  0
  1 27  1  0
  1 28  1  0
  1 29  1  0
  4 30  1  0
  7 31  1  0
  8 32  1  0
 10 33  1  0
 13 34  1  0
 19 35  1  0
 19 36  1  0
 19 37  1  0
 20 38  1  0
 20 39  1  0
 20 40  1  0
 22 41  1  0
 23 42  1  0
M  CHG  2  13  -1  24  -1
M  END
>  <UniqueID>  (55) 
55

>  <SMILES>  (55) 
COc1cc(-c2ccc3cc(C([NH-])=O)n(C(=O)N(C)C)c3c2)c[n-]c1=O

>  <Energy>  (55) 
89.70496974990864

>  <Genealogy>  (55) 
COc1cc(-c2ccc3cc(C([NH-])=O)n(C(=O)N(C)C)c3c2)c[n-]c1=O (protonated)
COc1cc(-c2ccc3cc(C([NH-])=O)n(C(=O)N(C)C)c3c2)c[n-]c1=O (3D coordinates assigned)
COc1cc(-c2ccc3cc(C([NH-])=O)n(C(=O)N(C)C)c3c2)c[n-]c1=O (optimized conformer: 89.70496974990864 kcal/mol)

>  <smiles>  (55) 
COc1cc(-c2ccc3cc(C(N)=O)n(C(=O)N(C)C)c3c2)c[nH]c1=O

>  <score_type>  (55) 
oracle

>  <origin>  (55) 
adg

>  <m_score__min__energy>  (55) 
-7.6699999999999999

>  <m_primary>  (55) 
energy

$$$$
55:0
     RDKit          3D

 37 38  0  0  0  0  0  0  0  0999 V2000
  140.8330  159.3520  133.8590 C   0  0  0  0  0  0  0  0  0  0  0  0
  141.6120  158.6690  135.0000 C   0  0  0  0  0  0  0  0  0  0  0  0
  141.2260  159.3330  136.3300 C   0  0  0  0  0  0  0  0  0  0  0  0
  141.2690  157.1690  135.0720 C   0  0  0  0  0  0  0  0  0  0  0  0
  143.0240  158.8570  134.8290 O   0  0  0  0  0  0  0  0  0  0  0  0
  143.7540  158.6570  133.6480 C   0  0  0  0  0  0  0  0  0  0  0  0
  143.2510  158.0390  132.6710 O   0  0  0  0  0  0  0  0  0  0  0  0
  145.0820  159.1920  133.5440 N   0  0  0  0  0  0  0  0  0  0  0  0
  145.4850  160.4830  133.7170 C   0  0  0  0  0  0  0  0  0  0  0  0
  144.5990  161.6490  133.9240 C   0  0  0  0  0  0  0  0  0  0  0  0
  143.1940  161.5140  133.7310 N   0  0  0  0  0  0  0  0  0  0  0  0
  145.0670  162.7550  134.3020 O   0  0  0  0  0  0  0  0  0  0  0  0
  146.8690  160.5840  133.5870 C   0  0  0  0  0  0  0  0  0  0  0  0
  147.3050  159.3070  133.3200 C   0  0  0  0  0  0  0  0  0  0  0  0
  148.5940  158.8280  133.0990 C   0  0  0  0  0  0  0  0  0  0  0  0
  148.7540  157.4520  132.8640 C   0  0  0  0  0  0  0  0  0  0  0  0
  147.6330  156.5840  132.8720 C   0  0  0  0  0  0  0  0  0  0  0  0
  147.8130  155.1200  132.5970 C   0  0  0  0  0  0  0  0  0  0  0  0
  147.7480  154.2100  134.1260 Cl  0  0  0  0  0  0  0  0  0  0  0  0
  146.3400  157.1080  133.0870 C   0  0  0  0  0  0  0  0  0  0  0  0
  146.2090  158.4850  133.3000 C   0  0  0  0  0  0  0  0  0  0  0  0
  140.0703  160.0207  134.2847 H   0  0  0  0  0  0  0  0  0  0  0  0
  141.5284  159.9367  133.2390 H   0  0  0  0  0  0  0  0  0  0  0  0
  140.3442  158.5861  133.2390 H   0  0  0  0  0  0  0  0  0  0  0  0
  141.5852  158.7151  137.1661 H   0  0  0  0  0  0  0  0  0  0  0  0
  141.6846  160.3311  136.3882 H   0  0  0  0  0  0  0  0  0  0  0  0
  140.1317  159.4283  136.3882 H   0  0  0  0  0  0  0  0  0  0  0  0
  141.1982  156.8592  136.1251 H   0  0  0  0  0  0  0  0  0  0  0  0
  140.3064  156.9885  134.5712 H   0  0  0  0  0  0  0  0  0  0  0  0
  142.0575  156.5881  134.5712 H   0  0  0  0  0  0  0  0  0  0  0  0
  142.7660  160.5810  133.5370 H   0  0  0  0  0  0  0  0  0  0  0  0
  147.4826  161.4924  133.6785 H   0  0  0  0  0  0  0  0  0  0  0  0
  149.4601  159.5061  133.1081 H   0  0  0  0  0  0  0  0  0  0  0  0
  149.7576  157.0447  132.6722 H   0  0  0  0  0  0  0  0  0  0  0  0
  147.0107  154.7719  131.9299 H   0  0  0  0  0  0  0  0  0  0  0  0
  148.7892  154.9567  132.1170 H   0  0  0  0  0  0  0  0  0  0  0  0
  145.4579  156.4508  133.0871 H   0  0  0  0  0  0  0  0  0  0  0  0
  1  2  1  0
  2  3  1  0
  2  4  1  0
  2  5  1  0
  5  6  1  0
  6  7  2  0
  6  8  1  0
  8  9  1  0
  9 10  1  0
 10 11  1  0
 10 12  2  0
  9 13  2  0
 13 14  1  0
 14 15  2  0
 15 16  1  0
 16 17  2  0
 17 18  1  0
 18 19  1  0
 17 20  1  0
 20 21  2  0
 21  8  1  0
 21 14  1  0
  1 22  1  0
  1 23  1  0
  1 24  1  0
  3 25  1  0
  3 26  1  0
  3 27  1  0
  4 28  1  0
  4 29  1  0
  4 30  1  0
 11 31  1  0
 13 32  1  0
 15 33  1  0
 16 34  1  0
 18 35  1  0
 18 36  1  0
 20 37  1  0
M  CHG  1  11  -1
M  END
>  <UniqueID>  (56) 
56

>  <SMILES>  (56) 
CC(C)(C)OC(=O)n1c(C([NH-])=O)cc2ccc(CCl)cc21

>  <Energy>  (56) 
69.63999822167861

>  <Genealogy>  (56) 
CC(C)(C)OC(=O)n1c(C([NH-])=O)cc2ccc(CCl)cc21 (protonated)
CC(C)(C)OC(=O)n1c(C([NH-])=O)cc2ccc(CCl)cc21 (3D coordinates assigned)
CC(C)(C)OC(=O)n1c(C([NH-])=O)cc2ccc(CCl)cc21 (optimized conformer: 69.63999822167861 kcal/mol)

>  <smiles>  (56) 
CC(C)(C)OC(=O)n1c(C(N)=O)cc2ccc(CCl)cc21

>  <score_type>  (56) 
oracle

>  <origin>  (56) 
adg

>  <m_score__min__energy>  (56) 
-7.0599999999999996

>  <m_primary>  (56) 
energy

$$$$
56:0
     RDKit          3D

 37 38  0  0  0  0  0  0  0  0999 V2000
  141.1670  155.3630  133.9320 C   0  0  0  0  0  0  0  0  0  0  0  0
  141.1460  156.8680  134.2600 C   0  0  0  0  0  0  0  0  0  0  0  0
  140.2490  157.1470  135.4820 C   0  0  0  0  0  0  0  0  0  0  0  0
  140.5880  157.6330  133.0490 C   0  0  0  0  0  0  0  0  0  0  0  0
  142.4770  157.3550  134.4890 O   0  0  0  0  0  0  0  0  0  0  0  0
  143.4660  157.5590  133.5160 C   0  0  0  0  0  0  0  0  0  0  0  0
  143.7000  156.6850  132.6370 O   0  0  0  0  0  0  0  0  0  0  0  0
  144.2220  158.7800  133.5240 N   0  0  0  0  0  0  0  0  0  0  0  0
  143.7840  160.0270  133.8560 C   0  0  0  0  0  0  0  0  0  0  0  0
  142.3830  160.4070  134.1280 C   0  0  0  0  0  0  0  0  0  0  0  0
  141.6590  159.8330  135.2170 N   0  0  0  0  0  0  0  0  0  0  0  0
  141.7990  161.2100  133.3530 O   0  0  0  0  0  0  0  0  0  0  0  0
  144.8390  160.9350  133.8600 C   0  0  0  0  0  0  0  0  0  0  0  0
  145.9490  160.2030  133.5020 C   0  0  0  0  0  0  0  0  0  0  0  0
  147.2750  160.6000  133.3610 C   0  0  0  0  0  0  0  0  0  0  0  0
  148.2230  159.6220  133.0170 C   0  0  0  0  0  0  0  0  0  0  0  0
  147.8320  158.2750  132.8320 C   0  0  0  0  0  0  0  0  0  0  0  0
  148.8090  157.2870  132.4960 N   0  0  0  0  0  0  0  0  0  0  0  0
  146.4780  157.9060  132.9840 C   0  0  0  0  0  0  0  0  0  0  0  0
  145.5510  158.9040  133.3060 C   0  0  0  0  0  0  0  0  0  0  0  0
  141.1751  154.7840  134.8673 H   0  0  0  0  0  0  0  0  0  0  0  0
  140.2724  155.1026  133.3473 H   0  0  0  0  0  0  0  0  0  0  0  0
  142.0685  155.1277  133.3473 H   0  0  0  0  0  0  0  0  0  0  0  0
  140.8207  156.9692  136.4048 H   0  0  0  0  0  0  0  0  0  0  0  0
  139.9098  158.1931  135.4567 H   0  0  0  0  0  0  0  0  0  0  0  0
  139.3763  156.4779  135.4567 H   0  0  0  0  0  0  0  0  0  0  0  0
  139.9734  158.4755  133.3990 H   0  0  0  0  0  0  0  0  0  0  0  0
  141.4213  158.0147  132.4407 H   0  0  0  0  0  0  0  0  0  0  0  0
  139.9700  156.9562  132.4407 H   0  0  0  0  0  0  0  0  0  0  0  0
  140.6830  160.1440  135.4190 H   0  0  0  0  0  0  0  0  0  0  0  0
  142.0520  159.0400  135.7700 H   0  0  0  0  0  0  0  0  0  0  0  0
  144.7953  162.0080  134.0982 H   0  0  0  0  0  0  0  0  0  0  0  0
  147.5721  161.6480  133.5142 H   0  0  0  0  0  0  0  0  0  0  0  0
  149.2782  159.9059  132.8904 H   0  0  0  0  0  0  0  0  0  0  0  0
  148.7280  156.7330  131.6140 H   0  0  0  0  0  0  0  0  0  0  0  0
  149.6200  157.1020  133.1280 H   0  0  0  0  0  0  0  0  0  0  0  0
  146.1597  156.8613  132.8528 H   0  0  0  0  0  0  0  0  0  0  0  0
  1  2  1  0
  2  3  1  0
  2  4  1  0
  2  5  1  0
  5  6  1  0
  6  7  2  0
  6  8  1  0
  8  9  1  0
  9 10  1  0
 10 11  1  0
 10 12  2  0
  9 13  2  0
 13 14  1  0
 14 15  2  0
 15 16  1  0
 16 17  2  0
 17 18  1  0
 17 19  1  0
 19 20  2  0
 20  8  1  0
 20 14  1  0
  1 21  1  0
  1 22  1  0
  1 23  1  0
  3 24  1  0
  3 25  1  0
  3 26  1  0
  4 27  1  0
  4 28  1  0
  4 29  1  0
 11 30  1  0
 11 31  1  0
 13 32  1  0
 15 33  1  0
 16 34  1  0
 18 35  1  0
 18 36  1  0
 19 37  1  0
M  END
>  <UniqueID>  (57) 
57

>  <SMILES>  (57) 
CC(C)(C)OC(=O)n1c(C(N)=O)cc2ccc(N)cc21

>  <Energy>  (57) 
70.51434461701501

>  <Genealogy>  (57) 
CC(C)(C)OC(=O)n1c(C(N)=O)cc2ccc(N)cc21 (3D coordinates assigned)
CC(C)(C)OC(=O)n1c(C(N)=O)cc2ccc(N)cc21 (optimized conformer: 70.51434461701501 kcal/mol)

>  <smiles>  (57) 
CC(C)(C)OC(=O)n1c(C(N)=O)cc2ccc(N)cc21

>  <score_type>  (57) 
oracle

>  <origin>  (57) 
adg

>  <m_score__min__energy>  (57) 
-6.5800000000000001

>  <m_primary>  (57) 
energy

$$$$
57:0
     RDKit          3D

 40 41  0  0  0  0  0  0  0  0999 V2000
  148.2550  154.1730  133.3230 C   0  0  0  0  0  0  0  0  0  0  0  0
  147.5780  154.8770  132.2320 N   0  0  0  0  0  0  0  0  0  0  0  0
  147.4810  156.2820  132.5320 C   0  0  0  0  0  0  0  0  0  0  0  0
  148.6530  157.0810  132.5960 C   0  0  0  0  0  0  0  0  0  0  0  0
  148.5750  158.4440  132.9280 C   0  0  0  0  0  0  0  0  0  0  0  0
  147.3190  158.9810  133.1910 C   0  0  0  0  0  0  0  0  0  0  0  0
  146.9620  160.2550  133.5690 C   0  0  0  0  0  0  0  0  0  0  0  0
  145.5780  160.2230  133.7180 C   0  0  0  0  0  0  0  0  0  0  0  0
  144.7680  161.4160  134.0420 C   0  0  0  0  0  0  0  0  0  0  0  0
  143.3770  161.4620  133.7380 N   0  0  0  0  0  0  0  0  0  0  0  0
  145.3230  162.4270  134.5510 O   0  0  0  0  0  0  0  0  0  0  0  0
  145.0960  158.9770  133.4510 N   0  0  0  0  0  0  0  0  0  0  0  0
  143.7460  158.5100  133.5930 C   0  0  0  0  0  0  0  0  0  0  0  0
  143.2040  157.8720  132.6500 O   0  0  0  0  0  0  0  0  0  0  0  0
  143.0560  158.7510  134.7910 O   0  0  0  0  0  0  0  0  0  0  0  0
  141.6390  158.6540  134.9910 C   0  0  0  0  0  0  0  0  0  0  0  0
  141.3220  159.3470  136.3250 C   0  0  0  0  0  0  0  0  0  0  0  0
  140.8770  159.3760  133.8630 C   0  0  0  0  0  0  0  0  0  0  0  0
  141.2040  157.1790  135.0810 C   0  0  0  0  0  0  0  0  0  0  0  0
  146.1740  158.2280  133.1270 C   0  0  0  0  0  0  0  0  0  0  0  0
  146.2230  156.8630  132.8180 C   0  0  0  0  0  0  0  0  0  0  0  0
  147.8889  154.5537  134.2879 H   0  0  0  0  0  0  0  0  0  0  0  0
  148.0450  153.0957  133.2503 H   0  0  0  0  0  0  0  0  0  0  0  0
  149.3397  154.3408  133.2503 H   0  0  0  0  0  0  0  0  0  0  0  0
  146.6220  154.4700  132.1010 H   0  0  0  0  0  0  0  0  0  0  0  0
  148.1150  154.7340  131.3450 H   0  0  0  0  0  0  0  0  0  0  0  0
  149.6326  156.6280  132.3834 H   0  0  0  0  0  0  0  0  0  0  0  0
  149.4798  159.0676  132.9784 H   0  0  0  0  0  0  0  0  0  0  0  0
  147.6289  161.1164  133.7213 H   0  0  0  0  0  0  0  0  0  0  0  0
  142.8140  160.5860  133.6650 H   0  0  0  0  0  0  0  0  0  0  0  0
  141.6209  158.6935  137.1578 H   0  0  0  0  0  0  0  0  0  0  0  0
  141.8758  160.2955  136.3862 H   0  0  0  0  0  0  0  0  0  0  0  0
  140.2423  159.5482  136.3862 H   0  0  0  0  0  0  0  0  0  0  0  0
  140.1446  160.0700  134.3011 H   0  0  0  0  0  0  0  0  0  0  0  0
  141.5890  159.9387  133.2413 H   0  0  0  0  0  0  0  0  0  0  0  0
  140.3535  158.6348  133.2413 H   0  0  0  0  0  0  0  0  0  0  0  0
  141.1176  156.8860  136.1377 H   0  0  0  0  0  0  0  0  0  0  0  0
  140.2304  157.0529  134.5848 H   0  0  0  0  0  0  0  0  0  0  0  0
  141.9533  156.5448  134.5848 H   0  0  0  0  0  0  0  0  0  0  0  0
  145.3053  156.2569  132.7981 H   0  0  0  0  0  0  0  0  0  0  0  0
  1  2  1  0
  2  3  1  0
  3  4  2  0
  4  5  1  0
  5  6  2  0
  6  7  1  0
  7  8  2  0
  8  9  1  0
  9 10  1  0
  9 11  2  0
  8 12  1  0
 12 13  1  0
 13 14  2  0
 13 15  1  0
 15 16  1  0
 16 17  1  0
 16 18  1  0
 16 19  1  0
 12 20  1  0
 20 21  2  0
 21  3  1  0
 20  6  1  0
  1 22  1  0
  1 23  1  0
  1 24  1  0
  2 25  1  0
  2 26  1  0
  4 27  1  0
  5 28  1  0
  7 29  1  0
 10 30  1  0
 17 31  1  0
 17 32  1  0
 17 33  1  0
 18 34  1  0
 18 35  1  0
 18 36  1  0
 19 37  1  0
 19 38  1  0
 19 39  1  0
 21 40  1  0
M  CHG  2   2   1  10  -1
M  END
>  <UniqueID>  (58) 
58

>  <SMILES>  (58) 
C[NH2+]c1ccc2cc(C([NH-])=O)n(C(=O)OC(C)(C)C)c2c1

>  <Energy>  (58) 
73.72734634803406

>  <Genealogy>  (58) 
C[NH2+]c1ccc2cc(C([NH-])=O)n(C(=O)OC(C)(C)C)c2c1 (protonated)
C[NH2+]c1ccc2cc(C([NH-])=O)n(C(=O)OC(C)(C)C)c2c1 (3D coordinates assigned)
C[NH2+]c1ccc2cc(C([NH-])=O)n(C(=O)OC(C)(C)C)c2c1 (optimized conformer: 73.72734634803406 kcal/mol)

>  <smiles>  (58) 
CNc1ccc2cc(C(N)=O)n(C(=O)OC(C)(C)C)c2c1

>  <score_type>  (58) 
oracle

>  <origin>  (58) 
adg

>  <m_score__min__energy>  (58) 
-6.75

>  <m_primary>  (58) 
energy

$$$$
58:0
     RDKit          3D

 67 71  0  0  0  0  0  0  0  0999 V2000
  148.4510  159.0920  134.0820 C   0  0  0  0  0  0  0  0  0  0  0  0
  148.1300  157.7930  133.3170 C   0  0  0  0  0  0  0  0  0  0  0  0
  149.2270  157.4880  132.2800 C   0  0  0  0  0  0  0  0  0  0  0  0
  148.0590  156.6310  134.3210 C   0  0  0  0  0  0  0  0  0  0  0  0
  146.8460  157.8810  132.6820 O   0  0  0  0  0  0  0  0  0  0  0  0
  145.9630  158.9700  132.7390 C   0  0  0  0  0  0  0  0  0  0  0  0
  146.2770  160.0860  132.2450 O   0  0  0  0  0  0  0  0  0  0  0  0
  144.6710  158.8000  133.3440 N   0  0  0  0  0  0  0  0  0  0  0  0
  143.8800  159.7590  133.9030 C   0  0  0  0  0  0  0  0  0  0  0  0
  144.1140  161.2170  133.8500 C   0  0  0  0  0  0  0  0  0  0  0  0
  145.3820  161.7720  134.1890 N   0  0  0  0  0  0  0  0  0  0  0  0
  143.1920  161.9820  133.4570 O   0  0  0  0  0  0  0  0  0  0  0  0
  142.7440  159.1840  134.4690 C   0  0  0  0  0  0  0  0  0  0  0  0
  142.8590  157.8340  134.2290 C   0  0  0  0  0  0  0  0  0  0  0  0
  142.0140  156.7860  134.5840 C   0  0  0  0  0  0  0  0  0  0  0  0
  142.3940  155.4840  134.2220 C   0  0  0  0  0  0  0  0  0  0  0  0
  143.6010  155.2520  133.5160 C   0  0  0  0  0  0  0  0  0  0  0  0
  143.9800  153.8710  133.1440 C   0  0  0  0  0  0  0  0  0  0  0  0
  145.2950  153.5570  132.9290 N   0  0  0  0  0  0  0  0  0  0  0  0
  145.6800  152.2790  132.6210 C   0  0  0  0  0  0  0  0  0  0  0  0
  147.0660  151.9660  132.3940 N   0  0  0  0  0  0  0  0  0  0  0  0
  148.1080  152.9530  132.7350 C   0  0  0  0  0  0  0  0  0  0  0  0
  149.5260  152.5070  132.3110 C   0  0  0  0  0  0  0  0  0  0  0  0
  150.1080  151.3280  133.1110 C   0  0  0  0  0  0  0  0  0  0  0  0
  149.6720  150.0030  132.6330 N   0  0  0  0  0  0  0  0  0  0  0  0
  150.0450  149.8740  131.3370 F   0  0  0  0  0  0  0  0  0  0  0  0
  148.2230  149.7490  132.7160 C   0  0  0  0  0  0  0  0  0  0  0  0
  147.3930  150.6590  131.7920 C   0  0  0  0  0  0  0  0  0  0  0  0
  144.7420  151.2940  132.5180 N   0  0  0  0  0  0  0  0  0  0  0  0
  143.4360  151.5840  132.7310 C   0  0  0  0  0  0  0  0  0  0  0  0
  143.0280  152.8480  133.0410 C   0  0  0  0  0  0  0  0  0  0  0  0
  141.5680  152.8960  133.3140 C   0  0  0  0  0  0  0  0  0  0  0  0
  141.1180  151.4240  133.2060 C   0  0  0  0  0  0  0  0  0  0  0  0
  142.3320  150.6040  132.7290 C   0  0  0  0  0  0  0  0  0  0  0  0
  144.4430  156.3390  133.1940 C   0  0  0  0  0  0  0  0  0  0  0  0
  144.0290  157.6290  133.5470 C   0  0  0  0  0  0  0  0  0  0  0  0
  148.4039  158.9013  135.1643 H   0  0  0  0  0  0  0  0  0  0  0  0
  149.4610  159.4354  133.8138 H   0  0  0  0  0  0  0  0  0  0  0  0
  147.7172  159.8663  133.8138 H   0  0  0  0  0  0  0  0  0  0  0  0
  150.1610  157.2283  132.7999 H   0  0  0  0  0  0  0  0  0  0  0  0
  148.9112  156.6436  131.6497 H   0  0  0  0  0  0  0  0  0  0  0  0
  149.3924  158.3742  131.6497 H   0  0  0  0  0  0  0  0  0  0  0  0
  148.0834  157.0299  135.3458 H   0  0  0  0  0  0  0  0  0  0  0  0
  147.1249  156.0706  134.1678 H   0  0  0  0  0  0  0  0  0  0  0  0
  148.9179  155.9610  134.1678 H   0  0  0  0  0  0  0  0  0  0  0  0
  146.1420  161.8520  133.4780 H   0  0  0  0  0  0  0  0  0  0  0  0
  141.9280  159.7001  134.9961 H   0  0  0  0  0  0  0  0  0  0  0  0
  141.0780  156.9724  135.1310 H   0  0  0  0  0  0  0  0  0  0  0  0
  141.7481  154.6346  134.4891 H   0  0  0  0  0  0  0  0  0  0  0  0
  146.0120  154.3170  132.9680 H   0  0  0  0  0  0  0  0  0  0  0  0
  147.8725  153.9004  132.2280 H   0  0  0  0  0  0  0  0  0  0  0  0
  148.1115  153.0621  133.8296 H   0  0  0  0  0  0  0  0  0  0  0  0
  149.4881  152.2138  131.2515 H   0  0  0  0  0  0  0  0  0  0  0  0
  150.1870  153.3644  132.5059 H   0  0  0  0  0  0  0  0  0  0  0  0
  151.2051  151.3748  133.0465 H   0  0  0  0  0  0  0  0  0  0  0  0
  149.7385  151.4308  134.1419 H   0  0  0  0  0  0  0  0  0  0  0  0
  148.0352  148.7020  132.4359 H   0  0  0  0  0  0  0  0  0  0  0  0
  147.9127  149.9627  133.7494 H   0  0  0  0  0  0  0  0  0  0  0  0
  147.9657  150.8339  130.8693 H   0  0  0  0  0  0  0  0  0  0  0  0
  146.4406  150.1434  131.5997 H   0  0  0  0  0  0  0  0  0  0  0  0
  141.3716  153.2917  134.3214 H   0  0  0  0  0  0  0  0  0  0  0  0
  141.0291  153.5551  132.6175 H   0  0  0  0  0  0  0  0  0  0  0  0
  140.7817  151.0608  134.1883 H   0  0  0  0  0  0  0  0  0  0  0  0
  140.2810  151.3250  132.4992 H   0  0  0  0  0  0  0  0  0  0  0  0
  142.5419  149.7747  133.4205 H   0  0  0  0  0  0  0  0  0  0  0  0
  142.1740  150.1405  131.7440 H   0  0  0  0  0  0  0  0  0  0  0  0
  145.4009  156.1761  132.6783 H   0  0  0  0  0  0  0  0  0  0  0  0
  1  2  1  0
  2  3  1  0
  2  4  1  0
  2  5  1  0
  5  6  1  0
  6  7  2  0
  6  8  1  0
  8  9  1  0
  9 10  1  0
 10 11  1  0
 10 12  2  0
  9 13  2  0
 13 14  1  0
 14 15  2  0
 15 16  1  0
 16 17  2  0
 17 18  1  0
 18 19  2  0
 19 20  1  0
 20 21  1  0
 21 22  1  0
 22 23  1  0
 23 24  1  0
 24 25  1  0
 25 26  1  0
 25 27  1  0
 27 28  1  0
 20 29  2  0
 29 30  1  0
 30 31  2  0
 31 32  1  0
 32 33  1  0
 33 34  1  0
 17 35  1  0
 35 36  2  0
 36  8  1  0
 36 14  1  0
 31 18  1  0
 28 21  1  0
 34 30  1  0
  1 37  1  0
  1 38  1  0
  1 39  1  0
  3 40  1  0
  3 41  1  0
  3 42  1  0
  4 43  1  0
  4 44  1  0
  4 45  1  0
 11 46  1  0
 13 47  1  0
 15 48  1  0
 16 49  1  0
 19 50  1  0
 22 51  1  0
 22 52  1  0
 23 53  1  0
 23 54  1  0
 24 55  1  0
 24 56  1  0
 27 57  1  0
 27 58  1  0
 28 59  1  0
 28 60  1  0
 32 61  1  0
 32 62  1  0
 33 63  1  0
 33 64  1  0
 34 65  1  0
 34 66  1  0
 35 67  1  0
M  CHG  2  11  -1  19   1
M  END
>  <UniqueID>  (59) 
59

>  <SMILES>  (59) 
CC(C)(C)OC(=O)n1c(C([NH-])=O)cc2ccc(-c3[nH+]c(N4CCCN(F)CC4)nc4c3CCC4)cc21

>  <Energy>  (59) 
132.97230567484596

>  <Genealogy>  (59) 
CC(C)(C)OC(=O)n1c(C([NH-])=O)cc2ccc(-c3[nH+]c(N4CCCN(F)CC4)nc4c3CCC4)cc21 (protonated)
CC(C)(C)OC(=O)n1c(C([NH-])=O)cc2ccc(-c3[nH+]c(N4CCCN(F)CC4)nc4c3CCC4)cc21 (3D coordinates assigned)
CC(C)(C)OC(=O)n1c(C([NH-])=O)cc2ccc(-c3[nH+]c(N4CCCN(F)CC4)nc4c3CCC4)cc21 (nonaromatic ring conformer: 132.97230567484596 kcal/mol)

>  <smiles>  (59) 
CC(C)(C)OC(=O)n1c(C(N)=O)cc2ccc(-c3nc(N4CCCN(F)CC4)nc4c3CCC4)cc21

>  <score_type>  (59) 
oracle

>  <origin>  (59) 
adg

>  <m_score__min__energy>  (59) 
-8.7699999999999996

>  <m_primary>  (59) 
energy

$$$$
59:0
     RDKit          3D

 34 36  0  0  0  0  0  0  0  0999 V2000
  148.4460  160.7500  131.1180 C   0  0  0  0  0  0  0  0  0  0  0  0
  148.6580  159.4050  131.7360 C   0  0  0  0  0  0  0  0  0  0  0  0
  149.7670  158.6650  131.5400 N   0  0  0  0  0  0  0  0  0  0  0  0
  149.6180  157.5640  132.2200 O   0  0  0  0  0  0  0  0  0  0  0  0
  148.4710  157.5490  132.8580 C   0  0  0  0  0  0  0  0  0  0  0  0
  148.0150  156.4200  133.7260 C   0  0  0  0  0  0  0  0  0  0  0  0
  147.7960  158.7260  132.5820 C   0  0  0  0  0  0  0  0  0  0  0  0
  146.4690  159.1560  133.0740 C   0  0  0  0  0  0  0  0  0  0  0  0
  146.2230  160.5230  133.3590 C   0  0  0  0  0  0  0  0  0  0  0  0
  144.9700  160.9400  133.8390 C   0  0  0  0  0  0  0  0  0  0  0  0
  143.9850  159.9740  134.0180 C   0  0  0  0  0  0  0  0  0  0  0  0
  142.6990  160.0980  134.4900 C   0  0  0  0  0  0  0  0  0  0  0  0
  142.1700  158.8100  134.4650 C   0  0  0  0  0  0  0  0  0  0  0  0
  140.7670  158.5010  134.8100 C   0  0  0  0  0  0  0  0  0  0  0  0
  140.2680  158.7340  136.1250 N   0  0  0  0  0  0  0  0  0  0  0  0
  140.0120  157.9780  133.9480 O   0  0  0  0  0  0  0  0  0  0  0  0
  143.0950  157.9220  134.0050 N   0  0  0  0  0  0  0  0  0  0  0  0
  142.9800  156.4920  133.9190 C   0  0  0  0  0  0  0  0  0  0  0  0
  141.8560  155.9000  133.2710 N   0  0  0  0  0  0  0  0  0  0  0  0
  143.8540  155.7540  134.4440 O   0  0  0  0  0  0  0  0  0  0  0  0
  144.2000  158.6520  133.7320 C   0  0  0  0  0  0  0  0  0  0  0  0
  145.4420  158.2050  133.2670 C   0  0  0  0  0  0  0  0  0  0  0  0
  148.3273  161.5032  131.9108 H   0  0  0  0  0  0  0  0  0  0  0  0
  149.3146  161.0080  130.4943 H   0  0  0  0  0  0  0  0  0  0  0  0
  147.5402  160.7283  130.4943 H   0  0  0  0  0  0  0  0  0  0  0  0
  148.1286  156.7014  134.7833 H   0  0  0  0  0  0  0  0  0  0  0  0
  146.9577  156.2004  133.5166 H   0  0  0  0  0  0  0  0  0  0  0  0
  148.6232  155.5277  133.5166 H   0  0  0  0  0  0  0  0  0  0  0  0
  147.0207  161.2641  133.2028 H   0  0  0  0  0  0  0  0  0  0  0  0
  144.7738  161.9982  134.0664 H   0  0  0  0  0  0  0  0  0  0  0  0
  142.1952  161.0193  134.8178 H   0  0  0  0  0  0  0  0  0  0  0  0
  139.4800  159.3990  136.2900 H   0  0  0  0  0  0  0  0  0  0  0  0
  141.1390  156.4910  132.7960 H   0  0  0  0  0  0  0  0  0  0  0  0
  145.6145  157.1391  133.0569 H   0  0  0  0  0  0  0  0  0  0  0  0
  1  2  1  0
  2  3  2  0
  3  4  1  0
  4  5  1  0
  5  6  1  0
  5  7  2  0
  7  8  1  0
  8  9  2  0
  9 10  1  0
 10 11  2  0
 11 12  1  0
 12 13  2  0
 13 14  1  0
 14 15  1  0
 14 16  2  0
 13 17  1  0
 17 18  1  0
 18 19  1  0
 18 20  2  0
 17 21  1  0
 21 22  2  0
  7  2  1  0
 22  8  1  0
 21 11  1  0
  1 23  1  0
  1 24  1  0
  1 25  1  0
  6 26  1  0
  6 27  1  0
  6 28  1  0
  9 29  1  0
 10 30  1  0
 12 31  1  0
 15 32  1  0
 19 33  1  0
 22 34  1  0
M  CHG  2  15  -1  19  -1
M  END
>  <UniqueID>  (60) 
60

>  <SMILES>  (60) 
Cc1noc(C)c1-c1ccc2cc(C([NH-])=O)n(C([NH-])=O)c2c1

>  <Energy>  (60) 
109.32364866705808

>  <Genealogy>  (60) 
Cc1noc(C)c1-c1ccc2cc(C([NH-])=O)n(C([NH-])=O)c2c1 (protonated)
Cc1noc(C)c1-c1ccc2cc(C([NH-])=O)n(C([NH-])=O)c2c1 (3D coordinates assigned)
Cc1noc(C)c1-c1ccc2cc(C([NH-])=O)n(C([NH-])=O)c2c1 (optimized conformer: 109.32364866705808 kcal/mol)

>  <smiles>  (60) 
Cc1noc(C)c1-c1ccc2cc(C(N)=O)n(C(N)=O)c2c1

>  <score_type>  (60) 
oracle

>  <origin>  (60) 
adg

>  <m_score__min__energy>  (60) 
-7.3799999999999999

>  <m_primary>  (60) 
energy

$$$$
60:0
     RDKit          3D

 67 72  0  0  0  0  0  0  0  0999 V2000
  140.6460  159.7110  135.4560 C   0  0  0  0  0  0  0  0  0  0  0  0
  141.8720  159.2050  134.8500 N   0  0  0  0  0  0  0  0  0  0  0  0
  142.5990  159.9190  134.0040 N   0  0  0  0  0  0  0  0  0  0  0  0
  143.6500  159.1570  133.6470 C   0  0  0  0  0  0  0  0  0  0  0  0
  144.7250  159.6070  132.8220 N   0  0  0  0  0  0  0  0  0  0  0  0
  146.0070  160.0070  133.3180 C   0  0  0  0  0  0  0  0  0  0  0  0
  146.0840  161.0420  134.0310 O   0  0  0  0  0  0  0  0  0  0  0  0
  147.2690  159.2810  132.9010 C   0  0  0  0  0  0  0  0  0  0  0  0
  147.4160  157.8310  133.2990 C   0  0  0  0  0  0  0  0  0  0  0  0
  147.9200  156.9020  132.3520 C   0  0  0  0  0  0  0  0  0  0  0  0
  147.9570  155.5260  132.6440 C   0  0  0  0  0  0  0  0  0  0  0  0
  147.4800  155.1140  133.8840 C   0  0  0  0  0  0  0  0  0  0  0  0
  147.0080  155.9950  134.8010 C   0  0  0  0  0  0  0  0  0  0  0  0
  146.9630  157.3630  134.5550 C   0  0  0  0  0  0  0  0  0  0  0  0
  146.6000  155.3110  135.9300 O   0  0  0  0  0  0  0  0  0  0  0  0
  146.8180  153.9130  135.7020 C   0  0  0  0  0  0  0  0  0  0  0  0
  145.6170  153.2290  135.7500 F   0  0  0  0  0  0  0  0  0  0  0  0
  147.7010  153.4060  136.6370 F   0  0  0  0  0  0  0  0  0  0  0  0
  147.3860  153.8300  134.3870 O   0  0  0  0  0  0  0  0  0  0  0  0
  148.5220  160.1370  132.7400 C   0  0  0  0  0  0  0  0  0  0  0  0
  147.8100  159.6040  131.5070 C   0  0  0  0  0  0  0  0  0  0  0  0
  143.6000  157.9290  134.2660 C   0  0  0  0  0  0  0  0  0  0  0  0
  142.4670  158.0050  135.0580 C   0  0  0  0  0  0  0  0  0  0  0  0
  142.0410  156.9640  136.0190 C   0  0  0  0  0  0  0  0  0  0  0  0
  141.6820  157.3040  137.3480 C   0  0  0  0  0  0  0  0  0  0  0  0
  141.3410  156.3060  138.2760 C   0  0  0  0  0  0  0  0  0  0  0  0
  141.3740  154.9810  137.8520 C   0  0  0  0  0  0  0  0  0  0  0  0
  141.1410  153.8180  138.5510 C   0  0  0  0  0  0  0  0  0  0  0  0
  141.3590  152.7880  137.6400 C   0  0  0  0  0  0  0  0  0  0  0  0
  141.1530  151.3580  137.9540 C   0  0  0  0  0  0  0  0  0  0  0  0
  140.3310  150.5580  137.1080 N   0  0  0  0  0  0  0  0  0  0  0  0
  141.7240  150.8260  138.9420 O   0  0  0  0  0  0  0  0  0  0  0  0
  141.7170  153.2930  136.4260 N   0  0  0  0  0  0  0  0  0  0  0  0
  142.1100  152.5760  135.2470 C   0  0  0  0  0  0  0  0  0  0  0  0
  141.3520  151.6850  134.7750 O   0  0  0  0  0  0  0  0  0  0  0  0
  143.3540  152.8530  134.6590 O   0  0  0  0  0  0  0  0  0  0  0  0
  143.5850  153.2490  133.2990 C   0  0  0  0  0  0  0  0  0  0  0  0
  144.5430  152.2690  132.5980 C   0  0  0  0  0  0  0  0  0  0  0  0
  142.2270  153.2150  132.5820 C   0  0  0  0  0  0  0  0  0  0  0  0
  144.1390  154.6850  133.2450 C   0  0  0  0  0  0  0  0  0  0  0  0
  141.7190  154.6350  136.5710 C   0  0  0  0  0  0  0  0  0  0  0  0
  142.0750  155.6070  135.6300 C   0  0  0  0  0  0  0  0  0  0  0  0
  140.7361  159.6738  136.5517 H   0  0  0  0  0  0  0  0  0  0  0  0
  140.4812  160.7507  135.1367 H   0  0  0  0  0  0  0  0  0  0  0  0
  139.7959  159.0902  135.1367 H   0  0  0  0  0  0  0  0  0  0  0  0
  148.2858  157.2615  131.3789 H   0  0  0  0  0  0  0  0  0  0  0  0
  148.3499  154.8007  131.9163 H   0  0  0  0  0  0  0  0  0  0  0  0
  146.5856  158.0620  135.3159 H   0  0  0  0  0  0  0  0  0  0  0  0
  148.4868  161.2114  132.9731 H   0  0  0  0  0  0  0  0  0  0  0  0
  149.5513  160.0862  133.1245 H   0  0  0  0  0  0  0  0  0  0  0  0
  147.2592  160.2926  130.8494 H   0  0  0  0  0  0  0  0  0  0  0  0
  148.1103  159.0085  130.6322 H   0  0  0  0  0  0  0  0  0  0  0  0
  144.2969  157.0849  134.1571 H   0  0  0  0  0  0  0  0  0  0  0  0
  141.6704  158.3601  137.6555 H   0  0  0  0  0  0  0  0  0  0  0  0
  141.0565  156.5641  139.3067 H   0  0  0  0  0  0  0  0  0  0  0  0
  140.8452  153.7227  139.6062 H   0  0  0  0  0  0  0  0  0  0  0  0
  140.6210  150.3350  136.1310 H   0  0  0  0  0  0  0  0  0  0  0  0
  145.1013  151.6978  133.3543 H   0  0  0  0  0  0  0  0  0  0  0  0
  143.9639  151.5766  131.9694 H   0  0  0  0  0  0  0  0  0  0  0  0
  145.2484  152.8323  131.9694 H   0  0  0  0  0  0  0  0  0  0  0  0
  141.4189  153.1948  133.3280 H   0  0  0  0  0  0  0  0  0  0  0  0
  142.1223  154.1108  131.9523 H   0  0  0  0  0  0  0  0  0  0  0  0
  142.1673  152.3151  131.9523 H   0  0  0  0  0  0  0  0  0  0  0  0
  144.2840  155.0608  134.2686 H   0  0  0  0  0  0  0  0  0  0  0  0
  145.1023  154.6866  132.7139 H   0  0  0  0  0  0  0  0  0  0  0  0
  143.4264  155.3332  132.7139 H   0  0  0  0  0  0  0  0  0  0  0  0
  142.3744  155.3209  134.6109 H   0  0  0  0  0  0  0  0  0  0  0  0
  1  2  1  0
  2  3  1  0
  3  4  2  0
  4  5  1  0
  5  6  1  0
  6  7  2  0
  6  8  1  0
  8  9  1  0
  9 10  2  0
 10 11  1  0
 11 12  2  0
 12 13  1  0
 13 14  2  0
 13 15  1  0
 15 16  1  0
 16 17  1  0
 16 18  1  0
 16 19  1  0
  8 20  1  0
 20 21  1  0
  4 22  1  0
 22 23  2  0
 23 24  1  0
 24 25  2  0
 25 26  1  0
 26 27  2  0
 27 28  1  0
 28 29  2  0
 29 30  1  0
 30 31  1  0
 30 32  2  0
 29 33  1  0
 33 34  1  0
 34 35  2  0
 34 36  1  0
 36 37  1  0
 37 38  1  0
 37 39  1  0
 37 40  1  0
 33 41  1  0
 41 42  2  0
 23  2  1  0
 42 24  1  0
 21  8  1  0
 41 27  1  0
 14  9  1  0
 19 12  1  0
  1 43  1  0
  1 44  1  0
  1 45  1  0
 10 46  1  0
 11 47  1  0
 14 48  1  0
 20 49  1  0
 20 50  1  0
 21 51  1  0
 21 52  1  0
 22 53  1  0
 25 54  1  0
 26 55  1  0
 28 56  1  0
 31 57  1  0
 38 58  1  0
 38 59  1  0
 38 60  1  0
 39 61  1  0
 39 62  1  0
 39 63  1  0
 40 64  1  0
 40 65  1  0
 40 66  1  0
 42 67  1  0
M  CHG  2   5  -1  31  -1
M  END
>  <UniqueID>  (61) 
61

>  <SMILES>  (61) 
Cn1nc([N-]C(=O)C2(c3ccc4c(c3)OC(F)(F)O4)CC2)cc1-c1ccc2cc(C([NH-])=O)n(C(=O)OC(C)(C)C)c2c1

>  <Energy>  (61) 
437.8143718342644

>  <Genealogy>  (61) 
Cn1nc([N-]C(=O)C2(c3ccc4c(c3)OC(F)(F)O4)CC2)cc1-c1ccc2cc(C([NH-])=O)n(C(=O)OC(C)(C)C)c2c1 (protonated)
Cn1nc([N-]C(=O)C2(c3ccc4c(c3)OC(F)(F)O4)CC2)cc1-c1ccc2cc(C([NH-])=O)n(C(=O)OC(C)(C)C)c2c1 (3D coordinates assigned)
Cn1nc([N-]C(=O)C2(c3ccc4c(c3)OC(F)(F)O4)CC2)cc1-c1ccc2cc(C([NH-])=O)n(C(=O)OC(C)(C)C)c2c1 (nonaromatic ring conformer: 437.8143718342644 kcal/mol)

>  <smiles>  (61) 
Cn1nc(NC(=O)C2(c3ccc4c(c3)OC(F)(F)O4)CC2)cc1-c1ccc2cc(C(N)=O)n(C(=O)OC(C)(C)C)c2c1

>  <score_type>  (61) 
oracle

>  <origin>  (61) 
adg

>  <m_score__min__energy>  (61) 
-11.550000000000001

>  <m_primary>  (61) 
energy

$$$$
61:0
     RDKit          3D

 45 47  0  0  0  0  0  0  0  0999 V2000
  141.5120  157.6030  133.3490 C   0  0  0  0  0  0  0  0  0  0  0  0
  140.4300  156.8490  134.1470 C   0  0  0  0  0  0  0  0  0  0  0  0
  139.0990  156.8260  133.3710 C   0  0  0  0  0  0  0  0  0  0  0  0
  140.2110  157.5700  135.4860 C   0  0  0  0  0  0  0  0  0  0  0  0
  140.8590  155.5140  134.4500 O   0  0  0  0  0  0  0  0  0  0  0  0
  140.8810  154.4240  133.5680 C   0  0  0  0  0  0  0  0  0  0  0  0
  139.8580  154.1290  132.8960 O   0  0  0  0  0  0  0  0  0  0  0  0
  142.0730  153.6220  133.4530 N   0  0  0  0  0  0  0  0  0  0  0  0
  142.1450  152.2650  133.3510 C   0  0  0  0  0  0  0  0  0  0  0  0
  141.0030  151.3400  133.4030 C   0  0  0  0  0  0  0  0  0  0  0  0
  139.8970  151.4980  132.5140 N   0  0  0  0  0  0  0  0  0  0  0  0
  140.9840  150.4270  134.2690 O   0  0  0  0  0  0  0  0  0  0  0  0
  143.4500  151.8510  133.1100 C   0  0  0  0  0  0  0  0  0  0  0  0
  144.1970  153.0040  133.0930 C   0  0  0  0  0  0  0  0  0  0  0  0
  145.5650  153.1760  132.9110 C   0  0  0  0  0  0  0  0  0  0  0  0
  146.0770  154.4830  132.9530 C   0  0  0  0  0  0  0  0  0  0  0  0
  145.2200  155.5900  133.1780 C   0  0  0  0  0  0  0  0  0  0  0  0
  145.7730  156.9680  133.2260 C   0  0  0  0  0  0  0  0  0  0  0  0
  144.9310  158.0830  133.3590 C   0  0  0  0  0  0  0  0  0  0  0  0
  145.4560  159.3340  133.4000 N   0  0  0  0  0  0  0  0  0  0  0  0
  146.7970  159.5340  133.3160 C   0  0  0  0  0  0  0  0  0  0  0  0
  147.3240  160.8580  133.3610 N   0  0  0  0  0  0  0  0  0  0  0  0
  147.6340  158.4720  133.1880 N   0  0  0  0  0  0  0  0  0  0  0  0
  147.1530  157.2030  133.1400 C   0  0  0  0  0  0  0  0  0  0  0  0
  143.8340  155.3730  133.3590 C   0  0  0  0  0  0  0  0  0  0  0  0
  143.3470  154.0600  133.3000 C   0  0  0  0  0  0  0  0  0  0  0  0
  142.2099  158.0893  134.0465 H   0  0  0  0  0  0  0  0  0  0  0  0
  142.0626  156.8920  132.7155 H   0  0  0  0  0  0  0  0  0  0  0  0
  141.0356  158.3657  132.7155 H   0  0  0  0  0  0  0  0  0  0  0  0
  138.2601  156.8115  134.0823 H   0  0  0  0  0  0  0  0  0  0  0  0
  139.0279  157.7231  132.7384 H   0  0  0  0  0  0  0  0  0  0  0  0
  139.0589  155.9270  132.7384 H   0  0  0  0  0  0  0  0  0  0  0  0
  140.4214  156.8773  136.3142 H   0  0  0  0  0  0  0  0  0  0  0  0
  140.8868  158.4355  135.5512 H   0  0  0  0  0  0  0  0  0  0  0  0
  139.1680  157.9134  135.5512 H   0  0  0  0  0  0  0  0  0  0  0  0
  139.8580  152.3050  131.8510 H   0  0  0  0  0  0  0  0  0  0  0  0
  139.0980  150.8280  132.5440 H   0  0  0  0  0  0  0  0  0  0  0  0
  143.8078  150.8211  132.9642 H   0  0  0  0  0  0  0  0  0  0  0  0
  146.2263  152.3139  132.7392 H   0  0  0  0  0  0  0  0  0  0  0  0
  147.1548  154.6498  132.8098 H   0  0  0  0  0  0  0  0  0  0  0  0
  143.8423  157.9426  133.4302 H   0  0  0  0  0  0  0  0  0  0  0  0
  147.9810  161.1410  134.1230 H   0  0  0  0  0  0  0  0  0  0  0  0
  147.0690  161.5540  132.6260 H   0  0  0  0  0  0  0  0  0  0  0  0
  147.8478  156.3569  133.0334 H   0  0  0  0  0  0  0  0  0  0  0  0
  143.1527  156.2169  133.5422 H   0  0  0  0  0  0  0  0  0  0  0  0
  1  2  1  0
  2  3  1  0
  2  4  1  0
  2  5  1  0
  5  6  1  0
  6  7  2  0
  6  8  1  0
  8  9  1  0
  9 10  1  0
 10 11  1  0
 10 12  2  0
  9 13  2  0
 13 14  1  0
 14 15  2  0
 15 16  1  0
 16 17  2  0
 17 18  1  0
 18 19  2  0
 19 20  1  0
 20 21  2  0
 21 22  1  0
 21 23  1  0
 23 24  2  0
 17 25  1  0
 25 26  2  0
 26  8  1  0
 26 14  1  0
 24 18  1  0
  1 27  1  0
  1 28  1  0
  1 29  1  0
  3 30  1  0
  3 31  1  0
  3 32  1  0
  4 33  1  0
  4 34  1  0
  4 35  1  0
 11 36  1  0
 11 37  1  0
 13 38  1  0
 15 39  1  0
 16 40  1  0
 19 41  1  0
 22 42  1  0
 22 43  1  0
 24 44  1  0
 25 45  1  0
M  END
>  <UniqueID>  (62) 
62

>  <SMILES>  (62) 
CC(C)(C)OC(=O)n1c(C(N)=O)cc2ccc(-c3cnc(N)nc3)cc21

>  <Energy>  (62) 
89.1200269595527

>  <Genealogy>  (62) 
CC(C)(C)OC(=O)n1c(C(N)=O)cc2ccc(-c3cnc(N)nc3)cc21 (3D coordinates assigned)
CC(C)(C)OC(=O)n1c(C(N)=O)cc2ccc(-c3cnc(N)nc3)cc21 (optimized conformer: 89.1200269595527 kcal/mol)

>  <smiles>  (62) 
CC(C)(C)OC(=O)n1c(C(N)=O)cc2ccc(-c3cnc(N)nc3)cc21

>  <score_type>  (62) 
oracle

>  <origin>  (62) 
adg

>  <m_score__min__energy>  (62) 
-7.9400000000000004

>  <m_primary>  (62) 
energy

$$$$
62:0
     RDKit          3D

 60 63  0  0  0  0  0  0  0  0999 V2000
  146.5120  159.7680  132.8810 C   0  0  0  0  0  0  0  0  0  0  0  0
  147.6160  158.7110  132.7230 C   0  0  0  0  0  0  0  0  0  0  0  0
  148.4650  159.0580  131.4840 C   0  0  0  0  0  0  0  0  0  0  0  0
  148.4870  158.7050  133.9940 C   0  0  0  0  0  0  0  0  0  0  0  0
  146.9660  157.4430  132.5510 O   0  0  0  0  0  0  0  0  0  0  0  0
  146.4150  156.6460  133.5650 C   0  0  0  0  0  0  0  0  0  0  0  0
  146.1650  157.1270  134.7030 O   0  0  0  0  0  0  0  0  0  0  0  0
  146.1050  155.2720  133.2900 N   0  0  0  0  0  0  0  0  0  0  0  0
  146.9650  154.2860  132.9070 C   0  0  0  0  0  0  0  0  0  0  0  0
  148.4380  154.3920  132.8630 C   0  0  0  0  0  0  0  0  0  0  0  0
  149.0510  155.6510  132.5910 N   0  0  0  0  0  0  0  0  0  0  0  0
  149.1630  153.3760  133.0300 O   0  0  0  0  0  0  0  0  0  0  0  0
  146.2680  153.1160  132.6160 C   0  0  0  0  0  0  0  0  0  0  0  0
  144.9430  153.4160  132.8370 C   0  0  0  0  0  0  0  0  0  0  0  0
  143.8070  152.6320  132.6570 C   0  0  0  0  0  0  0  0  0  0  0  0
  142.5560  153.2230  132.8940 C   0  0  0  0  0  0  0  0  0  0  0  0
  142.4640  154.5780  133.3040 C   0  0  0  0  0  0  0  0  0  0  0  0
  141.1150  155.2250  133.4720 C   0  0  0  0  0  0  0  0  0  0  0  0
  141.1040  156.2520  134.6160 C   0  0  0  0  0  0  0  0  0  0  0  0
  141.3010  157.6700  134.1110 C   0  0  0  0  0  0  0  0  0  0  0  0
  142.4810  158.3340  134.4960 C   0  0  0  0  0  0  0  0  0  0  0  0
  142.7120  159.6580  134.1300 C   0  0  0  0  0  0  0  0  0  0  0  0
  143.8540  160.2780  134.5190 F   0  0  0  0  0  0  0  0  0  0  0  0
  141.7650  160.3540  133.3840 C   0  0  0  0  0  0  0  0  0  0  0  0
  140.5830  159.7200  132.9820 C   0  0  0  0  0  0  0  0  0  0  0  0
  140.3360  158.3770  133.3370 C   0  0  0  0  0  0  0  0  0  0  0  0
  139.0000  157.8040  132.9050 C   0  0  0  0  0  0  0  0  0  0  0  0
  138.7160  158.1520  131.4350 C   0  0  0  0  0  0  0  0  0  0  0  0
  138.9330  159.6460  131.0870 C   0  0  0  0  0  0  0  0  0  0  0  0
  139.5240  160.4860  132.2310 C   0  0  0  0  0  0  0  0  0  0  0  0
  143.6380  155.3410  133.4810 C   0  0  0  0  0  0  0  0  0  0  0  0
  144.8720  154.7230  133.2460 C   0  0  0  0  0  0  0  0  0  0  0  0
  146.3256  159.9465  133.9503 H   0  0  0  0  0  0  0  0  0  0  0  0
  146.8312  160.7059  132.4029 H   0  0  0  0  0  0  0  0  0  0  0  0
  145.5889  159.4084  132.4029 H   0  0  0  0  0  0  0  0  0  0  0  0
  149.4385  159.4559  131.8063 H   0  0  0  0  0  0  0  0  0  0  0  0
  148.6209  158.1515  130.8808 H   0  0  0  0  0  0  0  0  0  0  0  0
  147.9413  159.8142  130.8808 H   0  0  0  0  0  0  0  0  0  0  0  0
  147.8388  158.7095  134.8827 H   0  0  0  0  0  0  0  0  0  0  0  0
  149.1158  157.8025  134.0033 H   0  0  0  0  0  0  0  0  0  0  0  0
  149.1282  159.5988  134.0033 H   0  0  0  0  0  0  0  0  0  0  0  0
  148.6690  156.2850  131.8550 H   0  0  0  0  0  0  0  0  0  0  0  0
  146.6874  152.1559  132.2807 H   0  0  0  0  0  0  0  0  0  0  0  0
  143.8871  151.5820  132.3389 H   0  0  0  0  0  0  0  0  0  0  0  0
  141.6390  152.6303  132.7606 H   0  0  0  0  0  0  0  0  0  0  0  0
  140.8472  155.7351  132.5349 H   0  0  0  0  0  0  0  0  0  0  0  0
  140.3894  154.4359  133.7186 H   0  0  0  0  0  0  0  0  0  0  0  0
  140.1373  156.1921  135.1374 H   0  0  0  0  0  0  0  0  0  0  0  0
  141.9376  156.0143  135.2932 H   0  0  0  0  0  0  0  0  0  0  0  0
  143.2324  157.7990  135.0953 H   0  0  0  0  0  0  0  0  0  0  0  0
  141.9455  161.4039  133.1098 H   0  0  0  0  0  0  0  0  0  0  0  0
  139.0205  156.7103  133.0208 H   0  0  0  0  0  0  0  0  0  0  0  0
  138.2072  158.2366  133.5329 H   0  0  0  0  0  0  0  0  0  0  0  0
  139.3834  157.5490  130.8018 H   0  0  0  0  0  0  0  0  0  0  0  0
  137.6524  157.9353  131.2568 H   0  0  0  0  0  0  0  0  0  0  0  0
  139.6186  159.7031  130.2287 H   0  0  0  0  0  0  0  0  0  0  0  0
  137.9392  160.0652  130.8711 H   0  0  0  0  0  0  0  0  0  0  0  0
  139.9719  161.3987  131.8111 H   0  0  0  0  0  0  0  0  0  0  0  0
  138.7142  160.7370  132.9318 H   0  0  0  0  0  0  0  0  0  0  0  0
  143.5848  156.3938  133.7954 H   0  0  0  0  0  0  0  0  0  0  0  0
  1  2  1  0
  2  3  1  0
  2  4  1  0
  2  5  1  0
  5  6  1  0
  6  7  2  0
  6  8  1  0
  8  9  1  0
  9 10  1  0
 10 11  1  0
 10 12  2  0
  9 13  2  0
 13 14  1  0
 14 15  2  0
 15 16  1  0
 16 17  2  0
 17 18  1  0
 18 19  1  0
 19 20  1  0
 20 21  2  0
 21 22  1  0
 22 23  1  0
 22 24  2  0
 24 25  1  0
 25 26  2  0
 26 27  1  0
 27 28  1  0
 28 29  1  0
 29 30  1  0
 17 31  1  0
 31 32  2  0
 32  8  1  0
 32 14  1  0
 26 20  1  0
 30 25  1  0
  1 33  1  0
  1 34  1  0
  1 35  1  0
  3 36  1  0
  3 37  1  0
  3 38  1  0
  4 39  1  0
  4 40  1  0
  4 41  1  0
 11 42  1  0
 13 43  1  0
 15 44  1  0
 16 45  1  0
 18 46  1  0
 18 47  1  0
 19 48  1  0
 19 49  1  0
 21 50  1  0
 24 51  1  0
 27 52  1  0
 27 53  1  0
 28 54  1  0
 28 55  1  0
 29 56  1  0
 29 57  1  0
 30 58  1  0
 30 59  1  0
 31 60  1  0
M  CHG  1  11  -1
M  END
>  <UniqueID>  (63) 
63

>  <SMILES>  (63) 
CC(C)(C)OC(=O)n1c(C([NH-])=O)cc2ccc(CCc3cc(F)cc4c3CCCC4)cc21

>  <Energy>  (63) 
98.93542062617722

>  <Genealogy>  (63) 
CC(C)(C)OC(=O)n1c(C([NH-])=O)cc2ccc(CCc3cc(F)cc4c3CCCC4)cc21 (protonated)
CC(C)(C)OC(=O)n1c(C([NH-])=O)cc2ccc(CCc3cc(F)cc4c3CCCC4)cc21 (3D coordinates assigned)
CC(C)(C)OC(=O)n1c(C([NH-])=O)cc2ccc(CCc3cc(F)cc4c3CCCC4)cc21 (nonaromatic ring conformer: 98.93542062617722 kcal/mol)

>  <smiles>  (63) 
CC(C)(C)OC(=O)n1c(C(N)=O)cc2ccc(CCc3cc(F)cc4c3CCCC4)cc21

>  <score_type>  (63) 
oracle

>  <origin>  (63) 
adg

>  <m_score__min__energy>  (63) 
-9.5299999999999994

>  <m_primary>  (63) 
energy

$$$$
63:0
     RDKit          3D

 62 64  0  0  0  0  0  0  0  0999 V2000
  139.6240  158.5860  135.5960 C   0  0  0  0  0  0  0  0  0  0  0  0
  140.9900  158.5650  134.9620 C   0  0  0  0  0  0  0  0  0  0  0  0
  141.3090  159.5250  133.9880 C   0  0  0  0  0  0  0  0  0  0  0  0
  142.5290  159.5220  133.3930 N   0  0  0  0  0  0  0  0  0  0  0  0
  143.4850  158.6070  133.7110 C   0  0  0  0  0  0  0  0  0  0  0  0
  144.7690  158.6270  133.0730 N   0  0  0  0  0  0  0  0  0  0  0  0
  145.6660  159.7410  133.0280 C   0  0  0  0  0  0  0  0  0  0  0  0
  145.5150  160.7170  133.8130 O   0  0  0  0  0  0  0  0  0  0  0  0
  146.7100  159.7230  132.0920 O   0  0  0  0  0  0  0  0  0  0  0  0
  148.0370  159.2170  132.3060 C   0  0  0  0  0  0  0  0  0  0  0  0
  148.0400  157.6770  132.2800 C   0  0  0  0  0  0  0  0  0  0  0  0
  148.4830  159.6900  133.6990 C   0  0  0  0  0  0  0  0  0  0  0  0
  149.0110  159.7820  131.2550 C   0  0  0  0  0  0  0  0  0  0  0  0
  143.2220  157.6430  134.6860 C   0  0  0  0  0  0  0  0  0  0  0  0
  141.9770  157.6210  135.3330 C   0  0  0  0  0  0  0  0  0  0  0  0
  141.7400  156.6080  136.3830 C   0  0  0  0  0  0  0  0  0  0  0  0
  141.5700  157.0040  137.7320 C   0  0  0  0  0  0  0  0  0  0  0  0
  141.3820  156.0450  138.7410 C   0  0  0  0  0  0  0  0  0  0  0  0
  141.3630  154.7040  138.3710 C   0  0  0  0  0  0  0  0  0  0  0  0
  141.2290  153.5740  139.1450 C   0  0  0  0  0  0  0  0  0  0  0  0
  141.2960  152.5060  138.2530 C   0  0  0  0  0  0  0  0  0  0  0  0
  141.1170  151.0960  138.6580 C   0  0  0  0  0  0  0  0  0  0  0  0
  140.0180  150.3450  138.1480 N   0  0  0  0  0  0  0  0  0  0  0  0
  141.9450  150.5330  139.4230 O   0  0  0  0  0  0  0  0  0  0  0  0
  141.4720  152.9560  136.9790 N   0  0  0  0  0  0  0  0  0  0  0  0
  141.6500  152.1730  135.7870 C   0  0  0  0  0  0  0  0  0  0  0  0
  140.9940  151.1070  135.6370 O   0  0  0  0  0  0  0  0  0  0  0  0
  142.5390  152.6170  134.7960 O   0  0  0  0  0  0  0  0  0  0  0  0
  142.2330  152.8220  133.4090 C   0  0  0  0  0  0  0  0  0  0  0  0
  143.3970  153.5390  132.6970 C   0  0  0  0  0  0  0  0  0  0  0  0
  142.0440  151.4340  132.7780 C   0  0  0  0  0  0  0  0  0  0  0  0
  140.9250  153.6210  133.2530 C   0  0  0  0  0  0  0  0  0  0  0  0
  141.5110  154.3040  137.0670 C   0  0  0  0  0  0  0  0  0  0  0  0
  141.7220  155.2360  136.0450 C   0  0  0  0  0  0  0  0  0  0  0  0
  139.7279  158.5844  136.6911 H   0  0  0  0  0  0  0  0  0  0  0  0
  139.0870  159.4925  135.2800 H   0  0  0  0  0  0  0  0  0  0  0  0
  139.0594  157.6964  135.2800 H   0  0  0  0  0  0  0  0  0  0  0  0
  140.5652  160.2845  133.7053 H   0  0  0  0  0  0  0  0  0  0  0  0
  148.0407  157.2929  133.3108 H   0  0  0  0  0  0  0  0  0  0  0  0
  147.1425  157.3174  131.7553 H   0  0  0  0  0  0  0  0  0  0  0  0
  148.9388  157.3209  131.7553 H   0  0  0  0  0  0  0  0  0  0  0  0
  147.9447  159.1191  134.4699 H   0  0  0  0  0  0  0  0  0  0  0  0
  149.5652  159.5286  133.8120 H   0  0  0  0  0  0  0  0  0  0  0  0
  148.2583  160.7609  133.8120 H   0  0  0  0  0  0  0  0  0  0  0  0
  149.8550  160.2716  131.7630 H   0  0  0  0  0  0  0  0  0  0  0  0
  149.3875  158.9621  130.6257 H   0  0  0  0  0  0  0  0  0  0  0  0
  148.4861  160.5159  130.6257 H   0  0  0  0  0  0  0  0  0  0  0  0
  143.9907  156.9007  134.9470 H   0  0  0  0  0  0  0  0  0  0  0  0
  141.5853  158.0727  137.9921 H   0  0  0  0  0  0  0  0  0  0  0  0
  141.2537  156.3451  139.7915 H   0  0  0  0  0  0  0  0  0  0  0  0
  141.0971  153.5246  140.2359 H   0  0  0  0  0  0  0  0  0  0  0  0
  140.0520  149.9250  137.1900 H   0  0  0  0  0  0  0  0  0  0  0  0
  144.0818  153.9608  133.4475 H   0  0  0  0  0  0  0  0  0  0  0  0
  143.9410  152.8192  132.0677 H   0  0  0  0  0  0  0  0  0  0  0  0
  142.9989  154.3487  132.0677 H   0  0  0  0  0  0  0  0  0  0  0  0
  141.9414  150.6807  133.5730 H   0  0  0  0  0  0  0  0  0  0  0  0
  141.1377  151.4349  132.1546 H   0  0  0  0  0  0  0  0  0  0  0  0
  142.9176  151.1926  132.1546 H   0  0  0  0  0  0  0  0  0  0  0  0
  140.5241  153.8659  134.2476 H   0  0  0  0  0  0  0  0  0  0  0  0
  141.1267  154.5503  132.7000 H   0  0  0  0  0  0  0  0  0  0  0  0
  140.1903  153.0173  132.7000 H   0  0  0  0  0  0  0  0  0  0  0  0
  141.8701  154.9091  135.0052 H   0  0  0  0  0  0  0  0  0  0  0  0
  1  2  1  0
  2  3  2  0
  3  4  1  0
  4  5  2  0
  5  6  1  0
  6  7  1  0
  7  8  2  0
  7  9  1  0
  9 10  1  0
 10 11  1  0
 10 12  1  0
 10 13  1  0
  5 14  1  0
 14 15  2  0
 15 16  1  0
 16 17  2  0
 17 18  1  0
 18 19  2  0
 19 20  1  0
 20 21  2  0
 21 22  1  0
 22 23  1  0
 22 24  2  0
 21 25  1  0
 25 26  1  0
 26 27  2  0
 26 28  1  0
 28 29  1  0
 29 30  1  0
 29 31  1  0
 29 32  1  0
 25 33  1  0
 33 34  2  0
 15  2  1  0
 34 16  1  0
 33 19  1  0
  1 35  1  0
  1 36  1  0
  1 37  1  0
  3 38  1  0
 11 39  1  0
 11 40  1  0
 11 41  1  0
 12 42  1  0
 12 43  1  0
 12 44  1  0
 13 45  1  0
 13 46  1  0
 13 47  1  0
 14 48  1  0
 17 49  1  0
 18 50  1  0
 20 51  1  0
 23 52  1  0
 30 53  1  0
 30 54  1  0
 30 55  1  0
 31 56  1  0
 31 57  1  0
 31 58  1  0
 32 59  1  0
 32 60  1  0
 32 61  1  0
 34 62  1  0
M  CHG  2   6  -1  23  -1
M  END
>  <UniqueID>  (64) 
64

>  <SMILES>  (64) 
Cc1cnc([N-]C(=O)OC(C)(C)C)cc1-c1ccc2cc(C([NH-])=O)n(C(=O)OC(C)(C)C)c2c1

>  <Energy>  (64) 
101.06277071168634

>  <Genealogy>  (64) 
Cc1cnc([N-]C(=O)OC(C)(C)C)cc1-c1ccc2cc(C([NH-])=O)n(C(=O)OC(C)(C)C)c2c1 (protonated)
Cc1cnc([N-]C(=O)OC(C)(C)C)cc1-c1ccc2cc(C([NH-])=O)n(C(=O)OC(C)(C)C)c2c1 (3D coordinates assigned)
Cc1cnc([N-]C(=O)OC(C)(C)C)cc1-c1ccc2cc(C([NH-])=O)n(C(=O)OC(C)(C)C)c2c1 (optimized conformer: 101.06277071168634 kcal/mol)

>  <smiles>  (64) 
Cc1cnc(NC(=O)OC(C)(C)C)cc1-c1ccc2cc(C(N)=O)n(C(=O)OC(C)(C)C)c2c1

>  <score_type>  (64) 
oracle

>  <origin>  (64) 
adg

>  <m_score__min__energy>  (64) 
-9.3200000000000003

>  <m_primary>  (64) 
energy

$$$$
64:0
     RDKit          3D

 63 66  0  0  0  0  0  0  0  0999 V2000
  147.3450  155.3460  133.8610 C   0  0  0  0  0  0  0  0  0  0  0  0
  148.3940  155.7700  132.8310 C   0  0  0  0  0  0  0  0  0  0  0  0
  148.8390  157.1680  133.0310 N   0  0  1  0  0  0  0  0  0  0  0  0
  148.6500  158.0040  131.8320 C   0  0  0  0  0  0  0  0  0  0  0  0
  148.4370  159.4240  132.3300 C   0  0  1  0  0  0  0  0  0  0  0  0
  147.7360  160.3250  131.3000 C   0  0  0  0  0  0  0  0  0  0  0  0
  147.7240  159.2500  133.6770 C   0  0  1  0  0  0  0  0  0  0  0  0
  146.2140  159.4680  133.6310 C   0  0  0  0  0  0  0  0  0  0  0  0
  145.6470  160.7650  133.7660 C   0  0  0  0  0  0  0  0  0  0  0  0
  144.2550  160.9460  133.7600 C   0  0  0  0  0  0  0  0  0  0  0  0
  143.4510  159.8210  133.6160 C   0  0  0  0  0  0  0  0  0  0  0  0
  142.0800  159.7100  133.5990 C   0  0  0  0  0  0  0  0  0  0  0  0
  141.8210  158.3510  133.4340 C   0  0  0  0  0  0  0  0  0  0  0  0
  140.4620  157.7950  133.2710 C   0  0  0  0  0  0  0  0  0  0  0  0
  139.9120  156.9560  134.2860 N   0  0  0  0  0  0  0  0  0  0  0  0
  139.7640  158.0820  132.2630 O   0  0  0  0  0  0  0  0  0  0  0  0
  142.9880  157.6480  133.3640 N   0  0  0  0  0  0  0  0  0  0  0  0
  143.1550  156.2260  133.2430 C   0  0  0  0  0  0  0  0  0  0  0  0
  144.3030  155.7420  133.0440 O   0  0  0  0  0  0  0  0  0  0  0  0
  142.0390  155.3880  133.3230 O   0  0  0  0  0  0  0  0  0  0  0  0
  142.1240  153.9830  133.5560 C   0  0  0  0  0  0  0  0  0  0  0  0
  140.8740  153.2750  133.0190 C   0  0  0  0  0  0  0  0  0  0  0  0
  141.0210  151.8050  133.0790 N   0  0  0  0  0  0  0  0  0  0  0  0
  140.0010  151.1580  132.2320 C   0  0  0  0  0  0  0  0  0  0  0  0
  140.1180  149.6220  132.3290 C   0  0  0  0  0  0  0  0  0  0  0  0
  141.3250  149.2040  132.9420 O   0  0  0  0  0  0  0  0  0  0  0  0
  142.4180  149.8680  132.3450 C   0  0  0  0  0  0  0  0  0  0  0  0
  142.3770  151.3750  132.6630 C   0  0  0  0  0  0  0  0  0  0  0  0
  143.9750  158.5640  133.4730 C   0  0  0  0  0  0  0  0  0  0  0  0
  145.3580  158.3500  133.4950 C   0  0  0  0  0  0  0  0  0  0  0  0
  148.1000  157.8270  134.1310 C   0  0  0  0  0  0  0  0  0  0  0  0
  147.7409  155.5060  134.8747 H   0  0  0  0  0  0  0  0  0  0  0  0
  146.4334  155.9463  133.7244 H   0  0  0  0  0  0  0  0  0  0  0  0
  147.1066  154.2809  133.7244 H   0  0  0  0  0  0  0  0  0  0  0  0
  149.2656  155.1046  132.9181 H   0  0  0  0  0  0  0  0  0  0  0  0
  147.9361  155.7002  131.8333 H   0  0  0  0  0  0  0  0  0  0  0  0
  149.8590  157.1660  133.2760 H   0  0  0  0  0  0  0  0  0  0  0  0
  149.5417  157.9556  131.1897 H   0  0  0  0  0  0  0  0  0  0  0  0
  147.7938  157.6577  131.2346 H   0  0  0  0  0  0  0  0  0  0  0  0
  149.3756  159.9793  132.4736 H   0  0  0  0  0  0  0  0  0  0  0  0
  147.1422  161.0882  131.8244 H   0  0  0  0  0  0  0  0  0  0  0  0
  148.4910  160.8172  130.6694 H   0  0  0  0  0  0  0  0  0  0  0  0
  147.0733  159.7142  130.6694 H   0  0  0  0  0  0  0  0  0  0  0  0
  148.0490  160.0238  134.3881 H   0  0  0  0  0  0  0  0  0  0  0  0
  146.3076  161.6376  133.8766 H   0  0  0  0  0  0  0  0  0  0  0  0
  143.8136  161.9479  133.8660 H   0  0  0  0  0  0  0  0  0  0  0  0
  141.3442  160.5220  133.6953 H   0  0  0  0  0  0  0  0  0  0  0  0
  140.2890  155.9960  134.4510 H   0  0  0  0  0  0  0  0  0  0  0  0
  143.0134  153.5843  133.0462 H   0  0  0  0  0  0  0  0  0  0  0  0
  142.1972  153.8049  134.6390 H   0  0  0  0  0  0  0  0  0  0  0  0
  140.0055  153.5731  133.6246 H   0  0  0  0  0  0  0  0  0  0  0  0
  140.7345  153.5671  131.9677 H   0  0  0  0  0  0  0  0  0  0  0  0
  139.0006  151.4675  132.5687 H   0  0  0  0  0  0  0  0  0  0  0  0
  140.1587  151.4630  131.1869 H   0  0  0  0  0  0  0  0  0  0  0  0
  139.2724  149.2412  132.9205 H   0  0  0  0  0  0  0  0  0  0  0  0
  140.1096  149.2224  131.3042 H   0  0  0  0  0  0  0  0  0  0  0  0
  143.3552  149.4422  132.7327 H   0  0  0  0  0  0  0  0  0  0  0  0
  142.3614  149.7342  131.2546 H   0  0  0  0  0  0  0  0  0  0  0  0
  143.0852  151.5880  133.4773 H   0  0  0  0  0  0  0  0  0  0  0  0
  142.6504  151.9278  131.7521 H   0  0  0  0  0  0  0  0  0  0  0  0
  145.7706  157.3340  133.4084 H   0  0  0  0  0  0  0  0  0  0  0  0
  148.7354  157.8784  135.0275 H   0  0  0  0  0  0  0  0  0  0  0  0
  147.1926  157.2547  134.3740 H   0  0  0  0  0  0  0  0  0  0  0  0
  1  2  1  0
  2  3  1  0
  3  4  1  0
  4  5  1  0
  5  6  1  0
  5  7  1  0
  7  8  1  0
  8  9  2  0
  9 10  1  0
 10 11  2  0
 11 12  1  0
 12 13  2  0
 13 14  1  0
 14 15  1  0
 14 16  2  0
 13 17  1  0
 17 18  1  0
 18 19  2  0
 18 20  1  0
 20 21  1  0
 21 22  1  0
 22 23  1  0
 23 24  1  0
 24 25  1  0
 25 26  1  0
 26 27  1  0
 27 28  1  0
 17 29  1  0
 29 30  2  0
  7 31  1  0
 31  3  1  0
 30  8  1  0
 29 11  1  0
 28 23  1  0
  1 32  1  0
  1 33  1  0
  1 34  1  0
  2 35  1  0
  2 36  1  0
  3 37  1  1
  4 38  1  0
  4 39  1  0
  5 40  1  1
  6 41  1  0
  6 42  1  0
  6 43  1  0
  7 44  1  1
  9 45  1  0
 10 46  1  0
 12 47  1  0
 15 48  1  0
 21 49  1  0
 21 50  1  0
 22 51  1  0
 22 52  1  0
 24 53  1  0
 24 54  1  0
 25 55  1  0
 25 56  1  0
 27 57  1  0
 27 58  1  0
 28 59  1  0
 28 60  1  0
 30 61  1  0
 31 62  1  0
 31 63  1  0
M  CHG  2   3   1  15  -1
M  END
>  <UniqueID>  (65) 
65

>  <SMILES>  (65) 
CC[N@@H+]1CC(c2ccc3cc(C([NH-])=O)n(C(=O)OCCN4CCOCC4)c3c2)[C@H](C)C1

>  <Energy>  (65) 
115.29372400691075

>  <Genealogy>  (65) 
CC[NH+]1CC(C)C(c2ccc3cc(C([NH-])=O)n(C(=O)OCCN4CCOCC4)c3c2)C1 (protonated)
CC[N@@H+]1CC(c2ccc3cc(C([NH-])=O)n(C(=O)OCCN4CCOCC4)c3c2)[C@H](C)C1 (chirality)
CC[N@@H+]1CC(c2ccc3cc(C([NH-])=O)n(C(=O)OCCN4CCOCC4)c3c2)[C@H](C)C1 (3D coordinates assigned)
CC[N@@H+]1CC(c2ccc3cc(C([NH-])=O)n(C(=O)OCCN4CCOCC4)c3c2)[C@H](C)C1 (nonaromatic ring conformer: 115.29372400691075 kcal/mol)

>  <smiles>  (65) 
CCN1CC(C)C(c2ccc3cc(C(N)=O)n(C(=O)OCCN4CCOCC4)c3c2)C1

>  <score_type>  (65) 
oracle

>  <origin>  (65) 
adg

>  <m_score__min__energy>  (65) 
-8.4700000000000006

>  <m_primary>  (65) 
energy

$$$$
65:0
     RDKit          3D

 42 44  0  0  0  0  0  0  0  0999 V2000
  145.3140  152.2150  132.2210 C   0  0  0  0  0  0  0  0  0  0  0  0
  144.2410  151.9900  133.1290 O   0  0  0  0  0  0  0  0  0  0  0  0
  143.0390  152.7170  133.1420 C   0  0  0  0  0  0  0  0  0  0  0  0
  143.0200  154.1170  133.3080 C   0  0  0  0  0  0  0  0  0  0  0  0
  141.8070  154.8280  133.3010 C   0  0  0  0  0  0  0  0  0  0  0  0
  141.7980  156.3030  133.4720 C   0  0  0  0  0  0  0  0  0  0  0  0
  140.5800  156.9880  133.7260 C   0  0  0  0  0  0  0  0  0  0  0  0
  140.5620  158.3820  133.9010 C   0  0  0  0  0  0  0  0  0  0  0  0
  141.7690  159.0670  133.8140 C   0  0  0  0  0  0  0  0  0  0  0  0
  142.0410  160.4080  133.9610 C   0  0  0  0  0  0  0  0  0  0  0  0
  143.4160  160.5300  133.7750 C   0  0  0  0  0  0  0  0  0  0  0  0
  144.1270  161.8240  133.7580 C   0  0  0  0  0  0  0  0  0  0  0  0
  145.4610  161.9070  134.2540 N   0  0  0  0  0  0  0  0  0  0  0  0
  143.5600  162.8660  133.3370 O   0  0  0  0  0  0  0  0  0  0  0  0
  143.9740  159.3090  133.5330 N   0  0  0  0  0  0  0  0  0  0  0  0
  145.3620  158.9940  133.3430 C   0  0  0  0  0  0  0  0  0  0  0  0
  146.2340  159.9230  132.6990 N   0  0  0  0  0  0  0  0  0  0  0  0
  145.8250  157.9050  133.7770 O   0  0  0  0  0  0  0  0  0  0  0  0
  142.9520  158.4260  133.5550 C   0  0  0  0  0  0  0  0  0  0  0  0
  143.0040  157.0380  133.3890 C   0  0  0  0  0  0  0  0  0  0  0  0
  140.6060  154.1250  133.1200 C   0  0  0  0  0  0  0  0  0  0  0  0
  140.6140  152.7400  132.9570 C   0  0  0  0  0  0  0  0  0  0  0  0
  141.8210  152.0240  132.9790 C   0  0  0  0  0  0  0  0  0  0  0  0
  141.8030  150.5320  132.7690 C   0  0  0  0  0  0  0  0  0  0  0  0
  140.6520  149.9230  133.5040 C   0  0  0  0  0  0  0  0  0  0  0  0
  139.6960  149.4060  132.8680 O   0  0  0  0  0  0  0  0  0  0  0  0
  140.6090  149.9740  134.8920 O   0  0  0  0  0  0  0  0  0  0  0  0
  146.2378  152.4087  132.7858 H   0  0  0  0  0  0  0  0  0  0  0  0
  145.4510  151.3260  131.5878 H   0  0  0  0  0  0  0  0  0  0  0  0
  145.0823  153.0841  131.5878 H   0  0  0  0  0  0  0  0  0  0  0  0
  143.9667  154.6602  133.4448 H   0  0  0  0  0  0  0  0  0  0  0  0
  139.6397  156.4205  133.7864 H   0  0  0  0  0  0  0  0  0  0  0  0
  139.6211  158.9156  134.1009 H   0  0  0  0  0  0  0  0  0  0  0  0
  141.3241  161.2133  134.1792 H   0  0  0  0  0  0  0  0  0  0  0  0
  146.2640  162.0830  133.6100 H   0  0  0  0  0  0  0  0  0  0  0  0
  147.2390  159.6840  132.5480 H   0  0  0  0  0  0  0  0  0  0  0  0
  145.8870  160.8630  132.4090 H   0  0  0  0  0  0  0  0  0  0  0  0
  143.9607  156.5296  133.1983 H   0  0  0  0  0  0  0  0  0  0  0  0
  139.6509  154.6706  133.1066 H   0  0  0  0  0  0  0  0  0  0  0  0
  139.6651  152.2035  132.8098 H   0  0  0  0  0  0  0  0  0  0  0  0
  141.7033  150.3171  131.6948 H   0  0  0  0  0  0  0  0  0  0  0  0
  142.7412  150.1035  133.1512 H   0  0  0  0  0  0  0  0  0  0  0  0
  1  2  1  0
  2  3  1  0
  3  4  2  0
  4  5  1  0
  5  6  1  0
  6  7  2  0
  7  8  1  0
  8  9  2  0
  9 10  1  0
 10 11  2  0
 11 12  1  0
 12 13  1  0
 12 14  2  0
 11 15  1  0
 15 16  1  0
 16 17  1  0
 16 18  2  0
 15 19  1  0
 19 20  2  0
  5 21  2  0
 21 22  1  0
 22 23  2  0
 23 24  1  0
 24 25  1  0
 25 26  2  0
 25 27  1  0
 23  3  1  0
 20  6  1  0
 19  9  1  0
  1 28  1  0
  1 29  1  0
  1 30  1  0
  4 31  1  0
  7 32  1  0
  8 33  1  0
 10 34  1  0
 13 35  1  0
 17 36  1  0
 17 37  1  0
 20 38  1  0
 21 39  1  0
 22 40  1  0
 24 41  1  0
 24 42  1  0
M  CHG  2  13  -1  27  -1
M  END
>  <UniqueID>  (66) 
66

>  <SMILES>  (66) 
COc1cc(-c2ccc3cc(C([NH-])=O)n(C(N)=O)c3c2)ccc1CC(=O)[O-]

>  <Energy>  (66) 
86.20449118971027

>  <Genealogy>  (66) 
COc1cc(-c2ccc3cc(C([NH-])=O)n(C(N)=O)c3c2)ccc1CC(=O)[O-] (protonated)
COc1cc(-c2ccc3cc(C([NH-])=O)n(C(N)=O)c3c2)ccc1CC(=O)[O-] (3D coordinates assigned)
COc1cc(-c2ccc3cc(C([NH-])=O)n(C(N)=O)c3c2)ccc1CC(=O)[O-] (optimized conformer: 86.20449118971027 kcal/mol)

>  <smiles>  (66) 
COc1cc(-c2ccc3cc(C(N)=O)n(C(N)=O)c3c2)ccc1CC(=O)O

>  <score_type>  (66) 
oracle

>  <origin>  (66) 
adg

>  <m_score__min__energy>  (66) 
-8.0700000000000003

>  <m_primary>  (66) 
energy

$$$$
66:0
     RDKit          3D

 57 60  0  0  0  0  0  0  0  0999 V2000
  146.1920  160.0030  132.6600 C   0  0  0  0  0  0  0  0  0  0  0  0
  145.9720  158.6580  133.2750 C   0  0  0  0  0  0  0  0  0  0  0  0
  144.9680  158.4740  134.0130 O   0  0  0  0  0  0  0  0  0  0  0  0
  146.8800  157.5740  133.0210 N   0  0  0  0  0  0  0  0  0  0  0  0
  148.2220  157.6520  132.8050 C   0  0  0  0  0  0  0  0  0  0  0  0
  149.0080  158.8970  132.6750 C   0  0  0  0  0  0  0  0  0  0  0  0
  149.8700  159.1110  131.5600 N   0  0  0  0  0  0  0  0  0  0  0  0
  148.9380  159.7740  133.5770 O   0  0  0  0  0  0  0  0  0  0  0  0
  148.7660  156.3770  132.6670 C   0  0  0  0  0  0  0  0  0  0  0  0
  147.7070  155.5080  132.8050 C   0  0  0  0  0  0  0  0  0  0  0  0
  147.6750  154.1170  132.7670 C   0  0  0  0  0  0  0  0  0  0  0  0
  146.4410  153.4800  132.9750 C   0  0  0  0  0  0  0  0  0  0  0  0
  145.2710  154.2370  133.2380 C   0  0  0  0  0  0  0  0  0  0  0  0
  144.0070  153.5760  133.4370 N   0  0  0  0  0  0  0  0  0  0  0  0
  143.2650  154.2720  134.4470 C   0  0  0  0  0  0  0  0  0  0  0  0
  143.4290  153.9520  135.7570 N   0  0  0  0  0  0  0  0  0  0  0  0
  142.7690  154.6260  136.7300 C   0  0  0  0  0  0  0  0  0  0  0  0
  141.8960  155.6770  136.4010 C   0  0  0  0  0  0  0  0  0  0  0  0
  141.7320  155.9910  135.0360 C   0  0  0  0  0  0  0  0  0  0  0  0
  142.4310  155.2890  134.1030 N   0  0  0  0  0  0  0  0  0  0  0  0
  140.8730  157.0630  134.6040 N   0  0  0  0  0  0  0  0  0  0  0  0
  139.5400  156.7180  134.0660 C   0  0  0  0  0  0  0  0  0  0  0  0
  138.7670  157.9740  133.6450 C   0  0  0  0  0  0  0  0  0  0  0  0
  139.6430  155.7120  132.9140 C   0  0  0  0  0  0  0  0  0  0  0  0
  141.1830  158.4310  135.0540 C   0  0  0  0  0  0  0  0  0  0  0  0
  140.6540  158.6970  136.4630 C   0  0  0  0  0  0  0  0  0  0  0  0
  139.2960  158.4280  136.4820 F   0  0  0  0  0  0  0  0  0  0  0  0
  140.8340  160.0290  136.7930 F   0  0  0  0  0  0  0  0  0  0  0  0
  141.3500  157.8470  137.4810 C   0  0  0  0  0  0  0  0  0  0  0  0
  142.1040  158.3800  138.3380 O   0  0  0  0  0  0  0  0  0  0  0  0
  141.2280  156.4210  137.4400 N   0  0  0  0  0  0  0  0  0  0  0  0
  140.1630  155.8000  138.2260 C   0  0  0  0  0  0  0  0  0  0  0  0
  145.3440  155.6470  133.2600 C   0  0  0  0  0  0  0  0  0  0  0  0
  146.5800  156.2560  133.0250 C   0  0  0  0  0  0  0  0  0  0  0  0
  146.3148  160.7538  133.4545 H   0  0  0  0  0  0  0  0  0  0  0  0
  147.0979  159.9774  132.0365 H   0  0  0  0  0  0  0  0  0  0  0  0
  145.3252  160.2673  132.0365 H   0  0  0  0  0  0  0  0  0  0  0  0
  150.8780  159.3460  131.6950 H   0  0  0  0  0  0  0  0  0  0  0  0
  149.8198  156.1188  132.4859 H   0  0  0  0  0  0  0  0  0  0  0  0
  148.5889  153.5342  132.5797 H   0  0  0  0  0  0  0  0  0  0  0  0
  146.3812  152.3824  132.9335 H   0  0  0  0  0  0  0  0  0  0  0  0
  143.4620  153.5570  132.5420 H   0  0  0  0  0  0  0  0  0  0  0  0
  144.1570  152.5850  133.7380 H   0  0  0  0  0  0  0  0  0  0  0  0
  142.9176  154.3487  137.7840 H   0  0  0  0  0  0  0  0  0  0  0  0
  138.9722  156.2344  134.8745 H   0  0  0  0  0  0  0  0  0  0  0  0
  138.4330  158.5167  134.5416 H   0  0  0  0  0  0  0  0  0  0  0  0
  139.4217  158.6238  133.0457 H   0  0  0  0  0  0  0  0  0  0  0  0
  137.8919  157.6823  133.0457 H   0  0  0  0  0  0  0  0  0  0  0  0
  139.7470  154.6960  133.3226 H   0  0  0  0  0  0  0  0  0  0  0  0
  138.7345  155.7675  132.2964 H   0  0  0  0  0  0  0  0  0  0  0  0
  140.5214  155.9505  132.2964 H   0  0  0  0  0  0  0  0  0  0  0  0
  142.2744  158.5683  135.0513 H   0  0  0  0  0  0  0  0  0  0  0  0
  140.6948  159.1368  134.3659 H   0  0  0  0  0  0  0  0  0  0  0  0
  140.3775  155.9251  139.2976 H   0  0  0  0  0  0  0  0  0  0  0  0
  139.2027  156.2797  137.9859 H   0  0  0  0  0  0  0  0  0  0  0  0
  140.1075  154.7280  137.9859 H   0  0  0  0  0  0  0  0  0  0  0  0
  144.4476  156.2530  133.4578 H   0  0  0  0  0  0  0  0  0  0  0  0
  1  2  1  0
  2  3  2  0
  2  4  1  0
  4  5  1  0
  5  6  1  0
  6  7  1  0
  6  8  2  0
  5  9  2  0
  9 10  1  0
 10 11  2  0
 11 12  1  0
 12 13  2  0
 13 14  1  0
 14 15  1  0
 15 16  2  0
 16 17  1  0
 17 18  2  0
 18 19  1  0
 19 20  2  0
 19 21  1  0
 21 22  1  0
 22 23  1  0
 22 24  1  0
 21 25  1  0
 25 26  1  0
 26 27  1  0
 26 28  1  0
 26 29  1  0
 29 30  2  0
 29 31  1  0
 31 32  1  0
 13 33  1  0
 33 34  2  0
 34  4  1  0
 34 10  1  0
 20 15  1  0
 31 18  1  0
  1 35  1  0
  1 36  1  0
  1 37  1  0
  7 38  1  0
  9 39  1  0
 11 40  1  0
 12 41  1  0
 14 42  1  0
 14 43  1  0
 17 44  1  0
 22 45  1  0
 23 46  1  0
 23 47  1  0
 23 48  1  0
 24 49  1  0
 24 50  1  0
 24 51  1  0
 25 52  1  0
 25 53  1  0
 32 54  1  0
 32 55  1  0
 32 56  1  0
 33 57  1  0
M  CHG  2   7  -1  14   1
M  END
>  <UniqueID>  (67) 
67

>  <SMILES>  (67) 
CC(=O)n1c(C([NH-])=O)cc2ccc([NH2+]c3ncc4c(n3)N(C(C)C)CC(F)(F)C(=O)N4C)cc21

>  <Energy>  (67) 
111.45167400079332

>  <Genealogy>  (67) 
CC(=O)n1c(C([NH-])=O)cc2ccc([NH2+]c3ncc4c(n3)N(C(C)C)CC(F)(F)C(=O)N4C)cc21 (protonated)
CC(=O)n1c(C([NH-])=O)cc2ccc([NH2+]c3ncc4c(n3)N(C(C)C)CC(F)(F)C(=O)N4C)cc21 (3D coordinates assigned)
CC(=O)n1c(C([NH-])=O)cc2ccc([NH2+]c3ncc4c(n3)N(C(C)C)CC(F)(F)C(=O)N4C)cc21 (nonaromatic ring conformer: 111.45167400079332 kcal/mol)

>  <smiles>  (67) 
CC(=O)n1c(C(N)=O)cc2ccc(Nc3ncc4c(n3)N(C(C)C)CC(F)(F)C(=O)N4C)cc21

>  <score_type>  (67) 
oracle

>  <origin>  (67) 
adg

>  <m_score__min__energy>  (67) 
-6.8399999999999999

>  <m_primary>  (67) 
energy

$$$$
67:0
     RDKit          3D

 28 29  0  0  0  0  0  0  0  0999 V2000
  148.8340  158.9680  134.2710 C   0  0  0  0  0  0  0  0  0  0  0  0
  148.0890  158.2510  133.1890 C   0  0  0  0  0  0  0  0  0  0  0  0
  148.7370  157.7200  132.2490 O   0  0  0  0  0  0  0  0  0  0  0  0
  146.6540  158.1820  133.2060 N   0  0  0  0  0  0  0  0  0  0  0  0
  145.8810  157.0660  133.0980 C   0  0  0  0  0  0  0  0  0  0  0  0
  146.3760  155.7010  132.8510 C   0  0  0  0  0  0  0  0  0  0  0  0
  147.3760  155.4480  131.8660 N   0  0  0  0  0  0  0  0  0  0  0  0
  145.8660  154.7350  133.4790 O   0  0  0  0  0  0  0  0  0  0  0  0
  144.5460  157.3630  133.3600 C   0  0  0  0  0  0  0  0  0  0  0  0
  144.5200  158.7150  133.6190 C   0  0  0  0  0  0  0  0  0  0  0  0
  143.4510  159.5480  133.9300 C   0  0  0  0  0  0  0  0  0  0  0  0
  143.7180  160.9100  134.1480 C   0  0  0  0  0  0  0  0  0  0  0  0
  145.0440  161.4120  134.0710 C   0  0  0  0  0  0  0  0  0  0  0  0
  145.3090  162.8840  134.2520 C   0  0  0  0  0  0  0  0  0  0  0  0
  144.3740  163.6070  133.5350 F   0  0  0  0  0  0  0  0  0  0  0  0
  145.2230  163.2360  135.5880 F   0  0  0  0  0  0  0  0  0  0  0  0
  146.5760  163.2110  133.8000 F   0  0  0  0  0  0  0  0  0  0  0  0
  146.1000  160.5350  133.7310 C   0  0  0  0  0  0  0  0  0  0  0  0
  145.8050  159.1840  133.5250 C   0  0  0  0  0  0  0  0  0  0  0  0
  148.4763  158.6237  135.2526 H   0  0  0  0  0  0  0  0  0  0  0  0
  149.9094  158.7565  134.1778 H   0  0  0  0  0  0  0  0  0  0  0  0
  148.6638  160.0508  134.1778 H   0  0  0  0  0  0  0  0  0  0  0  0
  147.6450  156.1840  131.1770 H   0  0  0  0  0  0  0  0  0  0  0  0
  147.7610  154.4850  131.7440 H   0  0  0  0  0  0  0  0  0  0  0  0
  143.6945  156.6666  133.3600 H   0  0  0  0  0  0  0  0  0  0  0  0
  142.4272  159.1526  134.0031 H   0  0  0  0  0  0  0  0  0  0  0  0
  142.8900  161.5956  134.3811 H   0  0  0  0  0  0  0  0  0  0  0  0
  147.1302  160.9074  133.6309 H   0  0  0  0  0  0  0  0  0  0  0  0
  1  2  1  0
  2  3  2  0
  2  4  1  0
  4  5  1  0
  5  6  1  0
  6  7  1  0
  6  8  2  0
  5  9  2  0
  9 10  1  0
 10 11  2  0
 11 12  1  0
 12 13  2  0
 13 14  1  0
 14 15  1  0
 14 16  1  0
 14 17  1  0
 13 18  1  0
 18 19  2  0
 19  4  1  0
 19 10  1  0
  1 20  1  0
  1 21  1  0
  1 22  1  0
  7 23  1  0
  7 24  1  0
  9 25  1  0
 11 26  1  0
 12 27  1  0
 18 28  1  0
M  END
>  <UniqueID>  (68) 
68

>  <SMILES>  (68) 
CC(=O)n1c(C(N)=O)cc2ccc(C(F)(F)F)cc21

>  <Energy>  (68) 
71.36322039980166

>  <Genealogy>  (68) 
CC(=O)n1c(C(N)=O)cc2ccc(C(F)(F)F)cc21 (3D coordinates assigned)
CC(=O)n1c(C(N)=O)cc2ccc(C(F)(F)F)cc21 (optimized conformer: 71.36322039980166 kcal/mol)

>  <smiles>  (68) 
CC(=O)n1c(C(N)=O)cc2ccc(C(F)(F)F)cc21

>  <score_type>  (68) 
oracle

>  <origin>  (68) 
adg

>  <m_score__min__energy>  (68) 
-5.6799999999999997

>  <m_primary>  (68) 
energy

$$$$
68:0
     RDKit          3D

 48 50  0  0  0  0  0  0  0  0999 V2000
  150.2450  151.0600  132.3030 C   0  0  0  0  0  0  0  0  0  0  0  0
  149.2940  152.2130  132.4280 C   0  0  0  0  0  0  0  0  0  0  0  0
  149.7810  153.5280  132.4460 C   0  0  0  0  0  0  0  0  0  0  0  0
  148.9020  154.6030  132.6060 C   0  0  0  0  0  0  0  0  0  0  0  0
  147.5210  154.3810  132.7620 C   0  0  0  0  0  0  0  0  0  0  0  0
  146.5860  155.5180  132.9580 C   0  0  0  0  0  0  0  0  0  0  0  0
  145.2150  155.2750  133.2290 C   0  0  0  0  0  0  0  0  0  0  0  0
  144.3320  156.3370  133.4780 C   0  0  0  0  0  0  0  0  0  0  0  0
  144.8410  157.6310  133.4530 C   0  0  0  0  0  0  0  0  0  0  0  0
  144.2090  158.8250  133.6990 C   0  0  0  0  0  0  0  0  0  0  0  0
  145.1960  159.7950  133.5800 C   0  0  0  0  0  0  0  0  0  0  0  0
  144.9590  161.2160  133.8970 C   0  0  0  0  0  0  0  0  0  0  0  0
  146.0490  162.1050  134.1460 N   0  0  0  0  0  0  0  0  0  0  0  0
  143.7760  161.6370  134.0070 O   0  0  0  0  0  0  0  0  0  0  0  0
  146.3940  159.2350  133.2400 N   0  0  0  0  0  0  0  0  0  0  0  0
  147.6040  159.9400  132.8910 C   0  0  0  0  0  0  0  0  0  0  0  0
  148.5090  160.1170  133.7520 O   0  0  0  0  0  0  0  0  0  0  0  0
  147.7770  160.4090  131.5750 O   0  0  0  0  0  0  0  0  0  0  0  0
  148.9580  160.2750  130.7700 C   0  0  0  0  0  0  0  0  0  0  0  0
  149.9660  159.3060  131.4280 C   0  0  0  0  0  0  0  0  0  0  0  0
  149.5970  161.6710  130.6700 C   0  0  0  0  0  0  0  0  0  0  0  0
  148.5860  159.7910  129.3540 C   0  0  0  0  0  0  0  0  0  0  0  0
  146.1610  157.8970  133.1820 C   0  0  0  0  0  0  0  0  0  0  0  0
  147.0610  156.8530  132.9150 C   0  0  0  0  0  0  0  0  0  0  0  0
  147.0420  153.0580  132.7570 C   0  0  0  0  0  0  0  0  0  0  0  0
  147.9210  151.9840  132.5980 C   0  0  0  0  0  0  0  0  0  0  0  0
  150.5325  150.7114  133.3059 H   0  0  0  0  0  0  0  0  0  0  0  0
  149.7571  150.2400  131.7557 H   0  0  0  0  0  0  0  0  0  0  0  0
  151.1429  151.3829  131.7557 H   0  0  0  0  0  0  0  0  0  0  0  0
  150.8593  153.7143  132.3337 H   0  0  0  0  0  0  0  0  0  0  0  0
  149.2929  155.6312  132.6100 H   0  0  0  0  0  0  0  0  0  0  0  0
  144.8393  154.2413  133.2442 H   0  0  0  0  0  0  0  0  0  0  0  0
  143.2681  156.1513  133.6869 H   0  0  0  0  0  0  0  0  0  0  0  0
  143.1468  158.9803  133.9392 H   0  0  0  0  0  0  0  0  0  0  0  0
  147.0280  161.7490  134.1770 H   0  0  0  0  0  0  0  0  0  0  0  0
  145.8700  163.1030  134.3920 H   0  0  0  0  0  0  0  0  0  0  0  0
  149.8868  159.3821  132.5225 H   0  0  0  0  0  0  0  0  0  0  0  0
  149.7419  158.2756  131.1149 H   0  0  0  0  0  0  0  0  0  0  0  0
  150.9868  159.5706  131.1149 H   0  0  0  0  0  0  0  0  0  0  0  0
  149.7773  162.0650  131.6811 H   0  0  0  0  0  0  0  0  0  0  0  0
  150.5519  161.5992  130.1287 H   0  0  0  0  0  0  0  0  0  0  0  0
  148.9186  162.3469  130.1287 H   0  0  0  0  0  0  0  0  0  0  0  0
  147.9172  158.9208  129.4279 H   0  0  0  0  0  0  0  0  0  0  0  0
  148.0756  160.6008  128.8120 H   0  0  0  0  0  0  0  0  0  0  0  0
  149.4998  159.5061  128.8120 H   0  0  0  0  0  0  0  0  0  0  0  0
  148.1135  157.0666  132.6772 H   0  0  0  0  0  0  0  0  0  0  0  0
  145.9655  152.8677  132.8794 H   0  0  0  0  0  0  0  0  0  0  0  0
  147.5345  150.9542  132.6062 H   0  0  0  0  0  0  0  0  0  0  0  0
  1  2  1  0
  2  3  2  0
  3  4  1  0
  4  5  2  0
  5  6  1  0
  6  7  2  0
  7  8  1  0
  8  9  2  0
  9 10  1  0
 10 11  2  0
 11 12  1  0
 12 13  1  0
 12 14  2  0
 11 15  1  0
 15 16  1  0
 16 17  2  0
 16 18  1  0
 18 19  1  0
 19 20  1  0
 19 21  1  0
 19 22  1  0
 15 23  1  0
 23 24  2  0
  5 25  1  0
 25 26  2  0
 26  2  1  0
 24  6  1  0
 23  9  1  0
  1 27  1  0
  1 28  1  0
  1 29  1  0
  3 30  1  0
  4 31  1  0
  7 32  1  0
  8 33  1  0
 10 34  1  0
 13 35  1  0
 13 36  1  0
 20 37  1  0
 20 38  1  0
 20 39  1  0
 21 40  1  0
 21 41  1  0
 21 42  1  0
 22 43  1  0
 22 44  1  0
 22 45  1  0
 24 46  1  0
 25 47  1  0
 26 48  1  0
M  END
>  <UniqueID>  (69) 
69

>  <SMILES>  (69) 
Cc1ccc(-c2ccc3cc(C(N)=O)n(C(=O)OC(C)(C)C)c3c2)cc1

>  <Energy>  (69) 
90.07173941656526

>  <Genealogy>  (69) 
Cc1ccc(-c2ccc3cc(C(N)=O)n(C(=O)OC(C)(C)C)c3c2)cc1 (3D coordinates assigned)
Cc1ccc(-c2ccc3cc(C(N)=O)n(C(=O)OC(C)(C)C)c3c2)cc1 (optimized conformer: 90.07173941656526 kcal/mol)

>  <smiles>  (69) 
Cc1ccc(-c2ccc3cc(C(N)=O)n(C(=O)OC(C)(C)C)c3c2)cc1

>  <score_type>  (69) 
oracle

>  <origin>  (69) 
adg

>  <m_score__min__energy>  (69) 
-8.8800000000000008

>  <m_primary>  (69) 
energy

$$$$
69:0
     RDKit          3D

 48 50  0  0  0  0  0  0  0  0999 V2000
  145.6440  154.9690  134.1580 C   0  0  0  0  0  0  0  0  0  0  0  0
  146.7030  155.7870  134.1150 C   0  0  0  0  0  0  0  0  0  0  0  0
  147.7180  155.7400  135.2240 C   0  0  0  0  0  0  0  0  0  0  0  0
  146.9460  156.6560  132.9380 C   0  0  0  0  0  0  0  0  0  0  0  0
  147.2730  156.1330  131.8380 O   0  0  0  0  0  0  0  0  0  0  0  0
  146.7920  158.0820  133.0160 N   0  0  0  0  0  0  0  0  0  0  0  0
  147.7230  159.0420  132.7510 C   0  0  0  0  0  0  0  0  0  0  0  0
  149.0850  158.7880  132.2320 C   0  0  0  0  0  0  0  0  0  0  0  0
  149.4940  157.4720  131.8530 N   0  0  0  0  0  0  0  0  0  0  0  0
  149.9100  159.7350  132.1330 O   0  0  0  0  0  0  0  0  0  0  0  0
  147.1870  160.3110  132.9730 C   0  0  0  0  0  0  0  0  0  0  0  0
  145.8870  160.0930  133.3740 C   0  0  0  0  0  0  0  0  0  0  0  0
  144.8920  160.9990  133.7290 C   0  0  0  0  0  0  0  0  0  0  0  0
  143.6430  160.4870  134.1160 C   0  0  0  0  0  0  0  0  0  0  0  0
  143.4060  159.0880  134.1390 C   0  0  0  0  0  0  0  0  0  0  0  0
  142.1240  158.5770  134.5550 N   0  0  0  0  0  0  0  0  0  0  0  0
  141.4520  157.5240  133.7920 C   0  0  0  0  0  0  0  0  0  0  0  0
  139.9340  157.8230  133.6730 C   0  0  2  0  0  0  0  0  0  0  0  0
  139.5820  158.2380  132.2440 C   0  0  0  0  0  0  0  0  0  0  0  0
  139.4810  158.8490  134.5490 O   0  0  0  0  0  0  0  0  0  0  0  0
  140.0250  158.7530  135.8570 C   0  0  1  0  0  0  0  0  0  0  0  0
  139.6040  157.4640  136.5850 C   0  0  0  0  0  0  0  0  0  0  0  0
  141.5510  158.9740  135.8430 C   0  0  0  0  0  0  0  0  0  0  0  0
  144.4460  158.2000  133.7760 C   0  0  0  0  0  0  0  0  0  0  0  0
  145.6750  158.7400  133.3890 C   0  0  0  0  0  0  0  0  0  0  0  0
  144.8957  154.9952  133.3522 H   0  0  0  0  0  0  0  0  0  0  0  0
  145.5222  154.2707  134.9992 H   0  0  0  0  0  0  0  0  0  0  0  0
  147.2016  155.7639  136.1949 H   0  0  0  0  0  0  0  0  0  0  0  0
  148.3058  154.8137  135.1440 H   0  0  0  0  0  0  0  0  0  0  0  0
  148.3889  156.6080  135.1440 H   0  0  0  0  0  0  0  0  0  0  0  0
  150.4690  157.3020  131.5210 H   0  0  0  0  0  0  0  0  0  0  0  0
  148.8250  156.6710  131.8550 H   0  0  0  0  0  0  0  0  0  0  0  0
  147.6945  161.2796  132.8533 H   0  0  0  0  0  0  0  0  0  0  0  0
  145.0782  162.0829  133.7071 H   0  0  0  0  0  0  0  0  0  0  0  0
  142.8382  161.1790  134.4049 H   0  0  0  0  0  0  0  0  0  0  0  0
  141.8905  157.4710  132.7846 H   0  0  0  0  0  0  0  0  0  0  0  0
  141.5857  156.5655  134.3149 H   0  0  0  0  0  0  0  0  0  0  0  0
  139.4309  156.8868  133.9567 H   0  0  0  0  0  0  0  0  0  0  0  0
  138.8707  159.0766  132.2704 H   0  0  0  0  0  0  0  0  0  0  0  0
  140.4960  158.5489  131.7168 H   0  0  0  0  0  0  0  0  0  0  0  0
  139.1261  157.3870  131.7168 H   0  0  0  0  0  0  0  0  0  0  0  0
  139.5911  159.5695  136.4529 H   0  0  0  0  0  0  0  0  0  0  0  0
  139.6560  157.6232  137.6722 H   0  0  0  0  0  0  0  0  0  0  0  0
  138.5738  157.2026  136.3016 H   0  0  0  0  0  0  0  0  0  0  0  0
  140.2813  156.6449  136.3016 H   0  0  0  0  0  0  0  0  0  0  0  0
  141.7624  160.0391  136.0184 H   0  0  0  0  0  0  0  0  0  0  0  0
  142.0030  158.3576  136.6341 H   0  0  0  0  0  0  0  0  0  0  0  0
  144.2907  157.1112  133.7979 H   0  0  0  0  0  0  0  0  0  0  0  0
  1  2  2  0
  2  3  1  0
  2  4  1  0
  4  5  2  0
  4  6  1  0
  6  7  1  0
  7  8  1  0
  8  9  1  0
  8 10  2  0
  7 11  2  0
 11 12  1  0
 12 13  2  0
 13 14  1  0
 14 15  2  0
 15 16  1  0
 16 17  1  0
 17 18  1  0
 18 19  1  0
 18 20  1  0
 20 21  1  0
 21 22  1  0
 21 23  1  0
 15 24  1  0
 24 25  2  0
 25  6  1  0
 25 12  1  0
 23 16  1  0
  1 26  1  0
  1 27  1  0
  3 28  1  0
  3 29  1  0
  3 30  1  0
  9 31  1  0
  9 32  1  0
 11 33  1  0
 13 34  1  0
 14 35  1  0
 17 36  1  0
 17 37  1  0
 18 38  1  1
 19 39  1  0
 19 40  1  0
 19 41  1  0
 21 42  1  1
 22 43  1  0
 22 44  1  0
 22 45  1  0
 23 46  1  0
 23 47  1  0
 24 48  1  0
M  END
>  <UniqueID>  (70) 
70

>  <SMILES>  (70) 
C=C(C)C(=O)n1c(C(N)=O)cc2ccc(N3C[C@H](C)O[C@@H](C)C3)cc21

>  <Energy>  (70) 
98.68461367301263

>  <Genealogy>  (70) 
C=C(C)C(=O)n1c(C(N)=O)cc2ccc(N3C[C@H](C)O[C@@H](C)C3)cc21 (chirality)
C=C(C)C(=O)n1c(C(N)=O)cc2ccc(N3C[C@H](C)O[C@@H](C)C3)cc21 (3D coordinates assigned)
C=C(C)C(=O)n1c(C(N)=O)cc2ccc(N3C[C@H](C)O[C@@H](C)C3)cc21 (nonaromatic ring conformer: 98.68461367301263 kcal/mol)

>  <smiles>  (70) 
C=C(C)C(=O)n1c(C(N)=O)cc2ccc(N3CC(C)OC(C)C3)cc21

>  <score_type>  (70) 
oracle

>  <origin>  (70) 
adg

>  <m_score__min__energy>  (70) 
-8.2699999999999996

>  <m_primary>  (70) 
energy

$$$$
70:0
     RDKit          3D

 71 75  0  0  0  0  0  0  0  0999 V2000
  142.7960  150.5840  139.6570 C   0  0  0  0  0  0  0  0  0  0  0  0
  141.3410  150.7480  139.8250 N   0  0  0  0  0  0  0  0  0  0  0  0
  140.9920  152.1050  140.3210 C   0  0  0  0  0  0  0  0  0  0  0  0
  140.4120  153.0360  139.2380 C   0  0  0  0  0  0  0  0  0  0  0  0
  140.9850  152.7110  137.9290 N   0  0  0  0  0  0  0  0  0  0  0  0
  141.6720  153.7050  137.1430 C   0  0  0  0  0  0  0  0  0  0  0  0
  141.4600  155.0720  137.3850 C   0  0  0  0  0  0  0  0  0  0  0  0
  142.1110  156.0360  136.6100 C   0  0  0  0  0  0  0  0  0  0  0  0
  142.9780  155.6530  135.5720 C   0  0  0  0  0  0  0  0  0  0  0  0
  143.6620  156.6780  134.7440 C   0  0  0  0  0  0  0  0  0  0  0  0
  142.9070  157.6580  134.0460 C   0  0  0  0  0  0  0  0  0  0  0  0
  143.5430  158.6360  133.2650 C   0  0  0  0  0  0  0  0  0  0  0  0
  144.9310  158.6120  133.1930 C   0  0  0  0  0  0  0  0  0  0  0  0
  145.7990  159.4400  132.5160 C   0  0  0  0  0  0  0  0  0  0  0  0
  147.0740  158.9470  132.7960 C   0  0  0  0  0  0  0  0  0  0  0  0
  148.3250  159.4870  132.2170 C   0  0  0  0  0  0  0  0  0  0  0  0
  149.5990  159.0190  132.6600 N   0  0  0  0  0  0  0  0  0  0  0  0
  148.2750  160.3810  131.3300 O   0  0  0  0  0  0  0  0  0  0  0  0
  146.9910  157.8640  133.6210 N   0  0  0  0  0  0  0  0  0  0  0  0
  148.0700  157.0870  134.1670 C   0  0  0  0  0  0  0  0  0  0  0  0
  148.8490  157.6210  135.0020 O   0  0  0  0  0  0  0  0  0  0  0  0
  148.2920  155.6830  133.7470 C   0  0  0  0  0  0  0  0  0  0  0  0
  149.0900  155.3950  132.6300 C   0  0  0  0  0  0  0  0  0  0  0  0
  149.3220  154.0730  132.2400 C   0  0  0  0  0  0  0  0  0  0  0  0
  148.7540  152.9920  132.9560 C   0  0  0  0  0  0  0  0  0  0  0  0
  148.9920  151.5170  132.5700 C   0  0  0  0  0  0  0  0  0  0  0  0
  147.6460  150.8590  132.1950 C   0  0  0  0  0  0  0  0  0  0  0  0
  149.9490  151.3520  131.3650 C   0  0  0  0  0  0  0  0  0  0  0  0
  149.6140  150.7660  133.7670 C   0  0  0  0  0  0  0  0  0  0  0  0
  147.9360  153.2990  134.0640 C   0  0  0  0  0  0  0  0  0  0  0  0
  147.7080  154.6220  134.4510 C   0  0  0  0  0  0  0  0  0  0  0  0
  145.6760  157.6680  133.8480 C   0  0  0  0  0  0  0  0  0  0  0  0
  145.0740  156.6890  134.6430 C   0  0  0  0  0  0  0  0  0  0  0  0
  143.1810  154.2840  135.3260 C   0  0  0  0  0  0  0  0  0  0  0  0
  142.5340  153.3200  136.1030 C   0  0  0  0  0  0  0  0  0  0  0  0
  140.8730  151.3320  137.4400 C   0  0  0  0  0  0  0  0  0  0  0  0
  140.6000  150.3640  138.6040 C   0  0  0  0  0  0  0  0  0  0  0  0
  143.2755  150.5300  140.6455 H   0  0  0  0  0  0  0  0  0  0  0  0
  142.9987  149.6573  139.1000 H   0  0  0  0  0  0  0  0  0  0  0  0
  143.1999  151.4423  139.1000 H   0  0  0  0  0  0  0  0  0  0  0  0
  140.2462  151.9995  141.1226 H   0  0  0  0  0  0  0  0  0  0  0  0
  141.9267  152.5668  140.6718 H   0  0  0  0  0  0  0  0  0  0  0  0
  139.3200  152.9099  139.1977 H   0  0  0  0  0  0  0  0  0  0  0  0
  140.6616  154.0773  139.4897 H   0  0  0  0  0  0  0  0  0  0  0  0
  140.7779  155.3858  138.1889 H   0  0  0  0  0  0  0  0  0  0  0  0
  141.9433  157.1038  136.8142 H   0  0  0  0  0  0  0  0  0  0  0  0
  141.8094  157.6505  134.1184 H   0  0  0  0  0  0  0  0  0  0  0  0
  142.9607  159.3981  132.7264 H   0  0  0  0  0  0  0  0  0  0  0  0
  145.5418  160.3058  131.8881 H   0  0  0  0  0  0  0  0  0  0  0  0
  149.6840  158.2400  133.3500 H   0  0  0  0  0  0  0  0  0  0  0  0
  150.4730  159.4190  132.2520 H   0  0  0  0  0  0  0  0  0  0  0  0
  149.5381  156.2185  132.0547 H   0  0  0  0  0  0  0  0  0  0  0  0
  149.9553  153.8696  131.3639 H   0  0  0  0  0  0  0  0  0  0  0  0
  147.1002  150.5922  133.1120 H   0  0  0  0  0  0  0  0  0  0  0  0
  147.0451  151.5650  131.6030 H   0  0  0  0  0  0  0  0  0  0  0  0
  147.8340  149.9512  131.6030 H   0  0  0  0  0  0  0  0  0  0  0  0
  150.9715  151.1757  131.7303 H   0  0  0  0  0  0  0  0  0  0  0  0
  149.6253  150.4964  130.7541 H   0  0  0  0  0  0  0  0  0  0  0  0
  149.9305  152.2666  130.7541 H   0  0  0  0  0  0  0  0  0  0  0  0
  149.2488  151.2069  134.7063 H   0  0  0  0  0  0  0  0  0  0  0  0
  149.3264  149.7051  133.7238 H   0  0  0  0  0  0  0  0  0  0  0  0
  150.7099  150.8509  133.7238 H   0  0  0  0  0  0  0  0  0  0  0  0
  147.4693  152.4818  134.6335 H   0  0  0  0  0  0  0  0  0  0  0  0
  147.0635  154.8326  135.3172 H   0  0  0  0  0  0  0  0  0  0  0  0
  145.6827  155.9448  135.1775 H   0  0  0  0  0  0  0  0  0  0  0  0
  143.8546  153.9693  134.5153 H   0  0  0  0  0  0  0  0  0  0  0  0
  142.7008  152.2520  135.8989 H   0  0  0  0  0  0  0  0  0  0  0  0
  140.0457  151.2709  136.7177 H   0  0  0  0  0  0  0  0  0  0  0  0
  141.8208  151.0488  136.9588 H   0  0  0  0  0  0  0  0  0  0  0  0
  139.5225  150.3688  138.8255 H   0  0  0  0  0  0  0  0  0  0  0  0
  140.9377  149.3620  138.3009 H   0  0  0  0  0  0  0  0  0  0  0  0
  1  2  1  0
  2  3  1  0
  3  4  1  0
  4  5  1  0
  5  6  1  0
  6  7  2  0
  7  8  1  0
  8  9  2  0
  9 10  1  0
 10 11  2  0
 11 12  1  0
 12 13  2  0
 13 14  1  0
 14 15  2  0
 15 16  1  0
 16 17  1  0
 16 18  2  0
 15 19  1  0
 19 20  1  0
 20 21  2  0
 20 22  1  0
 22 23  2  0
 23 24  1  0
 24 25  2  0
 25 26  1  0
 26 27  1  0
 26 28  1  0
 26 29  1  0
 25 30  1  0
 30 31  2  0
 19 32  1  0
 32 33  2  0
  9 34  1  0
 34 35  2  0
  5 36  1  0
 36 37  1  0
 37  2  1  0
 35  6  1  0
 33 10  1  0
 32 13  1  0
 31 22  1  0
  1 38  1  0
  1 39  1  0
  1 40  1  0
  3 41  1  0
  3 42  1  0
  4 43  1  0
  4 44  1  0
  7 45  1  0
  8 46  1  0
 11 47  1  0
 12 48  1  0
 14 49  1  0
 17 50  1  0
 17 51  1  0
 23 52  1  0
 24 53  1  0
 27 54  1  0
 27 55  1  0
 27 56  1  0
 28 57  1  0
 28 58  1  0
 28 59  1  0
 29 60  1  0
 29 61  1  0
 29 62  1  0
 30 63  1  0
 31 64  1  0
 33 65  1  0
 34 66  1  0
 35 67  1  0
 36 68  1  0
 36 69  1  0
 37 70  1  0
 37 71  1  0
M  END
>  <UniqueID>  (71) 
71

>  <SMILES>  (71) 
CN1CCN(c2ccc(-c3ccc4cc(C(N)=O)n(C(=O)c5ccc(C(C)(C)C)cc5)c4c3)cc2)CC1

>  <Energy>  (71) 
134.34951653208418

>  <Genealogy>  (71) 
CN1CCN(c2ccc(-c3ccc4cc(C(N)=O)n(C(=O)c5ccc(C(C)(C)C)cc5)c4c3)cc2)CC1 (3D coordinates assigned)
CN1CCN(c2ccc(-c3ccc4cc(C(N)=O)n(C(=O)c5ccc(C(C)(C)C)cc5)c4c3)cc2)CC1 (nonaromatic ring conformer: 134.34951653208418 kcal/mol)

>  <smiles>  (71) 
CN1CCN(c2ccc(-c3ccc4cc(C(N)=O)n(C(=O)c5ccc(C(C)(C)C)cc5)c4c3)cc2)CC1

>  <score_type>  (71) 
oracle

>  <origin>  (71) 
adg

>  <m_score__min__energy>  (71) 
-11.789999999999999

>  <m_primary>  (71) 
energy

$$$$
71:0
     RDKit          3D

 30 31  0  0  0  0  0  0  0  0999 V2000
  145.3570  162.0800  134.4850 C   0  0  0  0  0  0  0  0  0  0  0  0
  144.3560  161.1540  133.8020 C   0  0  0  0  0  0  0  0  0  0  0  0
  144.5440  159.8070  134.2300 O   0  0  0  0  0  0  0  0  0  0  0  0
  144.8820  158.7610  133.3640 C   0  0  0  0  0  0  0  0  0  0  0  0
  143.9990  158.2120  132.6500 O   0  0  0  0  0  0  0  0  0  0  0  0
  146.2410  158.3000  133.3010 N   0  0  0  0  0  0  0  0  0  0  0  0
  146.7470  157.1310  133.7860 C   0  0  0  0  0  0  0  0  0  0  0  0
  146.0300  156.1650  134.6430 C   0  0  0  0  0  0  0  0  0  0  0  0
  144.6180  156.2490  134.8210 N   0  0  0  0  0  0  0  0  0  0  0  0
  146.6790  155.2830  135.2680 O   0  0  0  0  0  0  0  0  0  0  0  0
  148.0870  156.9930  133.4310 C   0  0  0  0  0  0  0  0  0  0  0  0
  148.3930  158.1280  132.7140 C   0  0  0  0  0  0  0  0  0  0  0  0
  149.5870  158.5090  132.1070 C   0  0  0  0  0  0  0  0  0  0  0  0
  149.6070  159.7240  131.4020 C   0  0  0  0  0  0  0  0  0  0  0  0
  148.4430  160.5230  131.3100 C   0  0  0  0  0  0  0  0  0  0  0  0
  148.4750  161.7510  130.5780 N   0  0  0  0  0  0  0  0  0  0  0  0
  147.2490  160.1060  131.9360 C   0  0  0  0  0  0  0  0  0  0  0  0
  147.2620  158.9000  132.6480 C   0  0  0  0  0  0  0  0  0  0  0  0
  145.2567  161.9872  135.5765 H   0  0  0  0  0  0  0  0  0  0  0  0
  146.3780  161.8010  134.1856 H   0  0  0  0  0  0  0  0  0  0  0  0
  145.1582  163.1196  134.1856 H   0  0  0  0  0  0  0  0  0  0  0  0
  143.3351  161.4748  134.0565 H   0  0  0  0  0  0  0  0  0  0  0  0
  144.5114  161.2050  132.7142 H   0  0  0  0  0  0  0  0  0  0  0  0
  144.0850  157.0900  134.5080 H   0  0  0  0  0  0  0  0  0  0  0  0
  148.7580  156.1554  133.6722 H   0  0  0  0  0  0  0  0  0  0  0  0
  150.4858  157.8787  132.1773 H   0  0  0  0  0  0  0  0  0  0  0  0
  150.5363  160.0573  130.9170 H   0  0  0  0  0  0  0  0  0  0  0  0
  148.8490  161.7830  129.6030 H   0  0  0  0  0  0  0  0  0  0  0  0
  148.1250  162.6370  131.0060 H   0  0  0  0  0  0  0  0  0  0  0  0
  146.3333  160.7115  131.8667 H   0  0  0  0  0  0  0  0  0  0  0  0
  1  2  1  0
  2  3  1  0
  3  4  1  0
  4  5  2  0
  4  6  1  0
  6  7  1  0
  7  8  1  0
  8  9  1  0
  8 10  2  0
  7 11  2  0
 11 12  1  0
 12 13  2  0
 13 14  1  0
 14 15  2  0
 15 16  1  0
 15 17  1  0
 17 18  2  0
 18  6  1  0
 18 12  1  0
  1 19  1  0
  1 20  1  0
  1 21  1  0
  2 22  1  0
  2 23  1  0
  9 24  1  0
 11 25  1  0
 13 26  1  0
 14 27  1  0
 16 28  1  0
 16 29  1  0
 17 30  1  0
M  CHG  1   9  -1
M  END
>  <UniqueID>  (72) 
72

>  <SMILES>  (72) 
CCOC(=O)n1c(C([NH-])=O)cc2ccc(N)cc21

>  <Energy>  (72) 
64.7550311063226

>  <Genealogy>  (72) 
CCOC(=O)n1c(C([NH-])=O)cc2ccc(N)cc21 (protonated)
CCOC(=O)n1c(C([NH-])=O)cc2ccc(N)cc21 (3D coordinates assigned)
CCOC(=O)n1c(C([NH-])=O)cc2ccc(N)cc21 (optimized conformer: 64.7550311063226 kcal/mol)

>  <smiles>  (72) 
CCOC(=O)n1c(C(N)=O)cc2ccc(N)cc21

>  <score_type>  (72) 
oracle

>  <origin>  (72) 
adg

>  <m_score__min__energy>  (72) 
-5.8200000000000003

>  <m_primary>  (72) 
energy

$$$$
72:0
     RDKit          3D

 56 59  0  0  0  0  0  0  0  0999 V2000
  149.6950  160.8380  128.7830 C   0  0  0  0  0  0  0  0  0  0  0  0
  150.0430  160.5500  130.1690 N   0  0  0  0  0  0  0  0  0  0  0  0
  149.1160  160.0060  131.1260 C   0  0  0  0  0  0  0  0  0  0  0  0
  149.5490  159.2560  132.2350 C   0  0  0  0  0  0  0  0  0  0  0  0
  148.6210  158.7310  133.1400 C   0  0  0  0  0  0  0  0  0  0  0  0
  147.2470  158.9610  132.9660 C   0  0  0  0  0  0  0  0  0  0  0  0
  146.2640  158.4000  133.9190 C   0  0  0  0  0  0  0  0  0  0  0  0
  146.6420  157.6030  134.8200 O   0  0  0  0  0  0  0  0  0  0  0  0
  144.8770  158.7620  133.8420 N   0  0  0  0  0  0  0  0  0  0  0  0
  144.3400  160.0120  133.7990 C   0  0  0  0  0  0  0  0  0  0  0  0
  145.0850  161.2780  133.9560 C   0  0  0  0  0  0  0  0  0  0  0  0
  146.5020  161.2820  134.1070 N   0  0  0  0  0  0  0  0  0  0  0  0
  144.4600  162.3730  133.9810 O   0  0  0  0  0  0  0  0  0  0  0  0
  142.9590  159.9410  133.6210 C   0  0  0  0  0  0  0  0  0  0  0  0
  142.6680  158.5960  133.5480 C   0  0  0  0  0  0  0  0  0  0  0  0
  141.4530  157.9480  133.3440 C   0  0  0  0  0  0  0  0  0  0  0  0
  141.4610  156.5440  133.2640 C   0  0  0  0  0  0  0  0  0  0  0  0
  142.6750  155.8210  133.3840 C   0  0  0  0  0  0  0  0  0  0  0  0
  142.6690  154.3170  133.3040 C   0  0  0  0  0  0  0  0  0  0  0  0
  141.2660  153.7450  133.5210 C   0  0  0  0  0  0  0  0  0  0  0  0
  141.0380  152.5810  132.6630 N   0  0  0  0  0  0  0  0  0  0  0  0
  140.9730  151.2410  133.1810 C   0  0  0  0  0  0  0  0  0  0  0  0
  141.3730  151.0090  134.3540 O   0  0  0  0  0  0  0  0  0  0  0  0
  140.4490  150.1220  132.3580 C   0  0  0  0  0  0  0  0  0  0  0  0
  139.3100  150.3150  131.5520 C   0  0  0  0  0  0  0  0  0  0  0  0
  138.8200  149.2770  130.7520 C   0  0  0  0  0  0  0  0  0  0  0  0
  139.4590  148.0350  130.7470 C   0  0  0  0  0  0  0  0  0  0  0  0
  138.8320  146.7290  129.7590 Cl  0  0  0  0  0  0  0  0  0  0  0  0
  140.5950  147.8330  131.5350 C   0  0  0  0  0  0  0  0  0  0  0  0
  141.0930  148.8680  132.3310 C   0  0  0  0  0  0  0  0  0  0  0  0
  143.8850  156.5130  133.6050 C   0  0  0  0  0  0  0  0  0  0  0  0
  143.8440  157.9080  133.6840 C   0  0  0  0  0  0  0  0  0  0  0  0
  146.8170  159.7160  131.8630 C   0  0  0  0  0  0  0  0  0  0  0  0
  147.7430  160.2220  130.9480 C   0  0  0  0  0  0  0  0  0  0  0  0
  148.8478  161.5391  128.7557 H   0  0  0  0  0  0  0  0  0  0  0  0
  150.5599  161.2880  128.2737 H   0  0  0  0  0  0  0  0  0  0  0  0
  149.4147  159.9042  128.2737 H   0  0  0  0  0  0  0  0  0  0  0  0
  151.0250  160.7460  130.4710 H   0  0  0  0  0  0  0  0  0  0  0  0
  150.6238  159.0816  132.3911 H   0  0  0  0  0  0  0  0  0  0  0  0
  148.9703  158.1332  133.9948 H   0  0  0  0  0  0  0  0  0  0  0  0
  147.0010  162.1210  134.4790 H   0  0  0  0  0  0  0  0  0  0  0  0
  142.2516  160.7807  133.5532 H   0  0  0  0  0  0  0  0  0  0  0  0
  140.5161  158.5163  133.2483 H   0  0  0  0  0  0  0  0  0  0  0  0
  140.5169  156.0017  133.1069 H   0  0  0  0  0  0  0  0  0  0  0  0
  143.0291  154.0113  132.3106 H   0  0  0  0  0  0  0  0  0  0  0  0
  143.3246  153.9284  134.0972 H   0  0  0  0  0  0  0  0  0  0  0  0
  141.1589  153.4432  134.5734 H   0  0  0  0  0  0  0  0  0  0  0  0
  140.5275  154.5194  133.2663 H   0  0  0  0  0  0  0  0  0  0  0  0
  141.0170  152.7410  131.6320 H   0  0  0  0  0  0  0  0  0  0  0  0
  138.8013  151.2903  131.5516 H   0  0  0  0  0  0  0  0  0  0  0  0
  137.9302  149.4393  130.1260 H   0  0  0  0  0  0  0  0  0  0  0  0
  141.0993  146.8554  131.5288 H   0  0  0  0  0  0  0  0  0  0  0  0
  141.9936  148.7032  132.9407 H   0  0  0  0  0  0  0  0  0  0  0  0
  144.8351  155.9691  133.7122 H   0  0  0  0  0  0  0  0  0  0  0  0
  145.7440  159.9102  131.7186 H   0  0  0  0  0  0  0  0  0  0  0  0
  147.3907  160.7962  130.0784 H   0  0  0  0  0  0  0  0  0  0  0  0
  1  2  1  0
  2  3  1  0
  3  4  2  0
  4  5  1  0
  5  6  2  0
  6  7  1  0
  7  8  2  0
  7  9  1  0
  9 10  1  0
 10 11  1  0
 11 12  1  0
 11 13  2  0
 10 14  2  0
 14 15  1  0
 15 16  2  0
 16 17  1  0
 17 18  2  0
 18 19  1  0
 19 20  1  0
 20 21  1  0
 21 22  1  0
 22 23  2  0
 22 24  1  0
 24 25  2  0
 25 26  1  0
 26 27  2  0
 27 28  1  0
 27 29  1  0
 29 30  2  0
 18 31  1  0
 31 32  2  0
  6 33  1  0
 33 34  2  0
 34  3  1  0
 32  9  1  0
 32 15  1  0
 30 24  1  0
  1 35  1  0
  1 36  1  0
  1 37  1  0
  2 38  1  0
  4 39  1  0
  5 40  1  0
 12 41  1  0
 14 42  1  0
 16 43  1  0
 17 44  1  0
 19 45  1  0
 19 46  1  0
 20 47  1  0
 20 48  1  0
 21 49  1  0
 25 50  1  0
 26 51  1  0
 29 52  1  0
 30 53  1  0
 31 54  1  0
 33 55  1  0
 34 56  1  0
M  CHG  1  12  -1
M  END
>  <UniqueID>  (73) 
73

>  <SMILES>  (73) 
CNc1ccc(C(=O)n2c(C([NH-])=O)cc3ccc(CCNC(=O)c4ccc(Cl)cc4)cc32)cc1

>  <Energy>  (73) 
93.27003835271134

>  <Genealogy>  (73) 
CNc1ccc(C(=O)n2c(C([NH-])=O)cc3ccc(CCNC(=O)c4ccc(Cl)cc4)cc32)cc1 (protonated)
CNc1ccc(C(=O)n2c(C([NH-])=O)cc3ccc(CCNC(=O)c4ccc(Cl)cc4)cc32)cc1 (3D coordinates assigned)
CNc1ccc(C(=O)n2c(C([NH-])=O)cc3ccc(CCNC(=O)c4ccc(Cl)cc4)cc32)cc1 (optimized conformer: 93.27003835271134 kcal/mol)

>  <smiles>  (73) 
CNc1ccc(C(=O)n2c(C(N)=O)cc3ccc(CCNC(=O)c4ccc(Cl)cc4)cc32)cc1

>  <score_type>  (73) 
oracle

>  <origin>  (73) 
adg

>  <m_score__min__energy>  (73) 
-12.49

>  <m_primary>  (73) 
energy

$$$$
73:0
     RDKit          3D

 64 67  0  0  0  0  0  0  0  0999 V2000
  139.6350  150.8410  131.9680 C   0  0  0  0  0  0  0  0  0  0  0  0
  140.8500  150.0100  132.4210 C   0  0  0  0  0  0  0  0  0  0  0  0
  140.4660  149.2150  133.6790 C   0  0  0  0  0  0  0  0  0  0  0  0
  141.2760  149.0210  131.3180 C   0  0  0  0  0  0  0  0  0  0  0  0
  141.9430  150.8680  132.7800 O   0  0  0  0  0  0  0  0  0  0  0  0
  141.8630  152.2360  133.0900 C   0  0  0  0  0  0  0  0  0  0  0  0
  141.4030  153.0620  132.2570 O   0  0  0  0  0  0  0  0  0  0  0  0
  142.3090  152.6990  134.3690 N   0  0  0  0  0  0  0  0  0  0  0  0
  143.2120  153.6610  134.5380 N   0  0  0  0  0  0  0  0  0  0  0  0
  143.3890  153.8380  135.8740 C   0  0  0  0  0  0  0  0  0  0  0  0
  144.2610  154.8240  136.4620 N   0  0  0  0  0  0  0  0  0  0  0  0
  145.2700  155.2580  135.5260 C   0  0  0  0  0  0  0  0  0  0  0  0
  146.4160  154.4570  135.2870 C   0  0  0  0  0  0  0  0  0  0  0  0
  147.4150  154.8820  134.3940 C   0  0  0  0  0  0  0  0  0  0  0  0
  147.2510  156.1150  133.7720 C   0  0  0  0  0  0  0  0  0  0  0  0
  148.0540  156.7580  132.8580 C   0  0  0  0  0  0  0  0  0  0  0  0
  147.4070  157.9600  132.5780 C   0  0  0  0  0  0  0  0  0  0  0  0
  147.9740  159.0070  131.7010 C   0  0  0  0  0  0  0  0  0  0  0  0
  147.8680  160.3780  132.0740 N   0  0  0  0  0  0  0  0  0  0  0  0
  148.5190  158.7060  130.6060 O   0  0  0  0  0  0  0  0  0  0  0  0
  146.2470  158.0540  133.2880 N   0  0  0  0  0  0  0  0  0  0  0  0
  145.2670  159.1020  133.2320 C   0  0  0  0  0  0  0  0  0  0  0  0
  145.5620  160.2530  133.6530 O   0  0  0  0  0  0  0  0  0  0  0  0
  143.9850  158.8230  132.7330 O   0  0  0  0  0  0  0  0  0  0  0  0
  142.8000  158.5930  133.5110 C   0  0  0  0  0  0  0  0  0  0  0  0
  141.7050  159.5120  132.9510 C   0  0  0  0  0  0  0  0  0  0  0  0
  142.3370  157.1310  133.3770 C   0  0  0  0  0  0  0  0  0  0  0  0
  143.0450  158.9530  134.9890 C   0  0  0  0  0  0  0  0  0  0  0  0
  146.1670  156.9170  134.0140 C   0  0  0  0  0  0  0  0  0  0  0  0
  145.1460  156.5110  134.8820 C   0  0  0  0  0  0  0  0  0  0  0  0
  142.5510  152.9720  136.5630 C   0  0  0  0  0  0  0  0  0  0  0  0
  142.2720  152.7340  137.9110 C   0  0  0  0  0  0  0  0  0  0  0  0
  143.0410  153.6260  139.2130 Cl  0  0  0  0  0  0  0  0  0  0  0  0
  141.3170  151.7420  138.2030 C   0  0  0  0  0  0  0  0  0  0  0  0
  140.6810  151.0420  137.1530 C   0  0  0  0  0  0  0  0  0  0  0  0
  140.9820  151.3210  135.8510 N   0  0  0  0  0  0  0  0  0  0  0  0
  141.9060  152.2770  135.5810 C   0  0  0  0  0  0  0  0  0  0  0  0
  139.0940  151.2110  132.8514 H   0  0  0  0  0  0  0  0  0  0  0  0
  139.9787  151.6941  131.3645 H   0  0  0  0  0  0  0  0  0  0  0  0
  138.9646  150.2114  131.3645 H   0  0  0  0  0  0  0  0  0  0  0  0
  140.7436  149.7897  134.5749 H   0  0  0  0  0  0  0  0  0  0  0  0
  139.3810  149.0338  133.6812 H   0  0  0  0  0  0  0  0  0  0  0  0
  140.9985  148.2525  133.6812 H   0  0  0  0  0  0  0  0  0  0  0  0
  141.6709  148.1042  131.7801 H   0  0  0  0  0  0  0  0  0  0  0  0
  140.4057  148.7712  130.6934 H   0  0  0  0  0  0  0  0  0  0  0  0
  142.0554  149.4818  130.6934 H   0  0  0  0  0  0  0  0  0  0  0  0
  144.7330  154.4080  137.2970 H   0  0  0  0  0  0  0  0  0  0  0  0
  143.6850  155.6370  136.7770 H   0  0  0  0  0  0  0  0  0  0  0  0
  146.5241  153.4931  135.8059 H   0  0  0  0  0  0  0  0  0  0  0  0
  148.2989  154.2587  134.1934 H   0  0  0  0  0  0  0  0  0  0  0  0
  149.0050  156.3992  132.4375 H   0  0  0  0  0  0  0  0  0  0  0  0
  146.9350  160.8340  132.1790 H   0  0  0  0  0  0  0  0  0  0  0  0
  141.1537  159.9746  133.7829 H   0  0  0  0  0  0  0  0  0  0  0  0
  142.1657  160.2978  132.3344 H   0  0  0  0  0  0  0  0  0  0  0  0
  141.0110  158.9219  132.3344 H   0  0  0  0  0  0  0  0  0  0  0  0
  142.1995  156.6967  134.3782 H   0  0  0  0  0  0  0  0  0  0  0  0
  141.3841  157.0970  132.8285 H   0  0  0  0  0  0  0  0  0  0  0  0
  143.0966  156.5546  132.8285 H   0  0  0  0  0  0  0  0  0  0  0  0
  142.5436  158.2162  135.6338 H   0  0  0  0  0  0  0  0  0  0  0  0
  144.1257  158.9446  135.1942 H   0  0  0  0  0  0  0  0  0  0  0  0
  142.6406  159.9552  135.1942 H   0  0  0  0  0  0  0  0  0  0  0  0
  144.2689  157.1510  135.0587 H   0  0  0  0  0  0  0  0  0  0  0  0
  141.0657  151.5116  139.2488 H   0  0  0  0  0  0  0  0  0  0  0  0
  139.9373  150.2659  137.3867 H   0  0  0  0  0  0  0  0  0  0  0  0
  1  2  1  0
  2  3  1  0
  2  4  1  0
  2  5  1  0
  5  6  1  0
  6  7  2  0
  6  8  1  0
  8  9  1  0
  9 10  2  0
 10 11  1  0
 11 12  1  0
 12 13  2  0
 13 14  1  0
 14 15  2  0
 15 16  1  0
 16 17  2  0
 17 18  1  0
 18 19  1  0
 18 20  2  0
 17 21  1  0
 21 22  1  0
 22 23  2  0
 22 24  1  0
 24 25  1  0
 25 26  1  0
 25 27  1  0
 25 28  1  0
 21 29  1  0
 29 30  2  0
 10 31  1  0
 31 32  2  0
 32 33  1  0
 32 34  1  0
 34 35  2  0
 35 36  1  0
 36 37  2  0
 37  8  1  0
 30 12  1  0
 37 31  1  0
 29 15  1  0
  1 38  1  0
  1 39  1  0
  1 40  1  0
  3 41  1  0
  3 42  1  0
  3 43  1  0
  4 44  1  0
  4 45  1  0
  4 46  1  0
 11 47  1  0
 11 48  1  0
 13 49  1  0
 14 50  1  0
 16 51  1  0
 19 52  1  0
 26 53  1  0
 26 54  1  0
 26 55  1  0
 27 56  1  0
 27 57  1  0
 27 58  1  0
 28 59  1  0
 28 60  1  0
 28 61  1  0
 30 62  1  0
 34 63  1  0
 35 64  1  0
M  CHG  2  11   1  19  -1
M  END
>  <UniqueID>  (74) 
74

>  <SMILES>  (74) 
CC(C)(C)OC(=O)n1nc([NH2+]c2ccc3cc(C([NH-])=O)n(C(=O)OC(C)(C)C)c3c2)c2c(Cl)ccnc21

>  <Energy>  (74) 
142.43290898177938

>  <Genealogy>  (74) 
CC(C)(C)OC(=O)n1nc([NH2+]c2ccc3cc(C([NH-])=O)n(C(=O)OC(C)(C)C)c3c2)c2c(Cl)ccnc21 (protonated)
CC(C)(C)OC(=O)n1nc([NH2+]c2ccc3cc(C([NH-])=O)n(C(=O)OC(C)(C)C)c3c2)c2c(Cl)ccnc21 (3D coordinates assigned)
CC(C)(C)OC(=O)n1nc([NH2+]c2ccc3cc(C([NH-])=O)n(C(=O)OC(C)(C)C)c3c2)c2c(Cl)ccnc21 (optimized conformer: 142.43290898177938 kcal/mol)

>  <smiles>  (74) 
CC(C)(C)OC(=O)n1nc(Nc2ccc3cc(C(N)=O)n(C(=O)OC(C)(C)C)c3c2)c2c(Cl)ccnc21

>  <score_type>  (74) 
oracle

>  <origin>  (74) 
adg

>  <m_score__min__energy>  (74) 
-9.6600000000000001

>  <m_primary>  (74) 
energy

$$$$
74:0
     RDKit          3D

 45 47  0  0  0  0  0  0  0  0999 V2000
  145.7470  154.0670  136.1990 N   0  0  0  0  0  0  0  0  0  0  0  0
  146.7750  154.8850  135.5620 C   0  0  0  0  0  0  0  0  0  0  0  0
  146.3660  155.2610  134.1340 C   0  0  0  0  0  0  0  0  0  0  0  0
  146.6510  156.7120  133.8430 C   0  0  0  0  0  0  0  0  0  0  0  0
  147.9680  157.1500  133.6420 C   0  0  0  0  0  0  0  0  0  0  0  0
  148.2270  158.4890  133.3420 C   0  0  0  0  0  0  0  0  0  0  0  0
  147.1740  159.4030  133.2360 C   0  0  0  0  0  0  0  0  0  0  0  0
  147.4480  160.6990  132.9380 F   0  0  0  0  0  0  0  0  0  0  0  0
  145.8480  158.9800  133.4340 C   0  0  0  0  0  0  0  0  0  0  0  0
  144.7080  159.9610  133.3230 C   0  0  0  0  0  0  0  0  0  0  0  0
  143.4280  159.2570  133.2290 N   0  0  0  0  0  0  0  0  0  0  0  0
  142.6380  158.8500  134.3620 C   0  0  0  0  0  0  0  0  0  0  0  0
  141.6900  159.7200  134.9630 C   0  0  0  0  0  0  0  0  0  0  0  0
  140.9160  159.2940  136.0560 C   0  0  0  0  0  0  0  0  0  0  0  0
  141.1170  158.0060  136.5360 C   0  0  0  0  0  0  0  0  0  0  0  0
  140.4830  157.3350  137.5560 C   0  0  0  0  0  0  0  0  0  0  0  0
  141.0760  156.0760  137.5920 C   0  0  0  0  0  0  0  0  0  0  0  0
  140.7330  155.0470  138.5930 C   0  0  0  0  0  0  0  0  0  0  0  0
  141.7490  154.3100  139.2740 N   0  0  0  0  0  0  0  0  0  0  0  0
  139.5250  154.8530  138.8920 O   0  0  0  0  0  0  0  0  0  0  0  0
  142.0310  155.9640  136.6260 N   0  0  0  0  0  0  0  0  0  0  0  0
  142.7740  154.7860  136.2680 C   0  0  0  0  0  0  0  0  0  0  0  0
  143.3610  154.1080  137.1500 O   0  0  0  0  0  0  0  0  0  0  0  0
  142.8570  154.3870  134.9400 O   0  0  0  0  0  0  0  0  0  0  0  0
  142.0470  157.1590  135.9890 C   0  0  0  0  0  0  0  0  0  0  0  0
  142.8170  157.5500  134.8870 C   0  0  0  0  0  0  0  0  0  0  0  0
  145.5930  157.6280  133.7230 C   0  0  0  0  0  0  0  0  0  0  0  0
  145.4810  154.5190  137.1030 H   0  0  0  0  0  0  0  0  0  0  0  0
  144.8970  154.0950  135.5910 H   0  0  0  0  0  0  0  0  0  0  0  0
  146.9195  155.8039  136.1492 H   0  0  0  0  0  0  0  0  0  0  0  0
  147.7093  154.3059  135.5195 H   0  0  0  0  0  0  0  0  0  0  0  0
  146.9290  154.6367  133.4246 H   0  0  0  0  0  0  0  0  0  0  0  0
  145.2839  155.0935  134.0290 H   0  0  0  0  0  0  0  0  0  0  0  0
  148.8007  156.4356  133.7210 H   0  0  0  0  0  0  0  0  0  0  0  0
  149.2628  158.8259  133.1885 H   0  0  0  0  0  0  0  0  0  0  0  0
  144.7001  160.6078  134.2127 H   0  0  0  0  0  0  0  0  0  0  0  0
  144.8476  160.5646  132.4141 H   0  0  0  0  0  0  0  0  0  0  0  0
  143.0400  159.1010  132.2700 H   0  0  0  0  0  0  0  0  0  0  0  0
  141.5601  160.7386  134.5687 H   0  0  0  0  0  0  0  0  0  0  0  0
  140.1730  159.9608  136.5178 H   0  0  0  0  0  0  0  0  0  0  0  0
  139.6790  157.7127  138.2048 H   0  0  0  0  0  0  0  0  0  0  0  0
  141.4870  153.5610  139.9530 H   0  0  0  0  0  0  0  0  0  0  0  0
  142.7570  154.5600  139.1700 H   0  0  0  0  0  0  0  0  0  0  0  0
  143.5465  156.8594  134.4388 H   0  0  0  0  0  0  0  0  0  0  0  0
  144.5565  157.2847  133.8562 H   0  0  0  0  0  0  0  0  0  0  0  0
  1  2  1  0
  2  3  1  0
  3  4  1  0
  4  5  2  0
  5  6  1  0
  6  7  2  0
  7  8  1  0
  7  9  1  0
  9 10  1  0
 10 11  1  0
 11 12  1  0
 12 13  2  0
 13 14  1  0
 14 15  2  0
 15 16  1  0
 16 17  2  0
 17 18  1  0
 18 19  1  0
 18 20  2  0
 17 21  1  0
 21 22  1  0
 22 23  2  0
 22 24  1  0
 21 25  1  0
 25 26  2  0
  9 27  2  0
 27  4  1  0
 26 12  1  0
 25 15  1  0
  1 28  1  0
  1 29  1  0
  2 30  1  0
  2 31  1  0
  3 32  1  0
  3 33  1  0
  5 34  1  0
  6 35  1  0
 10 36  1  0
 10 37  1  0
 11 38  1  0
 13 39  1  0
 14 40  1  0
 16 41  1  0
 19 42  1  0
 19 43  1  0
 26 44  1  0
 27 45  1  0
M  CHG  1  24  -1
M  END
>  <UniqueID>  (75) 
75

>  <SMILES>  (75) 
NCCc1ccc(F)c(CNc2ccc3cc(C(N)=O)n(C(=O)[O-])c3c2)c1

>  <Energy>  (75) 
82.96127730222868

>  <Genealogy>  (75) 
NCCc1ccc(F)c(CNc2ccc3cc(C(N)=O)n(C(=O)[O-])c3c2)c1 (protonated)
NCCc1ccc(F)c(CNc2ccc3cc(C(N)=O)n(C(=O)[O-])c3c2)c1 (3D coordinates assigned)
NCCc1ccc(F)c(CNc2ccc3cc(C(N)=O)n(C(=O)[O-])c3c2)c1 (optimized conformer: 82.96127730222868 kcal/mol)

>  <smiles>  (75) 
NCCc1ccc(F)c(CNc2ccc3cc(C(N)=O)n(C(=O)O)c3c2)c1

>  <score_type>  (75) 
oracle

>  <origin>  (75) 
adg

>  <m_score__min__energy>  (75) 
-8.1500000000000004

>  <m_primary>  (75) 
energy

$$$$
75:0
     RDKit          3D

 48 51  0  0  0  0  0  0  0  0999 V2000
  143.0830  160.4940  133.3680 N   0  0  0  0  0  0  0  0  0  0  0  0
  144.4400  160.7030  133.7520 C   0  0  0  0  0  0  0  0  0  0  0  0
  144.7640  161.7850  134.3100 O   0  0  0  0  0  0  0  0  0  0  0  0
  145.4530  159.6640  133.4700 C   0  0  0  0  0  0  0  0  0  0  0  0
  146.7680  159.9420  133.1040 C   0  0  0  0  0  0  0  0  0  0  0  0
  147.3870  158.7160  133.0030 C   0  0  0  0  0  0  0  0  0  0  0  0
  148.6940  158.3970  132.6580 C   0  0  0  0  0  0  0  0  0  0  0  0
  149.0520  157.0400  132.6090 C   0  0  0  0  0  0  0  0  0  0  0  0
  148.1020  156.0210  132.8960 C   0  0  0  0  0  0  0  0  0  0  0  0
  148.4780  154.6250  132.8350 N   0  0  0  0  0  0  0  0  0  0  0  0
  149.7160  154.1410  132.2420 C   0  0  0  0  0  0  0  0  0  0  0  0
  149.6140  152.6220  132.2460 C   0  0  0  0  0  0  0  0  0  0  0  0
  148.5200  152.2850  133.2540 C   0  0  1  0  0  0  0  0  0  0  0  0
  149.0910  151.9950  134.4820 F   0  0  0  0  0  0  0  0  0  0  0  0
  147.6630  153.5400  133.3640 C   0  0  0  0  0  0  0  0  0  0  0  0
  146.7790  156.3940  133.2410 C   0  0  0  0  0  0  0  0  0  0  0  0
  146.4600  157.7540  133.3000 C   0  0  0  0  0  0  0  0  0  0  0  0
  145.2680  158.3190  133.5880 N   0  0  0  0  0  0  0  0  0  0  0  0
  144.0530  157.6260  133.9080 C   0  0  0  0  0  0  0  0  0  0  0  0
  144.0410  156.7940  134.8550 O   0  0  0  0  0  0  0  0  0  0  0  0
  142.8610  157.8790  133.1530 N   0  0  0  0  0  0  0  0  0  0  0  0
  141.6110  157.1650  133.3980 C   0  0  0  0  0  0  0  0  0  0  0  0
  141.1240  157.4290  134.7970 C   0  0  0  0  0  0  0  0  0  0  0  0
  140.6800  158.7110  135.1630 C   0  0  0  0  0  0  0  0  0  0  0  0
  140.2560  158.9650  136.4700 C   0  0  0  0  0  0  0  0  0  0  0  0
  140.2740  157.9440  137.4230 C   0  0  0  0  0  0  0  0  0  0  0  0
  140.7180  156.6660  137.0730 C   0  0  0  0  0  0  0  0  0  0  0  0
  140.7420  155.3930  138.2820 Cl  0  0  0  0  0  0  0  0  0  0  0  0
  141.1450  156.4050  135.7630 C   0  0  0  0  0  0  0  0  0  0  0  0
  141.5830  155.1630  135.4320 F   0  0  0  0  0  0  0  0  0  0  0  0
  142.8460  160.0150  132.4710 H   0  0  0  0  0  0  0  0  0  0  0  0
  147.2169  160.9314  132.9321 H   0  0  0  0  0  0  0  0  0  0  0  0
  149.4274  159.1844  132.4298 H   0  0  0  0  0  0  0  0  0  0  0  0
  150.0826  156.7609  132.3447 H   0  0  0  0  0  0  0  0  0  0  0  0
  149.8191  154.5149  131.2127 H   0  0  0  0  0  0  0  0  0  0  0  0
  150.5958  154.4884  132.8035 H   0  0  0  0  0  0  0  0  0  0  0  0
  149.3413  152.2532  131.2462 H   0  0  0  0  0  0  0  0  0  0  0  0
  150.5716  152.1513  132.5132 H   0  0  0  0  0  0  0  0  0  0  0  0
  147.9274  151.4122  132.9426 H   0  0  0  0  0  0  0  0  0  0  0  0
  146.7427  153.4284  132.7719 H   0  0  0  0  0  0  0  0  0  0  0  0
  147.3583  153.7322  134.4033 H   0  0  0  0  0  0  0  0  0  0  0  0
  146.0187  155.6292  133.4579 H   0  0  0  0  0  0  0  0  0  0  0  0
  142.8940  158.5710  132.3700 H   0  0  0  0  0  0  0  0  0  0  0  0
  140.8515  157.5059  132.6790 H   0  0  0  0  0  0  0  0  0  0  0  0
  141.7861  156.0857  133.2779 H   0  0  0  0  0  0  0  0  0  0  0  0
  140.6661  159.5189  134.4166 H   0  0  0  0  0  0  0  0  0  0  0  0
  139.9076  159.9704  136.7488 H   0  0  0  0  0  0  0  0  0  0  0  0
  139.9381  158.1462  138.4508 H   0  0  0  0  0  0  0  0  0  0  0  0
  1  2  1  0
  2  3  2  0
  2  4  1  0
  4  5  2  0
  5  6  1  0
  6  7  2  0
  7  8  1  0
  8  9  2  0
  9 10  1  0
 10 11  1  0
 11 12  1  0
 12 13  1  0
 13 14  1  0
 13 15  1  0
  9 16  1  0
 16 17  2  0
 17 18  1  0
 18 19  1  0
 19 20  2  0
 19 21  1  0
 21 22  1  0
 22 23  1  0
 23 24  2  0
 24 25  1  0
 25 26  2  0
 26 27  1  0
 27 28  1  0
 27 29  2  0
 29 30  1  0
 18  4  1  0
 29 23  1  0
 17  6  1  0
 15 10  1  0
  1 31  1  0
  5 32  1  0
  7 33  1  0
  8 34  1  0
 11 35  1  0
 11 36  1  0
 12 37  1  0
 12 38  1  0
 13 39  1  6
 15 40  1  0
 15 41  1  0
 16 42  1  0
 21 43  1  0
 22 44  1  0
 22 45  1  0
 24 46  1  0
 25 47  1  0
 26 48  1  0
M  CHG  1   1  -1
M  END
>  <UniqueID>  (76) 
76

>  <SMILES>  (76) 
[NH-]C(=O)c1cc2ccc(N3CC[C@@H](F)C3)cc2n1C(=O)NCc1cccc(Cl)c1F

>  <Energy>  (76) 
89.50065377649175

>  <Genealogy>  (76) 
[NH-]C(=O)c1cc2ccc(N3CCC(F)C3)cc2n1C(=O)NCc1cccc(Cl)c1F (protonated)
[NH-]C(=O)c1cc2ccc(N3CC[C@@H](F)C3)cc2n1C(=O)NCc1cccc(Cl)c1F (chirality)
[NH-]C(=O)c1cc2ccc(N3CC[C@@H](F)C3)cc2n1C(=O)NCc1cccc(Cl)c1F (3D coordinates assigned)
[NH-]C(=O)c1cc2ccc(N3CC[C@@H](F)C3)cc2n1C(=O)NCc1cccc(Cl)c1F (nonaromatic ring conformer: 89.50065377649175 kcal/mol)

>  <smiles>  (76) 
NC(=O)c1cc2ccc(N3CCC(F)C3)cc2n1C(=O)NCc1cccc(Cl)c1F

>  <score_type>  (76) 
oracle

>  <origin>  (76) 
adg

>  <m_score__min__energy>  (76) 
-9.1699999999999999

>  <m_primary>  (76) 
energy

$$$$
76:0
     RDKit          3D

 73 78  0  0  0  0  0  0  0  0999 V2000
  140.2620  157.1640  136.7530 C   0  0  0  0  0  0  0  0  0  0  0  0
  141.2290  156.1620  137.3120 C   0  0  0  0  0  0  0  0  0  0  0  0
  140.9690  155.5410  138.5430 C   0  0  0  0  0  0  0  0  0  0  0  0
  141.8510  154.5810  139.0480 C   0  0  0  0  0  0  0  0  0  0  0  0
  142.9930  154.2200  138.3190 C   0  0  0  0  0  0  0  0  0  0  0  0
  144.1260  153.0400  138.9610 S   0  0  0  0  0  0  0  0  0  0  0  0
  144.2770  153.2050  140.4480 O   0  0  0  0  0  0  0  0  0  0  0  0
  143.6130  151.6540  138.6840 O   0  0  0  0  0  0  0  0  0  0  0  0
  145.6650  153.2620  138.1990 N   0  0  0  0  0  0  0  0  0  0  0  0
  145.8920  153.4760  136.8820 C   0  0  0  0  0  0  0  0  0  0  0  0
  147.2560  153.6710  136.6610 C   0  0  0  0  0  0  0  0  0  0  0  0
  147.9030  154.0340  135.3620 C   0  0  0  0  0  0  0  0  0  0  0  0
  147.3050  155.2540  134.8340 N   0  0  0  0  0  0  0  0  0  0  0  0
  145.9940  155.5350  134.7470 C   0  0  0  0  0  0  0  0  0  0  0  0
  145.9100  156.8200  134.2440 C   0  0  0  0  0  0  0  0  0  0  0  0
  144.6860  157.5960  133.9350 C   0  0  0  0  0  0  0  0  0  0  0  0
  144.7650  159.0070  133.8050 C   0  0  0  0  0  0  0  0  0  0  0  0
  143.6250  159.7680  133.5010 C   0  0  0  0  0  0  0  0  0  0  0  0
  142.4210  159.0960  133.3210 C   0  0  0  0  0  0  0  0  0  0  0  0
  141.1700  159.5910  133.0390 C   0  0  0  0  0  0  0  0  0  0  0  0
  140.3410  158.4760  132.9720 C   0  0  0  0  0  0  0  0  0  0  0  0
  138.9110  158.5480  132.6110 C   0  0  0  0  0  0  0  0  0  0  0  0
  137.9350  157.7710  133.3050 N   0  0  0  0  0  0  0  0  0  0  0  0
  138.5540  159.2580  131.6340 O   0  0  0  0  0  0  0  0  0  0  0  0
  141.0450  157.3350  133.2180 N   0  0  0  0  0  0  0  0  0  0  0  0
  140.5170  156.0040  133.3530 C   0  0  0  0  0  0  0  0  0  0  0  0
  139.4310  155.6990  132.7920 O   0  0  0  0  0  0  0  0  0  0  0  0
  141.2180  155.0620  134.1220 O   0  0  0  0  0  0  0  0  0  0  0  0
  141.6190  153.7480  133.7060 C   0  0  0  0  0  0  0  0  0  0  0  0
  140.4630  153.0340  132.9810 C   0  0  0  0  0  0  0  0  0  0  0  0
  142.7900  153.9220  132.7280 C   0  0  0  0  0  0  0  0  0  0  0  0
  142.1000  152.9180  134.9110 C   0  0  0  0  0  0  0  0  0  0  0  0
  142.3220  157.7320  133.4270 C   0  0  0  0  0  0  0  0  0  0  0  0
  143.4380  156.9510  133.7520 C   0  0  0  0  0  0  0  0  0  0  0  0
  147.1670  157.2770  134.0550 N   0  0  0  0  0  0  0  0  0  0  0  0
  147.9920  156.3090  134.4270 N   0  0  0  0  0  0  0  0  0  0  0  0
  147.8540  153.5970  137.9050 C   0  0  0  0  0  0  0  0  0  0  0  0
  149.1730  153.7620  138.3200 C   0  0  0  0  0  0  0  0  0  0  0  0
  149.4360  153.6480  139.6970 C   0  0  0  0  0  0  0  0  0  0  0  0
  148.3780  153.3850  140.5950 C   0  0  0  0  0  0  0  0  0  0  0  0
  147.0980  153.2390  140.1380 N   0  0  0  0  0  0  0  0  0  0  0  0
  146.8600  153.3420  138.8070 C   0  0  0  0  0  0  0  0  0  0  0  0
  143.2490  154.8320  137.0860 C   0  0  0  0  0  0  0  0  0  0  0  0
  142.3670  155.7910  136.5790 C   0  0  0  0  0  0  0  0  0  0  0  0
  139.7574  157.6868  137.5789 H   0  0  0  0  0  0  0  0  0  0  0  0
  140.8061  157.8936  136.1352 H   0  0  0  0  0  0  0  0  0  0  0  0
  139.5136  156.6461  136.1352 H   0  0  0  0  0  0  0  0  0  0  0  0
  140.0676  155.8105  139.1130 H   0  0  0  0  0  0  0  0  0  0  0  0
  141.6485  154.1075  140.0200 H   0  0  0  0  0  0  0  0  0  0  0  0
  145.1167  153.4936  136.1019 H   0  0  0  0  0  0  0  0  0  0  0  0
  148.9791  154.1953  135.5230 H   0  0  0  0  0  0  0  0  0  0  0  0
  147.7534  153.2161  134.6418 H   0  0  0  0  0  0  0  0  0  0  0  0
  145.1569  154.8760  135.0206 H   0  0  0  0  0  0  0  0  0  0  0  0
  145.7326  159.5113  133.9443 H   0  0  0  0  0  0  0  0  0  0  0  0
  143.6825  160.8626  133.4081 H   0  0  0  0  0  0  0  0  0  0  0  0
  140.8853  160.6439  132.8967 H   0  0  0  0  0  0  0  0  0  0  0  0
  136.9240  157.8540  133.0580 H   0  0  0  0  0  0  0  0  0  0  0  0
  138.2200  157.0450  133.9990 H   0  0  0  0  0  0  0  0  0  0  0  0
  139.7724  152.6074  133.7234 H   0  0  0  0  0  0  0  0  0  0  0  0
  139.9235  153.7564  132.3509 H   0  0  0  0  0  0  0  0  0  0  0  0
  140.8674  152.2281  132.3509 H   0  0  0  0  0  0  0  0  0  0  0  0
  143.7229  154.0606  133.2940 H   0  0  0  0  0  0  0  0  0  0  0  0
  142.8749  153.0266  132.0947 H   0  0  0  0  0  0  0  0  0  0  0  0
  142.6109  154.8034  132.0947 H   0  0  0  0  0  0  0  0  0  0  0  0
  141.8077  153.4224  135.8438 H   0  0  0  0  0  0  0  0  0  0  0  0
  141.6408  151.9191  134.8749 H   0  0  0  0  0  0  0  0  0  0  0  0
  143.1950  152.8197  134.8749 H   0  0  0  0  0  0  0  0  0  0  0  0
  143.3476  155.8603  133.8628 H   0  0  0  0  0  0  0  0  0  0  0  0
  149.9771  153.9731  137.5997 H   0  0  0  0  0  0  0  0  0  0  0  0
  150.4631  153.7634  140.0736 H   0  0  0  0  0  0  0  0  0  0  0  0
  148.5859  153.2969  141.6716 H   0  0  0  0  0  0  0  0  0  0  0  0
  144.1475  154.5572  136.5140 H   0  0  0  0  0  0  0  0  0  0  0  0
  142.5656  156.2564  135.6023 H   0  0  0  0  0  0  0  0  0  0  0  0
  1  2  1  0
  2  3  2  0
  3  4  1  0
  4  5  2  0
  5  6  1  0
  6  7  2  0
  6  8  2  0
  6  9  1  0
  9 10  1  0
 10 11  2  0
 11 12  1  0
 12 13  1  0
 13 14  1  0
 14 15  2  0
 15 16  1  0
 16 17  2  0
 17 18  1  0
 18 19  2  0
 19 20  1  0
 20 21  2  0
 21 22  1  0
 22 23  1  0
 22 24  2  0
 21 25  1  0
 25 26  1  0
 26 27  2  0
 26 28  1  0
 28 29  1  0
 29 30  1  0
 29 31  1  0
 29 32  1  0
 25 33  1  0
 33 34  2  0
 15 35  1  0
 35 36  2  0
 11 37  1  0
 37 38  2  0
 38 39  1  0
 39 40  2  0
 40 41  1  0
 41 42  2  0
  5 43  1  0
 43 44  2  0
 44  2  1  0
 42  9  1  0
 36 13  1  0
 42 37  1  0
 34 16  1  0
 33 19  1  0
  1 45  1  0
  1 46  1  0
  1 47  1  0
  3 48  1  0
  4 49  1  0
 10 50  1  0
 12 51  1  0
 12 52  1  0
 14 53  1  0
 17 54  1  0
 18 55  1  0
 20 56  1  0
 23 57  1  0
 23 58  1  0
 30 59  1  0
 30 60  1  0
 30 61  1  0
 31 62  1  0
 31 63  1  0
 31 64  1  0
 32 65  1  0
 32 66  1  0
 32 67  1  0
 34 68  1  0
 38 69  1  0
 39 70  1  0
 40 71  1  0
 43 72  1  0
 44 73  1  0
M  END
>  <UniqueID>  (77) 
77

>  <SMILES>  (77) 
Cc1ccc(S(=O)(=O)n2cc(Cn3cc(-c4ccc5cc(C(N)=O)n(C(=O)OC(C)(C)C)c5c4)nn3)c3cccnc32)cc1

>  <Energy>  (77) 
185.17763411398457

>  <Genealogy>  (77) 
Cc1ccc(S(=O)(=O)n2cc(Cn3cc(-c4ccc5cc(C(N)=O)n(C(=O)OC(C)(C)C)c5c4)nn3)c3cccnc32)cc1 (3D coordinates assigned)
Cc1ccc(S(=O)(=O)n2cc(Cn3cc(-c4ccc5cc(C(N)=O)n(C(=O)OC(C)(C)C)c5c4)nn3)c3cccnc32)cc1 (optimized conformer: 185.17763411398457 kcal/mol)

>  <smiles>  (77) 
Cc1ccc(S(=O)(=O)n2cc(Cn3cc(-c4ccc5cc(C(N)=O)n(C(=O)OC(C)(C)C)c5c4)nn3)c3cccnc32)cc1

>  <score_type>  (77) 
oracle

>  <origin>  (77) 
adg

>  <m_score__min__energy>  (77) 
-12.27

>  <m_primary>  (77) 
energy

$$$$
77:0
     RDKit          3D

 44 46  0  0  0  0  0  0  0  0999 V2000
  138.7950  146.8890  130.0740 C   0  0  0  0  0  0  0  0  0  0  0  0
  138.3610  148.2930  130.1310 N   0  0  0  0  0  0  0  0  0  0  0  0
  139.0850  149.1090  129.1430 C   0  0  0  0  0  0  0  0  0  0  0  0
  138.4400  148.8550  131.4980 C   0  0  0  0  0  0  0  0  0  0  0  0
  139.8220  149.3250  131.8820 C   0  0  0  0  0  0  0  0  0  0  0  0
  140.8240  148.4080  132.2310 C   0  0  0  0  0  0  0  0  0  0  0  0
  142.0900  148.8770  132.5810 C   0  0  0  0  0  0  0  0  0  0  0  0
  142.3510  150.2470  132.5770 C   0  0  0  0  0  0  0  0  0  0  0  0
  141.3340  151.1410  132.2080 C   0  0  0  0  0  0  0  0  0  0  0  0
  141.5620  152.5610  132.2210 N   0  0  0  0  0  0  0  0  0  0  0  0
  141.8700  152.9810  133.5640 C   0  0  0  0  0  0  0  0  0  0  0  0
  142.6920  154.1170  133.7860 C   0  0  0  0  0  0  0  0  0  0  0  0
  143.0150  154.5240  135.0910 C   0  0  0  0  0  0  0  0  0  0  0  0
  142.5210  153.7700  136.1500 C   0  0  0  0  0  0  0  0  0  0  0  0
  142.6650  153.9510  137.5060 C   0  0  0  0  0  0  0  0  0  0  0  0
  141.9650  152.9010  138.0960 C   0  0  0  0  0  0  0  0  0  0  0  0
  141.9400  152.6600  139.5520 C   0  0  0  0  0  0  0  0  0  0  0  0
  140.7390  152.8180  140.3010 N   0  0  0  0  0  0  0  0  0  0  0  0
  142.9810  152.2590  140.1360 O   0  0  0  0  0  0  0  0  0  0  0  0
  141.4010  152.1060  137.1420 N   0  0  0  0  0  0  0  0  0  0  0  0
  140.5320  150.9780  137.3400 C   0  0  0  0  0  0  0  0  0  0  0  0
  139.8680  150.8650  138.4030 O   0  0  0  0  0  0  0  0  0  0  0  0
  140.4350  149.9900  136.3680 O   0  0  0  0  0  0  0  0  0  0  0  0
  141.7510  152.6520  135.9550 C   0  0  0  0  0  0  0  0  0  0  0  0
  141.3950  152.2350  134.6680 C   0  0  0  0  0  0  0  0  0  0  0  0
  140.1020  150.6570  131.8840 N   0  0  0  0  0  0  0  0  0  0  0  0
  138.9151  146.5006  131.0961 H   0  0  0  0  0  0  0  0  0  0  0  0
  138.0392  146.2929  129.5416 H   0  0  0  0  0  0  0  0  0  0  0  0
  139.7554  146.8234  129.5416 H   0  0  0  0  0  0  0  0  0  0  0  0
  139.7274  149.8330  129.6656 H   0  0  0  0  0  0  0  0  0  0  0  0
  139.7062  148.4558  128.5125 H   0  0  0  0  0  0  0  0  0  0  0  0
  138.3625  149.6480  128.5125 H   0  0  0  0  0  0  0  0  0  0  0  0
  137.7519  149.7108  131.5619 H   0  0  0  0  0  0  0  0  0  0  0  0
  138.1705  148.0468  132.1938 H   0  0  0  0  0  0  0  0  0  0  0  0
  140.6133  147.3284  132.2287 H   0  0  0  0  0  0  0  0  0  0  0  0
  142.8822  148.1667  132.8600 H   0  0  0  0  0  0  0  0  0  0  0  0
  143.3449  150.6234  132.8605 H   0  0  0  0  0  0  0  0  0  0  0  0
  140.7040  153.0520  131.8790 H   0  0  0  0  0  0  0  0  0  0  0  0
  142.3440  152.8110  131.5710 H   0  0  0  0  0  0  0  0  0  0  0  0
  143.0800  154.6843  132.9272 H   0  0  0  0  0  0  0  0  0  0  0  0
  143.6394  155.4118  135.2698 H   0  0  0  0  0  0  0  0  0  0  0  0
  143.2161  154.7546  138.0163 H   0  0  0  0  0  0  0  0  0  0  0  0
  139.9040  152.2230  140.1080 H   0  0  0  0  0  0  0  0  0  0  0  0
  140.7611  151.3486  134.5182 H   0  0  0  0  0  0  0  0  0  0  0  0
  1  2  1  0
  2  3  1  0
  2  4  1  0
  4  5  1  0
  5  6  2  0
  6  7  1  0
  7  8  2  0
  8  9  1  0
  9 10  1  0
 10 11  1  0
 11 12  2  0
 12 13  1  0
 13 14  2  0
 14 15  1  0
 15 16  2  0
 16 17  1  0
 17 18  1  0
 17 19  2  0
 16 20  1  0
 20 21  1  0
 21 22  2  0
 21 23  1  0
 20 24  1  0
 24 25  2  0
  9 26  2  0
 26  5  1  0
 25 11  1  0
 24 14  1  0
  1 27  1  0
  1 28  1  0
  1 29  1  0
  3 30  1  0
  3 31  1  0
  3 32  1  0
  4 33  1  0
  4 34  1  0
  6 35  1  0
  7 36  1  0
  8 37  1  0
 10 38  1  0
 10 39  1  0
 12 40  1  0
 13 41  1  0
 15 42  1  0
 18 43  1  0
 25 44  1  0
M  CHG  3  10   1  18  -1  23  -1
M  END
>  <UniqueID>  (78) 
78

>  <SMILES>  (78) 
CN(C)Cc1cccc([NH2+]c2ccc3cc(C([NH-])=O)n(C(=O)[O-])c3c2)n1

>  <Energy>  (78) 
89.26894716650175

>  <Genealogy>  (78) 
CN(C)Cc1cccc([NH2+]c2ccc3cc(C([NH-])=O)n(C(=O)[O-])c3c2)n1 (protonated)
CN(C)Cc1cccc([NH2+]c2ccc3cc(C([NH-])=O)n(C(=O)[O-])c3c2)n1 (3D coordinates assigned)
CN(C)Cc1cccc([NH2+]c2ccc3cc(C([NH-])=O)n(C(=O)[O-])c3c2)n1 (optimized conformer: 89.26894716650175 kcal/mol)

>  <smiles>  (78) 
CN(C)Cc1cccc(Nc2ccc3cc(C(N)=O)n(C(=O)O)c3c2)n1

>  <score_type>  (78) 
oracle

>  <origin>  (78) 
adg

>  <m_score__min__energy>  (78) 
-7.9400000000000004

>  <m_primary>  (78) 
energy

$$$$
78:0
     RDKit          3D

 49 52  0  0  0  0  0  0  0  0999 V2000
  138.4380  148.8400  130.3290 C   0  0  0  0  0  0  0  0  0  0  0  0
  139.9320  148.9620  130.0270 C   0  0  0  0  0  0  0  0  0  0  0  0
  140.5880  149.9210  130.9430 N   0  0  0  0  0  0  0  0  0  0  0  0
  139.6060  150.4900  131.8810 C   0  0  0  0  0  0  0  0  0  0  0  0
  140.2430  151.6770  132.6030 C   0  0  0  0  0  0  0  0  0  0  0  0
  141.5920  151.3460  133.0760 N   0  0  0  0  0  0  0  0  0  0  0  0
  142.3670  152.3420  133.7690 C   0  0  0  0  0  0  0  0  0  0  0  0
  143.4760  152.9170  133.2540 N   0  0  0  0  0  0  0  0  0  0  0  0
  144.0330  153.8310  134.0980 C   0  0  0  0  0  0  0  0  0  0  0  0
  145.2610  154.5810  133.7170 C   0  0  0  0  0  0  0  0  0  0  0  0
  146.5100  153.9250  133.5410 C   0  0  0  0  0  0  0  0  0  0  0  0
  147.6560  154.6430  133.1650 C   0  0  0  0  0  0  0  0  0  0  0  0
  147.5360  156.0150  132.9760 C   0  0  0  0  0  0  0  0  0  0  0  0
  148.4800  156.9360  132.5920 C   0  0  0  0  0  0  0  0  0  0  0  0
  147.8040  158.1490  132.5360 C   0  0  0  0  0  0  0  0  0  0  0  0
  148.4600  159.4190  132.1840 C   0  0  0  0  0  0  0  0  0  0  0  0
  147.6890  160.5580  131.8070 N   0  0  0  0  0  0  0  0  0  0  0  0
  149.7180  159.4770  132.1460 O   0  0  0  0  0  0  0  0  0  0  0  0
  146.4980  157.9980  132.8990 N   0  0  0  0  0  0  0  0  0  0  0  0
  145.5290  159.0430  133.1220 C   0  0  0  0  0  0  0  0  0  0  0  0
  145.9180  160.2730  133.7280 N   0  0  0  0  0  0  0  0  0  0  0  0
  144.3340  158.8980  132.7500 O   0  0  0  0  0  0  0  0  0  0  0  0
  146.3480  156.6770  133.1540 C   0  0  0  0  0  0  0  0  0  0  0  0
  145.1850  155.9810  133.5100 C   0  0  0  0  0  0  0  0  0  0  0  0
  143.3470  153.9870  135.3070 C   0  0  0  0  0  0  0  0  0  0  0  0
  142.0240  152.9500  135.3000 S   0  0  0  0  0  0  0  0  0  0  0  0
  142.0580  149.9540  133.0180 C   0  0  0  0  0  0  0  0  0  0  0  0
  141.7340  149.3000  131.6560 C   0  0  0  0  0  0  0  0  0  0  0  0
  138.2839  148.8274  131.4181 H   0  0  0  0  0  0  0  0  0  0  0  0
  137.9046  149.6976  129.8931 H   0  0  0  0  0  0  0  0  0  0  0  0
  138.0508  147.9072  129.8931 H   0  0  0  0  0  0  0  0  0  0  0  0
  140.4032  147.9749  130.1439 H   0  0  0  0  0  0  0  0  0  0  0  0
  140.0496  149.3292  128.9968 H   0  0  0  0  0  0  0  0  0  0  0  0
  138.7182  150.8280  131.3265 H   0  0  0  0  0  0  0  0  0  0  0  0
  139.3033  149.7267  132.6129 H   0  0  0  0  0  0  0  0  0  0  0  0
  140.3045  152.5285  131.9093 H   0  0  0  0  0  0  0  0  0  0  0  0
  139.6204  151.9314  133.4734 H   0  0  0  0  0  0  0  0  0  0  0  0
  146.5793  152.8390  133.7018 H   0  0  0  0  0  0  0  0  0  0  0  0
  148.6213  154.1347  133.0239 H   0  0  0  0  0  0  0  0  0  0  0  0
  149.5428  156.7528  132.3753 H   0  0  0  0  0  0  0  0  0  0  0  0
  148.1620  161.4600  131.5720 H   0  0  0  0  0  0  0  0  0  0  0  0
  146.6520  160.4900  131.7040 H   0  0  0  0  0  0  0  0  0  0  0  0
  145.9410  161.1600  133.1790 H   0  0  0  0  0  0  0  0  0  0  0  0
  144.2290  156.5124  133.6268 H   0  0  0  0  0  0  0  0  0  0  0  0
  143.6255  154.6709  136.1224 H   0  0  0  0  0  0  0  0  0  0  0  0
  143.1470  149.9357  133.1723 H   0  0  0  0  0  0  0  0  0  0  0  0
  141.5393  149.3853  133.8039 H   0  0  0  0  0  0  0  0  0  0  0  0
  142.6240  149.3789  131.0144 H   0  0  0  0  0  0  0  0  0  0  0  0
  141.4514  148.2574  131.8636 H   0  0  0  0  0  0  0  0  0  0  0  0
  1  2  1  0
  2  3  1  0
  3  4  1  0
  4  5  1  0
  5  6  1  0
  6  7  1  0
  7  8  2  0
  8  9  1  0
  9 10  1  0
 10 11  2  0
 11 12  1  0
 12 13  2  0
 13 14  1  0
 14 15  2  0
 15 16  1  0
 16 17  1  0
 16 18  2  0
 15 19  1  0
 19 20  1  0
 20 21  1  0
 20 22  2  0
 19 23  1  0
 23 24  2  0
  9 25  2  0
 25 26  1  0
  6 27  1  0
 27 28  1  0
 28  3  1  0
 26  7  1  0
 24 10  1  0
 23 13  1  0
  1 29  1  0
  1 30  1  0
  1 31  1  0
  2 32  1  0
  2 33  1  0
  4 34  1  0
  4 35  1  0
  5 36  1  0
  5 37  1  0
 11 38  1  0
 12 39  1  0
 14 40  1  0
 17 41  1  0
 17 42  1  0
 21 43  1  0
 24 44  1  0
 25 45  1  0
 27 46  1  0
 27 47  1  0
 28 48  1  0
 28 49  1  0
M  CHG  1  21  -1
M  END
>  <UniqueID>  (79) 
79

>  <SMILES>  (79) 
CCN1CCN(c2nc(-c3ccc4cc(C(N)=O)n(C([NH-])=O)c4c3)cs2)CC1

>  <Energy>  (79) 
130.5471102392349

>  <Genealogy>  (79) 
CCN1CCN(c2nc(-c3ccc4cc(C(N)=O)n(C([NH-])=O)c4c3)cs2)CC1 (protonated)
CCN1CCN(c2nc(-c3ccc4cc(C(N)=O)n(C([NH-])=O)c4c3)cs2)CC1 (3D coordinates assigned)
CCN1CCN(c2nc(-c3ccc4cc(C(N)=O)n(C([NH-])=O)c4c3)cs2)CC1 (nonaromatic ring conformer: 130.5471102392349 kcal/mol)

>  <smiles>  (79) 
CCN1CCN(c2nc(-c3ccc4cc(C(N)=O)n(C(N)=O)c4c3)cs2)CC1

>  <score_type>  (79) 
oracle

>  <origin>  (79) 
adg

>  <m_score__min__energy>  (79) 
-9.2899999999999991

>  <m_primary>  (79) 
energy

$$$$
79:0
     RDKit          3D

 48 51  0  0  0  0  0  0  0  0999 V2000
  141.0850  156.0980  134.1240 C   0  0  0  0  0  0  0  0  0  0  0  0
  140.8040  157.6090  134.0670 C   0  0  1  0  0  0  0  0  0  0  0  0
  139.3650  157.9220  134.5120 C   0  0  0  0  0  0  0  0  0  0  0  0
  139.1040  157.5520  135.8550 O   0  0  0  0  0  0  0  0  0  0  0  0
  140.1490  157.8730  136.7690 C   0  0  0  0  0  0  0  0  0  0  0  0
  141.2750  158.7840  136.2410 C   0  0  0  0  0  0  0  0  0  0  0  0
  141.7480  158.3580  134.9140 N   0  0  0  0  0  0  0  0  0  0  0  0
  142.9980  158.8800  134.3780 C   0  0  0  0  0  0  0  0  0  0  0  0
  143.1470  160.2650  134.0710 C   0  0  0  0  0  0  0  0  0  0  0  0
  144.3480  160.7720  133.5460 C   0  0  0  0  0  0  0  0  0  0  0  0
  145.3960  159.8850  133.3400 C   0  0  0  0  0  0  0  0  0  0  0  0
  146.6610  160.1060  132.8410 C   0  0  0  0  0  0  0  0  0  0  0  0
  147.2890  158.8610  132.8650 C   0  0  0  0  0  0  0  0  0  0  0  0
  148.7000  158.6260  132.4800 C   0  0  0  0  0  0  0  0  0  0  0  0
  149.0980  157.3980  131.8680 N   0  0  0  0  0  0  0  0  0  0  0  0
  149.5650  159.5190  132.6770 O   0  0  0  0  0  0  0  0  0  0  0  0
  146.4410  157.9140  133.3530 N   0  0  0  0  0  0  0  0  0  0  0  0
  146.6870  156.5080  133.5170 C   0  0  0  0  0  0  0  0  0  0  0  0
  147.8570  156.1190  133.7810 O   0  0  0  0  0  0  0  0  0  0  0  0
  145.5870  155.5190  133.4090 C   0  0  0  0  0  0  0  0  0  0  0  0
  145.0760  154.8960  134.5620 C   0  0  0  0  0  0  0  0  0  0  0  0
  144.0390  153.9630  134.4620 C   0  0  0  0  0  0  0  0  0  0  0  0
  143.4990  153.6460  133.2130 C   0  0  0  0  0  0  0  0  0  0  0  0
  142.1970  152.4750  133.0910 Cl  0  0  0  0  0  0  0  0  0  0  0  0
  143.9930  154.2660  132.0620 C   0  0  0  0  0  0  0  0  0  0  0  0
  145.0300  155.1990  132.1570 C   0  0  0  0  0  0  0  0  0  0  0  0
  145.2910  158.5570  133.6440 C   0  0  0  0  0  0  0  0  0  0  0  0
  144.1090  158.0180  134.1580 C   0  0  0  0  0  0  0  0  0  0  0  0
  141.1450  155.7756  135.1740 H   0  0  0  0  0  0  0  0  0  0  0  0
  140.2725  155.5547  133.6194 H   0  0  0  0  0  0  0  0  0  0  0  0
  142.0385  155.8831  133.6194 H   0  0  0  0  0  0  0  0  0  0  0  0
  140.9337  157.9230  133.0208 H   0  0  0  0  0  0  0  0  0  0  0  0
  139.1940  159.0036  134.4076 H   0  0  0  0  0  0  0  0  0  0  0  0
  138.6896  157.3339  133.8733 H   0  0  0  0  0  0  0  0  0  0  0  0
  139.6922  158.3752  137.6345 H   0  0  0  0  0  0  0  0  0  0  0  0
  140.6367  156.9142  136.9988 H   0  0  0  0  0  0  0  0  0  0  0  0
  140.8953  159.8139  136.1696 H   0  0  0  0  0  0  0  0  0  0  0  0
  142.1211  158.7213  136.9411 H   0  0  0  0  0  0  0  0  0  0  0  0
  142.3049  160.9500  134.2487 H   0  0  0  0  0  0  0  0  0  0  0  0
  144.4546  161.8401  133.3054 H   0  0  0  0  0  0  0  0  0  0  0  0
  147.0852  161.0608  132.4970 H   0  0  0  0  0  0  0  0  0  0  0  0
  150.0890  157.2600  131.5700 H   0  0  0  0  0  0  0  0  0  0  0  0
  148.4290  156.6070  131.7470 H   0  0  0  0  0  0  0  0  0  0  0  0
  145.4947  155.1442  135.5485 H   0  0  0  0  0  0  0  0  0  0  0  0
  143.6478  153.4778  135.3684 H   0  0  0  0  0  0  0  0  0  0  0  0
  143.5650  154.0194  131.0791 H   0  0  0  0  0  0  0  0  0  0  0  0
  145.4127  155.6857  131.2478 H   0  0  0  0  0  0  0  0  0  0  0  0
  144.0381  156.9449  134.3889 H   0  0  0  0  0  0  0  0  0  0  0  0
  1  2  1  0
  2  3  1  0
  3  4  1  0
  4  5  1  0
  5  6  1  0
  6  7  1  0
  7  8  1  0
  8  9  2  0
  9 10  1  0
 10 11  2  0
 11 12  1  0
 12 13  2  0
 13 14  1  0
 14 15  1  0
 14 16  2  0
 13 17  1  0
 17 18  1  0
 18 19  2  0
 18 20  1  0
 20 21  2  0
 21 22  1  0
 22 23  2  0
 23 24  1  0
 23 25  1  0
 25 26  2  0
 17 27  1  0
 27 28  2  0
  7  2  1  0
 28  8  1  0
 27 11  1  0
 26 20  1  0
  1 29  1  0
  1 30  1  0
  1 31  1  0
  2 32  1  6
  3 33  1  0
  3 34  1  0
  5 35  1  0
  5 36  1  0
  6 37  1  0
  6 38  1  0
  9 39  1  0
 10 40  1  0
 12 41  1  0
 15 42  1  0
 15 43  1  0
 21 44  1  0
 22 45  1  0
 25 46  1  0
 26 47  1  0
 28 48  1  0
M  END
>  <UniqueID>  (80) 
80

>  <SMILES>  (80) 
C[C@H]1COCCN1c1ccc2cc(C(N)=O)n(C(=O)c3ccc(Cl)cc3)c2c1

>  <Energy>  (80) 
104.71296698125502

>  <Genealogy>  (80) 
C[C@H]1COCCN1c1ccc2cc(C(N)=O)n(C(=O)c3ccc(Cl)cc3)c2c1 (chirality)
C[C@H]1COCCN1c1ccc2cc(C(N)=O)n(C(=O)c3ccc(Cl)cc3)c2c1 (3D coordinates assigned)
C[C@H]1COCCN1c1ccc2cc(C(N)=O)n(C(=O)c3ccc(Cl)cc3)c2c1 (nonaromatic ring conformer: 104.71296698125502 kcal/mol)

>  <smiles>  (80) 
CC1COCCN1c1ccc2cc(C(N)=O)n(C(=O)c3ccc(Cl)cc3)c2c1

>  <score_type>  (80) 
oracle

>  <origin>  (80) 
adg

>  <m_score__min__energy>  (80) 
-9.4000000000000004

>  <m_primary>  (80) 
energy

$$$$
80:0
     RDKit          3D

 35 37  0  0  0  0  0  0  0  0999 V2000
  142.9860  160.8480  133.3990 N   0  0  0  0  0  0  0  0  0  0  0  0
  144.3560  160.9750  133.7680 C   0  0  0  0  0  0  0  0  0  0  0  0
  144.7330  161.9960  134.4010 O   0  0  0  0  0  0  0  0  0  0  0  0
  145.3250  159.9000  133.4690 C   0  0  0  0  0  0  0  0  0  0  0  0
  146.6580  160.1390  133.1410 C   0  0  0  0  0  0  0  0  0  0  0  0
  147.2370  158.8970  133.0360 C   0  0  0  0  0  0  0  0  0  0  0  0
  148.5460  158.5430  132.7220 C   0  0  0  0  0  0  0  0  0  0  0  0
  148.8610  157.1750  132.6580 C   0  0  0  0  0  0  0  0  0  0  0  0
  147.8700  156.1880  132.8980 C   0  0  0  0  0  0  0  0  0  0  0  0
  148.2120  154.7450  132.8150 C   0  0  0  0  0  0  0  0  0  0  0  0
  149.5390  154.3370  132.5920 C   0  0  0  0  0  0  0  0  0  0  0  0
  149.8610  152.9790  132.5150 C   0  0  0  0  0  0  0  0  0  0  0  0
  148.8600  152.0010  132.6380 C   0  0  0  0  0  0  0  0  0  0  0  0
  149.2160  150.5360  132.6040 C   0  0  0  0  0  0  0  0  0  0  0  0
  148.1260  149.7770  132.2160 F   0  0  0  0  0  0  0  0  0  0  0  0
  149.6170  150.1350  133.8650 F   0  0  0  0  0  0  0  0  0  0  0  0
  150.2450  150.3030  131.7080 F   0  0  0  0  0  0  0  0  0  0  0  0
  147.5390  152.4070  132.8880 C   0  0  0  0  0  0  0  0  0  0  0  0
  147.2160  153.7650  132.9670 C   0  0  0  0  0  0  0  0  0  0  0  0
  146.5510  156.5910  133.2130 C   0  0  0  0  0  0  0  0  0  0  0  0
  146.2690  157.9600  133.2870 C   0  0  0  0  0  0  0  0  0  0  0  0
  145.0880  158.5600  133.5520 N   0  0  0  0  0  0  0  0  0  0  0  0
  143.8300  157.9010  133.7710 C   0  0  0  0  0  0  0  0  0  0  0  0
  142.7620  158.0650  132.8410 N   0  0  0  0  0  0  0  0  0  0  0  0
  143.6760  157.1490  134.7710 O   0  0  0  0  0  0  0  0  0  0  0  0
  142.6980  160.2390  132.6020 H   0  0  0  0  0  0  0  0  0  0  0  0
  147.1440  161.1152  132.9967 H   0  0  0  0  0  0  0  0  0  0  0  0
  149.3103  159.3104  132.5299 H   0  0  0  0  0  0  0  0  0  0  0  0
  149.8890  156.8652  132.4188 H   0  0  0  0  0  0  0  0  0  0  0  0
  150.3301  155.0926  132.4772 H   0  0  0  0  0  0  0  0  0  0  0  0
  150.9059  152.6738  132.3569 H   0  0  0  0  0  0  0  0  0  0  0  0
  146.7520  151.6504  133.0228 H   0  0  0  0  0  0  0  0  0  0  0  0
  146.1746  154.0687  133.1495 H   0  0  0  0  0  0  0  0  0  0  0  0
  145.7640  155.8446  133.3958 H   0  0  0  0  0  0  0  0  0  0  0  0
  142.6210  158.9690  132.3390 H   0  0  0  0  0  0  0  0  0  0  0  0
  1  2  1  0
  2  3  2  0
  2  4  1  0
  4  5  2  0
  5  6  1  0
  6  7  2  0
  7  8  1  0
  8  9  2  0
  9 10  1  0
 10 11  2  0
 11 12  1  0
 12 13  2  0
 13 14  1  0
 14 15  1  0
 14 16  1  0
 14 17  1  0
 13 18  1  0
 18 19  2  0
  9 20  1  0
 20 21  2  0
 21 22  1  0
 22 23  1  0
 23 24  1  0
 23 25  2  0
 22  4  1  0
 21  6  1  0
 19 10  1  0
  1 26  1  0
  5 27  1  0
  7 28  1  0
  8 29  1  0
 11 30  1  0
 12 31  1  0
 18 32  1  0
 19 33  1  0
 20 34  1  0
 24 35  1  0
M  CHG  2   1  -1  24  -1
M  END
>  <UniqueID>  (81) 
81

>  <SMILES>  (81) 
[NH-]C(=O)c1cc2ccc(-c3ccc(C(F)(F)F)cc3)cc2n1C([NH-])=O

>  <Energy>  (81) 
83.10926286319102

>  <Genealogy>  (81) 
[NH-]C(=O)c1cc2ccc(-c3ccc(C(F)(F)F)cc3)cc2n1C([NH-])=O (protonated)
[NH-]C(=O)c1cc2ccc(-c3ccc(C(F)(F)F)cc3)cc2n1C([NH-])=O (3D coordinates assigned)
[NH-]C(=O)c1cc2ccc(-c3ccc(C(F)(F)F)cc3)cc2n1C([NH-])=O (optimized conformer: 83.10926286319102 kcal/mol)

>  <smiles>  (81) 
NC(=O)c1cc2ccc(-c3ccc(C(F)(F)F)cc3)cc2n1C(N)=O

>  <score_type>  (81) 
oracle

>  <origin>  (81) 
adg

>  <m_score__min__energy>  (81) 
-7.6900000000000004

>  <m_primary>  (81) 
energy

$$$$
81:0
     RDKit          3D

 74 79  0  0  0  0  0  0  0  0999 V2000
  142.0540  156.9440  140.0590 C   0  0  0  0  0  0  0  0  0  0  0  0
  142.0640  155.7040  139.2000 C   0  0  0  0  0  0  0  0  0  0  0  0
  142.4660  154.5010  139.8050 C   0  0  0  0  0  0  0  0  0  0  0  0
  142.5140  153.3050  139.0820 C   0  0  0  0  0  0  0  0  0  0  0  0
  142.9420  152.0450  139.7410 C   0  0  0  0  0  0  0  0  0  0  0  0
  142.0680  151.3520  140.5990 C   0  0  0  0  0  0  0  0  0  0  0  0
  142.4730  150.1650  141.2160 C   0  0  0  0  0  0  0  0  0  0  0  0
  143.7530  149.6560  140.9840 C   0  0  0  0  0  0  0  0  0  0  0  0
  144.6300  150.3340  140.1340 C   0  0  0  0  0  0  0  0  0  0  0  0
  144.2310  151.5230  139.5160 C   0  0  0  0  0  0  0  0  0  0  0  0
  142.1560  153.3140  137.7310 C   0  0  0  0  0  0  0  0  0  0  0  0
  141.7480  154.4960  137.0930 C   0  0  0  0  0  0  0  0  0  0  0  0
  141.3900  154.4210  135.6300 C   0  0  0  0  0  0  0  0  0  0  0  0
  141.6870  155.7140  137.8260 C   0  0  0  0  0  0  0  0  0  0  0  0
  141.1510  157.2090  136.9960 S   0  0  0  0  0  0  0  0  0  0  0  0
  141.7620  158.4590  137.5620 O   0  0  0  0  0  0  0  0  0  0  0  0
  139.6600  157.3390  137.1450 O   0  0  0  0  0  0  0  0  0  0  0  0
  141.5430  157.1400  135.3080 N   0  0  0  0  0  0  0  0  0  0  0  0
  140.7240  157.7780  134.3170 C   0  0  0  0  0  0  0  0  0  0  0  0
  139.3570  157.4670  134.2330 C   0  0  0  0  0  0  0  0  0  0  0  0
  138.5340  158.1220  133.3170 C   0  0  0  0  0  0  0  0  0  0  0  0
  139.0630  159.1020  132.4780 C   0  0  0  0  0  0  0  0  0  0  0  0
  140.4180  159.4280  132.5490 C   0  0  0  0  0  0  0  0  0  0  0  0
  141.2640  158.7700  133.4600 C   0  0  0  0  0  0  0  0  0  0  0  0
  142.7080  159.1020  133.4650 C   0  0  0  0  0  0  0  0  0  0  0  0
  143.1370  160.4390  133.6760 C   0  0  0  0  0  0  0  0  0  0  0  0
  144.5040  160.7560  133.7210 C   0  0  0  0  0  0  0  0  0  0  0  0
  145.4190  159.7200  133.5600 C   0  0  0  0  0  0  0  0  0  0  0  0
  146.7940  159.7410  133.5960 C   0  0  0  0  0  0  0  0  0  0  0  0
  147.1890  158.4200  133.3960 C   0  0  0  0  0  0  0  0  0  0  0  0
  148.5990  158.0060  133.2610 C   0  0  0  0  0  0  0  0  0  0  0  0
  149.6000  158.9800  132.9720 N   0  0  0  0  0  0  0  0  0  0  0  0
  148.9250  156.7940  133.3540 O   0  0  0  0  0  0  0  0  0  0  0  0
  146.0990  157.6100  133.2640 N   0  0  0  0  0  0  0  0  0  0  0  0
  146.0670  156.1770  133.1100 C   0  0  0  0  0  0  0  0  0  0  0  0
  146.1280  155.6810  131.9520 O   0  0  0  0  0  0  0  0  0  0  0  0
  145.9960  155.2660  134.2810 C   0  0  0  0  0  0  0  0  0  0  0  0
  147.0890  155.2410  135.1670 C   0  0  0  0  0  0  0  0  0  0  0  0
  147.0330  154.5000  136.3480 C   0  0  0  0  0  0  0  0  0  0  0  0
  145.8880  153.7730  136.6630 C   0  0  0  0  0  0  0  0  0  0  0  0
  144.8050  153.7590  135.7850 C   0  0  0  0  0  0  0  0  0  0  0  0
  144.8500  154.4790  134.5770 C   0  0  0  0  0  0  0  0  0  0  0  0
  143.7290  154.3190  133.6270 C   0  0  0  0  0  0  0  0  0  0  0  0
  142.9770  155.2940  133.3620 O   0  0  0  0  0  0  0  0  0  0  0  0
  143.4480  153.0760  133.0720 O   0  0  0  0  0  0  0  0  0  0  0  0
  145.0250  158.4240  133.3500 C   0  0  0  0  0  0  0  0  0  0  0  0
  143.6700  158.0780  133.3080 C   0  0  0  0  0  0  0  0  0  0  0  0
  142.0563  156.6549  141.1203 H   0  0  0  0  0  0  0  0  0  0  0  0
  142.9473  157.5479  139.8415 H   0  0  0  0  0  0  0  0  0  0  0  0
  141.1511  157.5334  139.8415 H   0  0  0  0  0  0  0  0  0  0  0  0
  142.7485  154.5001  140.8681 H   0  0  0  0  0  0  0  0  0  0  0  0
  141.0586  151.7474  140.7855 H   0  0  0  0  0  0  0  0  0  0  0  0
  141.7827  149.6308  141.8854 H   0  0  0  0  0  0  0  0  0  0  0  0
  144.0702  148.7218  141.4704 H   0  0  0  0  0  0  0  0  0  0  0  0
  145.6371  149.9314  139.9504 H   0  0  0  0  0  0  0  0  0  0  0  0
  144.9275  152.0538  138.8504 H   0  0  0  0  0  0  0  0  0  0  0  0
  142.1947  152.3767  137.1565 H   0  0  0  0  0  0  0  0  0  0  0  0
  140.3182  154.1965  135.5258 H   0  0  0  0  0  0  0  0  0  0  0  0
  141.6112  155.3850  135.1485 H   0  0  0  0  0  0  0  0  0  0  0  0
  141.9795  153.6269  135.1485 H   0  0  0  0  0  0  0  0  0  0  0  0
  142.2490  156.4320  135.0090 H   0  0  0  0  0  0  0  0  0  0  0  0
  138.9313  156.6994  134.8960 H   0  0  0  0  0  0  0  0  0  0  0  0
  137.4661  157.8651  133.2564 H   0  0  0  0  0  0  0  0  0  0  0  0
  138.4110  159.6192  131.7587 H   0  0  0  0  0  0  0  0  0  0  0  0
  140.8277  160.2055  131.8874 H   0  0  0  0  0  0  0  0  0  0  0  0
  142.3897  161.2357  133.8057 H   0  0  0  0  0  0  0  0  0  0  0  0
  144.8412  161.7911  133.8786 H   0  0  0  0  0  0  0  0  0  0  0  0
  147.4437  160.6152  133.7500 H   0  0  0  0  0  0  0  0  0  0  0  0
  150.6120  158.7250  132.9770 H   0  0  0  0  0  0  0  0  0  0  0  0
  147.9977  155.8120  134.9258 H   0  0  0  0  0  0  0  0  0  0  0  0
  147.8949  154.4902  137.0314 H   0  0  0  0  0  0  0  0  0  0  0  0
  145.8378  153.2088  137.6060 H   0  0  0  0  0  0  0  0  0  0  0  0
  143.9057  153.1789  136.0395 H   0  0  0  0  0  0  0  0  0  0  0  0
  143.3604  157.0334  133.1563 H   0  0  0  0  0  0  0  0  0  0  0  0
  1  2  1  0
  2  3  2  0
  3  4  1  0
  4  5  1  0
  5  6  2  0
  6  7  1  0
  7  8  2  0
  8  9  1  0
  9 10  2  0
  4 11  2  0
 11 12  1  0
 12 13  1  0
 12 14  2  0
 14 15  1  0
 15 16  2  0
 15 17  2  0
 15 18  1  0
 18 19  1  0
 19 20  2  0
 20 21  1  0
 21 22  2  0
 22 23  1  0
 23 24  2  0
 24 25  1  0
 25 26  2  0
 26 27  1  0
 27 28  2  0
 28 29  1  0
 29 30  2  0
 30 31  1  0
 31 32  1  0
 31 33  2  0
 30 34  1  0
 34 35  1  0
 35 36  2  0
 35 37  1  0
 37 38  2  0
 38 39  1  0
 39 40  2  0
 40 41  1  0
 41 42  2  0
 42 43  1  0
 43 44  2  0
 43 45  1  0
 34 46  1  0
 46 47  2  0
 14  2  1  0
 24 19  1  0
 47 25  1  0
 10  5  1  0
 46 28  1  0
 42 37  1  0
  1 48  1  0
  1 49  1  0
  1 50  1  0
  3 51  1  0
  6 52  1  0
  7 53  1  0
  8 54  1  0
  9 55  1  0
 10 56  1  0
 11 57  1  0
 13 58  1  0
 13 59  1  0
 13 60  1  0
 18 61  1  0
 20 62  1  0
 21 63  1  0
 22 64  1  0
 23 65  1  0
 26 66  1  0
 27 67  1  0
 29 68  1  0
 32 69  1  0
 38 70  1  0
 39 71  1  0
 40 72  1  0
 41 73  1  0
 47 74  1  0
M  CHG  2  32  -1  45  -1
M  END
>  <UniqueID>  (82) 
82

>  <SMILES>  (82) 
Cc1cc(-c2ccccc2)cc(C)c1S(=O)(=O)Nc1ccccc1-c1ccc2cc(C([NH-])=O)n(C(=O)c3ccccc3C(=O)[O-])c2c1

>  <Energy>  (82) 
153.5699077042798

>  <Genealogy>  (82) 
Cc1cc(-c2ccccc2)cc(C)c1S(=O)(=O)Nc1ccccc1-c1ccc2cc(C([NH-])=O)n(C(=O)c3ccccc3C(=O)[O-])c2c1 (protonated)
Cc1cc(-c2ccccc2)cc(C)c1S(=O)(=O)Nc1ccccc1-c1ccc2cc(C([NH-])=O)n(C(=O)c3ccccc3C(=O)[O-])c2c1 (3D coordinates assigned)
Cc1cc(-c2ccccc2)cc(C)c1S(=O)(=O)Nc1ccccc1-c1ccc2cc(C([NH-])=O)n(C(=O)c3ccccc3C(=O)[O-])c2c1 (optimized conformer: 153.5699077042798 kcal/mol)

>  <smiles>  (82) 
Cc1cc(-c2ccccc2)cc(C)c1S(=O)(=O)Nc1ccccc1-c1ccc2cc(C(N)=O)n(C(=O)c3ccccc3C(=O)O)c2c1

>  <score_type>  (82) 
oracle

>  <origin>  (82) 
adg

>  <m_score__min__energy>  (82) 
-13.31

>  <m_primary>  (82) 
energy

$$$$
82:0
     RDKit          3D

 54 57  0  0  0  0  0  0  0  0999 V2000
  141.5500  157.3650  133.0430 N   0  0  0  0  0  0  0  0  0  0  0  0
  142.3970  158.0550  133.9590 C   0  0  0  0  0  0  0  0  0  0  0  0
  141.9210  158.4560  135.0570 O   0  0  0  0  0  0  0  0  0  0  0  0
  143.8310  158.2590  133.6620 C   0  0  0  0  0  0  0  0  0  0  0  0
  144.4240  159.5170  133.5470 C   0  0  0  0  0  0  0  0  0  0  0  0
  145.7570  159.2730  133.2820 C   0  0  0  0  0  0  0  0  0  0  0  0
  146.7980  160.1610  133.0180 C   0  0  0  0  0  0  0  0  0  0  0  0
  148.0610  159.6240  132.7070 C   0  0  0  0  0  0  0  0  0  0  0  0
  148.2560  158.2220  132.6640 C   0  0  0  0  0  0  0  0  0  0  0  0
  149.5420  157.6860  132.3390 N   0  0  0  0  0  0  0  0  0  0  0  0
  147.1790  157.3510  132.9320 C   0  0  0  0  0  0  0  0  0  0  0  0
  145.9340  157.9120  133.2520 C   0  0  0  0  0  0  0  0  0  0  0  0
  144.7600  157.2750  133.4830 N   0  0  0  0  0  0  0  0  0  0  0  0
  144.5330  155.8620  133.3610 C   0  0  0  0  0  0  0  0  0  0  0  0
  145.3780  155.0500  133.8290 O   0  0  0  0  0  0  0  0  0  0  0  0
  143.3510  155.3760  132.7040 N   0  0  0  0  0  0  0  0  0  0  0  0
  142.8140  154.0600  132.9210 C   0  0  0  0  0  0  0  0  0  0  0  0
  141.4550  153.8720  133.2290 C   0  0  0  0  0  0  0  0  0  0  0  0
  140.9490  152.5870  133.4400 C   0  0  0  0  0  0  0  0  0  0  0  0
  141.7910  151.4670  133.3280 C   0  0  0  0  0  0  0  0  0  0  0  0
  141.3130  150.1400  133.5950 N   0  0  0  0  0  0  0  0  0  0  0  0
  141.3050  149.0560  132.6590 C   0  0  0  0  0  0  0  0  0  0  0  0
  142.3880  148.4870  132.3360 O   0  0  0  0  0  0  0  0  0  0  0  0
  140.0010  148.6270  132.0330 C   0  0  0  0  0  0  0  0  0  0  0  0
  140.2160  147.4940  130.9910 C   0  0  0  0  0  0  0  0  0  0  0  0
  139.0540  147.4270  129.9950 C   0  0  0  0  0  0  0  0  0  0  0  0
  138.9130  148.7380  129.1880 C   0  0  0  0  0  0  0  0  0  0  0  0
  139.4450  149.9790  129.9310 C   0  0  0  0  0  0  0  0  0  0  0  0
  139.2500  149.8550  131.4490 C   0  0  0  0  0  0  0  0  0  0  0  0
  143.1450  151.6550  133.0200 C   0  0  0  0  0  0  0  0  0  0  0  0
  143.6500  152.9400  132.7980 C   0  0  0  0  0  0  0  0  0  0  0  0
  141.9390  156.9020  132.1890 H   0  0  0  0  0  0  0  0  0  0  0  0
  143.9331  160.4963  133.6465 H   0  0  0  0  0  0  0  0  0  0  0  0
  146.6373  161.2487  133.0517 H   0  0  0  0  0  0  0  0  0  0  0  0
  148.9036  160.2987  132.4956 H   0  0  0  0  0  0  0  0  0  0  0  0
  149.6830  157.1060  131.4820 H   0  0  0  0  0  0  0  0  0  0  0  0
  150.3590  157.8570  132.9630 H   0  0  0  0  0  0  0  0  0  0  0  0
  147.3123  156.2599  132.8911 H   0  0  0  0  0  0  0  0  0  0  0  0
  142.8950  155.9960  131.9930 H   0  0  0  0  0  0  0  0  0  0  0  0
  140.7861  154.7420  133.3043 H   0  0  0  0  0  0  0  0  0  0  0  0
  139.8876  152.4512  133.6948 H   0  0  0  0  0  0  0  0  0  0  0  0
  139.3577  148.1983  132.8155 H   0  0  0  0  0  0  0  0  0  0  0  0
  141.1491  147.6853  130.4408 H   0  0  0  0  0  0  0  0  0  0  0  0
  140.2702  146.5348  131.5268 H   0  0  0  0  0  0  0  0  0  0  0  0
  139.2315  146.5962  129.2963 H   0  0  0  0  0  0  0  0  0  0  0  0
  138.1248  147.2740  130.5636 H   0  0  0  0  0  0  0  0  0  0  0  0
  139.4725  148.6293  128.2472 H   0  0  0  0  0  0  0  0  0  0  0  0
  137.8381  148.8991  129.0187 H   0  0  0  0  0  0  0  0  0  0  0  0
  140.5182  150.0906  129.7168 H   0  0  0  0  0  0  0  0  0  0  0  0
  138.8816  150.8570  129.5821 H   0  0  0  0  0  0  0  0  0  0  0  0
  139.6310  150.7670  131.9318 H   0  0  0  0  0  0  0  0  0  0  0  0
  138.1758  149.7210  131.6441 H   0  0  0  0  0  0  0  0  0  0  0  0
  143.8155  150.7856  132.9524 H   0  0  0  0  0  0  0  0  0  0  0  0
  144.7074  153.0733  132.5257 H   0  0  0  0  0  0  0  0  0  0  0  0
  1  2  1  0
  2  3  2  0
  2  4  1  0
  4  5  2  0
  5  6  1  0
  6  7  2  0
  7  8  1  0
  8  9  2  0
  9 10  1  0
  9 11  1  0
 11 12  2  0
 12 13  1  0
 13 14  1  0
 14 15  2  0
 14 16  1  0
 16 17  1  0
 17 18  2  0
 18 19  1  0
 19 20  2  0
 20 21  1  0
 21 22  1  0
 22 23  2  0
 22 24  1  0
 24 25  1  0
 25 26  1  0
 26 27  1  0
 27 28  1  0
 28 29  1  0
 20 30  1  0
 30 31  2  0
 13  4  1  0
 31 17  1  0
 12  6  1  0
 29 24  1  0
  1 32  1  0
  5 33  1  0
  7 34  1  0
  8 35  1  0
 10 36  1  0
 10 37  1  0
 11 38  1  0
 16 39  1  0
 18 40  1  0
 19 41  1  0
 24 42  1  0
 25 43  1  0
 25 44  1  0
 26 45  1  0
 26 46  1  0
 27 47  1  0
 27 48  1  0
 28 49  1  0
 28 50  1  0
 29 51  1  0
 29 52  1  0
 30 53  1  0
 31 54  1  0
M  CHG  2   1  -1  21  -1
M  END
>  <UniqueID>  (83) 
83

>  <SMILES>  (83) 
[NH-]C(=O)c1cc2ccc(N)cc2n1C(=O)Nc1ccc([N-]C(=O)C2CCCCC2)cc1

>  <Energy>  (83) 
105.44693357153051

>  <Genealogy>  (83) 
[NH-]C(=O)c1cc2ccc(N)cc2n1C(=O)Nc1ccc([N-]C(=O)C2CCCCC2)cc1 (protonated)
[NH-]C(=O)c1cc2ccc(N)cc2n1C(=O)Nc1ccc([N-]C(=O)C2CCCCC2)cc1 (3D coordinates assigned)
[NH-]C(=O)c1cc2ccc(N)cc2n1C(=O)Nc1ccc([N-]C(=O)C2CCCCC2)cc1 (nonaromatic ring conformer: 105.44693357153051 kcal/mol)

>  <smiles>  (83) 
NC(=O)c1cc2ccc(N)cc2n1C(=O)Nc1ccc(NC(=O)C2CCCCC2)cc1

>  <score_type>  (83) 
oracle

>  <origin>  (83) 
adg

>  <m_score__min__energy>  (83) 
-11.26

>  <m_primary>  (83) 
energy

$$$$
83:0
     RDKit          3D

 49 53  0  0  0  0  0  0  0  0999 V2000
  141.0940  155.4030  133.5080 N   0  0  0  0  0  0  0  0  0  0  0  0
  142.0660  154.9560  134.4520 C   0  0  0  0  0  0  0  0  0  0  0  0
  141.6910  154.3280  135.4760 O   0  0  0  0  0  0  0  0  0  0  0  0
  143.5070  155.1570  134.2090 C   0  0  0  0  0  0  0  0  0  0  0  0
  144.4710  154.2060  134.5230 C   0  0  0  0  0  0  0  0  0  0  0  0
  145.6600  154.7350  134.0820 C   0  0  0  0  0  0  0  0  0  0  0  0
  146.9480  154.2120  134.1490 C   0  0  0  0  0  0  0  0  0  0  0  0
  148.0030  154.9900  133.6460 C   0  0  0  0  0  0  0  0  0  0  0  0
  147.7540  156.2710  133.1000 C   0  0  0  0  0  0  0  0  0  0  0  0
  148.8380  157.0600  132.6050 N   0  0  0  0  0  0  0  0  0  0  0  0
  146.4360  156.7740  133.0490 C   0  0  0  0  0  0  0  0  0  0  0  0
  145.3970  155.9680  133.5360 C   0  0  0  0  0  0  0  0  0  0  0  0
  144.0730  156.2440  133.6090 N   0  0  0  0  0  0  0  0  0  0  0  0
  143.4260  157.4760  133.2390 C   0  0  0  0  0  0  0  0  0  0  0  0
  142.6500  157.5050  132.2440 O   0  0  0  0  0  0  0  0  0  0  0  0
  143.6370  158.6310  133.9990 O   0  0  0  0  0  0  0  0  0  0  0  0
  143.0210  159.8920  133.7350 C   0  0  0  0  0  0  0  0  0  0  0  0
  141.6080  159.9680  134.3330 C   0  0  0  0  0  0  0  0  0  0  0  0
  141.4000  159.0090  135.4780 C   0  0  0  0  0  0  0  0  0  0  0  0
  142.0530  158.9920  136.7130 C   0  0  0  0  0  0  0  0  0  0  0  0
  141.6620  158.0410  137.6690 C   0  0  0  0  0  0  0  0  0  0  0  0
  140.6190  157.1360  137.3900 C   0  0  0  0  0  0  0  0  0  0  0  0
  139.9610  157.1730  136.1490 C   0  0  0  0  0  0  0  0  0  0  0  0
  140.3760  158.1190  135.2110 C   0  0  0  0  0  0  0  0  0  0  0  0
  139.8560  158.4050  133.8910 C   0  0  0  0  0  0  0  0  0  0  0  0
  138.8290  157.7830  133.1800 C   0  0  0  0  0  0  0  0  0  0  0  0
  138.5140  158.2750  131.9030 C   0  0  0  0  0  0  0  0  0  0  0  0
  139.2180  159.3720  131.3680 C   0  0  0  0  0  0  0  0  0  0  0  0
  140.2460  159.9840  132.1060 C   0  0  0  0  0  0  0  0  0  0  0  0
  140.5550  159.4780  133.3700 C   0  0  0  0  0  0  0  0  0  0  0  0
  141.3890  155.7750  132.5790 H   0  0  0  0  0  0  0  0  0  0  0  0
  140.0750  155.2880  133.7040 H   0  0  0  0  0  0  0  0  0  0  0  0
  144.3152  153.2365  135.0188 H   0  0  0  0  0  0  0  0  0  0  0  0
  147.1339  153.2186  134.5832 H   0  0  0  0  0  0  0  0  0  0  0  0
  149.0312  154.6004  133.6767 H   0  0  0  0  0  0  0  0  0  0  0  0
  148.9540  157.2290  131.5810 H   0  0  0  0  0  0  0  0  0  0  0  0
  149.5360  157.4810  133.2590 H   0  0  0  0  0  0  0  0  0  0  0  0
  146.2292  157.7730  132.6376 H   0  0  0  0  0  0  0  0  0  0  0  0
  143.6379  160.6896  134.1746 H   0  0  0  0  0  0  0  0  0  0  0  0
  142.9399  160.0135  132.6447 H   0  0  0  0  0  0  0  0  0  0  0  0
  141.5200  161.0277  134.6144 H   0  0  0  0  0  0  0  0  0  0  0  0
  142.8575  159.7095  136.9320 H   0  0  0  0  0  0  0  0  0  0  0  0
  142.1734  158.0023  138.6422 H   0  0  0  0  0  0  0  0  0  0  0  0
  140.3183  156.3969  138.1472 H   0  0  0  0  0  0  0  0  0  0  0  0
  139.1411  156.4753  135.9231 H   0  0  0  0  0  0  0  0  0  0  0  0
  138.2811  156.9306  133.6081 H   0  0  0  0  0  0  0  0  0  0  0  0
  137.7128  157.8011  131.3169 H   0  0  0  0  0  0  0  0  0  0  0  0
  138.9619  159.7514  130.3678 H   0  0  0  0  0  0  0  0  0  0  0  0
  140.7958  160.8440  131.6960 H   0  0  0  0  0  0  0  0  0  0  0  0
  1  2  1  0
  2  3  2  0
  2  4  1  0
  4  5  2  0
  5  6  1  0
  6  7  2  0
  7  8  1  0
  8  9  2  0
  9 10  1  0
  9 11  1  0
 11 12  2  0
 12 13  1  0
 13 14  1  0
 14 15  2  0
 14 16  1  0
 16 17  1  0
 17 18  1  0
 18 19  1  0
 19 20  2  0
 20 21  1  0
 21 22  2  0
 22 23  1  0
 23 24  2  0
 24 25  1  0
 25 26  2  0
 26 27  1  0
 27 28  2  0
 28 29  1  0
 29 30  2  0
 13  4  1  0
 30 18  1  0
 12  6  1  0
 24 19  1  0
 30 25  1  0
  1 31  1  0
  1 32  1  0
  5 33  1  0
  7 34  1  0
  8 35  1  0
 10 36  1  0
 10 37  1  0
 11 38  1  0
 17 39  1  0
 17 40  1  0
 18 41  1  0
 20 42  1  0
 21 43  1  0
 22 44  1  0
 23 45  1  0
 26 46  1  0
 27 47  1  0
 28 48  1  0
 29 49  1  0
M  END
>  <UniqueID>  (84) 
84

>  <SMILES>  (84) 
NC(=O)c1cc2ccc(N)cc2n1C(=O)OCC1c2ccccc2-c2ccccc21

>  <Energy>  (84) 
112.3991262334629

>  <Genealogy>  (84) 
NC(=O)c1cc2ccc(N)cc2n1C(=O)OCC1c2ccccc2-c2ccccc21 (3D coordinates assigned)
NC(=O)c1cc2ccc(N)cc2n1C(=O)OCC1c2ccccc2-c2ccccc21 (nonaromatic ring conformer: 112.3991262334629 kcal/mol)

>  <smiles>  (84) 
NC(=O)c1cc2ccc(N)cc2n1C(=O)OCC1c2ccccc2-c2ccccc21

>  <score_type>  (84) 
oracle

>  <origin>  (84) 
adg

>  <m_score__min__energy>  (84) 
-10.34

>  <m_primary>  (84) 
energy

$$$$
84:0
     RDKit          3D

 48 50  0  0  0  0  0  0  0  0999 V2000
  148.4130  153.5300  132.6380 C   0  0  0  0  0  0  0  0  0  0  0  0
  147.4070  154.5210  133.2550 C   0  0  0  0  0  0  0  0  0  0  0  0
  147.3400  154.3490  134.7830 C   0  0  0  0  0  0  0  0  0  0  0  0
  146.0190  154.2440  132.6610 C   0  0  0  0  0  0  0  0  0  0  0  0
  147.7520  155.8740  132.9190 O   0  0  0  0  0  0  0  0  0  0  0  0
  147.6490  156.9880  133.7650 C   0  0  0  0  0  0  0  0  0  0  0  0
  148.3320  157.0680  134.8200 O   0  0  0  0  0  0  0  0  0  0  0  0
  146.7630  158.0590  133.4130 N   0  0  0  0  0  0  0  0  0  0  0  0
  147.1020  159.2910  132.9410 C   0  0  0  0  0  0  0  0  0  0  0  0
  148.4600  159.7260  132.5540 C   0  0  0  0  0  0  0  0  0  0  0  0
  149.6170  158.9860  132.9480 N   0  0  0  0  0  0  0  0  0  0  0  0
  148.5980  160.7430  131.8230 O   0  0  0  0  0  0  0  0  0  0  0  0
  145.9750  160.1020  132.8330 C   0  0  0  0  0  0  0  0  0  0  0  0
  144.9230  159.3170  133.2500 C   0  0  0  0  0  0  0  0  0  0  0  0
  143.5720  159.6250  133.3700 C   0  0  0  0  0  0  0  0  0  0  0  0
  142.7160  158.6380  133.8820 C   0  0  0  0  0  0  0  0  0  0  0  0
  143.2240  157.3750  134.2820 C   0  0  0  0  0  0  0  0  0  0  0  0
  142.2850  156.3350  134.8320 C   0  0  0  0  0  0  0  0  0  0  0  0
  141.0820  156.9720  135.3730 N   0  0  0  0  0  0  0  0  0  0  0  0
  141.0100  157.5270  136.5970 C   0  0  0  0  0  0  0  0  0  0  0  0
  139.8000  158.1640  136.7180 C   0  0  0  0  0  0  0  0  0  0  0  0
  139.1040  158.0260  135.5740 N   0  0  0  0  0  0  0  0  0  0  0  0
  139.9080  157.2960  134.7700 C   0  0  0  0  0  0  0  0  0  0  0  0
  139.4830  156.9250  133.4030 C   0  0  0  0  0  0  0  0  0  0  0  0
  139.2240  155.5730  133.0380 N   0  0  0  0  0  0  0  0  0  0  0  0
  139.2970  157.8350  132.5530 O   0  0  0  0  0  0  0  0  0  0  0  0
  144.5990  157.0920  134.1290 C   0  0  0  0  0  0  0  0  0  0  0  0
  145.4250  158.0890  133.5970 C   0  0  0  0  0  0  0  0  0  0  0  0
  148.9482  153.0028  133.4415 H   0  0  0  0  0  0  0  0  0  0  0  0
  147.8742  152.8001  132.0160 H   0  0  0  0  0  0  0  0  0  0  0  0
  149.1347  154.0797  132.0160 H   0  0  0  0  0  0  0  0  0  0  0  0
  147.6978  155.2674  135.2714 H   0  0  0  0  0  0  0  0  0  0  0  0
  146.3003  154.1543  135.0848 H   0  0  0  0  0  0  0  0  0  0  0  0
  147.9741  153.5023  135.0848 H   0  0  0  0  0  0  0  0  0  0  0  0
  145.2939  154.0993  133.4754 H   0  0  0  0  0  0  0  0  0  0  0  0
  145.7085  155.0979  132.0410 H   0  0  0  0  0  0  0  0  0  0  0  0
  146.0600  153.3363  132.0410 H   0  0  0  0  0  0  0  0  0  0  0  0
  150.5700  159.3380  132.7050 H   0  0  0  0  0  0  0  0  0  0  0  0
  149.5320  158.0450  133.3890 H   0  0  0  0  0  0  0  0  0  0  0  0
  145.9339  161.1458  132.4885 H   0  0  0  0  0  0  0  0  0  0  0  0
  143.1866  160.6115  133.0728 H   0  0  0  0  0  0  0  0  0  0  0  0
  141.6397  158.8456  133.9743 H   0  0  0  0  0  0  0  0  0  0  0  0
  141.9982  155.6427  134.0267 H   0  0  0  0  0  0  0  0  0  0  0  0
  142.7924  155.7852  135.6384 H   0  0  0  0  0  0  0  0  0  0  0  0
  141.7902  157.4783  137.3709 H   0  0  0  0  0  0  0  0  0  0  0  0
  139.4529  158.7037  137.6115 H   0  0  0  0  0  0  0  0  0  0  0  0
  138.3270  155.3000  132.5800 H   0  0  0  0  0  0  0  0  0  0  0  0
  145.0100  156.1141  134.4201 H   0  0  0  0  0  0  0  0  0  0  0  0
  1  2  1  0
  2  3  1  0
  2  4  1  0
  2  5  1  0
  5  6  1  0
  6  7  2  0
  6  8  1  0
  8  9  1  0
  9 10  1  0
 10 11  1  0
 10 12  2  0
  9 13  2  0
 13 14  1  0
 14 15  2  0
 15 16  1  0
 16 17  2  0
 17 18  1  0
 18 19  1  0
 19 20  1  0
 20 21  2  0
 21 22  1  0
 22 23  2  0
 23 24  1  0
 24 25  1  0
 24 26  2  0
 17 27  1  0
 27 28  2  0
 28  8  1  0
 28 14  1  0
 23 19  1  0
  1 29  1  0
  1 30  1  0
  1 31  1  0
  3 32  1  0
  3 33  1  0
  3 34  1  0
  4 35  1  0
  4 36  1  0
  4 37  1  0
 11 38  1  0
 11 39  1  0
 13 40  1  0
 15 41  1  0
 16 42  1  0
 18 43  1  0
 18 44  1  0
 20 45  1  0
 21 46  1  0
 25 47  1  0
 27 48  1  0
M  CHG  1  25  -1
M  END
>  <UniqueID>  (85) 
85

>  <SMILES>  (85) 
CC(C)(C)OC(=O)n1c(C(N)=O)cc2ccc(Cn3ccnc3C([NH-])=O)cc21

>  <Energy>  (85) 
113.35689524555113

>  <Genealogy>  (85) 
CC(C)(C)OC(=O)n1c(C(N)=O)cc2ccc(Cn3ccnc3C([NH-])=O)cc21 (protonated)
CC(C)(C)OC(=O)n1c(C(N)=O)cc2ccc(Cn3ccnc3C([NH-])=O)cc21 (3D coordinates assigned)
CC(C)(C)OC(=O)n1c(C(N)=O)cc2ccc(Cn3ccnc3C([NH-])=O)cc21 (optimized conformer: 113.35689524555113 kcal/mol)

>  <smiles>  (85) 
CC(C)(C)OC(=O)n1c(C(N)=O)cc2ccc(Cn3ccnc3C(N)=O)cc21

>  <score_type>  (85) 
oracle

>  <origin>  (85) 
adg

>  <m_score__min__energy>  (85) 
-8.1300000000000008

>  <m_primary>  (85) 
energy

$$$$
85:0
     RDKit          3D

 50 52  0  0  0  0  0  0  0  0999 V2000
  143.0690  155.3970  133.3310 C   0  0  0  0  0  0  0  0  0  0  0  0
  142.3700  154.0550  133.6150 C   0  0  0  0  0  0  0  0  0  0  0  0
  142.9540  152.9820  132.6830 C   0  0  0  0  0  0  0  0  0  0  0  0
  140.8550  154.1650  133.3590 C   0  0  0  0  0  0  0  0  0  0  0  0
  142.6240  153.6280  134.9610 O   0  0  0  0  0  0  0  0  0  0  0  0
  141.7860  152.8330  135.7560 C   0  0  0  0  0  0  0  0  0  0  0  0
  141.3500  151.7280  135.3360 O   0  0  0  0  0  0  0  0  0  0  0  0
  141.4460  153.2770  137.0770 N   0  0  0  0  0  0  0  0  0  0  0  0
  141.1690  152.5170  138.1750 C   0  0  0  0  0  0  0  0  0  0  0  0
  141.0220  151.0470  138.2010 C   0  0  0  0  0  0  0  0  0  0  0  0
  140.0840  150.3880  137.3540 N   0  0  0  0  0  0  0  0  0  0  0  0
  141.7000  150.3660  139.0160 O   0  0  0  0  0  0  0  0  0  0  0  0
  140.9490  153.3290  139.2860 C   0  0  0  0  0  0  0  0  0  0  0  0
  141.0900  154.6200  138.8290 C   0  0  0  0  0  0  0  0  0  0  0  0
  140.9700  155.8280  139.5080 C   0  0  0  0  0  0  0  0  0  0  0  0
  141.1810  157.0140  138.7850 C   0  0  0  0  0  0  0  0  0  0  0  0
  141.5200  156.9680  137.4090 C   0  0  0  0  0  0  0  0  0  0  0  0
  141.6990  158.2450  136.6280 C   0  0  0  0  0  0  0  0  0  0  0  0
  142.0820  157.9700  135.1680 C   0  0  0  0  0  0  0  0  0  0  0  0
  140.9240  158.2100  134.2280 C   0  0  0  0  0  0  0  0  0  0  0  0
  139.8560  157.2960  134.1900 C   0  0  0  0  0  0  0  0  0  0  0  0
  138.7550  157.5300  133.3610 C   0  0  0  0  0  0  0  0  0  0  0  0
  138.7080  158.6790  132.5670 C   0  0  0  0  0  0  0  0  0  0  0  0
  139.7600  159.5970  132.6020 C   0  0  0  0  0  0  0  0  0  0  0  0
  140.8640  159.3720  133.4320 C   0  0  0  0  0  0  0  0  0  0  0  0
  141.8960  160.3050  133.4620 O   0  0  0  0  0  0  0  0  0  0  0  0
  141.6300  155.7240  136.7540 C   0  0  0  0  0  0  0  0  0  0  0  0
  141.3920  154.5600  137.4940 C   0  0  0  0  0  0  0  0  0  0  0  0
  143.3239  155.8863  134.2826 H   0  0  0  0  0  0  0  0  0  0  0  0
  143.9879  155.2169  132.7537 H   0  0  0  0  0  0  0  0  0  0  0  0
  142.3947  156.0467  132.7537 H   0  0  0  0  0  0  0  0  0  0  0  0
  143.3941  152.1734  133.2851 H   0  0  0  0  0  0  0  0  0  0  0  0
  142.1541  152.5728  132.0483 H   0  0  0  0  0  0  0  0  0  0  0  0
  143.7319  153.4316  132.0483 H   0  0  0  0  0  0  0  0  0  0  0  0
  140.3225  154.2037  134.3207 H   0  0  0  0  0  0  0  0  0  0  0  0
  140.6454  155.0807  132.7867 H   0  0  0  0  0  0  0  0  0  0  0  0
  140.5153  153.2891  132.7867 H   0  0  0  0  0  0  0  0  0  0  0  0
  140.3320  150.1370  136.3710 H   0  0  0  0  0  0  0  0  0  0  0  0
  140.7128  153.0067  140.3109 H   0  0  0  0  0  0  0  0  0  0  0  0
  140.7176  155.8540  140.5783 H   0  0  0  0  0  0  0  0  0  0  0  0
  141.0824  157.9860  139.2905 H   0  0  0  0  0  0  0  0  0  0  0  0
  140.7556  158.8102  136.6484 H   0  0  0  0  0  0  0  0  0  0  0  0
  142.5137  158.8194  137.0932 H   0  0  0  0  0  0  0  0  0  0  0  0
  142.9122  158.6346  134.8867 H   0  0  0  0  0  0  0  0  0  0  0  0
  142.3753  156.9130  135.0854 H   0  0  0  0  0  0  0  0  0  0  0  0
  139.8871  156.3920  134.8160 H   0  0  0  0  0  0  0  0  0  0  0  0
  137.9248  156.8089  133.3336 H   0  0  0  0  0  0  0  0  0  0  0  0
  137.8417  158.8606  131.9139 H   0  0  0  0  0  0  0  0  0  0  0  0
  139.7206  160.5000  131.9750 H   0  0  0  0  0  0  0  0  0  0  0  0
  141.8962  155.6698  135.6881 H   0  0  0  0  0  0  0  0  0  0  0  0
  1  2  1  0
  2  3  1  0
  2  4  1  0
  2  5  1  0
  5  6  1  0
  6  7  2  0
  6  8  1  0
  8  9  1  0
  9 10  1  0
 10 11  1  0
 10 12  2  0
  9 13  2  0
 13 14  1  0
 14 15  2  0
 15 16  1  0
 16 17  2  0
 17 18  1  0
 18 19  1  0
 19 20  1  0
 20 21  2  0
 21 22  1  0
 22 23  2  0
 23 24  1  0
 24 25  2  0
 25 26  1  0
 17 27  1  0
 27 28  2  0
 28  8  1  0
 28 14  1  0
 25 20  1  0
  1 29  1  0
  1 30  1  0
  1 31  1  0
  3 32  1  0
  3 33  1  0
  3 34  1  0
  4 35  1  0
  4 36  1  0
  4 37  1  0
 11 38  1  0
 13 39  1  0
 15 40  1  0
 16 41  1  0
 18 42  1  0
 18 43  1  0
 19 44  1  0
 19 45  1  0
 21 46  1  0
 22 47  1  0
 23 48  1  0
 24 49  1  0
 27 50  1  0
M  CHG  2  11  -1  26  -1
M  END
>  <UniqueID>  (86) 
86

>  <SMILES>  (86) 
CC(C)(C)OC(=O)n1c(C([NH-])=O)cc2ccc(CCc3ccccc3[O-])cc21

>  <Energy>  (86) 
82.66599437904502

>  <Genealogy>  (86) 
CC(C)(C)OC(=O)n1c(C([NH-])=O)cc2ccc(CCc3ccccc3[O-])cc21 (protonated)
CC(C)(C)OC(=O)n1c(C([NH-])=O)cc2ccc(CCc3ccccc3[O-])cc21 (3D coordinates assigned)
CC(C)(C)OC(=O)n1c(C([NH-])=O)cc2ccc(CCc3ccccc3[O-])cc21 (optimized conformer: 82.66599437904502 kcal/mol)

>  <smiles>  (86) 
CC(C)(C)OC(=O)n1c(C(N)=O)cc2ccc(CCc3ccccc3O)cc21

>  <score_type>  (86) 
oracle

>  <origin>  (86) 
adg

>  <m_score__min__energy>  (86) 
-8.3200000000000003

>  <m_primary>  (86) 
energy

$$$$
